data_PCOD9292500
_publ_section_title
;
Structure prediction by ZEFSAII (Michael W. Deem and Ramdas Pophale) SiO2 
 PCOD9292500
Probable space group: C 2/C
;
_chemical_formula_sum "Si O2"
_cell_formula_units_Z 48
_cell_length_a 8.552166
_cell_length_b 9.490954
_cell_length_c 24.966733
_cell_angle_alpha 90.000000
_cell_angle_beta 74.733467
_cell_angle_gamma 90.000000
_cell_volume 1954.992570
_symmetry_space_group_name_H-M "C 2/C"
_symmetry_group_IT_number 15
_symmetry_cell_setting 'monoclinic'
loop_
_space_group_symop_operation_xyz
x,y,z
-x,y,1/2-z
-x,-y,-z
x,-y,1/2+z
1/2+x,1/2+y,z
1/2-x,1/2+y,1/2-z
1/2-x,1/2-y,-z
1/2+x,1/2-y,1/2+z
loop_
_atom_site_type_symbol
_atom_site_label
_atom_site_fract_x
_atom_site_fract_y
_atom_site_fract_z
Si Si1 0.686216 0.913854 0.485894
Si Si2 0.760714 0.942600 0.081382
Si Si3 0.500000 0.803601 0.750000
Si Si4 0.187252 0.131552 0.326605
Si Si5 0.000000 0.186130 0.250000
Si Si6 0.182246 0.744545 0.332395
Si Si7 0.629208 0.068827 0.871104
O O1 0.750000 0.750000 0.500000
O O2 0.784390 0.016227 0.517430
O O3 0.718669 0.915763 0.420195
O O4 0.500000 0.000000 0.500000
O O5 0.821215 0.068778 0.113970
O O6 0.835478 0.811377 0.107022
O O7 0.566223 0.927189 0.104177
O O8 0.644057 0.900455 0.716092
O O9 0.446496 0.720480 0.701814
O O10 0.055291 0.092827 0.295133
O O11 0.176200 0.299096 0.331611
O O12 0.146581 0.273992 0.211170
O O13 0.170577 0.578598 0.341697
#
# Coordination Sequence:
#
# PCOD9292500 Si02
#       7
#     8   8   4   8   4   8   8
#     4  10  22  43  74 101 137 188 235 299 380 441
#     4  11  23  43  67  97 135 175 231 285 358 418
#     4  10  24  40  62 100 132 182 226 280 344 418
#     4  11  22  41  68  90 134 177 228 275 350 418
#     4  10  24  40  62 100 132 182 226 280 344 418
#     4  11  24  41  68  98 136 183 228 285 346 424
#     4  11  23  43  67  97 135 175 231 285 358 418
#
# _framework density 24.552523999999998
#
# number of rings (size 3 to 8) (size 9 to 14) (size 15 to 20)
#    0.000    1.333    5.000    0.000    0.000   10.000 
#    0.000    0.000    0.000    6.000    0.000    0.000 
#    0.000    0.000    0.000    0.000    0.000    0.000 
#
# Total GULP energy -133616.196785 kJ/mol
# GULP energy per Si atom -5567.341533 kJ/mol
# Density = 2.449664 g / cm^3
# Si number density = 24.552524 Si / 1000 Ang^3
#
#
#
# Elastic Constant Matrix: (Units=GPa)
#
#
# Indices 1 2 3 4 5 6 
#
# 1 95.4001 11.2400 24.2619 0.0000 33.8284 0.0000
# 2 11.2400 166.9047 31.6285 0.0000 14.2299 0.0000
# 3 24.2619 31.6285 140.9931 0.0000 66.7785 0.0000
# 4 0.0000 0.0000 0.0000 97.6400 0.0000 30.3480
# 5 33.8284 14.2299 66.7785 0.0000 55.5929 0.0000
# 6 0.0000 0.0000 0.0000 30.3480 0.0000 18.6797
#
#
#
# Elastic Compliance Matrix: (Units=1/GPa)
#
#
# Indices 1 2 3 4 5 6 
#
# 1 0.014257 -0.000580 0.003979 0.000000 -0.013307 0.000000
# 2 -0.000580 0.006282 -0.001659 0.000000 0.000737 0.000000
# 3 0.003979 -0.001659 0.017922 0.000000 -0.023525 0.000000
# 4 0.000000 0.000000 0.000000 0.020689 0.000000 -0.033612
# 5 -0.013307 0.000737 -0.023525 0.000000 0.054155 0.000000
# 6 0.000000 0.000000 0.000000 -0.033612 0.000000 0.108142
#
#
# Mechanical properties :
#
#
# Convention : Reuss Voigt Hill
#
# Bulk Modulus (GPa) = 23.84180 59.72875 41.78527
# Shear Modulus (GPa) = 21.55681 56.79369 39.17525
#
# Velocity S-wave (km/s) = 2.96630 4.81474 3.99879
# Velocity P-wave (km/s) = 4.63287 7.43564 6.19485
#
# Compressibility (1/GPa) = 0.04194314
#
# Stress axis : x y z
#
# Youngs Moduli (GPa) = 70.14065 159.18657 55.79768
#
# Poissons Ratio (x) = 0.09228 -0.22204
# Poissons Ratio (y) = 0.04066 0.09254
# Poissons Ratio (z) = -0.27911 0.26401
#
# Static dielectric constant tensor:
#      x y z
#    x 2.062390 0.000000 0.036070 
#    y 0.000000 2.042450 0.000000 
#    z 0.036070 0.000000 1.850720 
# 
# From -- ./inp_files/306719.got.cif
#   From: 2010.05.17/outbox.cif.g08.bks.cpg/sg15_154_cif.got.tgz:306719.got - 2010.06.03 18:47:42.
