data_PCOD9292101
_publ_section_title
;
Structure prediction by ZEFSAII (Michael W. Deem and Ramdas Pophale) SiO2 
 PCOD9292101
Probable space group: C 2/C
;
_chemical_formula_sum "Si O2"
_cell_formula_units_Z 56
_cell_length_a 8.089768
_cell_length_b 27.363776
_cell_length_c 11.832110
_cell_angle_alpha 90.000000
_cell_angle_beta 74.798181
_cell_angle_gamma 90.000000
_cell_volume 2527.582166
_symmetry_space_group_name_H-M "C 2/C"
_symmetry_group_IT_number 15
_symmetry_cell_setting 'monoclinic'
loop_
_space_group_symop_operation_xyz
x,y,z
-x,y,1/2-z
-x,-y,-z
x,-y,1/2+z
1/2+x,1/2+y,z
1/2-x,1/2+y,1/2-z
1/2-x,1/2-y,-z
1/2+x,1/2-y,1/2+z
loop_
_atom_site_type_symbol
_atom_site_label
_atom_site_fract_x
_atom_site_fract_y
_atom_site_fract_z
Si Si1 0.247508 0.586545 0.294373
Si Si2 0.359807 0.929556 0.929093
Si Si3 0.982794 0.271679 0.118143
Si Si4 0.670091 0.524294 0.014806
Si Si5 0.158776 0.116792 0.870086
Si Si6 0.267037 0.351732 0.382605
Si Si7 0.218759 0.182216 0.073919
O O1 0.262008 0.579015 0.158194
O O2 0.351995 0.553078 0.363447
O O3 0.267827 0.643147 0.327272
O O4 0.054783 0.569523 0.356446
O O5 0.345660 0.882698 0.011421
O O6 0.303483 0.979790 0.997945
O O7 0.049853 0.215814 0.114214
O O8 0.000000 0.287170 0.250000
O O9 0.799688 0.295621 0.114494
O O10 0.109097 0.287960 0.990371
O O11 0.500000 0.500000 0.000000
O O12 0.704488 0.563916 0.910896
O O13 0.256427 0.126467 0.737584
O O14 0.960791 0.132515 0.881138
O O15 0.207898 0.151639 0.962009
#
# Coordination Sequence:
#
# PCOD9292101 Si02
#       7
#     8   8   8   8   8   8   8
#     4  10  24  43  64  96 137 173 227 272 334 408
#     4  11  23  41  65  98 136 180 218 271 337 405
#     4  11  22  41  70  95 124 172 221 280 348 410
#     4  11  23  42  65  97 134 180 224 273 333 400
#     4  10  23  41  64  94 133 172 219 280 328 406
#     4  11  22  40  66  93 131 172 220 276 340 397
#     4  10  22  43  66  95 127 167 225 279 337 411
#
# _framework density 22.155562
#
# number of rings (size 3 to 8) (size 9 to 14) (size 15 to 20)
#    0.000    1.429    4.286    0.429    2.000    2.286 
#    0.000    0.000    0.000    0.000    0.000    0.000 
#    0.000    0.000    0.000    0.000    0.000    0.000 
#
# Total GULP energy -155955.855860 kJ/mol
# GULP energy per Si atom -5569.851995 kJ/mol
# Density = 2.210513 g / cm^3
# Si number density = 22.155562 Si / 1000 Ang^3
#
#
#
# Elastic Constant Matrix: (Units=GPa)
#
#
# Indices 1 2 3 4 5 6 
#
# 1 44.0784 16.5195 -0.1354 0.0000 9.0105 0.0000
# 2 16.5195 99.5546 18.4494 0.0000 5.2594 0.0000
# 3 -0.1354 18.4494 87.5267 0.0000 5.7719 0.0000
# 4 0.0000 0.0000 0.0000 55.7018 0.0000 36.8794
# 5 9.0105 5.2594 5.7719 0.0000 19.9060 0.0000
# 6 0.0000 0.0000 0.0000 36.8794 0.0000 55.0374
#
#
#
# Elastic Compliance Matrix: (Units=1/GPa)
#
#
# Indices 1 2 3 4 5 6 
#
# 1 0.026568 -0.004113 0.001661 0.000000 -0.011421 0.000000
# 2 -0.004113 0.011182 -0.002336 0.000000 -0.000415 0.000000
# 3 0.001661 -0.002336 0.012161 0.000000 -0.003661 0.000000
# 4 0.000000 0.000000 0.000000 0.032269 0.000000 -0.021623
# 5 -0.011421 -0.000415 -0.003661 0.000000 0.056577 0.000000
# 6 0.000000 0.000000 0.000000 -0.021623 0.000000 0.032658
#
#
# Mechanical properties :
#
#
# Convention : Reuss Voigt Hill
#
# Bulk Modulus (GPa) = 24.79172 33.42520 29.10846
# Shear Modulus (GPa) = 25.71529 39.21745 32.46637
#
# Velocity S-wave (km/s) = 3.41056 4.21181 3.83218
# Velocity P-wave (km/s) = 5.16946 6.22670 5.72255
#
# Compressibility (1/GPa) = 0.04033605
#
# Stress axis : x y z
#
# Youngs Moduli (GPa) = 37.63911 89.42878 82.22679
#
# Poissons Ratio (x) = 0.36782 -0.13660
# Poissons Ratio (y) = 0.15481 0.19208
# Poissons Ratio (z) = -0.06253 0.20891
#
# Static dielectric constant tensor:
#      x y z
#    x 2.043430 0.000000 -0.163190 
#    y 0.000000 1.628780 0.000000 
#    z -0.163190 0.000000 1.908470 
# 
# From -- ./inp_files/81285.got.cif
#   From: 2010.05.17/outbox.cif.g08.bks.cpg/sg15_41_cif.got.tgz:81285.got - 2010.06.03 18:47:42.
