data_PCOD9292814
_publ_section_title
;
Structure prediction by ZEFSAII (Michael W. Deem and Ramdas Pophale) SiO2 
 PCOD9292814
Probable space group: C 2/C
;
_chemical_formula_sum "Si O2"
_cell_formula_units_Z 40
_cell_length_a 21.772372
_cell_length_b 6.462613
_cell_length_c 15.381920
_cell_angle_alpha 90.000000
_cell_angle_beta 130.338587
_cell_angle_gamma 90.000000
_cell_volume 1649.726469
_symmetry_space_group_name_H-M "C 2/C"
_symmetry_group_IT_number 15
_symmetry_cell_setting 'monoclinic'
loop_
_space_group_symop_operation_xyz
x,y,z
-x,y,1/2-z
-x,-y,-z
x,-y,1/2+z
1/2+x,1/2+y,z
1/2-x,1/2+y,1/2-z
1/2-x,1/2-y,-z
1/2+x,1/2-y,1/2+z
loop_
_atom_site_type_symbol
_atom_site_label
_atom_site_fract_x
_atom_site_fract_y
_atom_site_fract_z
Si Si1 0.735340 0.497778 0.354434
Si Si2 0.000000 0.994659 0.750000
Si Si3 0.104748 0.317948 0.769908
Si Si4 0.603774 0.857575 0.424098
Si Si5 0.000000 0.500000 0.000000
Si Si6 0.137845 0.331500 0.166057
O O1 0.689336 0.303316 0.353715
O O2 0.698567 0.873773 0.531812
O O3 0.786907 0.400322 0.322438
O O4 0.669650 0.659627 0.259573
O O5 0.929630 0.852971 0.646800
O O6 0.962098 0.143880 0.786968
O O7 0.092543 0.470097 0.839195
O O8 0.101336 0.458216 0.679422
O O9 0.553427 0.904300 0.464459
O O10 0.943781 0.718260 0.957200
#
# Coordination Sequence:
#
# PCOD9292814 Si02
#       6
#     8   4   8   8   4   8
#     4  11  24  44  71 102 142 183 231 294 352 413
#     4  12  26  46  70 102 140 186 236 294 348 416
#     4  12  24  44  72 100 141 187 231 288 356 420
#     4  11  25  45  69 104 141 182 238 292 348 425
#     4  10  22  44  68  92 142 184 228 286 344 402
#     4  11  23  45  67 104 140 185 236 289 341 426
#
# _framework density 24.246442999999999
#
# number of rings (size 3 to 8) (size 9 to 14) (size 15 to 20)
#    0.000    0.800    2.000    6.000    0.000    4.800 
#    3.600    6.000    0.000    0.000    0.000    0.000 
#    0.000    0.000    0.000    0.000    0.000    0.000 
#
# Total GULP energy -111489.954968 kJ/mol
# GULP energy per Si atom -5574.497748 kJ/mol
# Density = 2.419126 g / cm^3
# Si number density = 24.246443 Si / 1000 Ang^3
#
#
#
# Elastic Constant Matrix: (Units=GPa)
#
#
# Indices 1 2 3 4 5 6 
#
# 1 149.3547 63.6221 25.5793 -0.0001 -11.2285 -0.0001
# 2 63.6221 95.8299 28.7194 -0.0003 -12.1040 -0.0003
# 3 25.5793 28.7194 72.9418 -0.0001 -13.0520 -0.0001
# 4 -0.0001 -0.0003 -0.0001 16.1838 -0.0001 2.2364
# 5 -11.2285 -12.1040 -13.0520 -0.0001 44.5441 0.0000
# 6 -0.0001 -0.0003 -0.0001 2.2364 0.0000 33.8594
#
#
#
# Elastic Compliance Matrix: (Units=1/GPa)
#
#
# Indices 1 2 3 4 5 6 
#
# 1 0.009404 -0.005917 -0.000878 0.000000 0.000506 0.000000
# 2 -0.005917 0.015717 -0.003816 0.000000 0.001661 0.000000
# 3 -0.000878 -0.003816 0.016141 0.000000 0.003471 0.000000
# 4 0.000000 0.000000 0.000000 0.062359 0.000000 -0.004119
# 5 0.000506 0.001661 0.003471 0.000000 0.024046 0.000000
# 6 0.000000 0.000000 0.000000 -0.004119 0.000000 0.029806
#
#
# Mechanical properties :
#
#
# Convention : Reuss Voigt Hill
#
# Bulk Modulus (GPa) = 49.89789 61.55200 55.72495
# Shear Modulus (GPa) = 26.97250 32.26449 29.61849
#
# Velocity S-wave (km/s) = 3.33893 3.65182 3.49887
# Velocity P-wave (km/s) = 5.95724 6.57436 6.27339
#
# Compressibility (1/GPa) = 0.02004093
#
# Stress axis : x y z
#
# Youngs Moduli (GPa) = 106.33608 63.62693 61.95379
#
# Poissons Ratio (x) = 0.37645 0.05439
# Poissons Ratio (y) = 0.62914 0.23642
# Poissons Ratio (z) = 0.09335 0.24280
#
# Static dielectric constant tensor:
#      x y z
#    x 1.864040 0.000000 -0.257250 
#    y 0.000000 1.881070 0.000000 
#    z -0.257250 0.000000 1.084230 
# 
# From -- ./inp_files/212624.got.cif
#   From: 2010.05.17/outbox.cif.g08.bks.cpg/sg15_107_cif.got.tgz:212624.got - 2010.06.03 18:47:42.
