data_PCOD9292684
_publ_section_title
;
Structure prediction by ZEFSAII (Michael W. Deem and Ramdas Pophale) SiO2 
 PCOD9292684
Probable space group: C 2/C
;
_chemical_formula_sum "Si O2"
_cell_formula_units_Z 52
_cell_length_a 22.626607
_cell_length_b 6.823338
_cell_length_c 15.203937
_cell_angle_alpha 90.000000
_cell_angle_beta 70.297789
_cell_angle_gamma 90.000000
_cell_volume 2209.902515
_symmetry_space_group_name_H-M "C 2/C"
_symmetry_group_IT_number 15
_symmetry_cell_setting 'monoclinic'
loop_
_space_group_symop_operation_xyz
x,y,z
-x,y,1/2-z
-x,-y,-z
x,-y,1/2+z
1/2+x,1/2+y,z
1/2-x,1/2+y,1/2-z
1/2-x,1/2-y,-z
1/2+x,1/2-y,1/2+z
loop_
_atom_site_type_symbol
_atom_site_label
_atom_site_fract_x
_atom_site_fract_y
_atom_site_fract_z
Si Si1 0.756827 0.915132 0.368446
Si Si2 0.896560 0.203484 0.847586
Si Si3 0.860551 0.164648 0.053339
Si Si4 0.000000 0.925358 0.750000
Si Si5 0.585906 0.975832 0.893710
Si Si6 0.455971 0.930495 0.387965
Si Si7 0.201014 0.217321 0.835861
O O1 0.824998 0.851440 0.364591
O O2 0.699556 0.800219 0.441004
O O3 0.756796 0.858023 0.265074
O O4 0.741850 0.145404 0.379282
O O5 0.914827 0.433171 0.843736
O O6 0.941851 0.073073 0.764436
O O7 0.904300 0.142151 0.946738
O O8 0.896542 0.294104 0.107946
O O9 0.831977 0.964620 0.101612
O O10 0.975286 0.774883 0.836326
O O11 0.520805 0.955668 0.876599
O O12 0.644259 0.853851 0.828755
O O13 0.576890 0.911175 0.000485
#
# Coordination Sequence:
#
# PCOD9292684 Si02
#       7
#     8   8   8   4   8   8   8
#     4  11  24  40  64  95 125 169 219 267 331 383
#     4  11  26  42  64  94 133 172 212 272 331 391
#     4  10  22  44  66  94 127 167 217 269 331 391
#     4  12  26  38  62  98 130 168 216 260 332 390
#     4   9  22  41  69  88 125 171 214 263 323 386
#     4  10  23  44  61  95 128 170 216 262 320 393
#     4  11  22  38  64  94 123 163 217 268 318 390
#
# _framework density 23.530449000000001
#
# number of rings (size 3 to 8) (size 9 to 14) (size 15 to 20)
#    0.000    1.538    1.538    1.846    6.462    1.846 
#    0.000    4.615    0.000    0.000    0.000    0.000 
#    0.000    0.000    0.000    0.000    0.000    0.000 
#
# Total GULP energy -145372.050166 kJ/mol
# GULP energy per Si atom -5591.232699 kJ/mol
# Density = 2.347689 g / cm^3
# Si number density = 23.530449 Si / 1000 Ang^3
#
#
#
# Elastic Constant Matrix: (Units=GPa)
#
#
# Indices 1 2 3 4 5 6 
#
# 1 83.4039 16.3111 -14.8892 0.0000 -19.5681 0.0000
# 2 16.3111 121.5522 40.5581 0.0000 -5.9575 0.0000
# 3 -14.8892 40.5581 68.0046 0.0000 -21.6212 0.0000
# 4 0.0000 0.0000 0.0000 47.7475 0.0000 -21.4337
# 5 -19.5681 -5.9575 -21.6212 0.0000 27.7743 0.0000
# 6 0.0000 0.0000 0.0000 -21.4337 0.0000 30.5843
#
#
#
# Elastic Compliance Matrix: (Units=1/GPa)
#
#
# Indices 1 2 3 4 5 6 
#
# 1 0.024844 -0.008692 0.020725 0.000000 0.031773 0.000000
# 2 -0.008692 0.013561 -0.014635 0.000000 -0.014608 0.000000
# 3 0.020725 -0.014635 0.042013 0.000000 0.044168 0.000000
# 4 0.000000 0.000000 0.000000 0.030556 0.000000 0.021414
# 5 0.031773 -0.014608 0.044168 0.000000 0.089639 0.000000
# 6 0.000000 0.000000 0.000000 0.021414 0.000000 0.047704
#
#
# Mechanical properties :
#
#
# Convention : Reuss Voigt Hill
#
# Bulk Modulus (GPa) = 13.29533 39.65787 26.47660
# Shear Modulus (GPa) = 17.94741 36.61994 27.28368
#
# Velocity S-wave (km/s) = 2.76475 3.94925 3.40884
# Velocity P-wave (km/s) = 3.98175 6.13888 5.17398
#
# Compressibility (1/GPa) = 0.07521438
#
# Stress axis : x y z
#
# Youngs Moduli (GPa) = 40.25125 73.74351 23.80194
#
# Poissons Ratio (x) = 0.64097 -0.49329
# Poissons Ratio (y) = 0.34986 0.34834
# Poissons Ratio (z) = -0.83421 1.07923
#
# Static dielectric constant tensor:
#      x y z
#    x 1.881780 0.000000 0.043650 
#    y 0.000000 1.895180 0.000000 
#    z 0.043650 0.000000 1.907850 
# 
# From -- ./inp_files/221166.got.cif
#   From: 2010.05.17/outbox.cif.g08.bks.cpg/sg15_111_cif.got.tgz:221166.got - 2010.06.03 18:47:42.
