data_PCOD9292720
_publ_section_title
;
Structure prediction by ZEFSAII (Michael W. Deem and Ramdas Pophale) SiO2 
 PCOD9292720
Probable space group: C 2/C
;
_chemical_formula_sum "Si O2"
_cell_formula_units_Z 40
_cell_length_a 7.053971
_cell_length_b 21.640019
_cell_length_c 12.228942
_cell_angle_alpha 90.000000
_cell_angle_beta 123.606653
_cell_angle_gamma 90.000000
_cell_volume 1554.714400
_symmetry_space_group_name_H-M "C 2/C"
_symmetry_group_IT_number 15
_symmetry_cell_setting 'monoclinic'
loop_
_space_group_symop_operation_xyz
x,y,z
-x,y,1/2-z
-x,-y,-z
x,-y,1/2+z
1/2+x,1/2+y,z
1/2-x,1/2+y,1/2-z
1/2-x,1/2-y,-z
1/2+x,1/2-y,1/2+z
loop_
_atom_site_type_symbol
_atom_site_label
_atom_site_fract_x
_atom_site_fract_y
_atom_site_fract_z
Si Si1 0.031812 0.253853 0.509773
Si Si2 0.287213 0.318551 0.764614
Si Si3 0.709705 0.983829 0.488278
Si Si4 0.556628 0.869407 0.148311
Si Si5 0.000000 0.428107 0.750000
Si Si6 0.500000 0.452153 0.250000
O O1 0.250000 0.250000 0.500000
O O2 0.125854 0.264872 0.661040
O O3 0.872161 0.199453 0.413619
O O4 0.917505 0.317581 0.434518
O O5 0.500000 0.323912 0.750000
O O6 0.149602 0.382002 0.724393
O O7 0.663118 0.027965 0.371310
O O8 0.925412 0.004918 0.625432
O O9 0.500000 0.000000 0.500000
O O10 0.663305 0.912923 0.444846
O O11 0.500000 0.842591 0.250000
O O12 0.784422 0.910615 0.217189
#
# Coordination Sequence:
#
# PCOD9292720 Si02
#       6
#     8   8   8   8   4   4
#     4  10  22  44  67 100 136 180 230 289 352 404
#     4  10  23  42  67  99 135 178 230 287 343 421
#     4  10  23  46  64 102 141 175 238 287 343 423
#     4  11  22  43  67  95 138 179 232 288 340 427
#     4  12  24  45  70 102 141 182 230 290 356 408
#     4  10  24  41  66  98 131 182 222 288 354 404
#
# _framework density 25.728197999999999
#
# number of rings (size 3 to 8) (size 9 to 14) (size 15 to 20)
#    0.000    1.600    1.000    4.200    0.000    7.200 
#   27.000    0.000    0.000    0.000    0.000    0.000 
#    0.000    0.000    0.000    0.000    0.000    0.000 
#
# Total GULP energy -112021.284674 kJ/mol
# GULP energy per Si atom -5601.064234 kJ/mol
# Density = 2.566964 g / cm^3
# Si number density = 25.728198 Si / 1000 Ang^3
#
#
#
# Elastic Constant Matrix: (Units=GPa)
#
#
# Indices 1 2 3 4 5 6 
#
# 1 111.5169 9.6944 24.0608 0.0000 12.5919 0.0000
# 2 9.6944 74.8672 30.2999 0.0000 9.6614 0.0000
# 3 24.0608 30.2999 150.0039 0.0000 0.7932 0.0000
# 4 0.0000 0.0000 0.0000 12.0086 0.0000 18.3194
# 5 12.5919 9.6614 0.7932 0.0000 33.0945 0.0000
# 6 0.0000 0.0000 0.0000 18.3194 0.0000 29.5347
#
#
#
# Elastic Compliance Matrix: (Units=1/GPa)
#
#
# Indices 1 2 3 4 5 6 
#
# 1 0.009715 -0.000185 -0.001502 0.000000 -0.003606 0.000000
# 2 -0.000185 0.015151 -0.003008 0.000000 -0.004281 0.000000
# 3 -0.001502 -0.003008 0.007508 0.000000 0.001270 0.000000
# 4 0.000000 0.000000 0.000000 1.548659 0.000000 -0.960581
# 5 -0.003606 -0.004281 0.001270 0.000000 0.032808 0.000000
# 6 0.000000 0.000000 0.000000 -0.960581 0.000000 0.629674
#
#
# Mechanical properties :
#
#
# Convention : Reuss Voigt Hill
#
# Bulk Modulus (GPa) = 43.50802 51.61092 47.55947
# Shear Modulus (GPa) = 2.21184 33.08308 17.64746
#
# Velocity S-wave (km/s) = 0.92820 3.58979 2.62185
# Velocity P-wave (km/s) = 4.25395 6.10621 5.26222
#
# Compressibility (1/GPa) = 0.02298427
#
# Stress axis : x y z
#
# Youngs Moduli (GPa) = 102.93837 66.00337 133.18596
#
# Poissons Ratio (x) = 0.01219 0.20003
# Poissons Ratio (y) = 0.01901 0.40064
# Poissons Ratio (z) = 0.15460 0.19854
#
# Static dielectric constant tensor:
#      x y z
#    x 2.016770 0.000000 -0.003640 
#    y 0.000000 2.046040 0.000000 
#    z -0.003640 0.000000 2.097860 
# 
# From -- ./inp_files/137644.got.cif
#   From: 2010.05.17/outbox.cif.g08.bks.cpg/sg15_69_cif.got.tgz:137644.got - 2010.06.03 18:47:42.
