data_PCOD9292655
_publ_section_title
;
Structure prediction by ZEFSAII (Michael W. Deem and Ramdas Pophale) SiO2 
 PCOD9292655
Probable space group: C 2/C
;
_chemical_formula_sum "Si O2"
_cell_formula_units_Z 44
_cell_length_a 12.275635
_cell_length_b 12.951716
_cell_length_c 22.906764
_cell_angle_alpha 90.000000
_cell_angle_beta 34.781710
_cell_angle_gamma 90.000000
_cell_volume 2077.560500
_symmetry_space_group_name_H-M "C 2/C"
_symmetry_group_IT_number 15
_symmetry_cell_setting 'monoclinic'
loop_
_space_group_symop_operation_xyz
x,y,z
-x,y,1/2-z
-x,-y,-z
x,-y,1/2+z
1/2+x,1/2+y,z
1/2-x,1/2+y,1/2-z
1/2-x,1/2-y,-z
1/2+x,1/2-y,1/2+z
loop_
_atom_site_type_symbol
_atom_site_label
_atom_site_fract_x
_atom_site_fract_y
_atom_site_fract_z
Si Si1 0.473521 0.497781 0.580930
Si Si2 0.624388 0.153686 0.929092
Si Si3 0.253747 0.041401 0.054151
Si Si4 0.382952 0.268375 0.132683
Si Si5 0.000000 0.816065 0.750000
Si Si6 0.649209 0.171041 0.233980
O O1 0.500000 0.500000 0.500000
O O2 0.667859 0.467139 0.527910
O O3 0.417092 0.611390 0.627457
O O4 0.311204 0.415347 0.668311
O O5 0.756357 0.222901 0.830643
O O6 0.734237 0.069079 0.919223
O O7 0.463423 0.091408 0.964121
O O8 0.512861 0.229891 0.021991
O O9 0.113560 0.112771 0.154181
O O10 0.434961 0.199059 0.165922
O O11 0.162700 0.248078 0.211996
O O12 0.500000 0.138336 0.250000
#
# Coordination Sequence:
#
# PCOD9292655 Si02
#       6
#     8   8   8   8   4   8
#     4  12  26  44  67 102 140 179 222 286 343 401
#     4  10  24  45  69  99 132 183 225 286 330 411
#     4  10  23  43  72  96 134 174 234 270 344 404
#     4  11  25  44  69  96 140 178 226 281 339 405
#     4  10  22  44  66 102 128 182 230 276 332 414
#     4  12  27  44  66 102 138 183 228 276 346 401
#
# _framework density 21.178685000000002
#
# number of rings (size 3 to 8) (size 9 to 14) (size 15 to 20)
#    0.000    1.091    3.636    1.091    7.636    5.091 
#    0.000    0.000    0.000    0.000    0.000    0.000 
#    0.000    0.000    0.000    0.000    0.000    0.000 
#
# Total GULP energy -123156.815199 kJ/mol
# GULP energy per Si atom -5598.037055 kJ/mol
# Density = 2.113048 g / cm^3
# Si number density = 21.178685 Si / 1000 Ang^3
#
#
#
# Elastic Constant Matrix: (Units=GPa)
#
#
# Indices 1 2 3 4 5 6 
#
# 1 150.4342 12.2096 3.7951 -0.0001 -1.8317 0.0000
# 2 12.2096 77.6936 -7.0712 -0.0002 -2.8387 0.0001
# 3 3.7951 -7.0712 25.1826 -0.0006 1.7829 0.0000
# 4 -0.0001 -0.0002 -0.0006 9.9451 0.0001 -2.1915
# 5 -1.8317 -2.8387 1.7829 0.0001 25.3821 0.0000
# 6 0.0000 0.0001 0.0000 -2.1915 0.0000 18.6994
#
#
#
# Elastic Compliance Matrix: (Units=1/GPa)
#
#
# Indices 1 2 3 4 5 6 
#
# 1 0.006783 -0.001175 -0.001385 0.000000 0.000455 0.000000
# 2 -0.001175 0.013450 0.003873 0.000001 0.001147 0.000000
# 3 -0.001385 0.003873 0.041187 0.000003 -0.002560 0.000000
# 4 0.000000 0.000001 0.000003 0.103218 -0.000001 0.012097
# 5 0.000455 0.001147 -0.002560 -0.000001 0.039739 0.000000
# 6 0.000000 0.000000 0.000000 0.012097 0.000000 0.054895
#
#
# Mechanical properties :
#
#
# Convention : Reuss Voigt Hill
#
# Bulk Modulus (GPa) = 15.61371 30.13082 22.87227
# Shear Modulus (GPa) = 17.98588 27.09712 22.54150
#
# Velocity S-wave (km/s) = 2.91734 3.58082 3.26597
# Velocity P-wave (km/s) = 4.32854 5.59949 5.00452
#
# Compressibility (1/GPa) = 0.06404627
#
# Stress axis : x y z
#
# Youngs Moduli (GPa) = 147.42104 74.34846 24.27934
#
# Poissons Ratio (x) = 0.08739 0.03362
# Poissons Ratio (y) = 0.17328 -0.09403
# Poissons Ratio (z) = 0.20411 -0.28793
#
# Static dielectric constant tensor:
#      x y z
#    x 1.760090 0.000000 -0.003380 
#    y 0.000000 1.731700 0.000000 
#    z -0.003380 0.000000 1.723820 
# 
# From -- ./inp_files/142212.got.cif
#   From: 2010.05.17/outbox.cif.g08.bks.cpg/sg15_72_cif.got.tgz:142212.got - 2010.06.03 18:47:42.
