data_PCOD9292153
_publ_section_title
;
Structure prediction by ZEFSAII (Michael W. Deem and Ramdas Pophale) SiO2 
 PCOD9292153
Probable space group: C 2/C
;
_chemical_formula_sum "Si O2"
_cell_formula_units_Z 40
_cell_length_a 9.579220
_cell_length_b 12.122611
_cell_length_c 15.626799
_cell_angle_alpha 90.000000
_cell_angle_beta 104.096685
_cell_angle_gamma 90.000000
_cell_volume 1760.017889
_symmetry_space_group_name_H-M "C 2/C"
_symmetry_group_IT_number 15
_symmetry_cell_setting 'monoclinic'
loop_
_space_group_symop_operation_xyz
x,y,z
-x,y,1/2-z
-x,-y,-z
x,-y,1/2+z
1/2+x,1/2+y,z
1/2-x,1/2+y,1/2-z
1/2-x,1/2-y,-z
1/2+x,1/2-y,1/2+z
loop_
_atom_site_type_symbol
_atom_site_label
_atom_site_fract_x
_atom_site_fract_y
_atom_site_fract_z
Si Si1 0.876811 0.743709 0.793164
Si Si2 0.889169 0.321613 0.492063
Si Si3 0.479057 0.537150 0.375519
Si Si4 0.132125 0.806142 0.130948
Si Si5 0.765585 0.031261 0.983281
O O1 0.906540 0.874070 0.805561
O O2 0.723325 0.732928 0.724858
O O3 0.000000 0.695532 0.750000
O O4 0.893548 0.693234 0.890266
O O5 0.750000 0.250000 0.500000
O O6 0.860537 0.448688 0.513670
O O7 0.029448 0.275627 0.562744
O O8 0.464683 0.409344 0.351031
O O9 0.643157 0.566951 0.420387
O O10 0.381372 0.543940 0.447339
O O11 0.243816 0.863664 0.079925
#
# Coordination Sequence:
#
# PCOD9292153 Si02
#       5
#     8   8   8   8   8
#     4  12  26  41  64 101 144 184 237 304 362 426
#     4  12  19  43  74 101 137 192 239 294 369 433
#     4   9  17  42  66  92 136 178 226 291 356 413
#     4  10  22  43  67 107 141 177 249 296 350 443
#     4   9  17  40  70  93 137 179 235 294 351 433
#
# _framework density 22.727041
#
# number of rings (size 3 to 8) (size 9 to 14) (size 15 to 20)
#    1.200    0.400    6.000    0.000    0.000    3.200 
#    3.600    1.000    0.000    0.000    0.000    0.000 
#    0.000    0.000    0.000    0.000    0.000    0.000 
#
# Total GULP energy -111545.667992 kJ/mol
# GULP energy per Si atom -5577.283400 kJ/mol
# Density = 2.267531 g / cm^3
# Si number density = 22.727041 Si / 1000 Ang^3
#
#
#
# Elastic Constant Matrix: (Units=GPa)
#
#
# Indices 1 2 3 4 5 6 
#
# 1 77.6696 25.9819 34.7451 0.0000 -3.1203 0.0000
# 2 25.9819 81.2984 36.1653 0.0000 18.7121 0.0000
# 3 34.7451 36.1653 103.1568 0.0000 11.8153 0.0000
# 4 0.0000 0.0000 0.0000 38.9667 0.0000 7.2014
# 5 -3.1203 18.7121 11.8153 0.0000 44.2219 0.0000
# 6 0.0000 0.0000 0.0000 7.2014 0.0000 34.0012
#
#
#
# Elastic Compliance Matrix: (Units=1/GPa)
#
#
# Indices 1 2 3 4 5 6 
#
# 1 0.016485 -0.004198 -0.004557 0.000000 0.004157 0.000000
# 2 -0.004198 0.016776 -0.003735 0.000000 -0.006397 0.000000
# 3 -0.004557 -0.003735 0.012785 0.000000 -0.002157 0.000000
# 4 0.000000 0.000000 0.000000 0.026708 0.000000 -0.005657
# 5 0.004157 -0.006397 -0.002157 0.000000 0.026190 0.000000
# 6 0.000000 0.000000 0.000000 -0.005657 0.000000 0.030609
#
#
# Mechanical properties :
#
#
# Convention : Reuss Voigt Hill
#
# Bulk Modulus (GPa) = 47.46816 50.65658 49.06237
# Shear Modulus (GPa) = 30.94944 34.45347 32.70145
#
# Velocity S-wave (km/s) = 3.69425 3.89777 3.79737
# Velocity P-wave (km/s) = 6.25525 6.52643 6.39228
#
# Compressibility (1/GPa) = 0.02106675
#
# Stress axis : x y z
#
# Youngs Moduli (GPa) = 60.66180 59.60998 78.21566
#
# Poissons Ratio (x) = 0.25025 0.35641
# Poissons Ratio (y) = 0.25466 0.29211
# Poissons Ratio (z) = 0.27642 0.22262
#
# Static dielectric constant tensor:
#      x y z
#    x 1.888810 0.000000 -0.031540 
#    y 0.000000 1.866450 0.000000 
#    z -0.031540 0.000000 1.915880 
# 
# From -- ./inp_files/133256.got.cif
#   From: 2010.05.17/outbox.cif.g08.bks.cpg/sg15_67_cif.got.tgz:133256.got - 2010.06.03 18:47:42.
