data_PCOD9292909
_publ_section_title
;
Structure prediction by ZEFSAII (Michael W. Deem and Ramdas Pophale) SiO2 
 PCOD9292909
Probable space group: C 2/C
;
_chemical_formula_sum "Si O2"
_cell_formula_units_Z 56
_cell_length_a 8.369126
_cell_length_b 13.785406
_cell_length_c 21.229776
_cell_angle_alpha 90.000000
_cell_angle_beta 65.184968
_cell_angle_gamma 90.000000
_cell_volume 2223.165618
_symmetry_space_group_name_H-M "C 2/C"
_symmetry_group_IT_number 15
_symmetry_cell_setting 'monoclinic'
loop_
_space_group_symop_operation_xyz
x,y,z
-x,y,1/2-z
-x,-y,-z
x,-y,1/2+z
1/2+x,1/2+y,z
1/2-x,1/2+y,1/2-z
1/2-x,1/2-y,-z
1/2+x,1/2-y,1/2+z
loop_
_atom_site_type_symbol
_atom_site_label
_atom_site_fract_x
_atom_site_fract_y
_atom_site_fract_z
Si Si1 0.758629 0.519657 0.967480
Si Si2 0.250000 0.750000 0.000000
Si Si3 0.397793 0.421162 0.389011
Si Si4 0.128262 0.225426 0.959963
Si Si5 0.102727 0.427281 0.343204
Si Si6 0.844129 0.081604 0.133986
Si Si7 0.000000 0.427398 0.750000
Si Si8 0.938034 0.774002 0.829026
O O1 0.639345 0.608204 0.962542
O O2 0.709872 0.428451 0.930190
O O3 0.958943 0.545724 0.920605
O O4 0.707422 0.491971 0.045481
O O5 0.365597 0.682710 0.927972
O O6 0.439571 0.774455 0.000855
O O7 0.295794 0.422828 0.340088
O O8 0.588915 0.474937 0.353512
O O9 0.233112 0.258413 0.879521
O O10 0.250000 0.250000 0.000000
O O11 0.037061 0.326964 0.324543
O O12 0.072589 0.506824 0.294654
O O13 0.995368 0.152731 0.129050
O O14 0.670780 0.124138 0.195567
O O15 0.000000 0.809186 0.750000
#
# Coordination Sequence:
#
# PCOD9292909 Si02
#       8
#     8   4   8   8   8   8   4   8
#     4  10  22  44  69  98 144 187 225 298 371 433
#     4  12  26  42  70 116 146 188 248 304 368 448
#     4  12  25  39  71 108 140 182 243 304 366 438
#     4  11  24  47  74 104 152 198 245 309 376 444
#     4  10  23  44  72  99 138 186 239 293 363 441
#     4  11  25  45  71 101 143 187 237 301 368 439
#     4  10  24  50  70  96 138 196 240 296 366 438
#     4  11  25  46  73 104 144 198 244 303 376 446
#
# _framework density 25.189306999999999
#
# number of rings (size 3 to 8) (size 9 to 14) (size 15 to 20)
#    0.000    1.143    2.143    3.429    6.000    1.143 
#    2.571    1.429    0.000    0.000    0.000    0.000 
#    0.000    0.000    0.000    0.000    0.000    0.000 
#
# Total GULP energy -156182.576243 kJ/mol
# GULP energy per Si atom -5577.949152 kJ/mol
# Density = 2.513197 g / cm^3
# Si number density = 25.189307 Si / 1000 Ang^3
#
#
#
# Elastic Constant Matrix: (Units=GPa)
#
#
# Indices 1 2 3 4 5 6 
#
# 1 108.7747 -18.6865 21.1937 0.0000 -15.1090 0.0000
# 2 -18.6865 21.7591 -2.8484 0.0000 -5.6685 0.0000
# 3 21.1937 -2.8484 87.6257 0.0000 -19.2801 0.0000
# 4 0.0000 0.0000 0.0000 19.7331 0.0000 -4.0011
# 5 -15.1090 -5.6685 -19.2801 0.0000 39.9850 0.0000
# 6 0.0000 0.0000 0.0000 -4.0011 0.0000 23.9997
#
#
#
# Elastic Compliance Matrix: (Units=1/GPa)
#
#
# Indices 1 2 3 4 5 6 
#
# 1 0.012277 0.011847 -0.001336 0.000000 0.005674 0.000000
# 2 0.011847 0.060075 0.002177 0.000000 0.014043 0.000000
# 3 -0.001336 0.002177 0.013159 0.000000 0.006149 0.000000
# 4 0.000000 0.000000 0.000000 0.052449 0.000000 0.008744
# 5 0.005674 0.014043 0.006149 0.000000 0.032109 0.000000
# 6 0.000000 0.000000 0.000000 0.008744 0.000000 0.043125
#
#
# Mechanical properties :
#
#
# Convention : Reuss Voigt Hill
#
# Bulk Modulus (GPa) = 9.01818 24.16413 16.59116
# Shear Modulus (GPa) = 22.24397 31.31027 26.77712
#
# Velocity S-wave (km/s) = 2.97488 3.52944 3.26396
# Velocity P-wave (km/s) = 3.92273 5.12085 4.56130
#
# Compressibility (1/GPa) = 0.11088713
#
# Stress axis : x y z
#
# Youngs Moduli (GPa) = 81.45376 16.64591 75.99373
#
# Poissons Ratio (x) = -0.19720 0.10151
# Poissons Ratio (y) = -0.96495 -0.16546
# Poissons Ratio (z) = 0.10880 -0.03624
#
# Static dielectric constant tensor:
#      x y z
#    x 2.106250 0.000000 -0.014070 
#    y 0.000000 2.220990 0.000000 
#    z -0.014070 0.000000 2.039060 
# 
# From -- ./inp_files/264618.got.cif
#   From: 2010.05.17/outbox.cif.g08.bks.cpg/sg15_133_cif.got.tgz:264618.got - 2010.06.03 18:47:42.
