data_PCOD9292185
_publ_section_title
;
Structure prediction by ZEFSAII (Michael W. Deem and Ramdas Pophale) SiO2 
 PCOD9292185
Probable space group: C 2/C
;
_chemical_formula_sum "Si O2"
_cell_formula_units_Z 56
_cell_length_a 22.755247
_cell_length_b 11.075679
_cell_length_c 26.631433
_cell_angle_alpha 90.000000
_cell_angle_beta 21.265988
_cell_angle_gamma 90.000000
_cell_volume 2434.398795
_symmetry_space_group_name_H-M "C 2/C"
_symmetry_group_IT_number 15
_symmetry_cell_setting 'monoclinic'
loop_
_space_group_symop_operation_xyz
x,y,z
-x,y,1/2-z
-x,-y,-z
x,-y,1/2+z
1/2+x,1/2+y,z
1/2-x,1/2+y,1/2-z
1/2-x,1/2-y,-z
1/2+x,1/2-y,1/2+z
loop_
_atom_site_type_symbol
_atom_site_label
_atom_site_fract_x
_atom_site_fract_y
_atom_site_fract_z
Si Si1 0.433241 0.960353 0.423484
Si Si2 0.153432 0.527216 0.157656
Si Si3 0.372267 0.413138 0.308469
Si Si4 0.695578 0.707577 0.951982
Si Si5 0.611478 0.113029 0.353495
Si Si6 0.196970 0.789065 0.894889
Si Si7 0.141998 0.129758 0.256930
O O1 0.568370 0.983296 0.275869
O O2 0.345644 0.832857 0.487723
O O3 0.295895 0.061571 0.528708
O O4 0.519393 0.992219 0.407721
O O5 0.219162 0.399318 0.084420
O O6 0.293676 0.615452 0.065953
O O7 0.000000 0.580640 0.250000
O O8 0.500000 0.393386 0.250000
O O9 0.338351 0.303782 0.298467
O O10 0.400650 0.530515 0.251235
O O11 0.794543 0.753598 0.824714
O O12 0.516197 0.657317 0.084261
O O13 0.738845 0.154367 0.208445
O O14 0.472729 0.216254 0.472222
O O15 0.714472 0.089926 0.321066
#
# Coordination Sequence:
#
# PCOD9292185 Si02
#       7
#     8   8   8   8   8   8   8
#     4   9  22  43  60  92 130 168 213 270 323 376
#     4  11  24  41  65  93 134 171 214 268 322 379
#     4  10  23  41  67  96 129 170 221 262 324 395
#     4  11  23  42  60  94 128 167 220 255 325 379
#     4  10  22  43  67  95 131 165 218 269 329 386
#     4  10  23  43  67  98 127 170 215 272 327 379
#     4  11  24  41  68  96 128 174 214 271 323 385
#
# _framework density 23.003627999999999
#
# number of rings (size 3 to 8) (size 9 to 14) (size 15 to 20)
#    0.000    1.714    1.429    1.286    4.000    9.143 
#    0.000    6.429    0.000    0.000    0.000    0.000 
#    0.000    0.000    0.000    0.000    0.000    0.000 
#
# Total GULP energy -156183.000382 kJ/mol
# GULP energy per Si atom -5577.964299 kJ/mol
# Density = 2.295127 g / cm^3
# Si number density = 23.003628 Si / 1000 Ang^3
#
#
#
# Elastic Constant Matrix: (Units=GPa)
#
#
# Indices 1 2 3 4 5 6 
#
# 1 55.3050 -2.4825 -1.4266 0.0059 -11.0303 0.0006
# 2 -2.4825 48.8320 0.3237 0.0044 16.9333 0.0096
# 3 -1.4266 0.3237 40.0843 0.0221 -6.4202 0.0030
# 4 0.0059 0.0044 0.0221 19.7303 0.0065 9.9284
# 5 -11.0303 16.9333 -6.4202 0.0065 22.4909 -0.0022
# 6 0.0006 0.0096 0.0030 9.9284 -0.0022 -33.0397
#
#
#
# Elastic Compliance Matrix: (Units=1/GPa)
#
#
# Indices 1 2 3 4 5 6 
#
# 1 0.020757 -0.003777 0.002992 -0.000011 0.013878 -0.000005
# 2 -0.003777 0.028946 -0.004354 0.000003 -0.024888 0.000010
# 3 0.002992 -0.004354 0.027088 -0.000030 0.012478 -0.000009
# 4 -0.000011 0.000003 -0.000030 0.044026 -0.000027 0.013230
# 5 0.013878 -0.024888 0.012478 -0.000027 0.073569 -0.000019
# 6 -0.000005 0.000010 -0.000009 0.013230 -0.000019 -0.026291
#
#
# Mechanical properties :
#
#
# Convention : Reuss Voigt Hill
#
# Bulk Modulus (GPa) = 15.03496 15.22783 15.13140
# Shear Modulus (GPa) = 24.93219 11.69006 18.31113
#
# Velocity S-wave (km/s) = 3.29574 2.25674 2.82443
# Velocity P-wave (km/s) = 4.58614 3.66396 4.15074
#
# Compressibility (1/GPa) = 0.06651165
#
# Stress axis : x y z
#
# Youngs Moduli (GPa) = 48.17652 34.54744 36.91709
#
# Poissons Ratio (x) = 0.13048 -0.11046
# Poissons Ratio (y) = 0.18196 0.16076
# Poissons Ratio (z) = -0.14414 0.15044
#
# Static dielectric constant tensor:
#      x y z
#    x 1.881070 0.000000 0.000760 
#    y 0.000000 1.943860 0.000000 
#    z 0.000760 0.000000 1.922740 
# 
# From -- ./inp_files/318779.got.cif
#   From: 2010.05.17/outbox.cif.g08.bks.cpg/sg15_160_cif.got.tgz:318779.got - 2010.06.03 18:47:42.
