data_PCOD9292020
_publ_section_title
;
Structure prediction by ZEFSAII (Michael W. Deem and Ramdas Pophale) SiO2 
 PCOD9292020
Probable space group: C 2/C
;
_chemical_formula_sum "Si O2"
_cell_formula_units_Z 56
_cell_length_a 10.990996
_cell_length_b 10.441135
_cell_length_c 22.882059
_cell_angle_alpha 90.000000
_cell_angle_beta 106.284025
_cell_angle_gamma 90.000000
_cell_volume 2520.567850
_symmetry_space_group_name_H-M "C 2/C"
_symmetry_group_IT_number 15
_symmetry_cell_setting 'monoclinic'
loop_
_space_group_symop_operation_xyz
x,y,z
-x,y,1/2-z
-x,-y,-z
x,-y,1/2+z
1/2+x,1/2+y,z
1/2-x,1/2+y,1/2-z
1/2-x,1/2-y,-z
1/2+x,1/2-y,1/2+z
loop_
_atom_site_type_symbol
_atom_site_label
_atom_site_fract_x
_atom_site_fract_y
_atom_site_fract_z
Si Si1 0.434021 0.263005 0.127122
Si Si2 0.799062 0.605078 0.721429
Si Si3 0.127717 0.471100 0.573162
Si Si4 0.000000 0.384486 0.750000
Si Si5 0.331465 0.320920 0.415153
Si Si6 0.170186 0.465467 0.958200
Si Si7 0.173150 0.013763 0.812074
Si Si8 0.000000 0.802766 0.750000
O O1 0.510233 0.193834 0.190919
O O2 0.526376 0.328288 0.091913
O O3 0.341867 0.160570 0.083326
O O4 0.363869 0.371988 0.151885
O O5 0.754780 0.663378 0.654461
O O6 0.685284 0.565389 0.748165
O O7 0.893712 0.709658 0.762875
O O8 0.879974 0.476673 0.723892
O O9 0.160115 0.323766 0.558365
O O10 0.188574 0.555867 0.529933
O O11 0.190218 0.476567 0.645009
O O12 0.979972 0.506897 0.561236
O O13 0.270984 0.430392 0.448271
O O14 0.075397 0.897772 0.802454
#
# Coordination Sequence:
#
# PCOD9292020 Si02
#       8
#     8   8   8   4   8   8   8   4
#     4  11  24  38  61  92 130 168 211 269 327 390
#     4  11  23  37  66  89 127 171 207 263 327 391
#     4  10  23  41  66  91 126 166 219 273 320 388
#     4  11  21  40  58  94 125 165 214 258 322 395
#     4  11  20  41  64  91 123 166 216 268 328 383
#     4  10  22  43  65  92 121 168 224 268 321 389
#     4  12  25  40  61  94 132 169 205 266 331 387
#     4  11  25  40  56  96 131 161 214 260 324 395
#
# _framework density 22.217216000000001
#
# number of rings (size 3 to 8) (size 9 to 14) (size 15 to 20)
#    0.000    1.143    2.857    4.286    4.000    1.714 
#    0.000    0.714    0.000    0.000    0.000    0.000 
#    0.000    0.000    0.000    0.000    0.000    0.000 
#
# Total GULP energy -156138.773687 kJ/mol
# GULP energy per Si atom -5576.384775 kJ/mol
# Density = 2.216665 g / cm^3
# Si number density = 22.217216 Si / 1000 Ang^3
#
#
#
# Elastic Constant Matrix: (Units=GPa)
#
#
# Indices 1 2 3 4 5 6 
#
# 1 64.7416 39.4213 8.4592 0.0000 -16.0931 0.0000
# 2 39.4213 82.0983 7.5550 0.0000 -17.6178 0.0000
# 3 8.4592 7.5550 56.2115 0.0000 -5.1345 0.0000
# 4 0.0000 0.0000 0.0000 27.3837 0.0000 -9.3106
# 5 -16.0931 -17.6178 -5.1345 0.0000 35.0841 0.0000
# 6 0.0000 0.0000 0.0000 -9.3106 0.0000 51.4052
#
#
#
# Elastic Compliance Matrix: (Units=1/GPa)
#
#
# Indices 1 2 3 4 5 6 
#
# 1 0.022902 -0.009686 -0.001651 0.000000 0.005399 0.000000
# 2 -0.009686 0.017832 -0.000534 0.000000 0.004433 0.000000
# 3 -0.001651 -0.000534 0.018261 0.000000 0.001647 0.000000
# 4 0.000000 0.000000 0.000000 0.038915 0.000000 0.007048
# 5 0.005399 0.004433 0.001647 0.000000 0.033447 0.000000
# 6 0.000000 0.000000 0.000000 0.007048 0.000000 0.020730
#
#
# Mechanical properties :
#
#
# Convention : Reuss Voigt Hill
#
# Bulk Modulus (GPa) = 28.36779 34.88026 31.62402
# Shear Modulus (GPa) = 26.65533 32.61566 29.63549
#
# Velocity S-wave (km/s) = 3.46751 3.83565 3.65622
# Velocity P-wave (km/s) = 5.36914 5.94559 5.66470
#
# Compressibility (1/GPa) = 0.03525125
#
# Stress axis : x y z
#
# Youngs Moduli (GPa) = 43.66448 56.07870 54.76252
#
# Poissons Ratio (x) = 0.54319 0.09044
# Poissons Ratio (y) = 0.42294 0.02925
# Poissons Ratio (z) = 0.07211 0.02995
#
# Static dielectric constant tensor:
#      x y z
#    x 1.879810 0.000000 0.114450 
#    y 0.000000 1.831950 0.000000 
#    z 0.114450 0.000000 2.004400 
# 
# From -- ./inp_files/237170.got.cif
#   From: 2010.05.17/outbox.cif.g08.bks.cpg/sg15_119_cif.got.tgz:237170.got - 2010.06.03 18:47:42.
