data_PCOD9292004
_publ_section_title
;
Structure prediction by ZEFSAII (Michael W. Deem and Ramdas Pophale) SiO2 
 PCOD9292004
Probable space group: C 2/C
;
_chemical_formula_sum "Si O2"
_cell_formula_units_Z 48
_cell_length_a 11.893304
_cell_length_b 7.809765
_cell_length_c 27.100539
_cell_angle_alpha 90.000000
_cell_angle_beta 122.100845
_cell_angle_gamma 90.000000
_cell_volume 2132.358967
_symmetry_space_group_name_H-M "C 2/C"
_symmetry_group_IT_number 15
_symmetry_cell_setting 'monoclinic'
loop_
_space_group_symop_operation_xyz
x,y,z
-x,y,1/2-z
-x,-y,-z
x,-y,1/2+z
1/2+x,1/2+y,z
1/2-x,1/2+y,1/2-z
1/2-x,1/2-y,-z
1/2+x,1/2-y,1/2+z
loop_
_atom_site_type_symbol
_atom_site_label
_atom_site_fract_x
_atom_site_fract_y
_atom_site_fract_z
Si Si1 0.161793 0.363024 0.080319
Si Si2 0.822576 0.198850 0.820611
Si Si3 0.178276 0.205093 0.188894
Si Si4 0.573703 0.843863 0.316384
Si Si5 0.364511 0.133004 0.502971
Si Si6 0.105835 0.635118 0.403979
O O1 0.189738 0.330607 0.144665
O O2 0.162698 0.552861 0.057043
O O3 0.879623 0.529550 0.042665
O O4 0.012594 0.288226 0.037350
O O5 0.785684 0.250709 0.755983
O O6 0.700480 0.258525 0.826325
O O7 0.964791 0.270473 0.868232
O O8 0.814806 0.993332 0.823474
O O9 0.034297 0.233479 0.179735
O O10 0.500000 0.911105 0.250000
O O11 0.610761 0.996759 0.361158
O O12 0.250000 0.250000 0.500000
O O13 0.273601 0.737889 0.576712
#
# Coordination Sequence:
#
# PCOD9292004 Si02
#       6
#     8   8   8   8   8   8
#     4  11  26  47  71 106 137 183 240 297 348 428
#     4  11  25  43  71 105 148 188 229 293 354 439
#     4  11  23  47  68 106 147 187 233 287 363 423
#     4  10  22  43  65 100 143 187 230 281 348 425
#     4  11  28  51  72  99 142 188 245 296 358 420
#     4  12  25  44  75 102 142 182 238 291 361 422
#
# _framework density 22.510282
#
# number of rings (size 3 to 8) (size 9 to 14) (size 15 to 20)
#    0.000    1.000    3.333    2.500    2.333    4.667 
#    9.000    0.000    0.000    0.000    0.000    0.000 
#    0.000    0.000    0.000    0.000    0.000    0.000 
#
# Total GULP energy -134316.972639 kJ/mol
# GULP energy per Si atom -5596.540527 kJ/mol
# Density = 2.245905 g / cm^3
# Si number density = 22.510282 Si / 1000 Ang^3
#
#
#
# Elastic Constant Matrix: (Units=GPa)
#
#
# Indices 1 2 3 4 5 6 
#
# 1 162.9197 51.0077 64.7854 0.0000 20.6511 0.0000
# 2 51.0077 43.0783 48.3169 0.0000 1.2732 0.0000
# 3 64.7854 48.3169 138.1921 0.0000 -5.8853 0.0000
# 4 0.0000 0.0000 0.0000 44.6590 0.0000 -3.3027
# 5 20.6511 1.2732 -5.8853 0.0000 44.3105 0.0000
# 6 0.0000 0.0000 0.0000 -3.3027 0.0000 -2.5935
#
#
#
# Elastic Compliance Matrix: (Units=1/GPa)
#
#
# Indices 1 2 3 4 5 6 
#
# 1 0.010770 -0.011041 -0.001397 0.000000 -0.004888 0.000000
# 2 -0.011041 0.049880 -0.012174 0.000000 0.002096 0.000000
# 3 -0.001397 -0.012174 0.012260 0.000000 0.002629 0.000000
# 4 0.000000 0.000000 0.000000 0.020465 0.000000 -0.026061
# 5 -0.004888 0.002096 0.002629 0.000000 0.025135 0.000000
# 6 0.000000 0.000000 0.000000 -0.026061 0.000000 -0.352399
#
#
# Mechanical properties :
#
#
# Convention : Reuss Voigt Hill
#
# Bulk Modulus (GPa) = 42.22102 74.71225 58.46664
# Shear Modulus (GPa) = -28.28529 29.28055 0.49763
#
# Velocity S-wave (km/s) = -3.54863 3.61052 0.47069
# Velocity P-wave (km/s) = 1.41657 7.11642 5.13080
#
# Compressibility (1/GPa) = 0.02368488
#
# Stress axis : x y z
#
# Youngs Moduli (GPa) = 92.85293 20.04814 81.56830
#
# Poissons Ratio (x) = 0.22135 0.11393
# Poissons Ratio (y) = 1.02520 0.99305
# Poissons Ratio (z) = 0.12969 0.24407
#
# Static dielectric constant tensor:
#      x y z
#    x 1.876630 0.000000 -0.022530 
#    y 0.000000 1.837200 0.000000 
#    z -0.022530 0.000000 1.856280 
# 
# From -- ./inp_files/291293.got.cif
#   From: 2010.05.17/outbox.cif.g08.bks.cpg/sg15_146_cif.got.tgz:291293.got - 2010.06.03 18:47:42.
