data_PCOD9292058
_publ_section_title
;
Structure prediction by ZEFSAII (Michael W. Deem and Ramdas Pophale) SiO2 
 PCOD9292058
Probable space group: C 2/C
;
_chemical_formula_sum "Si O2"
_cell_formula_units_Z 40
_cell_length_a 21.379868
_cell_length_b 8.170754
_cell_length_c 9.658062
_cell_angle_alpha 90.000000
_cell_angle_beta 98.515485
_cell_angle_gamma 90.000000
_cell_volume 1668.563901
_symmetry_space_group_name_H-M "C 2/C"
_symmetry_group_IT_number 15
_symmetry_cell_setting 'monoclinic'
loop_
_space_group_symop_operation_xyz
x,y,z
-x,y,1/2-z
-x,-y,-z
x,-y,1/2+z
1/2+x,1/2+y,z
1/2-x,1/2+y,1/2-z
1/2-x,1/2-y,-z
1/2+x,1/2-y,1/2+z
loop_
_atom_site_type_symbol
_atom_site_label
_atom_site_fract_x
_atom_site_fract_y
_atom_site_fract_z
Si Si1 0.555197 0.394740 0.155786
Si Si2 0.476959 0.764904 0.396805
Si Si3 0.279915 0.066663 0.132502
Si Si4 0.687428 0.296891 0.145975
Si Si5 0.856792 0.536416 0.913285
O O1 0.500000 0.371995 0.250000
O O2 0.557295 0.587475 0.123249
O O3 0.626282 0.347152 0.215777
O O4 0.533167 0.283523 0.019436
O O5 0.500000 0.808739 0.250000
O O6 0.427893 0.898492 0.437497
O O7 0.263343 0.209984 0.235017
O O8 0.221148 0.947964 0.085419
O O9 0.332174 0.973405 0.247392
O O10 0.314125 0.133599 0.008288
O O11 0.660781 0.149706 0.043542
#
# Coordination Sequence:
#
# PCOD9292058 Si02
#       5
#     8   8   8   8   8
#     4  10  22  43  65  99 130 170 209 264 320 381
#     4  10  23  41  67  97 129 169 214 260 323 378
#     4  10  24  44  61 100 122 176 209 262 323 369
#     4  10  24  40  68  91 134 165 215 263 313 383
#     4  10  24  43  65  95 129 169 213 264 316 379
#
# _framework density 23.972712999999999
#
# number of rings (size 3 to 8) (size 9 to 14) (size 15 to 20)
#    1.200    0.800    0.000    1.800    5.600    2.400 
#   10.800    0.000    0.000    0.000    0.000    0.000 
#    0.000    0.000    0.000    0.000    0.000    0.000 
#
# Total GULP energy -111475.318510 kJ/mol
# GULP energy per Si atom -5573.765926 kJ/mol
# Density = 2.391815 g / cm^3
# Si number density = 23.972713 Si / 1000 Ang^3
#
#
#
# Elastic Constant Matrix: (Units=GPa)
#
#
# Indices 1 2 3 4 5 6 
#
# 1 90.2064 47.4349 11.5431 0.0000 -20.3060 0.0000
# 2 47.4349 71.0740 15.4385 0.0000 -2.5465 0.0000
# 3 11.5431 15.4385 77.9899 0.0000 -14.0862 0.0000
# 4 0.0000 0.0000 0.0000 16.5596 0.0000 -0.4683
# 5 -20.3060 -2.5465 -14.0862 0.0000 29.1071 0.0000
# 6 0.0000 0.0000 0.0000 -0.4683 0.0000 22.6062
#
#
#
# Elastic Compliance Matrix: (Units=1/GPa)
#
#
# Indices 1 2 3 4 5 6 
#
# 1 0.021831 -0.014545 0.002377 0.000000 0.015107 0.000000
# 2 -0.014545 0.024393 -0.004518 0.000000 -0.010199 0.000000
# 3 0.002377 -0.004518 0.014895 0.000000 0.008471 0.000000
# 4 0.000000 0.000000 0.000000 0.060423 0.000000 0.001252
# 5 0.015107 -0.010199 0.008471 0.000000 0.048103 0.000000
# 6 0.000000 0.000000 0.000000 0.001252 0.000000 0.044262
#
#
# Mechanical properties :
#
#
# Convention : Reuss Voigt Hill
#
# Bulk Modulus (GPa) = 36.04106 43.12259 39.58183
# Shear Modulus (GPa) = 19.49113 24.64484 22.06799
#
# Velocity S-wave (km/s) = 2.85451 3.20978 3.03734
# Velocity P-wave (km/s) = 5.09226 5.63597 5.37100
#
# Compressibility (1/GPa) = 0.02774613
#
# Stress axis : x y z
#
# Youngs Moduli (GPa) = 45.80709 40.99525 67.13753
#
# Poissons Ratio (x) = 0.59627 -0.15957
# Poissons Ratio (y) = 0.66626 0.30334
# Poissons Ratio (z) = -0.10887 0.18522
#
# Static dielectric constant tensor:
#      x y z
#    x 1.930440 0.000000 -0.019230 
#    y 0.000000 2.027230 0.000000 
#    z -0.019230 0.000000 1.909850 
# 
# From -- ./inp_files/109681.got.cif
#   From: 2010.05.17/outbox.cif.g08.bks.cpg/sg15_55_cif.got.tgz:109681.got - 2010.06.03 18:47:42.
