data_PCOD9292996
_publ_section_title
;
Structure prediction by ZEFSAII (Michael W. Deem and Ramdas Pophale) SiO2 
 PCOD9292996
Probable space group: C 2/C
;
_chemical_formula_sum "Si O2"
_cell_formula_units_Z 40
_cell_length_a 9.532276
_cell_length_b 13.614597
_cell_length_c 16.705818
_cell_angle_alpha 90.000000
_cell_angle_beta 127.956859
_cell_angle_gamma 90.000000
_cell_volume 1709.450673
_symmetry_space_group_name_H-M "C 2/C"
_symmetry_group_IT_number 15
_symmetry_cell_setting 'monoclinic'
loop_
_space_group_symop_operation_xyz
x,y,z
-x,y,1/2-z
-x,-y,-z
x,-y,1/2+z
1/2+x,1/2+y,z
1/2-x,1/2+y,1/2-z
1/2-x,1/2-y,-z
1/2+x,1/2-y,1/2+z
loop_
_atom_site_type_symbol
_atom_site_label
_atom_site_fract_x
_atom_site_fract_y
_atom_site_fract_z
Si Si1 0.618018 0.342979 0.647994
Si Si2 0.500000 0.218539 0.750000
Si Si3 0.041494 0.960745 0.423967
Si Si4 0.500000 0.921618 0.750000
Si Si5 0.377374 0.722348 0.914543
Si Si6 0.959223 0.563973 0.062781
O O1 0.614279 0.273868 0.722748
O O2 0.530735 0.445403 0.648405
O O3 0.495329 0.298571 0.535359
O O4 0.816261 0.361188 0.684356
O O5 0.674497 0.188365 0.862369
O O6 0.246020 0.933543 0.488310
O O7 0.938485 0.860337 0.372781
O O8 0.000000 0.000000 0.500000
O O9 0.489545 0.978066 0.830978
O O10 0.439084 0.831766 0.910850
O O11 0.000000 0.500000 0.000000
#
# Coordination Sequence:
#
# PCOD9292996 Si02
#       6
#     8   4   8   4   8   8
#     4  11  25  47  69 105 148 187 248 300 365 431
#     4  12  24  43  71 104 144 198 242 299 359 442
#     4  10  22  44  70  98 146 186 230 308 361 414
#     4  12  24  47  77 102 154 190 242 305 373 430
#     4  11  24  46  72 106 146 187 245 304 361 430
#     4  12  25  47  75 103 142 194 241 299 366 435
#
# _framework density 23.399328000000001
#
# number of rings (size 3 to 8) (size 9 to 14) (size 15 to 20)
#    0.000    0.800    6.000    2.400    0.000    2.400 
#    3.600    1.000    0.000    0.000    0.000    0.000 
#    0.000    0.000    0.000    0.000    0.000    0.000 
#
# Total GULP energy -111457.016421 kJ/mol
# GULP energy per Si atom -5572.850821 kJ/mol
# Density = 2.334607 g / cm^3
# Si number density = 23.399328 Si / 1000 Ang^3
#
#
#
# Elastic Constant Matrix: (Units=GPa)
#
#
# Indices 1 2 3 4 5 6 
#
# 1 142.1607 22.7695 53.9733 0.0000 39.6502 0.0000
# 2 22.7695 69.2189 13.5806 0.0000 3.1327 0.0000
# 3 53.9733 13.5806 96.1739 0.0000 17.4757 0.0000
# 4 0.0000 0.0000 0.0000 18.2799 0.0000 9.0953
# 5 39.6502 3.1327 17.4757 0.0000 69.5200 0.0000
# 6 0.0000 0.0000 0.0000 9.0953 0.0000 23.6464
#
#
#
# Elastic Compliance Matrix: (Units=1/GPa)
#
#
# Indices 1 2 3 4 5 6 
#
# 1 0.010507 -0.002319 -0.004715 0.000000 -0.004703 0.000000
# 2 -0.002319 0.015372 -0.001031 0.000000 0.000889 0.000000
# 3 -0.004715 -0.001031 0.013300 0.000000 -0.000608 0.000000
# 4 0.000000 0.000000 0.000000 0.067652 0.000000 -0.026022
# 5 -0.004703 0.000889 -0.000608 0.000000 0.017179 0.000000
# 6 0.000000 0.000000 0.000000 -0.026022 0.000000 0.052299
#
#
# Mechanical properties :
#
#
# Convention : Reuss Voigt Hill
#
# Bulk Modulus (GPa) = 43.38339 54.24449 48.81394
# Shear Modulus (GPa) = 24.98482 36.77126 30.87804
#
# Velocity S-wave (km/s) = 3.27120 3.96847 3.63659
# Velocity P-wave (km/s) = 5.73135 6.65062 6.20802
#
# Compressibility (1/GPa) = 0.02305030
#
# Stress axis : x y z
#
# Youngs Moduli (GPa) = 95.17037 65.05485 75.18887
#
# Poissons Ratio (x) = 0.15083 0.35450
# Poissons Ratio (y) = 0.22065 0.07752
# Poissons Ratio (z) = 0.44871 0.06707
#
# Static dielectric constant tensor:
#      x y z
#    x 1.935190 0.000000 0.052900 
#    y 0.000000 2.053070 0.000000 
#    z 0.052900 0.000000 1.782970 
# 
# From -- ./inp_files/189066.got.cif
#   From: 2010.05.17/outbox.cif.g08.bks.cpg/sg15_95_cif.got.tgz:189066.got - 2010.06.03 18:47:42.
