data_PCOD9292007
_publ_section_title
;
Structure prediction by ZEFSAII (Michael W. Deem and Ramdas Pophale) SiO2 
 PCOD9292007
Probable space group: C 2/C
;
_chemical_formula_sum "Si O2"
_cell_formula_units_Z 44
_cell_length_a 16.755577
_cell_length_b 8.470931
_cell_length_c 15.496252
_cell_angle_alpha 90.000000
_cell_angle_beta 119.142044
_cell_angle_gamma 90.000000
_cell_volume 1921.046619
_symmetry_space_group_name_H-M "C 2/C"
_symmetry_group_IT_number 15
_symmetry_cell_setting 'monoclinic'
loop_
_space_group_symop_operation_xyz
x,y,z
-x,y,1/2-z
-x,-y,-z
x,-y,1/2+z
1/2+x,1/2+y,z
1/2-x,1/2+y,1/2-z
1/2-x,1/2-y,-z
1/2+x,1/2-y,1/2+z
loop_
_atom_site_type_symbol
_atom_site_label
_atom_site_fract_x
_atom_site_fract_y
_atom_site_fract_z
Si Si1 0.000000 0.440198 0.250000
Si Si2 0.768597 0.627981 0.177603
Si Si3 0.098957 0.134575 0.327466
Si Si4 0.595101 0.519507 0.001953
Si Si5 0.714902 0.984148 0.142691
Si Si6 0.106231 0.630207 0.427114
O O1 0.084304 0.316302 0.292172
O O2 0.016734 0.549135 0.341081
O O3 0.680918 0.518605 0.111357
O O4 0.818074 0.572273 0.289682
O O5 0.826630 0.636147 0.120330
O O6 0.731038 0.802269 0.173966
O O7 0.187187 0.058223 0.331652
O O8 0.000000 0.058858 0.250000
O O9 0.106657 0.110592 0.433779
O O10 0.500000 0.500000 0.000000
O O11 0.595886 0.692119 0.956427
O O12 0.649386 0.976586 0.025261
#
# Coordination Sequence:
#
# PCOD9292007 Si02
#       6
#     4   8   8   8   8   8
#     4  10  28  38  70 100 142 188 232 296 368 414
#     4  11  24  42  73 108 136 197 242 299 371 438
#     4  10  22  43  65 101 139 181 244 290 355 433
#     4  11  22  42  75 103 142 192 246 293 366 438
#     4  11  23  44  73  99 142 188 246 296 366 444
#     4  11  24  48  68 106 152 187 239 313 364 425
#
# _framework density 22.904181999999999
#
# number of rings (size 3 to 8) (size 9 to 14) (size 15 to 20)
#    0.545    0.727    3.636    2.182    3.818    5.091 
#    0.000    1.818    0.000    0.000    0.000    0.000 
#    0.000    0.000    0.000    0.000    0.000    0.000 
#
# Total GULP energy -123033.826528 kJ/mol
# GULP energy per Si atom -5592.446660 kJ/mol
# Density = 2.285205 g / cm^3
# Si number density = 22.904182 Si / 1000 Ang^3
#
#
#
# Elastic Constant Matrix: (Units=GPa)
#
#
# Indices 1 2 3 4 5 6 
#
# 1 116.1699 4.1017 37.7819 0.0000 -9.7646 0.0000
# 2 4.1017 49.4374 51.1103 0.0000 8.4606 0.0000
# 3 37.7819 51.1103 157.3840 0.0000 -10.5483 0.0000
# 4 0.0000 0.0000 0.0000 38.7983 0.0000 3.5422
# 5 -9.7646 8.4606 -10.5483 0.0000 33.3874 0.0000
# 6 0.0000 0.0000 0.0000 3.5422 0.0000 28.1351
#
#
#
# Elastic Compliance Matrix: (Units=1/GPa)
#
#
# Indices 1 2 3 4 5 6 
#
# 1 0.009576 0.001860 -0.002806 0.000000 0.001443 0.000000
# 2 0.001860 0.035429 -0.012788 0.000000 -0.012474 0.000000
# 3 -0.002806 -0.012788 0.011588 0.000000 0.006081 0.000000
# 4 0.000000 0.000000 0.000000 0.026074 0.000000 -0.003283
# 5 0.001443 -0.012474 0.006081 0.000000 0.035456 0.000000
# 6 0.000000 0.000000 0.000000 -0.003283 0.000000 0.035956
#
#
# Mechanical properties :
#
#
# Convention : Reuss Voigt Hill
#
# Bulk Modulus (GPa) = 34.33571 56.55324 45.44447
# Shear Modulus (GPa) = 26.14298 35.39730 30.77014
#
# Velocity S-wave (km/s) = 3.38214 3.93549 3.66926
# Velocity P-wave (km/s) = 5.50230 6.73762 6.15105
#
# Compressibility (1/GPa) = 0.02912420
#
# Stress axis : x y z
#
# Youngs Moduli (GPa) = 104.42399 28.22560 86.29639
#
# Poissons Ratio (x) = -0.05249 0.24216
# Poissons Ratio (y) = -0.19419 1.10356
# Poissons Ratio (z) = 0.29303 0.36095
#
# Static dielectric constant tensor:
#      x y z
#    x 1.903530 0.000000 0.023760 
#    y 0.000000 1.847870 0.000000 
#    z 0.023760 0.000000 1.855310 
# 
# From -- ./inp_files/159435.got.cif
#   From: 2010.05.17/outbox.cif.g08.bks.cpg/sg15_80_cif.got.tgz:159435.got - 2010.06.03 18:47:42.
