data_PCOD9292809
_publ_section_title
;
Structure prediction by ZEFSAII (Michael W. Deem and Ramdas Pophale) SiO2 
 PCOD9292809
Probable space group: C 2/C
;
_chemical_formula_sum "Si O2"
_cell_formula_units_Z 44
_cell_length_a 9.022390
_cell_length_b 17.379778
_cell_length_c 14.789287
_cell_angle_alpha 90.000000
_cell_angle_beta 62.817785
_cell_angle_gamma 90.000000
_cell_volume 2062.943972
_symmetry_space_group_name_H-M "C 2/C"
_symmetry_group_IT_number 15
_symmetry_cell_setting 'monoclinic'
loop_
_space_group_symop_operation_xyz
x,y,z
-x,y,1/2-z
-x,-y,-z
x,-y,1/2+z
1/2+x,1/2+y,z
1/2-x,1/2+y,1/2-z
1/2-x,1/2-y,-z
1/2+x,1/2-y,1/2+z
loop_
_atom_site_type_symbol
_atom_site_label
_atom_site_fract_x
_atom_site_fract_y
_atom_site_fract_z
Si Si1 0.294358 0.078626 0.115919
Si Si2 0.500000 0.873841 0.250000
Si Si3 0.311304 0.054665 0.470540
Si Si4 0.276015 0.511405 0.697179
Si Si5 0.973806 0.146330 0.865945
Si Si6 0.233325 0.244923 0.898249
O O1 0.493161 0.073386 0.078532
O O2 0.242072 0.166865 0.134908
O O3 0.194798 0.038341 0.223624
O O4 0.273054 0.026632 0.032102
O O5 0.379544 0.932894 0.231809
O O6 0.626222 0.817070 0.166171
O O7 0.210313 0.123098 0.549241
O O8 0.263511 0.039619 0.379487
O O9 0.425162 0.569056 0.637110
O O10 0.000000 0.159223 0.750000
O O11 0.063792 0.213136 0.898872
O O12 0.250000 0.250000 0.000000
#
# Coordination Sequence:
#
# PCOD9292809 Si02
#       6
#     8   4   8   8   8   8
#     4  11  23  40  68  98 129 174 230 272 337 403
#     4  10  22  44  68  90 136 172 216 272 342 396
#     4  11  23  40  69  97 133 172 228 280 328 408
#     4  11  21  42  68  93 128 177 223 276 336 399
#     4  11  24  42  65  99 139 175 221 284 343 394
#     4  11  27  43  66  99 137 180 221 276 348 403
#
# _framework density 21.328742999999999
#
# number of rings (size 3 to 8) (size 9 to 14) (size 15 to 20)
#    0.000    1.091    3.636    2.727    2.545    5.091 
#    0.000    0.000    0.000    0.000    0.000    0.000 
#    0.000    0.000    0.000    0.000    0.000    0.000 
#
# Total GULP energy -122813.556728 kJ/mol
# GULP energy per Si atom -5582.434397 kJ/mol
# Density = 2.128020 g / cm^3
# Si number density = 21.328743 Si / 1000 Ang^3
#
#
#
# Elastic Constant Matrix: (Units=GPa)
#
#
# Indices 1 2 3 4 5 6 
#
# 1 59.8937 6.5618 22.7859 0.0000 3.1944 0.0000
# 2 6.5618 120.0509 32.5682 0.0000 9.2684 0.0000
# 3 22.7859 32.5682 68.7837 0.0000 8.0702 0.0000
# 4 0.0000 0.0000 0.0000 24.2981 0.0000 4.1338
# 5 3.1944 9.2684 8.0702 0.0000 23.8434 0.0000
# 6 0.0000 0.0000 0.0000 4.1338 0.0000 21.3067
#
#
#
# Elastic Compliance Matrix: (Units=1/GPa)
#
#
# Indices 1 2 3 4 5 6 
#
# 1 0.019175 0.000807 -0.006661 0.000000 -0.000628 0.000000
# 2 0.000807 0.009711 -0.004592 0.000000 -0.002329 0.000000
# 3 -0.006661 -0.004592 0.019375 0.000000 -0.003880 0.000000
# 4 0.000000 0.000000 0.000000 0.042560 0.000000 -0.008257
# 5 -0.000628 -0.002329 -0.003880 0.000000 0.044243 0.000000
# 6 0.000000 0.000000 0.000000 -0.008257 0.000000 0.048536
#
#
# Mechanical properties :
#
#
# Convention : Reuss Voigt Hill
#
# Bulk Modulus (GPa) = 36.53689 41.39558 38.96623
# Shear Modulus (GPa) = 23.40662 26.34381 24.87522
#
# Velocity S-wave (km/s) = 3.31633 3.51826 3.41878
# Velocity P-wave (km/s) = 5.64195 5.99622 5.82178
#
# Compressibility (1/GPa) = 0.02736960
#
# Stress axis : x y z
#
# Youngs Moduli (GPa) = 52.15043 102.97256 51.61416
#
# Poissons Ratio (x) = -0.08314 0.34379
# Poissons Ratio (y) = -0.04211 0.23703
# Poissons Ratio (z) = 0.34736 0.47289
#
# Static dielectric constant tensor:
#      x y z
#    x 1.869120 0.000000 0.061100 
#    y 0.000000 1.979540 0.000000 
#    z 0.061100 0.000000 1.984200 
# 
# From -- ./inp_files/134373.got.cif
#   From: 2010.05.17/outbox.cif.g08.bks.cpg/sg15_68_cif.got.tgz:134373.got - 2010.06.03 18:47:42.
