data_PCOD9292039
_publ_section_title
;
Structure prediction by ZEFSAII (Michael W. Deem and Ramdas Pophale) SiO2 
 PCOD9292039
Probable space group: C 2/C
;
_chemical_formula_sum "Si O2"
_cell_formula_units_Z 48
_cell_length_a 11.187945
_cell_length_b 10.142743
_cell_length_c 17.725574
_cell_angle_alpha 90.000000
_cell_angle_beta 78.303446
_cell_angle_gamma 90.000000
_cell_volume 1969.667785
_symmetry_space_group_name_H-M "C 2/C"
_symmetry_group_IT_number 15
_symmetry_cell_setting 'monoclinic'
loop_
_space_group_symop_operation_xyz
x,y,z
-x,y,1/2-z
-x,-y,-z
x,-y,1/2+z
1/2+x,1/2+y,z
1/2-x,1/2+y,1/2-z
1/2-x,1/2-y,-z
1/2+x,1/2-y,1/2+z
loop_
_atom_site_type_symbol
_atom_site_label
_atom_site_fract_x
_atom_site_fract_y
_atom_site_fract_z
Si Si1 0.873536 0.934671 0.727241
Si Si2 0.363760 0.311100 0.943202
Si Si3 0.694605 0.579572 0.627014
Si Si4 0.951283 0.112478 0.588696
Si Si5 0.537557 0.927861 0.416270
Si Si6 0.391720 0.163449 0.204033
O O1 0.842997 0.066426 0.780909
O O2 0.911907 0.981707 0.639240
O O3 0.000000 0.880192 0.750000
O O4 0.743791 0.859947 0.743564
O O5 0.431572 0.383872 0.003232
O O6 0.250000 0.250000 0.000000
O O7 0.315492 0.424064 0.894290
O O8 0.444576 0.187926 0.906076
O O9 0.590059 0.646525 0.592472
O O10 0.827088 0.631815 0.592148
O O11 0.878315 0.228297 0.640169
O O12 0.500000 0.000000 0.500000
O O13 0.559463 0.033277 0.346918
O O14 0.500000 0.192100 0.250000
#
# Coordination Sequence:
#
# PCOD9292039 Si02
#       6
#     8   8   8   8   8   8
#     4   9  21  44  63  92 128 169 220 273 328 401
#     4  12  23  40  70  97 133 176 219 279 339 395
#     4  10  22  43  65  95 132 174 224 270 337 403
#     4  11  23  44  67  92 133 173 219 277 336 406
#     4  11  22  44  64  97 138 173 221 284 330 403
#     4  11  23  42  66  96 131 175 222 278 341 400
#
# _framework density 24.369592000000001
#
# number of rings (size 3 to 8) (size 9 to 14) (size 15 to 20)
#    0.000    1.333    3.333    3.000    2.333    0.667 
#   18.000    0.000    0.000    0.000    0.000    0.000 
#    0.000    0.000    0.000    0.000    0.000    0.000 
#
# Total GULP energy -134160.717680 kJ/mol
# GULP energy per Si atom -5590.029903 kJ/mol
# Density = 2.431413 g / cm^3
# Si number density = 24.369592 Si / 1000 Ang^3
#
#
#
# Elastic Constant Matrix: (Units=GPa)
#
#
# Indices 1 2 3 4 5 6 
#
# 1 132.2913 16.8841 28.6264 0.0000 -35.2119 0.0000
# 2 16.8841 84.2555 19.4134 0.0000 -10.3590 0.0000
# 3 28.6264 19.4134 115.7611 0.0000 -10.4197 0.0000
# 4 0.0000 0.0000 0.0000 40.4244 0.0000 -3.2933
# 5 -35.2119 -10.3590 -10.4197 0.0000 48.1194 0.0000
# 6 0.0000 0.0000 0.0000 -3.2933 0.0000 48.6290
#
#
#
# Elastic Compliance Matrix: (Units=1/GPa)
#
#
# Indices 1 2 3 4 5 6 
#
# 1 0.009788 -0.000755 -0.001697 0.000000 0.006632 0.000000
# 2 -0.000755 0.012648 -0.001774 0.000000 0.001786 0.000000
# 3 -0.001697 -0.001774 0.009392 0.000000 0.000410 0.000000
# 4 0.000000 0.000000 0.000000 0.024875 0.000000 0.001685
# 5 0.006632 0.001786 0.000410 0.000000 0.026108 0.000000
# 6 0.000000 0.000000 0.000000 0.001685 0.000000 0.020678
#
#
# Mechanical properties :
#
#
# Convention : Reuss Voigt Hill
#
# Bulk Modulus (GPa) = 42.77581 51.35061 47.06321
# Shear Modulus (GPa) = 41.75943 45.26017 43.50980
#
# Velocity S-wave (km/s) = 4.14404 4.31425 4.23000
# Velocity P-wave (km/s) = 6.36306 6.77748 6.57354
#
# Compressibility (1/GPa) = 0.02337770
#
# Stress axis : x y z
#
# Youngs Moduli (GPa) = 102.16609 79.06237 106.46830
#
# Poissons Ratio (x) = 0.05969 0.18066
# Poissons Ratio (y) = 0.07714 0.18884
# Poissons Ratio (z) = 0.17336 0.14023
#
# Static dielectric constant tensor:
#      x y z
#    x 1.957400 0.000000 0.005490 
#    y 0.000000 2.008390 0.000000 
#    z 0.005490 0.000000 1.961130 
# 
# From -- ./inp_files/236499.got.cif
#   From: 2010.05.17/outbox.cif.g08.bks.cpg/sg15_119_cif.got.tgz:236499.got - 2010.06.03 18:47:42.
