data_PCOD9292818
_publ_section_title
;
Structure prediction by ZEFSAII (Michael W. Deem and Ramdas Pophale) SiO2 
 PCOD9292818
Probable space group: C 2/C
;
_chemical_formula_sum "Si O2"
_cell_formula_units_Z 48
_cell_length_a 20.900990
_cell_length_b 7.799505
_cell_length_c 14.275412
_cell_angle_alpha 90.000000
_cell_angle_beta 106.382093
_cell_angle_gamma 90.000000
_cell_volume 2232.663362
_symmetry_space_group_name_H-M "C 2/C"
_symmetry_group_IT_number 15
_symmetry_cell_setting 'monoclinic'
loop_
_space_group_symop_operation_xyz
x,y,z
-x,y,1/2-z
-x,-y,-z
x,-y,1/2+z
1/2+x,1/2+y,z
1/2-x,1/2+y,1/2-z
1/2-x,1/2-y,-z
1/2+x,1/2-y,1/2+z
loop_
_atom_site_type_symbol
_atom_site_label
_atom_site_fract_x
_atom_site_fract_y
_atom_site_fract_z
Si Si1 0.000000 0.819009 0.250000
Si Si2 0.320999 0.633791 0.335925
Si Si3 0.613941 0.082991 0.328709
Si Si4 0.744658 0.051659 0.968493
Si Si5 0.500000 0.829032 0.250000
Si Si6 0.710772 0.377958 0.328529
Si Si7 0.969637 0.921286 0.893718
O O1 0.053064 0.708704 0.331794
O O2 0.037717 0.931845 0.188665
O O3 0.284559 0.499774 0.391064
O O4 0.313821 0.546689 0.232488
O O5 0.282018 0.811552 0.322486
O O6 0.397819 0.651377 0.391089
O O7 0.666904 0.999062 0.421395
O O8 0.568355 0.936250 0.262892
O O9 0.661771 0.216081 0.293097
O O10 0.750000 0.250000 0.000000
O O11 0.778371 0.928572 0.059585
O O12 0.490048 0.718760 0.150958
O O13 0.000000 0.000000 0.000000
#
# Coordination Sequence:
#
# PCOD9292818 Si02
#       7
#     4   8   8   8   4   8   8
#     4  10  22  46  66  90 140 172 214 282 326 394
#     4  11  24  42  67 100 130 171 230 271 340 394
#     4  10  22  44  68  94 131 180 216 265 347 388
#     4  11  26  42  70  98 135 175 219 282 334 396
#     4  10  26  46  66  96 142 176 216 286 330 400
#     4  11  24  43  70  97 135 174 217 284 330 397
#     4  11  26  41  71  97 130 181 226 273 331 398
#
# _framework density 21.498985999999999
#
# number of rings (size 3 to 8) (size 9 to 14) (size 15 to 20)
#    0.000    1.333    1.667    3.000   14.000    0.000 
#    0.000    3.333    0.000    0.000    0.000    0.000 
#    0.000    0.000    0.000    0.000    0.000    0.000 
#
# Total GULP energy -133786.540717 kJ/mol
# GULP energy per Si atom -5574.439197 kJ/mol
# Density = 2.145005 g / cm^3
# Si number density = 21.498986 Si / 1000 Ang^3
#
#
#
# Elastic Constant Matrix: (Units=GPa)
#
#
# Indices 1 2 3 4 5 6 
#
# 1 94.8385 4.6373 14.7251 0.0000 20.7648 0.0000
# 2 4.6373 57.5387 9.8268 0.0000 2.2510 0.0000
# 3 14.7251 9.8268 88.9115 0.0000 4.0417 0.0000
# 4 0.0000 0.0000 0.0000 25.5524 0.0000 7.1274
# 5 20.7648 2.2510 4.0417 0.0000 21.9953 0.0000
# 6 0.0000 0.0000 0.0000 7.1274 0.0000 27.0009
#
#
#
# Elastic Compliance Matrix: (Units=1/GPa)
#
#
# Indices 1 2 3 4 5 6 
#
# 1 0.013540 -0.000324 -0.001641 0.000000 -0.012448 0.000000
# 2 -0.000324 0.017769 -0.001857 0.000000 -0.001171 0.000000
# 3 -0.001641 -0.001857 0.011743 0.000000 -0.000419 0.000000
# 4 0.000000 0.000000 0.000000 0.042246 0.000000 -0.011152
# 5 -0.012448 -0.001171 -0.000419 0.000000 0.057413 0.000000
# 6 0.000000 0.000000 0.000000 -0.011152 0.000000 0.039980
#
#
# Mechanical properties :
#
#
# Convention : Reuss Voigt Hill
#
# Bulk Modulus (GPa) = 28.24173 33.29636 30.76905
# Shear Modulus (GPa) = 24.73573 29.04968 26.89270
#
# Velocity S-wave (km/s) = 3.39566 3.67987 3.54062
# Velocity P-wave (km/s) = 5.34218 5.79451 5.57293
#
# Compressibility (1/GPa) = 0.03540859
#
# Stress axis : x y z
#
# Youngs Moduli (GPa) = 73.85327 56.27874 85.15594
#
# Poissons Ratio (x) = 0.01824 0.13973
# Poissons Ratio (y) = 0.02393 0.15813
# Poissons Ratio (z) = 0.12118 0.10451
#
# Static dielectric constant tensor:
#      x y z
#    x 1.795390 0.000000 0.011980 
#    y 0.000000 1.827330 0.000000 
#    z 0.011980 0.000000 1.858590 
# 
# From -- ./inp_files/166422.got.cif
#   From: 2010.05.17/outbox.cif.g08.bks.cpg/sg15_84_cif.got.tgz:166422.got - 2010.06.03 18:47:42.
