data_PCOD9292764
_publ_section_title
;
Structure prediction by ZEFSAII (Michael W. Deem and Ramdas Pophale) SiO2 
 PCOD9292764
Probable space group: C 2/C
;
_chemical_formula_sum "Si O2"
_cell_formula_units_Z 48
_cell_length_a 16.642840
_cell_length_b 7.397020
_cell_length_c 30.121008
_cell_angle_alpha 90.000000
_cell_angle_beta 146.897428
_cell_angle_gamma 90.000000
_cell_volume 2025.150823
_symmetry_space_group_name_H-M "C 2/C"
_symmetry_group_IT_number 15
_symmetry_cell_setting 'monoclinic'
loop_
_space_group_symop_operation_xyz
x,y,z
-x,y,1/2-z
-x,-y,-z
x,-y,1/2+z
1/2+x,1/2+y,z
1/2-x,1/2+y,1/2-z
1/2-x,1/2-y,-z
1/2+x,1/2-y,1/2+z
loop_
_atom_site_type_symbol
_atom_site_label
_atom_site_fract_x
_atom_site_fract_y
_atom_site_fract_z
Si Si1 0.716933 0.331982 0.533184
Si Si2 0.844241 0.215051 0.173620
Si Si3 0.329574 0.880092 0.313332
Si Si4 0.167004 0.193940 0.821672
Si Si5 0.367932 0.200775 0.590874
Si Si6 0.883507 0.800097 0.363157
O O1 0.750000 0.250000 0.500000
O O2 0.748726 0.220383 0.592803
O O3 0.825351 0.501337 0.587415
O O4 0.543978 0.372956 0.448928
O O5 0.831334 0.177230 0.115949
O O6 0.717442 0.319310 0.139912
O O7 0.000000 0.312451 0.250000
O O8 0.855496 0.018466 0.200542
O O9 0.271281 0.760042 0.327947
O O10 0.468036 0.792027 0.351790
O O11 0.196512 0.887246 0.216321
O O12 0.386187 0.081669 0.353707
O O13 0.000000 0.266092 0.750000
O O14 0.250000 0.250000 0.500000
#
# Coordination Sequence:
#
# PCOD9292764 Si02
#       6
#     8   8   8   8   8   8
#     4  12  25  44  68 101 132 175 228 277 326 402
#     4  10  22  44  67  97 133 180 218 272 338 400
#     4  11  25  45  69 100 134 182 220 279 339 403
#     4  10  24  44  70  97 137 178 226 274 334 401
#     4  12  27  43  68  98 139 175 223 282 339 394
#     4  11  25  43  72  98 135 177 229 275 337 406
#
# _framework density 23.701938999999999
#
# number of rings (size 3 to 8) (size 9 to 14) (size 15 to 20)
#    0.000    1.000    3.333    2.000    4.667    4.000 
#    0.000    0.000    0.000    0.000    0.000    0.000 
#    0.000    0.000    0.000    0.000    0.000    0.000 
#
# Total GULP energy -134101.231488 kJ/mol
# GULP energy per Si atom -5587.551312 kJ/mol
# Density = 2.364799 g / cm^3
# Si number density = 23.701939 Si / 1000 Ang^3
#
#
#
# Elastic Constant Matrix: (Units=GPa)
#
#
# Indices 1 2 3 4 5 6 
#
# 1 197.0462 13.1574 66.4202 0.0001 12.6123 0.0000
# 2 13.1574 55.7246 -6.7270 0.0001 4.9936 -0.0001
# 3 66.4202 -6.7270 148.5783 0.0000 4.3570 0.0000
# 4 0.0001 0.0001 0.0000 17.9097 0.0000 -12.7576
# 5 12.6123 4.9936 4.3570 0.0000 46.9296 0.0000
# 6 0.0000 -0.0001 0.0000 -12.7576 0.0000 12.8569
#
#
#
# Elastic Compliance Matrix: (Units=1/GPa)
#
#
# Indices 1 2 3 4 5 6 
#
# 1 0.006218 -0.001698 -0.002820 0.000000 -0.001228 0.000000
# 2 -0.001698 0.018697 0.001655 0.000000 -0.001687 0.000000
# 3 -0.002820 0.001655 0.008071 0.000000 -0.000167 0.000000
# 4 0.000000 0.000000 0.000000 0.190450 0.000000 0.188979
# 5 -0.001228 -0.001687 -0.000167 0.000000 0.021834 0.000000
# 6 0.000000 0.000000 0.000000 0.188979 0.000000 0.265298
#
#
# Mechanical properties :
#
#
# Convention : Reuss Voigt Hill
#
# Bulk Modulus (GPa) = 36.68509 60.78338 48.73424
# Shear Modulus (GPa) = 9.51688 37.43914 23.47801
#
# Velocity S-wave (km/s) = 2.00598 3.97871 3.15072
# Velocity P-wave (km/s) = 4.56909 6.84159 5.81738
#
# Compressibility (1/GPa) = 0.02725903
#
# Stress axis : x y z
#
# Youngs Moduli (GPa) = 160.83113 53.48332 123.89804
#
# Poissons Ratio (x) = 0.09084 0.34945
# Poissons Ratio (y) = 0.27317 -0.20509
# Poissons Ratio (z) = 0.45361 -0.08853
#
# Static dielectric constant tensor:
#      x y z
#    x 2.012360 0.000000 0.033320 
#    y 0.000000 2.036290 0.000000 
#    z 0.033320 0.000000 1.795990 
# 
# From -- ./inp_files/315767.got.cif
#   From: 2010.05.17/outbox.cif.g08.bks.cpg/sg15_158_cif.got.tgz:315767.got - 2010.06.03 18:47:42.
