data_PCOD9292811
_publ_section_title
;
Structure prediction by ZEFSAII (Michael W. Deem and Ramdas Pophale) SiO2 
 PCOD9292811
Probable space group: C 2/C
;
_chemical_formula_sum "Si O2"
_cell_formula_units_Z 44
_cell_length_a 17.055810
_cell_length_b 7.718730
_cell_length_c 16.735963
_cell_angle_alpha 90.000000
_cell_angle_beta 130.570712
_cell_angle_gamma 90.000000
_cell_volume 1673.616976
_symmetry_space_group_name_H-M "C 2/C"
_symmetry_group_IT_number 15
_symmetry_cell_setting 'monoclinic'
loop_
_space_group_symop_operation_xyz
x,y,z
-x,y,1/2-z
-x,-y,-z
x,-y,1/2+z
1/2+x,1/2+y,z
1/2-x,1/2+y,1/2-z
1/2-x,1/2-y,-z
1/2+x,1/2-y,1/2+z
loop_
_atom_site_type_symbol
_atom_site_label
_atom_site_fract_x
_atom_site_fract_y
_atom_site_fract_z
Si Si1 0.223560 0.207360 0.348979
Si Si2 0.931751 0.718899 0.425454
Si Si3 0.917286 0.124442 0.378842
Si Si4 0.109039 0.572156 0.277804
Si Si5 0.080992 0.013213 0.868089
Si Si6 0.750000 0.750000 0.000000
O O1 0.343881 0.165115 0.429598
O O2 0.188004 0.158332 0.236173
O O3 0.178534 0.399093 0.327418
O O4 0.167502 0.093302 0.378193
O O5 0.918202 0.635404 0.329827
O O6 0.044411 0.719571 0.539828
O O7 0.912471 0.927406 0.406081
O O8 0.007027 0.109966 0.370621
O O9 0.180568 0.706675 0.373895
O O10 0.000000 0.536272 0.250000
O O11 0.000000 0.089510 0.750000
O O12 0.147436 0.143027 0.965394
#
# Coordination Sequence:
#
# PCOD9292811 Si02
#       6
#     8   8   8   8   8   4
#     4  11  24  43  69  99 131 168 218 272 322 387
#     4  11  24  43  66  97 131 172 219 263 327 393
#     4  10  22  44  68  91 137 178 208 270 334 382
#     4  12  26  42  64  97 130 167 221 271 321 387
#     4  10  22  44  69  97 131 173 216 263 328 392
#     4  12  24  40  68  92 126 174 218 266 316 386
#
# _framework density 26.290365999999999
#
# number of rings (size 3 to 8) (size 9 to 14) (size 15 to 20)
#    0.000    1.091    0.000    7.636    0.000    9.455 
#    0.000    0.000    0.000    0.000    0.000    0.000 
#    0.000    0.000    0.000    0.000    0.000    0.000 
#
# Total GULP energy -122664.566719 kJ/mol
# GULP energy per Si atom -5575.662124 kJ/mol
# Density = 2.623053 g / cm^3
# Si number density = 26.290366 Si / 1000 Ang^3
#
#
#
# Elastic Constant Matrix: (Units=GPa)
#
#
# Indices 1 2 3 4 5 6 
#
# 1 129.8348 19.2372 20.0842 0.0000 5.3334 0.0000
# 2 19.2372 47.2509 -5.2410 0.0000 4.0661 0.0000
# 3 20.0842 -5.2410 107.3839 0.0000 17.3290 0.0000
# 4 0.0000 0.0000 0.0000 14.9257 0.0000 2.2522
# 5 5.3334 4.0661 17.3290 0.0000 25.9360 0.0000
# 6 0.0000 0.0000 0.0000 2.2522 0.0000 28.7569
#
#
#
# Elastic Compliance Matrix: (Units=1/GPa)
#
#
# Indices 1 2 3 4 5 6 
#
# 1 0.008519 -0.003666 -0.001774 0.000000 0.000008 0.000000
# 2 -0.003666 0.023339 0.002571 0.000000 -0.004623 0.000000
# 3 -0.001774 0.002571 0.010957 0.000000 -0.007359 0.000000
# 4 0.000000 0.000000 0.000000 0.067800 0.000000 -0.005310
# 5 0.000008 -0.004623 -0.007359 0.000000 0.044197 0.000000
# 6 0.000000 0.000000 0.000000 -0.005310 0.000000 0.035190
#
#
# Mechanical properties :
#
#
# Convention : Reuss Voigt Hill
#
# Bulk Modulus (GPa) = 26.97009 39.18114 33.07561
# Shear Modulus (GPa) = 24.02704 30.61632 27.32168
#
# Velocity S-wave (km/s) = 3.02637 3.41625 3.22720
# Velocity P-wave (km/s) = 4.74265 5.52237 5.14730
#
# Compressibility (1/GPa) = 0.03707811
#
# Stress axis : x y z
#
# Youngs Moduli (GPa) = 117.38078 42.84670 91.26454
#
# Poissons Ratio (x) = 0.15707 0.16186
# Poissons Ratio (y) = 0.43030 -0.23461
# Poissons Ratio (z) = 0.20818 -0.11015
#
# Static dielectric constant tensor:
#      x y z
#    x 2.021790 0.000000 -0.070790 
#    y 0.000000 2.171720 0.000000 
#    z -0.070790 0.000000 2.124860 
# 
# From -- ./inp_files/209754.got.cif
#   From: 2010.05.17/outbox.cif.g08.bks.cpg/sg15_105_cif.got.tgz:209754.got - 2010.06.03 18:47:42.
