data_PCOD9292669
_publ_section_title
;
Structure prediction by ZEFSAII (Michael W. Deem and Ramdas Pophale) SiO2 
 PCOD9292669
Probable space group: C 2/C
;
_chemical_formula_sum "Si O2"
_cell_formula_units_Z 56
_cell_length_a 29.539182
_cell_length_b 12.750658
_cell_length_c 9.142763
_cell_angle_alpha 90.000000
_cell_angle_beta 123.843167
_cell_angle_gamma 90.000000
_cell_volume 2860.106540
_symmetry_space_group_name_H-M "C 2/C"
_symmetry_group_IT_number 15
_symmetry_cell_setting 'monoclinic'
loop_
_space_group_symop_operation_xyz
x,y,z
-x,y,1/2-z
-x,-y,-z
x,-y,1/2+z
1/2+x,1/2+y,z
1/2-x,1/2+y,1/2-z
1/2-x,1/2-y,-z
1/2+x,1/2-y,1/2+z
loop_
_atom_site_type_symbol
_atom_site_label
_atom_site_fract_x
_atom_site_fract_y
_atom_site_fract_z
Si Si1 0.637065 0.044032 0.007664
Si Si2 0.318318 0.365143 0.131655
Si Si3 0.190143 0.377728 0.881788
Si Si4 0.450263 0.794882 0.259660
Si Si5 0.551559 0.438025 0.663443
Si Si6 0.034647 0.427394 0.954249
Si Si7 0.872731 0.026915 0.457473
O O1 0.604643 0.145445 0.887448
O O2 0.660025 0.962868 0.929867
O O3 0.591032 0.981551 0.015003
O O4 0.682470 0.083156 0.201971
O O5 0.333336 0.241292 0.152605
O O6 0.347153 0.427813 0.319339
O O7 0.253448 0.372596 0.038540
O O8 0.331073 0.415702 0.993977
O O9 0.500000 0.838330 0.250000
O O10 0.455571 0.671425 0.267409
O O11 0.457277 0.823218 0.440721
O O12 0.500000 0.500000 0.500000
O O13 0.596997 0.414780 0.620596
O O14 0.579174 0.505551 0.840219
O O15 0.000000 0.407708 0.750000
O O16 0.000000 0.500000 0.000000
#
# Coordination Sequence:
#
# PCOD9292669 Si02
#       7
#     8   8   8   8   8   8   8
#     4  12  22  39  61  93 126 167 209 261 318 382
#     4  10  23  44  64  94 121 171 210 271 329 376
#     4  11  24  39  66  93 129 159 218 268 325 386
#     4  12  24  39  62  88 131 170 204 257 313 379
#     4  11  24  42  63  95 123 164 213 259 306 375
#     4  12  21  39  55  87 127 166 201 246 307 377
#     4  10  22  44  66  85 127 162 212 260 316 375
#
# _framework density 19.579688999999998
#
# number of rings (size 3 to 8) (size 9 to 14) (size 15 to 20)
#    0.000    0.857    4.286    3.000    2.000    2.286 
#    0.000    0.000    0.000    9.429    0.000    0.000 
#    0.000    0.000    0.000    0.000    0.000    0.000 
#
# Total GULP energy -156032.746429 kJ/mol
# GULP energy per Si atom -5572.598087 kJ/mol
# Density = 1.953512 g / cm^3
# Si number density = 19.579689 Si / 1000 Ang^3
#
#
#
# Elastic Constant Matrix: (Units=GPa)
#
#
# Indices 1 2 3 4 5 6 
#
# 1 74.4576 37.8046 28.1879 0.0000 -10.5996 0.0000
# 2 37.8046 95.2290 21.1736 0.0000 -1.0263 0.0000
# 3 28.1879 21.1736 114.4624 0.0000 -4.4910 0.0000
# 4 0.0000 0.0000 0.0000 29.0058 0.0000 -1.3310
# 5 -10.5996 -1.0263 -4.4910 0.0000 37.3535 0.0000
# 6 0.0000 0.0000 0.0000 -1.3310 0.0000 27.5296
#
#
#
# Elastic Compliance Matrix: (Units=1/GPa)
#
#
# Indices 1 2 3 4 5 6 
#
# 1 0.018693 -0.006662 -0.003185 0.000000 0.004738 0.000000
# 2 -0.006662 0.013326 -0.000888 0.000000 -0.001631 0.000000
# 3 -0.003185 -0.000888 0.009695 0.000000 0.000237 0.000000
# 4 0.000000 0.000000 0.000000 0.034553 0.000000 0.001671
# 5 0.004738 -0.001631 0.000237 0.000000 0.028100 0.000000
# 6 0.000000 0.000000 0.000000 0.001671 0.000000 0.036405
#
#
# Mechanical properties :
#
#
# Convention : Reuss Voigt Hill
#
# Bulk Modulus (GPa) = 49.40079 50.94236 50.17157
# Shear Modulus (GPa) = 29.58771 31.90997 30.74884
#
# Velocity S-wave (km/s) = 3.89156 4.04139 3.96718
# Velocity P-wave (km/s) = 6.74372 6.91749 6.83115
#
# Compressibility (1/GPa) = 0.02024259
#
# Stress axis : x y z
#
# Youngs Moduli (GPa) = 53.49531 75.04379 103.15053
#
# Poissons Ratio (x) = 0.49992 0.32856
# Poissons Ratio (y) = 0.35637 0.09165
# Poissons Ratio (z) = 0.17040 0.06667
#
# Static dielectric constant tensor:
#      x y z
#    x 1.742490 0.000000 0.004960 
#    y 0.000000 1.796350 0.000000 
#    z 0.004960 0.000000 1.689320 
# 
# From -- ./inp_files/69459.got.cif
#   From: 2010.05.17/outbox.cif.g08.bks.cpg/sg15_35_cif.got.tgz:69459.got - 2010.06.03 18:47:42.
