data_PCOD9292725
_publ_section_title
;
Structure prediction by ZEFSAII (Michael W. Deem and Ramdas Pophale) SiO2 
 PCOD9292725
Probable space group: C 2/C
;
_chemical_formula_sum "Si O2"
_cell_formula_units_Z 48
_cell_length_a 25.468785
_cell_length_b 11.495849
_cell_length_c 14.467795
_cell_angle_alpha 90.000000
_cell_angle_beta 30.414027
_cell_angle_gamma 90.000000
_cell_volume 2144.432061
_symmetry_space_group_name_H-M "C 2/C"
_symmetry_group_IT_number 15
_symmetry_cell_setting 'monoclinic'
loop_
_space_group_symop_operation_xyz
x,y,z
-x,y,1/2-z
-x,-y,-z
x,-y,1/2+z
1/2+x,1/2+y,z
1/2-x,1/2+y,1/2-z
1/2-x,1/2-y,-z
1/2+x,1/2-y,1/2+z
loop_
_atom_site_type_symbol
_atom_site_label
_atom_site_fract_x
_atom_site_fract_y
_atom_site_fract_z
Si Si1 0.592412 0.960495 0.790563
Si Si2 0.443468 0.777649 0.001818
Si Si3 0.389786 0.328682 0.768366
Si Si4 0.711034 0.985026 0.283230
Si Si5 0.336928 0.869829 0.468036
Si Si6 0.948621 0.013590 0.928326
O O1 0.556472 0.832652 0.815303
O O2 0.690482 0.972708 0.709197
O O3 0.599403 0.037651 0.688819
O O4 0.500000 0.000000 0.000000
O O5 0.437726 0.647829 0.973529
O O6 0.422547 0.766337 0.142932
O O7 0.356764 0.868281 0.097117
O O8 0.380556 0.258997 0.879316
O O9 0.471280 0.432203 0.638740
O O10 0.277043 0.369371 0.905870
O O11 0.673975 0.084653 0.411440
O O12 0.832634 0.963536 0.110568
O O13 0.000000 0.012303 0.750000
#
# Coordination Sequence:
#
# PCOD9292725 Si02
#       6
#     8   8   8   8   8   8
#     4  10  22  44  67 101 139 177 232 292 348 409
#     4  11  25  48  68 102 150 177 236 297 354 420
#     4  11  24  48  70 101 145 182 231 298 348 424
#     4  11  25  46  71 107 137 189 245 288 347 434
#     4  11  23  44  77 101 136 188 238 287 352 423
#     4  12  28  45  69 107 141 188 234 293 362 419
#
# _framework density 22.38355
#
# number of rings (size 3 to 8) (size 9 to 14) (size 15 to 20)
#    0.000    1.000    5.000    1.500    4.667    4.667 
#    0.000    1.667    0.000    0.000    0.000    0.000 
#    0.000    0.000    0.000    0.000    0.000    0.000 
#
# Total GULP energy -134127.251601 kJ/mol
# GULP energy per Si atom -5588.635483 kJ/mol
# Density = 2.233260 g / cm^3
# Si number density = 22.383550 Si / 1000 Ang^3
#
#
#
# Elastic Constant Matrix: (Units=GPa)
#
#
# Indices 1 2 3 4 5 6 
#
# 1 48.7667 44.1313 12.2238 0.0000 -9.6362 0.0000
# 2 44.1313 132.3885 38.1949 0.0000 -15.9191 0.0000
# 3 12.2238 38.1949 65.5561 0.0000 -10.0794 0.0000
# 4 0.0000 0.0000 0.0000 33.5397 0.0000 -6.1537
# 5 -9.6362 -15.9191 -10.0794 0.0000 49.0521 0.0000
# 6 0.0000 0.0000 0.0000 -6.1537 0.0000 35.1406
#
#
#
# Elastic Compliance Matrix: (Units=1/GPa)
#
#
# Indices 1 2 3 4 5 6 
#
# 1 0.029727 -0.009734 0.000558 0.000000 0.002795 0.000000
# 2 -0.009734 0.012446 -0.005276 0.000000 0.001043 0.000000
# 3 0.000558 -0.005276 0.018564 0.000000 0.002212 0.000000
# 4 0.000000 0.000000 0.000000 0.030805 0.000000 0.005394
# 5 0.002795 0.001043 0.002212 0.000000 0.021729 0.000000
# 6 0.000000 0.000000 0.000000 0.005394 0.000000 0.029402
#
#
# Mechanical properties :
#
#
# Convention : Reuss Voigt Hill
#
# Bulk Modulus (GPa) = 31.41371 48.42349 39.91860
# Shear Modulus (GPa) = 27.44412 33.69057 30.56735
#
# Velocity S-wave (km/s) = 3.50535 3.88383 3.69943
# Velocity P-wave (km/s) = 5.51797 6.46473 6.01002
#
# Compressibility (1/GPa) = 0.03183324
#
# Stress axis : x y z
#
# Youngs Moduli (GPa) = 33.63893 80.34698 53.86757
#
# Poissons Ratio (x) = 0.78214 -0.03008
# Poissons Ratio (y) = 0.32746 0.28420
# Poissons Ratio (z) = -0.01878 0.42391
#
# Static dielectric constant tensor:
#      x y z
#    x 1.938440 0.000000 -0.014310 
#    y 0.000000 1.873010 0.000000 
#    z -0.014310 0.000000 1.835960 
# 
# From -- ./inp_files/152754.got.cif
#   From: 2010.05.17/outbox.cif.g08.bks.cpg/sg15_77_cif.got.tgz:152754.got - 2010.06.03 18:47:42.
