data_PCOD9292503
_publ_section_title
;
Structure prediction by ZEFSAII (Michael W. Deem and Ramdas Pophale) SiO2 
 PCOD9292503
Probable space group: C 2/C
;
_chemical_formula_sum "Si O2"
_cell_formula_units_Z 56
_cell_length_a 23.299924
_cell_length_b 6.944987
_cell_length_c 19.110505
_cell_angle_alpha 90.000000
_cell_angle_beta 47.218853
_cell_angle_gamma 90.000000
_cell_volume 2269.690227
_symmetry_space_group_name_H-M "C 2/C"
_symmetry_group_IT_number 15
_symmetry_cell_setting 'monoclinic'
loop_
_space_group_symop_operation_xyz
x,y,z
-x,y,1/2-z
-x,-y,-z
x,-y,1/2+z
1/2+x,1/2+y,z
1/2-x,1/2+y,1/2-z
1/2-x,1/2-y,-z
1/2+x,1/2-y,1/2+z
loop_
_atom_site_type_symbol
_atom_site_label
_atom_site_fract_x
_atom_site_fract_y
_atom_site_fract_z
Si Si1 0.987667 0.191207 0.463014
Si Si2 0.076029 0.200423 0.140238
Si Si3 0.089456 0.332314 0.840338
Si Si4 0.740903 0.076218 0.675500
Si Si5 0.189016 0.902421 0.020408
Si Si6 0.450005 0.127437 0.356933
Si Si7 0.648187 0.425084 0.795328
O O1 0.944875 0.165253 0.424318
O O2 0.936744 0.323376 0.556781
O O3 0.079122 0.225651 0.371024
O O4 0.000000 0.000000 0.500000
O O5 0.213366 0.202544 0.202916
O O6 0.000000 0.161173 0.250000
O O7 0.148726 0.067706 0.100927
O O8 0.167742 0.444501 0.757964
O O9 0.014539 0.413977 0.861788
O O10 0.106047 0.113048 0.798079
O O11 0.770533 0.013207 0.575962
O O12 0.590073 0.071018 0.634496
O O13 0.808978 0.020549 0.673569
O O14 0.114212 0.772368 0.061778
O O15 0.250000 0.750000 0.000000
O O16 0.500000 0.204596 0.250000
#
# Coordination Sequence:
#
# PCOD9292503 Si02
#       7
#     8   8   8   8   8   8   8
#     4  10  22  43  74 102 138 187 246 308 362 434
#     4  11  26  49  78 106 144 193 254 314 368 442
#     4  11  23  44  74 106 142 192 247 310 374 439
#     4  12  25  42  67 107 150 193 239 296 384 445
#     4  12  27  46  70 103 151 195 244 302 373 445
#     4  11  25  48  77 107 141 196 261 307 369 443
#     4  11  23  42  66 103 148 185 237 302 370 439
#
# _framework density 24.672969999999999
#
# number of rings (size 3 to 8) (size 9 to 14) (size 15 to 20)
#    0.000    0.857    1.429    6.429    0.000    8.571 
#    0.000    0.000    0.000    0.000    0.000    0.000 
#    0.000    0.000    0.000    0.000    0.000    0.000 
#
# Total GULP energy -156711.268682 kJ/mol
# GULP energy per Si atom -5596.831024 kJ/mol
# Density = 2.461681 g / cm^3
# Si number density = 24.672970 Si / 1000 Ang^3
#
#
#
# Elastic Constant Matrix: (Units=GPa)
#
#
# Indices 1 2 3 4 5 6 
#
# 1 84.7110 10.7126 27.8350 -0.0099 -13.2475 0.0267
# 2 10.7126 124.2408 39.9019 -0.0132 -16.2875 0.0813
# 3 27.8350 39.9019 113.4001 -0.0051 -4.2214 0.0003
# 4 -0.0099 -0.0132 -0.0051 52.5800 0.0075 -17.9178
# 5 -13.2475 -16.2875 -4.2214 0.0075 45.1831 -0.0144
# 6 0.0267 0.0813 0.0003 -17.9178 -0.0144 25.5203
#
#
#
# Elastic Compliance Matrix: (Units=1/GPa)
#
#
# Indices 1 2 3 4 5 6 
#
# 1 0.013427 0.000395 -0.003294 -0.000004 0.003771 -0.000016
# 2 0.000395 0.009505 -0.003321 -0.000011 0.003232 -0.000036
# 3 -0.003294 -0.003321 0.010752 0.000006 -0.001158 0.000017
# 4 -0.000004 -0.000011 0.000006 0.025000 -0.000003 0.017553
# 5 0.003771 0.003232 -0.001158 -0.000003 0.024295 -0.000003
# 6 -0.000016 -0.000036 0.000017 0.017553 -0.000003 0.051508
#
#
# Mechanical properties :
#
#
# Convention : Reuss Voigt Hill
#
# Bulk Modulus (GPa) = 47.07376 53.25009 50.16192
# Shear Modulus (GPa) = 32.46533 40.91686 36.69109
#
# Velocity S-wave (km/s) = 3.63137 4.07672 3.86047
# Velocity P-wave (km/s) = 6.05829 6.61731 6.34396
#
# Compressibility (1/GPa) = 0.02124326
#
# Stress axis : x y z
#
# Youngs Moduli (GPa) = 74.47592 105.20562 93.00233
#
# Poissons Ratio (x) = -0.04152 0.30638
# Poissons Ratio (y) = -0.02939 0.30887
# Poissons Ratio (z) = 0.24535 0.34940
#
# Static dielectric constant tensor:
#      x y z
#    x 1.959260 -0.000030 -0.004210 
#    y -0.000030 2.024510 0.000010 
#    z -0.004210 0.000010 1.976350 
# 
# From -- ./inp_files/210235.got.cif
#   From: 2010.05.17/outbox.cif.g08.bks.cpg/sg15_106_cif.got.tgz:210235.got - 2010.06.03 18:47:42.
