data_PCOD9292774
_publ_section_title
;
Structure prediction by ZEFSAII (Michael W. Deem and Ramdas Pophale) SiO2 
 PCOD9292774
Probable space group: C 2/C
;
_chemical_formula_sum "Si O2"
_cell_formula_units_Z 44
_cell_length_a 14.815473
_cell_length_b 7.818232
_cell_length_c 18.824521
_cell_angle_alpha 90.000000
_cell_angle_beta 61.650981
_cell_angle_gamma 90.000000
_cell_volume 1918.960039
_symmetry_space_group_name_H-M "C 2/C"
_symmetry_group_IT_number 15
_symmetry_cell_setting 'monoclinic'
loop_
_space_group_symop_operation_xyz
x,y,z
-x,y,1/2-z
-x,-y,-z
x,-y,1/2+z
1/2+x,1/2+y,z
1/2-x,1/2+y,1/2-z
1/2-x,1/2-y,-z
1/2+x,1/2-y,1/2+z
loop_
_atom_site_type_symbol
_atom_site_label
_atom_site_fract_x
_atom_site_fract_y
_atom_site_fract_z
Si Si1 0.595552 0.644633 0.106478
Si Si2 0.740777 0.173427 0.345268
Si Si3 0.476743 0.801167 0.504099
Si Si4 0.500000 0.382043 0.250000
Si Si5 0.682026 0.373691 0.976617
Si Si6 0.722580 0.728572 0.691811
O O1 0.665480 0.732344 0.139909
O O2 0.530173 0.755760 0.076725
O O3 0.527638 0.505790 0.173786
O O4 0.673410 0.545157 0.024914
O O5 0.631623 0.229938 0.416987
O O6 0.754287 0.234525 0.260006
O O7 0.744283 0.964326 0.343186
O O8 0.566507 0.694558 0.508024
O O9 0.500000 0.000000 0.500000
O O10 0.400248 0.272879 0.269329
O O11 0.730928 0.364412 0.880479
O O12 0.750000 0.250000 0.000000
#
# Coordination Sequence:
#
# PCOD9292774 Si02
#       6
#     8   8   8   4   8   8
#     4  11  25  44  73  98 136 188 226 286 346 426
#     4  11  25  45  68 100 140 172 234 285 351 406
#     4  12  25  44  69 102 136 178 231 286 346 409
#     4  10  22  44  68 100 136 180 238 268 356 404
#     4  12  23  46  70  97 133 185 231 279 344 421
#     4  11  25  43  69  99 136 181 225 291 339 418
#
# _framework density 22.929086000000002
#
# number of rings (size 3 to 8) (size 9 to 14) (size 15 to 20)
#    0.000    0.727    5.455    2.182    7.636    0.000 
#    0.000    0.000    0.000    0.000    0.000    0.000 
#    0.000    0.000    0.000    0.000    0.000    0.000 
#
# Total GULP energy -123228.294205 kJ/mol
# GULP energy per Si atom -5601.286100 kJ/mol
# Density = 2.287690 g / cm^3
# Si number density = 22.929086 Si / 1000 Ang^3
#
#
#
# Elastic Constant Matrix: (Units=GPa)
#
#
# Indices 1 2 3 4 5 6 
#
# 1 152.2552 17.0978 51.1328 0.0000 21.4743 0.0000
# 2 17.0978 37.4072 14.8174 0.0000 19.0130 0.0000
# 3 51.1328 14.8174 143.6357 0.0000 23.8454 0.0000
# 4 0.0000 0.0000 0.0000 38.2990 0.0000 17.4171
# 5 21.4743 19.0130 23.8454 0.0000 56.2021 0.0000
# 6 0.0000 0.0000 0.0000 17.4171 0.0000 29.1221
#
#
#
# Elastic Compliance Matrix: (Units=1/GPa)
#
#
# Indices 1 2 3 4 5 6 
#
# 1 0.007759 -0.001952 -0.002343 0.000000 -0.001310 0.000000
# 2 -0.001952 0.033135 -0.001061 0.000000 -0.010013 0.000000
# 3 -0.002343 -0.001061 0.008281 0.000000 -0.002259 0.000000
# 4 0.000000 0.000000 0.000000 0.035865 0.000000 -0.021450
# 5 -0.001310 -0.010013 -0.002259 0.000000 0.022639 0.000000
# 6 0.000000 0.000000 0.000000 -0.021450 0.000000 0.047167
#
#
# Mechanical properties :
#
#
# Convention : Reuss Voigt Hill
#
# Bulk Modulus (GPa) = 25.99992 55.48824 40.74408
# Shear Modulus (GPa) = 28.03022 41.40800 34.71911
#
# Velocity S-wave (km/s) = 3.50018 4.25422 3.89549
# Velocity P-wave (km/s) = 5.26298 6.95583 6.16776
#
# Compressibility (1/GPa) = 0.03846166
#
# Stress axis : x y z
#
# Youngs Moduli (GPa) = 128.88512 30.17966 120.76290
#
# Poissons Ratio (x) = 0.05892 0.28297
# Poissons Ratio (y) = 0.25163 0.12810
# Poissons Ratio (z) = 0.30200 0.03201
#
# Static dielectric constant tensor:
#      x y z
#    x 1.695390 0.000000 -0.037810 
#    y 0.000000 1.884110 0.000000 
#    z -0.037810 0.000000 1.840640 
# 
# From -- ./inp_files/202772.got.cif
#   From: 2010.05.17/outbox.cif.g08.bks.cpg/sg15_102_cif.got.tgz:202772.got - 2010.06.03 18:47:42.
