data_PCOD9292884
_publ_section_title
;
Structure prediction by ZEFSAII (Michael W. Deem and Ramdas Pophale) SiO2 
 PCOD9292884
Probable space group: C 2/C
;
_chemical_formula_sum "Si O2"
_cell_formula_units_Z 32
_cell_length_a 18.441079
_cell_length_b 7.531930
_cell_length_c 22.825549
_cell_angle_alpha 90.000000
_cell_angle_beta 21.401043
_cell_angle_gamma 90.000000
_cell_volume 1156.858495
_symmetry_space_group_name_H-M "C 2/C"
_symmetry_group_IT_number 15
_symmetry_cell_setting 'monoclinic'
loop_
_space_group_symop_operation_xyz
x,y,z
-x,y,1/2-z
-x,-y,-z
x,-y,1/2+z
1/2+x,1/2+y,z
1/2-x,1/2+y,1/2-z
1/2-x,1/2-y,-z
1/2+x,1/2-y,1/2+z
loop_
_atom_site_type_symbol
_atom_site_label
_atom_site_fract_x
_atom_site_fract_y
_atom_site_fract_z
Si Si1 0.878230 0.138491 0.077769
Si Si2 0.394823 0.895822 0.176795
Si Si3 0.639764 0.392426 0.696209
Si Si4 0.941294 0.236802 0.898300
O O1 0.890212 0.305947 0.113217
O O2 0.611870 0.108877 0.284162
O O3 0.868009 0.176292 0.016628
O O4 0.132131 0.057839 0.879569
O O5 0.372364 0.737634 0.240616
O O6 0.500000 0.320490 0.750000
O O7 0.859180 0.418334 0.507901
O O8 0.558010 0.578880 0.779550
O O9 0.750000 0.250000 0.000000
#
# Coordination Sequence:
#
# PCOD9292884 Si02
#       4
#     8   8   8   8
#     4  10  22  44  69  94 127 175 208 267 332 376
#     4  10  23  42  61 101 130 164 225 264 307 399
#     4  12  24  41  68  95 132 179 213 269 326 375
#     4  10  22  45  64  95 134 162 223 265 316 393
#
# _framework density 27.661117999999998
#
# number of rings (size 3 to 8) (size 9 to 14) (size 15 to 20)
#    1.500    0.000    2.500    2.250    0.000    6.000 
#    0.000    3.750    0.000    0.000    0.000    0.000 
#    0.000    0.000    0.000    0.000    0.000    0.000 
#
# Total GULP energy -89573.902982 kJ/mol
# GULP energy per Si atom -5598.368936 kJ/mol
# Density = 2.759816 g / cm^3
# Si number density = 27.661118 Si / 1000 Ang^3
#
#
#
# Elastic Constant Matrix: (Units=GPa)
#
#
# Indices 1 2 3 4 5 6 
#
# 1 264.6131 52.8921 84.2106 -0.0002 -32.9021 0.0000
# 2 52.8921 119.4705 68.8700 -0.0039 -34.7101 0.0010
# 3 84.2106 68.8700 284.7770 -0.0110 -23.7412 0.0025
# 4 -0.0002 -0.0039 -0.0110 85.5306 0.0044 -19.9022
# 5 -32.9021 -34.7101 -23.7412 0.0044 61.6003 -0.0008
# 6 0.0000 0.0010 0.0025 -19.9022 -0.0008 40.0907
#
#
#
# Elastic Compliance Matrix: (Units=1/GPa)
#
#
# Indices 1 2 3 4 5 6 
#
# 1 0.004464 -0.001004 -0.000957 0.000000 0.001450 0.000000
# 2 -0.001004 0.011495 -0.002054 0.000000 0.005149 0.000000
# 3 -0.000957 -0.002054 0.004290 0.000000 -0.000015 0.000000
# 4 0.000000 0.000000 0.000000 0.013219 -0.000001 0.006562
# 5 0.001450 0.005149 -0.000015 -0.000001 0.019904 0.000000
# 6 0.000000 0.000000 0.000000 0.006562 0.000000 0.028201
#
#
# Mechanical properties :
#
#
# Convention : Reuss Voigt Hill
#
# Bulk Modulus (GPa) = 81.82746 120.08958 100.95852
# Shear Modulus (GPa) = 53.37644 68.30352 60.83998
#
# Velocity S-wave (km/s) = 4.39755 4.97459 4.69495
# Velocity P-wave (km/s) = 7.44520 8.74667 8.12204
#
# Compressibility (1/GPa) = 0.01222084
#
# Stress axis : x y z
#
# Youngs Moduli (GPa) = 223.99046 86.99767 233.11075
#
# Poissons Ratio (x) = 0.08732 0.22298
# Poissons Ratio (y) = 0.22483 0.47875
# Poissons Ratio (z) = 0.21425 0.17867
#
# Static dielectric constant tensor:
#      x y z
#    x 2.156620 0.000000 -0.229670 
#    y 0.000000 2.242730 0.000000 
#    z -0.229670 0.000000 2.452040 
# 
# From -- ./inp_files/53468.got.cif
#   From: 2010.05.17/outbox.cif.g08.bks.cpg/sg15_27_cif.got.tgz:53468.got - 2010.06.03 18:47:42.
