data_PCOD9292631
_publ_section_title
;
Structure prediction by ZEFSAII (Michael W. Deem and Ramdas Pophale) SiO2 
 PCOD9292631
Probable space group: C 2/C
;
_chemical_formula_sum "Si O2"
_cell_formula_units_Z 56
_cell_length_a 12.381083
_cell_length_b 7.511286
_cell_length_c 28.832558
_cell_angle_alpha 90.000000
_cell_angle_beta 115.244873
_cell_angle_gamma 90.000000
_cell_volume 2425.277669
_symmetry_space_group_name_H-M "C 2/C"
_symmetry_group_IT_number 15
_symmetry_cell_setting 'monoclinic'
loop_
_space_group_symop_operation_xyz
x,y,z
-x,y,1/2-z
-x,-y,-z
x,-y,1/2+z
1/2+x,1/2+y,z
1/2-x,1/2+y,1/2-z
1/2-x,1/2-y,-z
1/2+x,1/2-y,1/2+z
loop_
_atom_site_type_symbol
_atom_site_label
_atom_site_fract_x
_atom_site_fract_y
_atom_site_fract_z
Si Si1 0.629872 0.776180 0.541684
Si Si2 0.554886 0.456594 0.329531
Si Si3 0.314283 0.652878 0.796861
Si Si4 0.681400 0.990645 0.636763
Si Si5 0.613089 0.265828 0.690066
Si Si6 0.689761 0.028973 0.964718
Si Si7 0.588296 0.649238 0.940577
O O1 0.651306 0.944804 0.578754
O O2 0.748597 0.655119 0.561619
O O3 0.521164 0.666096 0.543592
O O4 0.614168 0.851977 0.486949
O O5 0.443031 0.335006 0.293970
O O6 0.686140 0.426901 0.335135
O O7 0.508625 0.656469 0.310942
O O8 0.559169 0.439659 0.386318
O O9 0.316481 0.802742 0.836235
O O10 0.321233 0.448082 0.814675
O O11 0.201342 0.679480 0.743481
O O12 0.593947 0.127160 0.645661
O O13 0.622828 0.854106 0.935642
O O14 0.802159 0.950668 0.014959
#
# Coordination Sequence:
#
# PCOD9292631 Si02
#       7
#     8   8   8   8   8   8   8
#     4  11  22  41  64  93 131 176 224 267 328 390
#     4  10  24  41  64  99 128 168 222 271 317 406
#     4  10  22  44  65  95 127 165 211 271 331 398
#     4  12  22  44  67  95 134 170 216 275 325 395
#     4  10  23  43  68  93 129 165 215 270 331 396
#     4  10  24  40  63  96 133 175 226 271 325 394
#     4  11  21  43  63  93 133 174 219 274 331 377
#
# _framework density 23.090138
#
# number of rings (size 3 to 8) (size 9 to 14) (size 15 to 20)
#    0.857    0.571    4.286    0.857    0.000    5.714 
#    5.143    1.429    0.000    0.000    0.000    0.000 
#    0.000    0.000    0.000    0.000    0.000    0.000 
#
# Total GULP energy -156399.757823 kJ/mol
# GULP energy per Si atom -5585.705637 kJ/mol
# Density = 2.303758 g / cm^3
# Si number density = 23.090138 Si / 1000 Ang^3
#
#
#
# Elastic Constant Matrix: (Units=GPa)
#
#
# Indices 1 2 3 4 5 6 
#
# 1 60.0967 -4.6419 5.2806 0.0000 -5.3868 0.0000
# 2 -4.6419 77.1099 11.5425 0.0000 -10.8544 0.0000
# 3 5.2806 11.5425 43.3778 0.0000 1.0343 0.0000
# 4 0.0000 0.0000 0.0000 32.5699 0.0000 0.7276
# 5 -5.3868 -10.8544 1.0343 0.0000 21.5970 0.0000
# 6 0.0000 0.0000 0.0000 0.7276 0.0000 31.8768
#
#
#
# Elastic Compliance Matrix: (Units=1/GPa)
#
#
# Indices 1 2 3 4 5 6 
#
# 1 0.017579 0.002288 -0.002884 0.000000 0.005673 0.000000
# 2 0.002288 0.014940 -0.004452 0.000000 0.008293 0.000000
# 3 -0.002884 -0.004452 0.024688 0.000000 -0.004139 0.000000
# 4 0.000000 0.000000 0.000000 0.030719 0.000000 -0.000701
# 5 0.005673 0.008293 -0.004139 0.000000 0.052084 0.000000
# 6 0.000000 0.000000 0.000000 -0.000701 0.000000 0.031387
#
#
# Mechanical properties :
#
#
# Convention : Reuss Voigt Hill
#
# Bulk Modulus (GPa) = 21.22634 22.77188 21.99911
# Shear Modulus (GPa) = 25.35574 28.43562 26.89568
#
# Velocity S-wave (km/s) = 3.31738 3.51309 3.41664
# Velocity P-wave (km/s) = 4.88735 5.13218 5.01126
#
# Compressibility (1/GPa) = 0.04711129
#
# Stress axis : x y z
#
# Youngs Moduli (GPa) = 56.88759 66.93459 40.50605
#
# Poissons Ratio (x) = -0.15318 0.11683
# Poissons Ratio (y) = -0.13019 0.18032
# Poissons Ratio (z) = 0.16407 0.29798
#
# Static dielectric constant tensor:
#      x y z
#    x 1.901130 0.000000 0.024340 
#    y 0.000000 1.867010 0.000000 
#    z 0.024340 0.000000 1.875050 
# 
# From -- ./inp_files/310051.got.cif
#   From: 2010.05.17/outbox.cif.g08.bks.cpg/sg15_156_cif.got.tgz:310051.got - 2010.06.03 18:47:42.
