data_PCOD9292888
_publ_section_title
;
Structure prediction by ZEFSAII (Michael W. Deem and Ramdas Pophale) SiO2 
 PCOD9292888
Probable space group: C 2/C
;
_chemical_formula_sum "Si O2"
_cell_formula_units_Z 44
_cell_length_a 7.649738
_cell_length_b 26.529425
_cell_length_c 9.567072
_cell_angle_alpha 90.000000
_cell_angle_beta 102.943776
_cell_angle_gamma 90.000000
_cell_volume 1892.237053
_symmetry_space_group_name_H-M "C 2/C"
_symmetry_group_IT_number 15
_symmetry_cell_setting 'monoclinic'
loop_
_space_group_symop_operation_xyz
x,y,z
-x,y,1/2-z
-x,-y,-z
x,-y,1/2+z
1/2+x,1/2+y,z
1/2-x,1/2+y,1/2-z
1/2-x,1/2-y,-z
1/2+x,1/2-y,1/2+z
loop_
_atom_site_type_symbol
_atom_site_label
_atom_site_fract_x
_atom_site_fract_y
_atom_site_fract_z
Si Si1 0.640806 0.761328 0.154314
Si Si2 0.000000 0.914340 0.750000
Si Si3 0.000000 0.168427 0.750000
Si Si4 0.342229 0.402849 0.996666
Si Si5 0.236139 0.518131 0.034802
Si Si6 0.000000 0.512683 0.750000
Si Si7 0.392453 0.823727 0.591782
O O1 0.500000 0.751816 0.250000
O O2 0.720906 0.710400 0.104128
O O3 0.818971 0.796337 0.221888
O O4 0.525105 0.789026 0.013200
O O5 0.867536 0.889686 0.836552
O O6 0.891786 0.947206 0.619196
O O7 0.978586 0.129364 0.615890
O O8 0.152222 0.376069 0.990683
O O9 0.313241 0.461655 0.023757
O O10 0.099117 0.516740 0.141966
O O11 0.153178 0.537818 0.873564
O O12 0.500000 0.831019 0.750000
#
# Coordination Sequence:
#
# PCOD9292888 Si02
#       7
#     8   4   4   8   8   4   8
#     4  10  22  44  69  95 131 184 216 265 352 392
#     4  12  25  42  70  94 129 181 222 270 343 396
#     4  10  23  46  65 102 140 168 226 281 319 418
#     4  11  25  40  67  98 132 168 225 274 326 396
#     4  11  23  45  64  95 130 180 218 280 333 400
#     4  10  24  40  67  90 129 175 222 273 340 390
#     4  10  23  42  65  97 135 164 222 283 317 406
#
# _framework density 23.252898999999999
#
# number of rings (size 3 to 8) (size 9 to 14) (size 15 to 20)
#    0.000    1.455    2.727    1.091    5.091    2.182 
#    6.545    0.000    0.000    0.000    0.000    0.000 
#    0.000    0.000    0.000    0.000    0.000    0.000 
#
# Total GULP energy -122570.417572 kJ/mol
# GULP energy per Si atom -5571.382617 kJ/mol
# Density = 2.319997 g / cm^3
# Si number density = 23.252899 Si / 1000 Ang^3
#
#
#
# Elastic Constant Matrix: (Units=GPa)
#
#
# Indices 1 2 3 4 5 6 
#
# 1 40.7554 -3.7772 11.6781 0.0000 -7.1320 0.0000
# 2 -3.7772 79.6273 15.7145 0.0000 10.5865 0.0000
# 3 11.6781 15.7145 144.6031 0.0000 16.9473 0.0000
# 4 0.0000 0.0000 0.0000 33.4784 0.0000 3.0672
# 5 -7.1320 10.5865 16.9473 0.0000 63.8908 0.0000
# 6 0.0000 0.0000 0.0000 3.0672 0.0000 14.2861
#
#
#
# Elastic Compliance Matrix: (Units=1/GPa)
#
#
# Indices 1 2 3 4 5 6 
#
# 1 0.026006 0.001304 -0.002639 0.000000 0.003387 0.000000
# 2 0.001304 0.013106 -0.001334 0.000000 -0.001672 0.000000
# 3 -0.002639 -0.001334 0.007516 0.000000 -0.002067 0.000000
# 4 0.000000 0.000000 0.000000 0.030469 0.000000 -0.006542
# 5 0.003387 -0.001672 -0.002067 0.000000 0.016855 0.000000
# 6 0.000000 0.000000 0.000000 -0.006542 0.000000 0.071402
#
#
# Mechanical properties :
#
#
# Convention : Reuss Voigt Hill
#
# Bulk Modulus (GPa) = 24.21819 34.69072 29.45445
# Shear Modulus (GPa) = 27.10681 38.42244 32.76462
#
# Velocity S-wave (km/s) = 3.41800 4.06935 3.75781
# Velocity P-wave (km/s) = 5.10046 6.08529 5.61451
#
# Compressibility (1/GPa) = 0.04129129
#
# Stress axis : x y z
#
# Youngs Moduli (GPa) = 38.45213 76.30158 133.05306
#
# Poissons Ratio (x) = -0.09951 0.35112
# Poissons Ratio (y) = -0.05015 0.17744
# Poissons Ratio (z) = 0.10147 0.10175
#
# Static dielectric constant tensor:
#      x y z
#    x 2.221010 0.000000 -0.032290 
#    y 0.000000 1.863180 0.000000 
#    z -0.032290 0.000000 1.898900 
# 
# From -- ./inp_files/25518.got.cif
#   From: 2010.05.17/outbox.cif.g08.bks.cpg/sg15_13_cif.got.tgz:25518.got - 2010.06.03 18:47:42.
