data_PCOD9292649
_publ_section_title
;
Structure prediction by ZEFSAII (Michael W. Deem and Ramdas Pophale) SiO2 
 PCOD9292649
Probable space group: C 2/C
;
_chemical_formula_sum "Si O2"
_cell_formula_units_Z 40
_cell_length_a 12.493746
_cell_length_b 7.564460
_cell_length_c 18.245315
_cell_angle_alpha 90.000000
_cell_angle_beta 62.287700
_cell_angle_gamma 90.000000
_cell_volume 1526.544255
_symmetry_space_group_name_H-M "C 2/C"
_symmetry_group_IT_number 15
_symmetry_cell_setting 'monoclinic'
loop_
_space_group_symop_operation_xyz
x,y,z
-x,y,1/2-z
-x,-y,-z
x,-y,1/2+z
1/2+x,1/2+y,z
1/2-x,1/2+y,1/2-z
1/2-x,1/2-y,-z
1/2+x,1/2-y,1/2+z
loop_
_atom_site_type_symbol
_atom_site_label
_atom_site_fract_x
_atom_site_fract_y
_atom_site_fract_z
Si Si1 0.755285 0.588107 0.656185
Si Si2 0.871165 0.910757 0.674066
Si Si3 0.856982 0.497915 0.924585
Si Si4 0.500000 0.153468 0.750000
Si Si5 0.605290 0.407079 0.059939
Si Si6 0.000000 0.500000 0.000000
O O1 0.791212 0.792136 0.646907
O O2 0.709295 0.537569 0.750478
O O3 0.650589 0.567150 0.629441
O O4 0.875880 0.490483 0.591981
O O5 0.929579 0.778334 0.715634
O O6 0.973510 0.014735 0.597778
O O7 0.897742 0.307770 0.950789
O O8 0.911448 0.535657 0.828415
O O9 0.714156 0.496074 0.980631
O O10 0.928828 0.620016 0.958857
#
# Coordination Sequence:
#
# PCOD9292649 Si02
#       6
#     8   8   8   4   8   4
#     4  11  25  43  68 102 142 187 236 297 351 430
#     4  12  26  43  70 107 143 191 241 293 363 420
#     4  10  24  44  74 100 142 186 236 293 366 416
#     4  12  24  42  72 106 138 192 236 300 354 430
#     4  10  24  48  69 100 143 192 232 299 356 432
#     4  10  22  44  66 100 140 178 234 288 354 422
#
# _framework density 26.202974999999999
#
# number of rings (size 3 to 8) (size 9 to 14) (size 15 to 20)
#    0.000    1.200    4.000    0.000    8.400    2.400 
#    0.000    9.000    0.000    0.000    0.000    0.000 
#    0.000    0.000    0.000    0.000    0.000    0.000 
#
# Total GULP energy -111631.875303 kJ/mol
# GULP energy per Si atom -5581.593765 kJ/mol
# Density = 2.614334 g / cm^3
# Si number density = 26.202975 Si / 1000 Ang^3
#
#
#
# Elastic Constant Matrix: (Units=GPa)
#
#
# Indices 1 2 3 4 5 6 
#
# 1 77.3598 20.8055 34.6905 0.0000 -12.4927 0.0000
# 2 20.8055 62.7694 44.1506 0.0000 -28.0637 0.0000
# 3 34.6905 44.1506 204.7859 0.0000 -26.4728 0.0000
# 4 0.0000 0.0000 0.0000 38.8909 0.0000 -17.8784
# 5 -12.4927 -28.0637 -26.4728 0.0000 48.8743 0.0000
# 6 0.0000 0.0000 0.0000 -17.8784 0.0000 22.2223
#
#
#
# Elastic Compliance Matrix: (Units=1/GPa)
#
#
# Indices 1 2 3 4 5 6 
#
# 1 0.014709 -0.003268 -0.001660 0.000000 0.000984 0.000000
# 2 -0.003268 0.024392 -0.003229 0.000000 0.011422 0.000000
# 3 -0.001660 -0.003229 0.005985 0.000000 0.000964 0.000000
# 4 0.000000 0.000000 0.000000 0.040804 0.000000 0.032828
# 5 0.000984 0.011422 0.000964 0.000000 0.027793 0.000000
# 6 0.000000 0.000000 0.000000 0.032828 0.000000 0.071411
#
#
# Mechanical properties :
#
#
# Convention : Reuss Voigt Hill
#
# Bulk Modulus (GPa) = 34.75474 60.46757 47.61115
# Shear Modulus (GPa) = 23.69698 38.34873 31.02286
#
# Velocity S-wave (km/s) = 3.01052 3.82976 3.44458
# Velocity P-wave (km/s) = 5.03754 6.53320 5.83350
#
# Compressibility (1/GPa) = 0.02877305
#
# Stress axis : x y z
#
# Youngs Moduli (GPa) = 67.98670 40.99688 167.08487
#
# Poissons Ratio (x) = 0.13397 0.27734
# Poissons Ratio (y) = 0.22217 0.53947
# Poissons Ratio (z) = 0.11285 0.13237
#
# Static dielectric constant tensor:
#      x y z
#    x 1.613560 0.000000 -0.041760 
#    y 0.000000 1.565890 0.000000 
#    z -0.041760 0.000000 1.966210 
# 
# From -- ./inp_files/242256.got.cif
#   From: 2010.05.17/outbox.cif.g08.bks.cpg/sg15_122_cif.got.tgz:242256.got - 2010.06.03 18:47:42.
