data_PCOD9292826
_publ_section_title
;
Structure prediction by ZEFSAII (Michael W. Deem and Ramdas Pophale) SiO2 
 PCOD9292826
Probable space group: C 2/C
;
_chemical_formula_sum "Si O2"
_cell_formula_units_Z 32
_cell_length_a 8.100204
_cell_length_b 14.495334
_cell_length_c 25.080164
_cell_angle_alpha 90.000000
_cell_angle_beta 150.805347
_cell_angle_gamma 90.000000
_cell_volume 1436.405093
_symmetry_space_group_name_H-M "C 2/C"
_symmetry_group_IT_number 15
_symmetry_cell_setting 'monoclinic'
loop_
_space_group_symop_operation_xyz
x,y,z
-x,y,1/2-z
-x,-y,-z
x,-y,1/2+z
1/2+x,1/2+y,z
1/2-x,1/2+y,1/2-z
1/2-x,1/2-y,-z
1/2+x,1/2-y,1/2+z
loop_
_atom_site_type_symbol
_atom_site_label
_atom_site_fract_x
_atom_site_fract_y
_atom_site_fract_z
Si Si1 0.846275 0.189036 0.763908
Si Si2 0.232268 0.579666 0.539754
Si Si3 0.697503 0.027505 0.873981
Si Si4 0.667579 0.872975 0.678152
O O1 0.537831 0.114340 0.675041
O O2 0.737191 0.276217 0.768692
O O3 0.000000 0.213895 0.750000
O O4 0.170826 0.148964 0.886613
O O5 0.599916 0.545471 0.622860
O O6 0.000000 0.500000 0.500000
O O7 0.067656 0.627811 0.441034
O O8 0.479762 0.935631 0.816883
O O9 0.000000 0.000000 0.000000
O O10 0.000000 0.922703 0.750000
#
# Coordination Sequence:
#
# PCOD9292826 Si02
#       4
#     8   8   8   8
#     4  12  25  42  65  99 137 178 227 283 341 406
#     4  11  23  43  70  97 132 179 227 280 341 409
#     4  10  22  44  68  95 131 176 225 279 339 403
#     4  11  24  43  68  99 134 177 226 282 341 404
#
# _framework density 22.277836000000001
#
# number of rings (size 3 to 8) (size 9 to 14) (size 15 to 20)
#    0.000    1.000    0.000    8.250    0.000    6.000 
#    0.000    7.500    0.000    0.000    0.000    0.000 
#    0.000    0.000    0.000    0.000    0.000    0.000 
#
# Total GULP energy -89303.731866 kJ/mol
# GULP energy per Si atom -5581.483242 kJ/mol
# Density = 2.222713 g / cm^3
# Si number density = 22.277836 Si / 1000 Ang^3
#
#
#
# Elastic Constant Matrix: (Units=GPa)
#
#
# Indices 1 2 3 4 5 6 
#
# 1 142.6858 27.1751 29.9902 -0.0015 -5.3477 -0.0025
# 2 27.1751 92.2404 26.1223 0.0015 -0.1619 -0.0036
# 3 29.9902 26.1223 89.5692 0.0024 -12.4380 -0.0083
# 4 -0.0015 0.0015 0.0024 30.1461 -0.0027 0.0305
# 5 -5.3477 -0.1619 -12.4380 -0.0027 50.7849 -0.0023
# 6 -0.0025 -0.0036 -0.0083 0.0305 -0.0023 28.8643
#
#
#
# Elastic Compliance Matrix: (Units=1/GPa)
#
#
# Indices 1 2 3 4 5 6 
#
# 1 0.007779 -0.001707 -0.002064 0.000001 0.000308 0.000000
# 2 -0.001707 0.012226 -0.003120 -0.000001 -0.000905 0.000000
# 3 -0.002064 -0.003120 0.013182 -0.000001 0.003001 0.000003
# 4 0.000001 -0.000001 -0.000001 0.033172 0.000002 -0.000035
# 5 0.000308 -0.000905 0.003001 0.000002 0.020456 0.000002
# 6 0.000000 0.000000 0.000003 -0.000035 0.000002 0.034645
#
#
# Mechanical properties :
#
#
# Convention : Reuss Voigt Hill
#
# Bulk Modulus (GPa) = 51.53034 54.56337 53.04686
# Shear Modulus (GPa) = 35.28355 38.03959 36.66157
#
# Velocity S-wave (km/s) = 3.98401 4.13668 4.06106
# Velocity P-wave (km/s) = 6.65914 6.88198 6.77147
#
# Compressibility (1/GPa) = 0.01940604
#
# Stress axis : x y z
#
# Youngs Moduli (GPa) = 128.55415 81.79296 75.85927
#
# Poissons Ratio (x) = 0.13959 0.15658
# Poissons Ratio (y) = 0.21940 0.23667
# Poissons Ratio (z) = 0.26534 0.25518
#
# Static dielectric constant tensor:
#      x y z
#    x 1.876350 0.000010 -0.038290 
#    y 0.000010 1.859750 0.000000 
#    z -0.038290 0.000000 1.953950 
# 
# From -- ./inp_files/264076.got.cif
#   From: 2010.05.17/outbox.cif.g08.bks.cpg/sg15_133_cif.got.tgz:264076.got - 2010.06.03 18:47:42.
