data_PCOD9292712
_publ_section_title
;
Structure prediction by ZEFSAII (Michael W. Deem and Ramdas Pophale) SiO2 
 PCOD9292712
Probable space group: C 2/C
;
_chemical_formula_sum "Si O2"
_cell_formula_units_Z 44
_cell_length_a 5.604749
_cell_length_b 21.630204
_cell_length_c 14.369798
_cell_angle_alpha 90.000000
_cell_angle_beta 89.176649
_cell_angle_gamma 90.000000
_cell_volume 1741.897532
_symmetry_space_group_name_H-M "C 2/C"
_symmetry_group_IT_number 15
_symmetry_cell_setting 'monoclinic'
loop_
_space_group_symop_operation_xyz
x,y,z
-x,y,1/2-z
-x,-y,-z
x,-y,1/2+z
1/2+x,1/2+y,z
1/2-x,1/2+y,1/2-z
1/2-x,1/2-y,-z
1/2+x,1/2-y,1/2+z
loop_
_atom_site_type_symbol
_atom_site_label
_atom_site_fract_x
_atom_site_fract_y
_atom_site_fract_z
Si Si1 0.000000 0.018431 0.750000
Si Si2 0.000000 0.333024 0.750000
Si Si3 0.360521 0.943538 0.624235
Si Si4 0.497056 0.316714 0.942468
Si Si5 0.294100 0.055433 0.913864
Si Si6 0.012191 0.677003 0.947442
Si Si7 0.000000 0.185008 0.250000
O O1 0.908760 0.057898 0.662569
O O2 0.793865 0.975974 0.795174
O O3 0.027194 0.380097 0.836508
O O4 0.231661 0.290466 0.751264
O O5 0.227184 0.940826 0.524082
O O6 0.576406 0.990329 0.600705
O O7 0.522341 0.245546 0.904571
O O8 0.501710 0.354271 0.846190
O O9 0.242969 0.318547 0.995427
O O10 0.733251 0.328614 0.001164
O O11 0.472523 0.112977 0.894274
#
# Coordination Sequence:
#
# PCOD9292712 Si02
#       7
#     4   4   8   8   8   8   4
#     4  12  23  44  61  98 140 175 228 285 318 418
#     4  12  24  42  66  98 135 173 224 286 322 400
#     4  11  24  42  63  95 135 177 228 273 333 403
#     4  10  22  44  66  98 128 166 225 280 323 405
#     4  11  24  42  66  94 133 185 218 275 345 404
#     4  10  23  44  68  92 132 174 218 270 340 396
#     4  12  23  38  67  98 125 168 224 277 342 378
#
# _framework density 25.259809000000001
#
# number of rings (size 3 to 8) (size 9 to 14) (size 15 to 20)
#    0.000    1.091    1.818    4.364    2.545    0.000 
#    3.273    0.909    0.000    0.000    0.000    0.000 
#    0.000    0.000    0.000    0.000    0.000    0.000 
#
# Total GULP energy -122688.719940 kJ/mol
# GULP energy per Si atom -5576.759997 kJ/mol
# Density = 2.520232 g / cm^3
# Si number density = 25.259809 Si / 1000 Ang^3
#
#
#
# Elastic Constant Matrix: (Units=GPa)
#
#
# Indices 1 2 3 4 5 6 
#
# 1 177.3210 -0.7294 53.6683 0.0000 25.7505 0.0000
# 2 -0.7294 75.8231 20.2344 0.0000 16.4576 0.0000
# 3 53.6683 20.2344 153.9802 0.0000 22.6592 0.0000
# 4 0.0000 0.0000 0.0000 25.0167 0.0000 1.8756
# 5 25.7505 16.4576 22.6592 0.0000 52.1335 0.0000
# 6 0.0000 0.0000 0.0000 1.8756 0.0000 32.0489
#
#
#
# Elastic Compliance Matrix: (Units=1/GPa)
#
#
# Indices 1 2 3 4 5 6 
#
# 1 0.006678 0.001223 -0.002079 0.000000 -0.002781 0.000000
# 2 0.001223 0.014625 -0.001688 0.000000 -0.004487 0.000000
# 3 -0.002079 -0.001688 0.007704 0.000000 -0.001789 0.000000
# 4 0.000000 0.000000 0.000000 0.040149 0.000000 -0.002350
# 5 -0.002781 -0.004487 -0.001789 0.000000 0.022749 0.000000
# 6 0.000000 0.000000 0.000000 -0.002350 0.000000 0.031340
#
#
# Mechanical properties :
#
#
# Convention : Reuss Voigt Hill
#
# Bulk Modulus (GPa) = 41.80909 61.49675 51.65292
# Shear Modulus (GPa) = 36.68249 44.10324 40.39286
#
# Velocity S-wave (km/s) = 3.81492 4.18303 4.00321
# Velocity P-wave (km/s) = 5.99936 6.90861 6.46998
#
# Compressibility (1/GPa) = 0.02391825
#
# Stress axis : x y z
#
# Youngs Moduli (GPa) = 149.75654 68.37772 129.80416
#
# Poissons Ratio (x) = -0.08359 0.26984
# Poissons Ratio (y) = -0.18308 0.21906
# Poissons Ratio (z) = 0.31132 0.11539
#
# Static dielectric constant tensor:
#      x y z
#    x 2.055640 0.000000 -0.018530 
#    y 0.000000 2.073590 0.000000 
#    z -0.018530 0.000000 2.161380 
# 
# From -- ./inp_files/129423.got.cif
#   From: 2010.05.17/outbox.cif.g08.bks.cpg/sg15_65_cif.got.tgz:129423.got - 2010.06.03 18:47:42.
