data_PCOD9292859
_publ_section_title
;
Structure prediction by ZEFSAII (Michael W. Deem and Ramdas Pophale) SiO2 
 PCOD9292859
Probable space group: C 2/C
;
_chemical_formula_sum "Si O2"
_cell_formula_units_Z 52
_cell_length_a 8.580577
_cell_length_b 26.422887
_cell_length_c 13.676841
_cell_angle_alpha 90.000000
_cell_angle_beta 45.040379
_cell_angle_gamma 90.000000
_cell_volume 2194.185863
_symmetry_space_group_name_H-M "C 2/C"
_symmetry_group_IT_number 15
_symmetry_cell_setting 'monoclinic'
loop_
_space_group_symop_operation_xyz
x,y,z
-x,y,1/2-z
-x,-y,-z
x,-y,1/2+z
1/2+x,1/2+y,z
1/2-x,1/2+y,1/2-z
1/2-x,1/2-y,-z
1/2+x,1/2-y,1/2+z
loop_
_atom_site_type_symbol
_atom_site_label
_atom_site_fract_x
_atom_site_fract_y
_atom_site_fract_z
Si Si1 0.722436 0.966176 0.092486
Si Si2 0.333525 0.214267 0.117244
Si Si3 0.000000 0.305571 0.250000
Si Si4 0.203344 0.133332 0.026494
Si Si5 0.194833 0.175275 0.589811
Si Si6 0.741058 0.166858 0.151098
Si Si7 0.082967 0.057057 0.603778
O O1 0.500000 0.966282 0.250000
O O2 0.743948 0.925452 0.995841
O O3 0.890938 0.948012 0.105411
O O4 0.750228 0.019111 0.023579
O O5 0.206471 0.266264 0.155530
O O6 0.315505 0.206720 0.240438
O O7 0.210460 0.168050 0.118119
O O8 0.581155 0.201206 0.974145
O O9 0.096138 0.343937 0.127244
O O10 0.958127 0.137746 0.089927
O O11 0.182828 0.192440 0.483139
O O12 0.181758 0.113741 0.578151
O O13 0.000000 0.186841 0.750000
O O14 0.500000 0.139393 0.250000
O O15 0.000000 0.041590 0.750000
#
# Coordination Sequence:
#
# PCOD9292859 Si02
#       7
#     8   8   4   8   8   8   8
#     4  11  25  45  70 107 139 193 238 291 363 429
#     4  11  25  44  70 104 138 191 241 291 366 422
#     4  12  26  44  74 104 146 190 244 310 356 430
#     4  12  24  45  73 100 146 189 245 300 363 426
#     4  10  23  45  75 104 145 193 231 295 364 428
#     4  10  22  44  69 100 143 182 235 299 358 421
#     4  10  24  46  70 105 147 184 241 293 357 428
#
# _framework density 23.698996000000001
#
# number of rings (size 3 to 8) (size 9 to 14) (size 15 to 20)
#    0.000    1.231    3.846    0.462    6.462    3.692 
#    0.000    3.846    0.000    0.000    0.000    0.000 
#    0.000    0.000    0.000    0.000    0.000    0.000 
#
# Total GULP energy -144867.672601 kJ/mol
# GULP energy per Si atom -5571.833562 kJ/mol
# Density = 2.364506 g / cm^3
# Si number density = 23.698996 Si / 1000 Ang^3
#
#
#
# Elastic Constant Matrix: (Units=GPa)
#
#
# Indices 1 2 3 4 5 6 
#
# 1 67.2044 29.9494 47.3918 0.0000 -10.7868 0.0000
# 2 29.9494 78.3450 32.5929 0.0000 -18.1096 0.0000
# 3 47.3918 32.5929 153.8163 0.0000 -11.3779 0.0000
# 4 0.0000 0.0000 0.0000 31.7695 0.0000 1.0447
# 5 -10.7868 -18.1096 -11.3779 0.0000 44.5008 0.0000
# 6 0.0000 0.0000 0.0000 1.0447 0.0000 12.3199
#
#
#
# Elastic Compliance Matrix: (Units=1/GPa)
#
#
# Indices 1 2 3 4 5 6 
#
# 1 0.021347 -0.005610 -0.005274 0.000000 0.001543 0.000000
# 2 -0.005610 0.016673 -0.001430 0.000000 0.005060 0.000000
# 3 -0.005274 -0.001430 0.008452 0.000000 0.000300 0.000000
# 4 0.000000 0.000000 0.000000 0.031565 0.000000 -0.002677
# 5 0.001543 0.005060 0.000300 0.000000 0.024981 0.000000
# 6 0.000000 0.000000 0.000000 -0.002677 0.000000 0.081396
#
#
# Mechanical properties :
#
#
# Convention : Reuss Voigt Hill
#
# Bulk Modulus (GPa) = 45.78089 57.69266 51.73678
# Shear Modulus (GPa) = 23.11352 30.34682 26.73017
#
# Velocity S-wave (km/s) = 3.12636 3.58230 3.36207
# Velocity P-wave (km/s) = 5.69138 6.44262 6.07861
#
# Compressibility (1/GPa) = 0.02184317
#
# Stress axis : x y z
#
# Youngs Moduli (GPa) = 46.84517 59.97707 118.32055
#
# Poissons Ratio (x) = 0.33644 0.62406
# Poissons Ratio (y) = 0.26278 0.16924
# Poissons Ratio (z) = 0.24708 0.08579
#
# Static dielectric constant tensor:
#      x y z
#    x 2.180550 0.000000 0.007330 
#    y 0.000000 1.919100 0.000000 
#    z 0.007330 0.000000 1.897620 
# 
# From -- ./inp_files/139729.got.cif
#   From: 2010.05.17/outbox.cif.g08.bks.cpg/sg15_70_cif.got.tgz:139729.got - 2010.06.03 18:47:42.
