data_PCOD9292793
_publ_section_title
;
Structure prediction by ZEFSAII (Michael W. Deem and Ramdas Pophale) SiO2 
 PCOD9292793
Probable space group: C 2/C
;
_chemical_formula_sum "Si O2"
_cell_formula_units_Z 44
_cell_length_a 21.241747
_cell_length_b 10.600422
_cell_length_c 9.743490
_cell_angle_alpha 90.000000
_cell_angle_beta 63.751279
_cell_angle_gamma 90.000000
_cell_volume 1967.721070
_symmetry_space_group_name_H-M "C 2/C"
_symmetry_group_IT_number 15
_symmetry_cell_setting 'monoclinic'
loop_
_space_group_symop_operation_xyz
x,y,z
-x,y,1/2-z
-x,-y,-z
x,-y,1/2+z
1/2+x,1/2+y,z
1/2-x,1/2+y,1/2-z
1/2-x,1/2-y,-z
1/2+x,1/2-y,1/2+z
loop_
_atom_site_type_symbol
_atom_site_label
_atom_site_fract_x
_atom_site_fract_y
_atom_site_fract_z
Si Si1 0.827155 0.626204 0.342637
Si Si2 0.500000 0.659416 0.250000
Si Si3 0.320781 0.712770 0.117226
Si Si4 0.813951 0.341654 0.403984
Si Si5 0.921006 0.002661 0.136904
Si Si6 0.417084 0.773133 0.547803
O O1 0.761439 0.676016 0.315989
O O2 0.839195 0.719719 0.457594
O O3 0.802973 0.490900 0.421967
O O4 0.897108 0.623666 0.180932
O O5 0.435076 0.565938 0.273000
O O6 0.489350 0.743303 0.397418
O O7 0.332868 0.808764 0.229861
O O8 0.367459 0.591097 0.107126
O O9 0.750000 0.250000 0.500000
O O10 0.871379 0.305509 0.459648
O O11 0.897330 0.858255 0.143595
O O12 0.000000 0.000000 0.000000
#
# Coordination Sequence:
#
# PCOD9292793 Si02
#       6
#     8   4   8   8   8   8
#     4  11  26  41  66 108 140 183 235 299 366 427
#     4  10  22  44  68 104 134 182 248 298 360 416
#     4  11  24  41  68 102 143 175 237 296 362 431
#     4  12  23  43  68  96 138 186 228 287 358 438
#     4  10  23  41  71 100 135 184 241 297 356 427
#     4  11  23  42  70  95 137 181 235 294 360 425
#
# _framework density 22.360892
#
# number of rings (size 3 to 8) (size 9 to 14) (size 15 to 20)
#    0.000    1.091    3.636    2.182    5.091    1.455 
#    0.000    0.909    4.000    0.000    0.000    0.000 
#    0.000    0.000    0.000    0.000    0.000    0.000 
#
# Total GULP energy -122728.872376 kJ/mol
# GULP energy per Si atom -5578.585108 kJ/mol
# Density = 2.231000 g / cm^3
# Si number density = 22.360892 Si / 1000 Ang^3
#
#
#
# Elastic Constant Matrix: (Units=GPa)
#
#
# Indices 1 2 3 4 5 6 
#
# 1 55.8849 9.7807 16.0013 0.0000 22.3190 0.0000
# 2 9.7807 83.6099 14.4249 0.0000 6.2601 0.0000
# 3 16.0013 14.4249 100.1359 0.0000 1.5866 0.0000
# 4 0.0000 0.0000 0.0000 34.9762 0.0000 1.9121
# 5 22.3190 6.2601 1.5866 0.0000 27.6637 0.0000
# 6 0.0000 0.0000 0.0000 1.9121 0.0000 28.6719
#
#
#
# Elastic Compliance Matrix: (Units=1/GPa)
#
#
# Indices 1 2 3 4 5 6 
#
# 1 0.028071 -0.000931 -0.004000 0.000000 -0.022208 0.000000
# 2 -0.000931 0.012497 -0.001620 0.000000 -0.001984 0.000000
# 3 -0.004000 -0.001620 0.010812 0.000000 0.002973 0.000000
# 4 0.000000 0.000000 0.000000 0.028695 0.000000 -0.001914
# 5 -0.022208 -0.001984 0.002973 0.000000 0.054344 0.000000
# 6 0.000000 0.000000 0.000000 -0.001914 0.000000 0.035005
#
#
# Mechanical properties :
#
#
# Convention : Reuss Voigt Hill
#
# Bulk Modulus (GPa) = 26.12408 35.56050 30.84229
# Shear Modulus (GPa) = 25.60351 31.55730 28.58040
#
# Velocity S-wave (km/s) = 3.38748 3.76077 3.57899
# Velocity P-wave (km/s) = 5.19695 5.89876 5.55894
#
# Compressibility (1/GPa) = 0.03827886
#
# Stress axis : x y z
#
# Youngs Moduli (GPa) = 35.62366 80.01748 92.49127
#
# Poissons Ratio (x) = 0.07449 0.36994
# Poissons Ratio (y) = 0.03316 0.14984
# Poissons Ratio (z) = 0.14248 0.12963
#
# Static dielectric constant tensor:
#      x y z
#    x 1.855980 0.000000 -0.087610 
#    y 0.000000 1.873730 0.000000 
#    z -0.087610 0.000000 1.975300 
# 
# From -- ./inp_files/60475.got.cif
#   From: 2010.05.17/outbox.cif.g08.bks.cpg/sg15_31_cif.got.tgz:60475.got - 2010.06.03 18:47:42.
