data_PCOD9292274
_publ_section_title
;
Structure prediction by ZEFSAII (Michael W. Deem and Ramdas Pophale) SiO2 
 PCOD9292274
Probable space group: C 2/C
;
_chemical_formula_sum "Si O2"
_cell_formula_units_Z 44
_cell_length_a 14.483000
_cell_length_b 11.784672
_cell_length_c 26.399667
_cell_angle_alpha 90.000000
_cell_angle_beta 151.773154
_cell_angle_gamma 90.000000
_cell_volume 2131.092210
_symmetry_space_group_name_H-M "C 2/C"
_symmetry_group_IT_number 15
_symmetry_cell_setting 'monoclinic'
loop_
_space_group_symop_operation_xyz
x,y,z
-x,y,1/2-z
-x,-y,-z
x,-y,1/2+z
1/2+x,1/2+y,z
1/2-x,1/2+y,1/2-z
1/2-x,1/2-y,-z
1/2+x,1/2-y,1/2+z
loop_
_atom_site_type_symbol
_atom_site_label
_atom_site_fract_x
_atom_site_fract_y
_atom_site_fract_z
Si Si1 0.434272 0.659769 0.503774
Si Si2 0.108193 0.433682 0.911141
Si Si3 0.586952 0.903249 0.576831
Si Si4 0.623512 0.355968 0.921743
Si Si5 0.199401 0.040989 0.164060
Si Si6 0.000000 0.882359 0.750000
O O1 0.250037 0.657777 0.453139
O O2 0.530449 0.776717 0.531758
O O3 0.347722 0.597222 0.412727
O O4 0.600668 0.583236 0.611210
O O5 0.998068 0.396798 0.908295
O O6 0.928886 0.466611 0.787371
O O7 0.244982 0.536059 0.997455
O O8 0.812425 0.938564 0.684318
O O9 0.500000 0.000000 0.500000
O O10 0.419987 0.382954 0.852463
O O11 0.590560 0.333269 0.845845
O O12 0.750000 0.250000 0.000000
#
# Coordination Sequence:
#
# PCOD9292274 Si02
#       6
#     8   8   8   8   8   4
#     4  10  24  45  67 101 138 176 232 286 344 418
#     4  11  23  43  69 101 137 175 229 286 349 415
#     4  12  25  46  67 100 137 178 229 282 348 420
#     4  11  24  42  66 102 136 179 232 283 345 422
#     4  10  22  43  68  99 134 179 229 280 348 408
#     4  12  24  44  66  96 138 180 226 288 348 408
#
# _framework density 20.64669
#
# number of rings (size 3 to 8) (size 9 to 14) (size 15 to 20)
#    0.000    1.091    3.636    2.182    2.545    0.000 
#    3.273    0.000    0.000    0.000    0.000    0.000 
#    0.000    0.000    0.000    0.000    0.000    0.000 
#
# Total GULP energy -122470.355645 kJ/mol
# GULP energy per Si atom -5566.834348 kJ/mol
# Density = 2.059970 g / cm^3
# Si number density = 20.646690 Si / 1000 Ang^3
#
#
#
# Elastic Constant Matrix: (Units=GPa)
#
#
# Indices 1 2 3 4 5 6 
#
# 1 112.8609 15.3550 18.7224 -0.0002 13.8046 -0.0001
# 2 15.3550 73.4621 32.5040 0.0000 4.3385 0.0000
# 3 18.7224 32.5040 120.6166 -0.0004 9.1376 -0.0002
# 4 -0.0002 0.0000 -0.0004 4.3581 -0.0001 0.2308
# 5 13.8046 4.3385 9.1376 -0.0001 48.2438 0.0000
# 6 -0.0001 0.0000 -0.0002 0.2308 0.0000 22.5207
#
#
#
# Elastic Compliance Matrix: (Units=1/GPa)
#
#
# Indices 1 2 3 4 5 6 
#
# 1 0.009502 -0.001444 -0.000903 0.000000 -0.002418 0.000000
# 2 -0.001444 0.015692 -0.003986 0.000000 -0.000243 0.000000
# 3 -0.000903 -0.003986 0.009596 0.000001 -0.001201 0.000000
# 4 0.000000 0.000000 0.000001 0.229585 0.000000 -0.002353
# 5 -0.002418 -0.000243 -0.001201 0.000000 0.021669 0.000000
# 6 0.000000 0.000000 0.000000 -0.002353 0.000000 0.044428
#
#
# Mechanical properties :
#
#
# Convention : Reuss Voigt Hill
#
# Bulk Modulus (GPa) = 45.19764 48.90025 47.04894
# Shear Modulus (GPa) = 14.26479 31.04840 22.65660
#
# Velocity S-wave (km/s) = 2.63135 3.88209 3.31622
# Velocity P-wave (km/s) = 5.58306 6.62041 6.12374
#
# Compressibility (1/GPa) = 0.02212505
#
# Stress axis : x y z
#
# Youngs Moduli (GPa) = 105.23604 63.72514 104.20964
#
# Poissons Ratio (x) = 0.09202 0.09407
# Poissons Ratio (y) = 0.15196 0.41541
# Poissons Ratio (z) = 0.09499 0.25403
#
# Static dielectric constant tensor:
#      x y z
#    x 1.785130 0.000000 0.005140 
#    y 0.000000 1.839850 0.000000 
#    z 0.005140 0.000000 1.770730 
# 
# From -- ./inp_files/295989.got.cif
#   From: 2010.05.17/outbox.cif.g08.bks.cpg/sg15_148_cif.got.tgz:295989.got - 2010.06.03 18:47:42.
