data_PCOD9292040
_publ_section_title
;
Structure prediction by ZEFSAII (Michael W. Deem and Ramdas Pophale) SiO2 
 PCOD9292040
Probable space group: C 2/C
;
_chemical_formula_sum "Si O2"
_cell_formula_units_Z 64
_cell_length_a 17.813287
_cell_length_b 15.685752
_cell_length_c 15.675461
_cell_angle_alpha 90.000000
_cell_angle_beta 132.208497
_cell_angle_gamma 90.000000
_cell_volume 3244.255062
_symmetry_space_group_name_H-M "C 2/C"
_symmetry_group_IT_number 15
_symmetry_cell_setting 'monoclinic'
loop_
_space_group_symop_operation_xyz
x,y,z
-x,y,1/2-z
-x,-y,-z
x,-y,1/2+z
1/2+x,1/2+y,z
1/2-x,1/2+y,1/2-z
1/2-x,1/2-y,-z
1/2+x,1/2-y,1/2+z
loop_
_atom_site_type_symbol
_atom_site_label
_atom_site_fract_x
_atom_site_fract_y
_atom_site_fract_z
Si Si1 0.500883 0.258050 0.512725
Si Si2 0.456710 0.078813 0.019549
Si Si3 0.612495 0.525709 0.799822
Si Si4 0.190149 0.698021 0.026521
Si Si5 0.688459 0.011188 0.968272
Si Si6 0.912899 0.783988 0.255046
Si Si7 0.346034 0.895775 0.717738
Si Si8 0.671425 0.380782 0.719102
O O1 0.552573 0.164769 0.541751
O O2 0.405325 0.245929 0.503576
O O3 0.458906 0.281708 0.386190
O O4 0.583032 0.324842 0.609342
O O5 0.544012 0.098235 0.155171
O O6 0.357352 0.045839 0.990556
O O7 0.500000 0.000000 0.000000
O O8 0.500000 0.521890 0.750000
O O9 0.635446 0.623695 0.795392
O O10 0.625733 0.463503 0.730015
O O11 0.690933 0.492311 0.930151
O O12 0.267191 0.672544 0.161822
O O13 0.250000 0.750000 0.000000
O O14 0.154348 0.608091 0.957794
O O15 0.657690 0.965320 0.858531
O O16 0.839319 0.703371 0.185118
O O17 0.000000 0.774883 0.250000
O O18 0.256326 0.909108 0.716312
#
# Coordination Sequence:
#
# PCOD9292040 Si02
#       8
#     8   8   8   8   8   8   8   8
#     4  11  24  41  70  97 135 179 218 284 339 394
#     4  11  20  42  67  94 137 161 217 283 333 398
#     4  10  25  44  63  92 134 175 227 270 328 408
#     4  11  25  47  65  99 138 172 231 278 330 415
#     4  11  24  41  70  97 127 181 214 283 346 385
#     4  10  22  43  65  95 133 172 223 276 332 404
#     4  11  23  42  65 100 133 162 226 275 332 406
#     4  11  25  44  66  96 135 180 223 274 342 398
#
# _framework density 19.727179
#
# number of rings (size 3 to 8) (size 9 to 14) (size 15 to 20)
#    0.000    1.250    3.750    2.625    8.750    3.000 
#    2.250    0.000    0.000    0.000    0.000    0.000 
#    0.000    0.000    0.000    0.000    0.000    0.000 
#
# Total GULP energy -178745.722439 kJ/mol
# GULP energy per Si atom -5585.803826 kJ/mol
# Density = 1.968228 g / cm^3
# Si number density = 19.727179 Si / 1000 Ang^3
#
#
#
# Elastic Constant Matrix: (Units=GPa)
#
#
# Indices 1 2 3 4 5 6 
#
# 1 111.5204 19.6711 14.9579 0.0000 -5.6739 0.0000
# 2 19.6711 70.0625 11.9020 0.0000 -7.7568 0.0000
# 3 14.9579 11.9020 50.8723 0.0000 -6.9316 0.0000
# 4 0.0000 0.0000 0.0000 31.6927 0.0000 -9.1728
# 5 -5.6739 -7.7568 -6.9316 0.0000 30.0488 0.0000
# 6 0.0000 0.0000 0.0000 -9.1728 0.0000 25.7851
#
#
#
# Elastic Compliance Matrix: (Units=1/GPa)
#
#
# Indices 1 2 3 4 5 6 
#
# 1 0.009702 -0.002265 -0.002223 0.000000 0.000735 0.000000
# 2 -0.002265 0.015684 -0.002591 0.000000 0.003023 0.000000
# 3 -0.002223 -0.002591 0.021443 0.000000 0.003858 0.000000
# 4 0.000000 0.000000 0.000000 0.035175 0.000000 0.012513
# 5 0.000735 0.003023 0.003858 0.000000 0.035088 0.000000
# 6 0.000000 0.000000 0.000000 0.012513 0.000000 0.043234
#
#
# Mechanical properties :
#
#
# Convention : Reuss Voigt Hill
#
# Bulk Modulus (GPa) = 30.60914 36.16859 33.38886
# Shear Modulus (GPa) = 26.97264 29.90028 28.43646
#
# Velocity S-wave (km/s) = 3.70169 3.89741 3.80081
# Velocity P-wave (km/s) = 5.81549 6.21508 6.01860
#
# Compressibility (1/GPa) = 0.03266998
#
# Stress axis : x y z
#
# Youngs Moduli (GPa) = 103.07158 63.75986 46.63633
#
# Poissons Ratio (x) = 0.14442 0.10366
# Poissons Ratio (y) = 0.23347 0.12086
# Poissons Ratio (z) = 0.22909 0.16523
#
# Static dielectric constant tensor:
#      x y z
#    x 1.691100 0.000000 -0.004260 
#    y 0.000000 1.641540 0.000000 
#    z -0.004260 0.000000 1.656710 
# 
# From -- ./inp_files/162575.got.cif
#   From: 2010.05.17/outbox.cif.g08.bks.cpg/sg15_82_cif.got.tgz:162575.got - 2010.06.03 18:47:42.
