data_PCOD9292493
_publ_section_title
;
Structure prediction by ZEFSAII (Michael W. Deem and Ramdas Pophale) SiO2 
 PCOD9292493
Probable space group: C 2/C
;
_chemical_formula_sum "Si O2"
_cell_formula_units_Z 44
_cell_length_a 22.094812
_cell_length_b 5.994619
_cell_length_c 16.451737
_cell_angle_alpha 90.000000
_cell_angle_beta 48.668538
_cell_angle_gamma 90.000000
_cell_volume 1636.238797
_symmetry_space_group_name_H-M "C 2/C"
_symmetry_group_IT_number 15
_symmetry_cell_setting 'monoclinic'
loop_
_space_group_symop_operation_xyz
x,y,z
-x,y,1/2-z
-x,-y,-z
x,-y,1/2+z
1/2+x,1/2+y,z
1/2-x,1/2+y,1/2-z
1/2-x,1/2-y,-z
1/2+x,1/2-y,1/2+z
loop_
_atom_site_type_symbol
_atom_site_label
_atom_site_fract_x
_atom_site_fract_y
_atom_site_fract_z
Si Si1 0.383788 0.634396 0.771804
Si Si2 0.000000 0.195448 0.250000
Si Si3 0.797271 0.753157 0.553102
Si Si4 0.811791 0.744674 0.020111
Si Si5 0.972369 0.515872 0.620056
Si Si6 0.315623 0.717603 0.226344
O O1 0.421907 0.444247 0.794561
O O2 0.299686 0.733980 0.882658
O O3 0.458867 0.788975 0.681433
O O4 0.359237 0.513024 0.709970
O O5 0.985847 0.323302 0.349190
O O6 0.840765 0.518720 0.490979
O O7 0.796036 0.753539 0.651565
O O8 0.838406 0.993521 0.501062
O O9 0.760643 0.732457 0.148675
O O10 0.750000 0.750000 0.000000
O O11 0.880198 0.597710 0.694367
O O12 0.000000 0.500000 0.500000
#
# Coordination Sequence:
#
# PCOD9292493 Si02
#       6
#     8   4   8   8   8   8
#     4  10  22  43  73  96 143 193 239 313 372 446
#     4  10  24  46  68 104 144 200 250 312 366 446
#     4  11  23  43  71 102 145 182 235 298 376 447
#     4  11  22  40  63 102 144 181 231 287 368 443
#     4  11  24  47  73 104 142 199 256 305 375 452
#     4  10  23  42  68 102 138 185 233 301 374 442
#
# _framework density 26.890938999999999
#
# number of rings (size 3 to 8) (size 9 to 14) (size 15 to 20)
#    0.000    1.455    1.818    3.273    2.545    2.909 
#    9.818    7.273    0.000    0.000    0.000    0.000 
#    0.000    0.000    0.000    0.000    0.000    0.000 
#
# Total GULP energy -122684.672686 kJ/mol
# GULP energy per Si atom -5576.576031 kJ/mol
# Density = 2.682973 g / cm^3
# Si number density = 26.890939 Si / 1000 Ang^3
#
#
#
# Elastic Constant Matrix: (Units=GPa)
#
#
# Indices 1 2 3 4 5 6 
#
# 1 103.8776 52.9854 39.1013 -0.0223 23.6327 0.0134
# 2 52.9854 195.0759 63.8621 0.0031 8.0153 -0.0034
# 3 39.1013 63.8621 118.5739 -0.0216 13.9180 -0.0067
# 4 -0.0223 0.0031 -0.0216 25.1403 0.0235 5.9184
# 5 23.6327 8.0153 13.9180 0.0235 43.5243 -0.0077
# 6 0.0134 -0.0034 -0.0067 5.9184 -0.0077 36.0690
#
#
#
# Elastic Compliance Matrix: (Units=1/GPa)
#
#
# Indices 1 2 3 4 5 6 
#
# 1 0.013145 -0.002593 -0.002241 0.000018 -0.005943 -0.000010
# 2 -0.002593 0.006735 -0.002901 -0.000007 0.001095 0.000002
# 3 -0.002241 -0.002901 0.010940 0.000009 -0.001747 0.000001
# 4 0.000018 -0.000007 0.000009 0.041375 -0.000035 -0.006789
# 5 -0.005943 0.001095 -0.001747 -0.000035 0.026560 0.000013
# 6 -0.000010 0.000002 0.000001 -0.006789 0.000013 0.028839
#
#
# Mechanical properties :
#
#
# Convention : Reuss Voigt Hill
#
# Bulk Modulus (GPa) = 65.14130 81.04723 73.09426
# Shear Modulus (GPa) = 33.74298 38.38530 36.06414
#
# Velocity S-wave (km/s) = 3.54617 3.78225 3.66611
# Velocity P-wave (km/s) = 6.40655 7.01987 6.72021
#
# Compressibility (1/GPa) = 0.01535124
#
# Stress axis : x y z
#
# Youngs Moduli (GPa) = 76.07632 148.47575 91.40743
#
# Poissons Ratio (x) = 0.38493 0.20482
# Poissons Ratio (y) = 0.19723 0.26518
# Poissons Ratio (z) = 0.17046 0.43073
#
# Static dielectric constant tensor:
#      x y z
#    x 2.233110 -0.000070 -0.053710 
#    y -0.000070 2.356140 0.000020 
#    z -0.053710 0.000020 2.110990 
# 
# From -- ./inp_files/217716.got.cif
#   From: 2010.05.17/outbox.cif.g08.bks.cpg/sg15_109_cif.got.tgz:217716.got - 2010.06.03 18:47:42.
