data_PCOD9292959
_publ_section_title
;
Structure prediction by ZEFSAII (Michael W. Deem and Ramdas Pophale) SiO2 
 PCOD9292959
Probable space group: C 2/C
;
_chemical_formula_sum "Si O2"
_cell_formula_units_Z 52
_cell_length_a 27.264954
_cell_length_b 8.756112
_cell_length_c 10.509322
_cell_angle_alpha 90.000000
_cell_angle_beta 108.632438
_cell_angle_gamma 90.000000
_cell_volume 2377.443373
_symmetry_space_group_name_H-M "C 2/C"
_symmetry_group_IT_number 15
_symmetry_cell_setting 'monoclinic'
loop_
_space_group_symop_operation_xyz
x,y,z
-x,y,1/2-z
-x,-y,-z
x,-y,1/2+z
1/2+x,1/2+y,z
1/2-x,1/2+y,1/2-z
1/2-x,1/2-y,-z
1/2+x,1/2-y,1/2+z
loop_
_atom_site_type_symbol
_atom_site_label
_atom_site_fract_x
_atom_site_fract_y
_atom_site_fract_z
Si Si1 0.682801 0.072866 0.076975
Si Si2 0.000000 0.857462 0.750000
Si Si3 0.343553 0.404940 0.374027
Si Si4 0.961316 0.635750 0.934705
Si Si5 0.148671 0.399534 0.280921
Si Si6 0.800887 0.077913 0.109829
Si Si7 0.051095 0.942360 0.466503
O O1 0.653061 0.223335 0.102374
O O2 0.741010 0.115469 0.085153
O O3 0.684477 0.958035 0.196062
O O4 0.655964 0.018348 0.923463
O O5 0.012102 0.743969 0.646770
O O6 0.046145 0.971360 0.827717
O O7 0.316514 0.444827 0.219605
O O8 0.311512 0.461189 0.471660
O O9 0.398214 0.490790 0.425554
O O10 0.908287 0.583243 0.824910
O O11 0.948876 0.758789 0.035907
O O12 0.000000 0.500000 0.000000
O O13 0.164076 0.224837 0.324853
O O14 0.000000 0.000000 0.500000
#
# Coordination Sequence:
#
# PCOD9292959 Si02
#       7
#     8   4   8   8   8   8   8
#     4  11  24  42  68  98 136 181 225 287 342 410
#     4  10  22  44  70  90 136 172 240 278 342 410
#     4  11  23  41  69  95 134 177 227 280 347 406
#     4  11  25  43  67 100 137 180 229 289 349 417
#     4  11  24  43  65  99 137 174 227 274 352 409
#     4  11  22  44  68  97 135 178 231 284 340 411
#     4  10  23  42  67  94 128 179 229 281 339 415
#
# _framework density 21.872236999999998
#
# number of rings (size 3 to 8) (size 9 to 14) (size 15 to 20)
#    0.000    1.231    1.538    5.538    8.615    1.846 
#    0.000    3.077    0.000    0.000    0.000    0.000 
#    0.000    0.000    0.000    0.000    0.000    0.000 
#
# Total GULP energy -145212.238409 kJ/mol
# GULP energy per Si atom -5585.086093 kJ/mol
# Density = 2.182245 g / cm^3
# Si number density = 21.872237 Si / 1000 Ang^3
#
#
#
# Elastic Constant Matrix: (Units=GPa)
#
#
# Indices 1 2 3 4 5 6 
#
# 1 54.6133 25.7524 3.8540 0.0000 8.8595 0.0000
# 2 25.7524 43.2680 27.9802 0.0000 1.8561 0.0000
# 3 3.8540 27.9802 94.1462 0.0000 -4.3764 0.0000
# 4 0.0000 0.0000 0.0000 34.7356 0.0000 -13.5915
# 5 8.8595 1.8561 -4.3764 0.0000 49.7885 0.0000
# 6 0.0000 0.0000 0.0000 -13.5915 0.0000 8.9325
#
#
#
# Elastic Compliance Matrix: (Units=1/GPa)
#
#
# Indices 1 2 3 4 5 6 
#
# 1 0.027632 -0.019109 0.004370 0.000000 -0.003821 0.000000
# 2 -0.019109 0.041990 -0.011660 0.000000 0.000810 0.000000
# 3 0.004370 -0.011660 0.013949 0.000000 0.000883 0.000000
# 4 0.000000 0.000000 0.000000 0.071148 0.000000 0.108256
# 5 -0.003821 0.000810 0.000883 0.000000 0.020812 0.000000
# 6 0.000000 0.000000 0.000000 0.108256 0.000000 0.276670
#
#
# Mechanical properties :
#
#
# Convention : Reuss Voigt Hill
#
# Bulk Modulus (GPa) = 32.49295 34.13340 33.31317
# Shear Modulus (GPa) = 9.70391 27.65405 18.67898
#
# Velocity S-wave (km/s) = 2.10862 3.55962 2.92551
# Velocity P-wave (km/s) = 4.56250 5.70388 5.16481
#
# Compressibility (1/GPa) = 0.03077591
#
# Stress axis : x y z
#
# Youngs Moduli (GPa) = 36.18932 23.81512 71.68905
#
# Poissons Ratio (x) = 0.45508 -0.31330
# Poissons Ratio (y) = 0.69153 0.83586
# Poissons Ratio (z) = -0.15816 0.27767
#
# Static dielectric constant tensor:
#      x y z
#    x 1.700440 0.000000 0.072270 
#    y 0.000000 1.815450 0.000000 
#    z 0.072270 0.000000 1.817340 
# 
# From -- ./inp_files/122044.got.cif
#   From: 2010.05.17/outbox.cif.g08.bks.cpg/sg15_62_cif.got.tgz:122044.got - 2010.06.03 18:47:42.
