data_PCOD9292013
_publ_section_title
;
Structure prediction by ZEFSAII (Michael W. Deem and Ramdas Pophale) SiO2 
 PCOD9292013
Probable space group: C 2/C
;
_chemical_formula_sum "Si O2"
_cell_formula_units_Z 28
_cell_length_a 9.352536
_cell_length_b 24.045807
_cell_length_c 8.535269
_cell_angle_alpha 90.000000
_cell_angle_beta 34.701253
_cell_angle_gamma 90.000000
_cell_volume 1092.761127
_symmetry_space_group_name_H-M "C 2/C"
_symmetry_group_IT_number 15
_symmetry_cell_setting 'monoclinic'
loop_
_space_group_symop_operation_xyz
x,y,z
-x,y,1/2-z
-x,-y,-z
x,-y,1/2+z
1/2+x,1/2+y,z
1/2-x,1/2+y,1/2-z
1/2-x,1/2-y,-z
1/2+x,1/2-y,1/2+z
loop_
_atom_site_type_symbol
_atom_site_label
_atom_site_fract_x
_atom_site_fract_y
_atom_site_fract_z
Si Si1 0.608531 0.716549 0.312432
Si Si2 0.500000 0.329824 0.250000
Si Si3 0.383071 0.918009 0.022416
Si Si4 0.731835 0.960753 0.921966
O O1 0.500000 0.685037 0.250000
O O2 0.390710 0.764025 0.519067
O O3 0.622740 0.699406 0.486588
O O4 0.693086 0.368735 0.173119
O O5 0.254715 0.978187 0.173274
O O6 0.500000 0.925855 0.750000
O O7 0.629758 0.911888 0.904740
O O8 0.000000 0.949736 0.750000
O O9 0.500000 0.963050 0.250000
#
# Coordination Sequence:
#
# PCOD9292013 Si02
#       4
#     8   4   8   8
#     4  10  24  48  75 103 143 186 226 288 377 453
#     4  12  24  42  72 112 142 184 242 310 348 428
#     4  10  24  39  64  97 140 180 245 298 347 413
#     4  10  22  43  65  88 135 198 240 287 352 412
#
# _framework density 25.623166999999999
#
# number of rings (size 3 to 8) (size 9 to 14) (size 15 to 20)
#    0.000    1.714    1.429    0.857    8.000    3.429 
#    5.143    0.000    0.000    0.000    0.000    0.000 
#    0.000    0.000    0.000    0.000    0.000    0.000 
#
# Total GULP energy -77955.594373 kJ/mol
# GULP energy per Si atom -5568.256741 kJ/mol
# Density = 2.556485 g / cm^3
# Si number density = 25.623167 Si / 1000 Ang^3
#
#
#
# Elastic Constant Matrix: (Units=GPa)
#
#
# Indices 1 2 3 4 5 6 
#
# 1 191.6218 24.2268 55.7595 0.0000 -26.6259 0.0000
# 2 24.2268 21.1202 16.1205 0.0000 -5.2874 0.0000
# 3 55.7595 16.1205 116.3273 0.0000 -6.7518 0.0000
# 4 0.0000 0.0000 0.0000 18.6201 0.0000 -9.6816
# 5 -26.6259 -5.2874 -6.7518 0.0000 65.8657 0.0000
# 6 0.0000 0.0000 0.0000 -9.6816 0.0000 11.8494
#
#
#
# Elastic Compliance Matrix: (Units=1/GPa)
#
#
# Indices 1 2 3 4 5 6 
#
# 1 0.006919 -0.005560 -0.002424 0.000000 0.002102 0.000000
# 2 -0.005560 0.058241 -0.005296 0.000000 0.001885 0.000000
# 3 -0.002424 -0.005296 0.010473 0.000000 -0.000331 0.000000
# 4 0.000000 0.000000 0.000000 0.093373 0.000000 0.076291
# 5 0.002102 0.001885 -0.000331 0.000000 0.016150 0.000000
# 6 0.000000 0.000000 0.000000 0.076291 0.000000 0.146726
#
#
# Mechanical properties :
#
#
# Convention : Reuss Voigt Hill
#
# Bulk Modulus (GPa) = 20.37844 57.92034 39.14939
# Shear Modulus (GPa) = 13.34045 34.79785 24.06915
#
# Velocity S-wave (km/s) = 2.28423 3.68919 3.06821
# Velocity P-wave (km/s) = 3.86359 6.38753 5.27863
#
# Compressibility (1/GPa) = 0.04907146
#
# Stress axis : x y z
#
# Youngs Moduli (GPa) = 144.52857 17.17016 95.48323
#
# Poissons Ratio (x) = 0.09547 0.23145
# Poissons Ratio (y) = 0.80363 0.50571
# Poissons Ratio (z) = 0.35033 0.09094
#
# Static dielectric constant tensor:
#      x y z
#    x 2.115750 0.000000 0.088050 
#    y 0.000000 2.280040 0.000000 
#    z 0.088050 0.000000 1.988670 
# 
# From -- ./inp_files/2045.got.cif
#   From: 2010.05.17/outbox.cif.g08.bks.cpg/sg15_2_cif.got.tgz:2045.got - 2010.06.03 18:47:42.
