data_PCOD9292222
_publ_section_title
;
Structure prediction by ZEFSAII (Michael W. Deem and Ramdas Pophale) SiO2 
 PCOD9292222
Probable space group: C 2/C
;
_chemical_formula_sum "Si O2"
_cell_formula_units_Z 28
_cell_length_a 11.093295
_cell_length_b 20.298931
_cell_length_c 4.947340
_cell_angle_alpha 90.000000
_cell_angle_beta 79.571746
_cell_angle_gamma 90.000000
_cell_volume 1095.650522
_symmetry_space_group_name_H-M "C 2/C"
_symmetry_group_IT_number 15
_symmetry_cell_setting 'monoclinic'
loop_
_space_group_symop_operation_xyz
x,y,z
-x,y,1/2-z
-x,-y,-z
x,-y,1/2+z
1/2+x,1/2+y,z
1/2-x,1/2+y,1/2-z
1/2-x,1/2-y,-z
1/2+x,1/2-y,1/2+z
loop_
_atom_site_type_symbol
_atom_site_label
_atom_site_fract_x
_atom_site_fract_y
_atom_site_fract_z
Si Si1 0.265468 0.210287 0.203397
Si Si2 0.355263 0.652766 0.792905
Si Si3 0.500000 0.865438 0.750000
Si Si4 0.832601 0.544974 0.700184
O O1 0.250000 0.250000 0.500000
O O2 0.300021 0.293892 0.077740
O O3 0.182624 0.152400 0.375150
O O4 0.401760 0.179974 0.135922
O O5 0.500000 0.662154 0.750000
O O6 0.295865 0.583572 0.732491
O O7 0.575070 0.903971 0.486538
O O8 0.848788 0.482441 0.495050
#
# Coordination Sequence:
#
# PCOD9292222 Si02
#       4
#     8   8   4   8
#     4  10  22  43  68 102 139 177 229 295 359 417
#     4  10  23  44  64 102 137 179 236 284 357 422
#     4  10  22  46  72 104 136 180 240 298 352 416
#     4  11  26  47  69 102 141 190 241 287 346 424
#
# _framework density 25.555593999999999
#
# number of rings (size 3 to 8) (size 9 to 14) (size 15 to 20)
#    0.000    1.714    1.429    0.857    8.000    2.286 
#   10.286    0.000    0.000    0.000    0.000    0.000 
#    0.000    0.000    0.000    0.000    0.000    0.000 
#
# Total GULP energy -78008.756329 kJ/mol
# GULP energy per Si atom -5572.054024 kJ/mol
# Density = 2.549743 g / cm^3
# Si number density = 25.555594 Si / 1000 Ang^3
#
#
#
# Elastic Constant Matrix: (Units=GPa)
#
#
# Indices 1 2 3 4 5 6 
#
# 1 219.1257 60.7756 63.1142 0.0000 4.3723 0.0000
# 2 60.7756 88.5219 21.2944 0.0000 5.2452 0.0000
# 3 63.1142 21.2944 129.4533 0.0000 25.3327 0.0000
# 4 0.0000 0.0000 0.0000 33.2218 0.0000 5.5725
# 5 4.3723 5.2452 25.3327 0.0000 30.8348 0.0000
# 6 0.0000 0.0000 0.0000 5.5725 0.0000 46.3528
#
#
#
# Elastic Compliance Matrix: (Units=1/GPa)
#
#
# Indices 1 2 3 4 5 6 
#
# 1 0.006426 -0.003836 -0.002921 0.000000 0.002141 0.000000
# 2 -0.003836 0.014058 -0.000096 0.000000 -0.001768 0.000000
# 3 -0.002921 -0.000096 0.010820 0.000000 -0.008459 0.000000
# 4 0.000000 0.000000 0.000000 0.030720 0.000000 -0.003693
# 5 0.002141 -0.001768 -0.008459 0.000000 0.039378 0.000000
# 6 0.000000 0.000000 0.000000 -0.003693 0.000000 0.022018
#
#
# Mechanical properties :
#
#
# Convention : Reuss Voigt Hill
#
# Bulk Modulus (GPa) = 56.82503 80.82991 68.82747
# Shear Modulus (GPa) = 34.96685 41.54298 38.25491
#
# Velocity S-wave (km/s) = 3.70302 4.03624 3.87321
# Velocity P-wave (km/s) = 6.36924 7.30885 6.85517
#
# Compressibility (1/GPa) = 0.01759788
#
# Stress axis : x y z
#
# Youngs Moduli (GPa) = 155.61350 71.13228 92.42120
#
# Poissons Ratio (x) = 0.27288 0.26996
# Poissons Ratio (y) = 0.59696 0.00889
# Poissons Ratio (z) = 0.45455 0.00684
#
# Static dielectric constant tensor:
#      x y z
#    x 3.206260 0.000000 0.037800 
#    y 0.000000 2.137780 0.000000 
#    z 0.037800 0.000000 1.779200 
# 
# From -- ./inp_files/3842.got.cif
#   From: 2010.05.17/outbox.cif.g08.bks.cpg/sg15_2_cif.got.tgz:3842.got - 2010.06.03 18:47:42.
