data_PCOD9292238
_publ_section_title
;
Structure prediction by ZEFSAII (Michael W. Deem and Ramdas Pophale) SiO2 
 PCOD9292238
Probable space group: C 2/C
;
_chemical_formula_sum "Si O2"
_cell_formula_units_Z 56
_cell_length_a 23.558783
_cell_length_b 16.690377
_cell_length_c 14.147694
_cell_angle_alpha 90.000000
_cell_angle_beta 30.553237
_cell_angle_gamma 90.000000
_cell_volume 2827.859714
_symmetry_space_group_name_H-M "C 2/C"
_symmetry_group_IT_number 15
_symmetry_cell_setting 'monoclinic'
loop_
_space_group_symop_operation_xyz
x,y,z
-x,y,1/2-z
-x,-y,-z
x,-y,1/2+z
1/2+x,1/2+y,z
1/2-x,1/2+y,1/2-z
1/2-x,1/2-y,-z
1/2+x,1/2-y,1/2+z
loop_
_atom_site_type_symbol
_atom_site_label
_atom_site_fract_x
_atom_site_fract_y
_atom_site_fract_z
Si Si1 0.410603 0.283698 0.518313
Si Si2 0.127775 0.391555 0.345799
Si Si3 0.844220 0.195176 0.906693
Si Si4 0.972890 0.486127 0.182527
Si Si5 0.602827 0.461447 0.909529
Si Si6 0.771019 0.028932 0.929020
Si Si7 0.377613 0.565012 0.439159
O O1 0.389939 0.200298 0.599726
O O2 0.535288 0.276940 0.299654
O O3 0.336759 0.299606 0.530529
O O4 0.398853 0.365646 0.594368
O O5 0.064825 0.417189 0.337897
O O6 0.068357 0.455464 0.502757
O O7 0.262946 0.398398 0.145691
O O8 0.829025 0.109076 0.880996
O O9 0.750000 0.250000 0.000000
O O10 0.858120 0.535971 0.359085
O O11 0.000000 0.457202 0.250000
O O12 0.708878 0.502051 0.706685
O O13 0.500000 0.500000 0.000000
O O14 0.597497 0.490298 0.025829
O O15 0.832983 0.961503 0.901529
O O16 0.500000 0.605712 0.250000
#
# Coordination Sequence:
#
# PCOD9292238 Si02
#       7
#     8   8   8   8   8   8   8
#     4  11  24  42  62  97 137 163 219 280 327 383
#     4  10  24  41  68  97 130 179 220 267 340 395
#     4  11  23  38  63  98 131 164 209 283 337 377
#     4  10  22  43  68  93 134 177 224 268 324 403
#     4  12  22  38  68  93 129 173 213 266 328 390
#     4  11  22  40  67  95 124 173 219 261 332 392
#     4  11  21  40  64  93 127 166 221 269 314 391
#
# _framework density 19.802962000000001
#
# number of rings (size 3 to 8) (size 9 to 14) (size 15 to 20)
#    0.000    1.143    4.286    1.714    6.000    0.000 
#    2.571    2.857    3.143    0.000    0.000    0.000 
#    0.000    0.000    0.000    0.000    0.000    0.000 
#
# Total GULP energy -156056.965304 kJ/mol
# GULP energy per Si atom -5573.463047 kJ/mol
# Density = 1.975789 g / cm^3
# Si number density = 19.802962 Si / 1000 Ang^3
#
#
#
# Elastic Constant Matrix: (Units=GPa)
#
#
# Indices 1 2 3 4 5 6 
#
# 1 111.5230 49.3280 41.1912 0.0000 5.2436 0.0000
# 2 49.3280 133.3179 48.8016 0.0000 6.2201 0.0000
# 3 41.1912 48.8016 128.2939 0.0000 -9.7812 0.0000
# 4 0.0000 0.0000 0.0000 24.9829 0.0000 2.7330
# 5 5.2436 6.2201 -9.7812 0.0000 38.7651 0.0000
# 6 0.0000 0.0000 0.0000 2.7330 0.0000 13.7550
#
#
#
# Elastic Compliance Matrix: (Units=1/GPa)
#
#
# Indices 1 2 3 4 5 6 
#
# 1 0.011413 -0.003202 -0.002574 0.000000 -0.001680 0.000000
# 2 -0.003202 0.009815 -0.002847 0.000000 -0.001860 0.000000
# 3 -0.002574 -0.002847 0.009957 0.000000 0.003317 0.000000
# 4 0.000000 0.000000 0.000000 0.040917 0.000000 -0.008130
# 5 -0.001680 -0.001860 0.003317 0.000000 0.027159 0.000000
# 6 0.000000 0.000000 0.000000 -0.008130 0.000000 0.074316
#
#
# Mechanical properties :
#
#
# Convention : Reuss Voigt Hill
#
# Bulk Modulus (GPa) = 71.74867 72.41959 72.08413
# Shear Modulus (GPa) = 25.57943 31.08819 28.33381
#
# Velocity S-wave (km/s) = 3.59792 3.96646 3.78668
# Velocity P-wave (km/s) = 7.31915 7.59122 7.45642
#
# Compressibility (1/GPa) = 0.01393754
#
# Stress axis : x y z
#
# Youngs Moduli (GPa) = 87.62022 101.88876 100.43115
#
# Poissons Ratio (x) = 0.32626 0.25854
# Poissons Ratio (y) = 0.28057 0.28594
# Poissons Ratio (z) = 0.22556 0.29009
#
# Static dielectric constant tensor:
#      x y z
#    x 1.730580 0.000000 0.025820 
#    y 0.000000 1.686270 0.000000 
#    z 0.025820 0.000000 1.773670 
# 
# From -- ./inp_files/173807.got.cif
#   From: 2010.05.17/outbox.cif.g08.bks.cpg/sg15_87_cif.got.tgz:173807.got - 2010.06.03 18:47:42.
