data_PCOD9292726
_publ_section_title
;
Structure prediction by ZEFSAII (Michael W. Deem and Ramdas Pophale) SiO2 
 PCOD9292726
Probable space group: C 2/C
;
_chemical_formula_sum "Si O2"
_cell_formula_units_Z 48
_cell_length_a 11.953398
_cell_length_b 26.697112
_cell_length_c 8.725341
_cell_angle_alpha 90.000000
_cell_angle_beta 129.826292
_cell_angle_gamma 90.000000
_cell_volume 2138.422288
_symmetry_space_group_name_H-M "C 2/C"
_symmetry_group_IT_number 15
_symmetry_cell_setting 'monoclinic'
loop_
_space_group_symop_operation_xyz
x,y,z
-x,y,1/2-z
-x,-y,-z
x,-y,1/2+z
1/2+x,1/2+y,z
1/2-x,1/2+y,1/2-z
1/2-x,1/2-y,-z
1/2+x,1/2-y,1/2+z
loop_
_atom_site_type_symbol
_atom_site_label
_atom_site_fract_x
_atom_site_fract_y
_atom_site_fract_z
Si Si1 0.088046 0.541362 0.675931
Si Si2 0.562291 0.729782 0.133692
Si Si3 0.193852 0.101132 0.817204
Si Si4 0.291863 0.713461 0.673284
Si Si5 0.074988 0.882146 0.652915
Si Si6 0.142900 0.028295 0.055799
O O1 0.154939 0.585334 0.630005
O O2 0.235192 0.513153 0.854741
O O3 0.000000 0.556655 0.750000
O O4 0.000000 0.500000 0.500000
O O5 0.500000 0.734616 0.250000
O O6 0.668608 0.775367 0.191464
O O7 0.634735 0.674116 0.192212
O O8 0.440353 0.726307 0.893400
O O9 0.208152 0.157370 0.891445
O O10 0.058585 0.108109 0.582126
O O11 0.151364 0.059068 0.903516
O O12 0.250000 0.750000 0.500000
O O13 0.000000 0.887053 0.750000
O O14 0.181811 0.927954 0.712147
O O15 0.000000 0.000000 0.000000
#
# Coordination Sequence:
#
# PCOD9292726 Si02
#       6
#     8   8   8   8   8   8
#     4  12  27  47  64  97 144 182 227 287 347 410
#     4  10  22  44  67 102 142 178 228 287 344 415
#     4  11  25  46  68 102 141 183 228 286 348 410
#     4  11  23  44  72 103 140 180 230 289 347 415
#     4  10  23  39  69 105 134 174 238 284 332 403
#     4  12  25  42  72  96 132 186 237 279 336 404
#
# _framework density 22.446456000000001
#
# number of rings (size 3 to 8) (size 9 to 14) (size 15 to 20)
#    0.000    1.000    3.333    2.500    4.667    3.333 
#    9.000    0.000    0.000    0.000    0.000    0.000 
#    0.000    0.000    0.000    0.000    0.000    0.000 
#
# Total GULP energy -134073.642257 kJ/mol
# GULP energy per Si atom -5586.401761 kJ/mol
# Density = 2.239537 g / cm^3
# Si number density = 22.446456 Si / 1000 Ang^3
#
#
#
# Elastic Constant Matrix: (Units=GPa)
#
#
# Indices 1 2 3 4 5 6 
#
# 1 128.8929 18.9369 13.9603 0.0000 -11.9946 0.0000
# 2 18.9369 85.8968 20.2354 0.0000 -3.6665 0.0000
# 3 13.9603 20.2354 52.1716 0.0000 -17.1862 0.0000
# 4 0.0000 0.0000 0.0000 27.2205 0.0000 -14.2117
# 5 -11.9946 -3.6665 -17.1862 0.0000 37.3995 0.0000
# 6 0.0000 0.0000 0.0000 -14.2117 0.0000 31.9830
#
#
#
# Elastic Compliance Matrix: (Units=1/GPa)
#
#
# Indices 1 2 3 4 5 6 
#
# 1 0.008276 -0.001513 -0.000945 0.000000 0.002072 0.000000
# 2 -0.001513 0.013136 -0.005215 0.000000 -0.001594 0.000000
# 3 -0.000945 -0.005215 0.024952 0.000000 0.010652 0.000000
# 4 0.000000 0.000000 0.000000 0.047834 0.000000 0.021255
# 5 0.002072 -0.001594 0.010652 0.000000 0.032141 0.000000
# 6 0.000000 0.000000 0.000000 0.021255 0.000000 0.040711
#
#
# Mechanical properties :
#
#
# Convention : Reuss Voigt Hill
#
# Bulk Modulus (GPa) = 32.24075 41.46962 36.85518
# Shear Modulus (GPa) = 25.94206 33.57585 29.75895
#
# Velocity S-wave (km/s) = 3.40329 3.87178 3.64507
# Velocity P-wave (km/s) = 5.46240 6.20504 5.84553
#
# Compressibility (1/GPa) = 0.03101665
#
# Stress axis : x y z
#
# Youngs Moduli (GPa) = 120.83323 76.12631 40.07688
#
# Poissons Ratio (x) = 0.11521 0.03788
# Poissons Ratio (y) = 0.18287 0.20901
# Poissons Ratio (z) = 0.11420 0.39701
#
# Static dielectric constant tensor:
#      x y z
#    x 1.930980 0.000000 0.035970 
#    y 0.000000 1.871440 0.000000 
#    z 0.035970 0.000000 1.939230 
# 
# From -- ./inp_files/33790.got.cif
#   From: 2010.05.17/outbox.cif.g08.bks.cpg/sg15_17_cif.got.tgz:33790.got - 2010.06.03 18:47:42.
