data_PCOD9292541
_publ_section_title
;
Structure prediction by ZEFSAII (Michael W. Deem and Ramdas Pophale) SiO2 
 PCOD9292541
Probable space group: C 2/C
;
_chemical_formula_sum "Si O2"
_cell_formula_units_Z 52
_cell_length_a 25.512549
_cell_length_b 8.974435
_cell_length_c 14.427334
_cell_angle_alpha 90.000000
_cell_angle_beta 125.042762
_cell_angle_gamma 90.000000
_cell_volume 2704.484115
_symmetry_space_group_name_H-M "C 2/C"
_symmetry_group_IT_number 15
_symmetry_cell_setting 'monoclinic'
loop_
_space_group_symop_operation_xyz
x,y,z
-x,y,1/2-z
-x,-y,-z
x,-y,1/2+z
1/2+x,1/2+y,z
1/2-x,1/2+y,1/2-z
1/2-x,1/2-y,-z
1/2+x,1/2-y,1/2+z
loop_
_atom_site_type_symbol
_atom_site_label
_atom_site_fract_x
_atom_site_fract_y
_atom_site_fract_z
Si Si1 0.000000 0.771774 0.750000
Si Si2 0.758009 0.491252 0.456050
Si Si3 0.335511 0.651400 0.276023
Si Si4 0.530715 0.498546 0.631097
Si Si5 0.675645 0.678823 0.017343
Si Si6 0.063973 0.708353 0.273416
Si Si7 0.375385 0.091600 0.691799
O O1 0.991031 0.885156 0.655155
O O2 0.063086 0.676184 0.789359
O O3 0.723824 0.582718 0.340364
O O4 0.709363 0.449428 0.490356
O O5 0.782108 0.329889 0.445327
O O6 0.818296 0.578617 0.559563
O O7 0.397439 0.561492 0.304896
O O8 0.330834 0.639761 0.381655
O O9 0.349490 0.818486 0.253900
O O10 0.500000 0.500000 0.500000
O O11 0.538028 0.660711 0.682600
O O12 0.609188 0.720847 0.898698
O O13 0.104015 0.577894 0.265330
O O14 0.000000 0.636727 0.250000
#
# Coordination Sequence:
#
# PCOD9292541 Si02
#       7
#     4   8   8   8   8   8   8
#     4  10  22  44  60  94 132 156 218 268 306 390
#     4  10  22  44  64  91 131 171 208 269 327 385
#     4  11  23  40  64  96 126 163 220 266 314 387
#     4  11  23  40  64  94 123 171 215 258 318 385
#     4  10  23  41  64  95 128 167 218 265 320 392
#     4  11  20  42  66  87 131 174 206 265 329 376
#     4  10  23  41  65  96 129 167 213 265 330 377
#
# _framework density 19.227326000000001
#
# number of rings (size 3 to 8) (size 9 to 14) (size 15 to 20)
#    0.000    1.538    3.077    1.385    2.154    0.000 
#    8.308    2.308    0.000    0.000    0.000    0.000 
#    0.000    0.000    0.000    0.000    0.000    0.000 
#
# Total GULP energy -145163.888961 kJ/mol
# GULP energy per Si atom -5583.226498 kJ/mol
# Density = 1.918356 g / cm^3
# Si number density = 19.227326 Si / 1000 Ang^3
#
#
#
# Elastic Constant Matrix: (Units=GPa)
#
#
# Indices 1 2 3 4 5 6 
#
# 1 61.7585 20.3230 32.2074 0.0000 -1.9239 0.0000
# 2 20.3230 85.2688 53.5100 0.0000 -1.2048 0.0000
# 3 32.2074 53.5100 105.2959 0.0000 -3.7948 0.0000
# 4 0.0000 0.0000 0.0000 20.7088 0.0000 0.8010
# 5 -1.9239 -1.2048 -3.7948 0.0000 38.6663 0.0000
# 6 0.0000 0.0000 0.0000 0.8010 0.0000 17.4605
#
#
#
# Elastic Compliance Matrix: (Units=1/GPa)
#
#
# Indices 1 2 3 4 5 6 
#
# 1 0.019372 -0.001325 -0.005238 0.000000 0.000409 0.000000
# 2 -0.001325 0.017313 -0.008406 0.000000 -0.000351 0.000000
# 3 -0.005238 -0.008406 0.015407 0.000000 0.000990 0.000000
# 4 0.000000 0.000000 0.000000 0.048375 0.000000 -0.002219
# 5 0.000409 -0.000351 0.000990 0.000000 0.025969 0.000000
# 6 0.000000 0.000000 0.000000 -0.002219 0.000000 0.057374
#
#
# Mechanical properties :
#
#
# Convention : Reuss Voigt Hill
#
# Bulk Modulus (GPa) = 45.13474 51.60045 48.36759
# Shear Modulus (GPa) = 22.61101 25.11930 23.86516
#
# Velocity S-wave (km/s) = 3.43298 3.61839 3.52690
# Velocity P-wave (km/s) = 6.26411 6.65975 6.46496
#
# Compressibility (1/GPa) = 0.02215588
#
# Stress axis : x y z
#
# Youngs Moduli (GPa) = 51.62054 57.75843 64.90732
#
# Poissons Ratio (x) = 0.07650 0.33996
# Poissons Ratio (y) = 0.06837 0.54561
# Poissons Ratio (z) = 0.27037 0.48552
#
# Static dielectric constant tensor:
#      x y z
#    x 1.694250 0.000000 0.019180 
#    y 0.000000 1.690890 0.000000 
#    z 0.019180 0.000000 1.633630 
# 
# From -- ./inp_files/122059.got.cif
#   From: 2010.05.17/outbox.cif.g08.bks.cpg/sg15_62_cif.got.tgz:122059.got - 2010.06.03 18:47:42.
