data_PCOD9292265
_publ_section_title
;
Structure prediction by ZEFSAII (Michael W. Deem and Ramdas Pophale) SiO2 
 PCOD9292265
Probable space group: C 2/C
;
_chemical_formula_sum "Si O2"
_cell_formula_units_Z 32
_cell_length_a 14.838254
_cell_length_b 5.121655
_cell_length_c 18.199692
_cell_angle_alpha 90.000000
_cell_angle_beta 69.138952
_cell_angle_gamma 90.000000
_cell_volume 1292.443996
_symmetry_space_group_name_H-M "C 2/C"
_symmetry_group_IT_number 15
_symmetry_cell_setting 'monoclinic'
loop_
_space_group_symop_operation_xyz
x,y,z
-x,y,1/2-z
-x,-y,-z
x,-y,1/2+z
1/2+x,1/2+y,z
1/2-x,1/2+y,1/2-z
1/2-x,1/2-y,-z
1/2+x,1/2-y,1/2+z
loop_
_atom_site_type_symbol
_atom_site_label
_atom_site_fract_x
_atom_site_fract_y
_atom_site_fract_z
Si Si1 0.861231 0.880831 0.573079
Si Si2 0.857801 0.361348 0.479486
Si Si3 0.294857 0.060584 0.274973
Si Si4 0.520265 0.785719 0.319714
O O1 0.867021 0.640497 0.515424
O O2 0.749334 0.881926 0.632438
O O3 0.919735 0.840590 0.631334
O O4 0.896459 0.145900 0.525868
O O5 0.750000 0.250000 0.500000
O O6 0.920903 0.356581 0.387832
O O7 0.257039 0.291071 0.233855
O O8 0.407771 0.014281 0.229455
O O9 0.500000 0.630877 0.250000
#
# Coordination Sequence:
#
# PCOD9292265 Si02
#       4
#     8   8   8   8
#     4  11  24  48  72  99 139 185 229 284 344 410
#     4  12  26  47  72 103 138 184 232 284 344 411
#     4  10  22  43  68  98 134 178 226 282 339 399
#     4  11  25  44  71 106 141 181 231 284 344 412
#
# _framework density 24.759291999999999
#
# number of rings (size 3 to 8) (size 9 to 14) (size 15 to 20)
#    0.000    1.000    0.000    6.750    0.000    8.000 
#    0.000   15.000    0.000    0.000    0.000    0.000 
#    0.000    0.000    0.000    0.000    0.000    0.000 
#
# Total GULP energy -89532.708343 kJ/mol
# GULP energy per Si atom -5595.794271 kJ/mol
# Density = 2.470294 g / cm^3
# Si number density = 24.759292 Si / 1000 Ang^3
#
#
#
# Elastic Constant Matrix: (Units=GPa)
#
#
# Indices 1 2 3 4 5 6 
#
# 1 140.9274 10.2899 51.5264 0.0005 -21.6214 0.0004
# 2 10.2899 64.9947 25.5914 0.0000 -12.8601 -0.0011
# 3 51.5264 25.5914 215.5533 0.0001 -35.9176 0.0001
# 4 0.0005 0.0000 0.0001 8.5577 0.0002 4.3711
# 5 -21.6214 -12.8601 -35.9176 0.0002 55.4315 0.0001
# 6 0.0004 -0.0011 0.0001 4.3711 0.0001 19.2224
#
#
#
# Elastic Compliance Matrix: (Units=1/GPa)
#
#
# Indices 1 2 3 4 5 6 
#
# 1 0.007993 -0.000252 -0.001537 0.000000 0.002063 0.000000
# 2 -0.000252 0.016547 -0.001436 -0.000001 0.002810 0.000001
# 3 -0.001537 -0.001436 0.005630 0.000000 0.002715 0.000000
# 4 0.000000 -0.000001 0.000000 0.132209 -0.000001 -0.030064
# 5 0.002063 0.002810 0.002715 -0.000001 0.021256 0.000000
# 6 0.000000 0.000001 0.000000 -0.030064 0.000000 0.058859
#
#
# Mechanical properties :
#
#
# Convention : Reuss Voigt Hill
#
# Bulk Modulus (GPa) = 42.15925 66.25453 54.20689
# Shear Modulus (GPa) = 19.46658 38.91349 29.19004
#
# Velocity S-wave (km/s) = 2.80703 3.96873 3.43731
# Velocity P-wave (km/s) = 5.25076 6.91511 6.13959
#
# Compressibility (1/GPa) = 0.02371959
#
# Stress axis : x y z
#
# Youngs Moduli (GPa) = 125.11375 60.43300 177.63535
#
# Poissons Ratio (x) = 0.01523 0.27300
# Poissons Ratio (y) = 0.03153 0.25510
# Poissons Ratio (z) = 0.19228 0.08679
#
# Static dielectric constant tensor:
#      x y z
#    x 2.123650 0.000000 0.020020 
#    y 0.000000 1.933640 0.000000 
#    z 0.020020 0.000000 1.962990 
# 
# From -- ./inp_files/207698.got.cif
#   From: 2010.05.17/outbox.cif.g08.bks.cpg/sg15_104_cif.got.tgz:207698.got - 2010.06.03 18:47:42.
