data_PCOD9292364
_publ_section_title
;
Structure prediction by ZEFSAII (Michael W. Deem and Ramdas Pophale) SiO2 
 PCOD9292364
Probable space group: C 2/C
;
_chemical_formula_sum "Si O2"
_cell_formula_units_Z 48
_cell_length_a 20.278635
_cell_length_b 5.104896
_cell_length_c 24.333656
_cell_angle_alpha 90.000000
_cell_angle_beta 131.277943
_cell_angle_gamma 90.000000
_cell_volume 1893.095221
_symmetry_space_group_name_H-M "C 2/C"
_symmetry_group_IT_number 15
_symmetry_cell_setting 'monoclinic'
loop_
_space_group_symop_operation_xyz
x,y,z
-x,y,1/2-z
-x,-y,-z
x,-y,1/2+z
1/2+x,1/2+y,z
1/2-x,1/2+y,1/2-z
1/2-x,1/2-y,-z
1/2+x,1/2-y,1/2+z
loop_
_atom_site_type_symbol
_atom_site_label
_atom_site_fract_x
_atom_site_fract_y
_atom_site_fract_z
Si Si1 0.322415 0.539397 0.970475
Si Si2 0.414255 0.594213 0.817595
Si Si3 0.581327 0.185593 0.059200
Si Si4 0.503920 0.909023 0.317836
Si Si5 0.328273 0.416811 0.586911
Si Si6 0.264415 0.638325 0.655944
O O1 0.409533 0.620616 0.987625
O O2 0.268055 0.795372 0.958027
O O3 0.266161 0.396361 0.893153
O O4 0.334071 0.402959 0.035796
O O5 0.422021 0.656610 0.886025
O O6 0.440729 0.301460 0.813722
O O7 0.316493 0.657068 0.741199
O O8 0.478295 0.802890 0.823255
O O9 0.673985 0.024309 0.112756
O O10 0.500000 0.000000 0.000000
O O11 0.500000 0.896009 0.250000
O O12 0.600994 0.807833 0.384381
O O13 0.338356 0.537052 0.652870
#
# Coordination Sequence:
#
# PCOD9292364 Si02
#       6
#     8   8   8   8   8   8
#     4  10  23  43  73  97 150 184 252 301 379 446
#     4  12  29  45  77 108 153 196 249 311 377 453
#     4  11  28  48  71 109 148 207 259 313 383 458
#     4  12  25  46  74 108 149 189 249 310 377 448
#     4  10  22  43  70 109 137 194 240 311 372 448
#     4  11  25  44  72 104 145 195 252 312 378 452
#
# _framework density 25.3553
#
# number of rings (size 3 to 8) (size 9 to 14) (size 15 to 20)
#    0.000    1.000    1.667    3.000   11.667    0.667 
#    0.000    0.000    0.000    0.000    0.000    0.000 
#    0.000    0.000    0.000    0.000    0.000    0.000 
#
# Total GULP energy -134260.336788 kJ/mol
# GULP energy per Si atom -5594.180699 kJ/mol
# Density = 2.529759 g / cm^3
# Si number density = 25.355300 Si / 1000 Ang^3
#
#
#
# Elastic Constant Matrix: (Units=GPa)
#
#
# Indices 1 2 3 4 5 6 
#
# 1 118.6322 12.9100 60.6737 -0.0010 -18.7529 0.0040
# 2 12.9100 50.9168 9.2350 -0.0020 -2.5181 0.0079
# 3 60.6737 9.2350 145.8109 -0.0007 1.1507 0.0023
# 4 -0.0010 -0.0020 -0.0007 33.6432 -0.0002 8.6421
# 5 -18.7529 -2.5181 1.1507 -0.0002 54.2680 -0.0002
# 6 0.0040 0.0079 0.0023 8.6421 -0.0002 25.2341
#
#
#
# Elastic Compliance Matrix: (Units=1/GPa)
#
#
# Indices 1 2 3 4 5 6 
#
# 1 0.011731 -0.001904 -0.004793 0.000000 0.004067 -0.000001
# 2 -0.001904 0.020226 -0.000491 0.000003 0.000291 -0.000007
# 3 -0.004793 -0.000491 0.008898 0.000000 -0.001868 0.000000
# 4 0.000000 0.000003 0.000000 0.032591 0.000000 -0.011162
# 5 0.004067 0.000291 -0.001868 0.000000 0.019886 -0.000001
# 6 -0.000001 -0.000007 0.000000 -0.011162 -0.000001 0.043452
#
#
# Mechanical properties :
#
#
# Convention : Reuss Voigt Hill
#
# Bulk Modulus (GPa) = 37.76493 53.44414 45.60453
# Shear Modulus (GPa) = 31.25287 38.13182 34.69234
#
# Velocity S-wave (km/s) = 3.51465 3.88222 3.70300
# Velocity P-wave (km/s) = 5.60330 6.42023 6.02562
#
# Compressibility (1/GPa) = 0.02647960
#
# Stress axis : x y z
#
# Youngs Moduli (GPa) = 85.24599 49.44113 112.37990
#
# Poissons Ratio (x) = 0.09413 0.53862
# Poissons Ratio (y) = 0.16230 0.05519
# Poissons Ratio (z) = 0.40857 0.02428
#
# Static dielectric constant tensor:
#      x y z
#    x 2.012450 0.000000 -0.072390 
#    y 0.000000 2.067740 0.000010 
#    z -0.072390 0.000010 2.115100 
# 
# From -- ./inp_files/299997.got.cif
#   From: 2010.05.17/outbox.cif.g08.bks.cpg/sg15_150_cif.got.tgz:299997.got - 2010.06.03 18:47:42.
