data_PCOD9292048
_publ_section_title
;
Structure prediction by ZEFSAII (Michael W. Deem and Ramdas Pophale) SiO2 
 PCOD9292048
Probable space group: C 2/C
;
_chemical_formula_sum "Si O2"
_cell_formula_units_Z 40
_cell_length_a 21.261559
_cell_length_b 10.281918
_cell_length_c 8.734276
_cell_angle_alpha 90.000000
_cell_angle_beta 111.048982
_cell_angle_gamma 90.000000
_cell_volume 1781.989698
_symmetry_space_group_name_H-M "C 2/C"
_symmetry_group_IT_number 15
_symmetry_cell_setting 'monoclinic'
loop_
_space_group_symop_operation_xyz
x,y,z
-x,y,1/2-z
-x,-y,-z
x,-y,1/2+z
1/2+x,1/2+y,z
1/2-x,1/2+y,1/2-z
1/2-x,1/2-y,-z
1/2+x,1/2-y,1/2+z
loop_
_atom_site_type_symbol
_atom_site_label
_atom_site_fract_x
_atom_site_fract_y
_atom_site_fract_z
Si Si1 0.067843 0.086166 0.563653
Si Si2 0.063207 0.634275 0.207561
Si Si3 0.639729 0.012009 0.518067
Si Si4 0.155450 0.898482 0.848296
Si Si5 0.712030 0.137617 0.833842
O O1 0.053114 0.222844 0.633562
O O2 0.093582 0.116890 0.414494
O O3 0.126168 0.010279 0.711262
O O4 0.000000 0.000000 0.500000
O O5 0.120698 0.628850 0.388347
O O6 0.084192 0.537720 0.089457
O O7 0.000000 0.586707 0.250000
O O8 0.702321 0.050069 0.677518
O O9 0.658439 0.897854 0.419611
O O10 0.186008 0.781786 0.770079
O O11 0.217952 0.896833 0.024616
#
# Coordination Sequence:
#
# PCOD9292048 Si02
#       5
#     8   8   8   8   8
#     4  12  26  45  66  98 137 178 227 273 337 407
#     4  11  23  42  65  96 128 176 218 274 329 400
#     4  10  22  43  65  96 128 165 225 268 338 394
#     4  11  24  43  66  96 132 176 219 272 339 392
#     4  10  22  43  68  96 131 169 221 280 329 398
#
# _framework density 22.446819000000001
#
# number of rings (size 3 to 8) (size 9 to 14) (size 15 to 20)
#    0.000    1.200    2.000    3.600    5.600    0.000 
#    0.000    3.000    0.000    0.000    0.000    0.000 
#    0.000    0.000    0.000    0.000    0.000    0.000 
#
# Total GULP energy -111401.802518 kJ/mol
# GULP energy per Si atom -5570.090126 kJ/mol
# Density = 2.239573 g / cm^3
# Si number density = 22.446819 Si / 1000 Ang^3
#
#
#
# Elastic Constant Matrix: (Units=GPa)
#
#
# Indices 1 2 3 4 5 6 
#
# 1 74.9606 1.2962 6.4362 0.0000 -6.4182 0.0000
# 2 1.2962 62.8603 32.6198 0.0000 2.5761 0.0000
# 3 6.4362 32.6198 76.8077 0.0000 -2.5547 0.0000
# 4 0.0000 0.0000 0.0000 31.9084 0.0000 4.1418
# 5 -6.4182 2.5761 -2.5547 0.0000 32.4224 0.0000
# 6 0.0000 0.0000 0.0000 4.1418 0.0000 18.9327
#
#
#
# Elastic Compliance Matrix: (Units=1/GPa)
#
#
# Indices 1 2 3 4 5 6 
#
# 1 0.013657 0.000207 -0.001146 0.000000 0.002597 0.000000
# 2 0.000207 0.020582 -0.008835 0.000000 -0.002291 0.000000
# 3 -0.001146 -0.008835 0.016928 0.000000 0.001809 0.000000
# 4 0.000000 0.000000 0.000000 0.032256 0.000000 -0.007056
# 5 0.002597 -0.002291 0.001809 0.000000 0.031682 0.000000
# 6 0.000000 0.000000 0.000000 -0.007056 0.000000 0.054362
#
#
# Mechanical properties :
#
#
# Convention : Reuss Voigt Hill
#
# Bulk Modulus (GPa) = 31.62581 32.81477 32.22029
# Shear Modulus (GPa) = 25.05571 28.27111 26.66341
#
# Velocity S-wave (km/s) = 3.34462 3.55275 3.45026
# Velocity P-wave (km/s) = 5.38842 5.61071 5.50069
#
# Compressibility (1/GPa) = 0.03161974
#
# Stress axis : x y z
#
# Youngs Moduli (GPa) = 73.21988 48.58502 59.07450
#
# Poissons Ratio (x) = -0.01003 0.06769
# Poissons Ratio (y) = -0.01512 0.52191
# Poissons Ratio (z) = 0.08389 0.42924
#
# Static dielectric constant tensor:
#      x y z
#    x 1.888490 0.000000 0.057340 
#    y 0.000000 1.865090 0.000000 
#    z 0.057340 0.000000 1.829370 
# 
# From -- ./inp_files/54246.got.cif
#   From: 2010.05.17/outbox.cif.g08.bks.cpg/sg15_28_cif.got.tgz:54246.got - 2010.06.03 18:47:42.
