data_PCOD9292422
_publ_section_title
;
Structure prediction by ZEFSAII (Michael W. Deem and Ramdas Pophale) SiO2 
 PCOD9292422
Probable space group: C 2/C
;
_chemical_formula_sum "Si O2"
_cell_formula_units_Z 48
_cell_length_a 16.772598
_cell_length_b 8.758426
_cell_length_c 18.442101
_cell_angle_alpha 90.000000
_cell_angle_beta 38.059697
_cell_angle_gamma 90.000000
_cell_volume 1670.157101
_symmetry_space_group_name_H-M "C 2/C"
_symmetry_group_IT_number 15
_symmetry_cell_setting 'monoclinic'
loop_
_space_group_symop_operation_xyz
x,y,z
-x,y,1/2-z
-x,-y,-z
x,-y,1/2+z
1/2+x,1/2+y,z
1/2-x,1/2+y,1/2-z
1/2-x,1/2-y,-z
1/2+x,1/2-y,1/2+z
loop_
_atom_site_type_symbol
_atom_site_label
_atom_site_fract_x
_atom_site_fract_y
_atom_site_fract_z
Si Si1 0.350588 0.808282 0.784376
Si Si2 0.139623 0.927626 0.641310
Si Si3 0.899360 0.330374 0.969340
Si Si4 0.785940 0.186951 0.272984
Si Si5 0.472846 0.326369 0.991466
Si Si6 0.343761 0.067574 0.896626
O O1 0.493406 0.749244 0.659744
O O2 0.276652 0.837196 0.761377
O O3 0.378699 0.966492 0.804229
O O4 0.248347 0.728465 0.913157
O O5 0.207859 0.946247 0.671440
O O6 0.194899 0.966559 0.523150
O O7 0.134407 0.742449 0.635846
O O8 0.000000 0.991319 0.750000
O O9 0.895282 0.498459 0.936183
O O10 0.965173 0.300957 0.999138
O O11 0.681477 0.301019 0.386280
O O12 0.939151 0.204770 0.143241
O O13 0.500000 0.500000 0.000000
#
# Coordination Sequence:
#
# PCOD9292422 Si02
#       6
#     8   8   8   8   8   8
#     4  10  22  44  70 106 145 190 245 317 375 459
#     4  11  27  45  70 104 149 207 260 312 386 452
#     4  10  22  43  71 108 145 193 243 306 391 444
#     4  10  25  44  73 111 147 200 258 307 393 457
#     4  10  24  47  75 112 159 200 254 324 387 466
#     4  11  25  45  70 102 150 198 253 313 376 461
#
# _framework density 28.739812000000001
#
# number of rings (size 3 to 8) (size 9 to 14) (size 15 to 20)
#    0.000    1.667    0.000    2.000    9.333    5.333 
#    0.000    2.500    0.000    0.000    0.000    0.000 
#    0.000    0.000    0.000    0.000    0.000    0.000 
#
# Total GULP energy -133859.400037 kJ/mol
# GULP energy per Si atom -5577.475002 kJ/mol
# Density = 2.867440 g / cm^3
# Si number density = 28.739812 Si / 1000 Ang^3
#
#
#
# Elastic Constant Matrix: (Units=GPa)
#
#
# Indices 1 2 3 4 5 6 
#
# 1 89.9067 24.2558 22.9541 0.0000 12.3240 0.0000
# 2 24.2558 87.1589 18.1212 0.0000 12.2885 0.0000
# 3 22.9541 18.1212 322.0573 0.0000 -0.7663 0.0000
# 4 0.0000 0.0000 0.0000 37.0741 0.0000 19.4188
# 5 12.3240 12.2885 -0.7663 0.0000 58.6211 0.0000
# 6 0.0000 0.0000 0.0000 19.4188 0.0000 23.5356
#
#
#
# Elastic Compliance Matrix: (Units=1/GPa)
#
#
# Indices 1 2 3 4 5 6 
#
# 1 0.012392 -0.003020 -0.000718 0.000000 -0.001982 0.000000
# 2 -0.003020 0.012706 -0.000505 0.000000 -0.002035 0.000000
# 3 -0.000718 -0.000505 0.003185 0.000000 0.000298 0.000000
# 4 0.000000 0.000000 0.000000 0.047501 0.000000 -0.039192
# 5 -0.001982 -0.002035 0.000298 0.000000 0.017906 0.000000
# 6 0.000000 0.000000 0.000000 -0.039192 0.000000 0.074826
#
#
# Mechanical properties :
#
#
# Convention : Reuss Voigt Hill
#
# Bulk Modulus (GPa) = 50.50991 69.97611 60.24301
# Shear Modulus (GPa) = 27.23307 52.76562 39.99935
#
# Velocity S-wave (km/s) = 3.08161 4.28948 3.73470
# Velocity P-wave (km/s) = 5.50225 6.99527 6.29320
#
# Compressibility (1/GPa) = 0.01979810
#
# Stress axis : x y z
#
# Youngs Moduli (GPa) = 80.69484 78.70557 313.94108
#
# Poissons Ratio (x) = 0.23769 0.22542
# Poissons Ratio (y) = 0.24370 0.15838
# Poissons Ratio (z) = 0.05794 0.03971
#
# Static dielectric constant tensor:
#      x y z
#    x 2.369370 0.000000 -0.230070 
#    y 0.000000 2.276250 0.000000 
#    z -0.230070 0.000000 2.385280 
# 
# From -- ./inp_files/252502.got.cif
#   From: 2010.05.17/outbox.cif.g08.bks.cpg/sg15_127_cif.got.tgz:252502.got - 2010.06.03 18:47:42.
