data_PCOD9292848
_publ_section_title
;
Structure prediction by ZEFSAII (Michael W. Deem and Ramdas Pophale) SiO2 
 PCOD9292848
Probable space group: C 2/C
;
_chemical_formula_sum "Si O2"
_cell_formula_units_Z 40
_cell_length_a 11.464276
_cell_length_b 13.442148
_cell_length_c 11.568068
_cell_angle_alpha 90.000000
_cell_angle_beta 71.410347
_cell_angle_gamma 90.000000
_cell_volume 1689.681131
_symmetry_space_group_name_H-M "C 2/C"
_symmetry_group_IT_number 15
_symmetry_cell_setting 'monoclinic'
loop_
_space_group_symop_operation_xyz
x,y,z
-x,y,1/2-z
-x,-y,-z
x,-y,1/2+z
1/2+x,1/2+y,z
1/2-x,1/2+y,1/2-z
1/2-x,1/2-y,-z
1/2+x,1/2-y,1/2+z
loop_
_atom_site_type_symbol
_atom_site_label
_atom_site_fract_x
_atom_site_fract_y
_atom_site_fract_z
Si Si1 0.418796 0.334976 0.533668
Si Si2 0.300087 0.551296 0.257383
Si Si3 0.880972 0.518588 0.352013
Si Si4 0.705481 0.136567 0.914183
Si Si5 0.811974 0.145101 0.500067
O O1 0.398870 0.427594 0.627002
O O2 0.366308 0.233301 0.608199
O O3 0.327858 0.342150 0.452803
O O4 0.563601 0.336152 0.467280
O O5 0.179560 0.590763 0.226338
O O6 0.256118 0.441483 0.306236
O O7 0.338399 0.603098 0.363065
O O8 0.889658 0.581603 0.467260
O O9 0.785160 0.432565 0.416546
O O10 0.000000 0.478259 0.250000
O O11 0.750000 0.250000 0.500000
#
# Coordination Sequence:
#
# PCOD9292848 Si02
#       5
#     8   8   8   8   8
#     4  10  22  44  68  98 139 175 228 273 345 405
#     4  10  23  41  69  97 131 178 220 279 342 388
#     4  10  24  42  66  95 137 185 226 271 343 401
#     4   9  22  43  70  99 134 179 225 283 329 416
#     4  11  26  39  64 104 135 173 226 282 331 399
#
# _framework density 23.673107999999999
#
# number of rings (size 3 to 8) (size 9 to 14) (size 15 to 20)
#    0.000    2.000    0.000    0.600    8.400   10.400 
#    0.000    0.000    0.000    0.000    0.000    0.000 
#    0.000    0.000    0.000    0.000    0.000    0.000 
#
# Total GULP energy -111572.389289 kJ/mol
# GULP energy per Si atom -5578.619464 kJ/mol
# Density = 2.361923 g / cm^3
# Si number density = 23.673108 Si / 1000 Ang^3
#
#
#
# Elastic Constant Matrix: (Units=GPa)
#
#
# Indices 1 2 3 4 5 6 
#
# 1 93.2774 23.5953 42.4872 0.0000 -29.9566 0.0000
# 2 23.5953 104.6017 18.3663 0.0000 -15.3480 0.0000
# 3 42.4872 18.3663 60.9211 0.0000 -2.2131 0.0000
# 4 0.0000 0.0000 0.0000 13.9111 0.0000 6.4248
# 5 -29.9566 -15.3480 -2.2131 0.0000 36.0033 0.0000
# 6 0.0000 0.0000 0.0000 6.4248 0.0000 25.6367
#
#
#
# Elastic Compliance Matrix: (Units=1/GPa)
#
#
# Indices 1 2 3 4 5 6 
#
# 1 0.024292 0.000215 -0.016305 0.000000 0.019302 0.000000
# 2 0.000215 0.010747 -0.003224 0.000000 0.004562 0.000000
# 3 -0.016305 -0.003224 0.028279 0.000000 -0.013203 0.000000
# 4 0.000000 0.000000 0.000000 0.081295 0.000000 -0.020373
# 5 0.019302 0.004562 -0.013203 0.000000 0.044969 0.000000
# 6 0.000000 0.000000 0.000000 -0.020373 0.000000 0.044112
#
#
# Mechanical properties :
#
#
# Convention : Reuss Voigt Hill
#
# Bulk Modulus (GPa) = 40.50386 47.52197 44.01292
# Shear Modulus (GPa) = 17.82202 26.73365 22.27784
#
# Velocity S-wave (km/s) = 2.74677 3.36413 3.07100
# Velocity P-wave (km/s) = 5.21598 5.93360 5.58633
#
# Compressibility (1/GPa) = 0.02468900
#
# Stress axis : x y z
#
# Youngs Moduli (GPa) = 41.16568 93.04852 35.36224
#
# Poissons Ratio (x) = -0.02004 0.57659
# Poissons Ratio (y) = -0.00887 0.11402
# Poissons Ratio (z) = 0.67122 0.30003
#
# Static dielectric constant tensor:
#      x y z
#    x 1.986450 0.000000 0.016360 
#    y 0.000000 1.974400 0.000000 
#    z 0.016360 0.000000 1.980220 
# 
# From -- ./inp_files/85990.got.cif
#   From: 2010.05.17/outbox.cif.g08.bks.cpg/sg15_43_cif.got.tgz:85990.got - 2010.06.03 18:47:42.
