data_PCOD9292920
_publ_section_title
;
Structure prediction by ZEFSAII (Michael W. Deem and Ramdas Pophale) SiO2 
 PCOD9292920
Probable space group: C 2/C
;
_chemical_formula_sum "Si O2"
_cell_formula_units_Z 64
_cell_length_a 8.933795
_cell_length_b 32.234867
_cell_length_c 16.813386
_cell_angle_alpha 90.000000
_cell_angle_beta 139.259611
_cell_angle_gamma 90.000000
_cell_volume 3159.991082
_symmetry_space_group_name_H-M "C 2/C"
_symmetry_group_IT_number 15
_symmetry_cell_setting 'monoclinic'
loop_
_space_group_symop_operation_xyz
x,y,z
-x,y,1/2-z
-x,-y,-z
x,-y,1/2+z
1/2+x,1/2+y,z
1/2-x,1/2+y,1/2-z
1/2-x,1/2-y,-z
1/2+x,1/2-y,1/2+z
loop_
_atom_site_type_symbol
_atom_site_label
_atom_site_fract_x
_atom_site_fract_y
_atom_site_fract_z
Si Si1 0.134315 0.312458 0.176628
Si Si2 0.626667 0.528419 0.634180
Si Si3 0.360782 0.036080 0.989016
Si Si4 0.674332 0.061485 0.255737
Si Si5 0.640830 0.091965 0.651412
Si Si6 0.764605 0.256367 0.604365
Si Si7 0.624526 0.408578 0.992518
Si Si8 0.849235 0.183115 0.933840
O O1 0.194746 0.360134 0.182967
O O2 0.185917 0.284938 0.120428
O O3 0.276432 0.303771 0.314917
O O4 0.868753 0.307830 0.096758
O O5 0.369895 0.520411 0.562315
O O6 0.762695 0.485586 0.693049
O O7 0.759181 0.562107 0.740976
O O8 0.612493 0.551679 0.545045
O O9 0.276961 0.071643 0.896189
O O10 0.537283 0.056772 0.120062
O O11 0.500000 0.000000 0.000000
O O12 0.500000 0.079671 0.250000
O O13 0.906104 0.087683 0.347635
O O14 0.364878 0.089665 0.544550
O O15 0.750000 0.250000 0.500000
O O16 0.577424 0.291994 0.546441
O O17 0.000000 0.266556 0.750000
O O18 0.616822 0.366479 0.041706
#
# Coordination Sequence:
#
# PCOD9292920 Si02
#       8
#     8   8   8   8   8   8   8   8
#     4  10  22  44  72  97 133 175 223 271 327 404
#     4  12  23  40  65  91 124 167 220 269 321 385
#     4  12  26  41  58  90 128 170 217 274 334 388
#     4  12  25  41  62  89 128 174 219 272 331 389
#     4  11  23  41  67  95 124 167 220 273 318 376
#     4  12  25  45  71 105 139 175 215 275 340 401
#     4  11  23  42  67  92 126 171 217 268 326 389
#     4  10  22  44  70 100 132 175 223 269 328 407
#
# _framework density 20.253222000000001
#
# number of rings (size 3 to 8) (size 9 to 14) (size 15 to 20)
#    0.000    0.750    5.000    3.000    0.000    4.000 
#    2.250    0.000    0.000    0.000    0.000    0.000 
#    0.000    0.000    0.000    0.000    0.000    0.000 
#
# Total GULP energy -178701.892271 kJ/mol
# GULP energy per Si atom -5584.434133 kJ/mol
# Density = 2.020712 g / cm^3
# Si number density = 20.253222 Si / 1000 Ang^3
#
#
#
# Elastic Constant Matrix: (Units=GPa)
#
#
# Indices 1 2 3 4 5 6 
#
# 1 62.2081 28.8371 39.8414 0.0000 -0.6515 0.0000
# 2 28.8371 70.9816 23.4373 0.0000 5.8189 0.0000
# 3 39.8414 23.4373 126.2471 0.0000 0.7078 0.0000
# 4 0.0000 0.0000 0.0000 45.2912 0.0000 -23.9912
# 5 -0.6515 5.8189 0.7078 0.0000 36.5504 0.0000
# 6 0.0000 0.0000 0.0000 -23.9912 0.0000 53.2720
#
#
#
# Elastic Compliance Matrix: (Units=1/GPa)
#
#
# Indices 1 2 3 4 5 6 
#
# 1 0.023511 -0.007716 -0.005997 0.000000 0.001764 0.000000
# 2 -0.007716 0.017743 -0.000842 0.000000 -0.002946 0.000000
# 3 -0.005997 -0.000842 0.009971 0.000000 -0.000166 0.000000
# 4 0.000000 0.000000 0.000000 0.028997 0.000000 0.013059
# 5 0.001764 -0.002946 -0.000166 0.000000 0.027863 0.000000
# 6 0.000000 0.000000 0.000000 0.013059 0.000000 0.024653
#
#
# Mechanical properties :
#
#
# Convention : Reuss Voigt Hill
#
# Bulk Modulus (GPa) = 45.22101 49.29650 47.25876
# Shear Modulus (GPa) = 29.54740 38.17743 33.86242
#
# Velocity S-wave (km/s) = 3.82370 4.34638 4.09339
# Velocity P-wave (km/s) = 6.47074 7.04137 6.76208
#
# Compressibility (1/GPa) = 0.02211361
#
# Stress axis : x y z
#
# Youngs Moduli (GPa) = 42.53261 56.36169 100.29217
#
# Poissons Ratio (x) = 0.43490 0.60147
# Poissons Ratio (y) = 0.32819 0.08447
# Poissons Ratio (z) = 0.25508 0.04747
#
# Static dielectric constant tensor:
#      x y z
#    x 1.728940 0.000000 -0.005340 
#    y 0.000000 1.673630 0.000000 
#    z -0.005340 0.000000 1.673080 
# 
# From -- ./inp_files/194292.got.cif
#   From: 2010.05.17/outbox.cif.g08.bks.cpg/sg15_98_cif.got.tgz:194292.got - 2010.06.03 18:47:42.
