data_PCOD9292987
_publ_section_title
;
Structure prediction by ZEFSAII (Michael W. Deem and Ramdas Pophale) SiO2 
 PCOD9292987
Probable space group: C 2/C
;
_chemical_formula_sum "Si O2"
_cell_formula_units_Z 64
_cell_length_a 10.789496
_cell_length_b 14.384424
_cell_length_c 27.879414
_cell_angle_alpha 90.000000
_cell_angle_beta 43.721576
_cell_angle_gamma 90.000000
_cell_volume 2990.559761
_symmetry_space_group_name_H-M "C 2/C"
_symmetry_group_IT_number 15
_symmetry_cell_setting 'monoclinic'
loop_
_space_group_symop_operation_xyz
x,y,z
-x,y,1/2-z
-x,-y,-z
x,-y,1/2+z
1/2+x,1/2+y,z
1/2-x,1/2+y,1/2-z
1/2-x,1/2-y,-z
1/2+x,1/2-y,1/2+z
loop_
_atom_site_type_symbol
_atom_site_label
_atom_site_fract_x
_atom_site_fract_y
_atom_site_fract_z
Si Si1 0.652437 0.015630 0.814543
Si Si2 0.785354 0.185371 0.312383
Si Si3 0.650083 0.779385 0.674352
Si Si4 0.158597 0.757707 0.448312
Si Si5 0.578798 0.643691 0.819022
Si Si6 0.969078 0.070509 0.948613
Si Si7 0.220477 0.547893 0.097693
Si Si8 0.493543 0.819120 0.089859
O O1 0.794130 0.069545 0.742225
O O2 0.596164 0.081820 0.874541
O O3 0.721183 0.914313 0.810506
O O4 0.463096 0.004116 0.840352
O O5 0.720756 0.198049 0.385337
O O6 0.695883 0.270443 0.307618
O O7 0.000000 0.192202 0.250000
O O8 0.500000 0.824886 0.750000
O O9 0.558106 0.686598 0.680578
O O10 0.687851 0.845752 0.619456
O O11 0.836987 0.754813 0.646858
O O12 0.040220 0.841779 0.459901
O O13 0.333186 0.801398 0.425550
O O14 0.052451 0.701157 0.518853
O O15 0.471099 0.599071 0.893233
O O16 0.117303 0.991299 0.916078
O O17 0.784915 0.038982 0.024720
#
# Coordination Sequence:
#
# PCOD9292987 Si02
#       8
#     8   8   8   8   8   8   8   8
#     4  12  25  44  65 100 135 174 220 275 331 400
#     4  11  26  44  68  97 135 174 228 274 333 400
#     4  12  25  42  67  99 132 177 220 277 332 396
#     4  10  22  44  70  98 131 184 215 270 337 402
#     4  11  26  45  69  97 134 177 222 278 337 389
#     4  10  23  43  68 100 130 168 226 282 322 394
#     4  11  24  43  67 100 129 169 230 274 327 389
#     4  11  23  43  71  94 141 177 219 265 339 403
#
# _framework density 21.400676000000001
#
# number of rings (size 3 to 8) (size 9 to 14) (size 15 to 20)
#    0.000    1.000    5.000    0.750    5.250    2.000 
#    2.250    0.000    0.000    0.000    0.000    0.000 
#    0.000    0.000    0.000    0.000    0.000    0.000 
#
# Total GULP energy -178922.553670 kJ/mol
# GULP energy per Si atom -5591.329802 kJ/mol
# Density = 2.135197 g / cm^3
# Si number density = 21.400676 Si / 1000 Ang^3
#
#
#
# Elastic Constant Matrix: (Units=GPa)
#
#
# Indices 1 2 3 4 5 6 
#
# 1 32.0487 -0.8151 18.5996 -0.0001 12.9757 0.0000
# 2 -0.8151 77.4023 22.3265 0.0000 13.1429 -0.0001
# 3 18.5996 22.3265 85.3337 0.0000 16.9967 -0.0004
# 4 -0.0001 0.0000 0.0000 44.2238 0.0001 -3.7432
# 5 12.9757 13.1429 16.9967 0.0001 29.5817 0.0000
# 6 0.0000 -0.0001 -0.0004 -3.7432 0.0000 10.2598
#
#
#
# Elastic Compliance Matrix: (Units=1/GPa)
#
#
# Indices 1 2 3 4 5 6 
#
# 1 0.042379 0.005405 -0.007307 0.000000 -0.016792 0.000000
# 2 0.005405 0.015251 -0.003779 0.000000 -0.006976 0.000000
# 3 -0.007307 -0.003779 0.015050 0.000000 -0.003763 0.000000
# 4 0.000000 0.000000 0.000000 0.023333 0.000000 0.008513
# 5 -0.016792 -0.006976 -0.003763 0.000000 0.046432 0.000000
# 6 0.000000 0.000000 0.000000 0.008513 0.000000 0.100574
#
#
# Mechanical properties :
#
#
# Convention : Reuss Voigt Hill
#
# Bulk Modulus (GPa) = 16.30818 30.55629 23.43224
# Shear Modulus (GPa) = 18.19382 27.12462 22.65922
#
# Velocity S-wave (km/s) = 2.91890 3.56401 3.25746
# Velocity P-wave (km/s) = 4.35854 5.58976 5.01210
#
# Compressibility (1/GPa) = 0.06131893
#
# Stress axis : x y z
#
# Youngs Moduli (GPa) = 23.59650 65.56981 66.44729
#
# Poissons Ratio (x) = -0.35442 0.48550
# Poissons Ratio (y) = -0.12754 0.25110
# Poissons Ratio (z) = 0.17241 0.24779
#
# Static dielectric constant tensor:
#      x y z
#    x 1.766040 0.000000 -0.009280 
#    y 0.000000 1.775690 0.000000 
#    z -0.009280 0.000000 1.778890 
# 
# From -- ./inp_files/311165.got.cif
#   From: 2010.05.17/outbox.cif.g08.bks.cpg/sg15_156_cif.got.tgz:311165.got - 2010.06.03 18:47:42.
