data_PCOD9292295
_publ_section_title
;
Structure prediction by ZEFSAII (Michael W. Deem and Ramdas Pophale) SiO2 
 PCOD9292295
Probable space group: C 2/C
;
_chemical_formula_sum "Si O2"
_cell_formula_units_Z 52
_cell_length_a 10.438865
_cell_length_b 9.126354
_cell_length_c 27.462141
_cell_angle_alpha 90.000000
_cell_angle_beta 110.787922
_cell_angle_gamma 90.000000
_cell_volume 2445.965810
_symmetry_space_group_name_H-M "C 2/C"
_symmetry_group_IT_number 15
_symmetry_cell_setting 'monoclinic'
loop_
_space_group_symop_operation_xyz
x,y,z
-x,y,1/2-z
-x,-y,-z
x,-y,1/2+z
1/2+x,1/2+y,z
1/2-x,1/2+y,1/2-z
1/2-x,1/2-y,-z
1/2+x,1/2-y,1/2+z
loop_
_atom_site_type_symbol
_atom_site_label
_atom_site_fract_x
_atom_site_fract_y
_atom_site_fract_z
Si Si1 0.415038 0.274641 0.520614
Si Si2 0.000000 0.149844 0.750000
Si Si3 0.921952 0.936100 0.426776
Si Si4 0.259999 0.570376 0.240801
Si Si5 0.948229 0.728608 0.344732
Si Si6 0.933916 0.310199 0.289837
Si Si7 0.903679 0.553778 0.600519
O O1 0.250000 0.250000 0.500000
O O2 0.457593 0.305783 0.470439
O O3 0.479314 0.423403 0.552902
O O4 0.456880 0.135050 0.558760
O O5 0.013850 0.241739 0.801013
O O6 0.871901 0.045405 0.740108
O O7 0.937267 0.873582 0.374968
O O8 0.761056 0.964118 0.417155
O O9 0.201820 0.666800 0.188522
O O10 0.135872 0.462011 0.237012
O O11 0.321305 0.685603 0.287574
O O12 0.029767 0.604344 0.383983
O O13 0.000000 0.247069 0.250000
O O14 0.037198 0.348015 0.346890
#
# Coordination Sequence:
#
# PCOD9292295 Si02
#       7
#     8   4   8   8   8   8   8
#     4   9  21  44  68  96 123 162 211 267 329 391
#     4  12  26  38  58  90 134 164 220 254 308 376
#     4  10  22  43  69  91 128 162 206 272 329 378
#     4  11  24  39  59  88 127 173 206 263 305 372
#     4  11  26  41  61  96 128 173 213 260 315 378
#     4  11  23  37  60  88 122 169 212 251 312 370
#     4  10  24  38  65  94 124 166 213 263 316 382
#
# _framework density 21.259495999999999
#
# number of rings (size 3 to 8) (size 9 to 14) (size 15 to 20)
#    0.000    1.538    2.308    0.923    6.462    4.308 
#    0.000    6.923    0.000    0.000    0.000    0.000 
#    0.000    0.000    0.000    0.000    0.000    0.000 
#
# Total GULP energy -144948.650754 kJ/mol
# GULP energy per Si atom -5574.948106 kJ/mol
# Density = 2.121111 g / cm^3
# Si number density = 21.259496 Si / 1000 Ang^3
#
#
#
# Elastic Constant Matrix: (Units=GPa)
#
#
# Indices 1 2 3 4 5 6 
#
# 1 68.3676 39.1865 28.8192 0.0000 9.5227 0.0000
# 2 39.1865 110.2670 38.3115 0.0000 9.8996 0.0000
# 3 28.8192 38.3115 62.9905 0.0000 12.8826 0.0000
# 4 0.0000 0.0000 0.0000 88.2094 0.0000 79.5969
# 5 9.5227 9.8996 12.8826 0.0000 26.9603 0.0000
# 6 0.0000 0.0000 0.0000 79.5969 0.0000 198.8505
#
#
#
# Elastic Compliance Matrix: (Units=1/GPa)
#
#
# Indices 1 2 3 4 5 6 
#
# 1 0.020248 -0.004981 -0.005703 0.000000 -0.002598 0.000000
# 2 -0.004981 0.012747 -0.005405 0.000000 -0.000339 0.000000
# 3 -0.005703 -0.005405 0.023224 0.000000 -0.007098 0.000000
# 4 0.000000 0.000000 0.000000 0.017747 0.000000 -0.007104
# 5 -0.002598 -0.000339 -0.007098 0.000000 0.041525 0.000000
# 6 0.000000 0.000000 0.000000 -0.007104 0.000000 0.007872
#
#
# Mechanical properties :
#
#
# Convention : Reuss Voigt Hill
#
# Bulk Modulus (GPa) = 41.59560 50.47328 46.03444
# Shear Modulus (GPa) = 30.57094 71.82457 51.19775
#
# Velocity S-wave (km/s) = 3.79620 5.81877 4.91270
# Velocity P-wave (km/s) = 6.23081 8.30284 7.34030
#
# Compressibility (1/GPa) = 0.02404100
#
# Stress axis : x y z
#
# Youngs Moduli (GPa) = 49.38877 78.44792 43.05965
#
# Poissons Ratio (x) = 0.39074 0.24556
# Poissons Ratio (y) = 0.24600 0.23273
# Poissons Ratio (z) = 0.28166 0.42401
#
# Static dielectric constant tensor:
#      x y z
#    x 1.809040 0.000000 0.007570 
#    y 0.000000 1.778530 0.000000 
#    z 0.007570 0.000000 1.816480 
# 
# From -- ./inp_files/310082.got.cif
#   From: 2010.05.17/outbox.cif.g08.bks.cpg/sg15_156_cif.got.tgz:310082.got - 2010.06.03 18:47:42.
