data_PCOD9292843
_publ_section_title
;
Structure prediction by ZEFSAII (Michael W. Deem and Ramdas Pophale) SiO2 
 PCOD9292843
Probable space group: C 2/C
;
_chemical_formula_sum "Si O2"
_cell_formula_units_Z 36
_cell_length_a 14.481972
_cell_length_b 12.177304
_cell_length_c 9.613261
_cell_angle_alpha 90.000000
_cell_angle_beta 67.711192
_cell_angle_gamma 90.000000
_cell_volume 1568.644584
_symmetry_space_group_name_H-M "C 2/C"
_symmetry_group_IT_number 15
_symmetry_cell_setting 'monoclinic'
loop_
_space_group_symop_operation_xyz
x,y,z
-x,y,1/2-z
-x,-y,-z
x,-y,1/2+z
1/2+x,1/2+y,z
1/2-x,1/2+y,1/2-z
1/2-x,1/2-y,-z
1/2+x,1/2-y,1/2+z
loop_
_atom_site_type_symbol
_atom_site_label
_atom_site_fract_x
_atom_site_fract_y
_atom_site_fract_z
Si Si1 0.531413 0.317148 0.011045
Si Si2 0.117437 0.009966 0.780277
Si Si3 0.047804 0.406149 0.070065
Si Si4 0.750000 0.750000 0.500000
Si Si5 0.250587 0.502716 0.549131
O O1 0.568898 0.400137 0.869041
O O2 0.475916 0.211587 0.981802
O O3 0.454507 0.388805 0.145601
O O4 0.632180 0.277702 0.028527
O O5 0.151286 0.990420 0.604096
O O6 0.217504 0.035057 0.813589
O O7 0.000000 0.413729 0.250000
O O8 0.164903 0.425291 0.029088
O O9 0.000000 0.500000 0.000000
O O10 0.780752 0.624018 0.436192
#
# Coordination Sequence:
#
# PCOD9292843 Si02
#       5
#     8   8   8   4   8
#     4  10  24  45  71 103 142 192 238 298 363 440
#     4  10  25  45  71 103 145 186 242 298 369 439
#     4  12  26  46  74 107 145 189 247 309 369 439
#     4  10  22  44  68  96 144 186 236 282 362 438
#     4  11  24  45  69 106 140 193 238 303 367 440
#
# _framework density 22.949750000000002
#
# number of rings (size 3 to 8) (size 9 to 14) (size 15 to 20)
#    0.000    1.333    2.222    1.333    3.111   13.333 
#    0.000    0.000    0.000    0.000    0.000    0.000 
#    0.000    0.000    0.000    0.000    0.000    0.000 
#
# Total GULP energy -100279.179205 kJ/mol
# GULP energy per Si atom -5571.065511 kJ/mol
# Density = 2.289751 g / cm^3
# Si number density = 22.949750 Si / 1000 Ang^3
#
#
#
# Elastic Constant Matrix: (Units=GPa)
#
#
# Indices 1 2 3 4 5 6 
#
# 1 166.7432 66.2886 -6.0862 0.0000 -16.5057 0.0000
# 2 66.2886 123.8186 -3.4313 0.0000 -7.8580 0.0000
# 3 -6.0862 -3.4313 63.7966 0.0000 -4.2401 0.0000
# 4 0.0000 0.0000 0.0000 4.6789 0.0000 -10.5460
# 5 -16.5057 -7.8580 -4.2401 0.0000 21.6810 0.0000
# 6 0.0000 0.0000 0.0000 -10.5460 0.0000 43.4006
#
#
#
# Elastic Compliance Matrix: (Units=1/GPa)
#
#
# Indices 1 2 3 4 5 6 
#
# 1 0.008106 -0.004005 0.000883 0.000000 0.004892 0.000000
# 2 -0.004005 0.010272 0.000218 0.000000 0.000717 0.000000
# 3 0.000883 0.000218 0.016029 0.000000 0.003886 0.000000
# 4 0.000000 0.000000 0.000000 0.472523 0.000000 0.114819
# 5 0.004892 0.000717 0.003886 0.000000 0.050868 0.000000
# 6 0.000000 0.000000 0.000000 0.114819 0.000000 0.050941
#
#
# Mechanical properties :
#
#
# Convention : Reuss Voigt Hill
#
# Bulk Modulus (GPa) = 34.96548 51.98897 43.47723
# Shear Modulus (GPa) = 8.01181 33.79124 20.90153
#
# Velocity S-wave (km/s) = 1.87045 3.84135 3.02114
# Velocity P-wave (km/s) = 4.46470 6.50978 5.58170
#
# Compressibility (1/GPa) = 0.02859963
#
# Stress axis : x y z
#
# Youngs Moduli (GPa) = 123.36858 97.35365 62.38670
#
# Poissons Ratio (x) = 0.38987 -0.05509
# Poissons Ratio (y) = 0.49405 -0.01360
# Poissons Ratio (z) = -0.10894 -0.02123
#
# Static dielectric constant tensor:
#      x y z
#    x 1.911890 0.000000 -0.010850 
#    y 0.000000 1.814890 0.000000 
#    z -0.010850 0.000000 1.877140 
# 
# From -- ./inp_files/94317.got.cif
#   From: 2010.05.17/outbox.cif.g08.bks.cpg/sg15_48_cif.got.tgz:94317.got - 2010.06.03 18:47:42.
