data_PCOD9292985
_publ_section_title
;
Structure prediction by ZEFSAII (Michael W. Deem and Ramdas Pophale) SiO2 
 PCOD9292985
Probable space group: C 2/C
;
_chemical_formula_sum "Si O2"
_cell_formula_units_Z 60
_cell_length_a 11.556868
_cell_length_b 9.236747
_cell_length_c 28.181605
_cell_angle_alpha 90.000000
_cell_angle_beta 113.399692
_cell_angle_gamma 90.000000
_cell_volume 2760.911698
_symmetry_space_group_name_H-M "C 2/C"
_symmetry_group_IT_number 15
_symmetry_cell_setting 'monoclinic'
loop_
_space_group_symop_operation_xyz
x,y,z
-x,y,1/2-z
-x,-y,-z
x,-y,1/2+z
1/2+x,1/2+y,z
1/2-x,1/2+y,1/2-z
1/2-x,1/2-y,-z
1/2+x,1/2-y,1/2+z
loop_
_atom_site_type_symbol
_atom_site_label
_atom_site_fract_x
_atom_site_fract_y
_atom_site_fract_z
Si Si1 0.459261 0.077979 0.294547
Si Si2 0.698523 0.588469 0.210536
Si Si3 0.552893 0.147772 0.484288
Si Si4 0.500000 0.490395 0.750000
Si Si5 0.220216 0.150314 0.841792
Si Si6 0.214302 0.587818 0.857803
Si Si7 0.762191 0.147466 0.437600
Si Si8 0.144804 0.352481 0.626757
O O1 0.500000 0.142216 0.250000
O O2 0.318225 0.027813 0.259471
O O3 0.431521 0.170467 0.336793
O O4 0.572112 0.967611 0.324848
O O5 0.585563 0.600014 0.228167
O O6 0.727775 0.738245 0.189095
O O7 0.691067 0.474246 0.166901
O O8 0.672863 0.125988 0.468721
O O9 0.606130 0.274368 0.527156
O O10 0.441368 0.193231 0.431031
O O11 0.500000 0.000000 0.500000
O O12 0.594549 0.581316 0.799104
O O13 0.205858 0.245034 0.887530
O O14 0.317784 0.020999 0.868331
O O15 0.262367 0.509037 0.912888
O O16 0.229260 0.758172 0.856784
#
# Coordination Sequence:
#
# PCOD9292985 Si02
#       8
#     8   8   8   4   8   8   8   8
#     4  10  22  44  70  97 146 191 230 285 350 419
#     4  10  25  42  67  99 144 195 229 282 354 417
#     4  11  23  44  78 100 136 186 240 293 369 429
#     4  12  26  42  68 110 144 178 248 286 342 428
#     4  11  26  44  68 102 143 187 237 291 351 423
#     4  10  24  42  71 106 138 187 238 293 359 422
#     4  10  23  47  73  99 137 187 234 296 362 425
#     4  12  24  44  72 108 139 187 241 297 356 422
#
# _framework density 21.731950999999999
#
# number of rings (size 3 to 8) (size 9 to 14) (size 15 to 20)
#    0.000    1.333    4.000    0.000    8.400    1.600 
#    4.800    0.667    0.000    0.000    0.000    0.000 
#    0.000    0.000    0.000    0.000    0.000    0.000 
#
# Total GULP energy -167345.681805 kJ/mol
# GULP energy per Si atom -5578.189394 kJ/mol
# Density = 2.168249 g / cm^3
# Si number density = 21.731951 Si / 1000 Ang^3
#
#
#
# Elastic Constant Matrix: (Units=GPa)
#
#
# Indices 1 2 3 4 5 6 
#
# 1 107.4721 31.2205 28.0091 0.0000 -12.4548 0.0000
# 2 31.2205 87.8401 13.7511 0.0000 -11.6408 0.0000
# 3 28.0091 13.7511 95.8366 0.0000 -6.9827 0.0000
# 4 0.0000 0.0000 0.0000 13.7316 0.0000 5.2895
# 5 -12.4548 -11.6408 -6.9827 0.0000 31.8780 0.0000
# 6 0.0000 0.0000 0.0000 5.2895 0.0000 30.8232
#
#
#
# Elastic Compliance Matrix: (Units=1/GPa)
#
#
# Indices 1 2 3 4 5 6 
#
# 1 0.011234 -0.003232 -0.002627 0.000000 0.002633 0.000000
# 2 -0.003232 0.013087 -0.000688 0.000000 0.003365 0.000000
# 3 -0.002627 -0.000688 0.011390 0.000000 0.001217 0.000000
# 4 0.000000 0.000000 0.000000 0.077979 0.000000 -0.013382
# 5 0.002633 0.003365 0.001217 0.000000 0.033894 0.000000
# 6 0.000000 0.000000 0.000000 -0.013382 0.000000 0.034740
#
#
# Mechanical properties :
#
#
# Convention : Reuss Voigt Hill
#
# Bulk Modulus (GPa) = 44.21908 48.56781 46.39344
# Shear Modulus (GPa) = 24.63578 29.83112 27.23345
#
# Velocity S-wave (km/s) = 3.37058 3.70900 3.54383
# Velocity P-wave (km/s) = 5.96149 6.38273 6.17571
#
# Compressibility (1/GPa) = 0.02261467
#
# Stress axis : x y z
#
# Youngs Moduli (GPa) = 89.01806 76.41249 87.79859
#
# Poissons Ratio (x) = 0.24700 0.23069
# Poissons Ratio (y) = 0.28775 0.06039
# Poissons Ratio (z) = 0.23389 0.05256
#
# Static dielectric constant tensor:
#      x y z
#    x 1.830240 0.000000 0.000570 
#    y 0.000000 1.819880 0.000000 
#    z 0.000570 0.000000 1.844130 
# 
# From -- ./inp_files/310345.got.cif
#   From: 2010.05.17/outbox.cif.g08.bks.cpg/sg15_156_cif.got.tgz:310345.got - 2010.06.03 18:47:42.
