data_PCOD9292878
_publ_section_title
;
Structure prediction by ZEFSAII (Michael W. Deem and Ramdas Pophale) SiO2 
 PCOD9292878
Probable space group: C 2/C
;
_chemical_formula_sum "Si O2"
_cell_formula_units_Z 56
_cell_length_a 8.889735
_cell_length_b 22.840224
_cell_length_c 17.019479
_cell_angle_alpha 90.000000
_cell_angle_beta 54.492748
_cell_angle_gamma 90.000000
_cell_volume 2813.081107
_symmetry_space_group_name_H-M "C 2/C"
_symmetry_group_IT_number 15
_symmetry_cell_setting 'monoclinic'
loop_
_space_group_symop_operation_xyz
x,y,z
-x,y,1/2-z
-x,-y,-z
x,-y,1/2+z
1/2+x,1/2+y,z
1/2-x,1/2+y,1/2-z
1/2-x,1/2-y,-z
1/2+x,1/2-y,1/2+z
loop_
_atom_site_type_symbol
_atom_site_label
_atom_site_fract_x
_atom_site_fract_y
_atom_site_fract_z
Si Si1 0.724831 0.165384 0.184691
Si Si2 0.695869 0.035434 0.233169
Si Si3 0.209390 0.145064 0.661257
Si Si4 0.296540 0.231473 0.776128
Si Si5 0.063345 0.176896 0.540877
Si Si6 0.682884 0.018376 0.900910
Si Si7 0.512589 0.540705 0.921043
O O1 0.500000 0.168683 0.250000
O O2 0.780981 0.097653 0.181791
O O3 0.780064 0.204567 0.242282
O O4 0.820459 0.187121 0.074316
O O5 0.500000 0.035827 0.250000
O O6 0.699521 0.027366 0.325106
O O7 0.795563 0.976931 0.174771
O O8 0.275746 0.188382 0.708048
O O9 0.189372 0.176264 0.582111
O O10 0.000000 0.127451 0.750000
O O11 0.327750 0.086103 0.622796
O O12 0.500000 0.223900 0.750000
O O13 0.120150 0.215813 0.885991
O O14 0.002275 0.108746 0.556039
O O15 0.854986 0.020789 0.907920
O O16 0.500000 0.000000 0.000000
O O17 0.500000 0.500000 0.000000
#
# Coordination Sequence:
#
# PCOD9292878 Si02
#       7
#     8   8   8   8   8   8   8
#     4  11  25  43  66  93 126 176 220 265 319 388
#     4  11  23  40  63  94 133 168 215 265 317 388
#     4   9  20  41  66  88 119 169 216 256 308 389
#     4  11  25  43  66  95 127 161 217 277 331 375
#     4  10  22  44  69  93 125 173 222 257 317 396
#     4  11  23  36  60  97 129 165 209 253 319 385
#     4  11  21  40  66  93 130 170 207 263 320 382
#
# _framework density 19.906998000000002
#
# number of rings (size 3 to 8) (size 9 to 14) (size 15 to 20)
#    0.000    1.429    1.429    5.143    6.000    7.429 
#    0.000    0.000    0.000    0.000    0.000    0.000 
#    0.000    0.000    0.000    0.000    0.000    0.000 
#
# Total GULP energy -156265.556894 kJ/mol
# GULP energy per Si atom -5580.912746 kJ/mol
# Density = 1.986169 g / cm^3
# Si number density = 19.906998 Si / 1000 Ang^3
#
#
#
# Elastic Constant Matrix: (Units=GPa)
#
#
# Indices 1 2 3 4 5 6 
#
# 1 61.7921 34.9032 28.6846 0.0000 -7.6174 0.0000
# 2 34.9032 81.3513 25.5208 0.0000 -8.1052 0.0000
# 3 28.6846 25.5208 134.1771 0.0000 1.0634 0.0000
# 4 0.0000 0.0000 0.0000 -0.7104 0.0000 122.8484
# 5 -7.6174 -8.1052 1.0634 0.0000 22.9023 0.0000
# 6 0.0000 0.0000 0.0000 122.8484 0.0000 -409.3804
#
#
#
# Elastic Compliance Matrix: (Units=1/GPa)
#
#
# Indices 1 2 3 4 5 6 
#
# 1 0.023072 -0.008352 -0.003382 0.000000 0.004875 0.000000
# 2 -0.008352 0.016632 -0.001403 0.000000 0.003173 0.000000
# 3 -0.003382 -0.001403 0.008459 0.000000 -0.002014 0.000000
# 4 0.000000 0.000000 0.000000 0.027659 0.000000 0.008300
# 5 0.004875 0.003173 -0.002014 0.000000 0.046502 0.000000
# 6 0.000000 0.000000 0.000000 0.008300 0.000000 0.000048
#
#
# Mechanical properties :
#
#
# Convention : Reuss Voigt Hill
#
# Bulk Modulus (GPa) = 45.68770 50.61530 48.15150
# Shear Modulus (GPa) = 32.06295 -64.89025 -16.41365
#
# Velocity S-wave (km/s) = 4.01763 -5.71555 -2.87455
# Velocity P-wave (km/s) = 6.67249 4.25153 3.63639
#
# Compressibility (1/GPa) = 0.02188773
#
# Stress axis : x y z
#
# Youngs Moduli (GPa) = 43.34234 60.12472 118.22038
#
# Poissons Ratio (x) = 0.50217 0.39988
# Poissons Ratio (y) = 0.36200 0.16587
# Poissons Ratio (z) = 0.14660 0.08436
#
# Static dielectric constant tensor:
#      x y z
#    x 1.666560 0.000000 -0.013650 
#    y 0.000000 1.731530 0.000000 
#    z -0.013650 0.000000 1.771770 
# 
# From -- ./inp_files/192887.got.cif
#   From: 2010.05.17/outbox.cif.g08.bks.cpg/sg15_97_cif.got.tgz:192887.got - 2010.06.03 18:47:42.
