data_PCOD9292775
_publ_section_title
;
Structure prediction by ZEFSAII (Michael W. Deem and Ramdas Pophale) SiO2 
 PCOD9292775
Probable space group: C 2/C
;
_chemical_formula_sum "Si O2"
_cell_formula_units_Z 40
_cell_length_a 17.456319
_cell_length_b 12.001540
_cell_length_c 8.997877
_cell_angle_alpha 90.000000
_cell_angle_beta 94.917279
_cell_angle_gamma 90.000000
_cell_volume 1878.141570
_symmetry_space_group_name_H-M "C 2/C"
_symmetry_group_IT_number 15
_symmetry_cell_setting 'monoclinic'
loop_
_space_group_symop_operation_xyz
x,y,z
-x,y,1/2-z
-x,-y,-z
x,-y,1/2+z
1/2+x,1/2+y,z
1/2-x,1/2+y,1/2-z
1/2-x,1/2-y,-z
1/2+x,1/2-y,1/2+z
loop_
_atom_site_type_symbol
_atom_site_label
_atom_site_fract_x
_atom_site_fract_y
_atom_site_fract_z
Si Si1 0.562782 0.100366 0.006790
Si Si2 0.500000 0.248199 0.250000
Si Si3 0.644182 0.638617 0.825147
Si Si4 0.357277 0.417401 0.843436
Si Si5 0.000000 0.768634 0.750000
Si Si6 0.780961 0.674943 0.370945
O O1 0.544942 0.169742 0.149270
O O2 0.655114 0.089584 0.047011
O O3 0.543618 0.183584 0.868758
O O4 0.500000 0.000000 0.000000
O O5 0.441120 0.320596 0.149547
O O6 0.630802 0.546158 0.696250
O O7 0.688690 0.739497 0.752611
O O8 0.671792 0.598956 0.991773
O O9 0.433717 0.345833 0.813618
O O10 0.289611 0.385058 0.719016
O O11 0.750000 0.750000 0.500000
#
# Coordination Sequence:
#
# PCOD9292775 Si02
#       6
#     8   4   8   8   4   8
#     4  11  24  45  70 102 137 190 232 292 353 429
#     4  10  22  44  68 100 138 170 238 288 340 420
#     4  11  25  43  70 100 136 183 230 289 359 420
#     4  12  25  44  70 104 136 186 231 294 356 428
#     4  12  24  42  74  98 140 180 244 288 356 424
#     4  11  24  47  69 100 148 179 236 297 355 429
#
# _framework density 21.297650000000001
#
# number of rings (size 3 to 8) (size 9 to 14) (size 15 to 20)
#    0.000    0.800    4.000    3.000    2.800    3.200 
#   18.000    0.000    0.000    0.000    0.000    0.000 
#    0.000    0.000    0.000    0.000    0.000    0.000 
#
# Total GULP energy -111414.460542 kJ/mol
# GULP energy per Si atom -5570.723027 kJ/mol
# Density = 2.124918 g / cm^3
# Si number density = 21.297650 Si / 1000 Ang^3
#
#
#
# Elastic Constant Matrix: (Units=GPa)
#
#
# Indices 1 2 3 4 5 6 
#
# 1 99.7852 19.3951 19.3078 0.0000 16.5180 0.0000
# 2 19.3951 59.7088 -8.3297 0.0000 5.8049 0.0000
# 3 19.3078 -8.3297 96.1303 0.0000 5.8426 0.0000
# 4 0.0000 0.0000 0.0000 23.2021 0.0000 3.5779
# 5 16.5180 5.8049 5.8426 0.0000 32.3098 0.0000
# 6 0.0000 0.0000 0.0000 3.5779 0.0000 30.4856
#
#
#
# Elastic Compliance Matrix: (Units=1/GPa)
#
#
# Indices 1 2 3 4 5 6 
#
# 1 0.012062 -0.003768 -0.002442 0.000000 -0.005048 0.000000
# 2 -0.003768 0.018496 0.002472 0.000000 -0.001844 0.000000
# 3 -0.002442 0.002472 0.011181 0.000000 -0.001217 0.000000
# 4 0.000000 0.000000 0.000000 0.043894 0.000000 -0.005152
# 5 -0.005048 -0.001844 -0.001217 0.000000 0.034082 0.000000
# 6 0.000000 0.000000 0.000000 -0.005152 0.000000 0.033407
#
#
# Mechanical properties :
#
#
# Convention : Reuss Voigt Hill
#
# Bulk Modulus (GPa) = 29.18726 35.15229 32.16978
# Shear Modulus (GPa) = 29.06622 32.21625 30.64124
#
# Velocity S-wave (km/s) = 3.69828 3.89352 3.79715
# Velocity P-wave (km/s) = 5.65425 6.06249 5.86192
#
# Compressibility (1/GPa) = 0.03426153
#
# Stress axis : x y z
#
# Youngs Moduli (GPa) = 82.90419 54.06586 89.43545
#
# Poissons Ratio (x) = 0.20372 0.21843
# Poissons Ratio (y) = 0.31239 -0.22104
# Poissons Ratio (z) = 0.20248 -0.13363
#
# Static dielectric constant tensor:
#      x y z
#    x 1.999020 0.000000 0.061560 
#    y 0.000000 1.775290 0.000000 
#    z 0.061560 0.000000 1.761360 
# 
# From -- ./inp_files/46129.got.cif
#   From: 2010.05.17/outbox.cif.g08.bks.cpg/sg15_24_cif.got.tgz:46129.got - 2010.06.03 18:47:42.
