data_PCOD9292889
_publ_section_title
;
Structure prediction by ZEFSAII (Michael W. Deem and Ramdas Pophale) SiO2 
 PCOD9292889
Probable space group: C 2/C
;
_chemical_formula_sum "Si O2"
_cell_formula_units_Z 48
_cell_length_a 26.984765
_cell_length_b 11.724669
_cell_length_c 14.104202
_cell_angle_alpha 90.000000
_cell_angle_beta 149.230206
_cell_angle_gamma 90.000000
_cell_volume 2282.915092
_symmetry_space_group_name_H-M "C 2/C"
_symmetry_group_IT_number 15
_symmetry_cell_setting 'monoclinic'
loop_
_space_group_symop_operation_xyz
x,y,z
-x,y,1/2-z
-x,-y,-z
x,-y,1/2+z
1/2+x,1/2+y,z
1/2-x,1/2+y,1/2-z
1/2-x,1/2-y,-z
1/2+x,1/2-y,1/2+z
loop_
_atom_site_type_symbol
_atom_site_label
_atom_site_fract_x
_atom_site_fract_y
_atom_site_fract_z
Si Si1 0.431473 0.759490 0.549800
Si Si2 0.078241 0.597806 0.648437
Si Si3 0.256215 0.062613 0.012510
Si Si4 0.765511 0.757070 0.177311
Si Si5 0.967997 0.965028 0.308175
Si Si6 0.470163 0.709697 0.091327
O O1 0.500000 0.800355 0.750000
O O2 0.402022 0.851019 0.423173
O O3 0.332236 0.716850 0.433238
O O4 0.488745 0.657291 0.591861
O O5 0.171412 0.541712 0.851799
O O6 0.000000 0.500000 0.500000
O O7 0.031405 0.696292 0.635677
O O8 0.291221 0.164927 0.139020
O O9 0.255066 0.121602 0.907489
O O10 0.146420 0.033340 0.861324
O O11 0.856641 0.766056 0.394893
O O12 0.000000 0.965949 0.250000
O O13 0.011675 0.082114 0.419053
O O14 0.500000 0.712094 0.250000
#
# Coordination Sequence:
#
# PCOD9292889 Si02
#       6
#     8   8   8   8   8   8
#     4  11  23  42  73 101 134 186 239 276 339 415
#     4  12  26  43  68 104 145 177 224 289 346 406
#     4  11  23  44  70 101 136 183 236 276 342 419
#     4  11  23  44  73  97 138 188 230 279 344 414
#     4  10  22  44  69  95 134 181 234 281 331 416
#     4  11  27  48  69 102 142 178 230 294 349 399
#
# _framework density 21.025749000000001
#
# number of rings (size 3 to 8) (size 9 to 14) (size 15 to 20)
#    0.000    1.000    5.000    2.000    4.667    5.333 
#    3.000    0.000    0.000    0.000    0.000    0.000 
#    0.000    0.000    0.000    0.000    0.000    0.000 
#
# Total GULP energy -134139.314093 kJ/mol
# GULP energy per Si atom -5589.138087 kJ/mol
# Density = 2.097789 g / cm^3
# Si number density = 21.025749 Si / 1000 Ang^3
#
#
#
# Elastic Constant Matrix: (Units=GPa)
#
#
# Indices 1 2 3 4 5 6 
#
# 1 57.3261 10.3080 30.2048 0.0000 -1.9064 0.0000
# 2 10.3080 77.2204 23.3241 0.0000 5.4866 0.0000
# 3 30.2048 23.3241 150.3914 0.0000 14.9678 0.0000
# 4 0.0000 0.0000 0.0000 30.1098 0.0000 -2.2795
# 5 -1.9064 5.4866 14.9678 0.0000 41.0704 0.0000
# 6 0.0000 0.0000 0.0000 -2.2795 0.0000 25.4763
#
#
#
# Elastic Compliance Matrix: (Units=1/GPa)
#
#
# Indices 1 2 3 4 5 6 
#
# 1 0.019938 -0.001635 -0.004010 0.000000 0.002605 0.000000
# 2 -0.001635 0.013767 -0.001677 0.000000 -0.001304 0.000000
# 3 -0.004010 -0.001677 0.008001 0.000000 -0.002878 0.000000
# 4 0.000000 0.000000 0.000000 0.033438 0.000000 0.002992
# 5 0.002605 -0.001304 -0.002878 0.000000 0.025692 0.000000
# 6 0.000000 0.000000 0.000000 0.002992 0.000000 0.039520
#
#
# Mechanical properties :
#
#
# Convention : Reuss Voigt Hill
#
# Bulk Modulus (GPa) = 36.95262 45.84575 41.39919
# Shear Modulus (GPa) = 30.48373 34.07136 32.27754
#
# Velocity S-wave (km/s) = 3.81179 4.02986 3.92234
# Velocity P-wave (km/s) = 6.08162 6.59583 6.34394
#
# Compressibility (1/GPa) = 0.02706168
#
# Stress axis : x y z
#
# Youngs Moduli (GPa) = 50.15649 72.63529 124.98114
#
# Poissons Ratio (x) = 0.11878 0.50117
# Poissons Ratio (y) = 0.08202 0.20959
# Poissons Ratio (z) = 0.20113 0.12181
#
# Static dielectric constant tensor:
#      x y z
#    x 1.847160 0.000000 -0.077130 
#    y 0.000000 1.792080 0.000000 
#    z -0.077130 0.000000 1.759210 
# 
# From -- ./inp_files/152444.got.cif
#   From: 2010.05.17/outbox.cif.g08.bks.cpg/sg15_77_cif.got.tgz:152444.got - 2010.06.03 18:47:42.
