data_PCOD9292261
_publ_section_title
;
Structure prediction by ZEFSAII (Michael W. Deem and Ramdas Pophale) SiO2 
 PCOD9292261
Probable space group: C 2/C
;
_chemical_formula_sum "Si O2"
_cell_formula_units_Z 60
_cell_length_a 24.649290
_cell_length_b 17.639937
_cell_length_c 10.895009
_cell_angle_alpha 90.000000
_cell_angle_beta 39.342695
_cell_angle_gamma 90.000000
_cell_volume 3003.233298
_symmetry_space_group_name_H-M "C 2/C"
_symmetry_group_IT_number 15
_symmetry_cell_setting 'monoclinic'
loop_
_space_group_symop_operation_xyz
x,y,z
-x,y,1/2-z
-x,-y,-z
x,-y,1/2+z
1/2+x,1/2+y,z
1/2-x,1/2+y,1/2-z
1/2-x,1/2-y,-z
1/2+x,1/2-y,1/2+z
loop_
_atom_site_type_symbol
_atom_site_label
_atom_site_fract_x
_atom_site_fract_y
_atom_site_fract_z
Si Si1 0.375260 0.157864 0.620338
Si Si2 0.013030 0.938244 0.085242
Si Si3 0.357322 0.322277 0.331866
Si Si4 0.437097 0.835415 0.615364
Si Si5 0.699682 0.907820 0.499330
Si Si6 0.824426 0.828117 0.674379
Si Si7 0.500000 0.111420 0.750000
Si Si8 0.177315 0.424040 0.042409
O O1 0.477904 0.157742 0.451261
O O2 0.343806 0.125205 0.546391
O O3 0.346304 0.245251 0.689782
O O4 0.337604 0.105275 0.793801
O O5 0.000000 0.967168 0.250000
O O6 0.938708 0.876911 0.194657
O O7 0.102074 0.890772 0.923756
O O8 0.000000 0.000000 0.000000
O O9 0.388313 0.241956 0.228719
O O10 0.282525 0.358426 0.383268
O O11 0.324665 0.316069 0.528054
O O12 0.369756 0.900099 0.769794
O O13 0.469306 0.840367 0.420118
O O14 0.723433 0.995643 0.449790
O O15 0.734085 0.860860 0.875973
O O16 0.416713 0.065945 0.852309
#
# Coordination Sequence:
#
# PCOD9292261 Si02
#       8
#     8   8   8   8   8   8   4   8
#     4  11  25  43  71  97 130 184 217 278 332 408
#     4  10  22  43  68  97 135 177 223 280 343 396
#     4  11  23  42  69  99 128 175 221 280 327 399
#     4  11  23  45  67  99 128 174 230 267 346 389
#     4  12  26  40  71  99 136 173 229 274 333 410
#     4  11  22  45  72  93 136 172 228 273 334 407
#     4  10  26  42  68  92 138 170 214 286 320 402
#     4  11  27  44  65 100 138 175 221 275 346 387
#
# _framework density 19.978469
#
# number of rings (size 3 to 8) (size 9 to 14) (size 15 to 20)
#    0.000    1.067    2.667    2.800    7.467    1.067 
#    3.600    0.000    0.000    0.000    0.000    0.000 
#    0.000    0.000    0.000    0.000    0.000    0.000 
#
# Total GULP energy -167715.609442 kJ/mol
# GULP energy per Si atom -5590.520315 kJ/mol
# Density = 1.993300 g / cm^3
# Si number density = 19.978469 Si / 1000 Ang^3
#
#
#
# Elastic Constant Matrix: (Units=GPa)
#
#
# Indices 1 2 3 4 5 6 
#
# 1 107.8822 19.8138 26.5774 0.0000 5.0645 0.0000
# 2 19.8138 78.0149 6.5129 0.0000 11.2299 0.0000
# 3 26.5774 6.5129 68.4042 0.0000 -1.2963 0.0000
# 4 0.0000 0.0000 0.0000 15.9858 0.0000 -2.7563
# 5 5.0645 11.2299 -1.2963 0.0000 28.7286 0.0000
# 6 0.0000 0.0000 0.0000 -2.7563 0.0000 19.9891
#
#
#
# Elastic Compliance Matrix: (Units=1/GPa)
#
#
# Indices 1 2 3 4 5 6 
#
# 1 0.010712 -0.002216 -0.003974 0.000000 -0.001201 0.000000
# 2 -0.002216 0.014175 -0.000587 0.000000 -0.005177 0.000000
# 3 -0.003974 -0.000587 0.016250 0.000000 0.001663 0.000000
# 4 0.000000 0.000000 0.000000 0.064079 0.000000 0.008836
# 5 -0.001201 -0.005177 0.001663 0.000000 0.037119 0.000000
# 6 0.000000 0.000000 0.000000 0.008836 0.000000 0.051246
#
#
# Mechanical properties :
#
#
# Convention : Reuss Voigt Hill
#
# Bulk Modulus (GPa) = 36.25241 40.01217 38.13229
# Shear Modulus (GPa) = 23.11306 26.36718 24.74012
#
# Velocity S-wave (km/s) = 3.40501 3.63682 3.52282
# Velocity P-wave (km/s) = 5.80034 6.14055 5.97287
#
# Compressibility (1/GPa) = 0.02758437
#
# Stress axis : x y z
#
# Youngs Moduli (GPa) = 93.35618 70.54681 61.53745
#
# Poissons Ratio (x) = 0.15632 0.24453
# Poissons Ratio (y) = 0.20686 0.03611
# Poissons Ratio (z) = 0.37096 0.04140
#
# Static dielectric constant tensor:
#      x y z
#    x 1.708450 0.000000 0.003340 
#    y 0.000000 1.686810 0.000000 
#    z 0.003340 0.000000 1.693680 
# 
# From -- ./inp_files/119448.got.cif
#   From: 2010.05.17/outbox.cif.g08.bks.cpg/sg15_60_cif.got.tgz:119448.got - 2010.06.03 18:47:42.
