data_PCOD9292747
_publ_section_title
;
Structure prediction by ZEFSAII (Michael W. Deem and Ramdas Pophale) SiO2 
 PCOD9292747
Probable space group: C 2/C
;
_chemical_formula_sum "Si O2"
_cell_formula_units_Z 64
_cell_length_a 11.844159
_cell_length_b 17.091592
_cell_length_c 14.648984
_cell_angle_alpha 90.000000
_cell_angle_beta 87.591831
_cell_angle_gamma 90.000000
_cell_volume 2962.855926
_symmetry_space_group_name_H-M "C 2/C"
_symmetry_group_IT_number 15
_symmetry_cell_setting 'monoclinic'
loop_
_space_group_symop_operation_xyz
x,y,z
-x,y,1/2-z
-x,-y,-z
x,-y,1/2+z
1/2+x,1/2+y,z
1/2-x,1/2+y,1/2-z
1/2-x,1/2-y,-z
1/2+x,1/2-y,1/2+z
loop_
_atom_site_type_symbol
_atom_site_label
_atom_site_fract_x
_atom_site_fract_y
_atom_site_fract_z
Si Si1 0.383092 0.242145 0.503945
Si Si2 0.108449 0.970687 0.554531
Si Si3 0.528202 0.352724 0.845143
Si Si4 0.186505 0.976903 0.745376
Si Si5 0.607737 0.868101 0.804944
Si Si6 0.948417 0.196663 0.660762
Si Si7 0.747589 0.911625 0.103944
Si Si8 0.528158 0.092095 0.507536
O O1 0.250000 0.250000 0.500000
O O2 0.410347 0.294963 0.590370
O O3 0.454702 0.277184 0.415047
O O4 0.423880 0.152595 0.517079
O O5 0.140796 0.010084 0.650098
O O6 0.211087 0.967264 0.480750
O O7 0.078472 0.884642 0.594644
O O8 0.000000 0.000000 0.500000
O O9 0.500000 0.313673 0.750000
O O10 0.593750 0.432257 0.811292
O O11 0.278580 0.909829 0.726448
O O12 0.246843 0.042507 0.801993
O O13 0.500000 0.896357 0.750000
O O14 0.609128 0.774838 0.796539
O O15 0.586486 0.886397 0.910425
O O16 0.849388 0.150437 0.612223
O O17 0.000000 0.155593 0.750000
O O18 0.620889 0.888394 0.082075
O O19 0.500000 0.000000 0.500000
#
# Coordination Sequence:
#
# PCOD9292747 Si02
#       8
#     8   8   8   8   8   8   8   8
#     4  11  26  47  76 104 139 189 237 300 360 432
#     4  11  22  40  63 102 141 182 231 289 347 423
#     4  10  23  40  66  99 139 178 232 291 353 420
#     4  11  24  40  69 100 135 188 227 287 363 415
#     4  10  22  44  67  93 134 182 231 279 350 429
#     4  10  25  44  71 106 140 182 234 291 353 426
#     4  12  24  42  73 100 143 183 233 301 345 425
#     4  11  26  48  70 102 138 186 240 291 362 428
#
# _framework density 21.600781000000001
#
# number of rings (size 3 to 8) (size 9 to 14) (size 15 to 20)
#    0.000    1.250    3.750    0.750    8.750    4.000 
#    2.250    0.625    0.000    0.000    0.000    0.000 
#    0.000    0.000    0.000    0.000    0.000    0.000 
#
# Total GULP energy -178609.808601 kJ/mol
# GULP energy per Si atom -5581.556519 kJ/mol
# Density = 2.155162 g / cm^3
# Si number density = 21.600781 Si / 1000 Ang^3
#
#
#
# Elastic Constant Matrix: (Units=GPa)
#
#
# Indices 1 2 3 4 5 6 
#
# 1 129.9775 44.7648 46.5387 0.0000 23.0687 0.0000
# 2 44.7648 55.7379 34.3818 0.0000 15.6929 0.0000
# 3 46.5387 34.3818 142.3131 0.0000 36.0944 0.0000
# 4 0.0000 0.0000 0.0000 35.1028 0.0000 5.1096
# 5 23.0687 15.6929 36.0944 0.0000 35.2825 0.0000
# 6 0.0000 0.0000 0.0000 5.1096 0.0000 31.8689
#
#
#
# Elastic Compliance Matrix: (Units=1/GPa)
#
#
# Indices 1 2 3 4 5 6 
#
# 1 0.011177 -0.007484 -0.001131 0.000000 -0.002822 0.000000
# 2 -0.007484 0.026956 -0.003059 0.000000 -0.003967 0.000000
# 3 -0.001131 -0.003059 0.010267 0.000000 -0.008403 0.000000
# 4 0.000000 0.000000 0.000000 0.029168 0.000000 -0.004677
# 5 -0.002822 -0.003967 -0.008403 0.000000 0.040548 0.000000
# 6 0.000000 0.000000 0.000000 -0.004677 0.000000 0.032128
#
#
# Mechanical properties :
#
#
# Convention : Reuss Voigt Hill
#
# Bulk Modulus (GPa) = 39.91869 64.37767 52.14818
# Shear Modulus (GPa) = 27.48097 33.94040 30.71068
#
# Velocity S-wave (km/s) = 3.57069 3.96821 3.77469
# Velocity P-wave (km/s) = 5.95987 7.13188 6.57205
#
# Compressibility (1/GPa) = 0.02505092
#
# Stress axis : x y z
#
# Youngs Moduli (GPa) = 89.46802 37.09791 97.40039
#
# Poissons Ratio (x) = 0.27766 0.11018
# Poissons Ratio (y) = 0.66962 0.29792
# Poissons Ratio (z) = 0.10121 0.11347
#
# Static dielectric constant tensor:
#      x y z
#    x 1.753120 0.000000 0.037550 
#    y 0.000000 1.822280 0.000000 
#    z 0.037550 0.000000 1.804610 
# 
# From -- ./inp_files/146090.got.cif
#   From: 2010.05.17/outbox.cif.g08.bks.cpg/sg15_74_cif.got.tgz:146090.got - 2010.06.03 18:47:42.
