data_PCOD9292570
_publ_section_title
;
Structure prediction by ZEFSAII (Michael W. Deem and Ramdas Pophale) SiO2 
 PCOD9292570
Probable space group: C 2/C
;
_chemical_formula_sum "Si O2"
_cell_formula_units_Z 48
_cell_length_a 9.728783
_cell_length_b 22.830290
_cell_length_c 12.046735
_cell_angle_alpha 90.000000
_cell_angle_beta 59.746500
_cell_angle_gamma 90.000000
_cell_volume 2311.292337
_symmetry_space_group_name_H-M "C 2/C"
_symmetry_group_IT_number 15
_symmetry_cell_setting 'monoclinic'
loop_
_space_group_symop_operation_xyz
x,y,z
-x,y,1/2-z
-x,-y,-z
x,-y,1/2+z
1/2+x,1/2+y,z
1/2-x,1/2+y,1/2-z
1/2-x,1/2-y,-z
1/2+x,1/2-y,1/2+z
loop_
_atom_site_type_symbol
_atom_site_label
_atom_site_fract_x
_atom_site_fract_y
_atom_site_fract_z
Si Si1 0.000000 0.579095 0.750000
Si Si2 0.635022 0.603462 0.487976
Si Si3 0.000000 0.956310 0.250000
Si Si4 0.772896 0.518069 0.249558
Si Si5 0.971282 0.191738 0.388194
Si Si6 0.098310 0.679696 0.547289
Si Si7 0.990526 0.623422 0.381305
O O1 0.142972 0.536792 0.726871
O O2 0.036797 0.622126 0.633612
O O3 0.517001 0.582091 0.631899
O O4 0.672172 0.552516 0.383635
O O5 0.573046 0.657070 0.437997
O O6 0.803715 0.616020 0.479261
O O7 0.155582 0.996589 0.201359
O O8 0.910595 0.562627 0.152646
O O9 0.995038 0.261812 0.380395
O O10 0.785556 0.184444 0.493722
O O11 0.000000 0.170236 0.250000
O O12 0.071675 0.669448 0.428300
O O13 0.000000 0.642275 0.250000
#
# Coordination Sequence:
#
# PCOD9292570 Si02
#       7
#     4   8   4   8   8   8   8
#     4  12  22  44  69 101 136 170 228 278 336 404
#     4  11  24  44  64  97 138 177 224 276 338 401
#     4  12  26  38  61 105 132 178 222 274 346 390
#     4  11  24  41  68  98 140 176 218 280 339 412
#     4  11  24  47  68  98 132 176 237 275 332 393
#     4  11  25  41  72  97 131 179 227 285 324 398
#     4  10  22  44  63  97 128 180 219 265 349 394
#
# _framework density 20.767603000000001
#
# number of rings (size 3 to 8) (size 9 to 14) (size 15 to 20)
#    0.000    1.000    3.333    4.500    5.833    2.000 
#    1.500    0.000    0.000    0.000    0.000    0.000 
#    0.000    0.000    0.000    0.000    0.000    0.000 
#
# Total GULP energy -134171.971342 kJ/mol
# GULP energy per Si atom -5590.498806 kJ/mol
# Density = 2.072034 g / cm^3
# Si number density = 20.767603 Si / 1000 Ang^3
#
#
#
# Elastic Constant Matrix: (Units=GPa)
#
#
# Indices 1 2 3 4 5 6 
#
# 1 111.4053 45.9634 25.9534 0.0000 13.9640 0.0000
# 2 45.9634 111.5713 43.0061 0.0000 9.5265 0.0000
# 3 25.9534 43.0061 43.8585 0.0000 -3.7104 0.0000
# 4 0.0000 0.0000 0.0000 8.8187 0.0000 -3.6774
# 5 13.9640 9.5265 -3.7104 0.0000 25.7329 0.0000
# 6 0.0000 0.0000 0.0000 -3.6774 0.0000 17.5103
#
#
#
# Elastic Compliance Matrix: (Units=1/GPa)
#
#
# Indices 1 2 3 4 5 6 
#
# 1 0.011988 -0.002326 -0.005355 0.000000 -0.006416 0.000000
# 2 -0.002326 0.016430 -0.015329 0.000000 -0.007030 0.000000
# 3 -0.005355 -0.015329 0.042242 0.000000 0.014672 0.000000
# 4 0.000000 0.000000 0.000000 0.124279 0.000000 0.026100
# 5 -0.006416 -0.007030 0.014672 0.000000 0.047061 0.000000
# 6 0.000000 0.000000 0.000000 0.026100 0.000000 0.062590
#
#
# Mechanical properties :
#
#
# Convention : Reuss Voigt Hill
#
# Bulk Modulus (GPa) = 40.58708 55.18677 47.88692
# Shear Modulus (GPa) = 13.93437 20.53988 17.23712
#
# Velocity S-wave (km/s) = 2.59311 3.14830 2.88410
# Velocity P-wave (km/s) = 5.34336 6.31244 5.84801
#
# Compressibility (1/GPa) = 0.02463838
#
# Stress axis : x y z
#
# Youngs Moduli (GPa) = 83.41725 60.86308 23.67305
#
# Poissons Ratio (x) = 0.14160 0.12678
# Poissons Ratio (y) = 0.19407 0.36289
# Poissons Ratio (z) = 0.44674 0.93298
#
# Static dielectric constant tensor:
#      x y z
#    x 1.771290 0.000000 -0.032690 
#    y 0.000000 1.737190 0.000000 
#    z -0.032690 0.000000 1.770160 
# 
# From -- ./inp_files/79824.got.cif
#   From: 2010.05.17/outbox.cif.g08.bks.cpg/sg15_40_cif.got.tgz:79824.got - 2010.06.03 18:47:42.
