data_PCOD9292799
_publ_section_title
;
Structure prediction by ZEFSAII (Michael W. Deem and Ramdas Pophale) SiO2 
 PCOD9292799
Probable space group: C 2/C
;
_chemical_formula_sum "Si O2"
_cell_formula_units_Z 36
_cell_length_a 5.728816
_cell_length_b 24.038566
_cell_length_c 10.060144
_cell_angle_alpha 90.000000
_cell_angle_beta 95.439042
_cell_angle_gamma 90.000000
_cell_volume 1379.170147
_symmetry_space_group_name_H-M "C 2/C"
_symmetry_group_IT_number 15
_symmetry_cell_setting 'monoclinic'
loop_
_space_group_symop_operation_xyz
x,y,z
-x,y,1/2-z
-x,-y,-z
x,-y,1/2+z
1/2+x,1/2+y,z
1/2-x,1/2+y,1/2-z
1/2-x,1/2-y,-z
1/2+x,1/2-y,1/2+z
loop_
_atom_site_type_symbol
_atom_site_label
_atom_site_fract_x
_atom_site_fract_y
_atom_site_fract_z
Si Si1 0.458587 0.717329 0.583649
Si Si2 0.339419 0.121563 0.869148
Si Si3 0.676223 0.000385 0.632184
Si Si4 0.311590 0.168493 0.395084
Si Si5 0.500000 0.589611 0.250000
O O1 0.250000 0.750000 0.500000
O O2 0.317097 0.674870 0.666291
O O3 0.622109 0.768268 0.637947
O O4 0.600551 0.678369 0.488605
O O5 0.500000 0.115637 0.750000
O O6 0.214442 0.062191 0.869898
O O7 0.491411 0.136078 0.009064
O O8 0.500000 0.992114 0.750000
O O9 0.882574 0.954602 0.641639
O O10 0.500000 0.000000 0.500000
O O11 0.216477 0.133614 0.264764
#
# Coordination Sequence:
#
# PCOD9292799 Si02
#       5
#     8   8   8   8   4
#     4   9  21  44  69  97 142 188 243 308 374 438
#     4  10  22  44  69 102 147 192 246 304 376 455
#     4  11  26  46  73 111 151 200 255 313 379 453
#     4  10  22  44  68 106 139 189 251 302 376 453
#     4  12  26  44  78 104 144 198 248 308 382 452
#
# _framework density 26.102653
#
# number of rings (size 3 to 8) (size 9 to 14) (size 15 to 20)
#    0.000    1.778    2.222    0.000    3.111    5.333 
#   22.000    0.000    0.000    0.000    0.000    0.000 
#    0.000    0.000    0.000    0.000    0.000    0.000 
#
# Total GULP energy -100518.548334 kJ/mol
# GULP energy per Si atom -5584.363796 kJ/mol
# Density = 2.604324 g / cm^3
# Si number density = 26.102653 Si / 1000 Ang^3
#
#
#
# Elastic Constant Matrix: (Units=GPa)
#
#
# Indices 1 2 3 4 5 6 
#
# 1 58.3548 38.0795 32.8396 0.0000 31.4999 0.0000
# 2 38.0795 223.3588 20.4695 0.0000 30.9687 0.0000
# 3 32.8396 20.4695 127.3821 0.0000 25.6931 0.0000
# 4 0.0000 0.0000 0.0000 32.9352 0.0000 32.4339
# 5 31.4999 30.9687 25.6931 0.0000 63.1553 0.0000
# 6 0.0000 0.0000 0.0000 32.4339 0.0000 47.1153
#
#
#
# Elastic Compliance Matrix: (Units=1/GPa)
#
#
# Indices 1 2 3 4 5 6 
#
# 1 0.027003 -0.002768 -0.004438 0.000000 -0.010306 0.000000
# 2 -0.002768 0.005100 0.000131 0.000000 -0.001173 0.000000
# 3 -0.004438 0.000131 0.009303 0.000000 -0.001635 0.000000
# 4 0.000000 0.000000 0.000000 0.094269 0.000000 -0.064895
# 5 -0.010306 -0.001173 -0.001635 0.000000 0.022215 0.000000
# 6 0.000000 0.000000 0.000000 -0.064895 0.000000 0.065898
#
#
# Mechanical properties :
#
#
# Convention : Reuss Voigt Hill
#
# Bulk Modulus (GPa) = 36.68961 65.76365 51.22663
# Shear Modulus (GPa) = 20.24090 49.82163 35.03126
#
# Velocity S-wave (km/s) = 2.78768 4.37358 3.66738
# Velocity P-wave (km/s) = 4.94449 7.12413 6.13193
#
# Compressibility (1/GPa) = 0.02725568
#
# Stress axis : x y z
#
# Youngs Moduli (GPa) = 37.03229 196.08968 107.48752
#
# Poissons Ratio (x) = 0.54280 0.47704
# Poissons Ratio (y) = 0.10251 -0.01406
# Poissons Ratio (z) = 0.16435 -0.02564
#
# Static dielectric constant tensor:
#      x y z
#    x 2.070390 0.000000 -0.086950 
#    y 0.000000 2.023250 0.000000 
#    z -0.086950 0.000000 2.276550 
# 
# From -- ./inp_files/72431.got.cif
#   From: 2010.05.17/outbox.cif.g08.bks.cpg/sg15_37_cif.got.tgz:72431.got - 2010.06.03 18:47:42.
