data_PCOD9292402
_publ_section_title
;
Structure prediction by ZEFSAII (Michael W. Deem and Ramdas Pophale) SiO2 
 PCOD9292402
Probable space group: C 2/C
;
_chemical_formula_sum "Si O2"
_cell_formula_units_Z 40
_cell_length_a 15.508302
_cell_length_b 8.872029
_cell_length_c 24.814079
_cell_angle_alpha 90.000000
_cell_angle_beta 29.834783
_cell_angle_gamma 90.000000
_cell_volume 1698.552729
_symmetry_space_group_name_H-M "C 2/C"
_symmetry_group_IT_number 15
_symmetry_cell_setting 'monoclinic'
loop_
_space_group_symop_operation_xyz
x,y,z
-x,y,1/2-z
-x,-y,-z
x,-y,1/2+z
1/2+x,1/2+y,z
1/2-x,1/2+y,1/2-z
1/2-x,1/2-y,-z
1/2+x,1/2-y,1/2+z
loop_
_atom_site_type_symbol
_atom_site_label
_atom_site_fract_x
_atom_site_fract_y
_atom_site_fract_z
Si Si1 0.442244 0.299543 0.417788
Si Si2 0.394093 0.636505 0.461383
Si Si3 0.491963 0.821095 0.000215
Si Si4 0.140914 0.348006 0.720189
Si Si5 0.505855 0.161438 0.811118
O O1 0.250000 0.250000 0.500000
O O2 0.447824 0.465506 0.439261
O O3 0.526529 0.200655 0.418788
O O4 0.565321 0.275758 0.300873
O O5 0.399109 0.743354 0.511092
O O6 0.519638 0.701606 0.346092
O O7 0.187752 0.615181 0.563211
O O8 0.314035 0.725956 0.104142
O O9 0.500000 0.000000 0.000000
O O10 0.000000 0.366198 0.750000
O O11 0.136281 0.519284 0.746371
O O12 0.500000 0.201364 0.750000
#
# Coordination Sequence:
#
# PCOD9292402 Si02
#       5
#     8   8   8   8   8
#     4  12  23  44  73 103 148 197 242 301 375 445
#     4  11  25  42  71 108 147 186 242 313 365 435
#     4  12  28  46  72 111 153 190 255 319 370 437
#     4  11  23  44  74 101 146 201 241 295 383 448
#     4  10  22  43  71 101 146 190 242 292 373 447
#
# _framework density 23.549458999999999
#
# number of rings (size 3 to 8) (size 9 to 14) (size 15 to 20)
#    0.000    0.800    4.000    3.000    2.800    7.200 
#    0.000    0.000    0.000    0.000    0.000    0.000 
#    0.000    0.000    0.000    0.000    0.000    0.000 
#
# Total GULP energy -111504.642549 kJ/mol
# GULP energy per Si atom -5575.232127 kJ/mol
# Density = 2.349586 g / cm^3
# Si number density = 23.549459 Si / 1000 Ang^3
#
#
#
# Elastic Constant Matrix: (Units=GPa)
#
#
# Indices 1 2 3 4 5 6 
#
# 1 60.3743 40.6195 -0.2845 0.0007 9.1444 0.0001
# 2 40.6195 168.1051 4.7462 -0.0001 1.8080 0.0000
# 3 -0.2845 4.7462 87.7721 0.0010 -1.9353 0.0003
# 4 0.0007 -0.0001 0.0010 621.6293 0.0015 91.8445
# 5 9.1444 1.8080 -1.9353 0.0015 34.7690 0.0002
# 6 0.0001 0.0000 0.0003 91.8445 0.0002 41.1766
#
#
#
# Elastic Compliance Matrix: (Units=1/GPa)
#
#
# Indices 1 2 3 4 5 6 
#
# 1 0.020675 -0.004946 0.000221 0.000000 -0.005168 0.000000
# 2 -0.004946 0.007145 -0.000382 0.000000 0.000908 0.000000
# 3 0.000221 -0.000382 0.011428 0.000000 0.000598 0.000000
# 4 0.000000 0.000000 0.000000 0.002399 0.000000 -0.005352
# 5 -0.005168 0.000908 0.000598 0.000000 0.030107 0.000000
# 6 0.000000 0.000000 0.000000 -0.005352 0.000000 0.036223
#
#
# Mechanical properties :
#
#
# Convention : Reuss Voigt Hill
#
# Bulk Modulus (GPa) = 34.44569 45.15712 39.80141
# Shear Modulus (GPa) = 39.10213 157.59298 98.34756
#
# Velocity S-wave (km/s) = 4.07925 8.18934 6.46937
# Velocity P-wave (km/s) = 6.07007 10.42293 8.52887
#
# Compressibility (1/GPa) = 0.02903121
#
# Stress axis : x y z
#
# Youngs Moduli (GPa) = 48.36747 139.96008 87.50656
#
# Poissons Ratio (x) = 0.69230 -0.01930
# Poissons Ratio (y) = 0.23924 0.03346
# Poissons Ratio (z) = -0.01067 0.05352
#
# Static dielectric constant tensor:
#      x y z
#    x 2.015970 0.000000 -0.052970 
#    y 0.000000 2.027850 0.000000 
#    z -0.052970 0.000000 1.867320 
# 
# From -- ./inp_files/298292.got.cif
#   From: 2010.05.17/outbox.cif.g08.bks.cpg/sg15_150_cif.got.tgz:298292.got - 2010.06.03 18:47:42.
