data_PCOD9292243
_publ_section_title
;
Structure prediction by ZEFSAII (Michael W. Deem and Ramdas Pophale) SiO2 
 PCOD9292243
Probable space group: C 2/C
;
_chemical_formula_sum "Si O2"
_cell_formula_units_Z 40
_cell_length_a 14.084525
_cell_length_b 12.345648
_cell_length_c 10.843674
_cell_angle_alpha 90.000000
_cell_angle_beta 91.527239
_cell_angle_gamma 90.000000
_cell_volume 1884.856297
_symmetry_space_group_name_H-M "C 2/C"
_symmetry_group_IT_number 15
_symmetry_cell_setting 'monoclinic'
loop_
_space_group_symop_operation_xyz
x,y,z
-x,y,1/2-z
-x,-y,-z
x,-y,1/2+z
1/2+x,1/2+y,z
1/2-x,1/2+y,1/2-z
1/2-x,1/2-y,-z
1/2+x,1/2-y,1/2+z
loop_
_atom_site_type_symbol
_atom_site_label
_atom_site_fract_x
_atom_site_fract_y
_atom_site_fract_z
Si Si1 0.215551 0.336204 0.169022
Si Si2 0.551397 0.557177 0.617753
Si Si3 0.331403 0.244547 0.401093
Si Si4 0.111350 0.542891 0.237703
Si Si5 0.218380 0.101743 0.082408
O O1 0.285185 0.297294 0.277988
O O2 0.136670 0.418162 0.214413
O O3 0.180547 0.222113 0.112258
O O4 0.271524 0.399911 0.064029
O O5 0.500000 0.558079 0.750000
O O6 0.500000 0.500000 0.500000
O O7 0.578226 0.678623 0.574819
O O8 0.648188 0.487622 0.632934
O O9 0.250000 0.250000 0.500000
O O10 0.357983 0.121327 0.373308
O O11 0.178034 0.582200 0.353397
O O12 0.000000 0.557934 0.250000
#
# Coordination Sequence:
#
# PCOD9292243 Si02
#       5
#     8   8   8   8   8
#     4  10  22  43  68  94 138 176 223 277 348 397
#     4  12  26  43  73 103 140 181 237 281 341 411
#     4  11  24  44  71  96 138 180 222 278 347 405
#     4  11  24  42  70  97 132 176 224 275 343 405
#     4  10  23  44  67  96 138 179 222 284 340 404
#
# _framework density 21.221778
#
# number of rings (size 3 to 8) (size 9 to 14) (size 15 to 20)
#    0.000    1.200    2.000    3.000    5.600    4.800 
#    0.000    0.000    0.000    0.000    0.000    0.000 
#    0.000    0.000    0.000    0.000    0.000    0.000 
#
# Total GULP energy -111721.047614 kJ/mol
# GULP energy per Si atom -5586.052381 kJ/mol
# Density = 2.117348 g / cm^3
# Si number density = 21.221778 Si / 1000 Ang^3
#
#
#
# Elastic Constant Matrix: (Units=GPa)
#
#
# Indices 1 2 3 4 5 6 
#
# 1 94.9106 22.9666 28.6323 0.0000 -1.1316 0.0000
# 2 22.9666 91.3672 4.4013 0.0000 -3.9712 0.0000
# 3 28.6323 4.4013 93.9290 0.0000 -5.3623 0.0000
# 4 0.0000 0.0000 0.0000 23.8473 0.0000 -15.7837
# 5 -1.1316 -3.9712 -5.3623 0.0000 24.8819 0.0000
# 6 0.0000 0.0000 0.0000 -15.7837 0.0000 24.3286
#
#
#
# Elastic Compliance Matrix: (Units=1/GPa)
#
#
# Indices 1 2 3 4 5 6 
#
# 1 0.012350 -0.002958 -0.003666 0.000000 -0.000701 0.000000
# 2 -0.002958 0.011746 0.000456 0.000000 0.001839 0.000000
# 3 -0.003666 0.000456 0.011883 0.000000 0.002467 0.000000
# 4 0.000000 0.000000 0.000000 0.073490 0.000000 0.047678
# 5 -0.000701 0.001839 0.002467 0.000000 0.040983 0.000000
# 6 0.000000 0.000000 0.000000 0.047678 0.000000 0.072036
#
#
# Mechanical properties :
#
#
# Convention : Reuss Voigt Hill
#
# Bulk Modulus (GPa) = 42.29452 43.57858 42.93655
# Shear Modulus (GPa) = 20.60112 29.55867 25.07989
#
# Velocity S-wave (km/s) = 3.11907 3.73613 3.44146
# Velocity P-wave (km/s) = 5.73973 6.26027 6.00564
#
# Compressibility (1/GPa) = 0.02364372
#
# Stress axis : x y z
#
# Youngs Moduli (GPa) = 80.97427 85.13280 84.15195
#
# Poissons Ratio (x) = 0.25183 0.30849
# Poissons Ratio (y) = 0.23953 -0.03840
# Poissons Ratio (z) = 0.29684 -0.03884
#
# Static dielectric constant tensor:
#      x y z
#    x 1.788170 0.000000 0.030550 
#    y 0.000000 1.900980 0.000000 
#    z 0.030550 0.000000 1.788440 
# 
# From -- ./inp_files/94516.got.cif
#   From: 2010.05.17/outbox.cif.g08.bks.cpg/sg15_48_cif.got.tgz:94516.got - 2010.06.03 18:47:42.
