data_PCOD9292378
_publ_section_title
;
Structure prediction by ZEFSAII (Michael W. Deem and Ramdas Pophale) SiO2 
 PCOD9292378
Probable space group: C 2/C
;
_chemical_formula_sum "Si O2"
_cell_formula_units_Z 48
_cell_length_a 24.003814
_cell_length_b 9.596854
_cell_length_c 14.196625
_cell_angle_alpha 90.000000
_cell_angle_beta 39.045755
_cell_angle_gamma 90.000000
_cell_volume 2060.126976
_symmetry_space_group_name_H-M "C 2/C"
_symmetry_group_IT_number 15
_symmetry_cell_setting 'monoclinic'
loop_
_space_group_symop_operation_xyz
x,y,z
-x,y,1/2-z
-x,-y,-z
x,-y,1/2+z
1/2+x,1/2+y,z
1/2-x,1/2+y,1/2-z
1/2-x,1/2-y,-z
1/2+x,1/2-y,1/2+z
loop_
_atom_site_type_symbol
_atom_site_label
_atom_site_fract_x
_atom_site_fract_y
_atom_site_fract_z
Si Si1 0.634795 0.801824 0.204514
Si Si2 0.357335 0.202961 0.116727
Si Si3 0.189343 0.091966 0.982999
Si Si4 0.995021 0.835232 0.484397
Si Si5 0.663882 0.300357 0.952400
Si Si6 0.404071 0.020815 0.407767
O O1 0.707621 0.877237 0.172793
O O2 0.550934 0.749704 0.370293
O O3 0.616758 0.908082 0.144532
O O4 0.673047 0.664092 0.104444
O O5 0.362639 0.326593 0.031087
O O6 0.253808 0.180372 0.274402
O O7 0.409207 0.260827 0.140130
O O8 0.396831 0.064389 0.015527
O O9 0.164498 0.932293 0.019717
O O10 0.926250 0.811690 0.490137
O O11 0.000000 0.000000 0.500000
O O12 0.662309 0.149432 0.001027
O O13 0.500000 0.074467 0.250000
#
# Coordination Sequence:
#
# PCOD9292378 Si02
#       6
#     8   8   8   8   8   8
#     4  10  23  45  70  95 140 195 236 280 370 437
#     4  11  23  44  71 100 141 187 236 295 368 431
#     4  10  22  43  70  97 136 186 233 294 355 432
#     4  12  25  42  74 107 135 188 250 303 360 434
#     4  12  26  43  73 108 144 180 248 308 355 428
#     4  11  25  44  70 103 144 194 237 295 366 434
#
# _framework density 23.299534000000001
#
# number of rings (size 3 to 8) (size 9 to 14) (size 15 to 20)
#    0.000    1.000    5.000    1.000    0.000    4.000 
#    0.000    0.000    0.000    0.000    0.000    0.000 
#    0.000    0.000    0.000    0.000    0.000    0.000 
#
# Total GULP energy -134155.867104 kJ/mol
# GULP energy per Si atom -5589.827796 kJ/mol
# Density = 2.324650 g / cm^3
# Si number density = 23.299534 Si / 1000 Ang^3
#
#
#
# Elastic Constant Matrix: (Units=GPa)
#
#
# Indices 1 2 3 4 5 6 
#
# 1 90.1609 22.6733 11.6624 -0.0002 -15.5670 0.0001
# 2 22.6733 153.3847 27.0550 -0.0006 9.4117 0.0001
# 3 11.6624 27.0550 45.8596 -0.0003 -7.9525 0.0001
# 4 -0.0002 -0.0006 -0.0003 28.2597 0.0002 -5.4336
# 5 -15.5670 9.4117 -7.9525 0.0002 23.0869 0.0000
# 6 0.0001 0.0001 0.0001 -5.4336 0.0000 29.9083
#
#
#
# Elastic Compliance Matrix: (Units=1/GPa)
#
#
# Indices 1 2 3 4 5 6 
#
# 1 0.013508 -0.002590 -0.000154 0.000000 0.010111 0.000000
# 2 -0.002590 0.008293 -0.005448 0.000000 -0.007004 0.000000
# 3 -0.000154 -0.005448 0.027042 0.000000 0.011432 0.000000
# 4 0.000000 0.000000 0.000000 0.036667 0.000000 0.006661
# 5 0.010111 -0.007004 0.011432 0.000000 0.056926 0.000000
# 6 0.000000 0.000000 0.000000 0.006661 0.000000 0.034646
#
#
# Mechanical properties :
#
#
# Convention : Reuss Voigt Hill
#
# Bulk Modulus (GPa) = 30.80880 45.79851 38.30366
# Shear Modulus (GPa) = 24.47553 31.45194 27.96374
#
# Velocity S-wave (km/s) = 3.24462 3.67808 3.46813
# Velocity P-wave (km/s) = 5.22382 6.14303 5.70198
#
# Compressibility (1/GPa) = 0.03245826
#
# Stress axis : x y z
#
# Youngs Moduli (GPa) = 74.02850 120.58036 36.98007
#
# Poissons Ratio (x) = 0.31231 0.00569
# Poissons Ratio (y) = 0.19174 0.20149
# Poissons Ratio (z) = 0.01139 0.65698
#
# Static dielectric constant tensor:
#      x y z
#    x 1.958460 0.000000 -0.056500 
#    y 0.000000 1.849910 0.000000 
#    z -0.056500 0.000000 2.020360 
# 
# From -- ./inp_files/176873.got.cif
#   From: 2010.05.17/outbox.cif.g08.bks.cpg/sg15_89_cif.got.tgz:176873.got - 2010.06.03 18:47:42.
