data_PCOD9292827
_publ_section_title
;
Structure prediction by ZEFSAII (Michael W. Deem and Ramdas Pophale) SiO2 
 PCOD9292827
Probable space group: C 2/C
;
_chemical_formula_sum "Si O2"
_cell_formula_units_Z 52
_cell_length_a 11.447342
_cell_length_b 26.447227
_cell_length_c 8.803119
_cell_angle_alpha 90.000000
_cell_angle_beta 110.273081
_cell_angle_gamma 90.000000
_cell_volume 2500.047203
_symmetry_space_group_name_H-M "C 2/C"
_symmetry_group_IT_number 15
_symmetry_cell_setting 'monoclinic'
loop_
_space_group_symop_operation_xyz
x,y,z
-x,y,1/2-z
-x,-y,-z
x,-y,1/2+z
1/2+x,1/2+y,z
1/2-x,1/2+y,1/2-z
1/2-x,1/2-y,-z
1/2+x,1/2-y,1/2+z
loop_
_atom_site_type_symbol
_atom_site_label
_atom_site_fract_x
_atom_site_fract_y
_atom_site_fract_z
Si Si1 0.299838 0.830902 0.610955
Si Si2 0.000000 0.383324 0.250000
Si Si3 0.269549 0.044850 0.702472
Si Si4 0.042038 0.305939 0.528093
Si Si5 0.521472 0.699043 0.940880
Si Si6 0.216280 0.945626 0.528057
Si Si7 0.032802 0.909322 0.942686
O O1 0.405611 0.815826 0.539061
O O2 0.356058 0.818312 0.799516
O O3 0.169871 0.802684 0.529761
O O4 0.273200 0.890353 0.582200
O O5 0.890356 0.419666 0.258906
O O6 0.055803 0.345111 0.399124
O O7 0.216183 0.043723 0.848773
O O8 0.166067 0.067179 0.541221
O O9 0.292247 0.988485 0.651433
O O10 0.041219 0.245910 0.500150
O O11 0.500000 0.704321 0.750000
O O12 0.471941 0.645803 0.980931
O O13 0.076072 0.942469 0.528818
O O14 0.000000 0.905436 0.750000
#
# Coordination Sequence:
#
# PCOD9292827 Si02
#       7
#     8   4   8   8   8   8   8
#     4  10  22  44  68  95 131 179 227 274 338 406
#     4  12  30  42  66 100 146 180 232 274 332 410
#     4  12  26  46  68 101 135 180 227 281 341 406
#     4  11  24  43  66  95 139 183 222 277 332 406
#     4  11  23  40  72 102 131 179 227 278 342 396
#     4  11  24  45  73  97 134 175 226 283 344 398
#     4  11  25  44  71 103 135 170 227 289 342 399
#
# _framework density 20.799609
#
# number of rings (size 3 to 8) (size 9 to 14) (size 15 to 20)
#    0.000    0.923    3.077    4.154    7.538    1.846 
#    0.000    1.538    0.000    0.000    0.000    0.000 
#    0.000    0.000    0.000    0.000    0.000    0.000 
#
# Total GULP energy -145459.368362 kJ/mol
# GULP energy per Si atom -5594.591091 kJ/mol
# Density = 2.075227 g / cm^3
# Si number density = 20.799609 Si / 1000 Ang^3
#
#
#
# Elastic Constant Matrix: (Units=GPa)
#
#
# Indices 1 2 3 4 5 6 
#
# 1 35.7765 6.1974 11.5599 0.0000 0.4922 0.0000
# 2 6.1974 118.0279 40.0546 0.0000 0.5493 0.0000
# 3 11.5599 40.0546 29.9612 0.0000 -12.1899 0.0000
# 4 0.0000 0.0000 0.0000 32.0969 0.0000 0.8650
# 5 0.4922 0.5493 -12.1899 0.0000 20.9811 0.0000
# 6 0.0000 0.0000 0.0000 0.8650 0.0000 10.5258
#
#
#
# Elastic Compliance Matrix: (Units=1/GPa)
#
#
# Indices 1 2 3 4 5 6 
#
# 1 0.040002 0.012590 -0.042930 0.000000 -0.026210 0.000000
# 2 0.012590 0.025345 -0.051245 0.000000 -0.030732 0.000000
# 3 -0.042930 -0.051245 0.156366 0.000000 0.093197 0.000000
# 4 0.000000 0.000000 0.000000 0.031225 0.000000 -0.002566
# 5 -0.026210 -0.030732 0.093197 0.000000 0.103228 0.000000
# 6 0.000000 0.000000 0.000000 -0.002566 0.000000 0.095215
#
#
# Mechanical properties :
#
#
# Convention : Reuss Voigt Hill
#
# Bulk Modulus (GPa) = 17.08078 33.26551 25.17314
# Shear Modulus (GPa) = 7.88563 21.11766 14.50164
#
# Velocity S-wave (km/s) = 1.94922 3.18982 2.64333
# Velocity P-wave (km/s) = 3.64635 5.44010 4.63090
#
# Compressibility (1/GPa) = 0.05854535
#
# Stress axis : x y z
#
# Youngs Moduli (GPa) = 24.99865 39.45516 6.39525
#
# Poissons Ratio (x) = -0.49675 0.27455
# Poissons Ratio (y) = -0.31474 0.32772
# Poissons Ratio (z) = 1.07318 2.02187
#
# Static dielectric constant tensor:
#      x y z
#    x 1.726210 0.000000 -0.014590 
#    y 0.000000 1.749120 0.000000 
#    z -0.014590 0.000000 1.729630 
# 
# From -- ./inp_files/33737.got.cif
#   From: 2010.05.17/outbox.cif.g08.bks.cpg/sg15_17_cif.got.tgz:33737.got - 2010.06.03 18:47:42.
