data_PCOD9292625
_publ_section_title
;
Structure prediction by ZEFSAII (Michael W. Deem and Ramdas Pophale) SiO2 
 PCOD9292625
Probable space group: C 2/C
;
_chemical_formula_sum "Si O2"
_cell_formula_units_Z 48
_cell_length_a 9.504940
_cell_length_b 23.023414
_cell_length_c 11.256526
_cell_angle_alpha 90.000000
_cell_angle_beta 81.688570
_cell_angle_gamma 90.000000
_cell_volume 2437.462545
_symmetry_space_group_name_H-M "C 2/C"
_symmetry_group_IT_number 15
_symmetry_cell_setting 'monoclinic'
loop_
_space_group_symop_operation_xyz
x,y,z
-x,y,1/2-z
-x,-y,-z
x,-y,1/2+z
1/2+x,1/2+y,z
1/2-x,1/2+y,1/2-z
1/2-x,1/2-y,-z
1/2+x,1/2-y,1/2+z
loop_
_atom_site_type_symbol
_atom_site_label
_atom_site_fract_x
_atom_site_fract_y
_atom_site_fract_z
Si Si1 0.168675 0.942237 0.725968
Si Si2 0.160364 0.329155 0.190023
Si Si3 0.342900 0.228408 0.278077
Si Si4 0.696718 0.121203 0.060927
Si Si5 0.130721 0.364454 0.934248
Si Si6 0.662855 0.419913 0.198957
O O1 0.244347 0.917451 0.836325
O O2 0.249989 0.912412 0.606024
O O3 0.000000 0.927877 0.750000
O O4 0.183355 0.011111 0.708140
O O5 0.230480 0.275582 0.250710
O O6 0.240995 0.387025 0.218179
O O7 0.000000 0.333479 0.250000
O O8 0.160318 0.327838 0.048345
O O9 0.500000 0.256573 0.250000
O O10 0.302500 0.189650 0.398728
O O11 0.356523 0.179010 0.176972
O O12 0.529955 0.110259 0.050659
O O13 0.790075 0.105316 0.934857
O O14 0.500000 0.407529 0.250000
#
# Coordination Sequence:
#
# PCOD9292625 Si02
#       6
#     8   8   8   8   8   8
#     4  10  24  41  68  95 124 171 215 261 313 379
#     4  12  24  41  62 100 125 163 219 264 313 380
#     4   9  21  43  66  88 125 170 209 262 322 374
#     4  10  22  45  66  92 129 172 208 261 326 376
#     4  10  22  44  65  93 130 166 213 262 317 381
#     4  11  26  42  62  95 132 171 210 264 318 374
#
# _framework density 19.692609999999998
#
# number of rings (size 3 to 8) (size 9 to 14) (size 15 to 20)
#    0.000    1.667    1.667    2.500    4.667    6.667 
#    3.000    0.000    0.000    0.000    0.000    0.000 
#    0.000    0.000    0.000    0.000    0.000    0.000 
#
# Total GULP energy -133932.195098 kJ/mol
# GULP energy per Si atom -5580.508129 kJ/mol
# Density = 1.964779 g / cm^3
# Si number density = 19.692610 Si / 1000 Ang^3
#
#
#
# Elastic Constant Matrix: (Units=GPa)
#
#
# Indices 1 2 3 4 5 6 
#
# 1 143.3332 60.7537 13.9213 0.0000 -16.3839 0.0000
# 2 60.7537 54.4132 1.4479 0.0000 -13.4846 0.0000
# 3 13.9213 1.4479 61.5536 0.0000 -3.5527 0.0000
# 4 0.0000 0.0000 0.0000 -23.3114 0.0000 -9.6512
# 5 -16.3839 -13.4846 -3.5527 0.0000 30.1311 0.0000
# 6 0.0000 0.0000 0.0000 -9.6512 0.0000 30.0678
#
#
#
# Elastic Compliance Matrix: (Units=1/GPa)
#
#
# Indices 1 2 3 4 5 6 
#
# 1 0.013695 -0.015130 -0.002721 0.000000 0.000354 0.000000
# 2 -0.015130 0.037387 0.003054 0.000000 0.008865 0.000000
# 3 -0.002721 0.003054 0.016898 0.000000 0.001880 0.000000
# 4 0.000000 0.000000 0.000000 -0.037866 0.000000 -0.012154
# 5 0.000354 0.008865 0.001880 0.000000 0.037570 0.000000
# 6 0.000000 0.000000 0.000000 -0.012154 0.000000 0.029357
#
#
# Mechanical properties :
#
#
# Convention : Reuss Voigt Hill
#
# Bulk Modulus (GPa) = 26.05152 45.72731 35.88942
# Shear Modulus (GPa) = 35.86031 19.58930 27.72481
#
# Velocity S-wave (km/s) = 4.27195 3.15739 3.75624
# Velocity P-wave (km/s) = 6.13111 6.04675 6.08908
#
# Compressibility (1/GPa) = 0.03838548
#
# Stress axis : x y z
#
# Youngs Moduli (GPa) = 73.02104 26.74745 59.17847
#
# Poissons Ratio (x) = 0.40469 0.16102
# Poissons Ratio (y) = 1.10482 -0.18074
# Poissons Ratio (z) = 0.19868 -0.08169
#
# Static dielectric constant tensor:
#      x y z
#    x 1.747330 0.000000 0.042220 
#    y 0.000000 1.677820 0.000000 
#    z 0.042220 0.000000 1.746210 
# 
# From -- ./inp_files/79149.got.cif
#   From: 2010.05.17/outbox.cif.g08.bks.cpg/sg15_40_cif.got.tgz:79149.got - 2010.06.03 18:47:42.
