data_PCOD9292912
_publ_section_title
;
Structure prediction by ZEFSAII (Michael W. Deem and Ramdas Pophale) SiO2 
 PCOD9292912
Probable space group: C 2/C
;
_chemical_formula_sum "Si O2"
_cell_formula_units_Z 32
_cell_length_a 20.439251
_cell_length_b 7.476652
_cell_length_c 14.452499
_cell_angle_alpha 90.000000
_cell_angle_beta 148.116236
_cell_angle_gamma 90.000000
_cell_volume 1166.572219
_symmetry_space_group_name_H-M "C 2/C"
_symmetry_group_IT_number 15
_symmetry_cell_setting 'monoclinic'
loop_
_space_group_symop_operation_xyz
x,y,z
-x,y,1/2-z
-x,-y,-z
x,-y,1/2+z
1/2+x,1/2+y,z
1/2-x,1/2+y,1/2-z
1/2-x,1/2-y,-z
1/2+x,1/2-y,1/2+z
loop_
_atom_site_type_symbol
_atom_site_label
_atom_site_fract_x
_atom_site_fract_y
_atom_site_fract_z
Si Si1 0.431622 0.403010 0.802102
Si Si2 0.764639 0.443185 0.563527
Si Si3 0.135429 0.815011 0.578341
Si Si4 0.530592 0.041819 0.929371
O O1 0.337730 0.429367 0.605571
O O2 0.501830 0.591254 0.899417
O O3 0.540675 0.253780 0.928220
O O4 0.353537 0.342204 0.798734
O O5 0.750000 0.250000 0.500000
O O6 0.734699 0.417034 0.635975
O O7 0.904601 0.506062 0.721247
O O8 0.129513 0.613483 0.531956
O O9 0.500000 0.000000 0.000000
#
# Coordination Sequence:
#
# PCOD9292912 Si02
#       4
#     8   8   8   8
#     4  10  22  44  69  99 134 181 231 272 342 408
#     4  12  24  43  71 102 138 180 225 282 350 403
#     4  10  23  46  67  98 144 175 222 295 333 407
#     4  10  23  46  67  98 135 178 232 278 343 402
#
# _framework density 27.430792
#
# number of rings (size 3 to 8) (size 9 to 14) (size 15 to 20)
#    0.000    1.500    2.500    1.500    0.000    4.000 
#   13.500    0.000    0.000    0.000    0.000    0.000 
#    0.000    0.000    0.000    0.000    0.000    0.000 
#
# Total GULP energy -89648.479968 kJ/mol
# GULP energy per Si atom -5603.029998 kJ/mol
# Density = 2.736836 g / cm^3
# Si number density = 27.430792 Si / 1000 Ang^3
#
#
#
# Elastic Constant Matrix: (Units=GPa)
#
#
# Indices 1 2 3 4 5 6 
#
# 1 122.4818 20.4671 14.1116 0.0000 -14.6097 0.0000
# 2 20.4671 157.8887 43.8928 0.0000 -3.8603 0.0000
# 3 14.1116 43.8928 90.6751 0.0000 -5.0610 0.0000
# 4 0.0000 0.0000 0.0000 44.2290 0.0000 3.5935
# 5 -14.6097 -3.8603 -5.0610 0.0000 28.4556 0.0000
# 6 0.0000 0.0000 0.0000 3.5935 0.0000 39.0837
#
#
#
# Elastic Compliance Matrix: (Units=1/GPa)
#
#
# Indices 1 2 3 4 5 6 
#
# 1 0.008906 -0.000844 -0.000736 0.000000 0.004327 0.000000
# 2 -0.000844 0.007402 -0.003454 0.000000 -0.000044 0.000000
# 3 -0.000736 -0.003454 0.012896 0.000000 0.001447 0.000000
# 4 0.000000 0.000000 0.000000 0.022780 0.000000 -0.002094
# 5 0.004327 -0.000044 0.001447 0.000000 0.037616 0.000000
# 6 0.000000 0.000000 0.000000 -0.002094 0.000000 0.025779
#
#
# Mechanical properties :
#
#
# Convention : Reuss Voigt Hill
#
# Bulk Modulus (GPa) = 52.25799 58.66543 55.46171
# Shear Modulus (GPa) = 37.92882 41.85859 39.89370
#
# Velocity S-wave (km/s) = 3.72251 3.91061 3.81772
# Velocity P-wave (km/s) = 6.12930 6.46712 6.30047
#
# Compressibility (1/GPa) = 0.01913583
#
# Stress axis : x y z
#
# Youngs Moduli (GPa) = 112.27758 135.09485 77.54482
#
# Poissons Ratio (x) = 0.11404 0.05707
# Poissons Ratio (y) = 0.09478 0.26786
# Poissons Ratio (z) = 0.08263 0.46665
#
# Static dielectric constant tensor:
#      x y z
#    x 2.173740 0.000000 -0.022170 
#    y 0.000000 2.192840 0.000000 
#    z -0.022170 0.000000 2.062930 
# 
# From -- ./inp_files/102375.got.cif
#   From: 2010.05.17/outbox.cif.g08.bks.cpg/sg15_52_cif.got.tgz:102375.got - 2010.06.03 18:47:42.
