data_PCOD9292066
_publ_section_title
;
Structure prediction by ZEFSAII (Michael W. Deem and Ramdas Pophale) SiO2 
 PCOD9292066
Probable space group: C 2/C
;
_chemical_formula_sum "Si O2"
_cell_formula_units_Z 48
_cell_length_a 25.884709
_cell_length_b 7.191746
_cell_length_c 11.029913
_cell_angle_alpha 90.000000
_cell_angle_beta 62.148530
_cell_angle_gamma 90.000000
_cell_volume 1815.437866
_symmetry_space_group_name_H-M "C 2/C"
_symmetry_group_IT_number 15
_symmetry_cell_setting 'monoclinic'
loop_
_space_group_symop_operation_xyz
x,y,z
-x,y,1/2-z
-x,-y,-z
x,-y,1/2+z
1/2+x,1/2+y,z
1/2-x,1/2+y,1/2-z
1/2-x,1/2-y,-z
1/2+x,1/2-y,1/2+z
loop_
_atom_site_type_symbol
_atom_site_label
_atom_site_fract_x
_atom_site_fract_y
_atom_site_fract_z
Si Si1 0.127237 0.346889 0.510321
Si Si2 0.823490 0.883186 0.904532
Si Si3 0.789828 0.930495 0.690691
Si Si4 0.938660 0.391706 0.572541
Si Si5 0.442853 0.430004 0.253729
Si Si6 0.321951 0.022698 0.325828
O O1 0.164905 0.244375 0.364836
O O2 0.097433 0.544348 0.508832
O O3 0.076234 0.218081 0.620541
O O4 0.175778 0.343916 0.561561
O O5 0.793910 0.994248 0.824616
O O6 0.805054 0.672873 0.901941
O O7 0.891543 0.922423 0.804139
O O8 0.812129 0.942769 0.055129
O O9 0.722272 0.906486 0.727780
O O10 0.947707 0.185420 0.620774
O O11 0.890368 0.475916 0.716528
O O12 0.000000 0.500000 0.500000
O O13 0.500000 0.518298 0.250000
#
# Coordination Sequence:
#
# PCOD9292066 Si02
#       6
#     8   8   8   8   8   8
#     4  10  22  43  69 101 139 187 243 305 371 432
#     4  11  26  46  71 110 146 196 248 303 375 445
#     4  11  25  47  71 106 150 188 249 305 375 440
#     4  11  22  42  72  99 141 192 252 299 368 441
#     4  10  22  43  66 101 146 193 241 308 365 436
#     4  11  25  42  71 104 143 191 242 306 372 448
#
# _framework density 26.439903000000001
#
# number of rings (size 3 to 8) (size 9 to 14) (size 15 to 20)
#    0.000    1.333    3.333    1.000    4.667    4.000 
#    3.000    4.167    0.000    0.000    0.000    0.000 
#    0.000    0.000    0.000    0.000    0.000    0.000 
#
# Total GULP energy -133965.769331 kJ/mol
# GULP energy per Si atom -5581.907055 kJ/mol
# Density = 2.637972 g / cm^3
# Si number density = 26.439903 Si / 1000 Ang^3
#
#
#
# Elastic Constant Matrix: (Units=GPa)
#
#
# Indices 1 2 3 4 5 6 
#
# 1 181.2419 19.2501 33.0323 0.0000 2.5693 0.0000
# 2 19.2501 48.4422 -6.1885 0.0000 14.3581 0.0000
# 3 33.0323 -6.1885 82.3360 0.0000 14.4717 0.0000
# 4 0.0000 0.0000 0.0000 32.7768 0.0000 -0.7909
# 5 2.5693 14.3581 14.4717 0.0000 48.3790 0.0000
# 6 0.0000 0.0000 0.0000 -0.7909 0.0000 30.3949
#
#
#
# Elastic Compliance Matrix: (Units=1/GPa)
#
#
# Indices 1 2 3 4 5 6 
#
# 1 0.006427 -0.003430 -0.003119 0.000000 0.001610 0.000000
# 2 -0.003430 0.025210 0.004807 0.000000 -0.008738 0.000000
# 3 -0.003119 0.004807 0.014755 0.000000 -0.005675 0.000000
# 4 0.000000 0.000000 0.000000 0.030529 0.000000 0.000794
# 5 0.001610 -0.008738 -0.005675 0.000000 0.024875 0.000000
# 6 0.000000 0.000000 0.000000 0.000794 0.000000 0.032921
#
#
# Mechanical properties :
#
#
# Convention : Reuss Voigt Hill
#
# Bulk Modulus (GPa) = 23.30582 44.91199 34.10890
# Shear Modulus (GPa) = 32.78575 40.03855 36.41215
#
# Velocity S-wave (km/s) = 3.52520 3.89565 3.71505
# Velocity P-wave (km/s) = 5.04015 6.10394 5.59738
#
# Compressibility (1/GPa) = 0.04290774
#
# Stress axis : x y z
#
# Youngs Moduli (GPa) = 155.58240 39.66693 67.77156
#
# Poissons Ratio (x) = 0.13605 0.21140
# Poissons Ratio (y) = 0.53361 -0.32575
# Poissons Ratio (z) = 0.48531 -0.19066
#
# Static dielectric constant tensor:
#      x y z
#    x 2.089770 0.000000 0.047120 
#    y 0.000000 2.099990 0.000000 
#    z 0.047120 0.000000 2.183500 
# 
# From -- ./inp_files/116727.got.cif
#   From: 2010.05.17/outbox.cif.g08.bks.cpg/sg15_59_cif.got.tgz:116727.got - 2010.06.03 18:47:42.
