data_PCOD9292390
_publ_section_title
;
Structure prediction by ZEFSAII (Michael W. Deem and Ramdas Pophale) SiO2 
 PCOD9292390
Probable space group: C 2/C
;
_chemical_formula_sum "Si O2"
_cell_formula_units_Z 44
_cell_length_a 26.311784
_cell_length_b 17.943623
_cell_length_c 10.613567
_cell_angle_alpha 90.000000
_cell_angle_beta 157.873568
_cell_angle_gamma 90.000000
_cell_volume 1887.390116
_symmetry_space_group_name_H-M "C 2/C"
_symmetry_group_IT_number 15
_symmetry_cell_setting 'monoclinic'
loop_
_space_group_symop_operation_xyz
x,y,z
-x,y,1/2-z
-x,-y,-z
x,-y,1/2+z
1/2+x,1/2+y,z
1/2-x,1/2+y,1/2-z
1/2-x,1/2-y,-z
1/2+x,1/2-y,1/2+z
loop_
_atom_site_type_symbol
_atom_site_label
_atom_site_fract_x
_atom_site_fract_y
_atom_site_fract_z
Si Si1 0.187912 0.374494 0.817901
Si Si2 0.000000 0.815021 0.250000
Si Si3 0.757982 0.781784 0.376778
Si Si4 0.000000 0.514898 0.750000
Si Si5 0.747295 0.072443 0.723369
Si Si6 0.500000 0.760502 0.250000
Si Si7 0.564356 0.552221 0.752221
O O1 0.111598 0.302093 0.593590
O O2 0.076046 0.436180 0.528660
O O3 0.241098 0.379296 0.081922
O O4 0.311536 0.399995 0.015908
O O5 0.032965 0.879722 0.429217
O O6 0.128464 0.762154 0.518771
O O7 0.750000 0.750000 0.500000
O O8 0.744712 0.870517 0.334156
O O9 0.898923 0.771111 0.625237
O O10 0.891852 0.469552 0.579240
O O11 0.864585 0.009608 0.992288
O O12 0.500000 0.500000 0.500000
#
# Coordination Sequence:
#
# PCOD9292390 Si02
#       7
#     8   4   8   4   8   4   8
#     4  10  22  43  70  99 139 185 243 298 364 447
#     4  12  25  47  71 107 144 194 244 310 379 437
#     4  12  29  47  73 108 152 195 249 309 378 453
#     4   9  21  40  68 107 135 180 238 310 366 440
#     4  11  24  42  70 106 138 194 242 305 377 446
#     4  11  26  49  69 100 143 198 242 296 373 445
#     4  11  23  44  70 103 142 189 243 307 370 442
#
# _framework density 23.312614
#
# number of rings (size 3 to 8) (size 9 to 14) (size 15 to 20)
#    0.000    1.091    1.818    3.273    5.091    5.818 
#    0.000    0.000    0.000    0.000    0.000    0.000 
#    0.000    0.000    0.000    0.000    0.000    0.000 
#
# Total GULP energy -122588.609258 kJ/mol
# GULP energy per Si atom -5572.209512 kJ/mol
# Density = 2.325955 g / cm^3
# Si number density = 23.312614 Si / 1000 Ang^3
#
#
#
# Elastic Constant Matrix: (Units=GPa)
#
#
# Indices 1 2 3 4 5 6 
#
# 1 66.8034 7.2769 12.6505 0.0000 2.5179 0.0000
# 2 7.2769 58.2070 10.0492 0.0000 20.2573 0.0000
# 3 12.6505 10.0492 69.2909 0.0000 11.0847 0.0000
# 4 0.0000 0.0000 0.0000 2.0320 0.0000 -0.0858
# 5 2.5179 20.2573 11.0847 0.0000 48.3596 0.0000
# 6 0.0000 0.0000 0.0000 -0.0858 0.0000 43.3748
#
#
#
# Elastic Compliance Matrix: (Units=1/GPa)
#
#
# Indices 1 2 3 4 5 6 
#
# 1 0.015642 -0.001665 -0.002694 0.000000 0.000500 0.000000
# 2 -0.001665 0.020468 -0.001357 0.000000 -0.008176 0.000000
# 3 -0.002694 -0.001357 0.015578 0.000000 -0.002862 0.000000
# 4 0.000000 0.000000 0.000000 0.492168 0.000000 0.000973
# 5 0.000500 -0.008176 -0.002862 0.000000 0.024733 0.000000
# 6 0.000000 0.000000 0.000000 0.000973 0.000000 0.023057
#
#
# Mechanical properties :
#
#
# Convention : Reuss Voigt Hill
#
# Bulk Modulus (GPa) = 24.84024 28.25051 26.54537
# Shear Modulus (GPa) = 8.11034 29.70826 18.90930
#
# Velocity S-wave (km/s) = 1.86722 3.57367 2.85110
# Velocity P-wave (km/s) = 3.91498 5.40116 4.71697
#
# Compressibility (1/GPa) = 0.04025727
#
# Stress axis : x y z
#
# Youngs Moduli (GPa) = 63.93048 48.85716 64.19117
#
# Poissons Ratio (x) = 0.08132 0.17296
# Poissons Ratio (y) = 0.10641 0.08708
# Poissons Ratio (z) = 0.17226 0.06628
#
# Static dielectric constant tensor:
#      x y z
#    x 2.016190 0.000000 -0.060660 
#    y 0.000000 1.900430 0.000000 
#    z -0.060660 0.000000 1.868190 
# 
# From -- ./inp_files/127337.got.cif
#   From: 2010.05.17/outbox.cif.g08.bks.cpg/sg15_64_cif.got.tgz:127337.got - 2010.06.03 18:47:42.
