data_PCOD9292455
_publ_section_title
;
Structure prediction by ZEFSAII (Michael W. Deem and Ramdas Pophale) SiO2 
 PCOD9292455
Probable space group: C 2/C
;
_chemical_formula_sum "Si O2"
_cell_formula_units_Z 40
_cell_length_a 15.818314
_cell_length_b 10.713082
_cell_length_c 21.111805
_cell_angle_alpha 90.000000
_cell_angle_beta 26.441133
_cell_angle_gamma 90.000000
_cell_volume 1593.057034
_symmetry_space_group_name_H-M "C 2/C"
_symmetry_group_IT_number 15
_symmetry_cell_setting 'monoclinic'
loop_
_space_group_symop_operation_xyz
x,y,z
-x,y,1/2-z
-x,-y,-z
x,-y,1/2+z
1/2+x,1/2+y,z
1/2-x,1/2+y,1/2-z
1/2-x,1/2-y,-z
1/2+x,1/2-y,1/2+z
loop_
_atom_site_type_symbol
_atom_site_label
_atom_site_fract_x
_atom_site_fract_y
_atom_site_fract_z
Si Si1 0.500000 0.468504 0.250000
Si Si2 0.578113 0.411324 0.834100
Si Si3 0.678436 0.152353 0.597539
Si Si4 0.500000 0.927013 0.750000
Si Si5 0.219338 0.173963 0.758438
Si Si6 0.813242 0.725954 0.557392
O O1 0.456441 0.539810 0.214182
O O2 0.317615 0.380231 0.385857
O O3 0.500000 0.215741 0.750000
O O4 0.689357 0.526804 0.792725
O O5 0.369950 0.389689 0.004720
O O6 0.750000 0.250000 0.500000
O O7 0.680889 0.277509 0.764873
O O8 0.575872 0.023686 0.646029
O O9 0.674131 0.844135 0.653716
O O10 0.337425 0.182058 0.613665
O O11 0.005986 0.231059 0.894992
#
# Coordination Sequence:
#
# PCOD9292455 Si02
#       6
#     4   8   8   4   8   8
#     4   9  24  41  76 108 144 180 258 294 358 416
#     4  11  25  48  71 109 145 195 235 303 359 436
#     4  10  23  41  66 102 139 180 240 299 351 409
#     4   9  20  41  74  96 140 186 252 288 356 428
#     4  11  25  44  72 104 151 190 241 290 375 427
#     4  10  22  43  72 105 142 194 236 300 358 440
#
# _framework density 25.108958000000001
#
# number of rings (size 3 to 8) (size 9 to 14) (size 15 to 20)
#    0.600    1.200    2.000    0.000    4.200    9.600 
#    0.000    0.000    0.000    1.200    0.000    0.000 
#    0.000    0.000    0.000    0.000    0.000    0.000 
#
# Total GULP energy -111641.921588 kJ/mol
# GULP energy per Si atom -5582.096079 kJ/mol
# Density = 2.505181 g / cm^3
# Si number density = 25.108958 Si / 1000 Ang^3
#
#
#
# Elastic Constant Matrix: (Units=GPa)
#
#
# Indices 1 2 3 4 5 6 
#
# 1 73.5145 52.4951 12.7804 -0.0004 -8.3732 -0.0012
# 2 52.4951 165.3361 42.7480 0.0034 -5.7559 -0.0026
# 3 12.7804 42.7480 134.2428 0.0009 -10.4853 -0.0024
# 4 -0.0004 0.0034 0.0009 40.4107 -0.0005 -15.3563
# 5 -8.3732 -5.7559 -10.4853 -0.0005 31.3332 0.0015
# 6 -0.0012 -0.0026 -0.0024 -15.3563 0.0015 42.5451
#
#
#
# Elastic Compliance Matrix: (Units=1/GPa)
#
#
# Indices 1 2 3 4 5 6 
#
# 1 0.018047 -0.005698 0.000402 0.000001 0.003910 0.000000
# 2 -0.005698 0.008398 -0.002187 -0.000001 -0.000712 0.000000
# 3 0.000402 -0.002187 0.008301 0.000000 0.002484 0.000000
# 4 0.000001 -0.000001 0.000000 0.028680 0.000000 0.010352
# 5 0.003910 -0.000712 0.002484 0.000000 0.033660 -0.000001
# 6 0.000000 0.000000 0.000000 0.010352 -0.000001 0.027241
#
#
# Mechanical properties :
#
#
# Convention : Reuss Voigt Hill
#
# Bulk Modulus (GPa) = 50.55720 65.46006 58.00863
# Shear Modulus (GPa) = 34.27302 40.52915 37.40109
#
# Velocity S-wave (km/s) = 3.69856 4.02198 3.86366
# Velocity P-wave (km/s) = 6.19822 6.90619 6.56176
#
# Compressibility (1/GPa) = 0.01977957
#
# Stress axis : x y z
#
# Youngs Moduli (GPa) = 55.41108 119.07424 120.46028
#
# Poissons Ratio (x) = 0.67845 -0.04838
# Poissons Ratio (y) = 0.31572 0.26350
# Poissons Ratio (z) = -0.02226 0.26047
#
# Static dielectric constant tensor:
#      x y z
#    x 2.039970 0.000000 0.044180 
#    y 0.000000 2.012200 0.000000 
#    z 0.044180 0.000000 2.014320 
# 
# From -- ./inp_files/248536.got.cif
#   From: 2010.05.17/outbox.cif.g08.bks.cpg/sg15_125_cif.got.tgz:248536.got - 2010.06.03 18:47:42.
