data_PCOD9292976
_publ_section_title
;
Structure prediction by ZEFSAII (Michael W. Deem and Ramdas Pophale) SiO2 
 PCOD9292976
Probable space group: C 2/C
;
_chemical_formula_sum "Si O2"
_cell_formula_units_Z 44
_cell_length_a 12.023251
_cell_length_b 6.960055
_cell_length_c 24.901008
_cell_angle_alpha 90.000000
_cell_angle_beta 62.045151
_cell_angle_gamma 90.000000
_cell_volume 1840.637384
_symmetry_space_group_name_H-M "C 2/C"
_symmetry_group_IT_number 15
_symmetry_cell_setting 'monoclinic'
loop_
_space_group_symop_operation_xyz
x,y,z
-x,y,1/2-z
-x,-y,-z
x,-y,1/2+z
1/2+x,1/2+y,z
1/2-x,1/2+y,1/2-z
1/2-x,1/2-y,-z
1/2+x,1/2-y,1/2+z
loop_
_atom_site_type_symbol
_atom_site_label
_atom_site_fract_x
_atom_site_fract_y
_atom_site_fract_z
Si Si1 0.318726 0.074178 0.158870
Si Si2 0.496562 0.386594 0.945218
Si Si3 0.582474 0.774108 0.563656
Si Si4 0.779636 0.699994 0.360785
Si Si5 0.500000 0.000000 0.000000
Si Si6 0.129748 0.395461 0.240445
O O1 0.435137 0.145042 0.095195
O O2 0.242926 0.252908 0.199822
O O3 0.229616 0.927459 0.147579
O O4 0.371528 0.952542 0.197107
O O5 0.420375 0.544656 0.928613
O O6 0.636280 0.371937 0.890152
O O7 0.500000 0.500000 0.000000
O O8 0.451174 0.174818 0.970052
O O9 0.653984 0.854842 0.598506
O O10 0.615726 0.854802 0.497498
O O11 0.853025 0.590560 0.297230
O O12 0.000000 0.303360 0.250000
#
# Coordination Sequence:
#
# PCOD9292976 Si02
#       6
#     8   8   8   8   4   8
#     4  12  25  43  68 100 138 176 226 282 337 405
#     4  10  23  44  68 101 137 175 226 280 336 402
#     4  11  24  44  70 100 135 178 231 278 337 409
#     4  12  25  43  73  99 134 187 224 278 344 409
#     4  10  22  44  70  96 140 174 220 288 334 394
#     4  12  26  43  70 101 135 178 227 279 342 403
#
# _framework density 23.904762999999999
#
# number of rings (size 3 to 8) (size 9 to 14) (size 15 to 20)
#    0.000    0.727    7.273    0.000    0.000    8.000 
#    0.000    2.727    0.000    0.000    0.000    0.000 
#    0.000    0.000    0.000    0.000    0.000    0.000 
#
# Total GULP energy -122505.919035 kJ/mol
# GULP energy per Si atom -5568.450865 kJ/mol
# Density = 2.385036 g / cm^3
# Si number density = 23.904763 Si / 1000 Ang^3
#
#
#
# Elastic Constant Matrix: (Units=GPa)
#
#
# Indices 1 2 3 4 5 6 
#
# 1 60.5303 12.3034 8.2041 0.0000 19.7939 0.0000
# 2 12.3034 130.3235 -2.7678 0.0000 -1.1171 0.0000
# 3 8.2041 -2.7678 41.5354 0.0000 9.0843 0.0000
# 4 0.0000 0.0000 0.0000 40.9769 0.0000 3.4773
# 5 19.7939 -1.1171 9.0843 0.0000 52.8645 0.0000
# 6 0.0000 0.0000 0.0000 3.4773 0.0000 28.8593
#
#
#
# Elastic Compliance Matrix: (Units=1/GPa)
#
#
# Indices 1 2 3 4 5 6 
#
# 1 0.019517 -0.001954 -0.002471 0.000000 -0.006924 0.000000
# 2 -0.001954 0.007880 0.000743 0.000000 0.000771 0.000000
# 3 -0.002471 0.000743 0.025361 0.000000 -0.003417 0.000000
# 4 0.000000 0.000000 0.000000 0.024656 0.000000 -0.002971
# 5 -0.006924 0.000771 -0.003417 0.000000 0.022112 0.000000
# 6 0.000000 0.000000 0.000000 -0.002971 0.000000 0.035009
#
#
# Mechanical properties :
#
#
# Convention : Reuss Voigt Hill
#
# Bulk Modulus (GPa) = 22.02994 29.76318 25.89656
# Shear Modulus (GPa) = 31.84074 38.85012 35.34543
#
# Velocity S-wave (km/s) = 3.65359 4.03576 3.84942
# Velocity P-wave (km/s) = 5.19943 5.84758 5.53300
#
# Compressibility (1/GPa) = 0.04539277
#
# Stress axis : x y z
#
# Youngs Moduli (GPa) = 51.23705 126.90202 39.43101
#
# Poissons Ratio (x) = 0.24801 0.09743
# Poissons Ratio (y) = 0.10014 -0.02928
# Poissons Ratio (z) = 0.12660 -0.09424
#
# Static dielectric constant tensor:
#      x y z
#    x 1.915800 0.000000 -0.039220 
#    y 0.000000 1.893350 0.000000 
#    z -0.039220 0.000000 1.559370 
# 
# From -- ./inp_files/294212.got.cif
#   From: 2010.05.17/outbox.cif.g08.bks.cpg/sg15_148_cif.got.tgz:294212.got - 2010.06.03 18:47:42.
