data_PCOD9292961
_publ_section_title
;
Structure prediction by ZEFSAII (Michael W. Deem and Ramdas Pophale) SiO2 
 PCOD9292961
Probable space group: C 2/C
;
_chemical_formula_sum "Si O2"
_cell_formula_units_Z 44
_cell_length_a 8.337285
_cell_length_b 18.627983
_cell_length_c 12.106497
_cell_angle_alpha 90.000000
_cell_angle_beta 68.135744
_cell_angle_gamma 90.000000
_cell_volume 1744.974698
_symmetry_space_group_name_H-M "C 2/C"
_symmetry_group_IT_number 15
_symmetry_cell_setting 'monoclinic'
loop_
_space_group_symop_operation_xyz
x,y,z
-x,y,1/2-z
-x,-y,-z
x,-y,1/2+z
1/2+x,1/2+y,z
1/2-x,1/2+y,1/2-z
1/2-x,1/2-y,-z
1/2+x,1/2-y,1/2+z
loop_
_atom_site_type_symbol
_atom_site_label
_atom_site_fract_x
_atom_site_fract_y
_atom_site_fract_z
Si Si1 0.299279 0.911664 0.668943
Si Si2 0.000000 0.015658 0.750000
Si Si3 0.500000 0.751149 0.250000
Si Si4 0.130572 0.372795 0.083451
Si Si5 0.000000 0.512371 0.750000
Si Si6 0.261224 0.637974 0.913847
Si Si7 0.732087 0.202418 0.159918
O O1 0.264083 0.890114 0.552523
O O2 0.356062 0.840011 0.717844
O O3 0.454357 0.965833 0.655296
O O4 0.140743 0.957843 0.758690
O O5 0.886299 0.071199 0.853894
O O6 0.643540 0.801090 0.152730
O O7 0.420123 0.708886 0.169469
O O8 0.149066 0.435294 0.168082
O O9 0.930480 0.372940 0.089701
O O10 0.322642 0.716182 0.852152
O O11 0.242684 0.654722 0.048159
#
# Coordination Sequence:
#
# PCOD9292961 Si02
#       7
#     8   4   4   8   4   8   8
#     4  12  25  41  70 103 137 182 232 288 350 418
#     4  12  27  43  67 111 148 168 226 310 367 383
#     4   9  21  44  68  97 133 180 234 288 330 418
#     4  10  22  44  70  91 132 188 232 265 342 428
#     4  11  22  41  69  94 129 184 232 270 329 437
#     4  10  23  46  69  97 140 186 227 289 349 421
#     4  10  23  43  68 100 136 183 238 279 348 424
#
# _framework density 25.215264999999999
#
# number of rings (size 3 to 8) (size 9 to 14) (size 15 to 20)
#    0.000    1.455    1.818    2.182    2.545    6.545 
#    3.273    0.000    0.000    0.000    0.000    0.000 
#    0.000    0.000    0.000    0.000    0.000    0.000 
#
# Total GULP energy -122761.481582 kJ/mol
# GULP energy per Si atom -5580.067345 kJ/mol
# Density = 2.515787 g / cm^3
# Si number density = 25.215265 Si / 1000 Ang^3
#
#
#
# Elastic Constant Matrix: (Units=GPa)
#
#
# Indices 1 2 3 4 5 6 
#
# 1 56.4934 17.3450 21.0567 0.0000 0.8339 0.0000
# 2 17.3450 128.2934 40.9824 0.0000 -1.4775 0.0000
# 3 21.0567 40.9824 129.3010 0.0000 27.4042 0.0000
# 4 0.0000 0.0000 0.0000 11.2957 0.0000 -19.3711
# 5 0.8339 -1.4775 27.4042 0.0000 37.7041 0.0000
# 6 0.0000 0.0000 0.0000 -19.3711 0.0000 7.8444
#
#
#
# Elastic Compliance Matrix: (Units=1/GPa)
#
#
# Indices 1 2 3 4 5 6 
#
# 1 0.019289 -0.001638 -0.002977 0.000000 0.001673 0.000000
# 2 -0.001638 0.009062 -0.003178 0.000000 0.002701 0.000000
# 3 -0.002977 -0.003178 0.010921 0.000000 -0.007996 0.000000
# 4 0.000000 0.000000 0.000000 -0.027368 0.000000 -0.067582
# 5 0.001673 0.002701 -0.007996 0.000000 0.032403 0.000000
# 6 0.000000 0.000000 0.000000 -0.067582 0.000000 -0.039409
#
#
# Mechanical properties :
#
#
# Convention : Reuss Voigt Hill
#
# Bulk Modulus (GPa) = 42.21747 52.53956 47.37852
# Shear Modulus (GPa) = 176.18480 27.01576 101.60028
#
# Velocity S-wave (km/s) = 8.36803 3.27678 6.35458
# Velocity P-wave (km/s) = 10.49497 5.93280 8.52474
#
# Compressibility (1/GPa) = 0.02368687
#
# Stress axis : x y z
#
# Youngs Moduli (GPa) = 51.84361 110.34604 91.56950
#
# Poissons Ratio (x) = 0.18071 0.27257
# Poissons Ratio (y) = 0.08490 0.29102
# Poissons Ratio (z) = 0.15432 0.35070
#
# Static dielectric constant tensor:
#      x y z
#    x 2.183510 0.000000 -0.109290 
#    y 0.000000 1.987810 0.000000 
#    z -0.109290 0.000000 1.970110 
# 
# From -- ./inp_files/78170.got.cif
#   From: 2010.05.17/outbox.cif.g08.bks.cpg/sg15_40_cif.got.tgz:78170.got - 2010.06.03 18:47:42.
