data_PCOD9292927
_publ_section_title
;
Structure prediction by ZEFSAII (Michael W. Deem and Ramdas Pophale) SiO2 
 PCOD9292927
Probable space group: C 2/C
;
_chemical_formula_sum "Si O2"
_cell_formula_units_Z 40
_cell_length_a 29.919820
_cell_length_b 5.378356
_cell_length_c 13.174160
_cell_angle_alpha 90.000000
_cell_angle_beta 130.778544
_cell_angle_gamma 90.000000
_cell_volume 1605.331867
_symmetry_space_group_name_H-M "C 2/C"
_symmetry_group_IT_number 15
_symmetry_cell_setting 'monoclinic'
loop_
_space_group_symop_operation_xyz
x,y,z
-x,y,1/2-z
-x,-y,-z
x,-y,1/2+z
1/2+x,1/2+y,z
1/2-x,1/2+y,1/2-z
1/2-x,1/2-y,-z
1/2+x,1/2-y,1/2+z
loop_
_atom_site_type_symbol
_atom_site_label
_atom_site_fract_x
_atom_site_fract_y
_atom_site_fract_z
Si Si1 0.479594 0.654837 0.066638
Si Si2 0.412830 0.552295 0.157690
Si Si3 0.190384 0.374534 0.447538
Si Si4 0.118889 0.689005 0.208238
Si Si5 0.760985 0.146639 0.703616
O O1 0.442692 0.494512 0.094352
O O2 0.538643 0.730868 0.213969
O O3 0.500000 0.500000 0.000000
O O4 0.433233 0.847674 0.949943
O O5 0.351869 0.696502 0.050972
O O6 0.403650 0.328532 0.223204
O O7 0.250000 0.250000 0.500000
O O8 0.151663 0.443365 0.293045
O O9 0.212703 0.613689 0.542486
O O10 0.172584 0.849188 0.240944
O O11 0.749264 0.402168 0.744284
#
# Coordination Sequence:
#
# PCOD9292927 Si02
#       5
#     8   8   8   8   8
#     4   9  21  44  71 102 138 189 245 308 373 447
#     4  10  22  44  70 100 145 186 247 307 370 452
#     4  12  25  43  69 107 149 193 249 306 376 452
#     4  11  24  42  71 100 146 192 244 307 373 446
#     4  12  27  44  72 111 150 199 249 305 378 449
#
# _framework density 24.916965000000001
#
# number of rings (size 3 to 8) (size 9 to 14) (size 15 to 20)
#    0.000    1.200    2.000    3.000    5.600    0.800 
#    0.000    8.000    0.000    0.000    0.000    0.000 
#    0.000    0.000    0.000    0.000    0.000    0.000 
#
# Total GULP energy -111913.211847 kJ/mol
# GULP energy per Si atom -5595.660592 kJ/mol
# Density = 2.486025 g / cm^3
# Si number density = 24.916965 Si / 1000 Ang^3
#
#
#
# Elastic Constant Matrix: (Units=GPa)
#
#
# Indices 1 2 3 4 5 6 
#
# 1 193.7089 44.1430 50.7353 0.0000 -0.3709 0.0000
# 2 44.1430 73.5462 19.8886 -0.0001 0.3832 0.0003
# 3 50.7353 19.8886 108.7163 0.0000 16.0842 0.0000
# 4 0.0000 -0.0001 0.0000 47.7499 0.0000 -4.7847
# 5 -0.3709 0.3832 16.0842 0.0000 45.7457 0.0000
# 6 0.0000 0.0003 0.0000 -4.7847 0.0000 25.6145
#
#
#
# Elastic Compliance Matrix: (Units=1/GPa)
#
#
# Indices 1 2 3 4 5 6 
#
# 1 0.006595 -0.003252 -0.002631 0.000000 0.001006 0.000000
# 2 -0.003252 0.015939 -0.001450 0.000000 0.000350 0.000000
# 3 -0.002631 -0.001450 0.011280 0.000000 -0.003975 0.000000
# 4 0.000000 0.000000 0.000000 0.021342 0.000000 0.003987
# 5 0.001006 0.000350 -0.003975 0.000000 0.023263 0.000000
# 6 0.000000 0.000000 0.000000 0.003987 0.000000 0.039785
#
#
# Mechanical properties :
#
#
# Convention : Reuss Voigt Hill
#
# Bulk Modulus (GPa) = 52.22894 67.27836 59.75365
# Shear Modulus (GPa) = 35.90615 41.23566 38.57090
#
# Velocity S-wave (km/s) = 3.80021 4.07249 3.93870
# Velocity P-wave (km/s) = 6.34525 7.01236 6.68713
#
# Compressibility (1/GPa) = 0.01914647
#
# Stress axis : x y z
#
# Youngs Moduli (GPa) = 151.64049 62.73946 88.65492
#
# Poissons Ratio (x) = 0.20401 0.23329
# Poissons Ratio (y) = 0.49309 0.12856
# Poissons Ratio (z) = 0.39904 0.09098
#
# Static dielectric constant tensor:
#      x y z
#    x 1.995190 0.000000 -0.033240 
#    y 0.000000 1.989230 0.000000 
#    z -0.033240 0.000000 2.025440 
# 
# From -- ./inp_files/179854.got.cif
#   From: 2010.05.17/outbox.cif.g08.bks.cpg/sg15_90_cif.got.tgz:179854.got - 2010.06.03 18:47:42.
