data_PCOD9292052
_publ_section_title
;
Structure prediction by ZEFSAII (Michael W. Deem and Ramdas Pophale) SiO2 
 PCOD9292052
Probable space group: C 2/C
;
_chemical_formula_sum "Si O2"
_cell_formula_units_Z 40
_cell_length_a 19.355674
_cell_length_b 11.788428
_cell_length_c 21.102158
_cell_angle_alpha 90.000000
_cell_angle_beta 155.800405
_cell_angle_gamma 90.000000
_cell_volume 1973.724609
_symmetry_space_group_name_H-M "C 2/C"
_symmetry_group_IT_number 15
_symmetry_cell_setting 'monoclinic'
loop_
_space_group_symop_operation_xyz
x,y,z
-x,y,1/2-z
-x,-y,-z
x,-y,1/2+z
1/2+x,1/2+y,z
1/2-x,1/2+y,1/2-z
1/2-x,1/2-y,-z
1/2+x,1/2-y,1/2+z
loop_
_atom_site_type_symbol
_atom_site_label
_atom_site_fract_x
_atom_site_fract_y
_atom_site_fract_z
Si Si1 0.662623 0.954661 0.853200
Si Si2 0.696854 0.369830 0.926687
Si Si3 0.534108 0.610281 0.983396
Si Si4 0.838445 0.654756 0.874405
Si Si5 0.458028 0.028992 0.563828
O O1 0.500000 0.891657 0.750000
O O2 0.570211 0.025111 0.720598
O O3 0.746051 0.033345 0.976233
O O4 0.817094 0.899421 0.944430
O O5 0.500000 0.372757 0.750000
O O6 0.750000 0.250000 0.000000
O O7 0.796185 0.395841 0.945018
O O8 0.359976 0.641526 0.802899
O O9 0.500000 0.500000 0.000000
O O10 0.596734 0.717268 0.076536
O O11 0.929833 0.583493 0.896420
O O12 0.896943 0.594576 0.988818
#
# Coordination Sequence:
#
# PCOD9292052 Si02
#       5
#     8   8   8   8   8
#     4  10  22  44  65  97 133 172 224 280 335 409
#     4  11  23  39  64  94 135 178 230 281 342 401
#     4  12  25  43  69 100 136 180 230 279 347 405
#     4  11  25  42  68  97 139 176 231 281 336 408
#     4  10  22  43  65  97 134 177 224 281 343 398
#
# _framework density 20.266252999999999
#
# number of rings (size 3 to 8) (size 9 to 14) (size 15 to 20)
#    0.000    1.200    2.000    4.200    5.600    1.600 
#    0.000   10.000    0.000    0.000    0.000    0.000 
#    0.000    0.000    0.000    0.000    0.000    0.000 
#
# Total GULP energy -111586.876041 kJ/mol
# GULP energy per Si atom -5579.343802 kJ/mol
# Density = 2.022013 g / cm^3
# Si number density = 20.266253 Si / 1000 Ang^3
#
#
#
# Elastic Constant Matrix: (Units=GPa)
#
#
# Indices 1 2 3 4 5 6 
#
# 1 66.6760 -2.4389 36.6332 -0.0010 25.7529 0.0001
# 2 -2.4389 72.6749 33.0038 -0.0013 10.5103 -0.0012
# 3 36.6332 33.0038 176.3964 -0.0010 26.5776 -0.0009
# 4 -0.0010 -0.0013 -0.0010 26.0659 -0.0012 6.6685
# 5 25.7529 10.5103 26.5776 -0.0012 41.4125 -0.0004
# 6 0.0001 -0.0012 -0.0009 6.6685 -0.0004 17.4857
#
#
#
# Elastic Compliance Matrix: (Units=1/GPa)
#
#
# Indices 1 2 3 4 5 6 
#
# 1 0.021822 0.004083 -0.003426 0.000000 -0.012408 0.000000
# 2 0.004083 0.015989 -0.003150 0.000000 -0.004575 0.000001
# 3 -0.003426 -0.003150 0.007227 0.000000 -0.001708 0.000000
# 4 0.000000 0.000000 0.000000 0.042512 0.000001 -0.016213
# 5 -0.012408 -0.004575 -0.001708 0.000001 0.034121 0.000000
# 6 0.000000 0.000001 0.000000 -0.016213 0.000000 0.063372
#
#
# Mechanical properties :
#
#
# Convention : Reuss Voigt Hill
#
# Bulk Modulus (GPa) = 24.96809 50.01593 37.49201
# Shear Modulus (GPa) = 24.58435 33.56276 29.07356
#
# Velocity S-wave (km/s) = 3.48669 4.07392 3.79169
# Velocity P-wave (km/s) = 5.34379 6.84559 6.14078
#
# Compressibility (1/GPa) = 0.04005112
#
# Stress axis : x y z
#
# Youngs Moduli (GPa) = 45.82522 62.54241 138.36286
#
# Poissons Ratio (x) = -0.25534 0.47408
# Poissons Ratio (y) = -0.18709 0.43586
# Poissons Ratio (z) = 0.15701 0.19702
#
# Static dielectric constant tensor:
#      x y z
#    x 1.778630 0.000000 0.035160 
#    y 0.000000 1.707000 0.000000 
#    z 0.035160 0.000000 1.717620 
# 
# From -- ./inp_files/46197.got.cif
#   From: 2010.05.17/outbox.cif.g08.bks.cpg/sg15_24_cif.got.tgz:46197.got - 2010.06.03 18:47:42.
