data_PCOD9292598
_publ_section_title
;
Structure prediction by ZEFSAII (Michael W. Deem and Ramdas Pophale) SiO2 
 PCOD9292598
Probable space group: C 2/C
;
_chemical_formula_sum "Si O2"
_cell_formula_units_Z 60
_cell_length_a 9.693586
_cell_length_b 11.702077
_cell_length_c 22.889982
_cell_angle_alpha 90.000000
_cell_angle_beta 68.211524
_cell_angle_gamma 90.000000
_cell_volume 2411.032566
_symmetry_space_group_name_H-M "C 2/C"
_symmetry_group_IT_number 15
_symmetry_cell_setting 'monoclinic'
loop_
_space_group_symop_operation_xyz
x,y,z
-x,y,1/2-z
-x,-y,-z
x,-y,1/2+z
1/2+x,1/2+y,z
1/2-x,1/2+y,1/2-z
1/2-x,1/2-y,-z
1/2+x,1/2-y,1/2+z
loop_
_atom_site_type_symbol
_atom_site_label
_atom_site_fract_x
_atom_site_fract_y
_atom_site_fract_z
Si Si1 0.957665 0.181156 0.031961
Si Si2 0.500000 0.588588 0.250000
Si Si3 0.151013 0.660943 0.148225
Si Si4 0.177204 0.722633 0.785909
Si Si5 0.728141 0.969840 0.355835
Si Si6 0.586459 0.794588 0.911098
Si Si7 0.572313 0.484144 0.073876
Si Si8 0.250114 0.413305 0.156518
O O1 0.806109 0.186000 0.090895
O O2 0.078745 0.116523 0.053339
O O3 0.009842 0.288948 0.986495
O O4 0.927885 0.091556 0.983947
O O5 0.436976 0.676794 0.211239
O O6 0.363466 0.511182 0.292619
O O7 0.177520 0.717835 0.207791
O O8 0.146487 0.521898 0.156474
O O9 0.025446 0.716970 0.127124
O O10 0.132656 0.627048 0.839984
O O11 0.204975 0.649564 0.723120
O O12 0.646506 0.083041 0.386696
O O13 0.804084 0.935176 0.403839
O O14 0.712951 0.695650 0.890813
O O15 0.414431 0.469471 0.131366
#
# Coordination Sequence:
#
# PCOD9292598 Si02
#       8
#     8   4   8   8   8   8   8   8
#     4   9  19  42  66  95 127 176 226 274 330 401
#     4  12  26  48  66  96 146 178 222 292 340 404
#     4  11  24  43  70  96 132 179 219 281 333 400
#     4  12  25  43  69  95 132 181 221 274 340 404
#     4  12  25  42  63 103 132 177 221 277 346 401
#     4  11  24  40  68 101 131 172 226 272 335 406
#     4   9  19  39  71  91 131 174 224 277 332 403
#     4  10  22  44  64  97 128 174 226 275 334 396
#
# _framework density 24.885605999999999
#
# number of rings (size 3 to 8) (size 9 to 14) (size 15 to 20)
#    0.000    1.333    1.333    6.000    1.867    2.133 
#    0.000    2.667    0.000    0.000    0.000    0.000 
#    0.000    0.000    0.000    0.000    0.000    0.000 
#
# Total GULP energy -167608.230077 kJ/mol
# GULP energy per Si atom -5586.941003 kJ/mol
# Density = 2.482896 g / cm^3
# Si number density = 24.885606 Si / 1000 Ang^3
#
#
#
# Elastic Constant Matrix: (Units=GPa)
#
#
# Indices 1 2 3 4 5 6 
#
# 1 25.0226 21.2218 3.1808 0.0000 7.0546 0.0000
# 2 21.2218 127.8453 14.2691 0.0000 3.8549 0.0000
# 3 3.1808 14.2691 76.9055 0.0000 8.6994 0.0000
# 4 0.0000 0.0000 0.0000 128.4127 0.0000 -19.1218
# 5 7.0546 3.8549 8.6994 0.0000 10.8503 0.0000
# 6 0.0000 0.0000 0.0000 -19.1218 0.0000 38.6874
#
#
#
# Elastic Compliance Matrix: (Units=1/GPa)
#
#
# Indices 1 2 3 4 5 6 
#
# 1 0.057408 -0.008799 0.003439 0.000000 -0.036956 0.000000
# 2 -0.008799 0.009369 -0.001809 0.000000 0.003843 0.000000
# 3 0.003439 -0.001809 0.014711 0.000000 -0.013388 0.000000
# 4 0.000000 0.000000 0.000000 0.008406 0.000000 0.004155
# 5 -0.036956 0.003843 -0.013388 0.000000 0.125560 0.000000
# 6 0.000000 0.000000 0.000000 0.004155 0.000000 0.027902
#
#
# Mechanical properties :
#
#
# Convention : Reuss Voigt Hill
#
# Bulk Modulus (GPa) = 14.89231 34.12409 24.50820
# Shear Modulus (GPa) = 17.85223 48.33020 33.09121
#
# Velocity S-wave (km/s) = 2.68129 4.41170 3.65051
# Velocity P-wave (km/s) = 3.94753 6.30023 5.25718
#
# Compressibility (1/GPa) = 0.06714875
#
# Stress axis : x y z
#
# Youngs Moduli (GPa) = 17.41912 106.73970 67.97739
#
# Poissons Ratio (x) = 0.93920 -0.23375
# Poissons Ratio (y) = 0.15327 0.12297
# Poissons Ratio (z) = -0.05990 0.19309
#
# Static dielectric constant tensor:
#      x y z
#    x 2.038900 0.000000 0.042950 
#    y 0.000000 2.036810 0.000000 
#    z 0.042950 0.000000 2.055480 
# 
# From -- ./inp_files/268778.got.cif
#   From: 2010.05.17/outbox.cif.g08.bks.cpg/sg15_135_cif.got.tgz:268778.got - 2010.06.03 18:47:42.
