data_PCOD9292338
_publ_section_title
;
Structure prediction by ZEFSAII (Michael W. Deem and Ramdas Pophale) SiO2 
 PCOD9292338
Probable space group: C 2/C
;
_chemical_formula_sum "Si O2"
_cell_formula_units_Z 40
_cell_length_a 10.715154
_cell_length_b 18.973675
_cell_length_c 10.426662
_cell_angle_alpha 90.000000
_cell_angle_beta 59.251968
_cell_angle_gamma 90.000000
_cell_volume 1821.808120
_symmetry_space_group_name_H-M "C 2/C"
_symmetry_group_IT_number 15
_symmetry_cell_setting 'monoclinic'
loop_
_space_group_symop_operation_xyz
x,y,z
-x,y,1/2-z
-x,-y,-z
x,-y,1/2+z
1/2+x,1/2+y,z
1/2-x,1/2+y,1/2-z
1/2-x,1/2-y,-z
1/2+x,1/2-y,1/2+z
loop_
_atom_site_type_symbol
_atom_site_label
_atom_site_fract_x
_atom_site_fract_y
_atom_site_fract_z
Si Si1 0.384881 0.710746 0.495307
Si Si2 0.807346 0.265186 0.168278
Si Si3 0.407014 0.996482 0.416198
Si Si4 0.574813 0.453177 0.576784
Si Si5 0.347901 0.842684 0.883019
O O1 0.250000 0.750000 0.500000
O O2 0.316888 0.706623 0.673528
O O3 0.522276 0.760776 0.392522
O O4 0.431850 0.631472 0.436978
O O5 0.766338 0.183833 0.160269
O O6 0.801570 0.309901 0.041560
O O7 0.500000 0.963638 0.250000
O O8 0.369964 0.075675 0.391557
O O9 0.500000 0.000000 0.500000
O O10 0.248137 0.963385 0.505547
O O11 0.500000 0.474024 0.750000
O O12 0.500000 0.500000 0.500000
O O13 0.500000 0.813133 0.750000
#
# Coordination Sequence:
#
# PCOD9292338 Si02
#       5
#     8   8   8   8   8
#     4  12  27  44  73 103 146 187 239 302 370 435
#     4  11  23  43  70 101 135 179 239 290 362 424
#     4  11  26  44  73 103 144 190 243 294 361 437
#     4  12  28  50  75 108 152 195 246 303 373 446
#     4  10  22  43  69  99 137 182 234 299 345 433
#
# _framework density 21.956208
#
# number of rings (size 3 to 8) (size 9 to 14) (size 15 to 20)
#    0.000    0.800    2.000    4.200    8.400    1.600 
#    0.000    0.000    0.000    0.000    0.000    0.000 
#    0.000    0.000    0.000    0.000    0.000    0.000 
#
# Total GULP energy -111499.790781 kJ/mol
# GULP energy per Si atom -5574.989539 kJ/mol
# Density = 2.190623 g / cm^3
# Si number density = 21.956208 Si / 1000 Ang^3
#
#
#
# Elastic Constant Matrix: (Units=GPa)
#
#
# Indices 1 2 3 4 5 6 
#
# 1 96.8423 -8.0315 33.9957 0.0000 -26.5139 0.0000
# 2 -8.0315 43.9977 -1.7518 0.0000 -0.7403 0.0000
# 3 33.9957 -1.7518 162.1567 0.0000 4.6535 0.0000
# 4 0.0000 0.0000 0.0000 30.9432 0.0000 -6.2620
# 5 -26.5139 -0.7403 4.6535 0.0000 41.6381 0.0000
# 6 0.0000 0.0000 0.0000 -6.2620 0.0000 27.4147
#
#
#
# Elastic Compliance Matrix: (Units=1/GPa)
#
#
# Indices 1 2 3 4 5 6 
#
# 1 0.014284 0.002638 -0.003239 0.000000 0.009505 0.000000
# 2 0.002638 0.023232 -0.000363 0.000000 0.002134 0.000000
# 3 -0.003239 -0.000363 0.006924 0.000000 -0.002843 0.000000
# 4 0.000000 0.000000 0.000000 0.033883 0.000000 0.007740
# 5 0.009505 0.002134 -0.002843 0.000000 0.030424 0.000000
# 6 0.000000 0.000000 0.000000 0.007740 0.000000 0.038245
#
#
# Mechanical properties :
#
#
# Convention : Reuss Voigt Hill
#
# Bulk Modulus (GPa) = 23.52307 39.04683 31.28495
# Shear Modulus (GPa) = 30.65798 38.58483 34.62141
#
# Velocity S-wave (km/s) = 3.74080 4.19663 3.97525
# Velocity P-wave (km/s) = 5.42171 6.42688 5.94558
#
# Compressibility (1/GPa) = 0.04251146
#
# Stress axis : x y z
#
# Youngs Moduli (GPa) = 70.00813 43.04496 144.43459
#
# Poissons Ratio (x) = -0.11357 0.46781
# Poissons Ratio (y) = -0.18471 0.05249
# Poissons Ratio (z) = 0.22675 0.01564
#
# Static dielectric constant tensor:
#      x y z
#    x 1.905890 0.000000 0.039010 
#    y 0.000000 1.901530 0.000000 
#    z 0.039010 0.000000 1.997530 
# 
# From -- ./inp_files/89323.got.cif
#   From: 2010.05.17/outbox.cif.g08.bks.cpg/sg15_45_cif.got.tgz:89323.got - 2010.06.03 18:47:42.
