data_PCOD9292346
_publ_section_title
;
Structure prediction by ZEFSAII (Michael W. Deem and Ramdas Pophale) SiO2 
 PCOD9292346
Probable space group: C 2/C
;
_chemical_formula_sum "Si O2"
_cell_formula_units_Z 32
_cell_length_a 7.748013
_cell_length_b 19.823230
_cell_length_c 7.647049
_cell_angle_alpha 90.000000
_cell_angle_beta 94.639198
_cell_angle_gamma 90.000000
_cell_volume 1170.667207
_symmetry_space_group_name_H-M "C 2/C"
_symmetry_group_IT_number 15
_symmetry_cell_setting 'monoclinic'
loop_
_space_group_symop_operation_xyz
x,y,z
-x,y,1/2-z
-x,-y,-z
x,-y,1/2+z
1/2+x,1/2+y,z
1/2-x,1/2+y,1/2-z
1/2-x,1/2-y,-z
1/2+x,1/2-y,1/2+z
loop_
_atom_site_type_symbol
_atom_site_label
_atom_site_fract_x
_atom_site_fract_y
_atom_site_fract_z
Si Si1 0.585680 0.841657 0.060340
Si Si2 0.239357 0.584277 0.060462
Si Si3 0.432436 0.710547 0.045212
Si Si4 0.671664 0.547738 0.044956
O O1 0.500000 0.841841 0.250000
O O2 0.573531 0.764405 0.988857
O O3 0.440135 0.878036 0.935861
O O4 0.757506 0.887744 0.060176
O O5 0.378392 0.635404 0.980622
O O6 0.314521 0.570387 0.256426
O O7 0.196813 0.514462 0.965038
O O8 0.500000 0.701753 0.250000
O O9 0.250000 0.750000 0.000000
O O10 0.500000 0.500000 0.000000
#
# Coordination Sequence:
#
# PCOD9292346 Si02
#       4
#     8   8   8   8
#     4  10  22  43  70 100 140 196 249 303 371 446
#     4  11  23  42  67 101 143 191 244 305 368 443
#     4   9  19  39  66  96 138 190 245 305 364 433
#     4  12  24  40  66 103 143 187 239 303 369 436
#
# _framework density 27.33484
#
# number of rings (size 3 to 8) (size 9 to 14) (size 15 to 20)
#    0.000    1.500    0.000    5.250    0.000    0.000 
#    0.000   13.750    0.000   21.000    0.000    0.000 
#    0.000    0.000    0.000    0.500    0.000    0.000 
#
# Total GULP energy -89178.552514 kJ/mol
# GULP energy per Si atom -5573.659532 kJ/mol
# Density = 2.727262 g / cm^3
# Si number density = 27.334840 Si / 1000 Ang^3
#
#
#
# Elastic Constant Matrix: (Units=GPa)
#
#
# Indices 1 2 3 4 5 6 
#
# 1 186.0178 45.3808 37.4030 0.0000 10.2071 0.0000
# 2 45.3808 248.3570 31.6292 0.0000 -14.3949 0.0000
# 3 37.4030 31.6292 85.4003 0.0000 16.2544 0.0000
# 4 0.0000 0.0000 0.0000 70.1668 0.0000 -18.2799
# 5 10.2071 -14.3949 16.2544 0.0000 42.9039 0.0000
# 6 0.0000 0.0000 0.0000 -18.2799 0.0000 72.9336
#
#
#
# Elastic Compliance Matrix: (Units=1/GPa)
#
#
# Indices 1 2 3 4 5 6 
#
# 1 0.006077 -0.000890 -0.002156 0.000000 -0.000928 0.000000
# 2 -0.000890 0.004552 -0.001753 0.000000 0.002403 0.000000
# 3 -0.002156 -0.001753 0.014352 0.000000 -0.005513 0.000000
# 4 0.000000 0.000000 0.000000 0.015247 0.000000 0.003822
# 5 -0.000928 0.002403 -0.005513 0.000000 0.026424 0.000000
# 6 0.000000 0.000000 0.000000 0.003822 0.000000 0.014669
#
#
# Mechanical properties :
#
#
# Convention : Reuss Voigt Hill
#
# Bulk Modulus (GPa) = 65.00390 83.17790 74.09090
# Shear Modulus (GPa) = 52.05813 64.22499 58.14156
#
# Velocity S-wave (km/s) = 4.36875 4.85249 4.61696
# Velocity P-wave (km/s) = 7.01998 7.86707 7.45557
#
# Compressibility (1/GPa) = 0.01538369
#
# Stress axis : x y z
#
# Youngs Moduli (GPa) = 164.54922 219.70145 69.67486
#
# Poissons Ratio (x) = 0.19547 0.15019
# Poissons Ratio (y) = 0.14640 0.12217
# Poissons Ratio (z) = 0.35470 0.38524
#
# Static dielectric constant tensor:
#      x y z
#    x 2.337640 0.000000 -0.062040 
#    y 0.000000 2.332240 0.000000 
#    z -0.062040 0.000000 2.147430 
# 
# From -- ./inp_files/22260.got.cif
#   From: 2010.05.17/outbox.cif.g08.bks.cpg/sg15_12_cif.got.tgz:22260.got - 2010.06.03 18:47:42.
