data_PCOD9292126
_publ_section_title
;
Structure prediction by ZEFSAII (Michael W. Deem and Ramdas Pophale) SiO2 
 PCOD9292126
Probable space group: C 2/C
;
_chemical_formula_sum "Si O2"
_cell_formula_units_Z 40
_cell_length_a 10.930380
_cell_length_b 19.994765
_cell_length_c 9.504090
_cell_angle_alpha 90.000000
_cell_angle_beta 130.009015
_cell_angle_gamma 90.000000
_cell_volume 1590.958036
_symmetry_space_group_name_H-M "C 2/C"
_symmetry_group_IT_number 15
_symmetry_cell_setting 'monoclinic'
loop_
_space_group_symop_operation_xyz
x,y,z
-x,y,1/2-z
-x,-y,-z
x,-y,1/2+z
1/2+x,1/2+y,z
1/2-x,1/2+y,1/2-z
1/2-x,1/2-y,-z
1/2+x,1/2-y,1/2+z
loop_
_atom_site_type_symbol
_atom_site_label
_atom_site_fract_x
_atom_site_fract_y
_atom_site_fract_z
Si Si1 0.315650 0.731577 0.849970
Si Si2 0.000000 0.846562 0.250000
Si Si3 0.000000 0.063949 0.250000
Si Si4 0.000000 0.247594 0.250000
Si Si5 0.500000 0.000000 0.500000
Si Si6 0.233204 0.957570 0.523500
Si Si7 0.679119 0.110077 0.142391
O O1 0.394371 0.696315 0.777602
O O2 0.339702 0.811728 0.845981
O O3 0.132162 0.716962 0.750728
O O4 0.399726 0.710178 0.057109
O O5 0.124046 0.892011 0.427499
O O6 0.860513 0.101031 0.228893
O O7 0.105072 0.017262 0.432272
O O8 0.343683 0.965721 0.469904
O O9 0.546201 0.926427 0.452737
O O10 0.339914 0.945832 0.742628
#
# Coordination Sequence:
#
# PCOD9292126 Si02
#       7
#     8   4   4   4   4   8   8
#     4  11  25  45  71 103 144 194 236 297 360 435
#     4  11  26  42  77 105 144 183 238 294 364 427
#     4   9  21  42  64  94 130 190 230 290 352 417
#     4  10  25  48  63 101 146 189 240 278 360 434
#     4  10  24  40  60  96 132 176 226 290 350 404
#     4  10  22  43  66  98 138 179 237 293 352 424
#     4  11  22  40  66  96 136 177 238 290 349 421
#
# _framework density 25.142084000000001
#
# number of rings (size 3 to 8) (size 9 to 14) (size 15 to 20)
#    0.000    1.600    0.000    3.000    5.600    3.200 
#    7.200    2.000    0.000    0.000    0.000    0.000 
#    0.000    0.000    0.000    0.000    0.000    0.000 
#
# Total GULP energy -111368.634498 kJ/mol
# GULP energy per Si atom -5568.431725 kJ/mol
# Density = 2.508486 g / cm^3
# Si number density = 25.142084 Si / 1000 Ang^3
#
#
#
# Elastic Constant Matrix: (Units=GPa)
#
#
# Indices 1 2 3 4 5 6 
#
# 1 189.9258 48.9803 13.3951 0.0000 20.5076 0.0000
# 2 48.9803 135.0806 -2.7886 0.0000 5.5605 0.0000
# 3 13.3951 -2.7886 61.0859 0.0000 0.5804 0.0000
# 4 0.0000 0.0000 0.0000 6.7321 0.0000 20.0328
# 5 20.5076 5.5605 0.5804 0.0000 46.5329 0.0000
# 6 0.0000 0.0000 0.0000 20.0328 0.0000 37.6351
#
#
#
# Elastic Compliance Matrix: (Units=1/GPa)
#
#
# Indices 1 2 3 4 5 6 
#
# 1 0.006192 -0.002174 -0.001434 0.000000 -0.002451 0.000000
# 2 -0.002174 0.008210 0.000852 0.000000 -0.000034 0.000000
# 3 -0.001434 0.000852 0.016721 0.000000 0.000321 0.000000
# 4 0.000000 0.000000 0.000000 -0.254372 0.000000 0.135400
# 5 -0.002451 -0.000034 0.000321 0.000000 0.022570 0.000000
# 6 0.000000 0.000000 0.000000 0.135400 0.000000 -0.045501
#
#
# Mechanical properties :
#
#
# Convention : Reuss Voigt Hill
#
# Bulk Modulus (GPa) = 39.04560 56.14064 47.59312
# Shear Modulus (GPa) = -21.53939 39.94704 9.20382
#
# Velocity S-wave (km/s) = -2.93013 3.99036 1.91538
# Velocity P-wave (km/s) = 2.02883 6.60367 4.88491
#
# Compressibility (1/GPa) = 0.02561108
#
# Stress axis : x y z
#
# Youngs Moduli (GPa) = 161.50961 121.80019 59.80647
#
# Poissons Ratio (x) = 0.26477 0.08574
# Poissons Ratio (y) = 0.35108 -0.05094
# Poissons Ratio (z) = 0.23155 -0.10375
#
# Static dielectric constant tensor:
#      x y z
#    x 1.966740 0.000000 0.074850 
#    y 0.000000 1.878120 0.000000 
#    z 0.074850 0.000000 1.438930 
# 
# From -- ./inp_files/89924.got.cif
#   From: 2010.05.17/outbox.cif.g08.bks.cpg/sg15_45_cif.got.tgz:89924.got - 2010.06.03 18:47:42.
