data_PCOD9292446
_publ_section_title
;
Structure prediction by ZEFSAII (Michael W. Deem and Ramdas Pophale) SiO2 
 PCOD9292446
Probable space group: C 2/C
;
_chemical_formula_sum "Si O2"
_cell_formula_units_Z 48
_cell_length_a 13.588310
_cell_length_b 12.312574
_cell_length_c 23.508017
_cell_angle_alpha 90.000000
_cell_angle_beta 31.032483
_cell_angle_gamma 90.000000
_cell_volume 2027.585341
_symmetry_space_group_name_H-M "C 2/C"
_symmetry_group_IT_number 15
_symmetry_cell_setting 'monoclinic'
loop_
_space_group_symop_operation_xyz
x,y,z
-x,y,1/2-z
-x,-y,-z
x,-y,1/2+z
1/2+x,1/2+y,z
1/2-x,1/2+y,1/2-z
1/2-x,1/2-y,-z
1/2+x,1/2-y,1/2+z
loop_
_atom_site_type_symbol
_atom_site_label
_atom_site_fract_x
_atom_site_fract_y
_atom_site_fract_z
Si Si1 0.981194 0.525400 0.902468
Si Si2 0.994829 0.872756 0.486616
Si Si3 0.852570 0.304856 0.373138
Si Si4 0.879345 0.308292 0.887859
Si Si5 0.875757 0.947506 0.866147
Si Si6 0.390043 0.382479 0.196266
O O1 0.890160 0.617282 0.907077
O O2 0.972269 0.414482 0.870570
O O3 0.191224 0.565557 0.811538
O O4 0.845522 0.520947 0.024538
O O5 0.773966 0.839200 0.585013
O O6 0.131102 0.812684 0.464070
O O7 0.104618 0.849509 0.372497
O O8 0.000000 0.000000 0.500000
O O9 0.901176 0.180201 0.361606
O O10 0.000000 0.340011 0.250000
O O11 0.040574 0.217087 0.799234
O O12 0.750000 0.250000 0.000000
O O13 0.000000 0.978732 0.750000
O O14 0.957585 0.020365 0.876069
#
# Coordination Sequence:
#
# PCOD9292446 Si02
#       6
#     8   8   8   8   8   8
#     4  12  23  44  78 102 149 193 240 301 372 428
#     4  11  20  42  73 101 141 184 234 300 352 424
#     4  11  23  42  70 111 139 181 236 300 361 439
#     4  10  22  43  72 101 144 189 238 297 362 421
#     4  11  26  47  67 103 147 188 248 292 365 442
#     4  11  25  45  71 104 146 191 238 296 369 430
#
# _framework density 23.673480999999999
#
# number of rings (size 3 to 8) (size 9 to 14) (size 15 to 20)
#    0.000    1.000    6.667    0.500    2.333    2.000 
#    3.000    0.833    0.000    0.000    0.000    0.000 
#    0.000    0.000    0.000    0.000    0.000    0.000 
#
# Total GULP energy -134214.915864 kJ/mol
# GULP energy per Si atom -5592.288161 kJ/mol
# Density = 2.361960 g / cm^3
# Si number density = 23.673481 Si / 1000 Ang^3
#
#
#
# Elastic Constant Matrix: (Units=GPa)
#
#
# Indices 1 2 3 4 5 6 
#
# 1 85.8010 54.0877 30.3731 -0.0001 -29.4741 0.0000
# 2 54.0877 117.0332 25.8175 -0.0001 -29.3020 0.0000
# 3 30.3731 25.8175 134.3332 -0.0017 -28.1488 0.0000
# 4 -0.0001 -0.0001 -0.0017 33.2943 0.0000 -8.6438
# 5 -29.4741 -29.3020 -28.1488 0.0000 46.0796 -0.0001
# 6 0.0000 0.0000 0.0000 -8.6438 -0.0001 38.1972
#
#
#
# Elastic Compliance Matrix: (Units=1/GPa)
#
#
# Indices 1 2 3 4 5 6 
#
# 1 0.018701 -0.006594 -0.001529 0.000000 0.006834 0.000000
# 2 -0.006594 0.012543 -0.000152 0.000000 0.003666 0.000000
# 3 -0.001529 -0.000152 0.008709 0.000000 0.004246 0.000000
# 4 0.000000 0.000000 0.000000 0.031910 0.000000 0.007221
# 5 0.006834 0.003666 0.004246 0.000000 0.030998 0.000000
# 6 0.000000 0.000000 0.000000 0.007221 0.000000 0.027814
#
#
# Mechanical properties :
#
#
# Convention : Reuss Voigt Hill
#
# Bulk Modulus (GPa) = 42.72872 61.96932 52.34902
# Shear Modulus (GPa) = 32.25290 38.64017 35.44654
#
# Velocity S-wave (km/s) = 3.69508 4.04445 3.87371
# Velocity P-wave (km/s) = 6.02439 6.93135 6.49372
#
# Compressibility (1/GPa) = 0.02340346
#
# Stress axis : x y z
#
# Youngs Moduli (GPa) = 53.47391 79.72304 114.82883
#
# Poissons Ratio (x) = 0.52571 0.17555
# Poissons Ratio (y) = 0.35262 0.01741
# Poissons Ratio (z) = 0.08175 0.01208
#
# Static dielectric constant tensor:
#      x y z
#    x 1.899660 0.000000 0.018000 
#    y 0.000000 1.839110 0.000000 
#    z 0.018000 0.000000 2.038490 
# 
# From -- ./inp_files/296044.got.cif
#   From: 2010.05.17/outbox.cif.g08.bks.cpg/sg15_149_cif.got.tgz:296044.got - 2010.06.03 18:47:42.
