data_PCOD9292271
_publ_section_title
;
Structure prediction by ZEFSAII (Michael W. Deem and Ramdas Pophale) SiO2 
 PCOD9292271
Probable space group: C 2/C
;
_chemical_formula_sum "Si O2"
_cell_formula_units_Z 36
_cell_length_a 25.855498
_cell_length_b 8.286985
_cell_length_c 15.604366
_cell_angle_alpha 90.000000
_cell_angle_beta 147.030440
_cell_angle_gamma 90.000000
_cell_volume 1819.486556
_symmetry_space_group_name_H-M "C 2/C"
_symmetry_group_IT_number 15
_symmetry_cell_setting 'monoclinic'
loop_
_space_group_symop_operation_xyz
x,y,z
-x,y,1/2-z
-x,-y,-z
x,-y,1/2+z
1/2+x,1/2+y,z
1/2-x,1/2+y,1/2-z
1/2-x,1/2-y,-z
1/2+x,1/2-y,1/2+z
loop_
_atom_site_type_symbol
_atom_site_label
_atom_site_fract_x
_atom_site_fract_y
_atom_site_fract_z
Si Si1 0.434665 0.884647 0.075361
Si Si2 0.500000 0.385085 0.250000
Si Si3 0.157910 0.297635 0.059563
Si Si4 0.226761 0.094644 0.313176
Si Si5 0.036328 0.902135 0.633397
O O1 0.500000 0.902514 0.250000
O O2 0.480338 0.762932 0.072172
O O3 0.331214 0.826754 0.966111
O O4 0.410065 0.058308 0.999562
O O5 0.594633 0.280363 0.397568
O O6 0.483425 0.492843 0.310162
O O7 0.185624 0.164688 0.167194
O O8 0.248955 0.403286 0.157428
O O9 0.148013 0.128579 0.274242
O O10 0.000000 0.000000 0.500000
#
# Coordination Sequence:
#
# PCOD9292271 Si02
#       5
#     8   4   8   8   8
#     4  10  23  45  66 101 138 175 232 287 326 420
#     4  12  24  44  70 100 142 178 226 296 320 424
#     4  10  22  43  68  98 142 173 231 281 338 404
#     4  10  23  42  69 100 136 183 223 284 345 401
#     4  12  24  43  72 103 137 182 230 279 354 395
#
# _framework density 19.785800999999999
#
# number of rings (size 3 to 8) (size 9 to 14) (size 15 to 20)
#    1.333    0.000    4.444    1.333    0.000    2.667 
#    0.000    0.000    0.000    0.000    0.000    0.000 
#    0.000    0.000    0.000    0.000    0.000    0.000 
#
# Total GULP energy -100291.891212 kJ/mol
# GULP energy per Si atom -5571.771734 kJ/mol
# Density = 1.974077 g / cm^3
# Si number density = 19.785801 Si / 1000 Ang^3
#
#
#
# Elastic Constant Matrix: (Units=GPa)
#
#
# Indices 1 2 3 4 5 6 
#
# 1 89.6825 2.3388 31.1136 0.0000 15.0519 0.0000
# 2 2.3388 33.7384 20.9926 0.0000 0.0335 0.0000
# 3 31.1136 20.9926 120.2225 0.0000 8.1611 0.0000
# 4 0.0000 0.0000 0.0000 -47.2189 0.0000 86.5010
# 5 15.0519 0.0335 8.1611 0.0000 35.3417 0.0000
# 6 0.0000 0.0000 0.0000 86.5010 0.0000 -46.9567
#
#
#
# Elastic Compliance Matrix: (Units=1/GPa)
#
#
# Indices 1 2 3 4 5 6 
#
# 1 0.013056 0.001121 -0.003248 0.000000 -0.004811 0.000000
# 2 0.001121 0.033411 -0.006186 0.000000 0.000920 0.000000
# 3 -0.003248 -0.006186 0.010306 0.000000 -0.000991 0.000000
# 4 0.000000 0.000000 0.000000 0.008918 0.000000 0.016429
# 5 -0.004811 0.000920 -0.000991 0.000000 0.030572 0.000000
# 6 0.000000 0.000000 0.000000 0.016429 0.000000 0.008968
#
#
# Mechanical properties :
#
#
# Convention : Reuss Voigt Hill
#
# Bulk Modulus (GPa) = 24.90988 39.17038 32.04013
# Shear Modulus (GPa) = 36.97141 0.84645 18.90893
#
# Velocity S-wave (km/s) = 4.32740 0.65478 3.09476
# Velocity P-wave (km/s) = 6.13071 4.51795 5.38505
#
# Compressibility (1/GPa) = 0.04014471
#
# Stress axis : x y z
#
# Youngs Moduli (GPa) = 76.59602 29.93067 97.03141
#
# Poissons Ratio (x) = -0.03354 0.31514
# Poissons Ratio (y) = -0.08583 0.60028
# Poissons Ratio (z) = 0.24877 0.18516
#
# Static dielectric constant tensor:
#      x y z
#    x 1.664850 0.000000 0.039630 
#    y 0.000000 1.738030 0.000000 
#    z 0.039630 0.000000 1.724130 
# 
# From -- ./inp_files/158671.got.cif
#   From: 2010.05.17/outbox.cif.g08.bks.cpg/sg15_80_cif.got.tgz:158671.got - 2010.06.03 18:47:42.
