data_PCOD9292711
_publ_section_title
;
Structure prediction by ZEFSAII (Michael W. Deem and Ramdas Pophale) SiO2 
 PCOD9292711
Probable space group: C 2/C
;
_chemical_formula_sum "Si O2"
_cell_formula_units_Z 32
_cell_length_a 21.819724
_cell_length_b 5.572211
_cell_length_c 24.611321
_cell_angle_alpha 90.000000
_cell_angle_beta 24.521965
_cell_angle_gamma 90.000000
_cell_volume 1241.949214
_symmetry_space_group_name_H-M "C 2/C"
_symmetry_group_IT_number 15
_symmetry_cell_setting 'monoclinic'
loop_
_space_group_symop_operation_xyz
x,y,z
-x,y,1/2-z
-x,-y,-z
x,-y,1/2+z
1/2+x,1/2+y,z
1/2-x,1/2+y,1/2-z
1/2-x,1/2-y,-z
1/2+x,1/2-y,1/2+z
loop_
_atom_site_type_symbol
_atom_site_label
_atom_site_fract_x
_atom_site_fract_y
_atom_site_fract_z
Si Si1 0.260503 0.989674 0.163089
Si Si2 0.529421 0.196576 0.290478
Si Si3 0.081532 0.191876 0.125835
Si Si4 0.524904 0.700102 0.433905
O O1 0.122419 0.096910 0.306806
O O2 0.190625 0.790043 0.179526
O O3 0.366447 0.887896 0.124364
O O4 0.365033 0.184943 0.049825
O O5 0.500000 0.174652 0.250000
O O6 0.427291 0.421612 0.390766
O O7 0.491031 0.931018 0.342149
O O8 0.000000 0.166991 0.250000
O O9 0.250000 0.250000 0.000000
O O10 0.500000 0.500000 0.500000
#
# Coordination Sequence:
#
# PCOD9292711 Si02
#       4
#     8   8   8   8
#     4  11  25  45  76 107 142 197 247 318 375 454
#     4  10  24  45  73 107 148 189 242 302 373 449
#     4  10  22  44  66  97 144 191 237 287 353 440
#     4  11  24  47  71 103 145 189 257 307 378 438
#
# _framework density 25.76595
#
# number of rings (size 3 to 8) (size 9 to 14) (size 15 to 20)
#    0.000    1.500    2.500    0.750    3.500    4.000 
#   13.500    0.000    0.000    0.000    0.000    0.000 
#    0.000    0.000    0.000    0.000    0.000    0.000 
#
# Total GULP energy -89451.517413 kJ/mol
# GULP energy per Si atom -5590.719838 kJ/mol
# Density = 2.570731 g / cm^3
# Si number density = 25.765950 Si / 1000 Ang^3
#
#
#
# Elastic Constant Matrix: (Units=GPa)
#
#
# Indices 1 2 3 4 5 6 
#
# 1 90.5894 19.8370 47.9690 0.0150 -0.7474 -0.0173
# 2 19.8370 175.8083 45.8658 -0.0204 9.8538 0.0182
# 3 47.9690 45.8658 172.9248 0.0223 16.6043 -0.0230
# 4 0.0150 -0.0204 0.0223 49.9162 -0.0210 -22.5945
# 5 -0.7474 9.8538 16.6043 -0.0210 34.5576 0.0267
# 6 -0.0173 0.0182 -0.0230 -22.5945 0.0267 68.0076
#
#
#
# Elastic Compliance Matrix: (Units=1/GPa)
#
#
# Indices 1 2 3 4 5 6 
#
# 1 0.013154 -0.000647 -0.003693 -0.000001 0.002243 0.000001
# 2 -0.000647 0.006176 -0.001351 0.000002 -0.001126 -0.000001
# 3 -0.003693 -0.001351 0.007481 -0.000003 -0.003289 0.000002
# 4 -0.000001 0.000002 -0.000003 0.023580 0.000009 0.007834
# 5 0.002243 -0.001126 -0.003289 0.000009 0.030887 -0.000009
# 6 0.000001 -0.000001 0.000002 0.007834 -0.000009 0.017307
#
#
# Mechanical properties :
#
#
# Convention : Reuss Voigt Hill
#
# Bulk Modulus (GPa) = 64.80109 74.07400 69.43755
# Shear Modulus (GPa) = 43.43654 52.20633 47.82144
#
# Velocity S-wave (km/s) = 4.11032 4.50619 4.31280
# Velocity P-wave (km/s) = 6.90875 7.47566 7.19779
#
# Compressibility (1/GPa) = 0.01543184
#
# Stress axis : x y z
#
# Youngs Moduli (GPa) = 76.02030 161.90472 133.66527
#
# Poissons Ratio (x) = 0.10468 0.49361
# Poissons Ratio (y) = 0.04915 0.18055
# Poissons Ratio (z) = 0.28074 0.21869
#
# Static dielectric constant tensor:
#      x y z
#    x 2.574010 -0.000100 -0.132910 
#    y -0.000100 2.110830 0.000040 
#    z -0.132910 0.000040 2.040590 
# 
# From -- ./inp_files/67962.got.cif
#   From: 2010.05.17/outbox.cif.g08.bks.cpg/sg15_34_cif.got.tgz:67962.got - 2010.06.03 18:47:42.
