data_PCOD9292898
_publ_section_title
;
Structure prediction by ZEFSAII (Michael W. Deem and Ramdas Pophale) SiO2 
 PCOD9292898
Probable space group: C 2/C
;
_chemical_formula_sum "Si O2"
_cell_formula_units_Z 24
_cell_length_a 19.718980
_cell_length_b 5.287563
_cell_length_c 12.660210
_cell_angle_alpha 90.000000
_cell_angle_beta 136.349473
_cell_angle_gamma 90.000000
_cell_volume 911.155066
_symmetry_space_group_name_H-M "C 2/C"
_symmetry_group_IT_number 15
_symmetry_cell_setting 'monoclinic'
loop_
_space_group_symop_operation_xyz
x,y,z
-x,y,1/2-z
-x,-y,-z
x,-y,1/2+z
1/2+x,1/2+y,z
1/2-x,1/2+y,1/2-z
1/2-x,1/2-y,-z
1/2+x,1/2-y,1/2+z
loop_
_atom_site_type_symbol
_atom_site_label
_atom_site_fract_x
_atom_site_fract_y
_atom_site_fract_z
Si Si1 0.346032 0.566891 0.411367
Si Si2 0.463469 0.947350 0.079797
Si Si3 0.825401 0.669320 0.674814
O O1 0.404248 0.314156 0.506810
O O2 0.234467 0.539118 0.325665
O O3 0.345598 0.614633 0.285038
O O4 0.397576 0.805598 0.524219
O O5 0.570226 0.913911 0.254412
O O6 0.500000 0.000000 0.000000
O O7 0.750000 0.750000 0.500000
#
# Coordination Sequence:
#
# PCOD9292898 Si02
#       3
#     8   8   8
#     4  11  24  46  68  98 142 180 225 289 346 409
#     4  10  22  44  69  96 139 182 223 285 350 405
#     4  11  24  46  75 106 138 187 238 287 349 419
#
# _framework density 26.340191999999998
#
# number of rings (size 3 to 8) (size 9 to 14) (size 15 to 20)
#    0.000    1.333    0.000    8.000    0.000    4.000 
#    0.000   55.000    0.000    0.000    0.000    0.000 
#    0.000    0.000    0.000    0.000    0.000    0.000 
#
# Total GULP energy -67306.650963 kJ/mol
# GULP energy per Si atom -5608.887580 kJ/mol
# Density = 2.628024 g / cm^3
# Si number density = 26.340192 Si / 1000 Ang^3
#
#
#
# Elastic Constant Matrix: (Units=GPa)
#
#
# Indices 1 2 3 4 5 6 
#
# 1 121.7981 54.4157 20.5255 0.0000 59.1622 -0.0001
# 2 54.4157 230.6035 91.3786 0.0007 33.4606 0.0003
# 3 20.5255 91.3786 186.8527 -0.0002 23.1682 0.0000
# 4 0.0000 0.0007 -0.0002 64.5385 0.0000 13.0693
# 5 59.1622 33.4606 23.1682 0.0000 68.7396 -0.0001
# 6 -0.0001 0.0003 0.0000 13.0693 -0.0001 46.7924
#
#
#
# Elastic Compliance Matrix: (Units=1/GPa)
#
#
# Indices 1 2 3 4 5 6 
#
# 1 0.014864 -0.002112 0.000896 0.000000 -0.012067 0.000000
# 2 -0.002112 0.005903 -0.002634 0.000000 -0.000168 0.000000
# 3 0.000896 -0.002634 0.006761 0.000000 -0.001768 0.000000
# 4 0.000000 0.000000 0.000000 0.016424 0.000000 -0.004587
# 5 -0.012067 -0.000168 -0.001768 0.000000 0.025611 0.000000
# 6 0.000000 0.000000 0.000000 -0.004587 0.000000 0.022652
#
#
# Mechanical properties :
#
#
# Convention : Reuss Voigt Hill
#
# Bulk Modulus (GPa) = 50.43130 96.87710 73.65420
# Shear Modulus (GPa) = 46.93795 60.87641 53.90718
#
# Velocity S-wave (km/s) = 4.22594 4.81267 4.52882
# Velocity P-wave (km/s) = 6.55737 8.23052 7.44112
#
# Compressibility (1/GPa) = 0.01982896
#
# Stress axis : x y z
#
# Youngs Moduli (GPa) = 67.27498 169.40961 147.91467
#
# Poissons Ratio (x) = 0.35774 -0.13255
# Poissons Ratio (y) = 0.14206 0.38960
# Poissons Ratio (z) = -0.06029 0.44621
#
# Static dielectric constant tensor:
#      x y z
#    x 2.218130 0.000000 -0.149270 
#    y 0.000000 1.984030 0.000000 
#    z -0.149270 0.000000 2.300420 
# 
# From -- ./inp_files/170326.got.cif
#   From: 2010.05.17/outbox.cif.g08.bks.cpg/sg15_86_cif.got.tgz:170326.got - 2010.06.03 18:47:42.
