data_PCOD9292639
_publ_section_title
;
Structure prediction by ZEFSAII (Michael W. Deem and Ramdas Pophale) SiO2 
 PCOD9292639
Probable space group: C 2/C
;
_chemical_formula_sum "Si O2"
_cell_formula_units_Z 60
_cell_length_a 22.284255
_cell_length_b 16.620296
_cell_length_c 24.447014
_cell_angle_alpha 90.000000
_cell_angle_beta 161.062787
_cell_angle_gamma 90.000000
_cell_volume 2938.461352
_symmetry_space_group_name_H-M "C 2/C"
_symmetry_group_IT_number 15
_symmetry_cell_setting 'monoclinic'
loop_
_space_group_symop_operation_xyz
x,y,z
-x,y,1/2-z
-x,-y,-z
x,-y,1/2+z
1/2+x,1/2+y,z
1/2-x,1/2+y,1/2-z
1/2-x,1/2-y,-z
1/2+x,1/2-y,1/2+z
loop_
_atom_site_type_symbol
_atom_site_label
_atom_site_fract_x
_atom_site_fract_y
_atom_site_fract_z
Si Si1 0.431885 0.575125 0.748690
Si Si2 0.095144 0.097623 0.389848
Si Si3 0.594259 0.325748 0.165380
Si Si4 0.500000 0.940324 0.250000
Si Si5 0.138842 0.354380 0.196930
Si Si6 0.004562 0.174032 0.084649
Si Si7 0.732614 0.854677 0.781207
Si Si8 0.980531 0.507799 0.114630
O O1 0.500000 0.611105 0.750000
O O2 0.561807 0.497763 0.871853
O O3 0.425269 0.638522 0.791480
O O4 0.228934 0.537630 0.566902
O O5 0.315163 0.110539 0.579121
O O6 0.006448 0.145867 0.362933
O O7 0.000000 0.115901 0.250000
O O8 0.767495 0.364516 0.281937
O O9 0.625335 0.230034 0.190229
O O10 0.409677 0.345707 0.973083
O O11 0.531615 0.991436 0.222018
O O12 0.314196 0.348625 0.389615
O O13 0.034715 0.269471 0.106666
O O14 0.010815 0.425603 0.107417
O O15 0.176768 0.134679 0.200543
O O16 0.608224 0.926193 0.695811
#
# Coordination Sequence:
#
# PCOD9292639 Si02
#       8
#     8   8   8   4   8   8   8   8
#     4  11  24  42  65  97 133 171 224 270 328 400
#     4  11  23  43  68  95 134 179 221 274 326 395
#     4  10  22  44  65  97 134 169 217 279 328 402
#     4  12  22  44  64  94 142 168 228 270 320 396
#     4  10  24  41  68  96 130 174 219 275 338 384
#     4  10  23  43  65  95 134 167 223 277 329 396
#     4  10  23  42  69  96 131 170 219 275 341 386
#     4  12  24  42  66  98 128 179 219 273 335 393
#
# _framework density 20.418849999999999
#
# number of rings (size 3 to 8) (size 9 to 14) (size 15 to 20)
#    0.000    1.333    4.000    1.600    3.733    2.667 
#    2.400    2.667    1.467    0.000    0.000    0.000 
#    0.000    0.000    0.000    0.000    0.000    0.000 
#
# Total GULP energy -167806.965283 kJ/mol
# GULP energy per Si atom -5593.565509 kJ/mol
# Density = 2.037238 g / cm^3
# Si number density = 20.418850 Si / 1000 Ang^3
#
#
#
# Elastic Constant Matrix: (Units=GPa)
#
#
# Indices 1 2 3 4 5 6 
#
# 1 182.8942 64.0471 53.6704 -0.0080 14.8336 -0.0188
# 2 64.0471 40.5444 18.5606 -0.0115 13.3111 -0.0001
# 3 53.6704 18.5606 78.4773 -0.0060 17.5441 0.1555
# 4 -0.0080 -0.0115 -0.0060 7.9795 0.0123 2.2729
# 5 14.8336 13.3111 17.5441 0.0123 21.7763 -0.0227
# 6 -0.0188 -0.0001 0.1555 2.2729 -0.0227 1.9817
#
#
#
# Elastic Compliance Matrix: (Units=1/GPa)
#
#
# Indices 1 2 3 4 5 6 
#
# 1 0.015022 -0.023831 -0.006841 -0.000394 0.009848 0.001243
# 2 -0.023831 0.069600 0.006981 0.000676 -0.031937 -0.001912
# 3 -0.006841 0.006981 0.019135 0.000796 -0.015026 -0.002651
# 4 -0.000394 0.000676 0.000796 0.186164 -0.001114 -0.213596
# 5 0.009848 -0.031937 -0.015026 -0.001114 0.070845 0.003360
# 6 0.001243 -0.001912 -0.002651 -0.213596 0.003360 0.749850
#
#
# Mechanical properties :
#
#
# Convention : Reuss Voigt Hill
#
# Bulk Modulus (GPa) = 17.73897 63.83023 40.78460
# Shear Modulus (GPa) = 4.24884 17.39003 10.81944
#
# Velocity S-wave (km/s) = 1.44408 2.92150 2.30440
# Velocity P-wave (km/s) = 3.38923 6.53517 5.20554
#
# Compressibility (1/GPa) = 0.05637304
#
# Stress axis : x y z
#
# Youngs Moduli (GPa) = 66.56865 14.36778 52.26106
#
# Poissons Ratio (x) = 0.34241 0.35753
# Poissons Ratio (y) = 1.58643 -0.36482
# Poissons Ratio (z) = 0.45541 -0.10030
#
# Static dielectric constant tensor:
#      x y z
#    x 1.731750 -0.000010 -0.000050 
#    y -0.000010 1.692250 -0.000010 
#    z -0.000050 -0.000010 1.740330 
# 
# From -- ./inp_files/280523.got.cif
#   From: 2010.05.17/outbox.cif.g08.bks.cpg/sg15_141_cif.got.tgz:280523.got - 2010.06.03 18:47:42.
