data_PCOD9292761
_publ_section_title
;
Structure prediction by ZEFSAII (Michael W. Deem and Ramdas Pophale) SiO2 
 PCOD9292761
Probable space group: C 2/C
;
_chemical_formula_sum "Si O2"
_cell_formula_units_Z 40
_cell_length_a 14.480113
_cell_length_b 9.028073
_cell_length_c 28.201134
_cell_angle_alpha 90.000000
_cell_angle_beta 147.223653
_cell_angle_gamma 90.000000
_cell_volume 1995.816821
_symmetry_space_group_name_H-M "C 2/C"
_symmetry_group_IT_number 15
_symmetry_cell_setting 'monoclinic'
loop_
_space_group_symop_operation_xyz
x,y,z
-x,y,1/2-z
-x,-y,-z
x,-y,1/2+z
1/2+x,1/2+y,z
1/2-x,1/2+y,1/2-z
1/2-x,1/2-y,-z
1/2+x,1/2-y,1/2+z
loop_
_atom_site_type_symbol
_atom_site_label
_atom_site_fract_x
_atom_site_fract_y
_atom_site_fract_z
Si Si1 0.067800 0.481472 0.229744
Si Si2 0.449687 0.319057 0.178055
Si Si3 0.578108 0.886925 0.995230
Si Si4 0.211396 0.585863 0.966452
Si Si5 0.959881 0.900684 0.390334
O O1 0.944962 0.412116 0.137427
O O2 0.000000 0.420510 0.250000
O O3 0.030723 0.656588 0.212677
O O4 0.268479 0.458087 0.312136
O O5 0.500000 0.393772 0.250000
O O6 0.754672 0.310455 0.410422
O O7 0.504707 0.386061 0.151124
O O8 0.027747 0.745027 0.075621
O O9 0.500000 0.000000 0.000000
O O10 0.644776 0.987565 0.981107
O O11 0.250000 0.750000 0.000000
O O12 0.386753 0.506695 0.024753
#
# Coordination Sequence:
#
# PCOD9292761 Si02
#       5
#     8   8   8   8   8
#     4  11  25  42  67  98 136 175 225 279 340 404
#     4  10  22  44  67  97 132 178 225 280 339 402
#     4  11  24  45  70  97 136 181 229 283 337 410
#     4  11  25  44  67  99 136 179 225 279 348 406
#     4  11  24  46  69  96 141 178 228 285 334 417
#
# _framework density 20.041920000000001
#
# number of rings (size 3 to 8) (size 9 to 14) (size 15 to 20)
#    0.000    1.200    4.000    1.200    8.400    2.400 
#    3.600    0.000    0.000    0.000    0.000    0.000 
#    0.000    0.000    0.000    0.000    0.000    0.000 
#
# Total GULP energy -111593.750057 kJ/mol
# GULP energy per Si atom -5579.687503 kJ/mol
# Density = 1.999630 g / cm^3
# Si number density = 20.041920 Si / 1000 Ang^3
#
#
#
# Elastic Constant Matrix: (Units=GPa)
#
#
# Indices 1 2 3 4 5 6 
#
# 1 90.6560 23.7899 65.0634 0.0000 21.0518 0.0000
# 2 23.7899 104.9728 47.1218 0.0000 24.7576 0.0000
# 3 65.0634 47.1218 145.6235 0.0000 25.7942 0.0000
# 4 0.0000 0.0000 0.0000 28.3627 0.0000 5.1325
# 5 21.0518 24.7576 25.7942 0.0000 41.3203 0.0000
# 6 0.0000 0.0000 0.0000 5.1325 0.0000 18.0513
#
#
#
# Elastic Compliance Matrix: (Units=1/GPa)
#
#
# Indices 1 2 3 4 5 6 
#
# 1 0.016924 0.000312 -0.006861 0.000000 -0.004526 0.000000
# 2 0.000312 0.012142 -0.003094 0.000000 -0.005503 0.000000
# 3 -0.006861 -0.003094 0.011227 0.000000 -0.001660 0.000000
# 4 0.000000 0.000000 0.000000 0.037170 0.000000 -0.010569
# 5 -0.004526 -0.005503 -0.001660 0.000000 0.030840 0.000000
# 6 0.000000 0.000000 0.000000 -0.010569 0.000000 0.058403
#
#
# Mechanical properties :
#
#
# Convention : Reuss Voigt Hill
#
# Bulk Modulus (GPa) = 47.59987 68.13361 57.86674
# Shear Modulus (GPa) = 25.90755 31.23200 28.56978
#
# Velocity S-wave (km/s) = 3.59927 3.95186 3.77968
# Velocity P-wave (km/s) = 6.40895 7.40893 6.92701
#
# Compressibility (1/GPa) = 0.02100846
#
# Stress axis : x y z
#
# Youngs Moduli (GPa) = 59.08854 82.35766 89.06849
#
# Poissons Ratio (x) = -0.02568 0.61106
# Poissons Ratio (y) = -0.01842 0.27555
# Poissons Ratio (z) = 0.40538 0.25479
#
# Static dielectric constant tensor:
#      x y z
#    x 1.733560 0.000000 -0.028580 
#    y 0.000000 1.697800 0.000000 
#    z -0.028580 0.000000 1.721110 
# 
# From -- ./inp_files/313368.got.cif
#   From: 2010.05.17/outbox.cif.g08.bks.cpg/sg15_157_cif.got.tgz:313368.got - 2010.06.03 18:47:42.
