data_PCOD9292876
_publ_section_title
;
Structure prediction by ZEFSAII (Michael W. Deem and Ramdas Pophale) SiO2 
 PCOD9292876
Probable space group: C 2/C
;
_chemical_formula_sum "Si O2"
_cell_formula_units_Z 56
_cell_length_a 30.376486
_cell_length_b 8.293874
_cell_length_c 13.901343
_cell_angle_alpha 90.000000
_cell_angle_beta 135.949313
_cell_angle_gamma 90.000000
_cell_volume 2435.120730
_symmetry_space_group_name_H-M "C 2/C"
_symmetry_group_IT_number 15
_symmetry_cell_setting 'monoclinic'
loop_
_space_group_symop_operation_xyz
x,y,z
-x,y,1/2-z
-x,-y,-z
x,-y,1/2+z
1/2+x,1/2+y,z
1/2-x,1/2+y,1/2-z
1/2-x,1/2-y,-z
1/2+x,1/2-y,1/2+z
loop_
_atom_site_type_symbol
_atom_site_label
_atom_site_fract_x
_atom_site_fract_y
_atom_site_fract_z
Si Si1 0.645850 0.510564 0.739911
Si Si2 0.131430 0.477471 0.318376
Si Si3 0.914849 0.073180 0.042018
Si Si4 0.651142 0.300072 0.448742
Si Si5 0.721990 0.948280 0.790715
Si Si6 0.552305 0.302455 0.702448
Si Si7 0.271871 0.809728 0.900066
O O1 0.631326 0.606127 0.619564
O O2 0.651932 0.613135 0.846012
O O3 0.586614 0.395512 0.670289
O O4 0.706324 0.400844 0.817849
O O5 0.128794 0.621252 0.390733
O O6 0.163437 0.543186 0.271498
O O7 0.065059 0.385421 0.202225
O O8 0.183198 0.349702 0.439825
O O9 0.913489 0.169218 0.140139
O O10 0.984071 0.117956 0.110579
O O11 0.894398 0.895107 0.048348
O O12 0.723671 0.317153 0.597486
O O13 0.701858 0.902372 0.652276
O O14 0.757734 0.121898 0.857140
#
# Coordination Sequence:
#
# PCOD9292876 Si02
#       7
#     8   8   8   8   8   8   8
#     4  11  21  40  66  94 130 180 226 274 342 408
#     4  12  25  41  63 102 140 177 226 285 346 410
#     4  10  22  44  69  92 127 177 239 278 337 397
#     4  11  24  40  66 101 136 179 225 278 346 414
#     4  12  24  41  62 101 147 179 221 273 349 420
#     4  10  23  44  66  92 128 181 227 287 334 399
#     4  12  24  37  66  99 140 183 220 276 349 413
#
# _framework density 22.996805999999999
#
# number of rings (size 3 to 8) (size 9 to 14) (size 15 to 20)
#    0.000    0.857    4.286    3.857    2.000    0.000 
#    0.000    6.429    0.000    0.000    0.000    3.000 
#    0.000    0.000    0.000    0.000    0.000    0.000 
#
# Total GULP energy -156520.351310 kJ/mol
# GULP energy per Si atom -5590.012547 kJ/mol
# Density = 2.294446 g / cm^3
# Si number density = 22.996806 Si / 1000 Ang^3
#
#
#
# Elastic Constant Matrix: (Units=GPa)
#
#
# Indices 1 2 3 4 5 6 
#
# 1 152.9951 40.4877 28.8704 0.0000 9.3748 0.0000
# 2 40.4877 68.4562 0.2718 0.0000 0.7316 0.0000
# 3 28.8704 0.2718 71.8534 0.0000 -18.9337 0.0000
# 4 0.0000 0.0000 0.0000 19.1447 0.0000 -1.6229
# 5 9.3748 0.7316 -18.9337 0.0000 33.0171 0.0000
# 6 0.0000 0.0000 0.0000 -1.6229 0.0000 18.7958
#
#
#
# Elastic Compliance Matrix: (Units=1/GPa)
#
#
# Indices 1 2 3 4 5 6 
#
# 1 0.009272 -0.005405 -0.005145 0.000000 -0.005463 0.000000
# 2 -0.005405 0.017764 0.002833 0.000000 0.002766 0.000000
# 3 -0.005145 0.002833 0.019251 0.000000 0.012437 0.000000
# 4 0.000000 0.000000 0.000000 0.052619 0.000000 0.004543
# 5 -0.005463 0.002766 0.012437 0.000000 0.038910 0.000000
# 6 0.000000 0.000000 0.000000 0.004543 0.000000 0.053596
#
#
# Mechanical properties :
#
#
# Convention : Reuss Voigt Hill
#
# Bulk Modulus (GPa) = 32.41046 48.06272 40.23659
# Shear Modulus (GPa) = 23.02788 29.10317 26.06552
#
# Velocity S-wave (km/s) = 3.16785 3.56129 3.37031
# Velocity P-wave (km/s) = 5.24446 6.15268 5.71664
#
# Compressibility (1/GPa) = 0.03085423
#
# Stress axis : x y z
#
# Youngs Moduli (GPa) = 107.85084 56.29413 51.94560
#
# Poissons Ratio (x) = 0.30427 0.26724
# Poissons Ratio (y) = 0.58294 -0.14718
# Poissons Ratio (z) = 0.55485 -0.15950
#
# Static dielectric constant tensor:
#      x y z
#    x 1.868270 0.000000 0.013200 
#    y 0.000000 1.910000 0.000000 
#    z 0.013200 0.000000 1.852780 
# 
# From -- ./inp_files/180870.got.cif
#   From: 2010.05.17/outbox.cif.g08.bks.cpg/sg15_91_cif.got.tgz:180870.got - 2010.06.03 18:47:42.
