data_PCOD9292408
_publ_section_title
;
Structure prediction by ZEFSAII (Michael W. Deem and Ramdas Pophale) SiO2 
 PCOD9292408
Probable space group: C 2/C
;
_chemical_formula_sum "Si O2"
_cell_formula_units_Z 48
_cell_length_a 19.837317
_cell_length_b 18.484966
_cell_length_c 8.651302
_cell_angle_alpha 90.000000
_cell_angle_beta 141.028679
_cell_angle_gamma 90.000000
_cell_volume 1995.199296
_symmetry_space_group_name_H-M "C 2/C"
_symmetry_group_IT_number 15
_symmetry_cell_setting 'monoclinic'
loop_
_space_group_symop_operation_xyz
x,y,z
-x,y,1/2-z
-x,-y,-z
x,-y,1/2+z
1/2+x,1/2+y,z
1/2-x,1/2+y,1/2-z
1/2-x,1/2-y,-z
1/2+x,1/2-y,1/2+z
loop_
_atom_site_type_symbol
_atom_site_label
_atom_site_fract_x
_atom_site_fract_y
_atom_site_fract_z
Si Si1 0.500000 0.967029 0.250000
Si Si2 0.500000 0.284795 0.750000
Si Si3 0.296935 0.055032 0.829479
Si Si4 0.468145 0.362751 0.361849
Si Si5 0.770530 0.663650 0.033780
Si Si6 0.649202 0.155167 0.999767
Si Si7 0.675065 0.568067 0.300046
O O1 0.575956 0.908395 0.297378
O O2 0.586673 0.017924 0.490664
O O3 0.478051 0.324602 0.548678
O O4 0.400669 0.232660 0.613882
O O5 0.310753 0.130104 0.945931
O O6 0.212418 0.065695 0.542295
O O7 0.236076 0.997347 0.828454
O O8 0.500000 0.328554 0.250000
O O9 0.341818 0.375557 0.127068
O O10 0.551951 0.427923 0.532642
O O11 0.750000 0.750000 0.000000
O O12 0.850217 0.644594 0.314220
O O13 0.769372 0.142532 0.159850
#
# Coordination Sequence:
#
# PCOD9292408 Si02
#       7
#     4   4   8   8   8   8   8
#     4   9  22  44  72 104 133 188 242 300 385 438
#     4  11  24  44  72 106 151 194 246 314 365 440
#     4  11  25  46  74 104 149 189 247 315 373 442
#     4  12  26  46  72 106 149 202 251 294 377 445
#     4  12  25  47  70 102 150 194 242 309 366 443
#     4  10  22  43  71 102 147 184 245 312 362 440
#     4  11  25  45  72 106 143 194 249 307 368 446
#
# _framework density 24.057746999999999
#
# number of rings (size 3 to 8) (size 9 to 14) (size 15 to 20)
#    0.000    1.000    3.333    3.000    0.000   10.000 
#    1.500    0.000    0.000    0.000    0.000    0.000 
#    0.000    0.000    0.000    0.000    0.000    0.000 
#
# Total GULP energy -133907.713737 kJ/mol
# GULP energy per Si atom -5579.488072 kJ/mol
# Density = 2.400299 g / cm^3
# Si number density = 24.057747 Si / 1000 Ang^3
#
#
#
# Elastic Constant Matrix: (Units=GPa)
#
#
# Indices 1 2 3 4 5 6 
#
# 1 54.0254 32.9870 25.1980 0.0000 -12.9164 0.0000
# 2 32.9870 85.3979 37.2723 0.0000 -6.0014 0.0000
# 3 25.1980 37.2723 136.3209 0.0000 -6.5182 0.0000
# 4 0.0000 0.0000 0.0000 30.7092 0.0000 3.4462
# 5 -12.9164 -6.0014 -6.5182 0.0000 57.0109 0.0000
# 6 0.0000 0.0000 0.0000 3.4462 0.0000 14.0334
#
#
#
# Elastic Compliance Matrix: (Units=1/GPa)
#
#
# Indices 1 2 3 4 5 6 
#
# 1 0.026007 -0.008760 -0.002186 0.000000 0.004720 0.000000
# 2 -0.008760 0.016303 -0.002867 0.000000 -0.000596 0.000000
# 3 -0.002186 -0.002867 0.008532 0.000000 0.000178 0.000000
# 4 0.000000 0.000000 0.000000 0.033486 0.000000 -0.008223
# 5 0.004720 -0.000596 0.000178 0.000000 0.018567 0.000000
# 6 0.000000 0.000000 0.000000 -0.008223 0.000000 0.073278
#
#
# Mechanical properties :
#
#
# Convention : Reuss Voigt Hill
#
# Bulk Modulus (GPa) = 43.07424 51.85100 47.46262
# Shear Modulus (GPa) = 23.63645 32.36983 28.00314
#
# Velocity S-wave (km/s) = 3.13787 3.67209 3.41544
# Velocity P-wave (km/s) = 5.57420 6.29115 5.94349
#
# Compressibility (1/GPa) = 0.02321573
#
# Stress axis : x y z
#
# Youngs Moduli (GPa) = 38.45182 61.33888 117.20398
#
# Poissons Ratio (x) = 0.53731 0.25626
# Poissons Ratio (y) = 0.33683 0.33600
# Poissons Ratio (z) = 0.08407 0.17585
#
# Static dielectric constant tensor:
#      x y z
#    x 1.995890 0.000000 0.014840 
#    y 0.000000 1.942620 0.000000 
#    z 0.014840 0.000000 1.932310 
# 
# From -- ./inp_files/58010.got.cif
#   From: 2010.05.17/outbox.cif.g08.bks.cpg/sg15_30_cif.got.tgz:58010.got - 2010.06.03 18:47:42.
