data_PCOD9292372
_publ_section_title
;
Structure prediction by ZEFSAII (Michael W. Deem and Ramdas Pophale) SiO2 
 PCOD9292372
Probable space group: C 2/C
;
_chemical_formula_sum "Si O2"
_cell_formula_units_Z 32
_cell_length_a 5.466205
_cell_length_b 30.128581
_cell_length_c 8.681297
_cell_angle_alpha 90.000000
_cell_angle_beta 93.694475
_cell_angle_gamma 90.000000
_cell_volume 1426.742943
_symmetry_space_group_name_H-M "C 2/C"
_symmetry_group_IT_number 15
_symmetry_cell_setting 'monoclinic'
loop_
_space_group_symop_operation_xyz
x,y,z
-x,y,1/2-z
-x,-y,-z
x,-y,1/2+z
1/2+x,1/2+y,z
1/2-x,1/2+y,1/2-z
1/2-x,1/2-y,-z
1/2+x,1/2-y,1/2+z
loop_
_atom_site_type_symbol
_atom_site_label
_atom_site_fract_x
_atom_site_fract_y
_atom_site_fract_z
Si Si1 0.235211 0.716757 0.145711
Si Si2 0.000000 0.920413 0.250000
Si Si3 0.500000 0.434607 0.750000
Si Si4 0.667853 0.042191 0.480669
Si Si5 0.292877 0.879915 0.001957
O O1 0.500000 0.716560 0.250000
O O2 0.000000 0.726055 0.250000
O O3 0.250000 0.750000 0.000000
O O4 0.182701 0.669252 0.061929
O O5 0.129817 0.951915 0.379291
O O6 0.194899 0.888678 0.170314
O O7 0.713569 0.462149 0.681742
O O8 0.409719 0.402809 0.612759
O O9 0.525434 0.088872 0.483469
O O10 0.500000 0.000000 0.500000
#
# Coordination Sequence:
#
# PCOD9292372 Si02
#       5
#     8   4   4   8   8
#     4  12  28  51  82 119 159 205 261 322 395 473
#     4  10  26  43  68 104 144 188 248 312 367 450
#     4  10  22  43  70  94 140 188 238 304 361 452
#     4  11  25  44  68 103 141 193 248 307 373 448
#     4  11  24  44  73 102 146 189 248 299 383 447
#
# _framework density 22.428706999999999
#
# number of rings (size 3 to 8) (size 9 to 14) (size 15 to 20)
#    0.000    1.000    1.250    3.750    5.250   12.000 
#    0.000    3.750    0.000    0.000    0.000    0.000 
#    0.000    0.000    0.000    0.000    0.000    0.000 
#
# Total GULP energy -89458.636691 kJ/mol
# GULP energy per Si atom -5591.164793 kJ/mol
# Density = 2.237766 g / cm^3
# Si number density = 22.428707 Si / 1000 Ang^3
#
#
#
# Elastic Constant Matrix: (Units=GPa)
#
#
# Indices 1 2 3 4 5 6 
#
# 1 119.6946 69.5792 48.3512 0.0000 -37.0255 0.0000
# 2 69.5792 171.5852 76.5361 0.0000 -18.8422 0.0000
# 3 48.3512 76.5361 123.1838 0.0000 -42.9950 0.0000
# 4 0.0000 0.0000 0.0000 29.5182 0.0000 -0.7352
# 5 -37.0255 -18.8422 -42.9950 0.0000 63.8065 0.0000
# 6 0.0000 0.0000 0.0000 -0.7352 0.0000 26.5849
#
#
#
# Elastic Compliance Matrix: (Units=1/GPa)
#
#
# Indices 1 2 3 4 5 6 
#
# 1 0.012906 -0.004498 -0.000158 0.000000 0.006054 0.000000
# 2 -0.004498 0.009714 -0.005465 0.000000 -0.003424 0.000000
# 3 -0.000158 -0.005465 0.014356 0.000000 0.007969 0.000000
# 4 0.000000 0.000000 0.000000 0.033901 0.000000 0.000938
# 5 0.006054 -0.003424 0.007969 0.000000 0.023544 0.000000
# 6 0.000000 0.000000 0.000000 0.000938 0.000000 0.037641
#
#
# Mechanical properties :
#
#
# Convention : Reuss Voigt Hill
#
# Bulk Modulus (GPa) = 59.75622 89.26628 74.51125
# Shear Modulus (GPa) = 31.66921 38.64838 35.15879
#
# Velocity S-wave (km/s) = 3.76173 4.15561 3.96356
# Velocity P-wave (km/s) = 6.75041 7.93170 7.36478
#
# Compressibility (1/GPa) = 0.01673466
#
# Stress axis : x y z
#
# Youngs Moduli (GPa) = 77.48307 102.94778 69.65494
#
# Poissons Ratio (x) = 0.46309 0.01099
# Poissons Ratio (y) = 0.34854 0.38065
# Poissons Ratio (z) = 0.01222 0.56258
#
# Static dielectric constant tensor:
#      x y z
#    x 1.930110 0.000000 -0.003990 
#    y 0.000000 1.756950 0.000000 
#    z -0.003990 0.000000 1.835330 
# 
# From -- ./inp_files/19979.got.cif
#   From: 2010.05.17/outbox.cif.g08.bks.cpg/sg15_10_cif.got.tgz:19979.got - 2010.06.03 18:47:42.
