data_PCOD9292248
_publ_section_title
;
Structure prediction by ZEFSAII (Michael W. Deem and Ramdas Pophale) SiO2 
 PCOD9292248
Probable space group: C 2/C
;
_chemical_formula_sum "Si O2"
_cell_formula_units_Z 56
_cell_length_a 19.923559
_cell_length_b 31.115798
_cell_length_c 8.805304
_cell_angle_alpha 90.000000
_cell_angle_beta 29.651632
_cell_angle_gamma 90.000000
_cell_volume 2700.575103
_symmetry_space_group_name_H-M "C 2/C"
_symmetry_group_IT_number 15
_symmetry_cell_setting 'monoclinic'
loop_
_space_group_symop_operation_xyz
x,y,z
-x,y,1/2-z
-x,-y,-z
x,-y,1/2+z
1/2+x,1/2+y,z
1/2-x,1/2+y,1/2-z
1/2-x,1/2-y,-z
1/2+x,1/2-y,1/2+z
loop_
_atom_site_type_symbol
_atom_site_label
_atom_site_fract_x
_atom_site_fract_y
_atom_site_fract_z
Si Si1 0.150525 0.395849 0.931456
Si Si2 0.364759 0.017894 0.841830
Si Si3 0.000000 0.955662 0.250000
Si Si4 0.551613 0.304226 0.386797
Si Si5 0.363677 0.401577 0.253543
Si Si6 0.500000 0.239655 0.750000
Si Si7 0.795857 0.033161 0.640837
Si Si8 0.723291 0.309406 0.746080
O O1 0.217937 0.401847 0.631608
O O2 0.251719 0.360858 0.804154
O O3 0.134562 0.440631 0.050814
O O4 0.000000 0.376737 0.250000
O O5 0.253020 0.030930 0.934740
O O6 0.500000 0.000000 0.500000
O O7 0.332824 0.976657 0.005280
O O8 0.038716 0.926963 0.319271
O O9 0.880993 0.989989 0.505498
O O10 0.585249 0.353165 0.367637
O O11 0.564800 0.270108 0.494026
O O12 0.395227 0.300212 0.640328
O O13 0.653494 0.297036 0.044618
O O14 0.359840 0.426271 0.100426
O O15 0.629566 0.212738 0.557992
#
# Coordination Sequence:
#
# PCOD9292248 Si02
#       8
#     8   8   4   8   8   4   8   8
#     4  11  21  40  65  89 121 171 214 260 319 380
#     4  12  24  40  60  87 127 166 219 265 318 372
#     4  12  22  39  60  82 124 164 216 253 320 374
#     4  10  24  41  68  99 132 169 208 271 329 385
#     4  11  23  41  61  91 129 161 215 269 316 378
#     4  12  22  43  70 102 130 164 216 263 330 398
#     4  12  24  38  60  91 120 170 211 264 312 371
#     4  10  22  43  68  96 131 171 213 261 326 402
#
# _framework density 20.736324
#
# number of rings (size 3 to 8) (size 9 to 14) (size 15 to 20)
#    0.000    0.857    3.571    5.143    0.000    1.714 
#    0.000    0.000    0.000    0.000    0.000    0.000 
#    0.000    0.000    0.000    0.000    0.000    0.000 
#
# Total GULP energy -156085.361344 kJ/mol
# GULP energy per Si atom -5574.477191 kJ/mol
# Density = 2.068913 g / cm^3
# Si number density = 20.736324 Si / 1000 Ang^3
#
#
#
# Elastic Constant Matrix: (Units=GPa)
#
#
# Indices 1 2 3 4 5 6 
#
# 1 95.2863 33.9852 13.9422 0.0001 0.1202 0.0002
# 2 33.9852 109.3170 24.9707 0.0000 1.6527 0.0000
# 3 13.9422 24.9707 92.9744 0.0002 -15.7242 0.0003
# 4 0.0001 0.0000 0.0002 34.8895 -0.0001 -3.4315
# 5 0.1202 1.6527 -15.7242 -0.0001 23.4720 -0.0002
# 6 0.0002 0.0000 0.0003 -3.4315 -0.0002 24.9074
#
#
#
# Elastic Compliance Matrix: (Units=1/GPa)
#
#
# Indices 1 2 3 4 5 6 
#
# 1 0.011869 -0.003473 -0.000920 0.000000 -0.000433 0.000000
# 2 -0.003473 0.010922 -0.002864 0.000000 -0.002670 0.000000
# 3 -0.000920 -0.002864 0.013192 0.000000 0.009044 0.000000
# 4 0.000000 0.000000 0.000000 0.029056 0.000000 0.004003
# 5 -0.000433 -0.002670 0.009044 0.000000 0.048853 0.000000
# 6 0.000000 0.000000 0.000000 0.004003 0.000000 0.040700
#
#
# Mechanical properties :
#
#
# Convention : Reuss Voigt Hill
#
# Bulk Modulus (GPa) = 46.58023 49.26377 47.92200
# Shear Modulus (GPa) = 28.36676 31.63243 29.99959
#
# Velocity S-wave (km/s) = 3.70263 3.90995 3.80770
# Velocity P-wave (km/s) = 6.38679 6.64774 6.51857
#
# Compressibility (1/GPa) = 0.02146833
#
# Stress axis : x y z
#
# Youngs Moduli (GPa) = 84.25598 91.55799 75.80090
#
# Poissons Ratio (x) = 0.31799 0.06975
# Poissons Ratio (y) = 0.29263 0.21710
# Poissons Ratio (z) = 0.07753 0.26224
#
# Static dielectric constant tensor:
#      x y z
#    x 1.716280 0.000000 0.005530 
#    y 0.000000 1.706810 0.000000 
#    z 0.005530 0.000000 1.832470 
# 
# From -- ./inp_files/59357.got.cif
#   From: 2010.05.17/outbox.cif.g08.bks.cpg/sg15_30_cif.got.tgz:59357.got - 2010.06.03 18:47:42.
