data_PCOD9292148
_publ_section_title
;
Structure prediction by ZEFSAII (Michael W. Deem and Ramdas Pophale) SiO2 
 PCOD9292148
Probable space group: C 2/C
;
_chemical_formula_sum "Si O2"
_cell_formula_units_Z 52
_cell_length_a 29.752317
_cell_length_b 12.624694
_cell_length_c 8.853935
_cell_angle_alpha 90.000000
_cell_angle_beta 43.990565
_cell_angle_gamma 90.000000
_cell_volume 2309.804304
_symmetry_space_group_name_H-M "C 2/C"
_symmetry_group_IT_number 15
_symmetry_cell_setting 'monoclinic'
loop_
_space_group_symop_operation_xyz
x,y,z
-x,y,1/2-z
-x,-y,-z
x,-y,1/2+z
1/2+x,1/2+y,z
1/2-x,1/2+y,1/2-z
1/2-x,1/2-y,-z
1/2+x,1/2-y,1/2+z
loop_
_atom_site_type_symbol
_atom_site_label
_atom_site_fract_x
_atom_site_fract_y
_atom_site_fract_z
Si Si1 0.437770 0.856543 0.470342
Si Si2 0.105981 0.541546 0.138658
Si Si3 0.177882 0.144567 0.059717
Si Si4 0.817524 0.797504 0.287431
Si Si5 0.908012 0.053968 0.724887
Si Si6 0.819982 0.380021 0.322777
Si Si7 0.000000 0.003291 0.250000
O O1 0.500000 0.799300 0.250000
O O2 0.430235 0.958011 0.379849
O O3 0.371535 0.790986 0.623289
O O4 0.440903 0.892687 0.637467
O O5 0.151730 0.472785 0.139903
O O6 0.147616 0.611110 0.921215
O O7 0.165426 0.265333 0.140412
O O8 0.118844 0.065105 0.227251
O O9 0.190998 0.140662 0.848620
O O10 0.242824 0.109389 0.989510
O O11 0.750000 0.750000 0.500000
O O12 0.847843 0.869726 0.345259
O O13 0.947981 0.063437 0.781103
O O14 0.959013 0.071035 0.467570
#
# Coordination Sequence:
#
# PCOD9292148 Si02
#       7
#     8   8   8   8   8   8   4
#     4  11  24  43  74  99 142 185 238 292 362 438
#     4  10  22  43  67 103 135 187 231 297 355 427
#     4  11  24  43  67 104 141 188 237 296 366 433
#     4  12  27  46  72 111 142 189 246 298 375 436
#     4  11  25  45  76 101 149 188 244 306 358 441
#     4  10  23  41  69 101 147 182 239 295 365 439
#     4  10  24  46  70 106 138 198 248 288 370 424
#
# _framework density 22.512727999999999
#
# number of rings (size 3 to 8) (size 9 to 14) (size 15 to 20)
#    0.000    1.231    3.077    1.385    7.538    3.692 
#    0.000    0.000    3.385    0.000    0.000    0.000 
#    0.000    0.000    0.000    0.000    0.000    0.000 
#
# Total GULP energy -145451.406116 kJ/mol
# GULP energy per Si atom -5594.284851 kJ/mol
# Density = 2.246149 g / cm^3
# Si number density = 22.512728 Si / 1000 Ang^3
#
#
#
# Elastic Constant Matrix: (Units=GPa)
#
#
# Indices 1 2 3 4 5 6 
#
# 1 131.3112 47.1897 45.4401 0.0000 1.8325 0.0000
# 2 47.1897 53.5831 28.1747 0.0000 -10.5125 0.0000
# 3 45.4401 28.1747 123.2368 0.0000 -2.0054 0.0000
# 4 0.0000 0.0000 0.0000 34.4121 0.0000 -1.0810
# 5 1.8325 -10.5125 -2.0054 0.0000 39.6117 0.0000
# 6 0.0000 0.0000 0.0000 -1.0810 0.0000 21.7113
#
#
#
# Elastic Compliance Matrix: (Units=1/GPa)
#
#
# Indices 1 2 3 4 5 6 
#
# 1 0.012059 -0.010130 -0.002185 0.000000 -0.003357 0.000000
# 2 -0.010130 0.030937 -0.003199 0.000000 0.008517 0.000000
# 3 -0.002185 -0.003199 0.009647 0.000000 -0.000260 0.000000
# 4 0.000000 0.000000 0.000000 0.029105 0.000000 0.001449
# 5 -0.003357 0.008517 -0.000260 0.000000 0.027647 0.000000
# 6 0.000000 0.000000 0.000000 0.001449 0.000000 0.046131
#
#
# Mechanical properties :
#
#
# Convention : Reuss Voigt Hill
#
# Bulk Modulus (GPa) = 46.26424 61.08222 53.67323
# Shear Modulus (GPa) = 25.80523 31.63547 28.72035
#
# Velocity S-wave (km/s) = 3.38931 3.75270 3.57562
# Velocity P-wave (km/s) = 5.99261 6.77999 6.39842
#
# Compressibility (1/GPa) = 0.02161497
#
# Stress axis : x y z
#
# Youngs Moduli (GPa) = 82.92708 32.32414 103.65536
#
# Poissons Ratio (x) = 0.32743 0.22650
# Poissons Ratio (y) = 0.84001 0.33162
# Poissons Ratio (z) = 0.18121 0.10341
#
# Static dielectric constant tensor:
#      x y z
#    x 1.845400 0.000000 -0.011140 
#    y 0.000000 1.840200 0.000000 
#    z -0.011140 0.000000 1.837930 
# 
# From -- ./inp_files/70096.got.cif
#   From: 2010.05.17/outbox.cif.g08.bks.cpg/sg15_36_cif.got.tgz:70096.got - 2010.06.03 18:47:42.
