data_PCOD9292933
_publ_section_title
;
Structure prediction by ZEFSAII (Michael W. Deem and Ramdas Pophale) SiO2 
 PCOD9292933
Probable space group: C 2/C
;
_chemical_formula_sum "Si O2"
_cell_formula_units_Z 28
_cell_length_a 8.207181
_cell_length_b 15.399327
_cell_length_c 11.970353
_cell_angle_alpha 90.000000
_cell_angle_beta 119.744879
_cell_angle_gamma 90.000000
_cell_volume 1313.542358
_symmetry_space_group_name_H-M "C 2/C"
_symmetry_group_IT_number 15
_symmetry_cell_setting 'monoclinic'
loop_
_space_group_symop_operation_xyz
x,y,z
-x,y,1/2-z
-x,-y,-z
x,-y,1/2+z
1/2+x,1/2+y,z
1/2-x,1/2+y,1/2-z
1/2-x,1/2-y,-z
1/2+x,1/2-y,1/2+z
loop_
_atom_site_type_symbol
_atom_site_label
_atom_site_fract_x
_atom_site_fract_y
_atom_site_fract_z
Si Si1 0.500000 0.472103 0.750000
Si Si2 0.032913 0.742904 0.395836
Si Si3 0.640564 0.572363 0.603983
Si Si4 0.371069 0.083228 0.481845
O O1 0.640515 0.533094 0.727725
O O2 0.348542 0.417120 0.631393
O O3 0.250000 0.750000 0.500000
O O4 0.000000 0.731930 0.250000
O O5 0.942926 0.832311 0.408724
O O6 0.956348 0.663547 0.443982
O O7 0.500000 0.500000 0.500000
O O8 0.832820 0.581007 0.601657
O O9 0.500000 0.000000 0.500000
#
# Coordination Sequence:
#
# PCOD9292933 Si02
#       4
#     4   8   8   8
#     4  10  22  44  70 102 136 192 232 306 348 438
#     4  12  27  47  73 108 146 189 242 298 359 430
#     4  10  22  45  71 100 143 183 241 291 363 420
#     4  11  26  43  72 105 144 188 240 294 367 423
#
# _framework density 21.316402
#
# number of rings (size 3 to 8) (size 9 to 14) (size 15 to 20)
#    0.000    1.143    1.429    4.286   12.000    0.000 
#    0.000    0.000    0.000    0.000    0.000    0.000 
#    0.000    0.000    0.000    0.000    0.000    0.000 
#
# Total GULP energy -77989.762213 kJ/mol
# GULP energy per Si atom -5570.697301 kJ/mol
# Density = 2.126788 g / cm^3
# Si number density = 21.316402 Si / 1000 Ang^3
#
#
#
# Elastic Constant Matrix: (Units=GPa)
#
#
# Indices 1 2 3 4 5 6 
#
# 1 183.8821 60.8055 63.6498 0.0000 -32.1446 0.0000
# 2 60.8055 134.4733 28.4680 0.0000 -21.9351 0.0000
# 3 63.6498 28.4680 93.7575 0.0000 -1.7502 0.0000
# 4 0.0000 0.0000 0.0000 16.6420 0.0000 -10.4324
# 5 -32.1446 -21.9351 -1.7502 0.0000 49.8078 0.0000
# 6 0.0000 0.0000 0.0000 -10.4324 0.0000 65.7522
#
#
#
# Elastic Compliance Matrix: (Units=1/GPa)
#
#
# Indices 1 2 3 4 5 6 
#
# 1 0.008725 -0.002107 -0.005199 0.000000 0.004520 0.000000
# 2 -0.002107 0.009083 -0.001279 0.000000 0.002595 0.000000
# 3 -0.005199 -0.001279 0.014520 0.000000 -0.003408 0.000000
# 4 0.000000 0.000000 0.000000 0.066725 0.000000 0.010587
# 5 0.004520 0.002595 -0.003408 0.000000 0.024018 0.000000
# 6 0.000000 0.000000 0.000000 0.010587 0.000000 0.016888
#
#
# Mechanical properties :
#
#
# Convention : Reuss Voigt Hill
#
# Bulk Modulus (GPa) = 65.97231 79.77329 72.87280
# Shear Modulus (GPa) = 30.82953 43.71972 37.27463
#
# Velocity S-wave (km/s) = 3.80713 4.53370 4.18621
# Velocity P-wave (km/s) = 7.09520 8.05671 7.59119
#
# Compressibility (1/GPa) = 0.01515787
#
# Stress axis : x y z
#
# Youngs Moduli (GPa) = 114.61602 110.09114 68.87086
#
# Poissons Ratio (x) = 0.23199 0.35805
# Poissons Ratio (y) = 0.24152 0.08809
# Poissons Ratio (z) = 0.59587 0.14081
#
# Static dielectric constant tensor:
#      x y z
#    x 1.790910 0.000000 -0.247470 
#    y 0.000000 0.806550 0.000000 
#    z -0.247470 0.000000 2.387900 
# 
# From -- ./inp_files/75011.got.cif
#   From: 2010.05.17/outbox.cif.g08.bks.cpg/sg15_38_cif.got.tgz:75011.got - 2010.06.03 18:47:42.
