data_PCOD9292149
_publ_section_title
;
Structure prediction by ZEFSAII (Michael W. Deem and Ramdas Pophale) SiO2 
 PCOD9292149
Probable space group: C 2/C
;
_chemical_formula_sum "Si O2"
_cell_formula_units_Z 52
_cell_length_a 5.157423
_cell_length_b 27.386669
_cell_length_c 15.323179
_cell_angle_alpha 90.000000
_cell_angle_beta 65.011814
_cell_angle_gamma 90.000000
_cell_volume 1961.725773
_symmetry_space_group_name_H-M "C 2/C"
_symmetry_group_IT_number 15
_symmetry_cell_setting 'monoclinic'
loop_
_space_group_symop_operation_xyz
x,y,z
-x,y,1/2-z
-x,-y,-z
x,-y,1/2+z
1/2+x,1/2+y,z
1/2-x,1/2+y,1/2-z
1/2-x,1/2-y,-z
1/2+x,1/2-y,1/2+z
loop_
_atom_site_type_symbol
_atom_site_label
_atom_site_fract_x
_atom_site_fract_y
_atom_site_fract_z
Si Si1 0.848100 0.871538 0.866426
Si Si2 0.183342 0.403686 0.372213
Si Si3 0.484956 0.044539 0.345429
Si Si4 0.000000 0.448518 0.250000
Si Si5 0.167809 0.793269 0.133674
Si Si6 0.517274 0.573394 0.994450
Si Si7 0.170010 0.237807 0.133022
O O1 0.645087 0.919594 0.888516
O O2 0.027161 0.881774 0.929689
O O3 0.722138 0.817551 0.893199
O O4 0.000000 0.872111 0.750000
O O5 0.219723 0.409275 0.262504
O O6 0.207976 0.347072 0.393448
O O7 0.362270 0.428683 0.423433
O O8 0.850585 0.422570 0.424800
O O9 0.500000 0.071258 0.250000
O O10 0.163267 0.034075 0.423348
O O11 0.612109 0.992222 0.302320
O O12 0.427528 0.755198 0.101223
O O13 0.000000 0.792339 0.250000
O O14 0.925255 0.776291 0.101813
O O15 0.000000 0.238173 0.250000
#
# Coordination Sequence:
#
# PCOD9292149 Si02
#       7
#     8   8   8   4   8   8   8
#     4  11  21  43  77 107 150 189 241 300 367 434
#     4  12  28  48  73 106 149 193 244 299 364 424
#     4  10  23  49  74 108 141 189 243 291 373 434
#     4  10  28  52  78 106 134 204 246 300 366 444
#     4  10  22  43  67 103 143 192 251 291 340 429
#     4  12  26  46  74 110 152 186 234 310 367 423
#     4   9  21  36  71 105 138 188 248 290 351 420
#
# _framework density 26.507273999999999
#
# number of rings (size 3 to 8) (size 9 to 14) (size 15 to 20)
#    0.462    0.923    3.077    0.923    7.538    1.846 
#    8.308    4.615    0.000    0.000    0.000    0.000 
#    0.000    0.000    0.000    0.000    0.000    0.000 
#
# Total GULP energy -144793.959616 kJ/mol
# GULP energy per Si atom -5568.998447 kJ/mol
# Density = 2.644694 g / cm^3
# Si number density = 26.507274 Si / 1000 Ang^3
#
#
#
# Elastic Constant Matrix: (Units=GPa)
#
#
# Indices 1 2 3 4 5 6 
#
# 1 164.9879 31.7889 31.2830 0.0000 15.1220 0.0000
# 2 31.7889 101.2695 -22.0663 0.0000 3.1959 0.0000
# 3 31.2830 -22.0663 94.4862 0.0000 17.0552 0.0000
# 4 0.0000 0.0000 0.0000 13.7144 0.0000 -2.1511
# 5 15.1220 3.1959 17.0552 0.0000 36.5468 0.0000
# 6 0.0000 0.0000 0.0000 -2.1511 0.0000 30.7192
#
#
#
# Elastic Compliance Matrix: (Units=1/GPa)
#
#
# Indices 1 2 3 4 5 6 
#
# 1 0.007277 -0.002852 -0.002814 0.000000 -0.001448 0.000000
# 2 -0.002852 0.011691 0.003981 0.000000 -0.001700 0.000000
# 3 -0.002814 0.003981 0.013429 0.000000 -0.005451 0.000000
# 4 0.000000 0.000000 0.000000 0.073726 0.000000 0.005163
# 5 -0.001448 -0.001700 -0.005451 0.000000 0.030654 0.000000
# 6 0.000000 0.000000 0.000000 0.005163 0.000000 0.032914
#
#
# Mechanical properties :
#
#
# Convention : Reuss Voigt Hill
#
# Bulk Modulus (GPa) = 34.44881 49.19497 41.82189
# Shear Modulus (GPa) = 27.36208 37.51196 32.43702
#
# Velocity S-wave (km/s) = 3.21635 3.76594 3.50194
# Velocity P-wave (km/s) = 5.17855 6.12446 5.67126
#
# Compressibility (1/GPa) = 0.02902858
#
# Stress axis : x y z
#
# Youngs Moduli (GPa) = 137.42421 85.53632 74.46672
#
# Poissons Ratio (x) = 0.24391 0.20953
# Poissons Ratio (y) = 0.39188 -0.29648
# Poissons Ratio (z) = 0.38667 -0.34055
#
# Static dielectric constant tensor:
#      x y z
#    x 2.135820 0.000000 -0.037220 
#    y 0.000000 2.047910 0.000000 
#    z -0.037220 0.000000 2.896520 
# 
# From -- ./inp_files/186053.got.cif
#   From: 2010.05.17/outbox.cif.g08.bks.cpg/sg15_94_cif.got.tgz:186053.got - 2010.06.03 18:47:42.
