data_PCOD9292852
_publ_section_title
;
Structure prediction by ZEFSAII (Michael W. Deem and Ramdas Pophale) SiO2 
 PCOD9292852
Probable space group: C 2/C
;
_chemical_formula_sum "Si O2"
_cell_formula_units_Z 48
_cell_length_a 13.931673
_cell_length_b 4.842849
_cell_length_c 27.840031
_cell_angle_alpha 90.000000
_cell_angle_beta 96.486645
_cell_angle_gamma 90.000000
_cell_volume 1866.314015
_symmetry_space_group_name_H-M "C 2/C"
_symmetry_group_IT_number 15
_symmetry_cell_setting 'monoclinic'
loop_
_space_group_symop_operation_xyz
x,y,z
-x,y,1/2-z
-x,-y,-z
x,-y,1/2+z
1/2+x,1/2+y,z
1/2-x,1/2+y,1/2-z
1/2-x,1/2-y,-z
1/2+x,1/2-y,1/2+z
loop_
_atom_site_type_symbol
_atom_site_label
_atom_site_fract_x
_atom_site_fract_y
_atom_site_fract_z
Si Si1 0.980659 0.064161 0.138909
Si Si2 0.257012 0.277098 0.718781
Si Si3 0.834872 0.679046 0.073598
Si Si4 0.827577 0.549426 0.479743
Si Si5 0.557821 0.940637 0.801494
Si Si6 0.176574 0.168708 0.616612
O O1 0.901611 0.921275 0.099098
O O2 0.959143 0.874891 0.184458
O O3 0.089955 0.027877 0.127774
O O4 0.972637 0.381773 0.153382
O O5 0.291673 0.555777 0.747113
O O6 0.341190 0.076383 0.706094
O O7 0.198744 0.344201 0.666522
O O8 0.779456 0.468329 0.106548
O O9 0.737655 0.810704 0.046357
O O10 0.887448 0.547248 0.029733
O O11 0.750000 0.750000 0.500000
O O12 0.866161 0.688569 0.433704
O O13 0.500000 0.994650 0.750000
#
# Coordination Sequence:
#
# PCOD9292852 Si02
#       6
#     8   8   8   8   8   8
#     4  12  26  42  71 101 139 184 228 291 353 417
#     4  12  25  42  69 100 134 183 230 279 345 416
#     4  10  22  44  68  99 135 181 229 290 350 414
#     4   9  21  42  70  97 134 179 229 288 351 415
#     4  12  25  46  65 101 143 181 234 291 343 418
#     4  11  24  42  68  99 136 181 230 284 350 420
#
# _framework density 25.719144
#
# number of rings (size 3 to 8) (size 9 to 14) (size 15 to 20)
#    0.000    1.000    1.667    4.500    7.000    0.667 
#    0.000    7.500    0.000    0.000    0.000    0.000 
#    0.000    0.000    0.000    0.000    0.000    0.000 
#
# Total GULP energy -133934.148842 kJ/mol
# GULP energy per Si atom -5580.589535 kJ/mol
# Density = 2.566061 g / cm^3
# Si number density = 25.719144 Si / 1000 Ang^3
#
#
#
# Elastic Constant Matrix: (Units=GPa)
#
#
# Indices 1 2 3 4 5 6 
#
# 1 61.7180 -8.2968 23.5995 0.0000 -0.2149 0.0000
# 2 -8.2968 90.0085 25.5525 0.0000 -3.3951 0.0000
# 3 23.5995 25.5525 152.9905 0.0000 5.8495 0.0000
# 4 0.0000 0.0000 0.0000 26.0342 0.0000 4.2606
# 5 -0.2149 -3.3951 5.8495 0.0000 36.2954 0.0000
# 6 0.0000 0.0000 0.0000 4.2606 0.0000 15.3209
#
#
#
# Elastic Compliance Matrix: (Units=1/GPa)
#
#
# Indices 1 2 3 4 5 6 
#
# 1 0.017779 0.002582 -0.003207 0.000000 0.000864 0.000000
# 2 0.002582 0.012111 -0.002480 0.000000 0.001548 0.000000
# 3 -0.003207 -0.002480 0.007501 0.000000 -0.001460 0.000000
# 4 0.000000 0.000000 0.000000 0.040243 0.000000 -0.011191
# 5 0.000864 0.001548 -0.001460 0.000000 0.027937 0.000000
# 6 0.000000 0.000000 0.000000 -0.011191 0.000000 0.068382
#
#
# Mechanical properties :
#
#
# Convention : Reuss Voigt Hill
#
# Bulk Modulus (GPa) = 32.07144 42.93636 37.50390
# Shear Modulus (GPa) = 26.23900 33.12087 29.67993
#
# Velocity S-wave (km/s) = 3.19754 3.59247 3.40075
# Velocity P-wave (km/s) = 5.11168 5.82567 5.48031
#
# Compressibility (1/GPa) = 0.03118039
#
# Stress axis : x y z
#
# Youngs Moduli (GPa) = 56.24617 82.57288 133.31456
#
# Poissons Ratio (x) = -0.21318 0.42750
# Poissons Ratio (y) = -0.14521 0.33064
# Poissons Ratio (z) = 0.18037 0.20479
#
# Static dielectric constant tensor:
#      x y z
#    x 2.244980 0.000000 -0.001990 
#    y 0.000000 2.205720 0.000000 
#    z -0.001990 0.000000 2.326860 
# 
# From -- ./inp_files/294416.got.cif
#   From: 2010.05.17/outbox.cif.g08.bks.cpg/sg15_148_cif.got.tgz:294416.got - 2010.06.03 18:47:42.
