data_PCOD9292382
_publ_section_title
;
Structure prediction by ZEFSAII (Michael W. Deem and Ramdas Pophale) SiO2 
 PCOD9292382
Probable space group: C 2/C
;
_chemical_formula_sum "Si O2"
_cell_formula_units_Z 48
_cell_length_a 17.202060
_cell_length_b 8.316633
_cell_length_c 30.110556
_cell_angle_alpha 90.000000
_cell_angle_beta 153.372991
_cell_angle_gamma 90.000000
_cell_volume 1930.633175
_symmetry_space_group_name_H-M "C 2/C"
_symmetry_group_IT_number 15
_symmetry_cell_setting 'monoclinic'
loop_
_space_group_symop_operation_xyz
x,y,z
-x,y,1/2-z
-x,-y,-z
x,-y,1/2+z
1/2+x,1/2+y,z
1/2-x,1/2+y,1/2-z
1/2-x,1/2-y,-z
1/2+x,1/2-y,1/2+z
loop_
_atom_site_type_symbol
_atom_site_label
_atom_site_fract_x
_atom_site_fract_y
_atom_site_fract_z
Si Si1 0.605189 0.612939 0.258826
Si Si2 0.255876 0.259986 0.934301
Si Si3 0.000854 0.873774 0.367181
Si Si4 0.831166 0.585891 0.757574
Si Si5 0.980736 0.468414 0.426688
Si Si6 0.112586 0.868841 0.584636
O O1 0.500000 0.572434 0.250000
O O2 0.519435 0.536939 0.170748
O O3 0.603070 0.803014 0.248523
O O4 0.803141 0.544865 0.357024
O O5 0.078267 0.241270 0.869247
O O6 0.246061 0.316985 0.879543
O O7 0.370949 0.372666 0.025515
O O8 0.361785 0.091356 0.986085
O O9 0.817967 0.815562 0.291989
O O10 0.960645 0.544569 0.863129
O O11 0.713444 0.447174 0.676624
O O12 0.992884 0.289388 0.453553
O O13 0.000000 0.000000 0.500000
#
# Coordination Sequence:
#
# PCOD9292382 Si02
#       6
#     8   8   8   8   8   8
#     4  11  23  44  67  99 135 181 233 282 346 410
#     4  11  23  44  71 101 137 178 232 284 353 407
#     4  10  22  43  70  98 135 180 228 280 343 420
#     4  11  24  46  69 100 140 182 229 285 342 414
#     4  11  23  44  73  96 136 188 225 283 354 407
#     4  12  24  40  67 104 137 174 230 288 336 413
#
# _framework density 24.862310999999998
#
# number of rings (size 3 to 8) (size 9 to 14) (size 15 to 20)
#    0.000    1.000    3.333    3.500    2.333    1.333 
#    6.000    4.167    0.000    0.000    0.000    0.000 
#    0.000    0.000    0.000    0.000    0.000    0.000 
#
# Total GULP energy -134312.241635 kJ/mol
# GULP energy per Si atom -5596.343401 kJ/mol
# Density = 2.480572 g / cm^3
# Si number density = 24.862311 Si / 1000 Ang^3
#
#
#
# Elastic Constant Matrix: (Units=GPa)
#
#
# Indices 1 2 3 4 5 6 
#
# 1 138.2802 49.4932 27.3695 0.0000 -15.1354 0.0000
# 2 49.4932 101.9874 44.1389 -0.0001 -17.8268 0.0000
# 3 27.3695 44.1389 63.4797 0.0000 -19.3503 0.0000
# 4 0.0000 -0.0001 0.0000 32.5424 0.0000 -14.3718
# 5 -15.1354 -17.8268 -19.3503 0.0000 39.7579 0.0000
# 6 0.0000 0.0000 0.0000 -14.3718 0.0000 47.7465
#
#
#
# Elastic Compliance Matrix: (Units=1/GPa)
#
#
# Indices 1 2 3 4 5 6 
#
# 1 0.008870 -0.003710 -0.000848 0.000000 0.001300 0.000000
# 2 -0.003710 0.015690 -0.008919 0.000000 0.001282 0.000000
# 3 -0.000848 -0.008919 0.024662 0.000000 0.007681 0.000000
# 4 0.000000 0.000000 0.000000 0.035440 0.000000 0.010668
# 5 0.001300 0.001282 0.007681 0.000000 0.029960 0.000000
# 6 0.000000 0.000000 0.000000 0.010668 0.000000 0.024155
#
#
# Mechanical properties :
#
#
# Convention : Reuss Voigt Hill
#
# Bulk Modulus (GPa) = 44.91039 60.63893 52.77466
# Shear Modulus (GPa) = 28.87609 36.19240 32.53424
#
# Velocity S-wave (km/s) = 3.41169 3.81952 3.62135
# Velocity P-wave (km/s) = 5.79848 6.62529 6.22563
#
# Compressibility (1/GPa) = 0.02226656
#
# Stress axis : x y z
#
# Youngs Moduli (GPa) = 112.74224 63.73621 40.54853
#
# Poissons Ratio (x) = 0.23646 0.03439
# Poissons Ratio (y) = 0.41828 0.36166
# Poissons Ratio (z) = 0.09563 0.56847
#
# Static dielectric constant tensor:
#      x y z
#    x 1.923190 0.000000 0.013640 
#    y 0.000000 2.072630 0.000000 
#    z 0.013640 0.000000 1.983590 
# 
# From -- ./inp_files/315782.got.cif
#   From: 2010.05.17/outbox.cif.g08.bks.cpg/sg15_158_cif.got.tgz:315782.got - 2010.06.03 18:47:42.
