data_PCOD9292556
_publ_section_title
;
Structure prediction by ZEFSAII (Michael W. Deem and Ramdas Pophale) SiO2 
 PCOD9292556
Probable space group: C 2/C
;
_chemical_formula_sum "Si O2"
_cell_formula_units_Z 56
_cell_length_a 14.239487
_cell_length_b 14.839188
_cell_length_c 15.433433
_cell_angle_alpha 90.000000
_cell_angle_beta 124.417024
_cell_angle_gamma 90.000000
_cell_volume 2690.248078
_symmetry_space_group_name_H-M "C 2/C"
_symmetry_group_IT_number 15
_symmetry_cell_setting 'monoclinic'
loop_
_space_group_symop_operation_xyz
x,y,z
-x,y,1/2-z
-x,-y,-z
x,-y,1/2+z
1/2+x,1/2+y,z
1/2-x,1/2+y,1/2-z
1/2-x,1/2-y,-z
1/2+x,1/2-y,1/2+z
loop_
_atom_site_type_symbol
_atom_site_label
_atom_site_fract_x
_atom_site_fract_y
_atom_site_fract_z
Si Si1 0.154288 0.020813 0.757082
Si Si2 0.383820 0.954388 0.913977
Si Si3 0.391598 0.672225 0.330150
Si Si4 0.213434 0.644862 0.967337
Si Si5 0.000000 0.844022 0.250000
Si Si6 0.000000 0.307772 0.250000
Si Si7 0.904714 0.122682 0.947590
Si Si8 0.638030 0.779659 0.693754
O O1 0.102975 0.082839 0.806353
O O2 0.104725 0.058104 0.640202
O O3 0.290400 0.024685 0.830483
O O4 0.125303 0.915093 0.740421
O O5 0.404564 0.878015 0.853199
O O6 0.327882 0.903316 0.966951
O O7 0.500000 0.000000 0.000000
O O8 0.455305 0.746522 0.306139
O O9 0.470478 0.642128 0.450913
O O10 0.267220 0.707180 0.294290
O O11 0.108431 0.640481 0.845093
O O12 0.322843 0.595063 0.983485
O O13 0.250000 0.750000 0.000000
O O14 0.951721 0.775488 0.296121
O O15 0.853841 0.217163 0.886720
#
# Coordination Sequence:
#
# PCOD9292556 Si02
#       8
#     8   8   8   8   4   4   8   8
#     4  10  24  42  62  92 130 167 216 272 322 385
#     4  11  25  45  65  94 134 170 214 275 339 382
#     4  11  21  38  65  94 129 163 212 278 326 373
#     4  12  22  39  66  96 122 170 218 264 326 393
#     4  10  23  42  67  88 130 176 216 252 325 390
#     4  12  21  34  69  96 126 160 216 270 325 382
#     4  11  22  39  66  94 126 168 224 263 324 395
#     4  10  22  44  62  93 129 171 215 266 319 398
#
# _framework density 20.815923000000002
#
# number of rings (size 3 to 8) (size 9 to 14) (size 15 to 20)
#    0.000    1.143    4.286    1.714    4.000    2.286 
#    5.143    3.571    0.000    0.000    0.000    0.000 
#    0.000    0.000    0.000    0.000    0.000    0.000 
#
# Total GULP energy -156213.955234 kJ/mol
# GULP energy per Si atom -5579.069830 kJ/mol
# Density = 2.076855 g / cm^3
# Si number density = 20.815923 Si / 1000 Ang^3
#
#
#
# Elastic Constant Matrix: (Units=GPa)
#
#
# Indices 1 2 3 4 5 6 
#
# 1 87.9977 33.5880 17.2650 0.0000 -10.2346 0.0000
# 2 33.5880 59.5358 19.5742 0.0000 9.3260 0.0000
# 3 17.2650 19.5742 122.9522 0.0000 24.8604 0.0000
# 4 0.0000 0.0000 0.0000 24.0626 0.0000 -1.4415
# 5 -10.2346 9.3260 24.8604 0.0000 28.4255 0.0000
# 6 0.0000 0.0000 0.0000 -1.4415 0.0000 41.3621
#
#
#
# Elastic Compliance Matrix: (Units=1/GPa)
#
#
# Indices 1 2 3 4 5 6 
#
# 1 0.017671 -0.010883 -0.003349 0.000000 0.012862 0.000000
# 2 -0.010883 0.024822 0.000019 0.000000 -0.012078 0.000000
# 3 -0.003349 0.000019 0.010746 0.000000 -0.010610 0.000000
# 4 0.000000 0.000000 0.000000 0.041645 0.000000 0.001451
# 5 0.012862 -0.012078 -0.010610 0.000000 0.053053 0.000000
# 6 0.000000 0.000000 0.000000 0.001451 0.000000 0.024227
#
#
# Mechanical properties :
#
#
# Convention : Reuss Voigt Hill
#
# Bulk Modulus (GPa) = 40.30356 45.70445 43.00400
# Shear Modulus (GPa) = 23.93918 32.10728 28.02323
#
# Velocity S-wave (km/s) = 3.39491 3.93165 3.67309
# Velocity P-wave (km/s) = 5.89670 6.52799 6.22036
#
# Compressibility (1/GPa) = 0.02481171
#
# Stress axis : x y z
#
# Youngs Moduli (GPa) = 56.59004 40.28645 93.05818
#
# Poissons Ratio (x) = 0.43843 0.31170
# Poissons Ratio (y) = 0.61586 -0.00173
# Poissons Ratio (z) = 0.18955 -0.00075
#
# Static dielectric constant tensor:
#      x y z
#    x 1.629320 0.000000 -0.021270 
#    y 0.000000 1.765650 0.000000 
#    z -0.021270 0.000000 1.764640 
# 
# From -- ./inp_files/205527.got.cif
#   From: 2010.05.17/outbox.cif.g08.bks.cpg/sg15_103_cif.got.tgz:205527.got - 2010.06.03 18:47:42.
