data_PCOD9292973
_publ_section_title
;
Structure prediction by ZEFSAII (Michael W. Deem and Ramdas Pophale) SiO2 
 PCOD9292973
Probable space group: C 2/C
;
_chemical_formula_sum "Si O2"
_cell_formula_units_Z 48
_cell_length_a 18.549695
_cell_length_b 5.046438
_cell_length_c 24.670409
_cell_angle_alpha 90.000000
_cell_angle_beta 113.034057
_cell_angle_gamma 90.000000
_cell_volume 2125.271800
_symmetry_space_group_name_H-M "C 2/C"
_symmetry_group_IT_number 15
_symmetry_cell_setting 'monoclinic'
loop_
_space_group_symop_operation_xyz
x,y,z
-x,y,1/2-z
-x,-y,-z
x,-y,1/2+z
1/2+x,1/2+y,z
1/2-x,1/2+y,1/2-z
1/2-x,1/2-y,-z
1/2+x,1/2-y,1/2+z
loop_
_atom_site_type_symbol
_atom_site_label
_atom_site_fract_x
_atom_site_fract_y
_atom_site_fract_z
Si Si1 0.835210 0.826281 0.047426
Si Si2 0.054604 0.753872 0.521881
Si Si3 0.750501 0.627405 0.782213
Si Si4 0.418227 0.818717 0.350202
Si Si5 0.084677 0.973868 0.765623
Si Si6 0.905042 0.644621 0.623603
O O1 0.856106 0.620486 0.101132
O O2 0.861981 0.117647 0.076933
O O3 0.750000 0.750000 0.000000
O O4 0.886323 0.758470 0.009994
O O5 0.090158 0.790156 0.591890
O O6 0.000000 0.500000 0.500000
O O7 0.000000 0.000000 0.500000
O O8 0.737513 0.436823 0.726473
O O9 0.837055 0.517258 0.823553
O O10 0.671249 0.601825 0.793475
O O11 0.419494 0.636171 0.296926
O O12 0.507536 0.925215 0.373113
O O13 0.086716 0.747199 0.812417
O O14 0.000000 0.118723 0.750000
#
# Coordination Sequence:
#
# PCOD9292973 Si02
#       6
#     8   8   8   8   8   8
#     4  12  26  46  68 101 136 177 225 274 334 393
#     4  12  24  45  71  97 131 178 226 273 326 398
#     4  10  23  42  66  99 132 171 223 271 329 396
#     4  10  22  44  70  96 136 170 229 270 335 388
#     4   9  22  44  70 100 135 176 215 277 340 395
#     4  11  24  45  69  99 136 177 222 275 334 401
#
# _framework density 22.585349000000001
#
# number of rings (size 3 to 8) (size 9 to 14) (size 15 to 20)
#    0.000    1.333    3.333    0.500    2.333    9.333 
#    6.000    7.500    0.000    0.000    0.000    0.000 
#    0.000    0.000    0.000    0.000    0.000    0.000 
#
# Total GULP energy -133651.814308 kJ/mol
# GULP energy per Si atom -5568.825596 kJ/mol
# Density = 2.253394 g / cm^3
# Si number density = 22.585349 Si / 1000 Ang^3
#
#
#
# Elastic Constant Matrix: (Units=GPa)
#
#
# Indices 1 2 3 4 5 6 
#
# 1 181.2841 49.2768 37.4251 0.0001 22.2742 -0.0009
# 2 49.2768 85.2546 21.2057 -0.0001 4.4060 -0.0010
# 3 37.4251 21.2057 111.4074 0.0000 -13.7896 -0.0005
# 4 0.0001 -0.0001 0.0000 24.4156 0.0002 0.9667
# 5 22.2742 4.4060 -13.7896 0.0002 56.6156 0.0000
# 6 -0.0009 -0.0010 -0.0005 0.9667 0.0000 21.4603
#
#
#
# Elastic Compliance Matrix: (Units=1/GPa)
#
#
# Indices 1 2 3 4 5 6 
#
# 1 0.007306 -0.003521 -0.002171 0.000000 -0.003129 0.000000
# 2 -0.003521 0.014147 -0.001521 0.000000 -0.000086 0.000001
# 3 -0.002171 -0.001521 0.010430 0.000000 0.003513 0.000000
# 4 0.000000 0.000000 0.000000 0.041031 0.000000 -0.001848
# 5 -0.003129 -0.000086 0.003513 0.000000 0.019756 0.000000
# 6 0.000000 0.000001 0.000000 -0.001848 0.000000 0.046681
#
#
# Mechanical properties :
#
#
# Convention : Reuss Voigt Hill
#
# Bulk Modulus (GPa) = 57.28397 65.97349 61.62873
# Shear Modulus (GPa) = 31.32897 38.50086 34.91492
#
# Velocity S-wave (km/s) = 3.72847 4.13326 3.93607
# Velocity P-wave (km/s) = 6.62976 7.21475 6.92843
#
# Compressibility (1/GPa) = 0.01745689
#
# Stress axis : x y z
#
# Youngs Moduli (GPa) = 136.87237 70.68421 95.87907
#
# Poissons Ratio (x) = 0.24888 0.20820
# Poissons Ratio (y) = 0.48193 0.14580
# Poissons Ratio (z) = 0.29721 0.10749
#
# Static dielectric constant tensor:
#      x y z
#    x 2.269980 0.000000 0.645120 
#    y 0.000000 1.926540 0.000000 
#    z 0.645120 0.000000 2.728430 
# 
# From -- ./inp_files/278726.got.cif
#   From: 2010.05.17/outbox.cif.g08.bks.cpg/sg15_140_cif.got.tgz:278726.got - 2010.06.03 18:47:42.
