data_PCOD9292328
_publ_section_title
;
Structure prediction by ZEFSAII (Michael W. Deem and Ramdas Pophale) SiO2 
 PCOD9292328
Probable space group: C 2/C
;
_chemical_formula_sum "Si O2"
_cell_formula_units_Z 48
_cell_length_a 14.049729
_cell_length_b 20.070710
_cell_length_c 8.486284
_cell_angle_alpha 90.000000
_cell_angle_beta 108.498833
_cell_angle_gamma 90.000000
_cell_volume 2269.382954
_symmetry_space_group_name_H-M "C 2/C"
_symmetry_group_IT_number 15
_symmetry_cell_setting 'monoclinic'
loop_
_space_group_symop_operation_xyz
x,y,z
-x,y,1/2-z
-x,-y,-z
x,-y,1/2+z
1/2+x,1/2+y,z
1/2-x,1/2+y,1/2-z
1/2-x,1/2-y,-z
1/2+x,1/2-y,1/2+z
loop_
_atom_site_type_symbol
_atom_site_label
_atom_site_fract_x
_atom_site_fract_y
_atom_site_fract_z
Si Si1 0.397083 0.933419 0.115935
Si Si2 0.566787 0.551338 0.137353
Si Si3 0.100489 0.277913 0.378693
Si Si4 0.792294 0.244058 0.761339
Si Si5 0.795435 0.857903 0.982293
Si Si6 0.272093 0.976505 0.339277
O O1 0.500000 0.958366 0.250000
O O2 0.412538 0.855890 0.088457
O O3 0.309891 0.941830 0.200356
O O4 0.356763 0.972798 0.944488
O O5 0.500000 0.572884 0.250000
O O6 0.608085 0.612384 0.055479
O O7 0.666778 0.513464 0.252904
O O8 0.500000 0.500000 0.000000
O O9 0.129344 0.242859 0.555849
O O10 0.187925 0.272668 0.294736
O O11 0.000000 0.251147 0.250000
O O12 0.818068 0.193059 0.636152
O O13 0.774354 0.316592 0.674441
O O14 0.741822 0.921125 0.033349
#
# Coordination Sequence:
#
# PCOD9292328 Si02
#       6
#     8   8   8   8   8   8
#     4  11  23  40  69 100 131 173 224 281 342 408
#     4  12  24  43  67 103 139 179 227 285 350 421
#     4  10  22  43  69  98 131 175 235 280 335 415
#     4  10  23  45  67  94 137 186 223 286 346 404
#     4  11  23  43  67  96 139 178 232 276 348 412
#     4  12  22  42  65  99 138 173 217 284 347 406
#
# _framework density 21.151123999999999
#
# number of rings (size 3 to 8) (size 9 to 14) (size 15 to 20)
#    0.000    1.000    5.000    1.500    0.000    0.667 
#    6.000    2.500    0.000    0.000    0.000    0.000 
#    0.000    0.000    0.000    0.000    0.000    0.000 
#
# Total GULP energy -134224.388843 kJ/mol
# GULP energy per Si atom -5592.682868 kJ/mol
# Density = 2.110298 g / cm^3
# Si number density = 21.151124 Si / 1000 Ang^3
#
#
#
# Elastic Constant Matrix: (Units=GPa)
#
#
# Indices 1 2 3 4 5 6 
#
# 1 81.6697 26.4164 56.8871 0.0000 9.1164 0.0000
# 2 26.4164 70.4535 36.4414 0.0000 5.6553 0.0000
# 3 56.8871 36.4414 118.0122 0.0000 12.9440 0.0000
# 4 0.0000 0.0000 0.0000 14.8878 0.0000 -16.2355
# 5 9.1164 5.6553 12.9440 0.0000 51.7268 0.0000
# 6 0.0000 0.0000 0.0000 -16.2355 0.0000 25.9307
#
#
#
# Elastic Compliance Matrix: (Units=1/GPa)
#
#
# Indices 1 2 3 4 5 6 
#
# 1 0.018944 -0.002804 -0.008157 0.000000 -0.000991 0.000000
# 2 -0.002804 0.017322 -0.003952 0.000000 -0.000411 0.000000
# 3 -0.008157 -0.003952 0.013800 0.000000 -0.001584 0.000000
# 4 0.000000 0.000000 0.000000 0.211746 0.000000 0.132576
# 5 -0.000991 -0.000411 -0.001584 0.000000 0.019948 0.000000
# 6 0.000000 0.000000 0.000000 0.132576 0.000000 0.121572
#
#
# Mechanical properties :
#
#
# Convention : Reuss Voigt Hill
#
# Bulk Modulus (GPa) = 49.40962 56.62502 53.01732
# Shear Modulus (GPa) = 11.36605 28.53509 19.95057
#
# Velocity S-wave (km/s) = 2.32065 3.67700 3.07455
# Velocity P-wave (km/s) = 5.53096 6.69753 6.14200
#
# Compressibility (1/GPa) = 0.02023897
#
# Stress axis : x y z
#
# Youngs Moduli (GPa) = 52.78706 57.72866 72.46389
#
# Poissons Ratio (x) = 0.16188 0.59111
# Poissons Ratio (y) = 0.14803 0.28640
# Poissons Ratio (z) = 0.43060 0.22816
#
# Static dielectric constant tensor:
#      x y z
#    x 1.740380 0.000000 -0.002230 
#    y 0.000000 1.770560 0.000000 
#    z -0.002230 0.000000 1.752380 
# 
# From -- ./inp_files/40952.got.cif
#   From: 2010.05.17/outbox.cif.g08.bks.cpg/sg15_21_cif.got.tgz:40952.got - 2010.06.03 18:47:42.
