data_PCOD9292322
_publ_section_title
;
Structure prediction by ZEFSAII (Michael W. Deem and Ramdas Pophale) SiO2 
 PCOD9292322
Probable space group: C 2/C
;
_chemical_formula_sum "Si O2"
_cell_formula_units_Z 36
_cell_length_a 15.487627
_cell_length_b 18.378518
_cell_length_c 9.211702
_cell_angle_alpha 90.000000
_cell_angle_beta 40.481356
_cell_angle_gamma 90.000000
_cell_volume 1702.213956
_symmetry_space_group_name_H-M "C 2/C"
_symmetry_group_IT_number 15
_symmetry_cell_setting 'monoclinic'
loop_
_space_group_symop_operation_xyz
x,y,z
-x,y,1/2-z
-x,-y,-z
x,-y,1/2+z
1/2+x,1/2+y,z
1/2-x,1/2+y,1/2-z
1/2-x,1/2-y,-z
1/2+x,1/2-y,1/2+z
loop_
_atom_site_type_symbol
_atom_site_label
_atom_site_fract_x
_atom_site_fract_y
_atom_site_fract_z
Si Si1 0.799343 0.261494 0.187839
Si Si2 0.689541 0.591966 0.693018
Si Si3 0.000000 0.832654 0.250000
Si Si4 0.145142 0.658868 0.590327
Si Si5 0.337826 0.535206 0.462958
O O1 0.758110 0.333444 0.152241
O O2 0.867602 0.290563 0.249053
O O3 0.685720 0.209545 0.401800
O O4 0.885472 0.216071 0.964710
O O5 0.544959 0.617959 0.826546
O O6 0.726352 0.539274 0.514308
O O7 0.692497 0.542695 0.829736
O O8 0.263654 0.601965 0.475329
O O9 0.000000 0.624560 0.750000
O O10 0.500000 0.538798 0.250000
#
# Coordination Sequence:
#
# PCOD9292322 Si02
#       5
#     8   8   4   8   8
#     4  10  23  41  65 100 131 174 223 278 328 394
#     4  11  24  39  63  96 129 172 222 272 333 383
#     4  12  22  40  68  94 132 170 230 280 324 386
#     4  10  22  43  69  97 136 175 221 269 338 394
#     4  11  23  42  65  97 132 176 223 271 325 400
#
# _framework density 21.148925999999999
#
# number of rings (size 3 to 8) (size 9 to 14) (size 15 to 20)
#    0.000    1.333    1.111    4.000    3.111    6.222 
#    2.000    2.222    0.000    0.000    0.000    0.000 
#    0.000    0.000    0.000    0.000    0.000    0.000 
#
# Total GULP energy -100319.979264 kJ/mol
# GULP energy per Si atom -5573.332181 kJ/mol
# Density = 2.110079 g / cm^3
# Si number density = 21.148926 Si / 1000 Ang^3
#
#
#
# Elastic Constant Matrix: (Units=GPa)
#
#
# Indices 1 2 3 4 5 6 
#
# 1 96.7843 65.2831 58.3736 0.0000 8.8383 0.0000
# 2 65.2831 99.9913 40.2560 0.0000 16.7243 0.0000
# 3 58.3736 40.2560 62.3743 0.0000 7.7071 0.0000
# 4 0.0000 0.0000 0.0000 13.9345 0.0000 18.5510
# 5 8.8383 16.7243 7.7071 0.0000 31.7888 0.0000
# 6 0.0000 0.0000 0.0000 18.5510 0.0000 29.4897
#
#
#
# Elastic Compliance Matrix: (Units=1/GPa)
#
#
# Indices 1 2 3 4 5 6 
#
# 1 0.031653 -0.012286 -0.022065 0.000000 0.003013 0.000000
# 2 -0.012286 0.019151 -0.000040 0.000000 -0.006650 0.000000
# 3 -0.022065 -0.000040 0.037058 0.000000 -0.002829 0.000000
# 4 0.000000 0.000000 0.000000 0.441560 0.000001 -0.277771
# 5 0.003013 -0.006650 -0.002829 0.000001 0.034804 -0.000001
# 6 0.000000 0.000000 0.000000 -0.277771 -0.000001 0.208646
#
#
# Mechanical properties :
#
#
# Convention : Reuss Voigt Hill
#
# Bulk Modulus (GPa) = 52.41635 65.21948 58.81791
# Shear Modulus (GPa) = 5.89613 21.39174 13.64393
#
# Velocity S-wave (km/s) = 1.67151 3.18383 2.54271
# Velocity P-wave (km/s) = 5.34448 6.66490 6.04087
#
# Compressibility (1/GPa) = 0.01907802
#
# Stress axis : x y z
#
# Youngs Moduli (GPa) = 31.59284 52.21750 26.98504
#
# Poissons Ratio (x) = 0.64156 0.59543
# Poissons Ratio (y) = 0.38816 0.00108
# Poissons Ratio (z) = 0.69711 0.00208
#
# Static dielectric constant tensor:
#      x y z
#    x 1.789720 0.000000 -0.012490 
#    y 0.000000 1.806850 0.000000 
#    z -0.012490 0.000000 1.743050 
# 
# From -- ./inp_files/38875.got.cif
#   From: 2010.05.17/outbox.cif.g08.bks.cpg/sg15_20_cif.got.tgz:38875.got - 2010.06.03 18:47:42.
