data_PCOD9292269
_publ_section_title
;
Structure prediction by ZEFSAII (Michael W. Deem and Ramdas Pophale) SiO2 
 PCOD9292269
Probable space group: C 2/C
;
_chemical_formula_sum "Si O2"
_cell_formula_units_Z 60
_cell_length_a 16.960558
_cell_length_b 10.896042
_cell_length_c 27.614729
_cell_angle_alpha 90.000000
_cell_angle_beta 29.356017
_cell_angle_gamma 90.000000
_cell_volume 2501.807259
_symmetry_space_group_name_H-M "C 2/C"
_symmetry_group_IT_number 15
_symmetry_cell_setting 'monoclinic'
loop_
_space_group_symop_operation_xyz
x,y,z
-x,y,1/2-z
-x,-y,-z
x,-y,1/2+z
1/2+x,1/2+y,z
1/2-x,1/2+y,1/2-z
1/2-x,1/2-y,-z
1/2+x,1/2-y,1/2+z
loop_
_atom_site_type_symbol
_atom_site_label
_atom_site_fract_x
_atom_site_fract_y
_atom_site_fract_z
Si Si1 0.000000 0.526678 0.250000
Si Si2 0.866267 0.267970 0.141243
Si Si3 0.002595 0.885420 0.848187
Si Si4 0.160228 0.049580 0.688867
Si Si5 0.655330 0.084922 0.492459
Si Si6 0.557388 0.887159 0.611320
Si Si7 0.168473 0.937129 0.913330
Si Si8 0.081486 0.862062 0.061264
O O1 0.977255 0.596426 0.313467
O O2 0.820645 0.473058 0.340120
O O3 0.905332 0.225251 0.175122
O O4 0.748465 0.370073 0.182152
O O5 0.808150 0.145817 0.145587
O O6 0.046307 0.308506 0.028331
O O7 0.814641 0.865250 0.934767
O O8 0.091561 0.929501 0.752402
O O9 0.000996 0.007458 0.883629
O O10 0.000000 0.109476 0.750000
O O11 0.281666 0.007751 0.582253
O O12 0.532006 0.010638 0.594104
O O13 0.750636 0.874136 0.499739
O O14 0.489490 0.759845 0.627063
O O15 0.141808 0.850511 0.974202
O O16 0.000000 0.000000 0.000000
#
# Coordination Sequence:
#
# PCOD9292269 Si02
#       8
#     4   8   8   8   8   8   8   8
#     4  10  24  40  68 100 134 180 234 298 354 422
#     4  12  24  41  71 100 140 185 233 296 364 429
#     4  10  22  43  68  98 139 181 233 295 364 424
#     4  10  24  44  70 103 141 190 247 296 354 437
#     4  10  22  45  70  96 139 194 231 288 363 443
#     4   9  19  38  66  97 131 176 237 282 359 425
#     4  11  23  42  65  98 143 180 230 289 359 428
#     4   9  18  38  62  92 134 182 220 295 353 417
#
# _framework density 23.982662999999999
#
# number of rings (size 3 to 8) (size 9 to 14) (size 15 to 20)
#    0.000    1.867    1.333    1.600    2.800    3.200 
#    2.400    0.000    2.933    0.000    0.000    0.000 
#    0.000    0.000    0.000    0.000    0.000    0.000 
#
# Total GULP energy -167242.840295 kJ/mol
# GULP energy per Si atom -5574.761343 kJ/mol
# Density = 2.392808 g / cm^3
# Si number density = 23.982663 Si / 1000 Ang^3
#
#
#
# Elastic Constant Matrix: (Units=GPa)
#
#
# Indices 1 2 3 4 5 6 
#
# 1 120.9019 35.8042 49.7083 0.0000 -26.0329 0.0001
# 2 35.8042 50.5937 22.2411 -0.0001 -16.4664 0.0002
# 3 49.7083 22.2411 94.6119 -0.0006 -12.2172 0.0001
# 4 0.0000 -0.0001 -0.0006 21.0571 0.0002 -4.9345
# 5 -26.0329 -16.4664 -12.2172 0.0002 52.3960 -0.0001
# 6 0.0001 0.0002 0.0001 -4.9345 -0.0001 32.3980
#
#
#
# Elastic Compliance Matrix: (Units=1/GPa)
#
#
# Indices 1 2 3 4 5 6 
#
# 1 0.012710 -0.005748 -0.004891 0.000000 0.003368 0.000000
# 2 -0.005748 0.026564 -0.002593 0.000000 0.004888 0.000000
# 3 -0.004891 -0.002593 0.013744 0.000000 -0.000041 0.000000
# 4 0.000000 0.000000 0.000000 0.049248 0.000000 0.007501
# 5 0.003368 0.004888 -0.000041 0.000000 0.022285 0.000000
# 6 0.000000 0.000000 0.000000 0.007501 0.000000 0.032009
#
#
# Mechanical properties :
#
#
# Convention : Reuss Voigt Hill
#
# Bulk Modulus (GPa) = 37.66258 53.51274 45.58766
# Shear Modulus (GPa) = 26.05863 31.72716 28.89289
#
# Velocity S-wave (km/s) = 3.29988 3.64114 3.47470
# Velocity P-wave (km/s) = 5.50065 6.32762 5.92857
#
# Compressibility (1/GPa) = 0.02655156
#
# Stress axis : x y z
#
# Youngs Moduli (GPa) = 78.68039 37.64506 72.75994
#
# Poissons Ratio (x) = 0.21638 0.35590
# Poissons Ratio (y) = 0.45225 0.18870
# Poissons Ratio (z) = 0.38486 0.09763
#
# Static dielectric constant tensor:
#      x y z
#    x 1.998730 0.000000 -0.044000 
#    y 0.000000 1.985590 0.000000 
#    z -0.044000 0.000000 1.950910 
# 
# From -- ./inp_files/316061.got.cif
#   From: 2010.05.17/outbox.cif.g08.bks.cpg/sg15_159_cif.got.tgz:316061.got - 2010.06.03 18:47:42.
