data_PCOD9292303
_publ_section_title
;
Structure prediction by ZEFSAII (Michael W. Deem and Ramdas Pophale) SiO2 
 PCOD9292303
Probable space group: C 2/C
;
_chemical_formula_sum "Si O2"
_cell_formula_units_Z 36
_cell_length_a 9.364096
_cell_length_b 21.630906
_cell_length_c 8.256040
_cell_angle_alpha 90.000000
_cell_angle_beta 67.516414
_cell_angle_gamma 90.000000
_cell_volume 1545.180489
_symmetry_space_group_name_H-M "C 2/C"
_symmetry_group_IT_number 15
_symmetry_cell_setting 'monoclinic'
loop_
_space_group_symop_operation_xyz
x,y,z
-x,y,1/2-z
-x,-y,-z
x,-y,1/2+z
1/2+x,1/2+y,z
1/2-x,1/2+y,1/2-z
1/2-x,1/2-y,-z
1/2+x,1/2-y,1/2+z
loop_
_atom_site_type_symbol
_atom_site_label
_atom_site_fract_x
_atom_site_fract_y
_atom_site_fract_z
Si Si1 0.881878 0.946085 0.106133
Si Si2 0.571882 0.324014 0.552363
Si Si3 0.671895 0.013409 0.990832
Si Si4 0.935610 0.315866 0.452588
Si Si5 0.500000 0.107663 0.250000
O O1 0.793090 0.960011 0.310152
O O2 0.950841 0.877781 0.068243
O O3 0.745894 0.951943 0.031520
O O4 0.000000 0.000000 0.000000
O O5 0.500000 0.347916 0.750000
O O6 0.752651 0.315202 0.507384
O O7 0.507533 0.255352 0.547089
O O8 0.644412 0.062739 0.146915
O O9 0.500000 0.000000 0.000000
O O10 0.000000 0.338121 0.250000
O O11 0.977798 0.353586 0.595440
#
# Coordination Sequence:
#
# PCOD9292303 Si02
#       5
#     8   8   8   8   4
#     4  12  25  43  65 102 138 178 220 284 360 416
#     4  10  22  43  69  93 140 180 219 281 356 406
#     4  12  24  44  68  99 136 180 231 287 341 410
#     4  10  23  46  70  99 131 184 232 286 338 402
#     4  12  24  42  76 104 132 176 246 284 334 414
#
# _framework density 23.298248999999998
#
# number of rings (size 3 to 8) (size 9 to 14) (size 15 to 20)
#    0.000    0.889    2.222    4.667    3.111    0.000 
#    4.000   11.111    0.000    0.000    0.000    0.000 
#    0.000    0.000    0.000    0.000    0.000    0.000 
#
# Total GULP energy -100664.445193 kJ/mol
# GULP energy per Si atom -5592.469177 kJ/mol
# Density = 2.324522 g / cm^3
# Si number density = 23.298249 Si / 1000 Ang^3
#
#
#
# Elastic Constant Matrix: (Units=GPa)
#
#
# Indices 1 2 3 4 5 6 
#
# 1 60.4212 6.1199 22.4504 0.0000 -0.0135 0.0000
# 2 6.1199 135.6146 63.5987 0.0000 12.0681 0.0000
# 3 22.4504 63.5987 215.3385 0.0000 -16.9975 0.0000
# 4 0.0000 0.0000 0.0000 55.9080 0.0000 15.2810
# 5 -0.0135 12.0681 -16.9975 0.0000 40.5352 0.0000
# 6 0.0000 0.0000 0.0000 15.2810 0.0000 43.9989
#
#
#
# Elastic Compliance Matrix: (Units=1/GPa)
#
#
# Indices 1 2 3 4 5 6 
#
# 1 0.017245 0.000201 -0.001925 0.000000 -0.000862 0.000000
# 2 0.000201 0.009145 -0.003037 0.000000 -0.003996 0.000000
# 3 -0.001925 -0.003037 0.006012 0.000000 0.003425 0.000000
# 4 0.000000 0.000000 0.000000 0.019763 0.000000 -0.006864
# 5 -0.000862 -0.003996 0.003425 0.000000 0.027295 0.000000
# 6 0.000000 0.000000 0.000000 -0.006864 0.000000 0.025112
#
#
# Mechanical properties :
#
#
# Convention : Reuss Voigt Hill
#
# Bulk Modulus (GPa) = 43.70741 66.19025 54.94883
# Shear Modulus (GPa) = 41.07771 49.36876 45.22324
#
# Velocity S-wave (km/s) = 4.20351 4.60824 4.41052
# Velocity P-wave (km/s) = 6.50846 7.53566 7.04082
#
# Compressibility (1/GPa) = 0.02287942
#
# Stress axis : x y z
#
# Youngs Moduli (GPa) = 57.98680 109.35258 166.33572
#
# Poissons Ratio (x) = -0.02202 0.32027
# Poissons Ratio (y) = -0.01168 0.50520
# Poissons Ratio (z) = 0.11165 0.33213
#
# Static dielectric constant tensor:
#      x y z
#    x 1.972200 0.000000 -0.075210 
#    y 0.000000 1.954690 0.000000 
#    z -0.075210 0.000000 2.029710 
# 
# From -- ./inp_files/30118.got.cif
#   From: 2010.05.17/outbox.cif.g08.bks.cpg/sg15_16_cif.got.tgz:30118.got - 2010.06.03 18:47:42.
