data_PCOD9292617
_publ_section_title
;
Structure prediction by ZEFSAII (Michael W. Deem and Ramdas Pophale) SiO2 
 PCOD9292617
Probable space group: C 2/C
;
_chemical_formula_sum "Si O2"
_cell_formula_units_Z 52
_cell_length_a 7.299448
_cell_length_b 13.453261
_cell_length_c 23.335254
_cell_angle_alpha 90.000000
_cell_angle_beta 62.525376
_cell_angle_gamma 90.000000
_cell_volume 2033.101770
_symmetry_space_group_name_H-M "C 2/C"
_symmetry_group_IT_number 15
_symmetry_cell_setting 'monoclinic'
loop_
_space_group_symop_operation_xyz
x,y,z
-x,y,1/2-z
-x,-y,-z
x,-y,1/2+z
1/2+x,1/2+y,z
1/2-x,1/2+y,1/2-z
1/2-x,1/2-y,-z
1/2+x,1/2-y,1/2+z
loop_
_atom_site_type_symbol
_atom_site_label
_atom_site_fract_x
_atom_site_fract_y
_atom_site_fract_z
Si Si1 0.823249 0.307947 0.431457
Si Si2 0.500000 0.371891 0.250000
Si Si3 0.380941 0.342927 0.464720
Si Si4 0.794681 0.979567 0.378783
Si Si5 0.037602 0.154454 0.333132
Si Si6 0.645181 0.811772 0.802967
Si Si7 0.885325 0.455171 0.916336
O O1 0.750000 0.250000 0.500000
O O2 0.612884 0.307836 0.425065
O O3 0.013430 0.244250 0.380297
O O4 0.876038 0.424705 0.416304
O O5 0.336743 0.443355 0.307263
O O6 0.413218 0.298866 0.212162
O O7 0.250000 0.250000 0.500000
O O8 0.292979 0.387153 0.419821
O O9 0.322240 0.419310 0.523646
O O10 0.988194 0.048316 0.367453
O O11 0.598544 0.048545 0.422149
O O12 0.843918 0.177777 0.317364
O O13 0.250058 0.146003 0.269619
O O14 0.459780 0.880195 0.854915
#
# Coordination Sequence:
#
# PCOD9292617 Si02
#       7
#     8   4   8   8   8   8   8
#     4  12  25  42  67  98 133 172 216 275 332 392
#     4  12  22  38  64  94 124 162 220 274 326 392
#     4  12  24  41  65  93 129 170 215 264 325 395
#     4  11  22  40  65  91 123 171 216 265 324 394
#     4  10  22  44  65  89 128 171 215 262 328 397
#     4  10  23  41  63  91 126 168 213 268 325 387
#     4  11  23  42  63  94 129 167 218 272 329 393
#
# _framework density 25.576682000000002
#
# number of rings (size 3 to 8) (size 9 to 14) (size 15 to 20)
#    0.000    0.923    0.000    9.231    0.000    2.462 
#    0.000    4.615    0.000    0.000    0.000    0.000 
#    0.000    0.000    0.000    0.000    0.000    0.000 
#
# Total GULP energy -145058.757593 kJ/mol
# GULP energy per Si atom -5579.182984 kJ/mol
# Density = 2.551847 g / cm^3
# Si number density = 25.576682 Si / 1000 Ang^3
#
#
#
# Elastic Constant Matrix: (Units=GPa)
#
#
# Indices 1 2 3 4 5 6 
#
# 1 47.0624 -5.1959 9.5710 -0.0001 0.0429 0.0001
# 2 -5.1959 148.9293 56.5128 0.0000 -4.1753 0.0000
# 3 9.5710 56.5128 145.2138 -0.0001 -16.3469 0.0001
# 4 -0.0001 0.0000 -0.0001 52.7845 0.0001 -9.3015
# 5 0.0429 -4.1753 -16.3469 0.0001 40.3641 -0.0001
# 6 0.0001 0.0000 0.0001 -9.3015 -0.0001 42.9106
#
#
#
# Elastic Compliance Matrix: (Units=1/GPa)
#
#
# Indices 1 2 3 4 5 6 
#
# 1 0.021852 0.001548 -0.002124 0.000000 -0.000723 0.000000
# 2 0.001548 0.007995 -0.003270 0.000000 -0.000499 0.000000
# 3 -0.002124 -0.003270 0.008656 0.000000 0.003169 0.000000
# 4 0.000000 0.000000 0.000000 0.019697 0.000000 0.004270
# 5 -0.000723 -0.000499 0.003169 0.000000 0.026007 0.000000
# 6 0.000000 0.000000 0.000000 0.004270 0.000000 0.024230
#
#
# Mechanical properties :
#
#
# Convention : Reuss Voigt Hill
#
# Bulk Modulus (GPa) = 32.45545 51.44236 41.94890
# Shear Modulus (GPa) = 39.55715 45.89968 42.72841
#
# Velocity S-wave (km/s) = 3.93696 4.24086 4.09173
# Velocity P-wave (km/s) = 5.77782 6.64353 6.22574
#
# Compressibility (1/GPa) = 0.03081147
#
# Stress axis : x y z
#
# Youngs Moduli (GPa) = 45.76246 125.07253 115.53109
#
# Poissons Ratio (x) = -0.19363 0.24541
# Poissons Ratio (y) = -0.07085 0.37776
# Poissons Ratio (z) = 0.09721 0.40895
#
# Static dielectric constant tensor:
#      x y z
#    x 2.140900 0.000000 0.041480 
#    y 0.000000 2.009420 0.000000 
#    z 0.041480 0.000000 2.055130 
# 
# From -- ./inp_files/287914.got.cif
#   From: 2010.05.17/outbox.cif.g08.bks.cpg/sg15_144_cif.got.tgz:287914.got - 2010.06.03 18:47:42.
