data_PCOD9292170
_publ_section_title
;
Structure prediction by ZEFSAII (Michael W. Deem and Ramdas Pophale) SiO2 
 PCOD9292170
Probable space group: C 2/C
;
_chemical_formula_sum "Si O2"
_cell_formula_units_Z 48
_cell_length_a 11.842195
_cell_length_b 10.183906
_cell_length_c 21.612472
_cell_angle_alpha 90.000000
_cell_angle_beta 47.517847
_cell_angle_gamma 90.000000
_cell_volume 1922.232159
_symmetry_space_group_name_H-M "C 2/C"
_symmetry_group_IT_number 15
_symmetry_cell_setting 'monoclinic'
loop_
_space_group_symop_operation_xyz
x,y,z
-x,y,1/2-z
-x,-y,-z
x,-y,1/2+z
1/2+x,1/2+y,z
1/2-x,1/2+y,1/2-z
1/2-x,1/2-y,-z
1/2+x,1/2-y,1/2+z
loop_
_atom_site_type_symbol
_atom_site_label
_atom_site_fract_x
_atom_site_fract_y
_atom_site_fract_z
Si Si1 0.026027 0.193634 0.825122
Si Si2 0.226334 0.976914 0.557188
Si Si3 0.690175 0.602782 0.876391
Si Si4 0.445845 0.985635 0.857378
Si Si5 0.801031 0.423876 0.155788
Si Si6 0.993033 0.162735 0.070494
O O1 0.147283 0.201654 0.837460
O O2 0.131463 0.123498 0.735144
O O3 0.887545 0.101956 0.899285
O O4 0.954912 0.333724 0.835647
O O5 0.347081 0.998575 0.457526
O O6 0.298619 0.977937 0.598473
O O7 0.116452 0.855123 0.580131
O O8 0.858955 0.574352 0.839578
O O9 0.623133 0.459316 0.882792
O O10 0.589379 0.646755 0.972456
O O11 0.617032 0.021894 0.813560
O O12 0.900445 0.296005 0.102898
#
# Coordination Sequence:
#
# PCOD9292170 Si02
#       6
#     8   8   8   8   8   8
#     4  11  24  41  64  95 134 167 221 275 328 394
#     4  10  22  43  67  93 125 175 225 262 323 398
#     4   9  20  41  67  93 123 174 222 263 323 388
#     4  11  24  41  68  95 128 177 219 267 330 402
#     4  12  25  39  63 101 134 172 211 276 345 383
#     4   9  20  40  68  92 128 168 220 273 313 395
#
# _framework density 24.970967999999999
#
# number of rings (size 3 to 8) (size 9 to 14) (size 15 to 20)
#    0.000    1.667    0.000    4.500    4.667    4.667 
#    0.000    0.000    0.000    0.000    0.000    0.000 
#    0.000    0.000    0.000    0.000    0.000    0.000 
#
# Total GULP energy -134448.026369 kJ/mol
# GULP energy per Si atom -5602.001099 kJ/mol
# Density = 2.491413 g / cm^3
# Si number density = 24.970968 Si / 1000 Ang^3
#
#
#
# Elastic Constant Matrix: (Units=GPa)
#
#
# Indices 1 2 3 4 5 6 
#
# 1 147.5425 27.3791 35.8052 0.0000 7.6619 0.0000
# 2 27.3791 44.0676 10.4904 0.0000 -7.1391 0.0000
# 3 35.8052 10.4904 105.6440 0.0000 -12.0301 0.0000
# 4 0.0000 0.0000 0.0000 5.1761 0.0000 -7.9891
# 5 7.6619 -7.1391 -12.0301 0.0000 48.2142 0.0000
# 6 0.0000 0.0000 0.0000 -7.9891 0.0000 25.0959
#
#
#
# Elastic Compliance Matrix: (Units=1/GPa)
#
#
# Indices 1 2 3 4 5 6 
#
# 1 0.008525 -0.005105 -0.002699 0.000000 -0.002784 0.000000
# 2 -0.005105 0.026713 -0.000391 0.000000 0.004669 0.000000
# 3 -0.002699 -0.000391 0.010768 0.000000 0.003058 0.000000
# 4 0.000000 0.000000 0.000000 0.379822 0.000000 0.120913
# 5 -0.002784 0.004669 0.003058 0.000000 0.022638 0.000000
# 6 0.000000 0.000000 0.000000 0.120913 0.000000 0.078339
#
#
# Mechanical properties :
#
#
# Convention : Reuss Voigt Hill
#
# Bulk Modulus (GPa) = 33.76566 49.40038 41.58302
# Shear Modulus (GPa) = 9.04051 30.60252 19.82152
#
# Velocity S-wave (km/s) = 1.90480 3.50455 2.82047
# Velocity P-wave (km/s) = 4.28824 6.01680 5.22450
#
# Compressibility (1/GPa) = 0.02961589
#
# Stress axis : x y z
#
# Youngs Moduli (GPa) = 117.30722 37.43431 92.87102
#
# Poissons Ratio (x) = 0.19109 0.25069
# Poissons Ratio (y) = 0.59883 0.03630
# Poissons Ratio (z) = 0.31665 0.01463
#
# Static dielectric constant tensor:
#      x y z
#    x 2.050850 0.000000 0.051510 
#    y 0.000000 1.922220 0.000000 
#    z 0.051510 0.000000 1.951950 
# 
# From -- ./inp_files/195989.got.cif
#   From: 2010.05.17/outbox.cif.g08.bks.cpg/sg15_98_cif.got.tgz:195989.got - 2010.06.03 18:47:42.
