data_PCOD9292829
_publ_section_title
;
Structure prediction by ZEFSAII (Michael W. Deem and Ramdas Pophale) SiO2 
 PCOD9292829
Probable space group: C 2/C
;
_chemical_formula_sum "Si O2"
_cell_formula_units_Z 60
_cell_length_a 9.763298
_cell_length_b 18.140955
_cell_length_c 24.039500
_cell_angle_alpha 90.000000
_cell_angle_beta 141.719063
_cell_angle_gamma 90.000000
_cell_volume 2637.764238
_symmetry_space_group_name_H-M "C 2/C"
_symmetry_group_IT_number 15
_symmetry_cell_setting 'monoclinic'
loop_
_space_group_symop_operation_xyz
x,y,z
-x,y,1/2-z
-x,-y,-z
x,-y,1/2+z
1/2+x,1/2+y,z
1/2-x,1/2+y,1/2-z
1/2-x,1/2-y,-z
1/2+x,1/2-y,1/2+z
loop_
_atom_site_type_symbol
_atom_site_label
_atom_site_fract_x
_atom_site_fract_y
_atom_site_fract_z
Si Si1 0.000000 0.340948 0.750000
Si Si2 0.807228 0.869227 0.055200
Si Si3 0.865462 0.996519 0.153806
Si Si4 0.123497 0.041146 0.126257
Si Si5 0.320868 0.846002 0.882567
Si Si6 0.866216 0.736373 0.595795
Si Si7 0.160156 0.757313 0.212617
Si Si8 0.883303 0.093629 0.942586
O O1 0.789224 0.392274 0.685769
O O2 0.012902 0.288827 0.806825
O O3 0.022523 0.825248 0.144694
O O4 0.890099 0.897051 0.021050
O O5 0.747230 0.930722 0.082676
O O6 0.579067 0.827214 0.973847
O O7 0.724986 0.066416 0.131652
O O8 0.000000 0.967989 0.250000
O O9 0.027805 0.022865 0.156036
O O10 0.234232 0.969777 0.131664
O O11 0.939113 0.064880 0.022142
O O12 0.182382 0.812002 0.888080
O O13 0.257211 0.799433 0.808058
O O14 0.750000 0.750000 0.500000
O O15 0.748106 0.669294 0.591134
O O16 0.128727 0.721813 0.682312
#
# Coordination Sequence:
#
# PCOD9292829 Si02
#       8
#     4   8   8   8   8   8   8   8
#     4  12  24  40  68  94 138 170 238 286 358 422
#     4  11  26  43  70 104 139 188 235 304 360 421
#     4  11  24  44  69 103 147 187 239 289 357 433
#     4  10  23  43  67 100 132 184 227 294 352 429
#     4  12  24  44  71 100 140 189 239 290 363 425
#     4  12  26  42  69 100 140 185 239 295 359 431
#     4  12  27  44  69 103 141 186 239 300 362 429
#     4  10  22  44  68  95 138 174 239 286 357 425
#
# _framework density 22.746535999999999
#
# number of rings (size 3 to 8) (size 9 to 14) (size 15 to 20)
#    0.000    0.800    1.333    6.000    4.667    2.133 
#    0.000    5.333    0.000    0.000    0.000    0.000 
#    0.000    0.000    0.000    0.000    0.000    0.000 
#
# Total GULP energy -167647.741971 kJ/mol
# GULP energy per Si atom -5588.258066 kJ/mol
# Density = 2.269476 g / cm^3
# Si number density = 22.746536 Si / 1000 Ang^3
#
#
#
# Elastic Constant Matrix: (Units=GPa)
#
#
# Indices 1 2 3 4 5 6 
#
# 1 46.9979 -4.5513 24.2692 0.0000 -20.9059 0.0000
# 2 -4.5513 75.1726 13.6855 0.0001 -2.9780 0.0000
# 3 24.2692 13.6855 107.1578 0.0002 -2.3126 -0.0001
# 4 0.0000 0.0001 0.0002 24.5177 0.0000 9.7372
# 5 -20.9059 -2.9780 -2.3126 0.0000 35.6251 -0.0001
# 6 0.0000 0.0000 -0.0001 9.7372 -0.0001 32.5189
#
#
#
# Elastic Compliance Matrix: (Units=1/GPa)
#
#
# Indices 1 2 3 4 5 6 
#
# 1 0.034879 0.004376 -0.008020 0.000000 0.020313 0.000000
# 2 0.004376 0.014206 -0.002728 0.000000 0.003579 0.000000
# 3 -0.008020 -0.002728 0.011406 0.000000 -0.004194 0.000000
# 4 0.000000 0.000000 0.000000 0.046292 0.000000 -0.013861
# 5 0.020313 0.003579 -0.004194 0.000000 0.040017 0.000000
# 6 0.000000 0.000000 0.000000 -0.013861 0.000000 0.034902
#
#
# Mechanical properties :
#
#
# Convention : Reuss Voigt Hill
#
# Bulk Modulus (GPa) = 20.94344 32.90391 26.92367
# Shear Modulus (GPa) = 23.76861 31.59400 27.68131
#
# Velocity S-wave (km/s) = 3.23605 3.73092 3.49226
# Velocity P-wave (km/s) = 4.81560 5.74948 5.30314
#
# Compressibility (1/GPa) = 0.04774765
#
# Stress axis : x y z
#
# Youngs Moduli (GPa) = 28.67089 70.39200 87.67073
#
# Poissons Ratio (x) = -0.30807 0.70311
# Poissons Ratio (y) = -0.12548 0.23919
# Poissons Ratio (z) = 0.22994 0.19205
#
# Static dielectric constant tensor:
#      x y z
#    x 1.909840 0.000000 -0.172470 
#    y 0.000000 1.936010 0.000000 
#    z -0.172470 0.000000 2.081990 
# 
# From -- ./inp_files/266269.got.cif
#   From: 2010.05.17/outbox.cif.g08.bks.cpg/sg15_134_cif.got.tgz:266269.got - 2010.06.03 18:47:42.
