data_PCOD9292095
_publ_section_title
;
Structure prediction by ZEFSAII (Michael W. Deem and Ramdas Pophale) SiO2 
 PCOD9292095
Probable space group: C 2/C
;
_chemical_formula_sum "Si O2"
_cell_formula_units_Z 44
_cell_length_a 14.771442
_cell_length_b 12.200802
_cell_length_c 11.426420
_cell_angle_alpha 90.000000
_cell_angle_beta 68.480263
_cell_angle_gamma 90.000000
_cell_volume 1915.756898
_symmetry_space_group_name_H-M "C 2/C"
_symmetry_group_IT_number 15
_symmetry_cell_setting 'monoclinic'
loop_
_space_group_symop_operation_xyz
x,y,z
-x,y,1/2-z
-x,-y,-z
x,-y,1/2+z
1/2+x,1/2+y,z
1/2-x,1/2+y,1/2-z
1/2-x,1/2-y,-z
1/2+x,1/2-y,1/2+z
loop_
_atom_site_type_symbol
_atom_site_label
_atom_site_fract_x
_atom_site_fract_y
_atom_site_fract_z
Si Si1 0.734208 0.890610 0.735205
Si Si2 0.597048 0.944341 0.410058
Si Si3 0.161175 0.807104 0.607971
Si Si4 0.500000 0.161118 0.750000
Si Si5 0.399934 0.531083 0.980371
Si Si6 0.361973 0.234299 0.414728
O O1 0.803810 0.808933 0.774002
O O2 0.808463 0.951148 0.612235
O O3 0.647819 0.827577 0.705710
O O4 0.686324 0.972042 0.853230
O O5 0.575485 0.907840 0.288258
O O6 0.606747 0.846833 0.497388
O O7 0.500000 0.000000 0.500000
O O8 0.250000 0.750000 0.500000
O O9 0.064387 0.736293 0.635754
O O10 0.131764 0.929095 0.584230
O O11 0.500000 0.500000 0.000000
O O12 0.410491 0.646150 0.904323
O O13 0.250000 0.250000 0.500000
#
# Coordination Sequence:
#
# PCOD9292095 Si02
#       6
#     8   8   8   4   8   8
#     4  11  23  43  67  93 128 173 213 269 331 389
#     4  12  24  43  66  95 128 170 223 271 324 396
#     4  12  25  43  67  97 129 173 222 269 331 406
#     4  12  24  42  64  94 132 166 208 276 328 376
#     4  11  24  43  67  98 133 171 219 275 338 407
#     4  10  22  43  66  94 133 171 217 276 332 398
#
# _framework density 22.967421999999999
#
# number of rings (size 3 to 8) (size 9 to 14) (size 15 to 20)
#    0.000    0.727    0.000    9.818    0.000    1.455 
#    0.000    5.455    0.000    0.000    0.000    0.000 
#    0.000    0.000    0.000    0.000    0.000    0.000 
#
# Total GULP energy -122962.286463 kJ/mol
# GULP energy per Si atom -5589.194839 kJ/mol
# Density = 2.291515 g / cm^3
# Si number density = 22.967422 Si / 1000 Ang^3
#
#
#
# Elastic Constant Matrix: (Units=GPa)
#
#
# Indices 1 2 3 4 5 6 
#
# 1 116.6588 54.3797 9.8113 0.0000 13.7343 0.0000
# 2 54.3797 124.4573 16.0414 0.0000 12.9105 0.0000
# 3 9.8113 16.0414 43.4257 0.0000 5.2420 0.0000
# 4 0.0000 0.0000 0.0000 41.3597 0.0000 5.3807
# 5 13.7343 12.9105 5.2420 0.0000 54.5103 0.0000
# 6 0.0000 0.0000 0.0000 5.3807 0.0000 51.0935
#
#
#
# Elastic Compliance Matrix: (Units=1/GPa)
#
#
# Indices 1 2 3 4 5 6 
#
# 1 0.010924 -0.004527 -0.000600 0.000000 -0.001622 0.000000
# 2 -0.004527 0.010475 -0.002716 0.000000 -0.001079 0.000000
# 3 -0.000600 -0.002716 0.024354 0.000000 -0.001547 0.000000
# 4 0.000000 0.000000 0.000000 0.024514 0.000000 -0.002582
# 5 -0.001622 -0.001079 -0.001547 0.000000 0.019158 0.000000
# 6 0.000000 0.000000 0.000000 -0.002582 0.000000 0.019844
#
#
# Mechanical properties :
#
#
# Convention : Reuss Voigt Hill
#
# Bulk Modulus (GPa) = 33.26077 49.44516 41.35297
# Shear Modulus (GPa) = 37.04318 43.01332 40.02825
#
# Velocity S-wave (km/s) = 4.02040 4.33228 4.17925
# Velocity P-wave (km/s) = 6.00538 6.82642 6.42902
#
# Compressibility (1/GPa) = 0.03006545
#
# Stress axis : x y z
#
# Youngs Moduli (GPa) = 91.54259 95.46436 41.06174
#
# Poissons Ratio (x) = 0.43221 0.02463
# Poissons Ratio (y) = 0.41445 0.11154
# Poissons Ratio (z) = 0.05491 0.25931
#
# Static dielectric constant tensor:
#      x y z
#    x 1.799620 0.000000 0.058140 
#    y 0.000000 2.181790 0.000000 
#    z 0.058140 0.000000 1.932730 
# 
# From -- ./inp_files/94981.got.cif
#   From: 2010.05.17/outbox.cif.g08.bks.cpg/sg15_48_cif.got.tgz:94981.got - 2010.06.03 18:47:42.
