data_PCOD9292341
_publ_section_title
;
Structure prediction by ZEFSAII (Michael W. Deem and Ramdas Pophale) SiO2 
 PCOD9292341
Probable space group: C 2/C
;
_chemical_formula_sum "Si O2"
_cell_formula_units_Z 52
_cell_length_a 8.246820
_cell_length_b 32.877817
_cell_length_c 14.554828
_cell_angle_alpha 90.000000
_cell_angle_beta 140.896948
_cell_angle_gamma 90.000000
_cell_volume 2489.036145
_symmetry_space_group_name_H-M "C 2/C"
_symmetry_group_IT_number 15
_symmetry_cell_setting 'monoclinic'
loop_
_space_group_symop_operation_xyz
x,y,z
-x,y,1/2-z
-x,-y,-z
x,-y,1/2+z
1/2+x,1/2+y,z
1/2-x,1/2+y,1/2-z
1/2-x,1/2-y,-z
1/2+x,1/2-y,1/2+z
loop_
_atom_site_type_symbol
_atom_site_label
_atom_site_fract_x
_atom_site_fract_y
_atom_site_fract_z
Si Si1 0.989885 0.073490 0.015208
Si Si2 0.271541 0.601981 0.723813
Si Si3 0.438309 0.970647 0.058018
Si Si4 0.000000 0.524574 0.250000
Si Si5 0.304149 0.339503 0.890370
Si Si6 0.022743 0.765520 0.658445
Si Si7 0.375664 0.312111 0.294415
O O1 0.260565 0.051855 0.115108
O O2 0.051587 0.119169 0.077578
O O3 0.849893 0.082492 0.856420
O O4 0.832674 0.043812 0.015066
O O5 0.500000 0.603234 0.750000
O O6 0.191518 0.648450 0.705214
O O7 0.061018 0.572668 0.589840
O O8 0.574503 0.995277 0.199745
O O9 0.500000 0.000000 0.000000
O O10 0.369827 0.300364 0.859251
O O11 0.000000 0.346958 0.750000
O O12 0.408825 0.327185 0.038133
O O13 0.217156 0.727382 0.752365
O O14 0.000000 0.783068 0.750000
O O15 0.750000 0.750000 0.500000
O O16 0.500000 0.304047 0.250000
#
# Coordination Sequence:
#
# PCOD9292341 Si02
#       7
#     8   8   8   4   8   8   8
#     4  11  24  47  67 101 138 179 231 291 358 421
#     4  10  22  43  70 100 132 178 231 285 352 428
#     4  12  26  41  71  97 137 181 227 286 352 427
#     4  12  24  44  68  96 134 174 228 292 346 408
#     4  11  25  47  73 101 142 187 232 295 358 419
#     4  12  26  44  69 106 143 185 236 292 351 420
#     4  10  24  44  72  99 136 185 234 283 351 434
#
# _framework density 20.891622000000002
#
# number of rings (size 3 to 8) (size 9 to 14) (size 15 to 20)
#    0.000    0.923    3.846    1.846    6.462    1.231 
#    2.769    0.000    0.000    0.000    0.000    0.000 
#    0.000    0.000    0.000    0.000    0.000    0.000 
#
# Total GULP energy -145109.177166 kJ/mol
# GULP energy per Si atom -5581.122199 kJ/mol
# Density = 2.084407 g / cm^3
# Si number density = 20.891622 Si / 1000 Ang^3
#
#
#
# Elastic Constant Matrix: (Units=GPa)
#
#
# Indices 1 2 3 4 5 6 
#
# 1 73.3299 30.3004 17.0282 0.0000 -16.2764 0.0000
# 2 30.3004 125.2055 21.2374 0.0000 1.5575 0.0000
# 3 17.0282 21.2374 51.5969 0.0000 -9.3484 0.0000
# 4 0.0000 0.0000 0.0000 32.6614 0.0000 -7.4095
# 5 -16.2764 1.5575 -9.3484 0.0000 36.7204 0.0000
# 6 0.0000 0.0000 0.0000 -7.4095 0.0000 -66.9467
#
#
#
# Elastic Compliance Matrix: (Units=1/GPa)
#
#
# Indices 1 2 3 4 5 6 
#
# 1 0.017484 -0.003830 -0.002894 0.000000 0.007176 0.000000
# 2 -0.003830 0.009487 -0.003168 0.000000 -0.002906 0.000000
# 3 -0.002894 -0.003168 0.022468 0.000000 0.004572 0.000000
# 4 0.000000 0.000000 0.000000 0.029867 0.000000 -0.003306
# 5 0.007176 -0.002906 0.004572 0.000000 0.031701 0.000000
# 6 0.000000 0.000000 0.000000 -0.003306 0.000000 -0.014571
#
#
# Mechanical properties :
#
#
# Convention : Reuss Voigt Hill
#
# Bulk Modulus (GPa) = 33.71859 43.02937 38.37398
# Shear Modulus (GPa) = 39.64991 12.59144 26.12067
#
# Velocity S-wave (km/s) = 4.36120 2.45766 3.53979
# Velocity P-wave (km/s) = 6.44476 5.35674 5.92577
#
# Compressibility (1/GPa) = 0.02965723
#
# Stress axis : x y z
#
# Youngs Moduli (GPa) = 57.19471 105.40609 44.50753
#
# Poissons Ratio (x) = 0.40367 0.12880
# Poissons Ratio (y) = 0.21904 0.14098
# Poissons Ratio (z) = 0.16551 0.33388
#
# Static dielectric constant tensor:
#      x y z
#    x 1.918050 0.000000 -0.000670 
#    y 0.000000 1.749340 0.000000 
#    z -0.000670 0.000000 1.780570 
# 
# From -- ./inp_files/139892.got.cif
#   From: 2010.05.17/outbox.cif.g08.bks.cpg/sg15_70_cif.got.tgz:139892.got - 2010.06.03 18:47:42.
