data_PCOD9292292
_publ_section_title
;
Structure prediction by ZEFSAII (Michael W. Deem and Ramdas Pophale) SiO2 
 PCOD9292292
Probable space group: C 2/C
;
_chemical_formula_sum "Si O2"
_cell_formula_units_Z 48
_cell_length_a 11.760043
_cell_length_b 11.178981
_cell_length_c 16.166304
_cell_angle_alpha 90.000000
_cell_angle_beta 105.998822
_cell_angle_gamma 90.000000
_cell_volume 2042.989179
_symmetry_space_group_name_H-M "C 2/C"
_symmetry_group_IT_number 15
_symmetry_cell_setting 'monoclinic'
loop_
_space_group_symop_operation_xyz
x,y,z
-x,y,1/2-z
-x,-y,-z
x,-y,1/2+z
1/2+x,1/2+y,z
1/2-x,1/2+y,1/2-z
1/2-x,1/2-y,-z
1/2+x,1/2-y,1/2+z
loop_
_atom_site_type_symbol
_atom_site_label
_atom_site_fract_x
_atom_site_fract_y
_atom_site_fract_z
Si Si1 0.803540 0.127860 0.907162
Si Si2 0.755899 0.092331 0.615351
Si Si3 0.633524 0.352766 0.886846
Si Si4 0.483622 0.267975 0.149193
Si Si5 0.456874 0.829530 0.331205
Si Si6 0.888884 0.473920 0.575649
O O1 0.719647 0.244019 0.877599
O O2 0.917584 0.151247 0.874590
O O3 0.720651 0.009823 0.885258
O O4 0.845939 0.128480 0.011306
O O5 0.853032 0.184423 0.602744
O O6 0.677664 0.145443 0.673574
O O7 0.669305 0.059361 0.522725
O O8 0.826956 0.971994 0.651403
O O9 0.500650 0.306547 0.846648
O O10 0.500000 0.275178 0.250000
O O11 0.478175 0.129506 0.121475
O O12 0.500000 0.873172 0.250000
O O13 0.536315 0.903904 0.412366
#
# Coordination Sequence:
#
# PCOD9292292 Si02
#       6
#     8   8   8   8   8   8
#     4   9  20  41  66  92 123 169 220 259 327 385
#     4  11  24  41  66  97 129 174 222 262 332 400
#     4   9  20  40  68  90 123 168 216 274 308 395
#     4  12  26  40  61  98 140 168 210 280 333 393
#     4  11  23  40  66  98 128 168 221 274 334 389
#     4  10  22  43  69  90 125 179 221 268 314 401
#
# _framework density 23.494986000000001
#
# number of rings (size 3 to 8) (size 9 to 14) (size 15 to 20)
#    0.000    1.667    0.000    4.500    4.667    4.667 
#    0.000    0.000    0.000    0.000    0.000    0.000 
#    0.000    0.000    0.000    0.000    0.000    0.000 
#
# Total GULP energy -134186.205414 kJ/mol
# GULP energy per Si atom -5591.091892 kJ/mol
# Density = 2.344151 g / cm^3
# Si number density = 23.494986 Si / 1000 Ang^3
#
#
#
# Elastic Constant Matrix: (Units=GPa)
#
#
# Indices 1 2 3 4 5 6 
#
# 1 146.7979 36.4134 19.8763 0.0000 -34.5426 0.0000
# 2 36.4134 39.5093 -0.0488 0.0000 1.5039 0.0000
# 3 19.8763 -0.0488 58.3676 0.0000 -7.8598 0.0000
# 4 0.0000 0.0000 0.0000 39.8469 0.0000 -0.3142
# 5 -34.5426 1.5039 -7.8598 0.0000 28.7577 0.0000
# 6 0.0000 0.0000 0.0000 -0.3142 0.0000 47.4994
#
#
#
# Elastic Compliance Matrix: (Units=1/GPa)
#
#
# Indices 1 2 3 4 5 6 
#
# 1 0.015049 -0.014562 -0.002699 0.000000 0.018100 0.000000
# 2 -0.014562 0.039453 0.002449 0.000000 -0.018885 0.000000
# 3 -0.002699 0.002449 0.018273 0.000000 0.001624 0.000000
# 4 0.000000 0.000000 0.000000 0.025097 0.000000 0.000166
# 5 0.018100 -0.018885 0.001624 0.000000 0.057945 0.000000
# 6 0.000000 0.000000 0.000000 0.000166 0.000000 0.021054
#
#
# Mechanical properties :
#
#
# Convention : Reuss Voigt Hill
#
# Bulk Modulus (GPa) = 23.17525 39.68408 31.42967
# Shear Modulus (GPa) = 22.63683 35.78305 29.20994
#
# Velocity S-wave (km/s) = 3.10736 3.90681 3.52979
# Velocity P-wave (km/s) = 4.77070 6.10557 5.47894
#
# Compressibility (1/GPa) = 0.04314948
#
# Stress axis : x y z
#
# Youngs Moduli (GPa) = 66.45140 25.34658 54.72628
#
# Poissons Ratio (x) = 0.36909 0.14773
# Poissons Ratio (y) = 0.96765 -0.13401
# Poissons Ratio (z) = 0.17938 -0.06207
#
# Static dielectric constant tensor:
#      x y z
#    x 1.934250 0.000000 0.015350 
#    y 0.000000 1.901060 0.000000 
#    z 0.015350 0.000000 1.898180 
# 
# From -- ./inp_files/196187.got.cif
#   From: 2010.05.17/outbox.cif.g08.bks.cpg/sg15_99_cif.got.tgz:196187.got - 2010.06.03 18:47:42.
