data_PCOD9292273
_publ_section_title
;
Structure prediction by ZEFSAII (Michael W. Deem and Ramdas Pophale) SiO2 
 PCOD9292273
Probable space group: C 2/C
;
_chemical_formula_sum "Si O2"
_cell_formula_units_Z 32
_cell_length_a 15.738277
_cell_length_b 15.593882
_cell_length_c 8.088182
_cell_angle_alpha 90.000000
_cell_angle_beta 138.235195
_cell_angle_gamma 90.000000
_cell_volume 1322.163306
_symmetry_space_group_name_H-M "C 2/C"
_symmetry_group_IT_number 15
_symmetry_cell_setting 'monoclinic'
loop_
_space_group_symop_operation_xyz
x,y,z
-x,y,1/2-z
-x,-y,-z
x,-y,1/2+z
1/2+x,1/2+y,z
1/2-x,1/2+y,1/2-z
1/2-x,1/2-y,-z
1/2+x,1/2-y,1/2+z
loop_
_atom_site_type_symbol
_atom_site_label
_atom_site_fract_x
_atom_site_fract_y
_atom_site_fract_z
Si Si1 0.584929 0.852595 0.238176
Si Si2 0.459146 0.300832 0.371213
Si Si3 0.164936 0.910924 0.815949
Si Si4 0.762621 0.910813 0.226680
O O1 0.500000 0.901445 0.250000
O O2 0.721038 0.840532 0.527740
O O3 0.630280 0.896835 0.132819
O O4 0.505638 0.769441 0.070281
O O5 0.500000 0.270158 0.250000
O O6 0.548464 0.383853 0.534731
O O7 0.315095 0.333225 0.190719
O O8 0.225808 0.001032 0.852774
O O9 0.140954 0.914456 0.976500
#
# Coordination Sequence:
#
# PCOD9292273 Si02
#       4
#     8   8   8   8
#     4  10  25  44  66  96 139 179 217 271 337 398
#     4  12  24  41  70 102 133 171 228 280 330 388
#     4  10  22  43  68  99 132 175 220 274 333 390
#     4  10  23  42  71  94 134 173 224 272 331 387
#
# _framework density 24.202757999999999
#
# number of rings (size 3 to 8) (size 9 to 14) (size 15 to 20)
#    1.500    0.000    0.000    5.250    3.500    2.000 
#    4.500    0.000    0.000    0.000    0.000    0.000 
#    0.000    0.000    0.000    0.000    0.000    0.000 
#
# Total GULP energy -89205.332533 kJ/mol
# GULP energy per Si atom -5575.333283 kJ/mol
# Density = 2.414767 g / cm^3
# Si number density = 24.202758 Si / 1000 Ang^3
#
#
#
# Elastic Constant Matrix: (Units=GPa)
#
#
# Indices 1 2 3 4 5 6 
#
# 1 151.3604 30.8234 20.6806 0.0000 -18.2148 0.0000
# 2 30.8234 82.5529 9.1222 0.0000 1.8703 0.0000
# 3 20.6806 9.1222 35.0665 0.0000 -17.5650 0.0000
# 4 0.0000 0.0000 0.0000 30.5460 0.0000 -6.1387
# 5 -18.2148 1.8703 -17.5650 0.0000 24.9482 0.0000
# 6 0.0000 0.0000 0.0000 -6.1387 0.0000 23.3240
#
#
#
# Elastic Compliance Matrix: (Units=1/GPa)
#
#
# Indices 1 2 3 4 5 6 
#
# 1 0.008011 -0.002950 -0.001416 0.000000 0.005073 0.000000
# 2 -0.002950 0.013971 -0.005404 0.000000 -0.007006 0.000000
# 3 -0.001416 -0.005404 0.047029 0.000000 0.032482 0.000000
# 4 0.000000 0.000000 0.000000 0.034566 0.000000 0.009097
# 5 0.005073 -0.007006 0.032482 0.000000 0.067181 0.000000
# 6 0.000000 0.000000 0.000000 0.009097 0.000000 0.045269
#
#
# Mechanical properties :
#
#
# Convention : Reuss Voigt Hill
#
# Bulk Modulus (GPa) = 20.21384 43.35912 31.78648
# Shear Modulus (GPa) = 19.83682 29.65387 24.74534
#
# Velocity S-wave (km/s) = 2.86599 3.50412 3.20100
# Velocity P-wave (km/s) = 4.39566 5.85881 5.17917
#
# Compressibility (1/GPa) = 0.04947104
#
# Stress axis : x y z
#
# Youngs Moduli (GPa) = 124.82121 71.57849 21.26367
#
# Poissons Ratio (x) = 0.21114 0.03011
# Poissons Ratio (y) = 0.36819 0.11491
# Poissons Ratio (z) = 0.17677 0.38680
#
# Static dielectric constant tensor:
#      x y z
#    x 2.037500 0.000000 0.035620 
#    y 0.000000 1.915580 0.000000 
#    z 0.035620 0.000000 1.883670 
# 
# From -- ./inp_files/28865.got.cif
#   From: 2010.05.17/outbox.cif.g08.bks.cpg/sg15_15_cif.got.tgz:28865.got - 2010.06.03 18:47:42.
