data_PCOD9292108
_publ_section_title
;
Structure prediction by ZEFSAII (Michael W. Deem and Ramdas Pophale) SiO2 
 PCOD9292108
Probable space group: C 2/C
;
_chemical_formula_sum "Si O2"
_cell_formula_units_Z 64
_cell_length_a 27.671526
_cell_length_b 8.416347
_cell_length_c 14.495993
_cell_angle_alpha 90.000000
_cell_angle_beta 51.364079
_cell_angle_gamma 90.000000
_cell_volume 2637.105941
_symmetry_space_group_name_H-M "C 2/C"
_symmetry_group_IT_number 15
_symmetry_cell_setting 'monoclinic'
loop_
_space_group_symop_operation_xyz
x,y,z
-x,y,1/2-z
-x,-y,-z
x,-y,1/2+z
1/2+x,1/2+y,z
1/2-x,1/2+y,1/2-z
1/2-x,1/2-y,-z
1/2+x,1/2-y,1/2+z
loop_
_atom_site_type_symbol
_atom_site_label
_atom_site_fract_x
_atom_site_fract_y
_atom_site_fract_z
Si Si1 0.849555 0.431027 0.353378
Si Si2 0.605832 0.563947 0.465440
Si Si3 0.527051 0.401131 0.317889
Si Si4 0.850984 0.069517 0.396441
Si Si5 0.801422 0.423275 0.732036
Si Si6 0.389564 0.932041 0.988415
Si Si7 0.023963 0.451890 0.871003
Si Si8 0.199565 0.940590 0.216918
O O1 0.839192 0.255597 0.403383
O O2 0.805691 0.472035 0.319679
O O3 0.851799 0.549330 0.438430
O O4 0.918816 0.443228 0.228914
O O5 0.532846 0.527278 0.559847
O O6 0.643396 0.486006 0.505250
O O7 0.613411 0.753390 0.468868
O O8 0.635229 0.501450 0.337378
O O9 0.500000 0.352810 0.250000
O O10 0.582457 0.517929 0.225838
O O11 0.545381 0.233136 0.341669
O O12 0.801500 0.983775 0.389294
O O13 0.863070 0.451617 0.598026
O O14 0.793734 0.244800 0.774137
O O15 0.749471 0.472046 0.720983
O O16 0.461432 0.968260 0.885562
O O17 0.000000 0.500000 0.000000
#
# Coordination Sequence:
#
# PCOD9292108 Si02
#       8
#     8   8   8   8   8   8   8   8
#     4  12  24  42  65  97 132 171 214 264 314 387
#     4  10  22  43  66  96 130 171 211 263 323 377
#     4   9  20  40  62  92 131 171 210 262 318 382
#     4  11  24  41  65  96 132 171 217 259 322 380
#     4  12  26  46  66  97 123 168 218 265 326 377
#     4  11  23  42  69  94 133 169 214 265 320 381
#     4  11  21  37  64  96 133 168 214 258 322 382
#     4  12  26  44  69  91 130 164 216 273 318 384
#
# _framework density 24.269027999999999
#
# number of rings (size 3 to 8) (size 9 to 14) (size 15 to 20)
#    0.000    1.000    1.250    7.125    1.750    5.500 
#    0.000    5.000    0.000    0.000    0.000    0.000 
#    0.000    0.000    0.000    0.000    0.000    0.000 
#
# Total GULP energy -179293.596013 kJ/mol
# GULP energy per Si atom -5602.924875 kJ/mol
# Density = 2.421379 g / cm^3
# Si number density = 24.269028 Si / 1000 Ang^3
#
#
#
# Elastic Constant Matrix: (Units=GPa)
#
#
# Indices 1 2 3 4 5 6 
#
# 1 84.3882 -9.4613 4.9693 0.0000 25.9288 0.0000
# 2 -9.4613 66.6550 -7.7196 0.0005 10.0506 -0.0003
# 3 4.9693 -7.7196 59.5773 0.0000 14.8684 0.0000
# 4 0.0000 0.0005 0.0000 31.4301 0.0000 4.1709
# 5 25.9288 10.0506 14.8684 0.0000 43.5580 0.0000
# 6 0.0000 -0.0003 0.0000 4.1709 0.0000 37.1867
#
#
#
# Elastic Compliance Matrix: (Units=1/GPa)
#
#
# Indices 1 2 3 4 5 6 
#
# 1 0.015521 0.004062 0.001936 0.000000 -0.010837 0.000000
# 2 0.004062 0.017178 0.003804 0.000000 -0.007680 0.000000
# 3 0.001936 0.003804 0.019264 0.000000 -0.008606 0.000000
# 4 0.000000 0.000000 0.000000 0.032297 0.000000 -0.003623
# 5 -0.010837 -0.007680 -0.008606 0.000000 0.034119 0.000000
# 6 0.000000 0.000000 0.000000 -0.003623 0.000000 0.027298
#
#
# Mechanical properties :
#
#
# Convention : Reuss Voigt Hill
#
# Bulk Modulus (GPa) = 13.97320 20.68859 17.33090
# Shear Modulus (GPa) = 33.34911 37.29043 35.31977
#
# Velocity S-wave (km/s) = 3.71096 3.92413 3.81903
# Velocity P-wave (km/s) = 4.91241 5.39212 5.15784
#
# Compressibility (1/GPa) = 0.07156557
#
# Stress axis : x y z
#
# Youngs Moduli (GPa) = 64.42798 58.21527 51.91031
#
# Poissons Ratio (x) = -0.23644 -0.10051
# Poissons Ratio (y) = -0.26168 -0.19744
# Poissons Ratio (z) = -0.12475 -0.22143
#
# Static dielectric constant tensor:
#      x y z
#    x 2.003950 0.000000 -0.060860 
#    y 0.000000 1.843130 0.000000 
#    z -0.060860 0.000000 1.991340 
# 
# From -- ./inp_files/181150.got.cif
#   From: 2010.05.17/outbox.cif.g08.bks.cpg/sg15_91_cif.got.tgz:181150.got - 2010.06.03 18:47:42.
