data_PCOD9292419
_publ_section_title
;
Structure prediction by ZEFSAII (Michael W. Deem and Ramdas Pophale) SiO2 
 PCOD9292419
Probable space group: C 2/C
;
_chemical_formula_sum "Si O2"
_cell_formula_units_Z 40
_cell_length_a 8.532059
_cell_length_b 15.366352
_cell_length_c 15.122271
_cell_angle_alpha 90.000000
_cell_angle_beta 107.205183
_cell_angle_gamma 90.000000
_cell_volume 1893.910368
_symmetry_space_group_name_H-M "C 2/C"
_symmetry_group_IT_number 15
_symmetry_cell_setting 'monoclinic'
loop_
_space_group_symop_operation_xyz
x,y,z
-x,y,1/2-z
-x,-y,-z
x,-y,1/2+z
1/2+x,1/2+y,z
1/2-x,1/2+y,1/2-z
1/2-x,1/2-y,-z
1/2+x,1/2-y,1/2+z
loop_
_atom_site_type_symbol
_atom_site_label
_atom_site_fract_x
_atom_site_fract_y
_atom_site_fract_z
Si Si1 0.438118 0.419148 0.049200
Si Si2 0.438076 0.927523 0.558946
Si Si3 0.566185 0.237175 0.001771
Si Si4 0.500000 0.356202 0.250000
Si Si5 0.500000 0.018824 0.750000
Si Si6 0.138623 0.310824 0.205050
O O1 0.472759 0.417379 0.159669
O O2 0.500000 0.500000 0.000000
O O3 0.246364 0.408934 0.000094
O O4 0.518052 0.329910 0.030777
O O5 0.547973 0.841599 0.567535
O O6 0.500000 0.000000 0.500000
O O7 0.436936 0.963539 0.657883
O O8 0.443589 0.209815 0.902249
O O9 0.750000 0.250000 0.000000
O O10 0.334720 0.296908 0.235612
O O11 0.370253 0.086817 0.770006
O O12 0.000000 0.271506 0.250000
#
# Coordination Sequence:
#
# PCOD9292419 Si02
#       6
#     8   8   8   4   4   8
#     4  12  27  45  72 107 145 191 253 300 370 444
#     4  12  22  45  72 103 144 191 235 299 367 431
#     4  12  25  46  70 102 149 191 243 309 362 434
#     4  12  22  45  77  96 152 192 238 311 369 430
#     4  10  22  43  71 106 148 186 240 297 367 440
#     4  10  22  44  70 106 142 191 241 298 368 439
#
# _framework density 21.120324
#
# number of rings (size 3 to 8) (size 9 to 14) (size 15 to 20)
#    0.600    0.000    4.000    4.200    0.000    0.800 
#    5.400    0.000    0.000    0.000    0.000    0.000 
#    0.000    0.000    0.000    0.000    0.000    0.000 
#
# Total GULP energy -111645.096071 kJ/mol
# GULP energy per Si atom -5582.254804 kJ/mol
# Density = 2.107225 g / cm^3
# Si number density = 21.120324 Si / 1000 Ang^3
#
#
#
# Elastic Constant Matrix: (Units=GPa)
#
#
# Indices 1 2 3 4 5 6 
#
# 1 169.9448 52.0318 42.8578 0.0000 16.9400 0.0000
# 2 52.0318 137.6408 47.6305 0.0000 -19.5118 0.0000
# 3 42.8578 47.6305 176.8834 0.0000 -12.7702 0.0000
# 4 0.0000 0.0000 0.0000 32.9008 0.0000 -2.1033
# 5 16.9400 -19.5118 -12.7702 0.0000 32.9659 0.0000
# 6 0.0000 0.0000 0.0000 -2.1033 0.0000 27.3894
#
#
#
# Elastic Compliance Matrix: (Units=1/GPa)
#
#
# Indices 1 2 3 4 5 6 
#
# 1 0.007990 -0.003459 -0.001490 0.000000 -0.006730 0.000000
# 2 -0.003459 0.010062 -0.001351 0.000000 0.007210 0.000000
# 3 -0.001490 -0.001351 0.006559 0.000000 0.002507 0.000000
# 4 0.000000 0.000000 0.000000 0.030544 0.000000 0.002346
# 5 -0.006730 0.007210 0.002507 0.000000 0.039031 0.000000
# 6 0.000000 0.000000 0.000000 0.002346 0.000000 0.036691
#
#
# Mechanical properties :
#
#
# Convention : Reuss Voigt Hill
#
# Bulk Modulus (GPa) = 83.25514 85.50102 84.37808
# Shear Modulus (GPa) = 33.90243 41.44780 37.67512
#
# Velocity S-wave (km/s) = 4.01085 4.43477 4.22813
# Velocity P-wave (km/s) = 7.80732 8.17274 7.99212
#
# Compressibility (1/GPa) = 0.01201127
#
# Stress axis : x y z
#
# Youngs Moduli (GPa) = 125.15717 99.38069 152.45340
#
# Poissons Ratio (x) = 0.34373 0.22723
# Poissons Ratio (y) = 0.43288 0.20597
# Poissons Ratio (z) = 0.18654 0.13426
#
# Static dielectric constant tensor:
#      x y z
#    x 1.774130 0.000000 -0.025630 
#    y 0.000000 1.707550 0.000000 
#    z -0.025630 0.000000 1.785620 
# 
# From -- ./inp_files/133319.got.cif
#   From: 2010.05.17/outbox.cif.g08.bks.cpg/sg15_67_cif.got.tgz:133319.got - 2010.06.03 18:47:42.
