data_PCOD9292142
_publ_section_title
;
Structure prediction by ZEFSAII (Michael W. Deem and Ramdas Pophale) SiO2 
 PCOD9292142
Probable space group: C 2/C
;
_chemical_formula_sum "Si O2"
_cell_formula_units_Z 48
_cell_length_a 19.704438
_cell_length_b 13.736407
_cell_length_c 8.418875
_cell_angle_alpha 90.000000
_cell_angle_beta 80.108144
_cell_angle_gamma 90.000000
_cell_volume 2244.845539
_symmetry_space_group_name_H-M "C 2/C"
_symmetry_group_IT_number 15
_symmetry_cell_setting 'monoclinic'
loop_
_space_group_symop_operation_xyz
x,y,z
-x,y,1/2-z
-x,-y,-z
x,-y,1/2+z
1/2+x,1/2+y,z
1/2-x,1/2+y,1/2-z
1/2-x,1/2-y,-z
1/2+x,1/2-y,1/2+z
loop_
_atom_site_type_symbol
_atom_site_label
_atom_site_fract_x
_atom_site_fract_y
_atom_site_fract_z
Si Si1 0.087741 0.110280 0.939790
Si Si2 0.369891 0.023316 0.287788
Si Si3 0.000000 0.032555 0.250000
Si Si4 0.776043 0.026013 0.722269
Si Si5 0.255854 0.136736 0.460590
Si Si6 0.000000 0.387373 0.250000
Si Si7 0.456697 0.175464 0.102832
O O1 0.047314 0.036540 0.839511
O O2 0.166695 0.078133 0.905352
O O3 0.077833 0.219159 0.883638
O O4 0.050637 0.096489 0.122750
O O5 0.335780 0.101208 0.423247
O O6 0.397413 0.092872 0.135806
O O7 0.303760 0.954767 0.288143
O O8 0.434299 0.956644 0.294322
O O9 0.775832 0.908824 0.690449
O O10 0.783086 0.072606 0.891882
O O11 0.250000 0.250000 0.500000
O O12 0.000337 0.333559 0.421392
O O13 0.500000 0.164467 0.250000
#
# Coordination Sequence:
#
# PCOD9292142 Si02
#       7
#     8   8   4   8   8   4   8
#     4  11  22  45  66  99 136 180 234 293 350 433
#     4  10  24  42  69  99 141 184 227 300 362 419
#     4  10  23  41  68  92 134 180 222 281 363 402
#     4  10  23  41  68  98 142 178 240 298 351 428
#     4  10  22  43  67 101 137 190 236 287 363 429
#     4  12  25  45  68 106 150 180 240 307 363 432
#     4  12  25  42  72 103 138 186 241 291 361 439
#
# _framework density 21.382317
#
# number of rings (size 3 to 8) (size 9 to 14) (size 15 to 20)
#    1.000    0.333    1.667    4.000    2.333    0.000 
#    0.000    5.000    0.000    0.000    0.000    0.000 
#    0.000    0.000    0.000    0.000    0.000    0.000 
#
# Total GULP energy -133622.833177 kJ/mol
# GULP energy per Si atom -5567.618049 kJ/mol
# Density = 2.133365 g / cm^3
# Si number density = 21.382317 Si / 1000 Ang^3
#
#
#
# Elastic Constant Matrix: (Units=GPa)
#
#
# Indices 1 2 3 4 5 6 
#
# 1 108.8673 44.0667 50.5632 0.0000 -27.3066 0.0000
# 2 44.0667 103.3217 38.9729 0.0000 2.6846 0.0000
# 3 50.5632 38.9729 134.4560 0.0000 -19.5467 0.0000
# 4 0.0000 0.0000 0.0000 19.7778 0.0000 -2.5425
# 5 -27.3066 2.6846 -19.5467 0.0000 30.7680 0.0000
# 6 0.0000 0.0000 0.0000 -2.5425 0.0000 29.3624
#
#
#
# Elastic Compliance Matrix: (Units=1/GPa)
#
#
# Indices 1 2 3 4 5 6 
#
# 1 0.016230 -0.006414 -0.002280 0.000000 0.013516 0.000000
# 2 -0.006414 0.013704 -0.002822 0.000000 -0.008681 0.000000
# 3 -0.002280 -0.002822 0.009755 0.000000 0.004421 0.000000
# 4 0.000000 0.000000 0.000000 0.051131 0.000000 0.004428
# 5 0.013516 -0.008681 0.004421 0.000000 0.048062 0.000000
# 6 0.000000 0.000000 0.000000 0.004428 0.000000 0.034441
#
#
# Mechanical properties :
#
#
# Convention : Reuss Voigt Hill
#
# Bulk Modulus (GPa) = 60.02854 68.20562 64.11708
# Shear Modulus (GPa) = 24.76378 30.18445 27.47411
#
# Velocity S-wave (km/s) = 3.40684 3.76128 3.58844
# Velocity P-wave (km/s) = 6.60381 7.12954 6.87170
#
# Compressibility (1/GPa) = 0.01665874
#
# Stress axis : x y z
#
# Youngs Moduli (GPa) = 61.61256 72.97136 102.50763
#
# Poissons Ratio (x) = 0.46801 0.23369
# Poissons Ratio (y) = 0.39516 0.28931
# Poissons Ratio (z) = 0.14046 0.20595
#
# Static dielectric constant tensor:
#      x y z
#    x 1.800760 0.000000 0.048370 
#    y 0.000000 1.732570 0.000000 
#    z 0.048370 0.000000 1.917160 
# 
# From -- ./inp_files/55262.got.cif
#   From: 2010.05.17/outbox.cif.g08.bks.cpg/sg15_28_cif.got.tgz:55262.got - 2010.06.03 18:47:42.
