data_PCOD9292406
_publ_section_title
;
Structure prediction by ZEFSAII (Michael W. Deem and Ramdas Pophale) SiO2 
 PCOD9292406
Probable space group: C 2/C
;
_chemical_formula_sum "Si O2"
_cell_formula_units_Z 40
_cell_length_a 14.812340
_cell_length_b 11.982632
_cell_length_c 15.476887
_cell_angle_alpha 90.000000
_cell_angle_beta 143.619288
_cell_angle_gamma 90.000000
_cell_volume 1629.380441
_symmetry_space_group_name_H-M "C 2/C"
_symmetry_group_IT_number 15
_symmetry_cell_setting 'monoclinic'
loop_
_space_group_symop_operation_xyz
x,y,z
-x,y,1/2-z
-x,-y,-z
x,-y,1/2+z
1/2+x,1/2+y,z
1/2-x,1/2+y,1/2-z
1/2-x,1/2-y,-z
1/2+x,1/2-y,1/2+z
loop_
_atom_site_type_symbol
_atom_site_label
_atom_site_fract_x
_atom_site_fract_y
_atom_site_fract_z
Si Si1 0.119903 0.886308 0.645123
Si Si2 0.907814 0.970743 0.062578
Si Si3 0.436404 0.180597 0.452037
Si Si4 0.080008 0.279870 0.894103
Si Si5 0.851527 0.366712 0.072497
O O1 0.143632 0.959096 0.577747
O O2 0.272173 0.820971 0.781959
O O3 0.985886 0.801592 0.521118
O O4 0.057977 0.953396 0.678677
O O5 0.766094 0.031990 0.997965
O O6 0.973206 0.848592 0.135482
O O7 0.552166 0.156561 0.462293
O O8 0.420049 0.115593 0.528911
O O9 0.000000 0.334100 0.750000
O O10 0.250000 0.250000 0.000000
O O11 0.000000 0.359900 0.250000
O O12 0.750000 0.250000 0.000000
#
# Coordination Sequence:
#
# PCOD9292406 Si02
#       5
#     8   8   8   8   8
#     4  10  22  43  71 102 143 186 237 289 355 435
#     4  10  24  42  67 103 145 185 235 293 355 428
#     4  11  23  43  74  99 138 187 234 287 362 422
#     4  11  25  46  74  98 139 191 245 294 359 426
#     4  12  26  43  69 106 148 182 236 294 363 427
#
# _framework density 24.549206999999999
#
# number of rings (size 3 to 8) (size 9 to 14) (size 15 to 20)
#    0.000    1.200    2.000    3.600    2.800    2.400 
#    0.000    2.000    0.000    0.000    0.000    0.000 
#    0.000    0.000    0.000    0.000    0.000    0.000 
#
# Total GULP energy -111643.505764 kJ/mol
# GULP energy per Si atom -5582.175288 kJ/mol
# Density = 2.449333 g / cm^3
# Si number density = 24.549207 Si / 1000 Ang^3
#
#
#
# Elastic Constant Matrix: (Units=GPa)
#
#
# Indices 1 2 3 4 5 6 
#
# 1 211.8704 23.4610 48.3810 0.0000 -3.8153 0.0000
# 2 23.4610 70.2193 8.3008 0.0000 7.5918 0.0000
# 3 48.3810 8.3008 116.1506 0.0000 -2.4045 0.0000
# 4 0.0000 0.0000 0.0000 -9.2935 0.0000 24.8268
# 5 -3.8153 7.5918 -2.4045 0.0000 36.7500 0.0000
# 6 0.0000 0.0000 0.0000 24.8268 0.0000 38.7279
#
#
#
# Elastic Compliance Matrix: (Units=1/GPa)
#
#
# Indices 1 2 3 4 5 6 
#
# 1 0.005398 -0.001635 -0.002116 0.000000 0.000760 0.000000
# 2 -0.001635 0.015205 -0.000475 0.000000 -0.003342 0.000000
# 3 -0.002116 -0.000475 0.009535 0.000000 0.000502 0.000000
# 4 0.000000 0.000000 0.000000 -0.039669 0.000000 0.025430
# 5 0.000760 -0.003342 0.000502 0.000000 0.028013 0.000000
# 6 0.000000 0.000000 0.000000 0.025430 0.000000 0.009519
#
#
# Mechanical properties :
#
#
# Convention : Reuss Voigt Hill
#
# Bulk Modulus (GPa) = 46.11233 62.05845 54.08539
# Shear Modulus (GPa) = 114.46386 34.44339 74.45362
#
# Velocity S-wave (km/s) = 6.83575 3.74977 5.51309
# Velocity P-wave (km/s) = 9.00710 6.63941 7.91232
#
# Compressibility (1/GPa) = 0.02168617
#
# Stress axis : x y z
#
# Youngs Moduli (GPa) = 185.26097 65.76810 104.87545
#
# Poissons Ratio (x) = 0.10756 0.22189
# Poissons Ratio (y) = 0.30299 0.04977
# Poissons Ratio (z) = 0.39197 0.03121
#
# Static dielectric constant tensor:
#      x y z
#    x 2.172590 0.000000 0.068430 
#    y 0.000000 1.877640 0.000000 
#    z 0.068430 0.000000 1.984440 
# 
# From -- ./inp_files/61384.got.cif
#   From: 2010.05.17/outbox.cif.g08.bks.cpg/sg15_31_cif.got.tgz:61384.got - 2010.06.03 18:47:42.
