data_PCOD9292602
_publ_section_title
;
Structure prediction by ZEFSAII (Michael W. Deem and Ramdas Pophale) SiO2 
 PCOD9292602
Probable space group: C 2/C
;
_chemical_formula_sum "Si O2"
_cell_formula_units_Z 44
_cell_length_a 25.376481
_cell_length_b 11.434476
_cell_length_c 15.352591
_cell_angle_alpha 90.000000
_cell_angle_beta 154.537136
_cell_angle_gamma 90.000000
_cell_volume 1915.239346
_symmetry_space_group_name_H-M "C 2/C"
_symmetry_group_IT_number 15
_symmetry_cell_setting 'monoclinic'
loop_
_space_group_symop_operation_xyz
x,y,z
-x,y,1/2-z
-x,-y,-z
x,-y,1/2+z
1/2+x,1/2+y,z
1/2-x,1/2+y,1/2-z
1/2-x,1/2-y,-z
1/2+x,1/2-y,1/2+z
loop_
_atom_site_type_symbol
_atom_site_label
_atom_site_fract_x
_atom_site_fract_y
_atom_site_fract_z
Si Si1 0.515295 0.455722 0.866570
Si Si2 0.098057 0.442529 0.209091
Si Si3 0.831823 0.798203 0.701797
Si Si4 0.754228 0.983554 0.185228
Si Si5 0.500000 0.025570 0.750000
Si Si6 0.192333 0.121102 0.912397
O O1 0.500000 0.398429 0.750000
O O2 0.441603 0.376029 0.825656
O O3 0.440954 0.579646 0.752537
O O4 0.658022 0.469496 0.101951
O O5 0.126615 0.324461 0.199367
O O6 0.211156 0.529932 0.398879
O O7 0.047829 0.412780 0.232339
O O8 0.000000 0.500000 0.000000
O O9 0.750000 0.750000 0.500000
O O10 0.763925 0.880880 0.668991
O O11 0.816761 0.908993 0.202855
O O12 0.612079 0.953368 0.960082
O O13 0.250000 0.250000 0.000000
#
# Coordination Sequence:
#
# PCOD9292602 Si02
#       6
#     8   8   8   8   4   8
#     4  11  25  42  67 101 132 178 232 281 343 410
#     4  11  25  40  68  97 137 173 226 272 343 405
#     4  11  20  43  68  96 127 178 224 285 334 404
#     4  10  23  43  68  91 138 173 228 277 341 408
#     4  10  22  44  64  98 132 174 224 280 336 400
#     4  10  22  44  65  93 134 176 215 271 346 404
#
# _framework density 22.973631999999998
#
# number of rings (size 3 to 8) (size 9 to 14) (size 15 to 20)
#    0.000    1.455    5.455    2.182    8.909    0.000 
#    6.545    1.818    0.000    0.000    0.000    0.000 
#    0.000    0.000    0.000    0.000    0.000    0.000 
#
# Total GULP energy -122557.832118 kJ/mol
# GULP energy per Si atom -5570.810551 kJ/mol
# Density = 2.292134 g / cm^3
# Si number density = 22.973632 Si / 1000 Ang^3
#
#
#
# Elastic Constant Matrix: (Units=GPa)
#
#
# Indices 1 2 3 4 5 6 
#
# 1 53.3413 -1.4436 26.3068 0.0000 -4.0418 0.0000
# 2 -1.4436 119.8050 25.1253 0.0000 -5.9319 0.0000
# 3 26.3068 25.1253 189.2477 0.0000 -19.3852 0.0000
# 4 0.0000 0.0000 0.0000 32.5777 0.0000 1.1801
# 5 -4.0418 -5.9319 -19.3852 0.0000 35.3868 0.0000
# 6 0.0000 0.0000 0.0000 1.1801 0.0000 6.8276
#
#
#
# Elastic Compliance Matrix: (Units=1/GPa)
#
#
# Indices 1 2 3 4 5 6 
#
# 1 0.020239 0.000884 -0.002838 0.000000 0.000905 0.000000
# 2 0.000884 0.008650 -0.001178 0.000000 0.000905 0.000000
# 3 -0.002838 -0.001178 0.006125 0.000000 0.002834 0.000000
# 4 0.000000 0.000000 0.000000 0.030889 0.000000 -0.005339
# 5 0.000905 0.000905 0.002834 0.000000 0.030067 0.000000
# 6 0.000000 0.000000 0.000000 -0.005339 0.000000 0.147388
#
#
# Mechanical properties :
#
#
# Convention : Reuss Voigt Hill
#
# Bulk Modulus (GPa) = 34.78391 51.37456 43.07923
# Shear Modulus (GPa) = 19.28963 35.78544 27.53754
#
# Velocity S-wave (km/s) = 2.90080 3.95102 3.46592
# Velocity P-wave (km/s) = 5.13743 6.57457 5.89993
#
# Compressibility (1/GPa) = 0.02874892
#
# Stress axis : x y z
#
# Youngs Moduli (GPa) = 49.40864 115.61336 163.25668
#
# Poissons Ratio (x) = -0.10219 0.46333
# Poissons Ratio (y) = -0.04367 0.19240
# Poissons Ratio (z) = 0.14022 0.13625
#
# Static dielectric constant tensor:
#      x y z
#    x 1.970920 0.000000 0.085970 
#    y 0.000000 1.639270 0.000000 
#    z 0.085970 0.000000 2.047560 
# 
# From -- ./inp_files/225214.got.cif
#   From: 2010.05.17/outbox.cif.g08.bks.cpg/sg15_113_cif.got.tgz:225214.got - 2010.06.03 18:47:42.
