data_PCOD9292641
_publ_section_title
;
Structure prediction by ZEFSAII (Michael W. Deem and Ramdas Pophale) SiO2 
 PCOD9292641
Probable space group: C 2/C
;
_chemical_formula_sum "Si O2"
_cell_formula_units_Z 44
_cell_length_a 10.878284
_cell_length_b 16.222476
_cell_length_c 10.688398
_cell_angle_alpha 90.000000
_cell_angle_beta 82.352083
_cell_angle_gamma 90.000000
_cell_volume 1869.431843
_symmetry_space_group_name_H-M "C 2/C"
_symmetry_group_IT_number 15
_symmetry_cell_setting 'monoclinic'
loop_
_space_group_symop_operation_xyz
x,y,z
-x,y,1/2-z
-x,-y,-z
x,-y,1/2+z
1/2+x,1/2+y,z
1/2-x,1/2+y,1/2-z
1/2-x,1/2-y,-z
1/2+x,1/2-y,1/2+z
loop_
_atom_site_type_symbol
_atom_site_label
_atom_site_fract_x
_atom_site_fract_y
_atom_site_fract_z
Si Si1 0.000000 0.658151 0.250000
Si Si2 0.500000 0.890278 0.250000
Si Si3 0.000000 0.119627 0.250000
Si Si4 0.164770 0.251681 0.328576
Si Si5 0.297494 0.982019 0.831338
Si Si6 0.587214 0.301965 0.106066
Si Si7 0.369522 0.516444 0.894840
O O1 0.880565 0.600062 0.291760
O O2 0.004002 0.724653 0.363035
O O3 0.576490 0.830340 0.329377
O O4 0.598705 0.947318 0.167049
O O5 0.116329 0.181856 0.241570
O O6 0.033590 0.058893 0.131269
O O7 0.303113 0.284445 0.309180
O O8 0.144341 0.207928 0.462709
O O9 0.217055 0.003183 0.717716
O O10 0.215844 0.980416 0.969113
O O11 0.556740 0.397357 0.123346
#
# Coordination Sequence:
#
# PCOD9292641 Si02
#       7
#     4   4   4   8   8   8   8
#     4  11  25  39  67 102 132 184 227 285 339 407
#     4  10  22  44  70  96 140 184 230 288 348 396
#     4  11  25  43  71  98 142 182 229 285 361 401
#     4  10  22  44  65  98 135 183 230 292 333 417
#     4  11  26  43  71 103 141 182 240 280 343 416
#     4  11  22  41  68  95 139 176 234 283 346 400
#     4  12  25  46  70 106 140 183 231 291 343 419
#
# _framework density 23.536562
#
# number of rings (size 3 to 8) (size 9 to 14) (size 15 to 20)
#    0.000    1.091    1.818    4.909    2.545    5.818 
#    0.000    1.818    0.000    0.000    0.000    0.000 
#    0.000    0.000    0.000    0.000    0.000    0.000 
#
# Total GULP energy -122795.838555 kJ/mol
# GULP energy per Si atom -5581.629025 kJ/mol
# Density = 2.348299 g / cm^3
# Si number density = 23.536562 Si / 1000 Ang^3
#
#
#
# Elastic Constant Matrix: (Units=GPa)
#
#
# Indices 1 2 3 4 5 6 
#
# 1 76.9968 32.4448 38.8914 0.0000 -4.4923 0.0000
# 2 32.4448 183.3300 35.5732 0.0000 -0.5498 0.0000
# 3 38.8914 35.5732 115.9915 0.0000 -21.7494 0.0000
# 4 0.0000 0.0000 0.0000 27.1002 0.0000 -6.5218
# 5 -4.4923 -0.5498 -21.7494 0.0000 30.1695 0.0000
# 6 0.0000 0.0000 0.0000 -6.5218 0.0000 34.4605
#
#
#
# Elastic Compliance Matrix: (Units=1/GPa)
#
#
# Indices 1 2 3 4 5 6 
#
# 1 0.016300 -0.001893 -0.005129 0.000000 -0.001305 0.000000
# 2 -0.001893 0.006068 -0.001455 0.000000 -0.001220 0.000000
# 3 -0.005129 -0.001455 0.012302 0.000000 0.008078 0.000000
# 4 0.000000 0.000000 0.000000 0.038661 0.000000 0.007317
# 5 -0.001305 -0.001220 0.008078 0.000000 0.038753 0.000000
# 6 0.000000 0.000000 0.000000 0.007317 0.000000 0.030403
#
#
# Mechanical properties :
#
#
# Convention : Reuss Voigt Hill
#
# Bulk Modulus (GPa) = 56.44925 65.57081 61.01003
# Shear Modulus (GPa) = 30.23908 36.30665 33.27286
#
# Velocity S-wave (km/s) = 3.58826 3.93181 3.76396
# Velocity P-wave (km/s) = 6.41897 6.96647 6.69832
#
# Compressibility (1/GPa) = 0.01771503
#
# Stress axis : x y z
#
# Youngs Moduli (GPa) = 61.34932 164.78804 81.28604
#
# Poissons Ratio (x) = 0.31200 0.41695
# Poissons Ratio (y) = 0.11615 0.11828
# Poissons Ratio (z) = 0.31469 0.23978
#
# Static dielectric constant tensor:
#      x y z
#    x 1.987910 0.000000 0.016110 
#    y 0.000000 1.913350 0.000000 
#    z 0.016110 0.000000 1.909790 
# 
# From -- ./inp_files/86126.got.cif
#   From: 2010.05.17/outbox.cif.g08.bks.cpg/sg15_44_cif.got.tgz:86126.got - 2010.06.03 18:47:42.
