data_PCOD9292646
_publ_section_title
;
Structure prediction by ZEFSAII (Michael W. Deem and Ramdas Pophale) SiO2 
 PCOD9292646
Probable space group: C 2/C
;
_chemical_formula_sum "Si O2"
_cell_formula_units_Z 40
_cell_length_a 14.346955
_cell_length_b 9.861146
_cell_length_c 24.344840
_cell_angle_alpha 90.000000
_cell_angle_beta 32.707161
_cell_angle_gamma 90.000000
_cell_volume 1861.082311
_symmetry_space_group_name_H-M "C 2/C"
_symmetry_group_IT_number 15
_symmetry_cell_setting 'monoclinic'
loop_
_space_group_symop_operation_xyz
x,y,z
-x,y,1/2-z
-x,-y,-z
x,-y,1/2+z
1/2+x,1/2+y,z
1/2-x,1/2+y,1/2-z
1/2-x,1/2-y,-z
1/2+x,1/2-y,1/2+z
loop_
_atom_site_type_symbol
_atom_site_label
_atom_site_fract_x
_atom_site_fract_y
_atom_site_fract_z
Si Si1 0.500000 0.169053 0.250000
Si Si2 0.399288 0.646725 0.416759
Si Si3 0.319310 0.641391 0.649599
Si Si4 0.794648 0.128187 0.020106
Si Si5 0.000000 0.237974 0.250000
Si Si6 0.749992 0.669536 0.285496
O O1 0.631013 0.102188 0.140862
O O2 0.360973 0.236890 0.278756
O O3 0.250000 0.750000 0.500000
O O4 0.333395 0.499297 0.463141
O O5 0.469008 0.653657 0.320415
O O6 0.547896 0.695196 0.384537
O O7 0.524704 0.637681 0.534796
O O8 0.251277 0.495747 0.707612
O O9 0.314205 0.760612 0.697878
O O10 0.176341 0.678532 0.674886
O O11 0.750000 0.250000 0.000000
#
# Coordination Sequence:
#
# PCOD9292646 Si02
#       6
#     4   8   8   8   4   8
#     4  12  25  41  72  96 131 183 212 268 335 385
#     4  10  25  42  66  98 133 169 225 272 318 392
#     4  10  22  44  66 100 133 168 222 270 323 395
#     4  11  25  44  65  98 135 171 221 269 324 393
#     4  10  23  43  72  96 133 175 214 274 339 379
#     4  10  23  40  67  97 133 170 223 268 321 397
#
# _framework density 21.49287
#
# number of rings (size 3 to 8) (size 9 to 14) (size 15 to 20)
#    0.000    1.600    2.000    0.600   11.200    2.400 
#    3.600    1.000    0.000    0.000    0.000    0.000 
#    0.000    0.000    0.000    0.000    0.000    0.000 
#
# Total GULP energy -111416.053750 kJ/mol
# GULP energy per Si atom -5570.802688 kJ/mol
# Density = 2.144395 g / cm^3
# Si number density = 21.492870 Si / 1000 Ang^3
#
#
#
# Elastic Constant Matrix: (Units=GPa)
#
#
# Indices 1 2 3 4 5 6 
#
# 1 172.4369 42.7007 54.7097 0.0000 -26.7545 0.0000
# 2 42.7007 42.8850 41.9455 0.0001 -13.6951 0.0000
# 3 54.7097 41.9455 136.4744 0.0001 -18.7466 0.0000
# 4 0.0000 0.0001 0.0001 15.9791 0.0000 1.1058
# 5 -26.7545 -13.6951 -18.7466 0.0000 48.1098 0.0000
# 6 0.0000 0.0000 0.0000 1.1058 0.0000 29.3393
#
#
#
# Elastic Compliance Matrix: (Units=1/GPa)
#
#
# Indices 1 2 3 4 5 6 
#
# 1 0.008024 -0.006319 -0.000960 0.000000 0.002289 0.000000
# 2 -0.006319 0.039929 -0.009150 0.000000 0.004287 0.000000
# 3 -0.000960 -0.009150 0.010664 0.000000 0.001017 0.000000
# 4 0.000000 0.000000 0.000000 0.062745 0.000000 -0.002365
# 5 0.002289 0.004287 0.001017 0.000000 0.023675 0.000000
# 6 0.000000 0.000000 0.000000 -0.002365 0.000000 0.034173
#
#
# Mechanical properties :
#
#
# Convention : Reuss Voigt Hill
#
# Bulk Modulus (GPa) = 38.82257 70.05646 54.43951
# Shear Modulus (GPa) = 22.65976 32.84833 27.75405
#
# Velocity S-wave (km/s) = 3.25051 3.91364 3.59738
# Velocity P-wave (km/s) = 5.67362 7.28615 6.52985
#
# Compressibility (1/GPa) = 0.02575821
#
# Stress axis : x y z
#
# Youngs Moduli (GPa) = 124.62866 25.04450 93.77245
#
# Poissons Ratio (x) = 0.15827 0.09001
# Poissons Ratio (y) = 0.78759 0.85802
# Poissons Ratio (z) = 0.11962 0.22916
#
# Static dielectric constant tensor:
#      x y z
#    x 1.917660 0.000000 -0.003110 
#    y 0.000000 1.758900 0.000000 
#    z -0.003110 0.000000 1.804660 
# 
# From -- ./inp_files/151225.got.cif
#   From: 2010.05.17/outbox.cif.g08.bks.cpg/sg15_76_cif.got.tgz:151225.got - 2010.06.03 18:47:42.
