data_PCOD9292946
_publ_section_title
;
Structure prediction by ZEFSAII (Michael W. Deem and Ramdas Pophale) SiO2 
 PCOD9292946
Probable space group: C 2/C
;
_chemical_formula_sum "Si O2"
_cell_formula_units_Z 52
_cell_length_a 5.150952
_cell_length_b 17.642349
_cell_length_c 24.607465
_cell_angle_alpha 90.000000
_cell_angle_beta 111.052989
_cell_angle_gamma 90.000000
_cell_volume 2086.931208
_symmetry_space_group_name_H-M "C 2/C"
_symmetry_group_IT_number 15
_symmetry_cell_setting 'monoclinic'
loop_
_space_group_symop_operation_xyz
x,y,z
-x,y,1/2-z
-x,-y,-z
x,-y,1/2+z
1/2+x,1/2+y,z
1/2-x,1/2+y,1/2-z
1/2-x,1/2-y,-z
1/2+x,1/2-y,1/2+z
loop_
_atom_site_type_symbol
_atom_site_label
_atom_site_fract_x
_atom_site_fract_y
_atom_site_fract_z
Si Si1 0.460559 0.724060 0.660723
Si Si2 0.757313 0.519481 0.343802
Si Si3 0.000000 0.094548 0.750000
Si Si4 0.233838 0.042666 0.955943
Si Si5 0.001815 0.178295 0.315268
Si Si6 0.704001 0.587481 0.067441
Si Si7 0.430045 0.255113 0.959225
O O1 0.561749 0.651990 0.704376
O O2 0.720291 0.769280 0.652588
O O3 0.237770 0.702662 0.596378
O O4 0.276151 0.778680 0.685777
O O5 0.730357 0.465980 0.289170
O O6 0.762213 0.459259 0.393701
O O7 0.528741 0.587437 0.330012
O O8 0.026197 0.569892 0.377519
O O9 0.217264 0.102699 0.003011
O O10 0.972217 0.987671 0.941646
O O11 0.500000 0.000000 0.000000
O O12 0.000000 0.179250 0.250000
O O13 0.568844 0.665571 0.074389
O O14 0.250000 0.250000 0.000000
O O15 0.750000 0.250000 0.000000
#
# Coordination Sequence:
#
# PCOD9292946 Si02
#       7
#     8   8   4   8   8   8   8
#     4  12  27  51  76 107 163 191 255 317 393 447
#     4  11  24  44  74 104 143 192 262 298 381 454
#     4  12  28  48  70 116 146 198 246 334 392 442
#     4   9  21  40  72  99 142 185 237 318 365 439
#     4  12  23  50  77 103 139 211 248 305 368 477
#     4  10  22  44  70 105 140 196 248 307 373 450
#     4  12  28  45  78 113 149 204 258 309 381 468
#
# _framework density 24.916969999999999
#
# number of rings (size 3 to 8) (size 9 to 14) (size 15 to 20)
#    0.000    0.923    3.846    1.846    6.462    2.462 
#    5.538    0.000    0.000    0.000    0.000    0.000 
#    0.000    0.000    0.000    0.000    0.000    0.000 
#
# Total GULP energy -144743.252520 kJ/mol
# GULP energy per Si atom -5567.048174 kJ/mol
# Density = 2.486026 g / cm^3
# Si number density = 24.916970 Si / 1000 Ang^3
#
#
#
# Elastic Constant Matrix: (Units=GPa)
#
#
# Indices 1 2 3 4 5 6 
#
# 1 86.7994 19.8956 18.6471 0.0000 11.4508 0.0000
# 2 19.8956 143.7275 37.2190 0.0000 18.0326 0.0000
# 3 18.6471 37.2190 163.0481 0.0000 14.2458 0.0000
# 4 0.0000 0.0000 0.0000 47.2427 0.0000 -7.2915
# 5 11.4508 18.0326 14.2458 0.0000 31.2502 0.0000
# 6 0.0000 0.0000 0.0000 -7.2915 0.0000 12.2236
#
#
#
# Elastic Compliance Matrix: (Units=1/GPa)
#
#
# Indices 1 2 3 4 5 6 
#
# 1 0.012416 -0.001048 -0.000871 0.000000 -0.003548 0.000000
# 2 -0.001048 0.007904 -0.001374 0.000000 -0.003550 0.000000
# 3 -0.000871 -0.001374 0.006717 0.000000 -0.001950 0.000000
# 4 0.000000 0.000000 0.000000 0.023314 0.000000 0.013907
# 5 -0.003548 -0.003550 -0.001950 0.000000 0.036238 0.000000
# 6 0.000000 0.000000 0.000000 0.013907 0.000000 0.090105
#
#
# Mechanical properties :
#
#
# Convention : Reuss Voigt Hill
#
# Bulk Modulus (GPa) = 48.89762 60.56650 54.73206
# Shear Modulus (GPa) = 26.30253 39.33085 32.81669
#
# Velocity S-wave (km/s) = 3.25254 3.97731 3.63304
# Velocity P-wave (km/s) = 5.81138 6.74182 6.29382
#
# Compressibility (1/GPa) = 0.02045089
#
# Stress axis : x y z
#
# Youngs Moduli (GPa) = 80.54023 126.51825 148.88059
#
# Poissons Ratio (x) = 0.13260 0.12964
# Poissons Ratio (y) = 0.08441 0.20459
# Poissons Ratio (z) = 0.07013 0.17386
#
# Static dielectric constant tensor:
#      x y z
#    x 0.620180 0.000000 3.194060 
#    y 0.000000 3.388990 0.000000 
#    z 3.194060 0.000000 -5.636120 
# 
# From -- ./inp_files/286141.got.cif
#   From: 2010.05.17/outbox.cif.g08.bks.cpg/sg15_144_cif.got.tgz:286141.got - 2010.06.03 18:47:42.
