data_PCOD9292611
_publ_section_title
;
Structure prediction by ZEFSAII (Michael W. Deem and Ramdas Pophale) SiO2 
 PCOD9292611
Probable space group: C 2/C
;
_chemical_formula_sum "Si O2"
_cell_formula_units_Z 36
_cell_length_a 6.709960
_cell_length_b 26.712452
_cell_length_c 11.562366
_cell_angle_alpha 90.000000
_cell_angle_beta 120.238799
_cell_angle_gamma 90.000000
_cell_volume 1790.444863
_symmetry_space_group_name_H-M "C 2/C"
_symmetry_group_IT_number 15
_symmetry_cell_setting 'monoclinic'
loop_
_space_group_symop_operation_xyz
x,y,z
-x,y,1/2-z
-x,-y,-z
x,-y,1/2+z
1/2+x,1/2+y,z
1/2-x,1/2+y,1/2-z
1/2-x,1/2-y,-z
1/2+x,1/2-y,1/2+z
loop_
_atom_site_type_symbol
_atom_site_label
_atom_site_fract_x
_atom_site_fract_y
_atom_site_fract_z
Si Si1 0.045783 0.706181 0.124974
Si Si2 0.627606 0.994828 0.913198
Si Si3 0.508850 0.584099 0.488464
Si Si4 0.958786 0.817604 0.102920
Si Si5 0.500000 0.640590 0.250000
O O1 0.275833 0.675373 0.166921
O O2 0.000000 0.706172 0.250000
O O3 0.057117 0.764176 0.088631
O O4 0.814755 0.683271 0.002727
O O5 0.500000 0.991644 0.750000
O O6 0.785086 0.945262 0.968143
O O7 0.789120 0.043667 0.952070
O O8 0.500000 0.000000 0.000000
O O9 0.565019 0.633515 0.577046
O O10 0.459970 0.604935 0.346948
O O11 0.000000 0.819633 0.250000
#
# Coordination Sequence:
#
# PCOD9292611 Si02
#       5
#     8   8   8   8   4
#     4  10  22  44  65 100 139 180 227 275 332 407
#     4  11  27  47  69  98 135 174 227 293 340 405
#     4  11  26  42  69 101 128 177 231 271 345 406
#     4  10  23  43  67  97 142 177 222 284 333 402
#     4  12  24  42  74 102 132 184 230 272 340 418
#
# _framework density 20.106733999999999
#
# number of rings (size 3 to 8) (size 9 to 14) (size 15 to 20)
#    0.000    1.333    2.222    1.333    9.333    2.667 
#    2.000    0.000    0.000    0.000    0.000    0.000 
#    0.000    0.000    0.000    0.000    0.000    0.000 
#
# Total GULP energy -100542.978592 kJ/mol
# GULP energy per Si atom -5585.721033 kJ/mol
# Density = 2.006097 g / cm^3
# Si number density = 20.106734 Si / 1000 Ang^3
#
#
#
# Elastic Constant Matrix: (Units=GPa)
#
#
# Indices 1 2 3 4 5 6 
#
# 1 89.5514 35.3836 34.5285 0.0000 -10.3675 0.0000
# 2 35.3836 107.4114 14.5844 0.0000 -6.1572 0.0000
# 3 34.5285 14.5844 104.1499 0.0000 2.2037 0.0000
# 4 0.0000 0.0000 0.0000 14.4206 0.0000 -2.9026
# 5 -10.3675 -6.1572 2.2037 0.0000 31.6420 0.0000
# 6 0.0000 0.0000 0.0000 -2.9026 0.0000 14.1593
#
#
#
# Elastic Compliance Matrix: (Units=1/GPa)
#
#
# Indices 1 2 3 4 5 6 
#
# 1 0.015033 -0.004086 -0.004506 0.000000 0.004444 0.000000
# 2 -0.004086 0.010722 -0.000163 0.000000 0.000759 0.000000
# 3 -0.004506 -0.000163 0.011166 0.000000 -0.002286 0.000000
# 4 0.000000 0.000000 0.000000 0.072330 0.000000 0.014827
# 5 0.004444 0.000759 -0.002286 0.000000 0.033367 0.000000
# 6 0.000000 0.000000 0.000000 0.014827 0.000000 0.073664
#
#
# Mechanical properties :
#
#
# Convention : Reuss Voigt Hill
#
# Bulk Modulus (GPa) = 51.51355 52.23398 51.87376
# Shear Modulus (GPa) = 20.81072 26.48547 23.64809
#
# Velocity S-wave (km/s) = 3.22065 3.63332 3.43319
# Velocity P-wave (km/s) = 6.28536 6.60576 6.44755
#
# Compressibility (1/GPa) = 0.01941237
#
# Stress axis : x y z
#
# Youngs Moduli (GPa) = 66.52084 93.27039 89.55364
#
# Poissons Ratio (x) = 0.38107 0.40350
# Poissons Ratio (y) = 0.27178 0.01459
# Poissons Ratio (z) = 0.29972 0.01520
#
# Static dielectric constant tensor:
#      x y z
#    x 1.711870 0.000000 -0.027290 
#    y 0.000000 1.691850 0.000000 
#    z -0.027290 0.000000 1.758880 
# 
# From -- ./inp_files/72596.got.cif
#   From: 2010.05.17/outbox.cif.g08.bks.cpg/sg15_37_cif.got.tgz:72596.got - 2010.06.03 18:47:42.
