data_PCOD9292903
_publ_section_title
;
Structure prediction by ZEFSAII (Michael W. Deem and Ramdas Pophale) SiO2 
 PCOD9292903
Probable space group: C 2/C
;
_chemical_formula_sum "Si O2"
_cell_formula_units_Z 56
_cell_length_a 20.605237
_cell_length_b 12.385618
_cell_length_c 10.727394
_cell_angle_alpha 90.000000
_cell_angle_beta 90.311196
_cell_angle_gamma 90.000000
_cell_volume 2737.682762
_symmetry_space_group_name_H-M "C 2/C"
_symmetry_group_IT_number 15
_symmetry_cell_setting 'monoclinic'
loop_
_space_group_symop_operation_xyz
x,y,z
-x,y,1/2-z
-x,-y,-z
x,-y,1/2+z
1/2+x,1/2+y,z
1/2-x,1/2+y,1/2-z
1/2-x,1/2-y,-z
1/2+x,1/2-y,1/2+z
loop_
_atom_site_type_symbol
_atom_site_label
_atom_site_fract_x
_atom_site_fract_y
_atom_site_fract_z
Si Si1 0.832215 0.746884 0.404448
Si Si2 0.794489 0.128927 0.145133
Si Si3 0.401929 0.195006 0.065315
Si Si4 0.684887 0.379596 0.336888
Si Si5 0.677558 0.189437 0.672528
Si Si6 0.396731 0.984222 0.181530
Si Si7 0.452830 0.104609 0.417933
O O1 0.828481 0.802362 0.537514
O O2 0.781480 0.647882 0.388410
O O3 0.811960 0.837543 0.305194
O O4 0.902846 0.699801 0.386992
O O5 0.809916 0.193072 0.271055
O O6 0.818310 0.007224 0.150256
O O7 0.374578 0.309662 0.110179
O O8 0.476362 0.159499 0.085681
O O9 0.365210 0.096766 0.135240
O O10 0.381717 0.190624 0.922442
O O11 0.755369 0.346533 0.391119
O O12 0.656480 0.103060 0.777674
O O13 0.437153 0.017463 0.307717
O O14 0.435409 0.940364 0.057633
#
# Coordination Sequence:
#
# PCOD9292903 Si02
#       7
#     8   8   8   8   8   8   8
#     4  10  22  44  69  97 135 182 230 285 350 419
#     4  10  23  44  68  98 132 181 229 289 346 418
#     4  12  27  41  68 100 142 181 230 290 350 422
#     4  11  25  42  69  98 139 181 231 290 348 420
#     4  11  25  42  68 102 136 177 234 290 350 416
#     4  12  24  43  71 105 139 186 229 296 347 420
#     4  12  25  45  70 104 145 183 238 286 364 414
#
# _framework density 20.455255000000001
#
# number of rings (size 3 to 8) (size 9 to 14) (size 15 to 20)
#    0.000    0.857    4.286    2.143    6.000    0.000 
#    0.000    0.714    3.143    0.000    0.000    0.000 
#    0.000    0.000    0.000    0.000    0.000    0.000 
#
# Total GULP energy -156292.996254 kJ/mol
# GULP energy per Si atom -5581.892723 kJ/mol
# Density = 2.040870 g / cm^3
# Si number density = 20.455255 Si / 1000 Ang^3
#
#
#
# Elastic Constant Matrix: (Units=GPa)
#
#
# Indices 1 2 3 4 5 6 
#
# 1 95.5376 66.7738 22.8077 0.0000 -0.7489 0.0000
# 2 66.7738 163.5542 32.3633 0.0000 8.1162 0.0000
# 3 22.8077 32.3633 80.7274 0.0000 7.4542 0.0000
# 4 0.0000 0.0000 0.0000 22.5416 0.0000 1.6211
# 5 -0.7489 8.1162 7.4542 0.0000 25.6328 0.0000
# 6 0.0000 0.0000 0.0000 1.6211 0.0000 23.4169
#
#
#
# Elastic Compliance Matrix: (Units=1/GPa)
#
#
# Indices 1 2 3 4 5 6 
#
# 1 0.015128 -0.005890 -0.002185 0.000000 0.002942 0.000000
# 2 -0.005890 0.008981 -0.001704 0.000000 -0.002520 0.000000
# 3 -0.002185 -0.001704 0.014020 0.000000 -0.003602 0.000000
# 4 0.000000 0.000000 0.000000 0.044584 0.000000 -0.003086
# 5 0.002942 -0.002520 -0.003602 0.000000 0.040944 0.000000
# 6 0.000000 0.000000 0.000000 -0.003086 0.000000 0.042918
#
#
# Mechanical properties :
#
#
# Convention : Reuss Voigt Hill
#
# Bulk Modulus (GPa) = 53.84169 64.85654 59.34912
# Shear Modulus (GPa) = 25.99784 28.84321 27.42053
#
# Velocity S-wave (km/s) = 3.56892 3.75916 3.66527
# Velocity P-wave (km/s) = 6.58497 7.11457 6.85488
#
# Compressibility (1/GPa) = 0.01857297
#
# Stress axis : x y z
#
# Youngs Moduli (GPa) = 66.10041 111.34440 71.32620
#
# Poissons Ratio (x) = 0.65584 0.15581
# Poissons Ratio (y) = 0.38935 0.12151
# Poissons Ratio (z) = 0.14440 0.18969
#
# Static dielectric constant tensor:
#      x y z
#    x 1.757000 0.000000 -0.022430 
#    y 0.000000 1.691400 0.000000 
#    z -0.022430 0.000000 1.816190 
# 
# From -- ./inp_files/111072.got.cif
#   From: 2010.05.17/outbox.cif.g08.bks.cpg/sg15_56_cif.got.tgz:111072.got - 2010.06.03 18:47:42.
