data_PCOD9292394
_publ_section_title
;
Structure prediction by ZEFSAII (Michael W. Deem and Ramdas Pophale) SiO2 
 PCOD9292394
Probable space group: C 2/C
;
_chemical_formula_sum "Si O2"
_cell_formula_units_Z 56
_cell_length_a 9.282875
_cell_length_b 31.676383
_cell_length_c 11.416658
_cell_angle_alpha 90.000000
_cell_angle_beta 125.920276
_cell_angle_gamma 90.000000
_cell_volume 2718.648934
_symmetry_space_group_name_H-M "C 2/C"
_symmetry_group_IT_number 15
_symmetry_cell_setting 'monoclinic'
loop_
_space_group_symop_operation_xyz
x,y,z
-x,y,1/2-z
-x,-y,-z
x,-y,1/2+z
1/2+x,1/2+y,z
1/2-x,1/2+y,1/2-z
1/2-x,1/2-y,-z
1/2+x,1/2-y,1/2+z
loop_
_atom_site_type_symbol
_atom_site_label
_atom_site_fract_x
_atom_site_fract_y
_atom_site_fract_z
Si Si1 0.287200 0.177260 0.827060
Si Si2 0.740325 0.915735 0.243790
Si Si3 0.902079 0.913276 0.946806
Si Si4 0.398901 0.320228 0.017743
Si Si5 0.965057 0.244994 0.106581
Si Si6 0.000000 0.045195 0.250000
Si Si7 0.285091 0.977501 0.482589
Si Si8 0.000000 0.475758 0.250000
O O1 0.343747 0.129692 0.821077
O O2 0.240710 0.184731 0.942035
O O3 0.433791 0.210138 0.853856
O O4 0.095544 0.179885 0.671386
O O5 0.710034 0.941945 0.112578
O O6 0.661620 0.944036 0.309598
O O7 0.943263 0.912318 0.379980
O O8 0.952245 0.925830 0.838802
O O9 0.844462 0.864325 0.928728
O O10 0.784278 0.952379 0.935655
O O11 0.431698 0.283516 0.939300
O O12 0.000000 0.225504 0.250000
O O13 0.750000 0.250000 0.000000
O O14 0.845202 0.013739 0.128956
O O15 0.466014 0.997534 0.617572
#
# Coordination Sequence:
#
# PCOD9292394 Si02
#       8
#     8   8   8   8   8   4   8   4
#     4  10  22  43  73  98 130 179 223 266 330 408
#     4  11  22  41  66  96 127 173 226 268 324 390
#     4  11  22  40  67  96 124 174 226 270 323 389
#     4  10  22  43  71 100 134 171 222 274 331 400
#     4  12  25  45  70 104 137 167 213 273 334 403
#     4  12  22  36  66  93 132 169 226 274 322 382
#     4  12  22  43  63  92 129 179 223 269 326 384
#     4  12  26  36  60  97 142 169 214 282 332 372
#
# _framework density 20.598468
#
# number of rings (size 3 to 8) (size 9 to 14) (size 15 to 20)
#    0.000    0.857    5.714    2.143    2.000    0.000 
#    0.000    1.429    0.000    0.000    0.000    0.000 
#    0.000    0.000    0.000    0.000    0.000    0.000 
#
# Total GULP energy -156078.382905 kJ/mol
# GULP energy per Si atom -5574.227961 kJ/mol
# Density = 2.055158 g / cm^3
# Si number density = 20.598468 Si / 1000 Ang^3
#
#
#
# Elastic Constant Matrix: (Units=GPa)
#
#
# Indices 1 2 3 4 5 6 
#
# 1 37.7747 32.8737 12.0763 0.0000 -10.6103 0.0000
# 2 32.8737 105.5460 34.9595 0.0000 -18.0386 0.0000
# 3 12.0763 34.9595 77.7217 0.0000 -18.6155 0.0000
# 4 0.0000 0.0000 0.0000 6.1578 0.0000 13.3959
# 5 -10.6103 -18.0386 -18.6155 0.0000 40.4703 0.0000
# 6 0.0000 0.0000 0.0000 13.3959 0.0000 -8.4462
#
#
#
# Elastic Compliance Matrix: (Units=1/GPa)
#
#
# Indices 1 2 3 4 5 6 
#
# 1 0.037223 -0.010826 0.000301 0.000000 0.005072 0.000000
# 2 -0.010826 0.014613 -0.004507 0.000000 0.001602 0.000000
# 3 0.000301 -0.004507 0.016166 0.000000 0.005506 0.000000
# 4 0.000000 0.000000 0.000000 0.036491 0.000000 0.057876
# 5 0.005072 0.001602 0.005506 0.000000 0.029286 0.000000
# 6 0.000000 0.000000 0.000000 0.057876 0.000000 -0.026604
#
#
# Mechanical properties :
#
#
# Convention : Reuss Voigt Hill
#
# Bulk Modulus (GPa) = 26.35990 42.31791 34.33891
# Shear Modulus (GPa) = 33.35889 17.04526 25.20208
#
# Velocity S-wave (km/s) = 4.02865 2.87975 3.50164
# Velocity P-wave (km/s) = 5.87067 5.62549 5.74939
#
# Compressibility (1/GPa) = 0.03793641
#
# Stress axis : x y z
#
# Youngs Moduli (GPa) = 26.86515 68.43107 61.85909
#
# Poissons Ratio (x) = 0.74086 -0.01861
# Poissons Ratio (y) = 0.29085 0.27881
# Poissons Ratio (z) = -0.00808 0.30844
#
# Static dielectric constant tensor:
#      x y z
#    x 1.658880 0.000000 -0.070540 
#    y 0.000000 1.760860 0.000000 
#    z -0.070540 0.000000 1.689370 
# 
# From -- ./inp_files/82717.got.cif
#   From: 2010.05.17/outbox.cif.g08.bks.cpg/sg15_42_cif.got.tgz:82717.got - 2010.06.03 18:47:42.
