data_PCOD9292196
_publ_section_title
;
Structure prediction by ZEFSAII (Michael W. Deem and Ramdas Pophale) SiO2 
 PCOD9292196
Probable space group: C 2/C
;
_chemical_formula_sum "Si O2"
_cell_formula_units_Z 60
_cell_length_a 10.973690
_cell_length_b 9.922882
_cell_length_c 28.876906
_cell_angle_alpha 90.000000
_cell_angle_beta 118.320853
_cell_angle_gamma 90.000000
_cell_volume 2768.051834
_symmetry_space_group_name_H-M "C 2/C"
_symmetry_group_IT_number 15
_symmetry_cell_setting 'monoclinic'
loop_
_space_group_symop_operation_xyz
x,y,z
-x,y,1/2-z
-x,-y,-z
x,-y,1/2+z
1/2+x,1/2+y,z
1/2-x,1/2+y,1/2-z
1/2-x,1/2-y,-z
1/2+x,1/2-y,1/2+z
loop_
_atom_site_type_symbol
_atom_site_label
_atom_site_fract_x
_atom_site_fract_y
_atom_site_fract_z
Si Si1 0.500000 0.274332 0.250000
Si Si2 0.146063 0.473524 0.818478
Si Si3 0.098757 0.762487 0.836962
Si Si4 0.401591 0.483268 0.302974
Si Si5 0.952316 0.154250 0.496574
Si Si6 0.612211 0.207982 0.948107
Si Si7 0.921314 0.230417 0.883254
Si Si8 0.165236 0.423432 0.922126
O O1 0.403156 0.375238 0.261738
O O2 0.427852 0.168689 0.202635
O O3 0.059508 0.613122 0.809887
O O4 0.248845 0.480432 0.793265
O O5 0.223339 0.468663 0.882219
O O6 0.102261 0.758816 0.893625
O O7 0.259986 0.772613 0.849893
O O8 0.996012 0.886772 0.807480
O O9 0.454598 0.400139 0.357764
O O10 0.787242 0.153269 0.469785
O O11 0.990537 0.237378 0.457863
O O12 0.035694 0.207644 0.555760
O O13 0.000000 0.000000 0.500000
O O14 0.620808 0.048797 0.944766
O O15 0.750000 0.250000 0.000000
O O16 0.025901 0.345001 0.886563
#
# Coordination Sequence:
#
# PCOD9292196 Si02
#       8
#     4   8   8   8   8   8   8   8
#     4  12  26  48  74 102 128 166 230 284 344 418
#     4  10  24  48  69 100 135 172 217 286 344 398
#     4  10  22  43  67  96 142 180 216 277 334 400
#     4  11  25  45  73 101 132 177 222 278 347 404
#     4  12  21  36  62  90 134 185 224 270 322 390
#     4  11  20  37  59  90 129 182 228 258 324 395
#     4  11  23  40  62  98 141 175 228 276 324 401
#     4  11  23  40  62  95 134 179 226 274 333 391
#
# _framework density 21.675895000000001
#
# number of rings (size 3 to 8) (size 9 to 14) (size 15 to 20)
#    0.000    1.067    4.000    3.600    0.000    5.333 
#    4.800    0.000    0.000    0.000    0.000    0.000 
#    0.000    0.000    0.000    0.000    0.000    0.000 
#
# Total GULP energy -167398.244804 kJ/mol
# GULP energy per Si atom -5579.941493 kJ/mol
# Density = 2.162656 g / cm^3
# Si number density = 21.675895 Si / 1000 Ang^3
#
#
#
# Elastic Constant Matrix: (Units=GPa)
#
#
# Indices 1 2 3 4 5 6 
#
# 1 68.8435 60.6047 11.7673 0.0000 -22.9029 0.0000
# 2 60.6047 130.7379 28.4457 0.0000 -10.9323 0.0000
# 3 11.7673 28.4457 73.2499 0.0000 -19.7505 0.0000
# 4 0.0000 0.0000 0.0000 35.2258 0.0000 -0.4733
# 5 -22.9029 -10.9323 -19.7505 0.0000 27.8780 0.0000
# 6 0.0000 0.0000 0.0000 -0.4733 0.0000 34.2575
#
#
#
# Elastic Compliance Matrix: (Units=1/GPa)
#
#
# Indices 1 2 3 4 5 6 
#
# 1 0.038506 -0.017177 0.008898 0.000000 0.031202 0.000000
# 2 -0.017177 0.016050 -0.006899 0.000000 -0.012705 0.000000
# 3 0.008898 -0.006899 0.019955 0.000000 0.018742 0.000000
# 4 0.000000 0.000000 0.000000 0.028394 0.000000 0.000392
# 5 0.031202 -0.012705 0.018742 0.000000 0.069800 0.000000
# 6 0.000000 0.000000 0.000000 0.000392 0.000000 0.029196
#
#
# Mechanical properties :
#
#
# Convention : Reuss Voigt Hill
#
# Bulk Modulus (GPa) = 22.64755 52.71852 37.68303
# Shear Modulus (GPa) = 20.24486 30.93984 25.59235
#
# Velocity S-wave (km/s) = 3.05942 3.78217 3.43983
# Velocity P-wave (km/s) = 4.79073 6.59145 5.76187
#
# Compressibility (1/GPa) = 0.04415489
#
# Stress axis : x y z
#
# Youngs Moduli (GPa) = 25.96972 62.30517 50.11249
#
# Poissons Ratio (x) = 1.07020 -0.44588
# Poissons Ratio (y) = 0.44608 0.34574
# Poissons Ratio (z) = -0.23107 0.42986
#
# Static dielectric constant tensor:
#      x y z
#    x 1.863880 0.000000 0.017260 
#    y 0.000000 1.795750 0.000000 
#    z 0.017260 0.000000 1.754540 
# 
# From -- ./inp_files/310348.got.cif
#   From: 2010.05.17/outbox.cif.g08.bks.cpg/sg15_156_cif.got.tgz:310348.got - 2010.06.03 18:47:42.
