data_PCOD9292824
_publ_section_title
;
Structure prediction by ZEFSAII (Michael W. Deem and Ramdas Pophale) SiO2 
 PCOD9292824
Probable space group: C 2/C
;
_chemical_formula_sum "Si O2"
_cell_formula_units_Z 52
_cell_length_a 20.490590
_cell_length_b 12.137226
_cell_length_c 11.968655
_cell_angle_alpha 90.000000
_cell_angle_beta 62.944474
_cell_angle_gamma 90.000000
_cell_volume 2650.851680
_symmetry_space_group_name_H-M "C 2/C"
_symmetry_group_IT_number 15
_symmetry_cell_setting 'monoclinic'
loop_
_space_group_symop_operation_xyz
x,y,z
-x,y,1/2-z
-x,-y,-z
x,-y,1/2+z
1/2+x,1/2+y,z
1/2-x,1/2+y,1/2-z
1/2-x,1/2-y,-z
1/2+x,1/2-y,1/2+z
loop_
_atom_site_type_symbol
_atom_site_label
_atom_site_fract_x
_atom_site_fract_y
_atom_site_fract_z
Si Si1 0.833809 0.979929 0.938921
Si Si2 0.000000 0.230584 0.750000
Si Si3 0.577239 0.709363 0.245183
Si Si4 0.555890 0.594884 0.494680
Si Si5 0.750175 0.841339 0.361365
Si Si6 0.848036 0.650567 0.347607
Si Si7 0.192587 0.402922 0.164486
O O1 0.893323 0.900683 0.837971
O O2 0.807119 0.073517 0.873856
O O3 0.763024 0.909409 0.028977
O O4 0.869251 0.039249 0.018904
O O5 0.021405 0.156268 0.627719
O O6 0.070697 0.303344 0.723590
O O7 0.500000 0.739249 0.250000
O O8 0.568918 0.677622 0.381906
O O9 0.635330 0.806846 0.183269
O O10 0.500000 0.500000 0.500000
O O11 0.792027 0.725149 0.319212
O O12 0.683804 0.833247 0.501919
O O13 0.721859 0.883350 0.266196
O O14 0.843094 0.523514 0.318942
#
# Coordination Sequence:
#
# PCOD9292824 Si02
#       7
#     8   4   8   8   8   8   8
#     4  11  23  44  69  99 129 174 227 278 328 395
#     4  12  24  44  68  98 132 178 228 264 334 402
#     4  12  26  44  65 100 140 170 217 279 340 396
#     4  12  24  43  69 102 135 173 224 283 331 384
#     4  10  22  44  68  95 128 172 230 278 322 391
#     4  10  24  43  65  94 132 175 221 270 329 404
#     4  11  26  42  69  95 136 179 216 275 335 405
#
# _framework density 19.616337000000001
#
# number of rings (size 3 to 8) (size 9 to 14) (size 15 to 20)
#    0.000    0.923    3.077    3.231    9.692    0.000 
#    5.538    1.538    0.000    0.000    0.000    0.000 
#    0.000    0.000    0.000    0.000    0.000    0.000 
#
# Total GULP energy -145480.880187 kJ/mol
# GULP energy per Si atom -5595.418469 kJ/mol
# Density = 1.957169 g / cm^3
# Si number density = 19.616337 Si / 1000 Ang^3
#
#
#
# Elastic Constant Matrix: (Units=GPa)
#
#
# Indices 1 2 3 4 5 6 
#
# 1 98.3396 29.8094 22.4321 0.0000 -2.5885 0.0000
# 2 29.8094 78.0869 25.9043 0.0000 -2.8153 0.0000
# 3 22.4321 25.9043 62.0303 0.0000 3.2025 0.0000
# 4 0.0000 0.0000 0.0000 27.6501 0.0000 -10.5016
# 5 -2.5885 -2.8153 3.2025 0.0000 29.4919 0.0000
# 6 0.0000 0.0000 0.0000 -10.5016 0.0000 43.1477
#
#
#
# Elastic Compliance Matrix: (Units=1/GPa)
#
#
# Indices 1 2 3 4 5 6 
#
# 1 0.011933 -0.003563 -0.002880 0.000000 0.001020 0.000000
# 2 -0.003563 0.016061 -0.005512 0.000000 0.001819 0.000000
# 3 -0.002880 -0.005512 0.019615 0.000000 -0.002909 0.000000
# 4 0.000000 0.000000 0.000000 0.039850 0.000000 0.009699
# 5 0.001020 0.001819 -0.002909 0.000000 0.034487 0.000000
# 6 0.000000 0.000000 0.000000 0.009699 0.000000 0.025537
#
#
# Mechanical properties :
#
#
# Convention : Reuss Voigt Hill
#
# Bulk Modulus (GPa) = 42.19889 43.86093 43.02991
# Shear Modulus (GPa) = 27.88751 30.74534 29.31642
#
# Velocity S-wave (km/s) = 3.77456 3.96325 3.87006
# Velocity P-wave (km/s) = 6.36830 6.58415 6.47713
#
# Compressibility (1/GPa) = 0.02369730
#
# Stress axis : x y z
#
# Youngs Moduli (GPa) = 83.80333 62.26369 50.98177
#
# Poissons Ratio (x) = 0.22185 0.14682
# Poissons Ratio (y) = 0.29860 0.28103
# Poissons Ratio (z) = 0.24135 0.34323
#
# Static dielectric constant tensor:
#      x y z
#    x 1.674980 0.000000 -0.012110 
#    y 0.000000 1.677230 0.000000 
#    z -0.012110 0.000000 1.677220 
# 
# From -- ./inp_files/111518.got.cif
#   From: 2010.05.17/outbox.cif.g08.bks.cpg/sg15_56_cif.got.tgz:111518.got - 2010.06.03 18:47:42.
