data_PCOD9292567
_publ_section_title
;
Structure prediction by ZEFSAII (Michael W. Deem and Ramdas Pophale) SiO2 
 PCOD9292567
Probable space group: C 2/C
;
_chemical_formula_sum "Si O2"
_cell_formula_units_Z 64
_cell_length_a 27.068646
_cell_length_b 13.436793
_cell_length_c 15.363965
_cell_angle_alpha 90.000000
_cell_angle_beta 33.267880
_cell_angle_gamma 90.000000
_cell_volume 3065.384773
_symmetry_space_group_name_H-M "C 2/C"
_symmetry_group_IT_number 15
_symmetry_cell_setting 'monoclinic'
loop_
_space_group_symop_operation_xyz
x,y,z
-x,y,1/2-z
-x,-y,-z
x,-y,1/2+z
1/2+x,1/2+y,z
1/2-x,1/2+y,1/2-z
1/2-x,1/2-y,-z
1/2+x,1/2-y,1/2+z
loop_
_atom_site_type_symbol
_atom_site_label
_atom_site_fract_x
_atom_site_fract_y
_atom_site_fract_z
Si Si1 0.808034 0.513819 0.456942
Si Si2 0.518850 0.618083 0.624580
Si Si3 0.834360 0.499115 0.606899
Si Si4 0.637761 0.574385 0.947438
Si Si5 0.346617 0.336456 0.261540
Si Si6 0.096904 0.621955 0.330455
Si Si7 0.098082 0.693778 0.926357
Si Si8 0.239067 0.163135 0.946268
O O1 0.836230 0.460729 0.505462
O O2 0.743184 0.604079 0.581714
O O3 0.886470 0.552532 0.278025
O O4 0.751759 0.438541 0.480584
O O5 0.500000 0.652820 0.750000
O O6 0.560638 0.508227 0.567286
O O7 0.426760 0.625696 0.705869
O O8 0.587604 0.696416 0.479946
O O9 0.732010 0.515248 0.791256
O O10 0.881931 0.435059 0.611588
O O11 0.880034 0.608340 0.535831
O O12 0.626026 0.638335 0.877728
O O13 0.653873 0.643289 0.008363
O O14 0.338925 0.217664 0.277092
O O15 0.996317 0.663909 0.477770
O O16 0.178392 0.682945 0.740517
O O17 0.250000 0.250000 0.000000
#
# Coordination Sequence:
#
# PCOD9292567 Si02
#       8
#     8   8   8   8   8   8   8   8
#     4  11  23  41  67  98 124 177 220 272 335 398
#     4  11  24  41  69  96 133 172 218 277 331 394
#     4  10  23  38  67  92 130 171 212 275 328 394
#     4  10  22  44  63  96 125 176 217 270 335 387
#     4  10  24  40  66 100 130 170 221 278 335 394
#     4  11  22  43  65  93 137 168 223 278 329 396
#     4  10  24  43  63  97 132 173 216 278 331 388
#     4  11  25  45  69  94 133 177 224 268 338 406
#
# _framework density 20.878292999999999
#
# number of rings (size 3 to 8) (size 9 to 14) (size 15 to 20)
#    0.000    1.500    2.500    1.875    8.750    2.000 
#    4.500    0.000    0.000    0.000    0.000    0.000 
#    0.000    0.000    0.000    0.000    0.000    0.000 
#
# Total GULP energy -178734.185202 kJ/mol
# GULP energy per Si atom -5585.443288 kJ/mol
# Density = 2.083077 g / cm^3
# Si number density = 20.878293 Si / 1000 Ang^3
#
#
#
# Elastic Constant Matrix: (Units=GPa)
#
#
# Indices 1 2 3 4 5 6 
#
# 1 124.0416 23.2915 31.7733 0.0000 32.8247 0.0000
# 2 23.2915 56.9602 13.9298 0.0000 9.7108 0.0000
# 3 31.7733 13.9298 39.2032 0.0000 21.0022 0.0000
# 4 0.0000 0.0000 0.0000 28.3134 0.0000 2.0932
# 5 32.8247 9.7108 21.0022 0.0000 31.9978 0.0000
# 6 0.0000 0.0000 0.0000 2.0932 0.0000 32.3240
#
#
#
# Elastic Compliance Matrix: (Units=1/GPa)
#
#
# Indices 1 2 3 4 5 6 
#
# 1 0.011875 -0.002360 -0.004077 0.000000 -0.008790 0.000000
# 2 -0.002360 0.019786 -0.004932 0.000000 -0.000346 0.000000
# 3 -0.004077 -0.004932 0.042449 0.000000 -0.022183 0.000000
# 4 0.000000 0.000000 0.000000 0.035489 0.000000 -0.002298
# 5 -0.008790 -0.000346 -0.022183 0.000000 0.054934 0.000000
# 6 0.000000 0.000000 0.000000 -0.002298 0.000000 0.031086
#
#
# Mechanical properties :
#
#
# Convention : Reuss Voigt Hill
#
# Bulk Modulus (GPa) = 19.46594 39.79936 29.63265
# Shear Modulus (GPa) = 21.23304 28.60774 24.92039
#
# Velocity S-wave (km/s) = 3.19249 3.70566 3.45860
# Velocity P-wave (km/s) = 4.78885 6.11663 5.49301
#
# Compressibility (1/GPa) = 0.05137178
#
# Stress axis : x y z
#
# Youngs Moduli (GPa) = 84.20754 50.53962 23.55784
#
# Poissons Ratio (x) = 0.11929 0.09605
# Poissons Ratio (y) = 0.19876 0.11619
# Poissons Ratio (z) = 0.34332 0.24926
#
# Static dielectric constant tensor:
#      x y z
#    x 1.787460 0.000000 0.003360 
#    y 0.000000 1.773000 0.000000 
#    z 0.003360 0.000000 1.739900 
# 
# From -- ./inp_files/177816.got.cif
#   From: 2010.05.17/outbox.cif.g08.bks.cpg/sg15_89_cif.got.tgz:177816.got - 2010.06.03 18:47:42.
