data_PCOD9292038
_publ_section_title
;
Structure prediction by ZEFSAII (Michael W. Deem and Ramdas Pophale) SiO2 
 PCOD9292038
Probable space group: C 2/C
;
_chemical_formula_sum "Si O2"
_cell_formula_units_Z 48
_cell_length_a 24.285986
_cell_length_b 13.203932
_cell_length_c 9.255764
_cell_angle_alpha 90.000000
_cell_angle_beta 41.279660
_cell_angle_gamma 90.000000
_cell_volume 1958.126609
_symmetry_space_group_name_H-M "C 2/C"
_symmetry_group_IT_number 15
_symmetry_cell_setting 'monoclinic'
loop_
_space_group_symop_operation_xyz
x,y,z
-x,y,1/2-z
-x,-y,-z
x,-y,1/2+z
1/2+x,1/2+y,z
1/2-x,1/2+y,1/2-z
1/2-x,1/2-y,-z
1/2+x,1/2-y,1/2+z
loop_
_atom_site_type_symbol
_atom_site_label
_atom_site_fract_x
_atom_site_fract_y
_atom_site_fract_z
Si Si1 0.592831 0.715624 0.506547
Si Si2 0.789542 0.986714 0.420067
Si Si3 0.911740 0.597731 0.340869
Si Si4 0.855982 0.594966 0.134676
Si Si5 0.400462 0.482414 0.957701
Si Si6 0.674252 0.181775 0.592701
O O1 0.500000 0.702904 0.750000
O O2 0.634675 0.796615 0.531803
O O3 0.620588 0.599745 0.455138
O O4 0.600729 0.775253 0.339763
O O5 0.718459 0.071621 0.528327
O O6 0.735878 0.907136 0.616977
O O7 0.859797 0.035029 0.383716
O O8 0.841629 0.930610 0.192419
O O9 0.915222 0.590785 0.160008
O O10 0.870015 0.506786 0.512400
O O11 0.000000 0.601198 0.250000
O O12 0.858524 0.681229 0.007010
O O13 0.500000 0.465457 0.750000
O O14 0.750000 0.250000 0.500000
#
# Coordination Sequence:
#
# PCOD9292038 Si02
#       6
#     8   8   8   8   8   8
#     4  10  22  43  65  94 139 180 217 279 337 406
#     4  12  21  41  67  96 129 170 228 279 338 401
#     4  11  22  39  64  98 136 179 223 278 337 413
#     4  12  22  40  67  99 134 180 228 280 342 402
#     4  11  24  43  67  95 133 178 221 285 346 398
#     4  12  23  43  68  96 137 180 229 287 340 402
#
# _framework density 24.513224000000001
#
# number of rings (size 3 to 8) (size 9 to 14) (size 15 to 20)
#    0.000    0.667    6.667    1.000    0.000    1.333 
#    3.000    1.667    0.000    0.000    0.000    0.000 
#    0.000    0.000    0.000    0.000    0.000    0.000 
#
# Total GULP energy -133686.455781 kJ/mol
# GULP energy per Si atom -5570.268991 kJ/mol
# Density = 2.445743 g / cm^3
# Si number density = 24.513224 Si / 1000 Ang^3
#
#
#
# Elastic Constant Matrix: (Units=GPa)
#
#
# Indices 1 2 3 4 5 6 
#
# 1 174.5673 11.7192 56.5323 0.0000 24.5171 0.0000
# 2 11.7192 43.8114 30.4696 0.0000 14.0683 0.0000
# 3 56.5323 30.4696 126.9034 0.0000 18.2213 0.0000
# 4 0.0000 0.0000 0.0000 7.5148 0.0000 1.5638
# 5 24.5171 14.0683 18.2213 0.0000 49.1265 0.0000
# 6 0.0000 0.0000 0.0000 1.5638 0.0000 16.3905
#
#
#
# Elastic Compliance Matrix: (Units=1/GPa)
#
#
# Indices 1 2 3 4 5 6 
#
# 1 0.007003 0.001071 -0.002990 0.000000 -0.002693 0.000000
# 2 0.001071 0.029170 -0.006554 0.000000 -0.006457 0.000000
# 3 -0.002990 -0.006554 0.010881 0.000000 -0.000667 0.000000
# 4 0.000000 0.000000 0.000000 0.135767 0.000000 -0.012953
# 5 -0.002693 -0.006457 -0.000667 0.000000 0.023796 0.000000
# 6 0.000000 0.000000 0.000000 -0.012953 0.000000 0.062247
#
#
# Mechanical properties :
#
#
# Convention : Reuss Voigt Hill
#
# Bulk Modulus (GPa) = 33.21317 60.30268 46.75793
# Shear Modulus (GPa) = 16.90069 31.04375 23.97222
#
# Velocity S-wave (km/s) = 2.62859 3.56252 3.13058
# Velocity P-wave (km/s) = 4.77401 6.44791 5.67304
#
# Compressibility (1/GPa) = 0.03010854
#
# Stress axis : x y z
#
# Youngs Moduli (GPa) = 142.79455 34.28180 91.90017
#
# Poissons Ratio (x) = -0.03671 0.27480
# Poissons Ratio (y) = -0.15293 0.60228
# Poissons Ratio (z) = 0.42699 0.22467
#
# Static dielectric constant tensor:
#      x y z
#    x 2.036990 0.000000 0.023760 
#    y 0.000000 2.156890 0.000000 
#    z 0.023760 0.000000 2.147590 
# 
# From -- ./inp_files/66402.got.cif
#   From: 2010.05.17/outbox.cif.g08.bks.cpg/sg15_34_cif.got.tgz:66402.got - 2010.06.03 18:47:42.
