data_PCOD9292691
_publ_section_title
;
Structure prediction by ZEFSAII (Michael W. Deem and Ramdas Pophale) SiO2 
 PCOD9292691
Probable space group: C 2/C
;
_chemical_formula_sum "Si O2"
_cell_formula_units_Z 64
_cell_length_a 26.029588
_cell_length_b 11.054709
_cell_length_c 15.798364
_cell_angle_alpha 90.000000
_cell_angle_beta 137.108272
_cell_angle_gamma 90.000000
_cell_volume 3094.056971
_symmetry_space_group_name_H-M "C 2/C"
_symmetry_group_IT_number 15
_symmetry_cell_setting 'monoclinic'
loop_
_space_group_symop_operation_xyz
x,y,z
-x,y,1/2-z
-x,-y,-z
x,-y,1/2+z
1/2+x,1/2+y,z
1/2-x,1/2+y,1/2-z
1/2-x,1/2-y,-z
1/2+x,1/2-y,1/2+z
loop_
_atom_site_type_symbol
_atom_site_label
_atom_site_fract_x
_atom_site_fract_y
_atom_site_fract_z
Si Si1 0.421274 0.441466 0.370522
Si Si2 0.828571 0.474036 0.284896
Si Si3 0.170441 0.684793 0.884055
Si Si4 0.663427 0.459227 0.573036
Si Si5 0.055709 0.657443 0.120041
Si Si6 0.418362 0.971623 0.669325
Si Si7 0.415366 0.425060 0.684168
Si Si8 0.392287 0.189550 0.980267
O O1 0.500000 0.500000 0.500000
O O2 0.361687 0.473827 0.371559
O O3 0.422829 0.296925 0.363135
O O4 0.407477 0.497548 0.260831
O O5 0.833927 0.379524 0.212858
O O6 0.753350 0.550226 0.179599
O O7 0.897568 0.567871 0.383869
O O8 0.823822 0.385412 0.358767
O O9 0.146675 0.571976 0.914499
O O10 0.108759 0.789614 0.820425
O O11 0.250000 0.750000 0.000000
O O12 0.636400 0.527025 0.455410
O O13 0.623958 0.329480 0.530621
O O14 0.078469 0.595822 0.236831
O O15 0.964852 0.662715 0.008185
O O16 0.500000 0.031213 0.750000
O O17 0.410136 0.866713 0.591704
O O18 0.500000 0.431337 0.750000
#
# Coordination Sequence:
#
# PCOD9292691 Si02
#       8
#     8   8   8   8   8   8   8   8
#     4  12  24  43  69 103 132 175 230 276 338 403
#     4  11  26  43  63  98 136 176 222 283 340 397
#     4  11  23  43  64  93 136 173 222 270 335 407
#     4  12  26  44  65 104 137 174 228 278 343 407
#     4  10  22  44  66  95 130 171 226 276 326 406
#     4   9  21  41  66  96 124 170 225 271 329 397
#     4  12  24  44  72  97 137 182 220 284 338 398
#     4  11  22  42  69  92 129 174 222 275 331 403
#
# _framework density 20.684816000000001
#
# number of rings (size 3 to 8) (size 9 to 14) (size 15 to 20)
#    0.000    1.000    3.750    2.250    1.750    4.000 
#    0.000    1.875    0.000    0.000    0.000    0.000 
#    0.000    0.000    0.000    0.000    0.000    0.000 
#
# Total GULP energy -178633.064703 kJ/mol
# GULP energy per Si atom -5582.283272 kJ/mol
# Density = 2.063774 g / cm^3
# Si number density = 20.684816 Si / 1000 Ang^3
#
#
#
# Elastic Constant Matrix: (Units=GPa)
#
#
# Indices 1 2 3 4 5 6 
#
# 1 62.1228 43.6393 20.9716 0.0000 -7.9231 0.0000
# 2 43.6393 154.2647 26.7052 0.0000 12.9828 0.0000
# 3 20.9716 26.7052 45.5895 0.0000 2.3012 0.0000
# 4 0.0000 0.0000 0.0000 1.6679 0.0000 19.6725
# 5 -7.9231 12.9828 2.3012 0.0000 22.6033 0.0000
# 6 0.0000 0.0000 0.0000 19.6725 0.0000 16.9808
#
#
#
# Elastic Compliance Matrix: (Units=1/GPa)
#
#
# Indices 1 2 3 4 5 6 
#
# 1 0.025566 -0.006941 -0.008391 0.000000 0.013803 0.000000
# 2 -0.006941 0.009426 -0.001942 0.000000 -0.007649 0.000000
# 3 -0.008391 -0.001942 0.027165 0.000000 -0.004591 0.000000
# 4 0.000000 0.000000 0.000000 -0.047342 0.000000 0.054846
# 5 0.013803 -0.007649 -0.004591 0.000000 0.053941 0.000000
# 6 0.000000 0.000000 0.000000 0.054846 0.000000 -0.004650
#
#
# Mechanical properties :
#
#
# Convention : Reuss Voigt Hill
#
# Bulk Modulus (GPa) = 36.22304 49.40101 42.81202
# Shear Modulus (GPa) = 46.35703 19.62779 32.99241
#
# Velocity S-wave (km/s) = 4.73918 3.08376 3.99809
# Velocity P-wave (km/s) = 6.89176 6.05095 6.48500
#
# Compressibility (1/GPa) = 0.02760674
#
# Stress axis : x y z
#
# Youngs Moduli (GPa) = 39.11373 106.08970 36.81274
#
# Poissons Ratio (x) = 0.73641 0.30891
# Poissons Ratio (y) = 0.27150 0.07150
# Poissons Ratio (z) = 0.32822 0.20606
#
# Static dielectric constant tensor:
#      x y z
#    x 1.609410 0.000000 0.021910 
#    y 0.000000 1.679470 0.000000 
#    z 0.021910 0.000000 1.750180 
# 
# From -- ./inp_files/224650.got.cif
#   From: 2010.05.17/outbox.cif.g08.bks.cpg/sg15_113_cif.got.tgz:224650.got - 2010.06.03 18:47:42.
