data_PCOD9292544
_publ_section_title
;
Structure prediction by ZEFSAII (Michael W. Deem and Ramdas Pophale) SiO2 
 PCOD9292544
Probable space group: C 2/C
;
_chemical_formula_sum "Si O2"
_cell_formula_units_Z 48
_cell_length_a 9.800968
_cell_length_b 27.345382
_cell_length_c 8.688602
_cell_angle_alpha 90.000000
_cell_angle_beta 57.174022
_cell_angle_gamma 90.000000
_cell_volume 1956.807201
_symmetry_space_group_name_H-M "C 2/C"
_symmetry_group_IT_number 15
_symmetry_cell_setting 'monoclinic'
loop_
_space_group_symop_operation_xyz
x,y,z
-x,y,1/2-z
-x,-y,-z
x,-y,1/2+z
1/2+x,1/2+y,z
1/2-x,1/2+y,1/2-z
1/2-x,1/2-y,-z
1/2+x,1/2-y,1/2+z
loop_
_atom_site_type_symbol
_atom_site_label
_atom_site_fract_x
_atom_site_fract_y
_atom_site_fract_z
Si Si1 0.693336 0.843293 0.143919
Si Si2 0.825891 0.007413 0.910273
Si Si3 0.349274 0.233911 0.588931
Si Si4 0.164358 0.545648 0.748062
Si Si5 0.185063 0.160518 0.282687
Si Si6 0.500000 0.171614 0.250000
Si Si7 0.000000 0.086865 0.250000
O O1 0.500000 0.834000 0.250000
O O2 0.743689 0.801397 0.234930
O O3 0.711802 0.897708 0.200063
O O4 0.756763 0.840882 0.930734
O O5 0.676113 0.034039 0.921221
O O6 0.000000 0.029514 0.750000
O O7 0.849116 0.949799 0.855713
O O8 0.786235 0.997258 0.112157
O O9 0.250000 0.250000 0.500000
O O10 0.385591 0.285552 0.644861
O O11 0.327414 0.146800 0.317473
O O12 0.000000 0.540461 0.750000
O O13 0.513424 0.203286 0.084433
O O14 0.043923 0.120288 0.368679
#
# Coordination Sequence:
#
# PCOD9292544 Si02
#       7
#     8   8   8   8   8   4   4
#     4  11  21  40  68  96 132 177 233 277 335 409
#     4  10  22  45  65  94 143 169 219 288 342 417
#     4  10  23  39  63  97 136 176 219 283 337 396
#     4  11  23  43  71 101 131 176 234 285 346 409
#     4  11  22  42  68  95 138 179 227 278 336 412
#     4  10  22  44  60  97 136 171 232 284 330 394
#     4  10  24  40  66 101 126 181 226 256 356 420
#
# _framework density 24.529755000000002
#
# number of rings (size 3 to 8) (size 9 to 14) (size 15 to 20)
#    0.500    1.000    3.333    1.500    1.167    2.667 
#    7.500    0.000    1.833    0.000    0.000    0.000 
#    0.000    0.000    0.000    0.000    0.000    0.000 
#
# Total GULP energy -133687.611586 kJ/mol
# GULP energy per Si atom -5570.317149 kJ/mol
# Density = 2.447392 g / cm^3
# Si number density = 24.529755 Si / 1000 Ang^3
#
#
#
# Elastic Constant Matrix: (Units=GPa)
#
#
# Indices 1 2 3 4 5 6 
#
# 1 125.3215 41.2043 8.0847 0.0000 17.6735 0.0000
# 2 41.2043 95.1855 35.7862 0.0000 32.8250 0.0000
# 3 8.0847 35.7862 81.5210 0.0000 17.5527 0.0000
# 4 0.0000 0.0000 0.0000 25.6700 0.0000 10.0274
# 5 17.6735 32.8250 17.5527 0.0000 34.1806 0.0000
# 6 0.0000 0.0000 0.0000 10.0274 0.0000 32.9533
#
#
#
# Elastic Compliance Matrix: (Units=1/GPa)
#
#
# Indices 1 2 3 4 5 6 
#
# 1 0.009438 -0.003936 0.001157 0.000000 -0.001694 0.000000
# 2 -0.003936 0.018672 -0.004928 0.000000 -0.013365 0.000000
# 3 0.001157 -0.004928 0.015094 0.000000 -0.003616 0.000000
# 4 0.000000 0.000000 0.000000 0.044211 0.000000 -0.013453
# 5 -0.001694 -0.013365 -0.003616 0.000000 0.044824 0.000000
# 6 0.000000 0.000000 0.000000 -0.013453 0.000000 0.034440
#
#
# Mechanical properties :
#
#
# Convention : Reuss Voigt Hill
#
# Bulk Modulus (GPa) = 35.98726 52.46426 44.22576
# Shear Modulus (GPa) = 26.12912 33.02431 29.57672
#
# Velocity S-wave (km/s) = 3.26728 3.67317 3.47616
# Velocity P-wave (km/s) = 5.37924 6.27886 5.84638
#
# Compressibility (1/GPa) = 0.02778761
#
# Stress axis : x y z
#
# Youngs Moduli (GPa) = 105.95545 53.55726 66.25049
#
# Poissons Ratio (x) = 0.21082 -0.07663
# Poissons Ratio (y) = 0.41707 0.32651
# Poissons Ratio (z) = -0.12256 0.26396
#
# Static dielectric constant tensor:
#      x y z
#    x 2.069670 0.000000 -0.164230 
#    y 0.000000 2.002530 0.000000 
#    z -0.164230 0.000000 2.130080 
# 
# From -- ./inp_files/32585.got.cif
#   From: 2010.05.17/outbox.cif.g08.bks.cpg/sg15_17_cif.got.tgz:32585.got - 2010.06.03 18:47:42.
