data_PCOD9292362
_publ_section_title
;
Structure prediction by ZEFSAII (Michael W. Deem and Ramdas Pophale) SiO2 
 PCOD9292362
Probable space group: C 2/C
;
_chemical_formula_sum "Si O2"
_cell_formula_units_Z 32
_cell_length_a 12.707354
_cell_length_b 21.600599
_cell_length_c 10.173039
_cell_angle_alpha 90.000000
_cell_angle_beta 24.493912
_cell_angle_gamma 90.000000
_cell_volume 1157.703426
_symmetry_space_group_name_H-M "C 2/C"
_symmetry_group_IT_number 15
_symmetry_cell_setting 'monoclinic'
loop_
_space_group_symop_operation_xyz
x,y,z
-x,y,1/2-z
-x,-y,-z
x,-y,1/2+z
1/2+x,1/2+y,z
1/2-x,1/2+y,1/2-z
1/2-x,1/2-y,-z
1/2+x,1/2-y,1/2+z
loop_
_atom_site_type_symbol
_atom_site_label
_atom_site_fract_x
_atom_site_fract_y
_atom_site_fract_z
Si Si1 0.665688 0.383310 0.438800
Si Si2 0.219886 0.138808 0.576032
Si Si3 0.460136 0.782557 0.450574
Si Si4 0.833298 0.504420 0.319222
O O1 0.621860 0.372083 0.334939
O O2 0.949478 0.353505 0.129761
O O3 0.627551 0.456049 0.501861
O O4 0.500000 0.356246 0.750000
O O5 0.000000 0.173682 0.750000
O O6 0.259861 0.072560 0.452986
O O7 0.500000 0.167346 0.250000
O O8 0.500000 0.774903 0.250000
O O9 0.174420 0.756353 0.787909
O O10 0.000000 0.477492 0.250000
O O11 0.000000 0.500000 0.000000
#
# Coordination Sequence:
#
# PCOD9292362 Si02
#       4
#     8   8   8   8
#     4  12  25  40  73 107 139 192 235 293 360 419
#     4  11  26  46  64  98 145 189 229 288 340 426
#     4  10  22  43  70 106 142 175 235 304 351 407
#     4  11  22  41  66 103 141 193 229 290 343 428
#
# _framework density 27.640931999999999
#
# number of rings (size 3 to 8) (size 9 to 14) (size 15 to 20)
#    0.000    1.000    5.000    3.750    3.500    6.000 
#    0.000    0.000    0.000    4.500    0.000    0.000 
#    0.000    0.000    0.000    0.000    0.000    0.000 
#
# Total GULP energy -89237.257532 kJ/mol
# GULP energy per Si atom -5577.328596 kJ/mol
# Density = 2.757802 g / cm^3
# Si number density = 27.640932 Si / 1000 Ang^3
#
#
#
# Elastic Constant Matrix: (Units=GPa)
#
#
# Indices 1 2 3 4 5 6 
#
# 1 183.2822 1.7199 96.7932 0.0371 11.8663 -0.0453
# 2 1.7199 105.5173 11.5264 0.0149 8.0688 -0.0194
# 3 96.7932 11.5264 155.8900 0.0705 25.4730 -0.0795
# 4 0.0371 0.0149 0.0705 21.3732 -0.0403 5.6059
# 5 11.8663 8.0688 25.4730 -0.0403 85.0218 0.0496
# 6 -0.0453 -0.0194 -0.0795 5.6059 0.0496 18.7917
#
#
#
# Elastic Compliance Matrix: (Units=1/GPa)
#
#
# Indices 1 2 3 4 5 6 
#
# 1 0.008148 0.000402 -0.005149 0.000004 0.000367 -0.000004
# 2 0.000402 0.009617 -0.000843 -0.000009 -0.000716 0.000012
# 3 -0.005149 -0.000843 0.010035 -0.000040 -0.002208 0.000047
# 4 0.000004 -0.000009 -0.000040 0.050759 0.000045 -0.015143
# 5 0.000367 -0.000716 -0.002208 0.000045 0.012440 -0.000055
# 6 -0.000004 0.000012 0.000047 -0.015143 -0.000055 0.057733
#
#
# Mechanical properties :
#
#
# Convention : Reuss Voigt Hill
#
# Bulk Modulus (GPa) = 60.17260 73.86315 67.01787
# Shear Modulus (GPa) = 30.22019 47.34734 38.78376
#
# Velocity S-wave (km/s) = 3.31012 4.14326 3.74990
# Velocity P-wave (km/s) = 6.03538 7.04764 6.56106
#
# Compressibility (1/GPa) = 0.01661886
#
# Stress axis : x y z
#
# Youngs Moduli (GPa) = 122.73666 103.97744 99.65379
#
# Poissons Ratio (x) = -0.04175 0.51307
# Poissons Ratio (y) = -0.04928 0.08405
# Poissons Ratio (z) = 0.63192 0.08769
#
# Static dielectric constant tensor:
#      x y z
#    x 2.542360 -0.000370 0.587300 
#    y -0.000370 2.230960 -0.000510 
#    z 0.587300 -0.000510 3.521990 
# 
# From -- ./inp_files/34949.got.cif
#   From: 2010.05.17/outbox.cif.g08.bks.cpg/sg15_18_cif.got.tgz:34949.got - 2010.06.03 18:47:42.
