data_PCOD9292702
_publ_section_title
;
Structure prediction by ZEFSAII (Michael W. Deem and Ramdas Pophale) SiO2 
 PCOD9292702
Probable space group: C 2/C
;
_chemical_formula_sum "Si O2"
_cell_formula_units_Z 36
_cell_length_a 28.701481
_cell_length_b 5.273494
_cell_length_c 10.411083
_cell_angle_alpha 90.000000
_cell_angle_beta 60.581852
_cell_angle_gamma 90.000000
_cell_volume 1372.605972
_symmetry_space_group_name_H-M "C 2/C"
_symmetry_group_IT_number 15
_symmetry_cell_setting 'monoclinic'
loop_
_space_group_symop_operation_xyz
x,y,z
-x,y,1/2-z
-x,-y,-z
x,-y,1/2+z
1/2+x,1/2+y,z
1/2-x,1/2+y,1/2-z
1/2-x,1/2-y,-z
1/2+x,1/2-y,1/2+z
loop_
_atom_site_type_symbol
_atom_site_label
_atom_site_fract_x
_atom_site_fract_y
_atom_site_fract_z
Si Si1 0.214415 0.459123 0.621491
Si Si2 0.559678 0.011117 0.357679
Si Si3 0.500000 0.710558 0.250000
Si Si4 0.414742 0.488659 0.542726
Si Si5 0.681508 0.246339 0.436952
O O1 0.250000 0.250000 0.500000
O O2 0.259074 0.653482 0.612473
O O3 0.173488 0.565297 0.570400
O O4 0.186859 0.368084 0.788280
O O5 0.546771 0.898230 0.235667
O O6 0.590019 0.788306 0.392554
O O7 0.500000 0.000000 0.500000
O O8 0.581889 0.291343 0.352035
O O9 0.470382 0.531213 0.391825
O O10 0.364957 0.548087 0.516974
#
# Coordination Sequence:
#
# PCOD9292702 Si02
#       5
#     8   8   4   8   8
#     4  11  24  47  72 102 151 189 248 313 378 450
#     4  10  23  43  65  97 138 182 237 294 357 429
#     4  10  22  44  66  96 138 182 226 298 356 432
#     4  11  26  41  71 103 138 185 243 295 366 436
#     4  11  26  44  74 107 143 199 245 312 378 451
#
# _framework density 26.227484
#
# number of rings (size 3 to 8) (size 9 to 14) (size 15 to 20)
#    0.000    1.333    2.222    2.667    6.222    9.778 
#    0.000    0.000    0.000    0.000    0.000    0.000 
#    0.000    0.000    0.000    0.000    0.000    0.000 
#
# Total GULP energy -100786.068605 kJ/mol
# GULP energy per Si atom -5599.226034 kJ/mol
# Density = 2.616779 g / cm^3
# Si number density = 26.227484 Si / 1000 Ang^3
#
#
#
# Elastic Constant Matrix: (Units=GPa)
#
#
# Indices 1 2 3 4 5 6 
#
# 1 155.2655 34.9043 40.8177 0.0000 11.8249 0.0000
# 2 34.9043 103.5670 47.8732 0.0000 11.7580 0.0000
# 3 40.8177 47.8732 121.3746 0.0000 29.6836 0.0000
# 4 0.0000 0.0000 0.0000 31.2224 0.0000 2.0808
# 5 11.8249 11.7580 29.6836 0.0000 37.2224 0.0000
# 6 0.0000 0.0000 0.0000 2.0808 0.0000 57.5655
#
#
#
# Elastic Compliance Matrix: (Units=1/GPa)
#
#
# Indices 1 2 3 4 5 6 
#
# 1 0.007286 -0.001618 -0.001703 0.000000 -0.000445 0.000000
# 2 -0.001618 0.012168 -0.004275 0.000000 0.000079 0.000000
# 3 -0.001703 -0.004275 0.012467 0.000000 -0.008050 0.000000
# 4 0.000000 0.000000 0.000000 0.032106 0.000000 -0.001161
# 5 -0.000445 0.000079 -0.008050 0.000000 0.033402 0.000000
# 6 0.000000 0.000000 0.000000 -0.001161 0.000000 0.017413
#
#
# Mechanical properties :
#
#
# Convention : Reuss Voigt Hill
#
# Bulk Modulus (GPa) = 59.77587 69.71083 64.74335
# Shear Modulus (GPa) = 36.87086 42.30952 39.59019
#
# Velocity S-wave (km/s) = 3.75348 4.02079 3.88943
# Velocity P-wave (km/s) = 6.45179 6.94210 6.70143
#
# Compressibility (1/GPa) = 0.01672916
#
# Stress axis : x y z
#
# Youngs Moduli (GPa) = 137.25100 82.18496 80.21458
#
# Poissons Ratio (x) = 0.13294 0.13663
# Poissons Ratio (y) = 0.22202 0.34289
# Poissons Ratio (z) = 0.23378 0.35131
#
# Static dielectric constant tensor:
#      x y z
#    x 2.351260 0.000000 0.172130 
#    y 0.000000 2.127460 0.000000 
#    z 0.172130 0.000000 2.185440 
# 
# From -- ./inp_files/120554.got.cif
#   From: 2010.05.17/outbox.cif.g08.bks.cpg/sg15_61_cif.got.tgz:120554.got - 2010.06.03 18:47:42.
