data_PCOD9292535
_publ_section_title
;
Structure prediction by ZEFSAII (Michael W. Deem and Ramdas Pophale) SiO2 
 PCOD9292535
Probable space group: C 2/C
;
_chemical_formula_sum "Si O2"
_cell_formula_units_Z 44
_cell_length_a 18.398494
_cell_length_b 7.685237
_cell_length_c 15.590993
_cell_angle_alpha 90.000000
_cell_angle_beta 100.354510
_cell_angle_gamma 90.000000
_cell_volume 2168.614628
_symmetry_space_group_name_H-M "C 2/C"
_symmetry_group_IT_number 15
_symmetry_cell_setting 'monoclinic'
loop_
_space_group_symop_operation_xyz
x,y,z
-x,y,1/2-z
-x,-y,-z
x,-y,1/2+z
1/2+x,1/2+y,z
1/2-x,1/2+y,1/2-z
1/2-x,1/2-y,-z
1/2+x,1/2-y,1/2+z
loop_
_atom_site_type_symbol
_atom_site_label
_atom_site_fract_x
_atom_site_fract_y
_atom_site_fract_z
Si Si1 0.830304 0.780133 0.556544
Si Si2 0.240227 0.226309 0.857521
Si Si3 0.942616 0.089347 0.551939
Si Si4 0.000000 0.015324 0.750000
Si Si5 0.647865 0.914706 0.984415
Si Si6 0.839588 0.090816 0.241923
O O1 0.750000 0.750000 0.500000
O O2 0.871711 0.958822 0.540745
O O3 0.875979 0.612120 0.535423
O O4 0.822525 0.787053 0.657059
O O5 0.190345 0.344577 0.908666
O O6 0.295009 0.342370 0.813293
O O7 0.189226 0.101833 0.788962
O O8 0.292134 0.104258 0.927337
O O9 0.972665 0.107404 0.656248
O O10 0.916552 0.276452 0.513887
O O11 0.000000 0.000000 0.500000
O O12 0.071947 0.911009 0.733082
#
# Coordination Sequence:
#
# PCOD9292535 Si02
#       6
#     8   8   8   4   8   8
#     4  11  21  41  66  94 127 161 221 274 310 384
#     4  11  21  38  65  97 126 164 220 266 319 379
#     4  11  24  43  65  92 135 179 207 269 340 388
#     4  10  22  44  58  92 140 166 210 264 332 394
#     4  11  21  41  65  96 127 166 220 272 317 385
#     4  11  22  40  66  95 129 172 211 269 326 384
#
# _framework density 20.289449999999999
#
# number of rings (size 3 to 8) (size 9 to 14) (size 15 to 20)
#    0.000    1.091    5.455    3.273    0.000    2.182 
#    0.000    3.636    0.000    0.000    0.000    0.000 
#    0.000    0.000    0.000    0.000    0.000    0.000 
#
# Total GULP energy -122874.265726 kJ/mol
# GULP energy per Si atom -5585.193897 kJ/mol
# Density = 2.024327 g / cm^3
# Si number density = 20.289450 Si / 1000 Ang^3
#
#
#
# Elastic Constant Matrix: (Units=GPa)
#
#
# Indices 1 2 3 4 5 6 
#
# 1 102.8332 7.8290 24.0031 0.0000 -0.4997 0.0000
# 2 7.8290 80.3835 4.0771 0.0000 11.8322 0.0000
# 3 24.0031 4.0771 45.2779 0.0000 9.4302 0.0000
# 4 0.0000 0.0000 0.0000 17.1446 0.0000 -1.0997
# 5 -0.4997 11.8322 9.4302 0.0000 37.7218 0.0000
# 6 0.0000 0.0000 0.0000 -1.0997 0.0000 26.2796
#
#
#
# Elastic Compliance Matrix: (Units=1/GPa)
#
#
# Indices 1 2 3 4 5 6 
#
# 1 0.011292 -0.001084 -0.006320 0.000000 0.002069 0.000000
# 2 -0.001084 0.013152 0.000266 0.000000 -0.004206 0.000000
# 3 -0.006320 0.000266 0.026845 0.000000 -0.006878 0.000000
# 4 0.000000 0.000000 0.000000 0.058485 0.000000 0.002447
# 5 0.002069 -0.004206 -0.006878 0.000000 0.029576 0.000000
# 6 0.000000 0.000000 0.000000 0.002447 0.000000 0.038155
#
#
# Mechanical properties :
#
#
# Convention : Reuss Voigt Hill
#
# Bulk Modulus (GPa) = 27.01682 33.36810 30.19246
# Shear Modulus (GPa) = 24.49584 29.06822 26.78203
#
# Velocity S-wave (km/s) = 3.47842 3.78918 3.63712
# Velocity P-wave (km/s) = 5.42929 5.96872 5.70538
#
# Compressibility (1/GPa) = 0.03701398
#
# Stress axis : x y z
#
# Youngs Moduli (GPa) = 88.55672 76.03662 37.25132
#
# Poissons Ratio (x) = 0.08241 0.23542
# Poissons Ratio (y) = 0.09599 -0.00992
# Poissons Ratio (z) = 0.55965 -0.02025
#
# Static dielectric constant tensor:
#      x y z
#    x 1.730480 0.000000 0.013440 
#    y 0.000000 1.725390 0.000000 
#    z 0.013440 0.000000 1.739590 
# 
# From -- ./inp_files/159456.got.cif
#   From: 2010.05.17/outbox.cif.g08.bks.cpg/sg15_80_cif.got.tgz:159456.got - 2010.06.03 18:47:42.
