data_PCOD9292666
_publ_section_title
;
Structure prediction by ZEFSAII (Michael W. Deem and Ramdas Pophale) SiO2 
 PCOD9292666
Probable space group: C 2/C
;
_chemical_formula_sum "Si O2"
_cell_formula_units_Z 52
_cell_length_a 14.820526
_cell_length_b 14.532147
_cell_length_c 11.629364
_cell_angle_alpha 90.000000
_cell_angle_beta 77.828523
_cell_angle_gamma 90.000000
_cell_volume 2448.360978
_symmetry_space_group_name_H-M "C 2/C"
_symmetry_group_IT_number 15
_symmetry_cell_setting 'monoclinic'
loop_
_space_group_symop_operation_xyz
x,y,z
-x,y,1/2-z
-x,-y,-z
x,-y,1/2+z
1/2+x,1/2+y,z
1/2-x,1/2+y,1/2-z
1/2-x,1/2-y,-z
1/2+x,1/2-y,1/2+z
loop_
_atom_site_type_symbol
_atom_site_label
_atom_site_fract_x
_atom_site_fract_y
_atom_site_fract_z
Si Si1 0.545221 0.508754 0.363014
Si Si2 0.820354 0.425521 0.700948
Si Si3 0.263459 0.262331 0.631001
Si Si4 0.469819 0.272316 0.631572
Si Si5 0.000000 0.507485 0.750000
Si Si6 0.774755 0.891901 0.206579
Si Si7 0.622458 0.856864 0.058728
O O1 0.500000 0.481897 0.250000
O O2 0.500000 0.500000 0.500000
O O3 0.549889 0.619508 0.355305
O O4 0.635776 0.447033 0.355994
O O5 0.763222 0.360025 0.803736
O O6 0.779174 0.527877 0.711591
O O7 0.827524 0.388231 0.570756
O O8 0.923016 0.441866 0.717916
O O9 0.250000 0.250000 0.500000
O O10 0.370309 0.234106 0.624224
O O11 0.200456 0.189732 0.714850
O O12 0.500000 0.242531 0.750000
O O13 0.559034 0.231831 0.542342
O O14 0.051374 0.569170 0.637263
O O15 0.706014 0.849948 0.128593
#
# Coordination Sequence:
#
# PCOD9292666 Si02
#       7
#     8   8   8   8   4   8   8
#     4  11  28  46  73 100 152 195 245 298 376 442
#     4  11  26  42  72 107 141 192 241 307 368 443
#     4  12  28  45  72 106 154 189 240 311 379 435
#     4  11  22  48  70 105 137 192 240 305 358 433
#     4  10  22  44  66 110 142 184 234 314 372 422
#     4  11  26  48  73 108 141 190 251 306 373 436
#     4  11  23  43  80 101 141 184 257 301 365 436
#
# _framework density 21.238697999999999
#
# number of rings (size 3 to 8) (size 9 to 14) (size 15 to 20)
#    0.000    0.923    3.846    1.385   12.923    0.615 
#    1.385    0.000    0.000    0.000    0.000    0.000 
#    0.000    0.000    0.000    0.000    0.000    0.000 
#
# Total GULP energy -144892.583618 kJ/mol
# GULP energy per Si atom -5572.791678 kJ/mol
# Density = 2.119036 g / cm^3
# Si number density = 21.238698 Si / 1000 Ang^3
#
#
#
# Elastic Constant Matrix: (Units=GPa)
#
#
# Indices 1 2 3 4 5 6 
#
# 1 119.2254 20.0992 47.2927 0.0000 0.5068 0.0000
# 2 20.0992 80.6147 12.2328 0.0000 11.1170 0.0000
# 3 47.2927 12.2328 112.5420 0.0000 19.0187 0.0000
# 4 0.0000 0.0000 0.0000 4.9477 0.0000 1.5116
# 5 0.5068 11.1170 19.0187 0.0000 15.0331 0.0000
# 6 0.0000 0.0000 0.0000 1.5116 0.0000 6.6072
#
#
#
# Elastic Compliance Matrix: (Units=1/GPa)
#
#
# Indices 1 2 3 4 5 6 
#
# 1 0.011275 -0.003224 -0.006011 0.000000 0.009609 0.000000
# 2 -0.003224 0.014742 0.002005 0.000000 -0.013330 0.000000
# 3 -0.006011 0.002005 0.014513 0.000000 -0.019640 0.000000
# 4 0.000000 0.000000 0.000000 0.217301 0.000000 -0.049716
# 5 0.009609 -0.013330 -0.019640 0.000000 0.100901 0.000000
# 6 0.000000 0.000000 0.000000 -0.049716 0.000000 0.162724
#
#
# Mechanical properties :
#
#
# Convention : Reuss Voigt Hill
#
# Bulk Modulus (GPa) = 38.35913 52.40350 45.38131
# Shear Modulus (GPa) = 9.18094 20.83478 15.00786
#
# Velocity S-wave (km/s) = 2.08138 3.13546 2.66113
# Velocity P-wave (km/s) = 4.88634 6.15104 5.55480
#
# Compressibility (1/GPa) = 0.02606941
#
# Stress axis : x y z
#
# Youngs Moduli (GPa) = 88.69497 67.83117 68.90474
#
# Poissons Ratio (x) = 0.21869 0.41420
# Poissons Ratio (y) = 0.28595 -0.13815
# Poissons Ratio (z) = 0.53317 -0.13600
#
# Static dielectric constant tensor:
#      x y z
#    x 1.860460 0.000000 -0.053470 
#    y 0.000000 1.637030 0.000000 
#    z -0.053470 0.000000 1.941920 
# 
# From -- ./inp_files/96949.got.cif
#   From: 2010.05.17/outbox.cif.g08.bks.cpg/sg15_49_cif.got.tgz:96949.got - 2010.06.03 18:47:42.
