data_PCOD9292286
_publ_section_title
;
Structure prediction by ZEFSAII (Michael W. Deem and Ramdas Pophale) SiO2 
 PCOD9292286
Probable space group: C 2/C
;
_chemical_formula_sum "Si O2"
_cell_formula_units_Z 44
_cell_length_a 9.271641
_cell_length_b 17.683565
_cell_length_c 11.994710
_cell_angle_alpha 90.000000
_cell_angle_beta 78.759638
_cell_angle_gamma 90.000000
_cell_volume 1928.877500
_symmetry_space_group_name_H-M "C 2/C"
_symmetry_group_IT_number 15
_symmetry_cell_setting 'monoclinic'
loop_
_space_group_symop_operation_xyz
x,y,z
-x,y,1/2-z
-x,-y,-z
x,-y,1/2+z
1/2+x,1/2+y,z
1/2-x,1/2+y,1/2-z
1/2-x,1/2-y,-z
1/2+x,1/2-y,1/2+z
loop_
_atom_site_type_symbol
_atom_site_label
_atom_site_fract_x
_atom_site_fract_y
_atom_site_fract_z
Si Si1 0.789485 0.885939 0.185500
Si Si2 0.164731 0.950705 0.746647
Si Si3 0.000000 0.764923 0.250000
Si Si4 0.239849 0.831309 0.903562
Si Si5 0.878220 0.430768 0.509040
Si Si6 0.892225 0.315262 0.101310
O O1 0.912417 0.820297 0.177178
O O2 0.734658 0.921908 0.077680
O O3 0.652544 0.850360 0.274294
O O4 0.839363 0.959326 0.245487
O O5 0.219618 0.911773 0.851558
O O6 0.281381 0.930415 0.634060
O O7 0.000000 0.922901 0.750000
O O8 0.880499 0.711138 0.327483
O O9 0.106071 0.774941 0.894799
O O10 0.262322 0.834648 0.032138
O O11 0.000000 0.500000 0.500000
O O12 0.971566 0.355100 0.475823
#
# Coordination Sequence:
#
# PCOD9292286 Si02
#       6
#     8   8   4   8   8   8
#     4  11  24  43  71 103 143 184 246 293 364 434
#     4  12  27  44  68 107 143 187 246 306 363 429
#     4  10  22  46  70 102 144 204 232 302 368 444
#     4  10  23  43  71  99 150 186 241 295 375 432
#     4  12  25  42  72 105 142 187 241 303 364 432
#     4  10  22  43  69 103 134 192 232 290 361 440
#
# _framework density 22.811195999999999
#
# number of rings (size 3 to 8) (size 9 to 14) (size 15 to 20)
#    0.000    1.091    2.727    2.727    0.000    9.455 
#    0.000    5.455    0.000    0.000    0.000    0.000 
#    0.000    0.000    0.000    0.000    0.000    0.000 
#
# Total GULP energy -122864.349632 kJ/mol
# GULP energy per Si atom -5584.743165 kJ/mol
# Density = 2.275928 g / cm^3
# Si number density = 22.811196 Si / 1000 Ang^3
#
#
#
# Elastic Constant Matrix: (Units=GPa)
#
#
# Indices 1 2 3 4 5 6 
#
# 1 81.6018 16.8679 -13.7844 0.0000 -11.9362 0.0000
# 2 16.8679 85.6425 -11.2552 0.0000 -4.3170 0.0000
# 3 -13.7844 -11.2552 25.8870 0.0000 7.3634 0.0000
# 4 0.0000 0.0000 0.0000 26.5814 0.0000 10.7187
# 5 -11.9362 -4.3170 7.3634 0.0000 35.4273 0.0000
# 6 0.0000 0.0000 0.0000 10.7187 0.0000 19.3139
#
#
#
# Elastic Compliance Matrix: (Units=1/GPa)
#
#
# Indices 1 2 3 4 5 6 
#
# 1 0.014096 -0.001852 0.005754 0.000000 0.003328 0.000000
# 2 -0.001852 0.012633 0.004513 0.000000 -0.000023 0.000000
# 3 0.005754 0.004513 0.045646 0.000000 -0.006999 0.000000
# 4 0.000000 0.000000 0.000000 0.048467 0.000000 -0.026898
# 5 0.003328 -0.000023 -0.006999 0.000000 0.030800 0.000000
# 6 0.000000 0.000000 0.000000 -0.026898 0.000000 0.066704
#
#
# Mechanical properties :
#
#
# Convention : Reuss Voigt Hill
#
# Bulk Modulus (GPa) = 11.21015 19.64309 15.42662
# Shear Modulus (GPa) = 21.62144 29.68470 25.65307
#
# Velocity S-wave (km/s) = 3.08205 3.61130 3.35712
# Velocity P-wave (km/s) = 4.19408 5.10083 4.66952
#
# Compressibility (1/GPa) = 0.08920487
#
# Stress axis : x y z
#
# Youngs Moduli (GPa) = 70.94069 79.15631 21.90755
#
# Poissons Ratio (x) = 0.14663 -0.12606
# Poissons Ratio (y) = 0.13141 -0.09886
# Poissons Ratio (z) = -0.40820 -0.35722
#
# Static dielectric constant tensor:
#      x y z
#    x 1.946690 0.000000 0.044480 
#    y 0.000000 1.823590 0.000000 
#    z 0.044480 0.000000 1.827150 
# 
# From -- ./inp_files/78182.got.cif
#   From: 2010.05.17/outbox.cif.g08.bks.cpg/sg15_40_cif.got.tgz:78182.got - 2010.06.03 18:47:42.
