data_PCOD9292858
_publ_section_title
;
Structure prediction by ZEFSAII (Michael W. Deem and Ramdas Pophale) SiO2 
 PCOD9292858
Probable space group: C 2/C
;
_chemical_formula_sum "Si O2"
_cell_formula_units_Z 36
_cell_length_a 8.249696
_cell_length_b 11.529458
_cell_length_c 17.461441
_cell_angle_alpha 90.000000
_cell_angle_beta 48.536416
_cell_angle_gamma 90.000000
_cell_volume 1244.592309
_symmetry_space_group_name_H-M "C 2/C"
_symmetry_group_IT_number 15
_symmetry_cell_setting 'monoclinic'
loop_
_space_group_symop_operation_xyz
x,y,z
-x,y,1/2-z
-x,-y,-z
x,-y,1/2+z
1/2+x,1/2+y,z
1/2-x,1/2+y,1/2-z
1/2-x,1/2-y,-z
1/2+x,1/2-y,1/2+z
loop_
_atom_site_type_symbol
_atom_site_label
_atom_site_fract_x
_atom_site_fract_y
_atom_site_fract_z
Si Si1 0.492990 0.362042 0.020410
Si Si2 0.038884 0.560838 0.653054
Si Si3 0.244594 0.254931 0.701615
Si Si4 0.232100 0.452723 0.455447
Si Si5 0.500000 0.605930 0.250000
O O1 0.604245 0.292029 0.918019
O O2 0.595284 0.351590 0.073172
O O3 0.500000 0.500000 0.000000
O O4 0.232916 0.343219 0.096356
O O5 0.133193 0.458822 0.573700
O O6 0.000000 0.519315 0.750000
O O7 0.825215 0.622490 0.688968
O O8 0.324012 0.322470 0.753289
O O9 0.000000 0.263426 0.750000
O O10 0.383510 0.534026 0.354964
O O11 0.000000 0.500000 0.500000
#
# Coordination Sequence:
#
# PCOD9292858 Si02
#       5
#     8   8   8   8   4
#     4  10  22  44  69 100 141 190 230 295 361 420
#     4  11  25  44  71 101 145 189 239 295 360 428
#     4  12  25  45  75 106 144 194 239 300 367 430
#     4  11  26  44  72 108 142 191 241 301 357 438
#     4  12  24  46  72 106 150 182 244 296 370 420
#
# _framework density 28.925135000000001
#
# number of rings (size 3 to 8) (size 9 to 14) (size 15 to 20)
#    0.000    0.889    5.556    2.000    3.111    5.333 
#    0.000    3.333    0.000    0.000    0.000    0.000 
#    0.000    0.000    0.000    0.000    0.000    0.000 
#
# Total GULP energy -100239.322778 kJ/mol
# GULP energy per Si atom -5568.851265 kJ/mol
# Density = 2.885930 g / cm^3
# Si number density = 28.925135 Si / 1000 Ang^3
#
#
#
# Elastic Constant Matrix: (Units=GPa)
#
#
# Indices 1 2 3 4 5 6 
#
# 1 200.5531 20.8989 22.1499 0.0000 -39.8765 0.0000
# 2 20.8989 62.2819 17.8434 0.0000 5.2692 0.0000
# 3 22.1499 17.8434 164.4847 -0.0001 -10.3246 0.0000
# 4 0.0000 0.0000 -0.0001 42.0136 0.0001 3.9645
# 5 -39.8765 5.2692 -10.3246 0.0001 67.2943 0.0000
# 6 0.0000 0.0000 0.0000 3.9645 0.0000 28.0004
#
#
#
# Elastic Compliance Matrix: (Units=1/GPa)
#
#
# Indices 1 2 3 4 5 6 
#
# 1 0.005984 -0.002223 -0.000334 0.000000 0.003669 0.000000
# 2 -0.002223 0.017566 -0.001793 0.000000 -0.002968 0.000000
# 3 -0.000334 -0.001793 0.006377 0.000000 0.000921 0.000000
# 4 0.000000 0.000000 0.000000 0.024124 0.000000 -0.003416
# 5 0.003669 -0.002968 0.000921 0.000000 0.017408 0.000000
# 6 0.000000 0.000000 0.000000 -0.003416 0.000000 0.036197
#
#
# Mechanical properties :
#
#
# Convention : Reuss Voigt Hill
#
# Bulk Modulus (GPa) = 47.10698 61.01155 54.05926
# Shear Modulus (GPa) = 40.50808 51.89017 46.19913
#
# Velocity S-wave (km/s) = 3.74631 4.24010 4.00083
# Velocity P-wave (km/s) = 5.91898 6.71639 6.33026
#
# Compressibility (1/GPa) = 0.02122828
#
# Stress axis : x y z
#
# Youngs Moduli (GPa) = 167.10582 56.92672 156.81661
#
# Poissons Ratio (x) = 0.12653 0.05245
# Poissons Ratio (y) = 0.37141 0.28111
# Poissons Ratio (z) = 0.05589 0.10205
#
# Static dielectric constant tensor:
#      x y z
#    x 3.010470 0.000000 -0.100000 
#    y 0.000000 2.335300 0.000000 
#    z -0.100000 0.000000 2.388960 
# 
# From -- ./inp_files/190139.got.cif
#   From: 2010.05.17/outbox.cif.g08.bks.cpg/sg15_96_cif.got.tgz:190139.got - 2010.06.03 18:47:42.
