data_PCOD9292304
_publ_section_title
;
Structure prediction by ZEFSAII (Michael W. Deem and Ramdas Pophale) SiO2 
 PCOD9292304
Probable space group: C 2/C
;
_chemical_formula_sum "Si O2"
_cell_formula_units_Z 52
_cell_length_a 12.155224
_cell_length_b 18.781563
_cell_length_c 12.161714
_cell_angle_alpha 90.000000
_cell_angle_beta 64.928270
_cell_angle_gamma 90.000000
_cell_volume 2514.845144
_symmetry_space_group_name_H-M "C 2/C"
_symmetry_group_IT_number 15
_symmetry_cell_setting 'monoclinic'
loop_
_space_group_symop_operation_xyz
x,y,z
-x,y,1/2-z
-x,-y,-z
x,-y,1/2+z
1/2+x,1/2+y,z
1/2-x,1/2+y,1/2-z
1/2-x,1/2-y,-z
1/2+x,1/2-y,1/2+z
loop_
_atom_site_type_symbol
_atom_site_label
_atom_site_fract_x
_atom_site_fract_y
_atom_site_fract_z
Si Si1 0.114866 0.792976 0.390721
Si Si2 0.638789 0.024463 0.226595
Si Si3 0.844830 0.639372 0.094377
Si Si4 0.376433 0.485117 0.481406
Si Si5 0.096725 0.862143 0.617352
Si Si6 0.126605 0.362940 0.169923
Si Si7 0.500000 0.387528 0.250000
O O1 0.090446 0.709356 0.384594
O O2 0.051584 0.817602 0.532209
O O3 0.253404 0.818308 0.355433
O O4 0.070035 0.838616 0.307236
O O5 0.500000 0.043333 0.250000
O O6 0.657703 0.070392 0.328397
O O7 0.637390 0.938120 0.230237
O O8 0.757506 0.040765 0.099080
O O9 0.710333 0.670764 0.131120
O O10 0.889172 0.621835 0.953352
O O11 0.500000 0.500000 0.500000
O O12 0.349921 0.563966 0.450431
O O13 0.412543 0.436101 0.363013
O O14 0.000000 0.878833 0.750000
O O15 0.000000 0.324535 0.250000
#
# Coordination Sequence:
#
# PCOD9292304 Si02
#       7
#     8   8   8   8   8   8   4
#     4  11  25  43  64 101 138 179 222 279 356 411
#     4  11  25  42  67 100 137 179 233 280 351 408
#     4  11  25  42  65  94 139 178 223 286 336 422
#     4  12  22  42  69 104 134 176 235 289 343 409
#     4  11  21  40  73 101 130 176 234 290 337 407
#     4  10  22  43  69  94 125 174 235 280 331 401
#     4  12  26  40  70 100 148 172 226 296 352 422
#
# _framework density 20.677216999999999
#
# number of rings (size 3 to 8) (size 9 to 14) (size 15 to 20)
#    0.000    0.923    5.385    2.769    3.231    6.154 
#    0.000    0.769    0.000    0.000    0.000    0.000 
#    0.000    0.000    0.000    0.000    0.000    0.000 
#
# Total GULP energy -144948.060029 kJ/mol
# GULP energy per Si atom -5574.925386 kJ/mol
# Density = 2.063015 g / cm^3
# Si number density = 20.677217 Si / 1000 Ang^3
#
#
#
# Elastic Constant Matrix: (Units=GPa)
#
#
# Indices 1 2 3 4 5 6 
#
# 1 81.0788 14.4129 47.7477 0.0000 -3.6896 0.0000
# 2 14.4129 117.0276 28.1908 0.0000 16.7663 0.0000
# 3 47.7477 28.1908 109.2935 0.0000 -15.9365 0.0000
# 4 0.0000 0.0000 0.0000 -2.4587 0.0000 2.5951
# 5 -3.6896 16.7663 -15.9365 0.0000 32.3059 0.0000
# 6 0.0000 0.0000 0.0000 2.5951 0.0000 17.1293
#
#
#
# Elastic Compliance Matrix: (Units=1/GPa)
#
#
# Indices 1 2 3 4 5 6 
#
# 1 0.016705 0.000032 -0.007575 0.000000 -0.001846 0.000000
# 2 0.000032 0.010502 -0.003790 0.000000 -0.007316 0.000000
# 3 -0.007575 -0.003790 0.014651 0.000000 0.008329 0.000000
# 4 0.000000 0.000000 0.000000 -0.350648 0.000000 0.053124
# 5 -0.001846 -0.007316 0.008329 0.000000 0.038649 0.000000
# 6 0.000000 0.000000 0.000000 0.053124 0.000000 0.050331
#
#
# Mechanical properties :
#
#
# Convention : Reuss Voigt Hill
#
# Bulk Modulus (GPa) = 52.10462 54.23365 53.16913
# Shear Modulus (GPa) = -26.21296 23.86519 -1.17388
#
# Velocity S-wave (km/s) = -3.56437 3.40101 -0.75429
# Velocity P-wave (km/s) = 2.88342 6.45818 5.00111
#
# Compressibility (1/GPa) = 0.01919216
#
# Stress axis : x y z
#
# Youngs Moduli (GPa) = 59.86134 95.21870 68.25383
#
# Poissons Ratio (x) = -0.00304 0.51706
# Poissons Ratio (y) = -0.00191 0.25866
# Poissons Ratio (z) = 0.45348 0.36084
#
# Static dielectric constant tensor:
#      x y z
#    x 1.871970 0.000000 -0.053910 
#    y 0.000000 1.760170 0.000000 
#    z -0.053910 0.000000 1.766300 
# 
# From -- ./inp_files/88841.got.cif
#   From: 2010.05.17/outbox.cif.g08.bks.cpg/sg15_45_cif.got.tgz:88841.got - 2010.06.03 18:47:42.
