data_PCOD9292869
_publ_section_title
;
Structure prediction by ZEFSAII (Michael W. Deem and Ramdas Pophale) SiO2 
 PCOD9292869
Probable space group: C 2/C
;
_chemical_formula_sum "Si O2"
_cell_formula_units_Z 44
_cell_length_a 17.104146
_cell_length_b 4.988715
_cell_length_c 24.058269
_cell_angle_alpha 90.000000
_cell_angle_beta 126.463275
_cell_angle_gamma 90.000000
_cell_volume 1650.969436
_symmetry_space_group_name_H-M "C 2/C"
_symmetry_group_IT_number 15
_symmetry_cell_setting 'monoclinic'
loop_
_space_group_symop_operation_xyz
x,y,z
-x,y,1/2-z
-x,-y,-z
x,-y,1/2+z
1/2+x,1/2+y,z
1/2-x,1/2+y,1/2-z
1/2-x,1/2-y,-z
1/2+x,1/2-y,1/2+z
loop_
_atom_site_type_symbol
_atom_site_label
_atom_site_fract_x
_atom_site_fract_y
_atom_site_fract_z
Si Si1 0.000000 0.376784 0.250000
Si Si2 0.720441 0.231479 0.724929
Si Si3 0.800692 0.500527 0.548882
Si Si4 0.558613 0.251158 0.048984
Si Si5 0.020875 0.522529 0.139744
Si Si6 0.217367 0.301140 0.340302
O O1 0.019525 0.559429 0.204672
O O2 0.101457 0.212598 0.297918
O O3 0.770607 0.957784 0.717849
O O4 0.607394 0.187403 0.665196
O O5 0.734713 0.996479 0.791066
O O6 0.750000 0.250000 0.500000
O O7 0.793314 0.477812 0.612174
O O8 0.912328 0.546636 0.579534
O O9 0.750000 0.750000 0.500000
O O10 0.548198 0.264144 0.111667
O O11 0.674321 0.208754 0.091918
O O12 0.500000 0.500000 0.000000
O O13 0.500000 0.000000 0.000000
#
# Coordination Sequence:
#
# PCOD9292869 Si02
#       6
#     4   8   8   8   8   8
#     4   8  20  44  76 102 142 198 236 314 356 428
#     4  11  24  41  68  99 135 176 222 301 348 403
#     4  11  24  43  68  95 138 187 230 284 344 431
#     4  12  26  42  70 106 146 190 232 298 358 430
#     4  10  22  44  69 104 140 183 246 287 364 422
#     4  10  22  44  69 104 140 183 246 287 364 422
#
# _framework density 26.651008999999998
#
# number of rings (size 3 to 8) (size 9 to 14) (size 15 to 20)
#    0.000    1.455    1.818    2.182    2.545    2.909 
#    0.000    0.000    0.000   19.636    0.000    0.000 
#    0.000    0.000    0.000    0.000    0.000    0.000 
#
# Total GULP energy -122580.764814 kJ/mol
# GULP energy per Si atom -5571.852946 kJ/mol
# Density = 2.659035 g / cm^3
# Si number density = 26.651009 Si / 1000 Ang^3
#
#
#
# Elastic Constant Matrix: (Units=GPa)
#
#
# Indices 1 2 3 4 5 6 
#
# 1 193.7177 42.6338 86.1788 -0.0002 40.5757 0.0004
# 2 42.6338 223.4383 70.1821 -0.0011 35.1458 0.0021
# 3 86.1788 70.1821 142.0313 -0.0001 58.9501 0.0000
# 4 -0.0002 -0.0011 -0.0001 35.8051 0.0000 3.3691
# 5 40.5757 35.1458 58.9501 0.0000 82.8387 -0.0001
# 6 0.0004 0.0021 0.0000 3.3691 -0.0001 22.4865
#
#
#
# Elastic Compliance Matrix: (Units=1/GPa)
#
#
# Indices 1 2 3 4 5 6 
#
# 1 0.007091 0.000017 -0.004068 0.000000 -0.000586 0.000000
# 2 0.000017 0.005315 -0.002409 0.000000 -0.000549 -0.000001
# 3 -0.004068 -0.002409 0.013408 0.000000 -0.006527 0.000000
# 4 0.000000 0.000000 0.000000 0.028328 0.000000 -0.004244
# 5 -0.000586 -0.000549 -0.006527 0.000000 0.017236 0.000000
# 6 0.000000 -0.000001 0.000000 -0.004244 0.000000 0.045107
#
#
# Mechanical properties :
#
#
# Convention : Reuss Voigt Hill
#
# Bulk Modulus (GPa) = 77.54851 106.35297 91.95074
# Shear Modulus (GPa) = 37.39633 52.23891 44.81762
#
# Velocity S-wave (km/s) = 3.74998 4.43212 4.10524
# Velocity P-wave (km/s) = 6.92176 8.13535 7.55297
#
# Compressibility (1/GPa) = 0.01289515
#
# Stress axis : x y z
#
# Youngs Moduli (GPa) = 141.03102 188.13750 74.58226
#
# Poissons Ratio (x) = -0.00316 0.30336
# Poissons Ratio (y) = -0.00237 0.17964
# Poissons Ratio (z) = 0.57365 0.45316
#
# Static dielectric constant tensor:
#      x y z
#    x 2.250810 0.000000 -0.333000 
#    y 0.000000 2.319370 0.000000 
#    z -0.333000 0.000000 1.861430 
# 
# From -- ./inp_files/297869.got.cif
#   From: 2010.05.17/outbox.cif.g08.bks.cpg/sg15_149_cif.got.tgz:297869.got - 2010.06.03 18:47:42.
