data_PCOD9292140
_publ_section_title
;
Structure prediction by ZEFSAII (Michael W. Deem and Ramdas Pophale) SiO2 
 PCOD9292140
Probable space group: C 2/C
;
_chemical_formula_sum "Si O2"
_cell_formula_units_Z 32
_cell_length_a 17.782947
_cell_length_b 9.308678
_cell_length_c 14.072722
_cell_angle_alpha 90.000000
_cell_angle_beta 30.228277
_cell_angle_gamma 90.000000
_cell_volume 1172.797723
_symmetry_space_group_name_H-M "C 2/C"
_symmetry_group_IT_number 15
_symmetry_cell_setting 'monoclinic'
loop_
_space_group_symop_operation_xyz
x,y,z
-x,y,1/2-z
-x,-y,-z
x,-y,1/2+z
1/2+x,1/2+y,z
1/2-x,1/2+y,1/2-z
1/2-x,1/2-y,-z
1/2+x,1/2-y,1/2+z
loop_
_atom_site_type_symbol
_atom_site_label
_atom_site_fract_x
_atom_site_fract_y
_atom_site_fract_z
Si Si1 0.696652 0.350339 0.425922
Si Si2 0.831295 0.467951 0.460898
Si Si3 0.262083 0.255967 0.600153
Si Si4 0.016969 0.766404 0.991391
O O1 0.727034 0.455194 0.481032
O O2 0.560619 0.369819 0.501031
O O3 0.855909 0.324061 0.200764
O O4 0.660105 0.192417 0.508641
O O5 0.771106 0.581198 0.602881
O O6 0.000000 0.513513 0.250000
O O7 0.250000 0.250000 0.500000
O O8 0.123108 0.317001 0.810349
O O9 0.403833 0.320352 0.498855
#
# Coordination Sequence:
#
# PCOD9292140 Si02
#       4
#     8   8   8   8
#     4  10  22  43  67 101 127 169 222 276 329 391
#     4  11  22  41  70  95 135 173 215 270 343 393
#     4  11  24  45  65  93 133 179 218 268 336 397
#     4  10  22  45  65  94 134 169 226 268 322 401
#
# _framework density 27.285183
#
# number of rings (size 3 to 8) (size 9 to 14) (size 15 to 20)
#    0.000    1.500    2.500    2.250    0.000    2.000 
#   27.000    0.000    0.000    0.000    0.000    0.000 
#    0.000    0.000    0.000    0.000    0.000    0.000 
#
# Total GULP energy -89483.158051 kJ/mol
# GULP energy per Si atom -5592.697378 kJ/mol
# Density = 2.722308 g / cm^3
# Si number density = 27.285183 Si / 1000 Ang^3
#
#
#
# Elastic Constant Matrix: (Units=GPa)
#
#
# Indices 1 2 3 4 5 6 
#
# 1 281.3094 59.1116 27.9167 0.0000 -29.9941 0.0000
# 2 59.1116 98.0689 9.4897 0.0000 1.3011 0.0000
# 3 27.9167 9.4897 110.2730 0.0000 -11.8162 0.0000
# 4 0.0000 0.0000 0.0000 5.6882 0.0000 8.1658
# 5 -29.9941 1.3011 -11.8162 0.0000 49.2358 0.0000
# 6 0.0000 0.0000 0.0000 8.1658 0.0000 54.2491
#
#
#
# Elastic Compliance Matrix: (Units=1/GPa)
#
#
# Indices 1 2 3 4 5 6 
#
# 1 0.004456 -0.002661 -0.000617 0.000000 0.002637 0.000000
# 2 -0.002661 0.011884 -0.000571 0.000000 -0.002072 0.000000
# 3 -0.000617 -0.000571 0.009479 0.000000 0.001914 0.000000
# 4 0.000000 0.000000 0.000000 0.224264 0.000000 -0.033757
# 5 0.002637 -0.002072 0.001914 0.000000 0.022431 0.000000
# 6 0.000000 0.000000 0.000000 -0.033757 0.000000 0.023515
#
#
# Mechanical properties :
#
#
# Convention : Reuss Voigt Hill
#
# Bulk Modulus (GPa) = 55.18449 75.85417 65.51933
# Shear Modulus (GPa) = 16.14113 48.04348 32.09231
#
# Velocity S-wave (km/s) = 2.43486 4.20073 3.43327
# Velocity P-wave (km/s) = 5.30789 7.16861 6.30725
#
# Compressibility (1/GPa) = 0.01812103
#
# Stress axis : x y z
#
# Youngs Moduli (GPa) = 224.39477 84.14767 105.49908
#
# Poissons Ratio (x) = 0.22396 0.06505
# Poissons Ratio (y) = 0.59722 0.06024
# Poissons Ratio (z) = 0.13836 0.04805
#
# Static dielectric constant tensor:
#      x y z
#    x 2.199800 0.000000 -0.040970 
#    y 0.000000 2.195220 0.000000 
#    z -0.040970 0.000000 2.111600 
# 
# From -- ./inp_files/45960.got.cif
#   From: 2010.05.17/outbox.cif.g08.bks.cpg/sg15_23_cif.got.tgz:45960.got - 2010.06.03 18:47:42.
