data_PCOD9292480
_publ_section_title
;
Structure prediction by ZEFSAII (Michael W. Deem and Ramdas Pophale) SiO2 
 PCOD9292480
Probable space group: C 2/C
;
_chemical_formula_sum "Si O2"
_cell_formula_units_Z 40
_cell_length_a 21.349707
_cell_length_b 4.985051
_cell_length_c 14.233750
_cell_angle_alpha 90.000000
_cell_angle_beta 106.199331
_cell_angle_gamma 90.000000
_cell_volume 1454.743432
_symmetry_space_group_name_H-M "C 2/C"
_symmetry_group_IT_number 15
_symmetry_cell_setting 'monoclinic'
loop_
_space_group_symop_operation_xyz
x,y,z
-x,y,1/2-z
-x,-y,-z
x,-y,1/2+z
1/2+x,1/2+y,z
1/2-x,1/2+y,1/2-z
1/2-x,1/2-y,-z
1/2+x,1/2-y,1/2+z
loop_
_atom_site_type_symbol
_atom_site_label
_atom_site_fract_x
_atom_site_fract_y
_atom_site_fract_z
Si Si1 0.136211 0.966815 0.261794
Si Si2 0.449154 0.503943 0.108444
Si Si3 0.066435 0.252320 0.083778
Si Si4 0.292818 0.018573 0.631199
Si Si5 0.161456 0.677575 0.044583
O O1 0.075039 0.888051 0.303417
O O2 0.109082 0.009507 0.146318
O O3 0.159226 0.261684 0.302804
O O4 0.193138 0.757515 0.309126
O O5 0.505173 0.730277 0.129102
O O6 0.465324 0.290374 0.032959
O O7 0.385111 0.633779 0.036123
O O8 0.117782 0.488856 0.092325
O O9 0.222351 0.154315 0.608471
O O10 0.308260 0.987089 0.526569
#
# Coordination Sequence:
#
# PCOD9292480 Si02
#       5
#     8   8   8   8   8
#     4  11  24  46  69 109 146 199 242 311 387 449
#     4  10  23  43  69 103 152 193 250 307 383 461
#     4  11  23  42  71 108 147 194 251 314 376 468
#     4  10  24  44  74 100 148 191 253 314 375 452
#     4  10  22  43  73 102 144 199 255 313 387 451
#
# _framework density 27.496259999999999
#
# number of rings (size 3 to 8) (size 9 to 14) (size 15 to 20)
#    0.000    1.600    2.000    1.200    5.600    2.400 
#    3.600    2.000    0.000    0.000    0.000    0.000 
#    0.000    0.000    0.000    0.000    0.000    0.000 
#
# Total GULP energy -111918.472847 kJ/mol
# GULP energy per Si atom -5595.923642 kJ/mol
# Density = 2.743368 g / cm^3
# Si number density = 27.496260 Si / 1000 Ang^3
#
#
#
# Elastic Constant Matrix: (Units=GPa)
#
#
# Indices 1 2 3 4 5 6 
#
# 1 108.2532 6.4638 15.1528 0.0000 8.4397 0.0000
# 2 6.4638 125.4139 35.9900 0.0000 0.5894 0.0000
# 3 15.1528 35.9900 101.2360 0.0000 -0.9553 0.0000
# 4 0.0000 0.0000 0.0000 20.1622 0.0000 4.1033
# 5 8.4397 0.5894 -0.9553 0.0000 28.3803 0.0000
# 6 0.0000 0.0000 0.0000 4.1033 0.0000 47.6767
#
#
#
# Elastic Compliance Matrix: (Units=1/GPa)
#
#
# Indices 1 2 3 4 5 6 
#
# 1 0.009673 -0.000068 -0.001451 0.000000 -0.002924 0.000000
# 2 -0.000068 0.008882 -0.003150 0.000000 -0.000270 0.000000
# 3 -0.001451 -0.003150 0.011223 0.000000 0.000875 0.000000
# 4 0.000000 0.000000 0.000000 0.050482 0.000000 -0.004345
# 5 -0.002924 -0.000270 0.000875 0.000000 0.036140 0.000000
# 6 0.000000 0.000000 0.000000 -0.004345 0.000000 0.021349
#
#
# Mechanical properties :
#
#
# Convention : Reuss Voigt Hill
#
# Bulk Modulus (GPa) = 48.92530 50.01294 49.46912
# Shear Modulus (GPa) = 32.48837 37.73028 35.10933
#
# Velocity S-wave (km/s) = 3.44111 3.70834 3.57722
# Velocity P-wave (km/s) = 5.79831 6.04683 5.92387
#
# Compressibility (1/GPa) = 0.02043932
#
# Stress axis : x y z
#
# Youngs Moduli (GPa) = 103.38316 112.58267 89.10101
#
# Poissons Ratio (x) = 0.00770 0.12929
# Poissons Ratio (y) = 0.00707 0.28067
# Poissons Ratio (z) = 0.15002 0.35464
#
# Static dielectric constant tensor:
#      x y z
#    x 2.183130 0.000000 -0.088060 
#    y 0.000000 2.190260 0.000000 
#    z -0.088060 0.000000 2.173960 
# 
# From -- ./inp_files/170931.got.cif
#   From: 2010.05.17/outbox.cif.g08.bks.cpg/sg15_86_cif.got.tgz:170931.got - 2010.06.03 18:47:42.
