data_PCOD9292453
_publ_section_title
;
Structure prediction by ZEFSAII (Michael W. Deem and Ramdas Pophale) SiO2 
 PCOD9292453
Probable space group: C 2/C
;
_chemical_formula_sum "Si O2"
_cell_formula_units_Z 40
_cell_length_a 14.551287
_cell_length_b 14.312212
_cell_length_c 10.215936
_cell_angle_alpha 90.000000
_cell_angle_beta 63.288832
_cell_angle_gamma 90.000000
_cell_volume 1900.534616
_symmetry_space_group_name_H-M "C 2/C"
_symmetry_group_IT_number 15
_symmetry_cell_setting 'monoclinic'
loop_
_space_group_symop_operation_xyz
x,y,z
-x,y,1/2-z
-x,-y,-z
x,-y,1/2+z
1/2+x,1/2+y,z
1/2-x,1/2+y,1/2-z
1/2-x,1/2-y,-z
1/2+x,1/2-y,1/2+z
loop_
_atom_site_type_symbol
_atom_site_label
_atom_site_fract_x
_atom_site_fract_y
_atom_site_fract_z
Si Si1 0.607130 0.175695 0.120134
Si Si2 0.074153 0.008145 0.576587
Si Si3 0.320020 0.685902 0.107847
Si Si4 0.228600 0.852755 0.570368
Si Si5 0.065705 0.467585 0.084808
O O1 0.500000 0.204763 0.250000
O O2 0.701997 0.207545 0.147632
O O3 0.610851 0.064588 0.111054
O O4 0.617794 0.221867 0.971196
O O5 0.153186 0.920998 0.536975
O O6 0.000000 0.013421 0.750000
O O7 0.139311 0.102681 0.510885
O O8 0.000000 0.000000 0.500000
O O9 0.324686 0.657454 0.254368
O O10 0.250000 0.750000 0.500000
O O11 0.339693 0.902104 0.514002
O O12 0.000000 0.428129 0.250000
O O13 0.000000 0.500000 0.000000
#
# Coordination Sequence:
#
# PCOD9292453 Si02
#       5
#     8   8   8   8   8
#     4  10  22  43  72 104 137 184 234 290 356 432
#     4  12  26  47  74 102 145 191 243 297 366 431
#     4  11  24  45  72 104 141 187 240 294 357 437
#     4  12  28  45  71 108 147 187 241 301 360 425
#     4  11  25  44  74 102 139 182 233 290 357 422
#
# _framework density 21.046710000000001
#
# number of rings (size 3 to 8) (size 9 to 14) (size 15 to 20)
#    0.000    0.800    4.000    3.000    2.800    7.200 
#    0.000    0.000    0.000    0.000    0.000    0.000 
#    0.000    0.000    0.000    0.000    0.000    0.000 
#
# Total GULP energy -111796.525513 kJ/mol
# GULP energy per Si atom -5589.826276 kJ/mol
# Density = 2.099881 g / cm^3
# Si number density = 21.046710 Si / 1000 Ang^3
#
#
#
# Elastic Constant Matrix: (Units=GPa)
#
#
# Indices 1 2 3 4 5 6 
#
# 1 110.5461 26.8960 37.7098 0.0000 -7.5371 0.0000
# 2 26.8960 85.3956 30.6493 0.0000 -19.6354 0.0000
# 3 37.7098 30.6493 117.1208 0.0000 -8.7505 0.0000
# 4 0.0000 0.0000 0.0000 26.4341 0.0000 11.0980
# 5 -7.5371 -19.6354 -8.7505 0.0000 37.8648 0.0000
# 6 0.0000 0.0000 0.0000 11.0980 0.0000 -2.0196
#
#
#
# Elastic Compliance Matrix: (Units=1/GPa)
#
#
# Indices 1 2 3 4 5 6 
#
# 1 0.010567 -0.002261 -0.002789 0.000000 0.000286 0.000000
# 2 -0.002261 0.014916 -0.002677 0.000000 0.006666 0.000000
# 3 -0.002789 -0.002677 0.010167 0.000000 0.000406 0.000000
# 4 0.000000 0.000000 0.000000 0.011439 0.000000 0.062860
# 5 0.000286 0.006666 0.000406 0.000000 0.030017 0.000000
# 6 0.000000 0.000000 0.000000 0.062860 0.000000 -0.149723
#
#
# Mechanical properties :
#
#
# Convention : Reuss Voigt Hill
#
# Bulk Modulus (GPa) = 49.51748 55.95252 52.73500
# Shear Modulus (GPa) = -99.14853 26.97635 -36.08609
#
# Velocity S-wave (km/s) = -6.87103 3.58402 -4.14523
# Velocity P-wave (km/s) = 6.27452 6.61586 1.48323
#
# Compressibility (1/GPa) = 0.02019489
#
# Stress axis : x y z
#
# Youngs Moduli (GPa) = 94.63278 67.04172 98.35557
#
# Poissons Ratio (x) = 0.15160 0.27433
# Poissons Ratio (y) = 0.21400 0.26332
# Poissons Ratio (z) = 0.26395 0.17949
#
# Static dielectric constant tensor:
#      x y z
#    x 1.765480 0.000000 0.001050 
#    y 0.000000 1.780690 0.000000 
#    z 0.001050 0.000000 1.774900 
# 
# From -- ./inp_files/37829.got.cif
#   From: 2010.05.17/outbox.cif.g08.bks.cpg/sg15_19_cif.got.tgz:37829.got - 2010.06.03 18:47:42.
