data_PCOD9292250
_publ_section_title
;
Structure prediction by ZEFSAII (Michael W. Deem and Ramdas Pophale) SiO2 
 PCOD9292250
Probable space group: C 2/C
;
_chemical_formula_sum "Si O2"
_cell_formula_units_Z 56
_cell_length_a 25.767017
_cell_length_b 8.123214
_cell_length_c 12.817705
_cell_angle_alpha 90.000000
_cell_angle_beta 111.736745
_cell_angle_gamma 90.000000
_cell_volume 2492.120597
_symmetry_space_group_name_H-M "C 2/C"
_symmetry_group_IT_number 15
_symmetry_cell_setting 'monoclinic'
loop_
_space_group_symop_operation_xyz
x,y,z
-x,y,1/2-z
-x,-y,-z
x,-y,1/2+z
1/2+x,1/2+y,z
1/2-x,1/2+y,1/2-z
1/2-x,1/2-y,-z
1/2+x,1/2-y,1/2+z
loop_
_atom_site_type_symbol
_atom_site_label
_atom_site_fract_x
_atom_site_fract_y
_atom_site_fract_z
Si Si1 0.610524 0.030672 0.417559
Si Si2 0.038075 0.339233 0.511661
Si Si3 0.338889 0.784580 0.190482
Si Si4 0.804482 0.951616 0.074620
Si Si5 0.537441 0.350184 0.682786
Si Si6 0.418340 0.293043 0.246684
Si Si7 0.201214 0.712716 0.611814
O O1 0.579393 0.880621 0.447971
O O2 0.652628 0.957610 0.361762
O O3 0.568245 0.159307 0.332357
O O4 0.644750 0.124620 0.531347
O O5 0.075035 0.298942 0.639209
O O6 0.000000 0.500000 0.500000
O O7 0.996572 0.193981 0.446210
O O8 0.316206 0.644542 0.095314
O O9 0.401462 0.731160 0.272161
O O10 0.300985 0.780952 0.265508
O O11 0.857333 0.857489 0.166141
O O12 0.751598 0.893804 0.102327
O O13 0.797768 0.885233 0.951393
O O14 0.500000 0.283630 0.750000
O O15 0.546449 0.542078 0.711919
#
# Coordination Sequence:
#
# PCOD9292250 Si02
#       7
#     8   8   8   8   8   8   8
#     4  11  23  41  63  96 134 167 222 280 332 403
#     4  12  25  39  65  94 130 173 225 275 337 397
#     4  11  23  42  68  96 133 175 224 282 331 412
#     4   9  23  44  66  95 131 173 222 282 335 410
#     4  11  23  43  63  92 132 174 225 272 327 403
#     4  10  24  42  63  91 129 176 217 275 340 399
#     4  10  22  43  68  96 133 172 220 279 350 399
#
# _framework density 22.470821999999998
#
# number of rings (size 3 to 8) (size 9 to 14) (size 15 to 20)
#    0.000    1.429    1.429    3.000    2.000    7.429 
#    7.714    0.000    0.000    0.000    0.000    0.000 
#    0.000    0.000    0.000    0.000    0.000    0.000 
#
# Total GULP energy -156533.768131 kJ/mol
# GULP energy per Si atom -5590.491719 kJ/mol
# Density = 2.241968 g / cm^3
# Si number density = 22.470822 Si / 1000 Ang^3
#
#
#
# Elastic Constant Matrix: (Units=GPa)
#
#
# Indices 1 2 3 4 5 6 
#
# 1 54.9500 -5.2232 -1.3448 0.0000 -12.4332 0.0000
# 2 -5.2232 65.1812 7.2633 0.0000 6.4987 0.0000
# 3 -1.3448 7.2633 53.1968 0.0000 0.3626 0.0000
# 4 0.0000 0.0000 0.0000 36.5117 0.0000 0.8240
# 5 -12.4332 6.4987 0.3626 0.0000 28.9176 0.0000
# 6 0.0000 0.0000 0.0000 0.8240 0.0000 16.6248
#
#
#
# Elastic Compliance Matrix: (Units=1/GPa)
#
#
# Indices 1 2 3 4 5 6 
#
# 1 0.020204 0.000730 0.000353 0.000000 0.008518 0.000000
# 2 0.000730 0.015962 -0.002139 0.000000 -0.003246 0.000000
# 3 0.000353 -0.002139 0.019096 0.000000 0.000393 0.000000
# 4 0.000000 0.000000 0.000000 0.027419 0.000000 -0.001359
# 5 0.008518 -0.003246 0.000393 0.000000 0.038968 0.000000
# 6 0.000000 0.000000 0.000000 -0.001359 0.000000 0.060219
#
#
# Mechanical properties :
#
#
# Convention : Reuss Voigt Hill
#
# Bulk Modulus (GPa) = 18.81409 19.41315 19.11362
# Shear Modulus (GPa) = 24.78973 27.91968 26.35470
#
# Velocity S-wave (km/s) = 3.32504 3.52872 3.42839
# Velocity P-wave (km/s) = 4.80958 5.02598 4.91897
#
# Compressibility (1/GPa) = 0.05315165
#
# Stress axis : x y z
#
# Youngs Moduli (GPa) = 49.49566 62.64728 52.36588
#
# Poissons Ratio (x) = -0.04576 -0.01848
# Poissons Ratio (y) = -0.03615 0.11200
# Poissons Ratio (z) = -0.01747 0.13399
#
# Static dielectric constant tensor:
#      x y z
#    x 1.851580 0.000000 -0.012560 
#    y 0.000000 1.850140 0.000000 
#    z -0.012560 0.000000 1.809800 
# 
# From -- ./inp_files/121988.got.cif
#   From: 2010.05.17/outbox.cif.g08.bks.cpg/sg15_61_cif.got.tgz:121988.got - 2010.06.03 18:47:42.
