data_PCOD9292350
_publ_section_title
;
Structure prediction by ZEFSAII (Michael W. Deem and Ramdas Pophale) SiO2 
 PCOD9292350
Probable space group: C 2/C
;
_chemical_formula_sum "Si O2"
_cell_formula_units_Z 44
_cell_length_a 15.202442
_cell_length_b 24.471921
_cell_length_c 4.988378
_cell_angle_alpha 90.000000
_cell_angle_beta 90.718241
_cell_angle_gamma 90.000000
_cell_volume 1855.695217
_symmetry_space_group_name_H-M "C 2/C"
_symmetry_group_IT_number 15
_symmetry_cell_setting 'monoclinic'
loop_
_space_group_symop_operation_xyz
x,y,z
-x,y,1/2-z
-x,-y,-z
x,-y,1/2+z
1/2+x,1/2+y,z
1/2-x,1/2+y,1/2-z
1/2-x,1/2-y,-z
1/2+x,1/2-y,1/2+z
loop_
_atom_site_type_symbol
_atom_site_label
_atom_site_fract_x
_atom_site_fract_y
_atom_site_fract_z
Si Si1 0.897419 0.537038 0.762612
Si Si2 0.764940 0.615895 0.467513
Si Si3 0.000000 0.889225 0.750000
Si Si4 0.905543 0.170610 0.858848
Si Si5 0.193719 0.729748 0.247697
Si Si6 0.655164 0.462934 0.582822
O O1 0.882702 0.486157 0.558523
O O2 0.834610 0.584124 0.652600
O O3 0.000000 0.553096 0.750000
O O4 0.687424 0.639000 0.665696
O O5 0.811254 0.665627 0.307516
O O6 0.721793 0.577535 0.238416
O O7 0.060903 0.933086 0.595982
O O8 0.925072 0.844808 0.666064
O O9 0.892537 0.232520 0.770540
O O10 0.000000 0.149807 0.750000
O O11 0.250000 0.750000 0.500000
O O12 0.250000 0.750000 0.000000
O O13 0.663004 0.484024 0.279301
#
# Coordination Sequence:
#
# PCOD9292350 Si02
#       6
#     8   8   4   8   8   8
#     4  10  22  43  70 101 138 180 232 293 353 409
#     4  10  23  43  69 101 134 185 228 287 347 416
#     4  10  24  38  64  90 142 182 226 266 340 398
#     4  10  24  42  68  96 141 181 224 283 345 414
#     4  10  24  44  66  95 129 176 233 282 337 401
#     4  11  24  38  62  96 135 178 224 269 325 407
#
# _framework density 23.710788999999998
#
# number of rings (size 3 to 8) (size 9 to 14) (size 15 to 20)
#    0.000    1.818    0.000    1.636   12.727    4.364 
#    1.636    2.727    0.000    0.000    0.000    0.000 
#    0.000    0.000    0.000    0.000    0.000    0.000 
#
# Total GULP energy -122657.748213 kJ/mol
# GULP energy per Si atom -5575.352192 kJ/mol
# Density = 2.365682 g / cm^3
# Si number density = 23.710789 Si / 1000 Ang^3
#
#
#
# Elastic Constant Matrix: (Units=GPa)
#
#
# Indices 1 2 3 4 5 6 
#
# 1 150.7686 75.8746 32.0096 0.0000 17.1205 0.0000
# 2 75.8746 141.5594 12.2102 0.0000 19.9287 0.0000
# 3 32.0096 12.2102 86.9795 0.0000 7.1911 0.0000
# 4 0.0000 0.0000 0.0000 29.7233 0.0000 6.9142
# 5 17.1205 19.9287 7.1911 0.0000 29.9905 0.0000
# 6 0.0000 0.0000 0.0000 6.9142 0.0000 26.2932
#
#
#
# Elastic Compliance Matrix: (Units=1/GPa)
#
#
# Indices 1 2 3 4 5 6 
#
# 1 0.009834 -0.004781 -0.002802 0.000000 -0.001765 0.000000
# 2 -0.004781 0.010157 0.000679 0.000000 -0.004183 0.000000
# 3 -0.002802 0.000679 0.012587 0.000000 -0.001870 0.000000
# 4 0.000000 0.000000 0.000000 0.035836 0.000000 -0.009424
# 5 -0.001765 -0.004183 -0.001870 0.000000 0.037580 0.000000
# 6 0.000000 0.000000 0.000000 -0.009424 0.000000 0.040511
#
#
# Mechanical properties :
#
#
# Convention : Reuss Voigt Hill
#
# Bulk Modulus (GPa) = 53.27202 68.83293 61.05247
# Shear Modulus (GPa) = 30.01778 34.48229 32.25003
#
# Velocity S-wave (km/s) = 3.56194 3.81765 3.69201
# Velocity P-wave (km/s) = 6.27955 6.96605 6.63169
#
# Compressibility (1/GPa) = 0.01877158
#
# Stress axis : x y z
#
# Youngs Moduli (GPa) = 101.68900 98.45547 79.44479
#
# Poissons Ratio (x) = 0.47069 0.22260
# Poissons Ratio (y) = 0.48615 -0.05397
# Poissons Ratio (z) = 0.28493 -0.06689
#
# Static dielectric constant tensor:
#      x y z
#    x 1.958750 0.000000 0.062950 
#    y 0.000000 1.990030 0.000000 
#    z 0.062950 0.000000 3.144880 
# 
# From -- ./inp_files/7629.got.cif
#   From: 2010.05.17/outbox.cif.g08.bks.cpg/sg15_4_cif.got.tgz:7629.got - 2010.06.03 18:47:42.
