data_PCOD9292118
_publ_section_title
;
Structure prediction by ZEFSAII (Michael W. Deem and Ramdas Pophale) SiO2 
 PCOD9292118
Probable space group: C 2/C
;
_chemical_formula_sum "Si O2"
_cell_formula_units_Z 40
_cell_length_a 30.683690
_cell_length_b 10.968211
_cell_length_c 8.310455
_cell_angle_alpha 90.000000
_cell_angle_beta 30.419275
_cell_angle_gamma 90.000000
_cell_volume 1416.108760
_symmetry_space_group_name_H-M "C 2/C"
_symmetry_group_IT_number 15
_symmetry_cell_setting 'monoclinic'
loop_
_space_group_symop_operation_xyz
x,y,z
-x,y,1/2-z
-x,-y,-z
x,-y,1/2+z
1/2+x,1/2+y,z
1/2-x,1/2+y,1/2-z
1/2-x,1/2-y,-z
1/2+x,1/2-y,1/2+z
loop_
_atom_site_type_symbol
_atom_site_label
_atom_site_fract_x
_atom_site_fract_y
_atom_site_fract_z
Si Si1 0.206114 0.012240 0.114231
Si Si2 0.500000 0.934924 0.250000
Si Si3 0.397901 0.624510 0.781608
Si Si4 0.731536 0.810148 0.353299
Si Si5 0.500000 0.664158 0.750000
Si Si6 0.398617 0.852970 0.255810
O O1 0.177935 0.089261 0.354803
O O2 0.246296 0.892342 0.063410
O O3 0.260773 0.094515 0.820181
O O4 0.115983 0.969893 0.318099
O O5 0.453719 0.864219 0.247395
O O6 0.426876 0.022357 0.570715
O O7 0.363872 0.754466 0.831844
O O8 0.479150 0.617338 0.636360
O O9 0.806315 0.707070 0.095682
O O10 0.576921 0.755091 0.459769
#
# Coordination Sequence:
#
# PCOD9292118 Si02
#       6
#     8   4   8   8   4   8
#     4  10  24  44  67 103 124 182 225 270 341 392
#     4   9  22  44  65 104 134 179 224 266 349 386
#     4  11  24  45  66  98 138 171 226 279 332 396
#     4  11  23  46  69  97 136 172 232 278 328 399
#     4  11  24  42  65  94 142 171 212 280 331 384
#     4  10  22  43  66  97 135 176 220 278 325 400
#
# _framework density 28.246417999999998
#
# number of rings (size 3 to 8) (size 9 to 14) (size 15 to 20)
#    0.000    1.600    2.000    1.200    2.800    2.400 
#   18.000    0.000    0.000    0.000    0.000    0.000 
#    0.000    0.000    0.000    0.000    0.000    0.000 
#
# Total GULP energy -111720.943247 kJ/mol
# GULP energy per Si atom -5586.047162 kJ/mol
# Density = 2.818213 g / cm^3
# Si number density = 28.246418 Si / 1000 Ang^3
#
#
#
# Elastic Constant Matrix: (Units=GPa)
#
#
# Indices 1 2 3 4 5 6 
#
# 1 172.7723 63.4711 4.2813 0.0000 -28.1006 0.0000
# 2 63.4711 117.1780 20.3447 0.0000 -22.5430 0.0000
# 3 4.2813 20.3447 68.0352 0.0000 7.5740 0.0000
# 4 0.0000 0.0000 0.0000 434.1829 0.0000 61.1101
# 5 -28.1006 -22.5430 7.5740 0.0000 54.6598 0.0000
# 6 0.0000 0.0000 0.0000 61.1101 0.0000 80.6459
#
#
#
# Elastic Compliance Matrix: (Units=1/GPa)
#
#
# Indices 1 2 3 4 5 6 
#
# 1 0.007506 -0.003692 0.000377 0.000000 0.002284 0.000000
# 2 -0.003692 0.011850 -0.003701 0.000000 0.003502 0.000000
# 3 0.000377 -0.003701 0.016179 0.000000 -0.003574 0.000000
# 4 0.000000 0.000000 0.000000 0.002578 0.000000 -0.001954
# 5 0.002284 0.003502 -0.003574 0.000000 0.021409 0.000000
# 6 0.000000 0.000000 0.000000 -0.001954 0.000000 0.013880
#
#
# Mechanical properties :
#
#
# Convention : Reuss Voigt Hill
#
# Bulk Modulus (GPa) = 46.50240 59.35330 52.92785
# Shear Modulus (GPa) = 52.85256 131.89029 92.37143
#
# Velocity S-wave (km/s) = 4.33034 6.84062 5.72477
# Velocity P-wave (km/s) = 6.44215 9.13512 7.90417
#
# Compressibility (1/GPa) = 0.02150427
#
# Stress axis : x y z
#
# Youngs Moduli (GPa) = 133.21857 84.38657 61.80777
#
# Poissons Ratio (x) = 0.31156 -0.02333
# Poissons Ratio (y) = 0.49185 0.22876
# Poissons Ratio (z) = -0.05028 0.31233
#
# Static dielectric constant tensor:
#      x y z
#    x 2.165010 0.000000 -0.091820 
#    y 0.000000 2.289610 0.000000 
#    z -0.091820 0.000000 2.190190 
# 
# From -- ./inp_files/68965.got.cif
#   From: 2010.05.17/outbox.cif.g08.bks.cpg/sg15_35_cif.got.tgz:68965.got - 2010.06.03 18:47:42.
