data_PCOD9292380
_publ_section_title
;
Structure prediction by ZEFSAII (Michael W. Deem and Ramdas Pophale) SiO2 
 PCOD9292380
Probable space group: C 2/C
;
_chemical_formula_sum "Si O2"
_cell_formula_units_Z 48
_cell_length_a 17.659276
_cell_length_b 6.504267
_cell_length_c 23.514337
_cell_angle_alpha 90.000000
_cell_angle_beta 133.691882
_cell_angle_gamma 90.000000
_cell_volume 1952.906043
_symmetry_space_group_name_H-M "C 2/C"
_symmetry_group_IT_number 15
_symmetry_cell_setting 'monoclinic'
loop_
_space_group_symop_operation_xyz
x,y,z
-x,y,1/2-z
-x,-y,-z
x,-y,1/2+z
1/2+x,1/2+y,z
1/2-x,1/2+y,1/2-z
1/2-x,1/2-y,-z
1/2+x,1/2-y,1/2+z
loop_
_atom_site_type_symbol
_atom_site_label
_atom_site_fract_x
_atom_site_fract_y
_atom_site_fract_z
Si Si1 0.955060 0.325159 0.565960
Si Si2 0.031404 0.884834 0.708467
Si Si3 0.617837 0.190328 0.054892
Si Si4 0.265144 0.595001 0.704560
Si Si5 0.872334 0.508703 0.260496
Si Si6 0.338224 0.420401 0.526207
O O1 0.923163 0.531425 0.514899
O O2 0.034779 0.236095 0.559163
O O3 0.026103 0.391860 0.656288
O O4 0.862050 0.171588 0.537565
O O5 0.122016 0.003390 0.722706
O O6 0.085867 0.672672 0.756429
O O7 0.000000 0.999494 0.750000
O O8 0.935532 0.856148 0.616805
O O9 0.706549 0.057133 0.131774
O O10 0.656151 0.378003 0.037879
O O11 0.193511 0.598655 0.722827
O O12 0.295084 0.818501 0.696553
O O13 0.250000 0.250000 0.500000
#
# Coordination Sequence:
#
# PCOD9292380 Si02
#       6
#     8   8   8   8   8   8
#     4  10  22  43  70  98 132 179 231 288 346 411
#     4  12  26  44  66 101 141 181 231 281 347 415
#     4  10  23  42  69 104 131 173 237 287 347 416
#     4  11  23  41  73 103 135 174 233 285 345 409
#     4  11  22  44  71  99 134 183 225 289 340 413
#     4  12  25  44  67  96 142 186 224 289 354 418
#
# _framework density 24.578755999999998
#
# number of rings (size 3 to 8) (size 9 to 14) (size 15 to 20)
#    0.000    1.000    5.000    1.500    0.000    4.000 
#    3.000    0.000    0.000    0.000    0.000    0.000 
#    0.000    0.000    0.000    0.000    0.000    0.000 
#
# Total GULP energy -133795.039401 kJ/mol
# GULP energy per Si atom -5574.793308 kJ/mol
# Density = 2.452281 g / cm^3
# Si number density = 24.578756 Si / 1000 Ang^3
#
#
#
# Elastic Constant Matrix: (Units=GPa)
#
#
# Indices 1 2 3 4 5 6 
#
# 1 58.2096 18.0319 19.9801 0.0000 9.9561 -0.0001
# 2 18.0319 74.4669 8.0404 0.0001 10.9493 -0.0002
# 3 19.9801 8.0404 86.9977 0.0000 10.6873 0.0000
# 4 0.0000 0.0001 0.0000 37.4997 0.0000 -3.4862
# 5 9.9561 10.9493 10.6873 0.0000 26.5663 0.0000
# 6 -0.0001 -0.0002 0.0000 -3.4862 0.0000 26.3870
#
#
#
# Elastic Compliance Matrix: (Units=1/GPa)
#
#
# Indices 1 2 3 4 5 6 
#
# 1 0.020456 -0.003876 -0.003781 0.000000 -0.004547 0.000000
# 2 -0.003876 0.015062 0.000087 0.000000 -0.004790 0.000000
# 3 -0.003781 0.000087 0.012819 0.000000 -0.003776 0.000000
# 4 0.000000 0.000000 0.000000 0.026999 0.000000 0.003567
# 5 -0.004547 -0.004790 -0.003776 0.000000 0.042839 0.000000
# 6 0.000000 0.000000 0.000000 0.003567 0.000000 0.038369
#
#
# Mechanical properties :
#
#
# Convention : Reuss Voigt Hill
#
# Bulk Modulus (GPa) = 30.12481 34.64211 32.38346
# Shear Modulus (GPa) = 27.35983 29.66538 28.51260
#
# Velocity S-wave (km/s) = 3.34001 3.47789 3.40965
# Velocity P-wave (km/s) = 5.21126 5.50023 5.35770
#
# Compressibility (1/GPa) = 0.03319523
#
# Stress axis : x y z
#
# Youngs Moduli (GPa) = 48.88611 66.39040 78.01096
#
# Poissons Ratio (x) = 0.25736 0.29496
# Poissons Ratio (y) = 0.18950 -0.00676
# Poissons Ratio (z) = 0.18484 -0.00575
#
# Static dielectric constant tensor:
#      x y z
#    x 1.944060 0.000000 0.065290 
#    y 0.000000 2.054280 0.000000 
#    z 0.065290 0.000000 1.910820 
# 
# From -- ./inp_files/317110.got.cif
#   From: 2010.05.17/outbox.cif.g08.bks.cpg/sg15_159_cif.got.tgz:317110.got - 2010.06.03 18:47:42.
