data_PCOD9292215
_publ_section_title
;
Structure prediction by ZEFSAII (Michael W. Deem and Ramdas Pophale) SiO2 
 PCOD9292215
Probable space group: C 2/C
;
_chemical_formula_sum "Si O2"
_cell_formula_units_Z 20
_cell_length_a 17.959690
_cell_length_b 4.837182
_cell_length_c 8.531618
_cell_angle_alpha 90.000000
_cell_angle_beta 113.241489
_cell_angle_gamma 90.000000
_cell_volume 681.031514
_symmetry_space_group_name_H-M "C 2/C"
_symmetry_group_IT_number 15
_symmetry_cell_setting 'monoclinic'
loop_
_space_group_symop_operation_xyz
x,y,z
-x,y,1/2-z
-x,-y,-z
x,-y,1/2+z
1/2+x,1/2+y,z
1/2-x,1/2+y,1/2-z
1/2-x,1/2-y,-z
1/2+x,1/2-y,1/2+z
loop_
_atom_site_type_symbol
_atom_site_label
_atom_site_fract_x
_atom_site_fract_y
_atom_site_fract_z
Si Si1 0.440241 0.594001 0.585949
Si Si2 0.163741 0.739244 0.778926
Si Si3 0.750000 0.250000 0.500000
O O1 0.500000 0.765643 0.750000
O O2 0.500000 0.500000 0.500000
O O3 0.407253 0.342845 0.662842
O O4 0.361769 0.711685 0.426334
O O5 0.186323 0.428043 0.832877
O O6 0.230008 0.963515 0.883014
#
# Coordination Sequence:
#
# PCOD9292215 Si02
#       3
#     8   8   4
#     4   9  20  43  70 102 139 182 234 294 356 423
#     4  10  22  43  68 100 136 182 233 288 352 420
#     4  10  24  42  68  96 138 186 232 284 348 428
#
# _framework density 29.367213
#
# number of rings (size 3 to 8) (size 9 to 14) (size 15 to 20)
#    0.000    2.400    0.000    0.000    0.000    9.600 
#    0.000   40.000    0.000    7.200    0.000    0.000 
#    0.000    0.000    0.000    0.000    0.000    0.000 
#
# Total GULP energy -55696.959583 kJ/mol
# GULP energy per Si atom -5569.695958 kJ/mol
# Density = 2.930037 g / cm^3
# Si number density = 29.367213 Si / 1000 Ang^3
#
#
#
# Elastic Constant Matrix: (Units=GPa)
#
#
# Indices 1 2 3 4 5 6 
#
# 1 100.0775 33.5632 31.5559 0.0000 0.8073 0.0000
# 2 33.5632 218.0306 87.1913 0.0000 8.8043 0.0000
# 3 31.5559 87.1913 261.4582 0.0000 3.7493 0.0000
# 4 0.0000 0.0000 0.0000 41.4462 0.0000 11.5047
# 5 0.8073 8.8043 3.7493 0.0000 82.3848 0.0000
# 6 0.0000 0.0000 0.0000 11.5047 0.0000 24.8979
#
#
#
# Elastic Compliance Matrix: (Units=1/GPa)
#
#
# Indices 1 2 3 4 5 6 
#
# 1 0.010700 -0.001308 -0.000856 0.000000 0.000074 0.000000
# 2 -0.001308 0.005472 -0.001660 0.000000 -0.000496 0.000000
# 3 -0.000856 -0.001660 0.004482 0.000000 -0.000018 0.000000
# 4 0.000000 0.000000 0.000000 0.027678 0.000000 -0.012789
# 5 0.000074 -0.000496 -0.000018 0.000000 0.012191 0.000000
# 6 0.000000 0.000000 0.000000 -0.012789 0.000000 0.046074
#
#
# Mechanical properties :
#
#
# Convention : Reuss Voigt Hill
#
# Bulk Modulus (GPa) = 76.88742 98.24303 87.56523
# Shear Modulus (GPa) = 42.16594 58.22952 50.19773
#
# Velocity S-wave (km/s) = 3.79333 4.45770 4.13887
# Velocity P-wave (km/s) = 6.73973 7.74731 7.26102
#
# Compressibility (1/GPa) = 0.01300603
#
# Stress axis : x y z
#
# Youngs Moduli (GPa) = 93.45572 182.76227 223.12396
#
# Poissons Ratio (x) = 0.23899 0.19109
# Poissons Ratio (y) = 0.12221 0.37032
# Poissons Ratio (z) = 0.08004 0.30334
#
# Static dielectric constant tensor:
#      x y z
#    x 2.745720 0.000000 0.272370 
#    y 0.000000 1.978130 0.000000 
#    z 0.272370 0.000000 2.336890 
# 
# From -- ./inp_files/52962.got.cif
#   From: 2010.05.17/outbox.cif.g08.bks.cpg/sg15_27_cif.got.tgz:52962.got - 2010.06.03 18:47:42.
