data_PCOD9292749
_publ_section_title
;
Structure prediction by ZEFSAII (Michael W. Deem and Ramdas Pophale) SiO2 
 PCOD9292749
Probable space group: C 2/C
;
_chemical_formula_sum "Si O2"
_cell_formula_units_Z 48
_cell_length_a 16.328417
_cell_length_b 11.679307
_cell_length_c 12.236612
_cell_angle_alpha 90.000000
_cell_angle_beta 74.405832
_cell_angle_gamma 90.000000
_cell_volume 2247.678971
_symmetry_space_group_name_H-M "C 2/C"
_symmetry_group_IT_number 15
_symmetry_cell_setting 'monoclinic'
loop_
_space_group_symop_operation_xyz
x,y,z
-x,y,1/2-z
-x,-y,-z
x,-y,1/2+z
1/2+x,1/2+y,z
1/2-x,1/2+y,1/2-z
1/2-x,1/2-y,-z
1/2+x,1/2-y,1/2+z
loop_
_atom_site_type_symbol
_atom_site_label
_atom_site_fract_x
_atom_site_fract_y
_atom_site_fract_z
Si Si1 0.098328 0.827214 0.693526
Si Si2 0.178989 0.568564 0.039356
Si Si3 0.904693 0.758826 0.572644
Si Si4 0.092711 0.666653 0.504616
Si Si5 0.900175 0.291188 0.751316
Si Si6 0.870473 0.925136 0.407897
O O1 0.135770 0.799729 0.799037
O O2 0.132026 0.749539 0.582943
O O3 0.000000 0.797352 0.750000
O O4 0.098812 0.957670 0.655475
O O5 0.125111 0.460310 0.017995
O O6 0.149194 0.606666 0.169937
O O7 0.158617 0.678182 0.971018
O O8 0.278468 0.548816 0.991608
O O9 0.923943 0.868032 0.487811
O O10 0.990936 0.684991 0.552248
O O11 0.112068 0.701081 0.373392
O O12 0.869435 0.171522 0.814203
O O13 0.000000 0.301973 0.750000
#
# Coordination Sequence:
#
# PCOD9292749 Si02
#       6
#     8   8   8   8   8   8
#     4  10  25  41  69  97 131 170 225 270 326 395
#     4  11  25  41  66  96 135 173 222 276 341 389
#     4  10  22  44  67  94 132 171 220 275 329 397
#     4  11  24  42  67  99 126 172 226 281 323 395
#     4  11  22  41  70  92 126 176 228 270 334 402
#     4  11  24  43  64  96 133 179 218 274 337 402
#
# _framework density 21.355363000000001
#
# number of rings (size 3 to 8) (size 9 to 14) (size 15 to 20)
#    0.000    1.333    3.333    3.000    4.667    5.333 
#    0.000    0.000    0.000    0.000    0.000    0.000 
#    0.000    0.000    0.000    0.000    0.000    0.000 
#
# Total GULP energy -134070.031119 kJ/mol
# GULP energy per Si atom -5586.251297 kJ/mol
# Density = 2.130676 g / cm^3
# Si number density = 21.355363 Si / 1000 Ang^3
#
#
#
# Elastic Constant Matrix: (Units=GPa)
#
#
# Indices 1 2 3 4 5 6 
#
# 1 33.2412 1.8343 18.0297 0.0000 -12.8746 0.0000
# 2 1.8343 95.3234 77.7341 0.0000 27.5460 0.0000
# 3 18.0297 77.7341 194.9925 0.0000 16.2565 0.0000
# 4 0.0000 0.0000 0.0000 60.4728 0.0000 -37.8947
# 5 -12.8746 27.5460 16.2565 0.0000 23.6932 0.0000
# 6 0.0000 0.0000 0.0000 -37.8947 0.0000 50.1976
#
#
#
# Elastic Compliance Matrix: (Units=1/GPa)
#
#
# Indices 1 2 3 4 5 6 
#
# 1 0.048063 -0.008869 -0.004185 0.000000 0.039299 0.000000
# 2 -0.008869 0.024124 -0.006424 0.000000 -0.028458 0.000000
# 3 -0.004185 -0.006424 0.008107 0.000000 -0.000367 0.000000
# 4 0.000000 0.000000 0.000000 0.031382 0.000000 0.023690
# 5 0.039299 -0.028458 -0.000367 0.000000 0.096898 0.000000
# 6 0.000000 0.000000 0.000000 0.023690 0.000000 0.037805
#
#
# Mechanical properties :
#
#
# Convention : Reuss Voigt Hill
#
# Bulk Modulus (GPa) = 24.19069 57.63925 40.91497
# Shear Modulus (GPa) = 16.71597 41.93667 29.32632
#
# Velocity S-wave (km/s) = 2.80081 4.43623 3.70976
# Velocity P-wave (km/s) = 4.67029 7.29995 6.12785
#
# Compressibility (1/GPa) = 0.04133821
#
# Stress axis : x y z
#
# Youngs Moduli (GPa) = 20.80588 41.45276 123.34844
#
# Poissons Ratio (x) = 0.36763 0.51621
# Poissons Ratio (y) = 0.18452 0.79245
# Poissons Ratio (z) = 0.08707 0.26631
#
# Static dielectric constant tensor:
#      x y z
#    x 1.819050 0.000000 0.034730 
#    y 0.000000 1.754380 0.000000 
#    z 0.034730 0.000000 1.814320 
# 
# From -- ./inp_files/104198.got.cif
#   From: 2010.05.17/outbox.cif.g08.bks.cpg/sg15_53_cif.got.tgz:104198.got - 2010.06.03 18:47:42.
