data_PCOD9292127
_publ_section_title
;
Structure prediction by ZEFSAII (Michael W. Deem and Ramdas Pophale) SiO2 
 PCOD9292127
Probable space group: C 2/C
;
_chemical_formula_sum "Si O2"
_cell_formula_units_Z 32
_cell_length_a 13.129213
_cell_length_b 5.241389
_cell_length_c 19.100583
_cell_angle_alpha 90.000000
_cell_angle_beta 81.449269
_cell_angle_gamma 90.000000
_cell_volume 1299.802371
_symmetry_space_group_name_H-M "C 2/C"
_symmetry_group_IT_number 15
_symmetry_cell_setting 'monoclinic'
loop_
_space_group_symop_operation_xyz
x,y,z
-x,y,1/2-z
-x,-y,-z
x,-y,1/2+z
1/2+x,1/2+y,z
1/2-x,1/2+y,1/2-z
1/2-x,1/2-y,-z
1/2+x,1/2-y,1/2+z
loop_
_atom_site_type_symbol
_atom_site_label
_atom_site_fract_x
_atom_site_fract_y
_atom_site_fract_z
Si Si1 0.609576 0.935179 0.901041
Si Si2 0.264502 0.747112 0.794031
Si Si3 0.966218 0.903559 0.326455
Si Si4 0.570117 0.301623 0.536704
O O1 0.685324 0.144530 0.860904
O O2 0.566297 0.725753 0.851043
O O3 0.504396 0.076190 0.931771
O O4 0.647315 0.805512 0.969591
O O5 0.232298 0.999806 0.756828
O O6 0.378665 0.795812 0.812222
O O7 0.000000 0.037335 0.250000
O O8 0.906699 0.065954 0.391776
O O9 0.500000 0.500000 0.500000
#
# Coordination Sequence:
#
# PCOD9292127 Si02
#       4
#     8   8   8   8
#     4  10  22  43  66  98 138 183 235 290 355 424
#     4  12  27  44  69 107 143 184 242 298 347 426
#     4  11  22  41  68  99 136 187 228 295 354 411
#     4   9  21  41  67  96 136 182 233 291 353 419
#
# _framework density 24.619125
#
# number of rings (size 3 to 8) (size 9 to 14) (size 15 to 20)
#    0.000    1.500    2.500    1.500    7.000    2.000 
#    0.000   11.250    0.000    0.000    0.000    0.000 
#    0.000    0.000    0.000    0.000    0.000    0.000 
#
# Total GULP energy -89282.549286 kJ/mol
# GULP energy per Si atom -5580.159330 kJ/mol
# Density = 2.456309 g / cm^3
# Si number density = 24.619125 Si / 1000 Ang^3
#
#
#
# Elastic Constant Matrix: (Units=GPa)
#
#
# Indices 1 2 3 4 5 6 
#
# 1 59.7234 3.0565 24.8133 0.0000 2.1354 0.0000
# 2 3.0565 93.6029 42.1865 0.0000 -2.9178 0.0000
# 3 24.8133 42.1865 172.2382 0.0000 -11.5991 0.0000
# 4 0.0000 0.0000 0.0000 44.3799 0.0000 -15.0411
# 5 2.1354 -2.9178 -11.5991 0.0000 29.7789 0.0000
# 6 0.0000 0.0000 0.0000 -15.0411 0.0000 10.1044
#
#
#
# Elastic Compliance Matrix: (Units=1/GPa)
#
#
# Indices 1 2 3 4 5 6 
#
# 1 0.018005 0.000651 -0.002912 0.000000 -0.002362 0.000000
# 2 0.000651 0.012033 -0.003045 0.000000 -0.000054 0.000000
# 3 -0.002912 -0.003045 0.007153 0.000000 0.002697 0.000000
# 4 0.000000 0.000000 0.000000 0.045475 0.000000 0.067692
# 5 -0.002362 -0.000054 0.002697 0.000000 0.034795 0.000000
# 6 0.000000 0.000000 0.000000 0.067692 0.000000 0.199729
#
#
# Mechanical properties :
#
#
# Convention : Reuss Voigt Hill
#
# Bulk Modulus (GPa) = 37.62421 51.74192 44.68306
# Shear Modulus (GPa) = 14.85173 33.88653 24.36913
#
# Velocity S-wave (km/s) = 2.45880 3.71405 3.14959
# Velocity P-wave (km/s) = 4.83494 6.28131 5.60497
#
# Compressibility (1/GPa) = 0.02657863
#
# Stress axis : x y z
#
# Youngs Moduli (GPa) = 55.54016 83.10704 139.80562
#
# Poissons Ratio (x) = -0.05411 0.40717
# Poissons Ratio (y) = -0.03616 0.42565
# Poissons Ratio (z) = 0.16175 0.25303
#
# Static dielectric constant tensor:
#      x y z
#    x 1.947660 0.000000 0.015210 
#    y 0.000000 2.042050 0.000000 
#    z 0.015210 0.000000 2.175660 
# 
# From -- ./inp_files/201700.got.cif
#   From: 2010.05.17/outbox.cif.g08.bks.cpg/sg15_101_cif.got.tgz:201700.got - 2010.06.03 18:47:42.
