data_PCOD9292943
_publ_section_title
;
Structure prediction by ZEFSAII (Michael W. Deem and Ramdas Pophale) SiO2 
 PCOD9292943
Probable space group: C 2/C
;
_chemical_formula_sum "Si O2"
_cell_formula_units_Z 60
_cell_length_a 7.195665
_cell_length_b 16.879005
_cell_length_c 25.373880
_cell_angle_alpha 90.000000
_cell_angle_beta 46.404571
_cell_angle_gamma 90.000000
_cell_volume 2231.923461
_symmetry_space_group_name_H-M "C 2/C"
_symmetry_group_IT_number 15
_symmetry_cell_setting 'monoclinic'
loop_
_space_group_symop_operation_xyz
x,y,z
-x,y,1/2-z
-x,-y,-z
x,-y,1/2+z
1/2+x,1/2+y,z
1/2-x,1/2+y,1/2-z
1/2-x,1/2-y,-z
1/2+x,1/2-y,1/2+z
loop_
_atom_site_type_symbol
_atom_site_label
_atom_site_fract_x
_atom_site_fract_y
_atom_site_fract_z
Si Si1 0.500000 0.577516 0.750000
Si Si2 0.327037 0.089868 0.439437
Si Si3 0.299145 0.574064 0.488922
Si Si4 0.746239 0.195735 0.308760
Si Si5 0.535058 0.486181 0.851881
Si Si6 0.962851 0.847122 0.407567
Si Si7 0.414329 0.178032 0.615920
Si Si8 0.250796 0.677989 0.199977
O O1 0.502522 0.522576 0.800518
O O2 0.752243 0.633866 0.694196
O O3 0.582814 0.124475 0.364661
O O4 0.200509 0.149685 0.506944
O O5 0.100534 0.076588 0.441759
O O6 0.343798 0.002778 0.460515
O O7 0.296690 0.559432 0.426866
O O8 0.183854 0.644082 0.545881
O O9 0.659276 0.277853 0.353622
O O10 0.952011 0.186934 0.217876
O O11 0.530444 0.200501 0.288318
O O12 0.587388 0.565290 0.876458
O O13 0.735075 0.415908 0.808683
O O14 0.752854 0.839388 0.402812
O O15 0.431392 0.268594 0.628226
#
# Coordination Sequence:
#
# PCOD9292943 Si02
#       8
#     4   8   8   8   8   8   8   8
#     4  10  22  44  70 104 146 186 242 300 362 428
#     4  10  24  49  72 108 145 187 244 308 359 444
#     4  10  24  45  77 105 143 190 246 297 374 432
#     4  12  27  43  69 107 144 189 241 300 368 439
#     4  10  24  43  69 102 141 188 239 300 357 432
#     4  10  23  48  71 100 148 189 245 302 360 438
#     4  11  23  45  74 101 141 195 239 302 362 441
#     4  12  24  44  66 102 149 183 235 301 367 428
#
# _framework density 26.882642000000001
#
# number of rings (size 3 to 8) (size 9 to 14) (size 15 to 20)
#    0.000    1.333    2.000    2.000    4.667    8.000 
#    0.000    0.000    0.000    0.000    0.000    0.000 
#    0.000    0.000    0.000    0.000    0.000    0.000 
#
# Total GULP energy -167605.829682 kJ/mol
# GULP energy per Si atom -5586.860989 kJ/mol
# Density = 2.682146 g / cm^3
# Si number density = 26.882642 Si / 1000 Ang^3
#
#
#
# Elastic Constant Matrix: (Units=GPa)
#
#
# Indices 1 2 3 4 5 6 
#
# 1 80.1257 0.5112 23.2110 -0.0070 -8.0289 0.0000
# 2 0.5112 106.6656 22.5784 0.0023 -6.9555 -0.0044
# 3 23.2110 22.5784 137.0172 -0.0025 9.6236 0.0025
# 4 -0.0070 0.0023 -0.0025 53.4857 0.0059 2.4273
# 5 -8.0289 -6.9555 9.6236 0.0059 52.1887 -0.0023
# 6 0.0000 -0.0044 0.0025 2.4273 -0.0023 31.7195
#
#
#
# Elastic Compliance Matrix: (Units=1/GPa)
#
#
# Indices 1 2 3 4 5 6 
#
# 1 0.013487 0.000653 -0.002578 0.000001 0.002637 0.000000
# 2 0.000653 0.009881 -0.001863 -0.000001 0.001761 0.000002
# 3 -0.002578 -0.001863 0.008193 0.000000 -0.002156 -0.000001
# 4 0.000001 -0.000001 0.000000 0.018762 -0.000002 -0.001436
# 5 0.002637 0.001761 -0.002156 -0.000002 0.020199 0.000002
# 6 0.000000 0.000002 -0.000001 -0.001436 0.000002 0.031636
#
#
# Mechanical properties :
#
#
# Convention : Reuss Voigt Hill
#
# Bulk Modulus (GPa) = 41.68893 46.26775 43.97834
# Shear Modulus (GPa) = 42.47053 45.97930 44.22491
#
# Velocity S-wave (km/s) = 3.97904 4.14015 4.06040
# Velocity P-wave (km/s) = 6.05407 6.33268 6.19494
#
# Compressibility (1/GPa) = 0.02398718
#
# Stress axis : x y z
#
# Youngs Moduli (GPa) = 74.14454 101.20395 122.05060
#
# Poissons Ratio (x) = -0.06608 0.31460
# Poissons Ratio (y) = -0.04841 0.22732
# Poissons Ratio (z) = 0.19111 0.18850
#
# Static dielectric constant tensor:
#      x y z
#    x 8.666480 0.000000 1.054190 
#    y 0.000000 2.014880 0.000000 
#    z 1.054190 0.000000 2.208070 
# 
# From -- ./inp_files/289578.got.cif
#   From: 2010.05.17/outbox.cif.g08.bks.cpg/sg15_145_cif.got.tgz:289578.got - 2010.06.03 18:47:42.
