data_PCOD9292810
_publ_section_title
;
Structure prediction by ZEFSAII (Michael W. Deem and Ramdas Pophale) SiO2 
 PCOD9292810
Probable space group: C 2/C
;
_chemical_formula_sum "Si O2"
_cell_formula_units_Z 64
_cell_length_a 31.413536
_cell_length_b 10.181246
_cell_length_c 18.421228
_cell_angle_alpha 90.000000
_cell_angle_beta 29.400074
_cell_angle_gamma 90.000000
_cell_volume 2892.235696
_symmetry_space_group_name_H-M "C 2/C"
_symmetry_group_IT_number 15
_symmetry_cell_setting 'monoclinic'
loop_
_space_group_symop_operation_xyz
x,y,z
-x,y,1/2-z
-x,-y,-z
x,-y,1/2+z
1/2+x,1/2+y,z
1/2-x,1/2+y,1/2-z
1/2-x,1/2-y,-z
1/2+x,1/2-y,1/2+z
loop_
_atom_site_type_symbol
_atom_site_label
_atom_site_fract_x
_atom_site_fract_y
_atom_site_fract_z
Si Si1 0.694207 0.114031 0.503357
Si Si2 0.327462 0.807153 0.931750
Si Si3 0.847586 0.770543 0.567919
Si Si4 0.965485 0.023058 0.383036
Si Si5 0.655569 0.223898 0.410388
Si Si6 0.488889 0.115376 0.960230
Si Si7 0.383625 0.676257 0.265834
Si Si8 0.000615 0.402371 0.835877
O O1 0.655495 0.131021 0.480843
O O2 0.653491 0.230214 0.613816
O O3 0.798294 0.131986 0.350619
O O4 0.682065 0.964430 0.546186
O O5 0.423384 0.801435 0.754063
O O6 0.250000 0.750000 0.000000
O O7 0.330741 0.740986 0.006058
O O8 0.755859 0.757175 0.742893
O O9 0.908814 0.649886 0.498482
O O10 0.905778 0.900108 0.494747
O O11 0.900710 0.148282 0.484727
O O12 0.000000 0.001395 0.250000
O O13 0.052146 0.063367 0.299282
O O14 0.607475 0.165938 0.411148
O O15 0.554942 0.232693 0.874513
O O16 0.514223 0.046406 0.846474
O O17 0.500000 0.000000 0.000000
O O18 0.000000 0.401005 0.750000
#
# Coordination Sequence:
#
# PCOD9292810 Si02
#       8
#     8   8   8   8   8   8   8   8
#     4  11  23  44  70  99 138 173 236 281 345 416
#     4  11  25  42  71  98 135 178 230 281 343 418
#     4  11  27  42  69 101 137 182 228 287 352 405
#     4  11  23  45  72  98 140 181 238 280 345 424
#     4  11  26  43  69 102 138 180 230 288 354 411
#     4  11  25  42  69  98 138 174 229 281 348 412
#     4  10  24  43  70 103 129 184 228 289 343 412
#     4  10  22  44  68  91 131 183 229 271 347 418
#
# _framework density 22.128211
#
# number of rings (size 3 to 8) (size 9 to 14) (size 15 to 20)
#    0.000    1.250    2.500    2.625   10.500    0.000 
#    0.000    0.625    0.000    0.000    0.000    0.000 
#    0.000    0.000    0.000    0.000    0.000    0.000 
#
# Total GULP energy -178805.940740 kJ/mol
# GULP energy per Si atom -5587.685648 kJ/mol
# Density = 2.207785 g / cm^3
# Si number density = 22.128211 Si / 1000 Ang^3
#
#
#
# Elastic Constant Matrix: (Units=GPa)
#
#
# Indices 1 2 3 4 5 6 
#
# 1 75.5147 18.6407 16.8714 -0.0002 -29.8877 0.0001
# 2 18.6407 68.9896 9.7534 -0.0007 -19.8295 0.0003
# 3 16.8714 9.7534 103.9588 -0.0005 -34.1422 0.0002
# 4 -0.0002 -0.0007 -0.0005 19.6099 0.0000 -2.8907
# 5 -29.8877 -19.8295 -34.1422 0.0000 33.0089 0.0000
# 6 0.0001 0.0003 0.0002 -2.8907 0.0000 34.2800
#
#
#
# Elastic Compliance Matrix: (Units=1/GPa)
#
#
# Indices 1 2 3 4 5 6 
#
# 1 0.021959 0.000600 0.004586 0.000000 0.024987 0.000000
# 2 0.000600 0.018070 0.002954 0.000001 0.014454 0.000000
# 3 0.004586 0.002954 0.015969 0.000001 0.022445 0.000000
# 4 0.000000 0.000001 0.000001 0.051636 0.000001 0.004354
# 5 0.024987 0.014454 0.022445 0.000001 0.084818 0.000000
# 6 0.000000 0.000000 0.000000 0.004354 0.000000 0.029539
#
#
# Mechanical properties :
#
#
# Convention : Reuss Voigt Hill
#
# Bulk Modulus (GPa) = 13.83513 37.66601 25.75057
# Shear Modulus (GPa) = 21.75786 30.92629 26.34207
#
# Velocity S-wave (km/s) = 3.13910 3.74250 3.45400
# Velocity P-wave (km/s) = 4.40505 5.97777 5.25063
#
# Compressibility (1/GPa) = 0.07227976
#
# Stress axis : x y z
#
# Youngs Moduli (GPa) = 45.53897 55.34145 62.62142
#
# Poissons Ratio (x) = -0.03322 -0.28720
# Poissons Ratio (y) = -0.02734 -0.18501
# Poissons Ratio (z) = -0.20885 -0.16350
#
# Static dielectric constant tensor:
#      x y z
#    x 1.818770 0.000000 0.014260 
#    y 0.000000 1.801580 0.000000 
#    z 0.014260 0.000000 1.868860 
# 
# From -- ./inp_files/225146.got.cif
#   From: 2010.05.17/outbox.cif.g08.bks.cpg/sg15_113_cif.got.tgz:225146.got - 2010.06.03 18:47:42.
