data_PCOD9292914
_publ_section_title
;
Structure prediction by ZEFSAII (Michael W. Deem and Ramdas Pophale) SiO2 
 PCOD9292914
Probable space group: C 2/C
;
_chemical_formula_sum "Si O2"
_cell_formula_units_Z 48
_cell_length_a 11.526780
_cell_length_b 19.869614
_cell_length_c 9.952325
_cell_angle_alpha 90.000000
_cell_angle_beta 64.509411
_cell_angle_gamma 90.000000
_cell_volume 2057.520876
_symmetry_space_group_name_H-M "C 2/C"
_symmetry_group_IT_number 15
_symmetry_cell_setting 'monoclinic'
loop_
_space_group_symop_operation_xyz
x,y,z
-x,y,1/2-z
-x,-y,-z
x,-y,1/2+z
1/2+x,1/2+y,z
1/2-x,1/2+y,1/2-z
1/2-x,1/2-y,-z
1/2+x,1/2-y,1/2+z
loop_
_atom_site_type_symbol
_atom_site_label
_atom_site_fract_x
_atom_site_fract_y
_atom_site_fract_z
Si Si1 0.424648 0.957443 0.426398
Si Si2 0.972903 0.684343 0.617269
Si Si3 0.840483 0.036610 0.961453
Si Si4 0.680564 0.638123 0.770306
Si Si5 0.502686 0.595272 0.097607
Si Si6 0.903349 0.253173 0.884028
O O1 0.500000 0.961142 0.250000
O O2 0.429374 0.877759 0.461057
O O3 0.500000 0.000000 0.500000
O O4 0.289648 0.993773 0.467274
O O5 0.831743 0.650689 0.701869
O O6 0.961392 0.737988 0.504558
O O7 0.000000 0.713852 0.750000
O O8 0.838723 0.077255 0.823945
O O9 0.949794 0.980907 0.905147
O O10 0.873599 0.087326 0.069493
O O11 0.611599 0.699554 0.730410
O O12 0.609878 0.626421 0.945689
O O13 0.500000 0.624436 0.250000
O O14 0.000000 0.303849 0.750000
O O15 0.750000 0.250000 0.000000
#
# Coordination Sequence:
#
# PCOD9292914 Si02
#       6
#     8   8   8   8   8   8
#     4  11  23  39  62  99 142 179 222 275 350 426
#     4  10  22  44  69  99 136 181 234 295 349 420
#     4  11  22  39  61  98 142 180 219 275 352 425
#     4  11  22  46  67  95 140 186 229 291 356 424
#     4  11  23  36  62  97 135 177 225 278 344 421
#     4  10  23  46  72  96 133 184 241 293 354 415
#
# _framework density 23.329046000000002
#
# number of rings (size 3 to 8) (size 9 to 14) (size 15 to 20)
#    0.000    1.333    1.667    5.500    2.333    0.667 
#    0.000   10.000    0.000    0.000    0.000    0.000 
#    0.000    0.000    0.000    0.000    0.000    0.000 
#
# Total GULP energy -133675.966230 kJ/mol
# GULP energy per Si atom -5569.831926 kJ/mol
# Density = 2.327595 g / cm^3
# Si number density = 23.329046 Si / 1000 Ang^3
#
#
#
# Elastic Constant Matrix: (Units=GPa)
#
#
# Indices 1 2 3 4 5 6 
#
# 1 107.0464 8.7144 50.2995 0.0000 -3.4201 0.0000
# 2 8.7144 70.5667 51.4119 0.0000 4.3652 0.0000
# 3 50.2995 51.4119 200.1318 0.0000 16.4155 0.0000
# 4 0.0000 0.0000 0.0000 -8.3803 0.0000 35.2723
# 5 -3.4201 4.3652 16.4155 0.0000 24.0763 0.0000
# 6 0.0000 0.0000 0.0000 35.2723 0.0000 92.8156
#
#
#
# Elastic Compliance Matrix: (Units=1/GPa)
#
#
# Indices 1 2 3 4 5 6 
#
# 1 0.010917 0.000791 -0.003244 0.000000 0.003619 0.000000
# 2 0.000791 0.017492 -0.004705 0.000000 0.000149 0.000000
# 3 -0.003244 -0.004705 0.007402 0.000000 -0.004655 0.000000
# 4 0.000000 0.000000 0.000000 -0.045904 0.000000 0.017445
# 5 0.003619 0.000149 -0.004655 0.000000 0.045196 0.000000
# 6 0.000000 0.000000 0.000000 0.017445 0.000000 0.004145
#
#
# Mechanical properties :
#
#
# Convention : Reuss Voigt Hill
#
# Bulk Modulus (GPa) = 46.51824 66.51072 56.51448
# Shear Modulus (GPa) = 82.33506 39.52360 60.92933
#
# Velocity S-wave (km/s) = 5.94723 4.12051 5.11606
# Velocity P-wave (km/s) = 8.19407 7.15610 7.69261
#
# Compressibility (1/GPa) = 0.02149695
#
# Stress axis : x y z
#
# Youngs Moduli (GPa) = 91.59804 57.17035 135.09155
#
# Poissons Ratio (x) = -0.04524 0.43824
# Poissons Ratio (y) = -0.07249 0.63554
# Poissons Ratio (z) = 0.29715 0.26896
#
# Static dielectric constant tensor:
#      x y z
#    x 2.108580 0.000000 -0.072380 
#    y 0.000000 1.859500 0.000000 
#    z -0.072380 0.000000 1.885650 
# 
# From -- ./inp_files/32503.got.cif
#   From: 2010.05.17/outbox.cif.g08.bks.cpg/sg15_17_cif.got.tgz:32503.got - 2010.06.03 18:47:42.
