data_PCOD9292835
_publ_section_title
;
Structure prediction by ZEFSAII (Michael W. Deem and Ramdas Pophale) SiO2 
 PCOD9292835
Probable space group: C 2/C
;
_chemical_formula_sum "Si O2"
_cell_formula_units_Z 24
_cell_length_a 15.590028
_cell_length_b 11.107770
_cell_length_c 8.511262
_cell_angle_alpha 90.000000
_cell_angle_beta 35.114879
_cell_angle_gamma 90.000000
_cell_volume 847.812805
_symmetry_space_group_name_H-M "C 2/C"
_symmetry_group_IT_number 15
_symmetry_cell_setting 'monoclinic'
loop_
_space_group_symop_operation_xyz
x,y,z
-x,y,1/2-z
-x,-y,-z
x,-y,1/2+z
1/2+x,1/2+y,z
1/2-x,1/2+y,1/2-z
1/2-x,1/2-y,-z
1/2+x,1/2-y,1/2+z
loop_
_atom_site_type_symbol
_atom_site_label
_atom_site_fract_x
_atom_site_fract_y
_atom_site_fract_z
Si Si1 0.080908 0.724284 0.289200
Si Si2 0.643695 0.045598 0.625748
Si Si3 0.136333 0.080303 0.948227
O O1 0.082319 0.579595 0.293577
O O2 0.057483 0.811737 0.471059
O O3 0.000000 0.756350 0.250000
O O4 0.250000 0.750000 0.000000
O O5 0.500000 0.097041 0.750000
O O6 0.773107 0.005755 0.307366
O O7 0.731838 0.119214 0.627954
O O8 0.000000 0.022663 0.250000
#
# Coordination Sequence:
#
# PCOD9292835 Si02
#       3
#     8   8   8
#     4   9  21  43  65  90 131 176 214 264 328 391
#     4  10  22  44  68  96 133 176 219 271 330 394
#     4  11  23  41  70 102 131 170 223 277 328 389
#
# _framework density 28.308133999999999
#
# number of rings (size 3 to 8) (size 9 to 14) (size 15 to 20)
#    0.000    2.000    0.000    2.000    0.000   10.667 
#    0.000   28.333    0.000    2.000    0.000    0.000 
#    0.000    0.000    0.000    0.000    0.000    0.000 
#
# Total GULP energy -67189.941718 kJ/mol
# GULP energy per Si atom -5599.161810 kJ/mol
# Density = 2.824370 g / cm^3
# Si number density = 28.308134 Si / 1000 Ang^3
#
#
#
# Elastic Constant Matrix: (Units=GPa)
#
#
# Indices 1 2 3 4 5 6 
#
# 1 314.7113 75.8322 56.2438 0.0000 -21.7212 0.0000
# 2 75.8322 113.4959 55.0833 0.0000 12.6151 0.0000
# 3 56.2438 55.0833 154.2000 0.0000 2.1052 0.0000
# 4 0.0000 0.0000 0.0000 11.1412 0.0000 18.5720
# 5 -21.7212 12.6151 2.1052 0.0000 57.6269 0.0000
# 6 0.0000 0.0000 0.0000 18.5720 0.0000 46.3978
#
#
#
# Elastic Compliance Matrix: (Units=1/GPa)
#
#
# Indices 1 2 3 4 5 6 
#
# 1 0.004073 -0.002691 -0.000554 0.000000 0.002144 0.000000
# 2 -0.002691 0.012722 -0.003513 0.000000 -0.003671 0.000000
# 3 -0.000554 -0.003513 0.007938 0.000000 0.000270 0.000000
# 4 0.000000 0.000000 0.000000 0.269741 0.000000 -0.107971
# 5 0.002144 -0.003671 0.000270 0.000000 0.018955 0.000000
# 6 0.000000 0.000000 0.000000 -0.107971 0.000000 0.064771
#
#
# Mechanical properties :
#
#
# Convention : Reuss Voigt Hill
#
# Bulk Modulus (GPa) = 89.14208 106.30288 97.72248
# Shear Modulus (GPa) = 12.64370 49.38305 31.01338
#
# Velocity S-wave (km/s) = 2.11569 4.18123 3.31352
# Velocity P-wave (km/s) = 6.12589 7.80665 7.01678
#
# Compressibility (1/GPa) = 0.01121805
#
# Stress axis : x y z
#
# Youngs Moduli (GPa) = 245.52711 78.60538 125.97383
#
# Poissons Ratio (x) = 0.21153 0.06974
# Poissons Ratio (y) = 0.66071 0.44252
# Poissons Ratio (z) = 0.13592 0.27613
#
# Static dielectric constant tensor:
#      x y z
#    x 2.298420 0.000000 0.107380 
#    y 0.000000 2.462130 0.000000 
#    z 0.107380 0.000000 2.227300 
# 
# From -- ./inp_files/28563.got.cif
#   From: 2010.05.17/outbox.cif.g08.bks.cpg/sg15_15_cif.got.tgz:28563.got - 2010.06.03 18:47:42.
