data_PCOD9292212
_publ_section_title
;
Structure prediction by ZEFSAII (Michael W. Deem and Ramdas Pophale) SiO2 
 PCOD9292212
Probable space group: C 2/C
;
_chemical_formula_sum "Si O2"
_cell_formula_units_Z 60
_cell_length_a 18.054500
_cell_length_b 26.739161
_cell_length_c 12.883970
_cell_angle_alpha 90.000000
_cell_angle_beta 153.917125
_cell_angle_gamma 90.000000
_cell_volume 2734.705172
_symmetry_space_group_name_H-M "C 2/C"
_symmetry_group_IT_number 15
_symmetry_cell_setting 'monoclinic'
loop_
_space_group_symop_operation_xyz
x,y,z
-x,y,1/2-z
-x,-y,-z
x,-y,1/2+z
1/2+x,1/2+y,z
1/2-x,1/2+y,1/2-z
1/2-x,1/2-y,-z
1/2+x,1/2-y,1/2+z
loop_
_atom_site_type_symbol
_atom_site_label
_atom_site_fract_x
_atom_site_fract_y
_atom_site_fract_z
Si Si1 0.111896 0.357361 0.786459
Si Si2 0.857749 0.082964 0.368884
Si Si3 0.199248 0.156969 0.495611
Si Si4 0.305534 0.057602 0.544443
Si Si5 0.500000 0.628427 0.750000
Si Si6 0.265976 0.810920 0.847285
Si Si7 0.557551 0.779890 0.076853
Si Si8 0.861480 0.470156 0.761715
O O1 0.092790 0.413686 0.714836
O O2 0.000000 0.359090 0.750000
O O3 0.031884 0.311556 0.623308
O O4 0.314905 0.347265 0.034601
O O5 0.841009 0.066168 0.226807
O O6 0.989862 0.099417 0.624850
O O7 0.748106 0.134153 0.219864
O O8 0.779801 0.036467 0.329856
O O9 0.275108 0.101213 0.590110
O O10 0.254084 0.181346 0.455135
O O11 0.274282 0.190395 0.680465
O O12 0.000000 0.154552 0.250000
O O13 0.302249 0.003109 0.590573
O O14 0.500000 0.064513 0.750000
O O15 0.109443 0.776349 0.617007
O O16 0.434226 0.784622 0.020171
O O17 0.000000 0.500000 0.000000
#
# Coordination Sequence:
#
# PCOD9292212 Si02
#       8
#     8   8   8   8   4   8   8   8
#     4  11  26  46  73 103 144 195 254 311 366 445
#     4  10  22  43  67  99 146 190 226 311 366 432
#     4  11  24  42  67 109 155 183 238 306 367 453
#     4  11  21  38  71 106 137 191 242 290 378 436
#     4  10  22  48  70  94 158 192 234 312 382 412
#     4  11  23  43  72 101 142 186 242 298 368 436
#     4  12  23  45  70 106 138 199 242 296 380 442
#     4  11  20  40  73 105 142 191 246 298 374 456
#
# _framework density 21.940207000000001
#
# number of rings (size 3 to 8) (size 9 to 14) (size 15 to 20)
#    0.000    1.067    4.000    4.400    0.000    3.200 
#    6.000    4.000    0.000    0.000    0.000    0.000 
#    0.000    0.000    0.000    0.000    0.000    0.000 
#
# Total GULP energy -167084.036659 kJ/mol
# GULP energy per Si atom -5569.467889 kJ/mol
# Density = 2.189027 g / cm^3
# Si number density = 21.940207 Si / 1000 Ang^3
#
#
#
# Elastic Constant Matrix: (Units=GPa)
#
#
# Indices 1 2 3 4 5 6 
#
# 1 64.7094 20.1415 25.8294 0.0000 4.0790 0.0000
# 2 20.1415 89.2543 35.0022 0.0000 4.8035 0.0000
# 3 25.8294 35.0022 95.7520 0.0000 -4.5822 0.0000
# 4 0.0000 0.0000 0.0000 15.4481 0.0000 -7.0920
# 5 4.0790 4.8035 -4.5822 0.0000 41.7788 0.0000
# 6 0.0000 0.0000 0.0000 -7.0920 0.0000 21.6726
#
#
#
# Elastic Compliance Matrix: (Units=1/GPa)
#
#
# Indices 1 2 3 4 5 6 
#
# 1 0.017931 -0.002346 -0.004072 0.000000 -0.001927 0.000000
# 2 -0.002346 0.013561 -0.004411 0.000000 -0.001814 0.000000
# 3 -0.004072 -0.004411 0.013267 0.000000 0.002360 0.000000
# 4 0.000000 0.000000 0.000000 0.076177 0.000000 0.024928
# 5 -0.001927 -0.001814 0.002360 0.000000 0.024591 0.000000
# 6 0.000000 0.000000 0.000000 0.024928 0.000000 0.054299
#
#
# Mechanical properties :
#
#
# Convention : Reuss Voigt Hill
#
# Bulk Modulus (GPa) = 43.28690 45.74020 44.51355
# Shear Modulus (GPa) = 21.81663 27.02940 24.42301
#
# Velocity S-wave (km/s) = 3.15678 3.51373 3.34003
# Velocity P-wave (km/s) = 5.74972 6.11185 5.93355
#
# Compressibility (1/GPa) = 0.02310168
#
# Stress axis : x y z
#
# Youngs Moduli (GPa) = 55.77066 73.74180 75.37269
#
# Poissons Ratio (x) = 0.17299 0.30688
# Poissons Ratio (y) = 0.13083 0.33248
# Poissons Ratio (z) = 0.22707 0.32529
#
# Static dielectric constant tensor:
#      x y z
#    x 1.875410 0.000000 -0.043930 
#    y 0.000000 1.772540 0.000000 
#    z -0.043930 0.000000 1.804370 
# 
# From -- ./inp_files/169947.got.cif
#   From: 2010.05.17/outbox.cif.g08.bks.cpg/sg15_85_cif.got.tgz:169947.got - 2010.06.03 18:47:42.
