data_PCOD9292354
_publ_section_title
;
Structure prediction by ZEFSAII (Michael W. Deem and Ramdas Pophale) SiO2 
 PCOD9292354
Probable space group: C 2/C
;
_chemical_formula_sum "Si O2"
_cell_formula_units_Z 44
_cell_length_a 7.926884
_cell_length_b 23.787102
_cell_length_c 10.677112
_cell_angle_alpha 90.000000
_cell_angle_beta 107.142554
_cell_angle_gamma 90.000000
_cell_volume 1923.810659
_symmetry_space_group_name_H-M "C 2/C"
_symmetry_group_IT_number 15
_symmetry_cell_setting 'monoclinic'
loop_
_space_group_symop_operation_xyz
x,y,z
-x,y,1/2-z
-x,-y,-z
x,-y,1/2+z
1/2+x,1/2+y,z
1/2-x,1/2+y,1/2-z
1/2-x,1/2-y,-z
1/2+x,1/2-y,1/2+z
loop_
_atom_site_type_symbol
_atom_site_label
_atom_site_fract_x
_atom_site_fract_y
_atom_site_fract_z
Si Si1 0.793401 0.264492 0.158607
Si Si2 0.700029 0.885686 0.245536
Si Si3 0.713018 0.643030 0.309783
Si Si4 0.375065 0.568735 0.004593
Si Si5 0.751363 0.952346 0.009361
Si Si6 0.500000 0.064788 0.250000
O O1 0.725243 0.323373 0.202112
O O2 0.727947 0.206327 0.203998
O O3 0.000000 0.265504 0.250000
O O4 0.750000 0.250000 0.000000
O O5 0.500000 0.887315 0.250000
O O6 0.808564 0.931627 0.347848
O O7 0.709017 0.906265 0.104830
O O8 0.500000 0.638040 0.250000
O O9 0.724632 0.621203 0.455287
O O10 0.841745 0.603403 0.262984
O O11 0.322911 0.512986 0.068891
O O12 0.584528 0.571011 0.036449
O O13 0.582373 0.966348 0.886606
#
# Coordination Sequence:
#
# PCOD9292354 Si02
#       6
#     8   8   8   8   8   4
#     4  10  22  43  70 103 143 187 237 296 367 425
#     4  11  24  44  73 105 138 185 246 298 361 432
#     4  11  23  45  70 100 142 190 233 300 362 428
#     4  11  24  46  69  97 149 187 240 299 367 418
#     4  11  27  43  69 106 140 192 243 299 356 444
#     4  12  26  44  70 106 140 188 244 288 370 430
#
# _framework density 22.871272999999999
#
# number of rings (size 3 to 8) (size 9 to 14) (size 15 to 20)
#    0.000    1.091    3.636    1.636    6.364    1.455 
#    3.273    0.909    0.000    0.000    0.000    0.000 
#    0.000    0.000    0.000    0.000    0.000    0.000 
#
# Total GULP energy -122574.279394 kJ/mol
# GULP energy per Si atom -5571.558154 kJ/mol
# Density = 2.281922 g / cm^3
# Si number density = 22.871273 Si / 1000 Ang^3
#
#
#
# Elastic Constant Matrix: (Units=GPa)
#
#
# Indices 1 2 3 4 5 6 
#
# 1 99.1038 47.3108 33.0139 0.0000 2.2520 0.0000
# 2 47.3108 115.6244 31.2499 0.0000 -22.5215 0.0000
# 3 33.0139 31.2499 110.9438 0.0000 14.2834 0.0000
# 4 0.0000 0.0000 0.0000 6.0153 0.0000 10.1767
# 5 2.2520 -22.5215 14.2834 0.0000 33.1376 0.0000
# 6 0.0000 0.0000 0.0000 10.1767 0.0000 16.0549
#
#
#
# Elastic Compliance Matrix: (Units=1/GPa)
#
#
# Indices 1 2 3 4 5 6 
#
# 1 0.013604 -0.005860 -0.001870 0.000000 -0.004101 0.000000
# 2 -0.005860 0.014385 -0.003831 0.000000 0.011826 0.000000
# 3 -0.001870 -0.003831 0.011612 0.000000 -0.007482 0.000000
# 4 0.000000 0.000000 0.000000 -2.296780 0.000000 1.455852
# 5 -0.004101 0.011826 -0.007482 0.000000 0.041718 0.000000
# 6 0.000000 0.000000 0.000000 1.455852 0.000000 -0.860530
#
#
# Mechanical properties :
#
#
# Convention : Reuss Voigt Hill
#
# Bulk Modulus (GPa) = 60.67650 60.98013 60.82831
# Shear Modulus (GPa) = -1.64076 25.31472 11.83698
#
# Velocity S-wave (km/s) = -0.84791 3.33052 2.27744
# Velocity P-wave (km/s) = 5.06247 6.44283 5.79390
#
# Compressibility (1/GPa) = 0.01648084
#
# Stress axis : x y z
#
# Youngs Moduli (GPa) = 73.50838 69.51523 86.11688
#
# Poissons Ratio (x) = 0.40736 0.16100
# Poissons Ratio (y) = 0.43076 0.32989
# Poissons Ratio (z) = 0.13743 0.26629
#
# Static dielectric constant tensor:
#      x y z
#    x 1.858810 0.000000 0.096680 
#    y 0.000000 1.880590 0.000000 
#    z 0.096680 0.000000 2.111870 
# 
# From -- ./inp_files/79477.got.cif
#   From: 2010.05.17/outbox.cif.g08.bks.cpg/sg15_40_cif.got.tgz:79477.got - 2010.06.03 18:47:42.
