data_PCOD9292601
_publ_section_title
;
Structure prediction by ZEFSAII (Michael W. Deem and Ramdas Pophale) SiO2 
 PCOD9292601
Probable space group: C 2/C
;
_chemical_formula_sum "Si O2"
_cell_formula_units_Z 44
_cell_length_a 13.182895
_cell_length_b 8.297630
_cell_length_c 17.939466
_cell_angle_alpha 90.000000
_cell_angle_beta 110.864547
_cell_angle_gamma 90.000000
_cell_volume 1833.660100
_symmetry_space_group_name_H-M "C 2/C"
_symmetry_group_IT_number 15
_symmetry_cell_setting 'monoclinic'
loop_
_space_group_symop_operation_xyz
x,y,z
-x,y,1/2-z
-x,-y,-z
x,-y,1/2+z
1/2+x,1/2+y,z
1/2-x,1/2+y,1/2-z
1/2-x,1/2-y,-z
1/2+x,1/2-y,1/2+z
loop_
_atom_site_type_symbol
_atom_site_label
_atom_site_fract_x
_atom_site_fract_y
_atom_site_fract_z
Si Si1 0.910193 0.336096 0.112618
Si Si2 0.337910 0.119353 0.846562
Si Si3 0.829396 0.993175 0.816295
Si Si4 0.058563 0.830660 0.032062
Si Si5 0.500000 0.619245 0.250000
Si Si6 0.154448 0.374779 0.986623
O O1 0.908226 0.229615 0.186152
O O2 0.845215 0.497867 0.080167
O O3 0.036647 0.390168 0.143081
O O4 0.895277 0.230861 0.034221
O O5 0.314021 0.312256 0.843876
O O6 0.263572 0.038353 0.765753
O O7 0.325883 0.048224 0.926376
O O8 0.941545 0.982026 0.798234
O O9 0.850912 0.128951 0.883455
O O10 0.963237 0.711402 0.035733
O O11 0.000000 0.000000 0.000000
O O12 0.250000 0.250000 0.000000
#
# Coordination Sequence:
#
# PCOD9292601 Si02
#       6
#     8   8   8   8   4   8
#     4  10  23  45  68  87 138 175 212 270 328 392
#     4  10  23  41  64  94 127 169 221 262 328 392
#     4  11  24  40  68  95 128 169 217 269 325 390
#     4  11  20  45  68  90 128 179 213 263 327 397
#     4  10  22  44  64  98 132 160 218 270 328 372
#     4  11  25  42  64  99 130 169 225 266 329 389
#
# _framework density 23.995723999999999
#
# number of rings (size 3 to 8) (size 9 to 14) (size 15 to 20)
#    0.000    1.455    5.455    2.182    7.636    2.909 
#    0.000    1.818    0.000    0.000    0.000    0.000 
#    0.000    0.000    0.000    0.000    0.000    0.000 
#
# Total GULP energy -123185.957147 kJ/mol
# GULP energy per Si atom -5599.361689 kJ/mol
# Density = 2.394111 g / cm^3
# Si number density = 23.995724 Si / 1000 Ang^3
#
#
#
# Elastic Constant Matrix: (Units=GPa)
#
#
# Indices 1 2 3 4 5 6 
#
# 1 50.8691 14.4794 22.3985 0.0000 0.5016 0.0000
# 2 14.4794 80.7722 41.7312 0.0000 12.6103 0.0000
# 3 22.3985 41.7312 148.0127 0.0000 22.9988 0.0000
# 4 0.0000 0.0000 0.0000 59.4813 0.0000 4.4182
# 5 0.5016 12.6103 22.9988 0.0000 34.4290 0.0000
# 6 0.0000 0.0000 0.0000 4.4182 0.0000 20.2136
#
#
#
# Elastic Compliance Matrix: (Units=1/GPa)
#
#
# Indices 1 2 3 4 5 6 
#
# 1 0.021710 -0.002804 -0.002907 0.000000 0.002653 0.000000
# 2 -0.002804 0.015114 -0.003329 0.000000 -0.003271 0.000000
# 3 -0.002907 -0.003329 0.008858 0.000000 -0.004656 0.000000
# 4 0.000000 0.000000 0.000000 0.017089 0.000000 -0.003735
# 5 0.002653 -0.003271 -0.004656 0.000000 0.033315 0.000000
# 6 0.000000 0.000000 0.000000 -0.003735 0.000000 0.050288
#
#
# Mechanical properties :
#
#
# Convention : Reuss Voigt Hill
#
# Bulk Modulus (GPa) = 36.22837 48.54137 42.38487
# Shear Modulus (GPa) = 28.79286 36.22778 32.51032
#
# Velocity S-wave (km/s) = 3.46774 3.88978 3.68481
# Velocity P-wave (km/s) = 5.58249 6.35979 5.98378
#
# Compressibility (1/GPa) = 0.02760268
#
# Stress axis : x y z
#
# Youngs Moduli (GPa) = 46.06119 66.16570 112.89284
#
# Poissons Ratio (x) = 0.18553 0.32817
# Poissons Ratio (y) = 0.12916 0.37577
# Poissons Ratio (z) = 0.13390 0.22023
#
# Static dielectric constant tensor:
#      x y z
#    x 1.924230 0.000000 -0.008260 
#    y 0.000000 1.931980 0.000000 
#    z -0.008260 0.000000 1.914260 
# 
# From -- ./inp_files/202544.got.cif
#   From: 2010.05.17/outbox.cif.g08.bks.cpg/sg15_102_cif.got.tgz:202544.got - 2010.06.03 18:47:42.
