data_PCOD9292033
_publ_section_title
;
Structure prediction by ZEFSAII (Michael W. Deem and Ramdas Pophale) SiO2 
 PCOD9292033
Probable space group: C 2/C
;
_chemical_formula_sum "Si O2"
_cell_formula_units_Z 44
_cell_length_a 6.166105
_cell_length_b 18.654204
_cell_length_c 22.639444
_cell_angle_alpha 90.000000
_cell_angle_beta 131.392246
_cell_angle_gamma 90.000000
_cell_volume 1953.578102
_symmetry_space_group_name_H-M "C 2/C"
_symmetry_group_IT_number 15
_symmetry_cell_setting 'monoclinic'
loop_
_space_group_symop_operation_xyz
x,y,z
-x,y,1/2-z
-x,-y,-z
x,-y,1/2+z
1/2+x,1/2+y,z
1/2-x,1/2+y,1/2-z
1/2-x,1/2-y,-z
1/2+x,1/2-y,1/2+z
loop_
_atom_site_type_symbol
_atom_site_label
_atom_site_fract_x
_atom_site_fract_y
_atom_site_fract_z
Si Si1 0.592945 0.685499 0.576057
Si Si2 0.669119 0.052161 0.168388
Si Si3 0.447855 0.354282 0.306614
Si Si4 0.500000 0.981000 0.250000
Si Si5 0.092737 0.660492 0.058995
Si Si6 0.434614 0.080358 0.560262
O O1 0.654078 0.693353 0.657002
O O2 0.254228 0.672633 0.503202
O O3 0.706121 0.759062 0.567754
O O4 0.744638 0.615124 0.577732
O O5 0.671045 0.128329 0.136627
O O6 0.000000 0.038499 0.250000
O O7 0.468501 0.033971 0.188612
O O8 0.525791 0.999980 0.092679
O O9 0.500000 0.325805 0.250000
O O10 0.246856 0.425050 0.273241
O O11 0.762991 0.379065 0.382307
O O12 0.188841 0.604981 0.025079
#
# Coordination Sequence:
#
# PCOD9292033 Si02
#       6
#     8   8   8   4   8   8
#     4  10  22  43  65  94 130 174 223 266 328 401
#     4  12  24  42  62  98 133 168 217 279 334 389
#     4  11  19  37  64  93 125 169 221 266 317 390
#     4  12  20  40  64  90 134 168 214 272 324 396
#     4  10  25  42  63  97 134 169 217 274 332 394
#     4  11  20  40  70  91 125 171 218 270 322 397
#
# _framework density 22.522774999999999
#
# number of rings (size 3 to 8) (size 9 to 14) (size 15 to 20)
#    0.000    1.091    5.455    1.091    0.000    2.182 
#    6.545    0.000    0.000    0.000    0.000    0.000 
#    0.000    0.000    0.000    0.000    0.000    0.000 
#
# Total GULP energy -122577.458450 kJ/mol
# GULP energy per Si atom -5571.702657 kJ/mol
# Density = 2.247151 g / cm^3
# Si number density = 22.522775 Si / 1000 Ang^3
#
#
#
# Elastic Constant Matrix: (Units=GPa)
#
#
# Indices 1 2 3 4 5 6 
#
# 1 60.0785 10.0713 25.6307 0.0000 -18.9867 0.0000
# 2 10.0713 64.0771 17.8825 0.0000 -12.5572 0.0000
# 3 25.6307 17.8825 64.7756 0.0000 -27.8172 0.0000
# 4 0.0000 0.0000 0.0000 32.8529 0.0000 -2.2495
# 5 -18.9867 -12.5572 -27.8172 0.0000 41.7674 0.0000
# 6 0.0000 0.0000 0.0000 -2.2495 0.0000 9.7489
#
#
#
# Elastic Compliance Matrix: (Units=1/GPa)
#
#
# Indices 1 2 3 4 5 6 
#
# 1 0.020941 -0.000607 -0.005755 0.000000 0.005504 0.000000
# 2 -0.000607 0.017158 -0.003361 0.000000 0.002644 0.000000
# 3 -0.005755 -0.003361 0.023930 0.000000 0.012311 0.000000
# 4 0.000000 0.000000 0.000000 0.030927 0.000000 0.007136
# 5 0.005504 0.002644 0.012311 0.000000 0.035438 0.000000
# 6 0.000000 0.000000 0.000000 0.007136 0.000000 0.104222
#
#
# Mechanical properties :
#
#
# Convention : Reuss Voigt Hill
#
# Bulk Modulus (GPa) = 23.48348 32.90002 28.19175
# Shear Modulus (GPa) = 18.77892 25.89697 22.33794
#
# Velocity S-wave (km/s) = 2.89065 3.39457 3.15269
# Velocity P-wave (km/s) = 4.64654 5.47752 5.07905
#
# Compressibility (1/GPa) = 0.04258313
#
# Stress axis : x y z
#
# Youngs Moduli (GPa) = 47.75257 58.28270 41.78931
#
# Poissons Ratio (x) = 0.03536 0.24049
# Poissons Ratio (y) = 0.02897 0.14046
# Poissons Ratio (z) = 0.27481 0.19590
#
# Static dielectric constant tensor:
#      x y z
#    x 1.725620 0.000000 -0.176900 
#    y 0.000000 1.837190 0.000000 
#    z -0.176900 0.000000 1.818280 
# 
# From -- ./inp_files/260935.got.cif
#   From: 2010.05.17/outbox.cif.g08.bks.cpg/sg15_131_cif.got.tgz:260935.got - 2010.06.03 18:47:42.
