data_PCOD9292616
_publ_section_title
;
Structure prediction by ZEFSAII (Michael W. Deem and Ramdas Pophale) SiO2 
 PCOD9292616
Probable space group: C 2/C
;
_chemical_formula_sum "Si O2"
_cell_formula_units_Z 40
_cell_length_a 11.349084
_cell_length_b 14.344877
_cell_length_c 11.363845
_cell_angle_alpha 90.000000
_cell_angle_beta 71.617019
_cell_angle_gamma 90.000000
_cell_volume 1755.639324
_symmetry_space_group_name_H-M "C 2/C"
_symmetry_group_IT_number 15
_symmetry_cell_setting 'monoclinic'
loop_
_space_group_symop_operation_xyz
x,y,z
-x,y,1/2-z
-x,-y,-z
x,-y,1/2+z
1/2+x,1/2+y,z
1/2-x,1/2+y,1/2-z
1/2-x,1/2-y,-z
1/2+x,1/2-y,1/2+z
loop_
_atom_site_type_symbol
_atom_site_label
_atom_site_fract_x
_atom_site_fract_y
_atom_site_fract_z
Si Si1 0.380451 0.884550 0.368993
Si Si2 0.468205 0.817206 0.594543
Si Si3 0.448642 0.419169 0.647266
Si Si4 0.816383 0.399427 0.858758
Si Si5 0.117399 0.118646 0.878255
O O1 0.500000 0.876704 0.250000
O O2 0.413458 0.840133 0.483945
O O3 0.257163 0.844299 0.347876
O O4 0.340330 0.993407 0.387542
O O5 0.389469 0.876986 0.714257
O O6 0.612122 0.843685 0.562806
O O7 0.457588 0.709577 0.631603
O O8 0.500000 0.374041 0.750000
O O9 0.327116 0.378008 0.621848
O O10 0.401534 0.524971 0.690932
O O11 0.563001 0.414907 0.521405
#
# Coordination Sequence:
#
# PCOD9292616 Si02
#       5
#     8   8   8   8   8
#     4  11  22  41  64  94 128 177 211 257 326 384
#     4  11  22  40  64  96 132 157 228 268 300 388
#     4  10  22  44  65  87 134 171 212 259 331 384
#     4  10  23  39  66  94 125 174 212 261 330 369
#     4  10  24  40  62  98 124 173 216 263 319 374
#
# _framework density 22.783723999999999
#
# number of rings (size 3 to 8) (size 9 to 14) (size 15 to 20)
#    0.000    1.600    2.000    2.400    2.800    3.200 
#    7.200    0.000    0.000    0.000    0.000    0.000 
#    0.000    0.000    0.000    0.000    0.000    0.000 
#
# Total GULP energy -111693.148660 kJ/mol
# GULP energy per Si atom -5584.657433 kJ/mol
# Density = 2.273187 g / cm^3
# Si number density = 22.783724 Si / 1000 Ang^3
#
#
#
# Elastic Constant Matrix: (Units=GPa)
#
#
# Indices 1 2 3 4 5 6 
#
# 1 143.3757 6.0753 27.7174 0.0000 -9.3315 0.0000
# 2 6.0753 66.3065 -18.1665 0.0000 7.0889 0.0000
# 3 27.7174 -18.1665 23.7755 0.0000 -4.4840 0.0000
# 4 0.0000 0.0000 0.0000 -0.0616 0.0000 -16.5747
# 5 -9.3315 7.0889 -4.4840 0.0000 33.9960 0.0000
# 6 0.0000 0.0000 0.0000 -16.5747 0.0000 0.0435
#
#
#
# Elastic Compliance Matrix: (Units=1/GPa)
#
#
# Indices 1 2 3 4 5 6 
#
# 1 0.010439 -0.005560 -0.016058 0.000000 0.001907 0.000000
# 2 -0.005560 0.022184 0.022840 0.000000 -0.003139 0.000000
# 3 -0.016058 0.022840 0.078454 0.000000 0.001178 0.000000
# 4 0.000000 0.000000 0.000000 -0.000158 0.000000 -0.060332
# 5 0.001907 -0.003139 0.001178 0.000000 0.030749 0.000000
# 6 0.000000 0.000000 0.000000 -0.060332 0.000000 0.000224
#
#
# Mechanical properties :
#
#
# Convention : Reuss Voigt Hill
#
# Bulk Modulus (GPa) = 8.80892 29.41224 19.11058
# Shear Modulus (GPa) = 28.20294 21.31769 24.76032
#
# Velocity S-wave (km/s) = 3.52213 3.06217 3.30017
# Velocity P-wave (km/s) = 4.51833 5.04379 4.78827
#
# Compressibility (1/GPa) = 0.11352127
#
# Stress axis : x y z
#
# Youngs Moduli (GPa) = 95.79781 45.07722 12.74636
#
# Poissons Ratio (x) = 0.25062 0.20468
# Poissons Ratio (y) = 0.53261 -0.29113
# Poissons Ratio (z) = 1.53830 -1.02956
#
# Static dielectric constant tensor:
#      x y z
#    x 1.888100 0.000000 0.001200 
#    y 0.000000 1.901080 0.000000 
#    z 0.001200 0.000000 1.805290 
# 
# From -- ./inp_files/85948.got.cif
#   From: 2010.05.17/outbox.cif.g08.bks.cpg/sg15_43_cif.got.tgz:85948.got - 2010.06.03 18:47:42.
