data_PCOD9292832
_publ_section_title
;
Structure prediction by ZEFSAII (Michael W. Deem and Ramdas Pophale) SiO2 
 PCOD9292832
Probable space group: C 2/C
;
_chemical_formula_sum "Si O2"
_cell_formula_units_Z 44
_cell_length_a 6.952453
_cell_length_b 14.029367
_cell_length_c 20.763548
_cell_angle_alpha 90.000000
_cell_angle_beta 94.689848
_cell_angle_gamma 90.000000
_cell_volume 2018.464885
_symmetry_space_group_name_H-M "C 2/C"
_symmetry_group_IT_number 15
_symmetry_cell_setting 'monoclinic'
loop_
_space_group_symop_operation_xyz
x,y,z
-x,y,1/2-z
-x,-y,-z
x,-y,1/2+z
1/2+x,1/2+y,z
1/2-x,1/2+y,1/2-z
1/2-x,1/2-y,-z
1/2+x,1/2-y,1/2+z
loop_
_atom_site_type_symbol
_atom_site_label
_atom_site_fract_x
_atom_site_fract_y
_atom_site_fract_z
Si Si1 0.119961 0.695352 0.442269
Si Si2 0.995360 0.103565 0.569090
Si Si3 0.000000 0.318656 0.250000
Si Si4 0.418472 0.350969 0.841864
Si Si5 0.337189 0.541350 0.795409
Si Si6 0.235749 0.075582 0.445341
O O1 0.250000 0.750000 0.500000
O O2 0.269577 0.652273 0.396658
O O3 0.023164 0.788496 0.408526
O O4 0.949869 0.620628 0.455242
O O5 0.113702 0.103832 0.505733
O O6 0.108882 0.051679 0.628537
O O7 0.799331 0.039664 0.557295
O O8 0.939194 0.249286 0.306625
O O9 0.837615 0.390757 0.222691
O O10 0.328517 0.427013 0.789117
O O11 0.623603 0.381988 0.879690
O O12 0.500000 0.572840 0.750000
#
# Coordination Sequence:
#
# PCOD9292832 Si02
#       6
#     8   8   4   8   8   8
#     4  12  24  38  68 106 136 177 231 281 361 424
#     4  10  22  44  68  95 140 184 230 290 356 413
#     4  12  26  46  76  96 140 192 236 292 356 424
#     4  11  25  46  68 103 139 180 234 297 350 423
#     4  11  25  47  68  99 136 183 241 289 351 424
#     4  10  23  44  66  99 142 181 226 300 343 422
#
# _framework density 21.798745
#
# number of rings (size 3 to 8) (size 9 to 14) (size 15 to 20)
#    0.000    1.091    2.727    2.727    2.545    5.091 
#    4.909    0.000    0.000    0.000    0.000    0.000 
#    0.000    0.000    0.000    0.000    0.000    0.000 
#
# Total GULP energy -122742.710929 kJ/mol
# GULP energy per Si atom -5579.214133 kJ/mol
# Density = 2.174913 g / cm^3
# Si number density = 21.798745 Si / 1000 Ang^3
#
#
#
# Elastic Constant Matrix: (Units=GPa)
#
#
# Indices 1 2 3 4 5 6 
#
# 1 134.9718 82.6537 45.5942 0.0000 0.5684 0.0000
# 2 82.6537 121.5353 39.3992 0.0000 5.7459 0.0000
# 3 45.5942 39.3992 82.0032 0.0000 2.2695 0.0000
# 4 0.0000 0.0000 0.0000 44.4120 0.0000 -8.0765
# 5 0.5684 5.7459 2.2695 0.0000 25.9279 0.0000
# 6 0.0000 0.0000 0.0000 -8.0765 0.0000 128.3173
#
#
#
# Elastic Compliance Matrix: (Units=1/GPa)
#
#
# Indices 1 2 3 4 5 6 
#
# 1 0.013663 -0.008172 -0.003721 0.000000 0.001837 0.000000
# 2 -0.008172 0.014715 -0.002447 0.000000 -0.002868 0.000000
# 3 -0.003721 -0.002447 0.015459 0.000000 -0.000729 0.000000
# 4 0.000000 0.000000 0.000000 0.022777 0.000000 0.001434
# 5 0.001837 -0.002868 -0.000729 0.000000 0.039228 0.000000
# 6 0.000000 0.000000 0.000000 0.001434 0.000000 0.007883
#
#
# Mechanical properties :
#
#
# Convention : Reuss Voigt Hill
#
# Bulk Modulus (GPa) = 65.97672 74.86718 70.42195
# Shear Modulus (GPa) = 33.90832 51.12233 42.51532
#
# Velocity S-wave (km/s) = 3.94828 4.84798 4.42108
# Velocity P-wave (km/s) = 7.14963 8.10903 7.64440
#
# Compressibility (1/GPa) = 0.01515686
#
# Stress axis : x y z
#
# Youngs Moduli (GPa) = 73.19183 67.95970 64.68670
#
# Poissons Ratio (x) = 0.55539 0.24069
# Poissons Ratio (y) = 0.59815 0.15826
# Poissons Ratio (z) = 0.27234 0.16627
#
# Static dielectric constant tensor:
#      x y z
#    x 1.843820 0.000000 0.118860 
#    y 0.000000 1.917370 0.000000 
#    z 0.118860 0.000000 1.894620 
# 
# From -- ./inp_files/260444.got.cif
#   From: 2010.05.17/outbox.cif.g08.bks.cpg/sg15_131_cif.got.tgz:260444.got - 2010.06.03 18:47:42.
