data_PCOD9292482
_publ_section_title
;
Structure prediction by ZEFSAII (Michael W. Deem and Ramdas Pophale) SiO2 
 PCOD9292482
Probable space group: C 2/C
;
_chemical_formula_sum "Si O2"
_cell_formula_units_Z 44
_cell_length_a 16.410247
_cell_length_b 13.663501
_cell_length_c 9.665101
_cell_angle_alpha 90.000000
_cell_angle_beta 58.899752
_cell_angle_gamma 90.000000
_cell_volume 1855.631018
_symmetry_space_group_name_H-M "C 2/C"
_symmetry_group_IT_number 15
_symmetry_cell_setting 'monoclinic'
loop_
_space_group_symop_operation_xyz
x,y,z
-x,y,1/2-z
-x,-y,-z
x,-y,1/2+z
1/2+x,1/2+y,z
1/2-x,1/2+y,1/2-z
1/2-x,1/2-y,-z
1/2+x,1/2-y,1/2+z
loop_
_atom_site_type_symbol
_atom_site_label
_atom_site_fract_x
_atom_site_fract_y
_atom_site_fract_z
Si Si1 0.888974 0.056495 0.302835
Si Si2 0.338678 0.840769 0.712850
Si Si3 0.887038 0.274591 0.359138
Si Si4 0.500000 0.263873 0.250000
Si Si5 0.072043 0.465272 0.316517
Si Si6 0.853271 0.108211 0.032345
O O1 0.847881 0.164798 0.374854
O O2 0.000000 0.049572 0.250000
O O3 0.835521 0.968660 0.425510
O O4 0.878583 0.048993 0.148174
O O5 0.359204 0.813735 0.535596
O O6 0.421351 0.796258 0.735164
O O7 0.345358 0.956503 0.735478
O O8 0.233165 0.818330 0.858059
O O9 0.878277 0.359442 0.250178
O O10 0.000000 0.257321 0.250000
O O11 0.555480 0.329506 0.091350
O O12 0.000000 0.474189 0.250000
O O13 0.000000 0.500000 0.500000
#
# Coordination Sequence:
#
# PCOD9292482 Si02
#       6
#     8   8   8   4   8   8
#     4  11  25  50  77 107 152 199 251 315 381 451
#     4  12  26  45  74 115 147 200 257 312 376 461
#     4  10  22  43  73 105 146 196 248 299 377 442
#     4  12  26  52  74 106 156 202 250 316 386 446
#     4  11  21  40  67 104 149 196 236 294 377 435
#     4  12  29  47  78 114 146 200 258 317 378 454
#
# _framework density 23.711611000000001
#
# number of rings (size 3 to 8) (size 9 to 14) (size 15 to 20)
#    0.000    0.727    5.455    3.273    5.091    0.727 
#    0.000    0.000    0.000    0.000    0.000    0.000 
#    0.000    0.000    0.000    0.000    0.000    0.000 
#
# Total GULP energy -122933.282688 kJ/mol
# GULP energy per Si atom -5587.876486 kJ/mol
# Density = 2.365764 g / cm^3
# Si number density = 23.711611 Si / 1000 Ang^3
#
#
#
# Elastic Constant Matrix: (Units=GPa)
#
#
# Indices 1 2 3 4 5 6 
#
# 1 87.6806 -0.6401 53.6018 0.0000 -13.0873 0.0000
# 2 -0.6401 83.0661 31.9032 0.0000 -7.8048 0.0000
# 3 53.6018 31.9032 155.8122 0.0000 -13.6251 0.0000
# 4 0.0000 0.0000 0.0000 -38.0607 0.0000 42.3725
# 5 -13.0873 -7.8048 -13.6251 0.0000 31.5889 0.0000
# 6 0.0000 0.0000 0.0000 42.3725 0.0000 -11.9504
#
#
#
# Elastic Compliance Matrix: (Units=1/GPa)
#
#
# Indices 1 2 3 4 5 6 
#
# 1 0.015459 0.002655 -0.005450 0.000000 0.004710 0.000000
# 2 0.002655 0.013665 -0.003450 0.000000 0.002988 0.000000
# 3 -0.005450 -0.003450 0.009069 0.000000 0.000802 0.000000
# 4 0.000000 0.000000 0.000000 0.008914 0.000000 0.031607
# 5 0.004710 0.002988 0.000802 0.000000 0.034692 0.000000
# 6 0.000000 0.000000 0.000000 0.031607 0.000000 0.028391
#
#
# Mechanical properties :
#
#
# Convention : Reuss Voigt Hill
#
# Bulk Modulus (GPa) = 38.90560 55.14320 47.02440
# Shear Modulus (GPa) = 38.09564 12.42848 25.26206
#
# Velocity S-wave (km/s) = 4.01262 2.29192 3.26757
# Velocity P-wave (km/s) = 6.15724 5.50546 5.84045
#
# Compressibility (1/GPa) = 0.02570324
#
# Stress axis : x y z
#
# Youngs Moduli (GPa) = 64.68666 73.18054 110.26186
#
# Poissons Ratio (x) = -0.19428 0.60092
# Poissons Ratio (y) = -0.17173 0.38040
# Poissons Ratio (z) = 0.35254 0.25247
#
# Static dielectric constant tensor:
#      x y z
#    x 1.978530 0.000000 -0.083990 
#    y 0.000000 1.955700 0.000000 
#    z -0.083990 0.000000 1.900030 
# 
# From -- ./inp_files/47390.got.cif
#   From: 2010.05.17/outbox.cif.g08.bks.cpg/sg15_24_cif.got.tgz:47390.got - 2010.06.03 18:47:42.
