data_PCOD9292654
_publ_section_title
;
Structure prediction by ZEFSAII (Michael W. Deem and Ramdas Pophale) SiO2 
 PCOD9292654
Probable space group: C 2/C
;
_chemical_formula_sum "Si O2"
_cell_formula_units_Z 56
_cell_length_a 10.868058
_cell_length_b 15.846104
_cell_length_c 27.940095
_cell_angle_alpha 90.000000
_cell_angle_beta 27.413260
_cell_angle_gamma 90.000000
_cell_volume 2215.351205
_symmetry_space_group_name_H-M "C 2/C"
_symmetry_group_IT_number 15
_symmetry_cell_setting 'monoclinic'
loop_
_space_group_symop_operation_xyz
x,y,z
-x,y,1/2-z
-x,-y,-z
x,-y,1/2+z
1/2+x,1/2+y,z
1/2-x,1/2+y,1/2-z
1/2-x,1/2-y,-z
1/2+x,1/2-y,1/2+z
loop_
_atom_site_type_symbol
_atom_site_label
_atom_site_fract_x
_atom_site_fract_y
_atom_site_fract_z
Si Si1 0.599805 0.707254 0.322992
Si Si2 0.500000 0.255988 0.750000
Si Si3 0.022414 0.065053 0.032869
Si Si4 0.054106 0.195519 0.517588
Si Si5 0.801084 0.011307 0.861525
Si Si6 0.000000 0.385297 0.750000
Si Si7 0.699418 0.888858 0.478584
Si Si8 0.059301 0.362292 0.061361
O O1 0.584135 0.699152 0.271110
O O2 0.324517 0.668372 0.440934
O O3 0.569005 0.800555 0.355583
O O4 0.876129 0.671018 0.249500
O O5 0.764761 0.205819 0.642582
O O6 0.754878 0.056672 0.154480
O O7 0.992999 0.158182 0.018896
O O8 0.309774 0.059432 0.956520
O O9 0.000000 0.000000 0.000000
O O10 0.217140 0.130656 0.495106
O O11 0.179486 0.289209 0.470353
O O12 0.888946 0.042875 0.884411
O O13 0.663507 0.099851 0.894681
O O14 0.000000 0.992934 0.750000
O O15 0.585408 0.935554 0.932677
#
# Coordination Sequence:
#
# PCOD9292654 Si02
#       8
#     8   4   8   8   8   4   8   8
#     4  10  23  42  70 108 146 186 256 293 371 433
#     4  12  24  39  70 115 140 192 246 306 349 448
#     4  11  24  47  70 104 142 184 241 300 363 439
#     4  11  25  44  71  99 148 190 234 304 365 439
#     4  11  25  44  75 101 141 189 243 303 366 442
#     4  10  26  43  76 105 138 200 238 304 365 456
#     4  10  26  47  64 106 144 186 239 300 369 434
#     4  10  22  44  66 101 146 188 230 310 361 434
#
# _framework density 25.278158000000001
#
# number of rings (size 3 to 8) (size 9 to 14) (size 15 to 20)
#    0.000    1.429    1.429    1.714   12.000    0.571 
#    0.000    4.286    0.000    0.000    0.000    0.000 
#    0.000    0.000    0.000    0.000    0.000    0.000 
#
# Total GULP energy -156211.359277 kJ/mol
# GULP energy per Si atom -5578.977117 kJ/mol
# Density = 2.522062 g / cm^3
# Si number density = 25.278158 Si / 1000 Ang^3
#
#
#
# Elastic Constant Matrix: (Units=GPa)
#
#
# Indices 1 2 3 4 5 6 
#
# 1 134.9272 34.3714 6.8663 -0.0237 11.2164 -0.0142
# 2 34.3714 85.3223 3.4752 -0.0214 4.8752 -0.0011
# 3 6.8663 3.4752 78.3510 -0.0335 11.9691 0.0065
# 4 -0.0237 -0.0214 -0.0335 11.3071 0.0222 2.6694
# 5 11.2164 4.8752 11.9691 0.0222 30.9280 0.0102
# 6 -0.0142 -0.0011 0.0065 2.6694 0.0102 58.5819
#
#
#
# Elastic Compliance Matrix: (Units=1/GPa)
#
#
# Indices 1 2 3 4 5 6 
#
# 1 0.008458 -0.003257 -0.000220 0.000015 -0.002469 0.000002
# 2 -0.003257 0.013086 -0.000170 0.000019 -0.000816 -0.000001
# 3 -0.000220 -0.000170 0.013576 0.000050 -0.005148 -0.000003
# 4 0.000015 0.000019 0.000050 0.089402 -0.000091 -0.004074
# 5 -0.002469 -0.000816 -0.005148 -0.000091 0.035349 -0.000002
# 6 0.000002 -0.000001 -0.000003 -0.004074 -0.000002 0.017256
#
#
# Mechanical properties :
#
#
# Convention : Reuss Voigt Hill
#
# Bulk Modulus (GPa) = 35.93798 43.11403 39.52601
# Shear Modulus (GPa) = 25.81369 37.08925 31.45147
#
# Velocity S-wave (km/s) = 3.19907 3.83462 3.53117
# Velocity P-wave (km/s) = 5.28141 6.05794 5.68295
#
# Compressibility (1/GPa) = 0.02782572
#
# Stress axis : x y z
#
# Youngs Moduli (GPa) = 118.23809 76.41821 73.65805
#
# Poissons Ratio (x) = 0.24890 0.01617
# Poissons Ratio (y) = 0.38510 0.01255
# Poissons Ratio (z) = 0.02596 0.01302
#
# Static dielectric constant tensor:
#      x y z
#    x 2.097180 0.000000 0.079630 
#    y 0.000000 2.070740 0.000020 
#    z 0.079630 0.000020 2.046730 
# 
# From -- ./inp_files/311351.got.cif
#   From: 2010.05.17/outbox.cif.g08.bks.cpg/sg15_156_cif.got.tgz:311351.got - 2010.06.03 18:47:42.
