data_PCOD9292566
_publ_section_title
;
Structure prediction by ZEFSAII (Michael W. Deem and Ramdas Pophale) SiO2 
 PCOD9292566
Probable space group: C 2/C
;
_chemical_formula_sum "Si O2"
_cell_formula_units_Z 60
_cell_length_a 21.247473
_cell_length_b 12.202053
_cell_length_c 24.684444
_cell_angle_alpha 90.000000
_cell_angle_beta 151.921109
_cell_angle_gamma 90.000000
_cell_volume 3012.281899
_symmetry_space_group_name_H-M "C 2/C"
_symmetry_group_IT_number 15
_symmetry_cell_setting 'monoclinic'
loop_
_space_group_symop_operation_xyz
x,y,z
-x,y,1/2-z
-x,-y,-z
x,-y,1/2+z
1/2+x,1/2+y,z
1/2-x,1/2+y,1/2-z
1/2-x,1/2-y,-z
1/2+x,1/2-y,1/2+z
loop_
_atom_site_type_symbol
_atom_site_label
_atom_site_fract_x
_atom_site_fract_y
_atom_site_fract_z
Si Si1 0.100256 0.099302 0.079556
Si Si2 0.271698 0.918063 0.405073
Si Si3 0.960268 0.222741 0.156758
Si Si4 0.500000 0.939940 0.750000
Si Si5 0.711585 0.933453 0.476322
Si Si6 0.961451 0.687637 0.426746
Si Si7 0.850898 0.309213 0.723636
Si Si8 0.305841 0.612727 0.226645
O O1 0.234459 0.100841 0.145398
O O2 0.141434 0.102508 0.172925
O O3 0.029107 0.209537 0.006442
O O4 0.000000 0.000000 0.000000
O O5 0.423744 0.900604 0.499887
O O6 0.205708 0.797707 0.350181
O O7 0.270498 0.977579 0.462368
O O8 0.194407 0.999815 0.306343
O O9 0.883371 0.331356 0.078098
O O10 0.000000 0.234607 0.250000
O O11 0.097173 0.197164 0.229903
O O12 0.853804 0.122599 0.070322
O O13 0.464357 0.864741 0.774092
O O14 0.370950 0.011297 0.635205
O O15 0.899917 0.720681 0.321426
O O16 0.846940 0.647857 0.380368
#
# Coordination Sequence:
#
# PCOD9292566 Si02
#       8
#     8   8   8   4   8   8   8   8
#     4  10  23  41  61  93 128 165 209 267 316 377
#     4  11  22  44  66  94 130 171 212 269 322 385
#     4  11  24  44  64  99 131 164 221 269 319 395
#     4  12  24  44  68  94 128 178 216 264 336 384
#     4  11  25  42  68  94 132 170 214 274 327 382
#     4  10  22  44  63  95 131 166 217 264 317 390
#     4  10  24  41  63  95 128 165 220 263 314 396
#     4  11  24  39  68  94 124 173 211 263 327 382
#
# _framework density 19.918454000000001
#
# number of rings (size 3 to 8) (size 9 to 14) (size 15 to 20)
#    0.000    1.333    3.333    1.200    3.733    2.667 
#    2.400    0.000    0.000    0.000    0.000    0.000 
#    0.000    0.000    0.000    0.000    0.000    0.000 
#
# Total GULP energy -167484.588498 kJ/mol
# GULP energy per Si atom -5582.819617 kJ/mol
# Density = 1.987312 g / cm^3
# Si number density = 19.918454 Si / 1000 Ang^3
#
#
#
# Elastic Constant Matrix: (Units=GPa)
#
#
# Indices 1 2 3 4 5 6 
#
# 1 46.9595 9.9120 4.7747 0.0006 -5.4135 0.0002
# 2 9.9120 37.6299 19.3579 0.0004 -12.3737 0.0002
# 3 4.7747 19.3579 71.4898 0.0014 -8.8027 0.0007
# 4 0.0006 0.0004 0.0014 39.9046 0.0007 3.3282
# 5 -5.4135 -12.3737 -8.8027 0.0007 26.0563 0.0003
# 6 0.0002 0.0002 0.0007 3.3282 0.0003 27.1849
#
#
#
# Elastic Compliance Matrix: (Units=1/GPa)
#
#
# Indices 1 2 3 4 5 6 
#
# 1 0.022659 -0.005338 0.000208 0.000000 0.002243 0.000000
# 2 -0.005338 0.036479 -0.007851 0.000000 0.013562 0.000000
# 3 0.000208 -0.007851 0.016325 0.000000 0.001830 0.000000
# 4 0.000000 0.000000 0.000000 0.025318 -0.000001 -0.003100
# 5 0.002243 0.013562 0.001830 -0.000001 0.045903 -0.000001
# 6 0.000000 0.000000 0.000000 -0.003100 -0.000001 0.037165
#
#
# Mechanical properties :
#
#
# Convention : Reuss Voigt Hill
#
# Bulk Modulus (GPa) = 20.20151 24.90759 22.55455
# Shear Modulus (GPa) = 22.09336 26.76481 24.42909
#
# Velocity S-wave (km/s) = 3.33406 3.66965 3.50588
# Velocity P-wave (km/s) = 4.99854 5.52151 5.26652
#
# Compressibility (1/GPa) = 0.04950124
#
# Stress axis : x y z
#
# Youngs Moduli (GPa) = 44.13232 27.41292 61.25414
#
# Poissons Ratio (x) = 0.14634 -0.01276
# Poissons Ratio (y) = 0.23559 0.48093
# Poissons Ratio (z) = -0.00919 0.21523
#
# Static dielectric constant tensor:
#      x y z
#    x 1.712520 0.000000 0.018860 
#    y 0.000000 1.675040 0.000000 
#    z 0.018860 0.000000 1.723030 
# 
# From -- ./inp_files/111628.got.cif
#   From: 2010.05.17/outbox.cif.g08.bks.cpg/sg15_56_cif.got.tgz:111628.got - 2010.06.03 18:47:42.
