data_PCOD9292792
_publ_section_title
;
Structure prediction by ZEFSAII (Michael W. Deem and Ramdas Pophale) SiO2 
 PCOD9292792
Probable space group: C 2/C
;
_chemical_formula_sum "Si O2"
_cell_formula_units_Z 28
_cell_length_a 18.013325
_cell_length_b 5.229626
_cell_length_c 11.224816
_cell_angle_alpha 90.000000
_cell_angle_beta 76.170245
_cell_angle_gamma 90.000000
_cell_volume 1026.756761
_symmetry_space_group_name_H-M "C 2/C"
_symmetry_group_IT_number 15
_symmetry_cell_setting 'monoclinic'
loop_
_space_group_symop_operation_xyz
x,y,z
-x,y,1/2-z
-x,-y,-z
x,-y,1/2+z
1/2+x,1/2+y,z
1/2-x,1/2+y,1/2-z
1/2-x,1/2-y,-z
1/2+x,1/2-y,1/2+z
loop_
_atom_site_type_symbol
_atom_site_label
_atom_site_fract_x
_atom_site_fract_y
_atom_site_fract_z
Si Si1 0.660189 0.163470 0.682653
Si Si2 0.199806 0.507654 0.430154
Si Si3 0.000000 0.488691 0.750000
Si Si4 0.950680 0.242660 0.551818
O O1 0.716550 0.392147 0.628559
O O2 0.690016 0.943071 0.575349
O O3 0.672053 0.140468 0.821946
O O4 0.569861 0.175692 0.690027
O O5 0.137287 0.741656 0.449544
O O6 0.048126 0.287367 0.808447
O O7 0.000000 0.500000 0.500000
O O8 0.000000 0.000000 0.500000
#
# Coordination Sequence:
#
# PCOD9292792 Si02
#       4
#     8   8   4   8
#     4  10  22  44  68 103 146 192 249 303 374 439
#     4  10  23  44  69 106 146 197 245 309 367 447
#     4  10  22  46  74 104 146 200 246 314 368 450
#     4  11  24  46  72 109 145 195 244 307 366 444
#
# _framework density 27.270337999999999
#
# number of rings (size 3 to 8) (size 9 to 14) (size 15 to 20)
#    0.000    1.714    2.857    0.000    0.000    6.857 
#   20.571    0.000    0.000    0.000    0.000    0.000 
#    0.000    0.000    0.000    0.000    0.000    0.000 
#
# Total GULP energy -77939.752719 kJ/mol
# GULP energy per Si atom -5567.125194 kJ/mol
# Density = 2.720827 g / cm^3
# Si number density = 27.270338 Si / 1000 Ang^3
#
#
#
# Elastic Constant Matrix: (Units=GPa)
#
#
# Indices 1 2 3 4 5 6 
#
# 1 173.0386 41.6794 23.6134 0.0000 -14.8092 0.0000
# 2 41.6794 115.8606 10.7523 0.0000 -16.4059 0.0000
# 3 23.6134 10.7523 113.2911 0.0000 -9.8465 0.0000
# 4 0.0000 0.0000 0.0000 18.4402 0.0000 1.2698
# 5 -14.8092 -16.4059 -9.8465 0.0000 66.3809 0.0000
# 6 0.0000 0.0000 0.0000 1.2698 0.0000 4.1631
#
#
#
# Elastic Compliance Matrix: (Units=1/GPa)
#
#
# Indices 1 2 3 4 5 6 
#
# 1 0.006506 -0.002132 -0.001087 0.000000 0.000763 0.000000
# 2 -0.002132 0.009692 -0.000313 0.000000 0.001873 0.000000
# 3 -0.001087 -0.000313 0.009174 0.000000 0.001041 0.000000
# 4 0.000000 0.000000 0.000000 0.055393 0.000000 -0.016895
# 5 0.000763 0.001873 0.001041 0.000000 0.015852 0.000000
# 6 0.000000 0.000000 0.000000 -0.016895 0.000000 0.245358
#
#
# Mechanical properties :
#
#
# Convention : Reuss Voigt Hill
#
# Bulk Modulus (GPa) = 54.61932 61.58671 58.10301
# Shear Modulus (GPa) = 14.07891 39.53985 26.80938
#
# Velocity S-wave (km/s) = 2.27463 3.81191 3.13884
# Velocity P-wave (km/s) = 5.19335 6.48129 5.87273
#
# Compressibility (1/GPa) = 0.01830854
#
# Stress axis : x y z
#
# Youngs Moduli (GPa) = 153.69956 103.17623 109.00816
#
# Poissons Ratio (x) = 0.21992 0.11854
# Poissons Ratio (y) = 0.32761 0.03409
# Poissons Ratio (z) = 0.16714 0.03227
#
# Static dielectric constant tensor:
#      x y z
#    x 2.205640 0.000000 0.408730 
#    y 0.000000 2.251120 0.000000 
#    z 0.408730 0.000000 3.284330 
# 
# From -- ./inp_files/109002.got.cif
#   From: 2010.05.17/outbox.cif.g08.bks.cpg/sg15_55_cif.got.tgz:109002.got - 2010.06.03 18:47:42.
