data_PCOD9292791
_publ_section_title
;
Structure prediction by ZEFSAII (Michael W. Deem and Ramdas Pophale) SiO2 
 PCOD9292791
Probable space group: C 2/C
;
_chemical_formula_sum "Si O2"
_cell_formula_units_Z 52
_cell_length_a 15.904934
_cell_length_b 28.593819
_cell_length_c 5.437324
_cell_angle_alpha 90.000000
_cell_angle_beta 120.382847
_cell_angle_gamma 90.000000
_cell_volume 2133.199576
_symmetry_space_group_name_H-M "C 2/C"
_symmetry_group_IT_number 15
_symmetry_cell_setting 'monoclinic'
loop_
_space_group_symop_operation_xyz
x,y,z
-x,y,1/2-z
-x,-y,-z
x,-y,1/2+z
1/2+x,1/2+y,z
1/2-x,1/2+y,1/2-z
1/2-x,1/2-y,-z
1/2+x,1/2-y,1/2+z
loop_
_atom_site_type_symbol
_atom_site_label
_atom_site_fract_x
_atom_site_fract_y
_atom_site_fract_z
Si Si1 0.051874 0.378383 0.075158
Si Si2 0.784917 0.024261 0.474588
Si Si3 0.500000 0.551434 0.750000
Si Si4 0.091650 0.272250 0.233219
Si Si5 0.909038 0.875767 0.732510
Si Si6 0.218766 0.800911 0.672545
Si Si7 0.751431 0.116578 0.636495
O O1 0.052052 0.321787 0.079478
O O2 0.164282 0.389698 0.197801
O O3 0.000000 0.393805 0.250000
O O4 0.000000 0.394874 0.750000
O O5 0.746759 0.077831 0.417423
O O6 0.903496 0.022417 0.671624
O O7 0.750643 0.999581 0.175892
O O8 0.455016 0.585957 0.477394
O O9 0.140544 0.241293 0.087429
O O10 0.181130 0.283684 0.554163
O O11 0.000000 0.251863 0.250000
O O12 0.835422 0.840515 0.749645
O O13 0.848901 0.897311 0.421735
O O14 0.000000 0.849313 0.750000
O O15 0.240608 0.830281 0.455501
#
# Coordination Sequence:
#
# PCOD9292791 Si02
#       7
#     8   8   4   8   8   8   8
#     4  11  25  47  75 105 138 184 241 303 364 427
#     4  12  27  44  70 104 147 190 240 306 365 435
#     4  12  24  42  66  98 146 198 244 286 366 442
#     4  10  22  44  68 103 145 189 245 304 358 419
#     4  12  22  41  65 101 144 193 240 289 352 440
#     4  11  23  43  69  99 146 196 240 295 362 434
#     4  12  25  44  73 102 143 189 249 292 365 449
#
# _framework density 24.376531
#
# number of rings (size 3 to 8) (size 9 to 14) (size 15 to 20)
#    0.000    0.615    4.615    3.692    0.000    0.615 
#    9.692    0.000    0.000    2.769    0.000    0.000 
#    0.000    0.000    0.000    0.000    0.000    0.000 
#
# Total GULP energy -145376.212151 kJ/mol
# GULP energy per Si atom -5591.392775 kJ/mol
# Density = 2.432105 g / cm^3
# Si number density = 24.376531 Si / 1000 Ang^3
#
#
#
# Elastic Constant Matrix: (Units=GPa)
#
#
# Indices 1 2 3 4 5 6 
#
# 1 179.1690 23.5149 51.1012 0.0000 -7.1101 0.0000
# 2 23.5149 76.9822 24.0885 0.0000 -17.3774 0.0000
# 3 51.1012 24.0885 122.3324 0.0000 -12.7074 0.0000
# 4 0.0000 0.0000 0.0000 0.4505 0.0000 8.5455
# 5 -7.1101 -17.3774 -12.7074 0.0000 34.8106 0.0000
# 6 0.0000 0.0000 0.0000 8.5455 0.0000 9.1064
#
#
#
# Elastic Compliance Matrix: (Units=1/GPa)
#
#
# Indices 1 2 3 4 5 6 
#
# 1 0.006440 -0.001241 -0.002467 0.000000 -0.000205 0.000000
# 2 -0.001241 0.015476 -0.001822 0.000000 0.006807 0.000000
# 3 -0.002467 -0.001822 0.009788 0.000000 0.002160 0.000000
# 4 0.000000 0.000000 0.000000 -0.132125 0.000000 0.123986
# 5 -0.000205 0.006807 0.002160 0.000000 0.032871 0.000000
# 6 0.000000 0.000000 0.000000 0.123986 0.000000 -0.006536
#
#
# Mechanical properties :
#
#
# Convention : Reuss Voigt Hill
#
# Bulk Modulus (GPa) = 48.44129 63.98809 56.21469
# Shear Modulus (GPa) = -89.05600 27.52541 -30.76530
#
# Velocity S-wave (km/s) = -6.05085 3.36397 -3.55644
# Velocity P-wave (km/s) = 5.37604 6.43391 2.49934
#
# Compressibility (1/GPa) = 0.02064355
#
# Stress axis : x y z
#
# Youngs Moduli (GPa) = 155.28675 64.61699 102.16611
#
# Poissons Ratio (x) = 0.08022 0.25203
# Poissons Ratio (y) = 0.19277 0.18612
# Poissons Ratio (z) = 0.38307 0.11771
#
# Static dielectric constant tensor:
#      x y z
#    x 2.002010 0.000000 -0.101900 
#    y 0.000000 1.950920 0.000000 
#    z -0.101900 0.000000 1.496950 
# 
# From -- ./inp_files/9133.got.cif
#   From: 2010.05.17/outbox.cif.g08.bks.cpg/sg15_5_cif.got.tgz:9133.got - 2010.06.03 18:47:42.
