data_PCOD9292977
_publ_section_title
;
Structure prediction by ZEFSAII (Michael W. Deem and Ramdas Pophale) SiO2 
 PCOD9292977
Probable space group: C 2/C
;
_chemical_formula_sum "Si O2"
_cell_formula_units_Z 44
_cell_length_a 6.008769
_cell_length_b 14.048912
_cell_length_c 25.195338
_cell_angle_alpha 90.000000
_cell_angle_beta 103.062895
_cell_angle_gamma 90.000000
_cell_volume 2071.867526
_symmetry_space_group_name_H-M "C 2/C"
_symmetry_group_IT_number 15
_symmetry_cell_setting 'monoclinic'
loop_
_space_group_symop_operation_xyz
x,y,z
-x,y,1/2-z
-x,-y,-z
x,-y,1/2+z
1/2+x,1/2+y,z
1/2-x,1/2+y,1/2-z
1/2-x,1/2-y,-z
1/2+x,1/2-y,1/2+z
loop_
_atom_site_type_symbol
_atom_site_label
_atom_site_fract_x
_atom_site_fract_y
_atom_site_fract_z
Si Si1 0.230808 0.096434 0.612639
Si Si2 0.529238 0.034925 0.061599
Si Si3 0.105977 0.685187 0.701125
Si Si4 0.614436 0.526177 0.832700
Si Si5 0.500000 0.367357 0.750000
Si Si6 0.524957 0.248165 0.029700
O O1 0.425440 0.168729 0.644046
O O2 0.061317 0.161973 0.569955
O O3 0.135861 0.044905 0.659421
O O4 0.317549 0.011400 0.580671
O O5 0.548945 0.147984 0.061096
O O6 0.738954 0.992353 0.106418
O O7 0.500000 0.000000 0.000000
O O8 0.314020 0.622068 0.693336
O O9 0.000000 0.644928 0.750000
O O10 0.139231 0.795056 0.719223
O O11 0.641513 0.437229 0.795293
O O12 0.750000 0.250000 0.000000
O O13 0.250000 0.250000 0.000000
#
# Coordination Sequence:
#
# PCOD9292977 Si02
#       6
#     8   8   8   8   4   8
#     4  11  24  42  69 101 139 185 243 308 366 445
#     4  11  24  44  67  99 144 189 240 299 371 439
#     4   9  22  43  65  95 141 176 236 304 367 444
#     4  11  23  41  72 101 135 186 241 302 374 444
#     4  10  22  44  70  96 140 180 238 306 380 446
#     4  12  27  44  70 103 146 196 245 300 368 437
#
# _framework density 21.236877
#
# number of rings (size 3 to 8) (size 9 to 14) (size 15 to 20)
#    0.545    0.727    1.818    3.273    5.091    2.909 
#    0.000    5.455    0.000    0.000    0.000    0.000 
#    0.000    0.000    0.000    0.000    0.000    0.000 
#
# Total GULP energy -122508.388931 kJ/mol
# GULP energy per Si atom -5568.563133 kJ/mol
# Density = 2.118854 g / cm^3
# Si number density = 21.236877 Si / 1000 Ang^3
#
#
#
# Elastic Constant Matrix: (Units=GPa)
#
#
# Indices 1 2 3 4 5 6 
#
# 1 71.2586 32.0541 33.0217 0.0000 -3.7332 0.0000
# 2 32.0541 127.4436 13.6056 0.0000 -4.0646 0.0000
# 3 33.0217 13.6056 79.6325 0.0000 8.1081 0.0000
# 4 0.0000 0.0000 0.0000 -46.8104 0.0000 89.5505
# 5 -3.7332 -4.0646 8.1081 0.0000 29.6996 0.0000
# 6 0.0000 0.0000 0.0000 89.5505 0.0000 -84.1034
#
#
#
# Elastic Compliance Matrix: (Units=1/GPa)
#
#
# Indices 1 2 3 4 5 6 
#
# 1 0.019702 -0.003981 -0.007906 0.000000 0.004090 0.000000
# 2 -0.003981 0.008863 0.000066 0.000000 0.000695 0.000000
# 3 -0.007906 0.000066 0.016381 0.000000 -0.005457 0.000000
# 4 0.000000 0.000000 0.000000 0.020602 0.000000 0.021936
# 5 0.004090 0.000695 -0.005457 0.000000 0.035769 0.000000
# 6 0.000000 0.000000 0.000000 0.021936 0.000000 0.011466
#
#
# Mechanical properties :
#
#
# Convention : Reuss Voigt Hill
#
# Bulk Modulus (GPa) = 46.94197 48.41085 47.67641
# Shear Modulus (GPa) = 34.83658 -6.93262 13.95198
#
# Velocity S-wave (km/s) = 4.05456 -1.80873 2.56592
# Velocity P-wave (km/s) = 6.63862 4.29920 5.59260
#
# Compressibility (1/GPa) = 0.02130290
#
# Stress axis : x y z
#
# Youngs Moduli (GPa) = 50.75552 112.82857 61.04772
#
# Poissons Ratio (x) = 0.44916 0.48267
# Poissons Ratio (y) = 0.20205 -0.00402
# Poissons Ratio (z) = 0.40129 -0.00742
#
# Static dielectric constant tensor:
#      x y z
#    x 1.844160 0.000000 -0.001360 
#    y 0.000000 1.762970 0.000000 
#    z -0.001360 0.000000 1.676630 
# 
# From -- ./inp_files/260434.got.cif
#   From: 2010.05.17/outbox.cif.g08.bks.cpg/sg15_131_cif.got.tgz:260434.got - 2010.06.03 18:47:42.
