data_PCOD9292458
_publ_section_title
;
Structure prediction by ZEFSAII (Michael W. Deem and Ramdas Pophale) SiO2 
 PCOD9292458
Probable space group: C 2/C
;
_chemical_formula_sum "Si O2"
_cell_formula_units_Z 60
_cell_length_a 23.959751
_cell_length_b 24.042326
_cell_length_c 9.542790
_cell_angle_alpha 90.000000
_cell_angle_beta 151.207006
_cell_angle_gamma 90.000000
_cell_volume 2647.662190
_symmetry_space_group_name_H-M "C 2/C"
_symmetry_group_IT_number 15
_symmetry_cell_setting 'monoclinic'
loop_
_space_group_symop_operation_xyz
x,y,z
-x,y,1/2-z
-x,-y,-z
x,-y,1/2+z
1/2+x,1/2+y,z
1/2-x,1/2+y,1/2-z
1/2-x,1/2-y,-z
1/2+x,1/2-y,1/2+z
loop_
_atom_site_type_symbol
_atom_site_label
_atom_site_fract_x
_atom_site_fract_y
_atom_site_fract_z
Si Si1 0.790725 0.689528 0.636401
Si Si2 0.000000 0.068390 0.750000
Si Si3 0.569369 0.384427 0.696931
Si Si4 0.821640 0.437427 0.664309
Si Si5 0.488015 0.852780 0.389011
Si Si6 0.294312 0.514283 0.867442
Si Si7 0.854885 0.724145 0.072080
Si Si8 0.840193 0.832026 0.191441
O O1 0.750000 0.750000 0.500000
O O2 0.676630 0.656465 0.426219
O O3 0.860223 0.655425 0.670728
O O4 0.867007 0.700755 0.942994
O O5 0.979048 0.102898 0.564564
O O6 0.884638 0.031286 0.510486
O O7 0.455143 0.357408 0.510786
O O8 0.621078 0.440297 0.876355
O O9 0.790865 0.485079 0.708179
O O10 0.778303 0.458096 0.417651
O O11 0.743399 0.383311 0.530519
O O12 0.951467 0.412626 0.949105
O O13 0.500000 0.842822 0.250000
O O14 0.559700 0.806562 0.632767
O O15 0.865293 0.790043 0.118259
O O16 0.727537 0.705424 0.844361
#
# Coordination Sequence:
#
# PCOD9292458 Si02
#       8
#     8   4   8   8   8   8   8   8
#     4  12  29  46  73 112 148 192 250 298 367 444
#     4  12  24  40  72 108 150 182 238 312 362 444
#     4  12  25  41  72 106 148 188 239 305 374 435
#     4  11  25  47  74 102 147 189 250 303 367 437
#     4  11  27  49  76 103 148 200 244 306 363 437
#     4  12  24  46  69 110 141 193 244 307 373 435
#     4  10  24  46  73 105 153 192 245 298 365 456
#     4  10  22  43  72 106 146 193 236 299 377 435
#
# _framework density 22.661501000000001
#
# number of rings (size 3 to 8) (size 9 to 14) (size 15 to 20)
#    0.000    0.800    2.667    4.000    9.333    1.600 
#    2.400    2.667    0.000    0.000    0.000    0.000 
#    0.000    0.000    0.000    0.000    0.000    0.000 
#
# Total GULP energy -167910.111203 kJ/mol
# GULP energy per Si atom -5597.003707 kJ/mol
# Density = 2.260992 g / cm^3
# Si number density = 22.661501 Si / 1000 Ang^3
#
#
#
# Elastic Constant Matrix: (Units=GPa)
#
#
# Indices 1 2 3 4 5 6 
#
# 1 54.5033 9.5744 20.8138 0.0000 -8.6517 0.0000
# 2 9.5744 91.9459 20.4898 0.0000 -2.7094 0.0000
# 3 20.8138 20.4898 77.7245 0.0000 -14.4447 0.0000
# 4 0.0000 0.0000 0.0000 -6.2608 0.0000 -5.9549
# 5 -8.6517 -2.7094 -14.4447 0.0000 53.5354 0.0000
# 6 0.0000 0.0000 0.0000 -5.9549 0.0000 -12.2983
#
#
#
# Elastic Compliance Matrix: (Units=1/GPa)
#
#
# Indices 1 2 3 4 5 6 
#
# 1 0.020714 -0.001003 -0.004916 0.000000 0.001970 0.000000
# 2 -0.001003 0.011607 -0.002855 0.000000 -0.000345 0.000000
# 3 -0.004916 -0.002855 0.015540 0.000000 0.003254 0.000000
# 4 0.000000 0.000000 0.000000 -0.296084 0.000000 0.143365
# 5 0.001970 -0.000345 0.003254 0.000000 0.019858 0.000000
# 6 0.000000 0.000000 0.000000 0.143365 0.000000 -0.150730
#
#
# Mechanical properties :
#
#
# Convention : Reuss Voigt Hill
#
# Bulk Modulus (GPa) = 32.99159 36.21440 34.60300
# Shear Modulus (GPa) = -14.22711 18.54830 2.16059
#
# Velocity S-wave (km/s) = -2.50833 2.86404 0.97749
# Velocity P-wave (km/s) = 2.49019 5.19155 4.07144
#
# Compressibility (1/GPa) = 0.03031076
#
# Stress axis : x y z
#
# Youngs Moduli (GPa) = 48.27661 86.15830 64.35045
#
# Poissons Ratio (x) = 0.08645 0.31637
# Poissons Ratio (y) = 0.04844 0.18373
# Poissons Ratio (z) = 0.23734 0.24600
#
# Static dielectric constant tensor:
#      x y z
#    x 1.971710 0.000000 0.002280 
#    y 0.000000 1.710910 0.000000 
#    z 0.002280 0.000000 1.852740 
# 
# From -- ./inp_files/64127.got.cif
#   From: 2010.05.17/outbox.cif.g08.bks.cpg/sg15_33_cif.got.tgz:64127.got - 2010.06.03 18:47:42.
