data_PCOD9292651
_publ_section_title
;
Structure prediction by ZEFSAII (Michael W. Deem and Ramdas Pophale) SiO2 
 PCOD9292651
Probable space group: C 2/C
;
_chemical_formula_sum "Si O2"
_cell_formula_units_Z 56
_cell_length_a 26.465168
_cell_length_b 12.148325
_cell_length_c 20.807555
_cell_angle_alpha 90.000000
_cell_angle_beta 160.131178
_cell_angle_gamma 90.000000
_cell_volume 2273.642465
_symmetry_space_group_name_H-M "C 2/C"
_symmetry_group_IT_number 15
_symmetry_cell_setting 'monoclinic'
loop_
_space_group_symop_operation_xyz
x,y,z
-x,y,1/2-z
-x,-y,-z
x,-y,1/2+z
1/2+x,1/2+y,z
1/2-x,1/2+y,1/2-z
1/2-x,1/2-y,-z
1/2+x,1/2-y,1/2+z
loop_
_atom_site_type_symbol
_atom_site_label
_atom_site_fract_x
_atom_site_fract_y
_atom_site_fract_z
Si Si1 0.012538 0.949350 0.375883
Si Si2 0.075885 0.807401 0.950861
Si Si3 0.214628 0.617642 0.576588
Si Si4 0.907140 0.321921 0.349925
Si Si5 0.500000 0.732396 0.750000
Si Si6 0.196218 0.652739 0.275388
Si Si7 0.000000 0.365383 0.250000
Si Si8 0.410890 0.009923 0.248272
O O1 0.170572 0.916663 0.597301
O O2 0.864981 0.946023 0.241509
O O3 0.989673 0.849650 0.297924
O O4 0.037263 0.071460 0.378318
O O5 0.965638 0.778942 0.876941
O O6 0.063947 0.715237 0.881000
O O7 0.242418 0.802084 0.177395
O O8 0.259691 0.720613 0.674151
O O9 0.136014 0.682474 0.422901
O O10 0.081974 0.546794 0.447305
O O11 0.892234 0.419767 0.280841
O O12 0.033679 0.356408 0.550995
O O13 0.182817 0.609919 0.333663
O O14 0.115834 0.445797 0.351009
#
# Coordination Sequence:
#
# PCOD9292651 Si02
#       8
#     8   8   8   8   4   8   4   8
#     4  11  24  42  70 104 137 188 236 295 353 423
#     4  11  26  48  71 107 140 190 239 299 351 420
#     4  11  25  42  68 105 136 185 235 294 358 418
#     4  11  27  46  73 102 144 188 240 292 360 422
#     4  10  22  44  66 100 144 182 236 296 354 428
#     4  11  24  47  71 103 143 185 239 291 362 420
#     4  10  26  48  72 102 144 182 244 286 360 418
#     4  11  24  46  71 101 142 192 225 295 361 417
#
# _framework density 24.630082999999999
#
# number of rings (size 3 to 8) (size 9 to 14) (size 15 to 20)
#    0.000    1.143    1.429    3.429    8.000    5.714 
#    2.571    1.429    0.000    0.000    0.000    0.000 
#    0.000    0.000    0.000    0.000    0.000    0.000 
#
# Total GULP energy -156595.575045 kJ/mol
# GULP energy per Si atom -5592.699109 kJ/mol
# Density = 2.457402 g / cm^3
# Si number density = 24.630083 Si / 1000 Ang^3
#
#
#
# Elastic Constant Matrix: (Units=GPa)
#
#
# Indices 1 2 3 4 5 6 
#
# 1 62.0130 26.8878 30.2315 0.0000 11.5890 -0.0001
# 2 26.8878 124.1692 30.8361 -0.0001 8.3300 -0.0002
# 3 30.2315 30.8361 106.0601 0.0000 32.2755 -0.0002
# 4 0.0000 -0.0001 0.0000 29.0219 -0.0001 14.9620
# 5 11.5890 8.3300 32.2755 -0.0001 45.9923 -0.0002
# 6 -0.0001 -0.0002 -0.0002 14.9620 -0.0002 21.0360
#
#
#
# Elastic Compliance Matrix: (Units=1/GPa)
#
#
# Indices 1 2 3 4 5 6 
#
# 1 0.019852 -0.003132 -0.004321 0.000000 -0.001403 0.000000
# 2 -0.003132 0.009177 -0.001920 0.000000 0.000474 0.000000
# 3 -0.004321 -0.001920 0.013709 0.000000 -0.008184 0.000000
# 4 0.000000 0.000000 0.000000 0.054407 0.000000 -0.038697
# 5 -0.001403 0.000474 -0.008184 0.000000 0.027753 0.000000
# 6 0.000000 0.000000 0.000000 -0.038697 0.000000 0.075061
#
#
# Mechanical properties :
#
#
# Convention : Reuss Voigt Hill
#
# Bulk Modulus (GPa) = 41.67981 52.01702 46.84842
# Shear Modulus (GPa) = 22.05536 32.82916 27.44226
#
# Velocity S-wave (km/s) = 2.99568 3.65484 3.34155
# Velocity P-wave (km/s) = 5.37815 6.24304 5.82667
#
# Compressibility (1/GPa) = 0.02399243
#
# Stress axis : x y z
#
# Youngs Moduli (GPa) = 50.37209 108.97323 72.94487
#
# Poissons Ratio (x) = 0.34126 0.31523
# Poissons Ratio (y) = 0.15774 0.14003
# Poissons Ratio (z) = 0.21768 0.20920
#
# Static dielectric constant tensor:
#      x y z
#    x 1.974210 0.000000 -0.035210 
#    y 0.000000 1.942590 0.000000 
#    z -0.035210 0.000000 1.953240 
# 
# From -- ./inp_files/284661.got.cif
#   From: 2010.05.17/outbox.cif.g08.bks.cpg/sg15_143_cif.got.tgz:284661.got - 2010.06.03 18:47:42.
