data_PCOD9292600
_publ_section_title
;
Structure prediction by ZEFSAII (Michael W. Deem and Ramdas Pophale) SiO2 
 PCOD9292600
Probable space group: C 2/C
;
_chemical_formula_sum "Si O2"
_cell_formula_units_Z 44
_cell_length_a 11.584444
_cell_length_b 14.832218
_cell_length_c 12.617276
_cell_angle_alpha 90.000000
_cell_angle_beta 116.035937
_cell_angle_gamma 90.000000
_cell_volume 1947.933478
_symmetry_space_group_name_H-M "C 2/C"
_symmetry_group_IT_number 15
_symmetry_cell_setting 'monoclinic'
loop_
_space_group_symop_operation_xyz
x,y,z
-x,y,1/2-z
-x,-y,-z
x,-y,1/2+z
1/2+x,1/2+y,z
1/2-x,1/2+y,1/2-z
1/2-x,1/2-y,-z
1/2+x,1/2-y,1/2+z
loop_
_atom_site_type_symbol
_atom_site_label
_atom_site_fract_x
_atom_site_fract_y
_atom_site_fract_z
Si Si1 0.066244 0.077709 0.177191
Si Si2 0.500000 0.756820 0.750000
Si Si3 0.196803 0.667039 0.178337
Si Si4 0.978607 0.589316 0.563038
Si Si5 0.305390 0.859947 0.191890
Si Si6 0.497508 0.388496 0.419771
O O1 0.215517 0.079058 0.270027
O O2 0.000000 0.124285 0.250000
O O3 0.983476 0.986728 0.124230
O O4 0.057282 0.123142 0.059135
O O5 0.381104 0.812963 0.745925
O O6 0.458547 0.689683 0.639770
O O7 0.287220 0.751328 0.183227
O O8 0.088761 0.657327 0.045635
O O9 0.879123 0.593191 0.623001
O O10 0.000000 0.500000 0.500000
O O11 0.112650 0.617320 0.670529
O O12 0.157304 0.889092 0.133407
#
# Coordination Sequence:
#
# PCOD9292600 Si02
#       6
#     8   4   8   8   8   8
#     4  11  23  39  70  98 131 179 224 275 338 410
#     4  10  24  46  62  96 140 170 224 274 342 388
#     4  11  25  42  70 100 136 175 227 279 344 398
#     4  11  24  44  69 100 138 183 229 281 342 411
#     4  10  24  42  68  98 138 175 229 283 338 402
#     4  10  22  44  64  97 138 176 223 278 337 406
#
# _framework density 22.588039999999999
#
# number of rings (size 3 to 8) (size 9 to 14) (size 15 to 20)
#    0.000    1.455    0.909    2.727    7.636    3.636 
#    6.545    0.000    0.000    0.000    0.000    0.000 
#    0.000    0.000    0.000    0.000    0.000    0.000 
#
# Total GULP energy -122738.687337 kJ/mol
# GULP energy per Si atom -5579.031243 kJ/mol
# Density = 2.253663 g / cm^3
# Si number density = 22.588040 Si / 1000 Ang^3
#
#
#
# Elastic Constant Matrix: (Units=GPa)
#
#
# Indices 1 2 3 4 5 6 
#
# 1 89.6095 21.1691 34.9700 0.0000 -12.6247 0.0000
# 2 21.1691 67.4480 24.6269 0.0000 -4.1335 0.0000
# 3 34.9700 24.6269 134.1148 0.0000 -6.3907 0.0000
# 4 0.0000 0.0000 0.0000 4.4132 0.0000 21.8142
# 5 -12.6247 -4.1335 -6.3907 0.0000 35.5013 0.0000
# 6 0.0000 0.0000 0.0000 21.8142 0.0000 11.7721
#
#
#
# Elastic Compliance Matrix: (Units=1/GPa)
#
#
# Indices 1 2 3 4 5 6 
#
# 1 0.013508 -0.002980 -0.002787 0.000000 0.003955 0.000000
# 2 -0.002980 0.016612 -0.002251 0.000000 0.000469 0.000000
# 3 -0.002787 -0.002251 0.008610 0.000000 0.000297 0.000000
# 4 0.000000 0.000000 0.000000 -0.027771 0.000000 0.051460
# 5 0.003955 0.000469 0.000297 0.000000 0.029683 0.000000
# 6 0.000000 0.000000 0.000000 0.051460 0.000000 -0.010411
#
#
# Mechanical properties :
#
#
# Convention : Reuss Voigt Hill
#
# Bulk Modulus (GPa) = 44.06104 50.30047 47.18076
# Shear Modulus (GPa) = 92.88139 24.36441 58.62290
#
# Velocity S-wave (km/s) = 6.41942 3.28783 5.09994
# Velocity P-wave (km/s) = 8.63099 6.06054 7.45735
#
# Compressibility (1/GPa) = 0.02269579
#
# Stress axis : x y z
#
# Youngs Moduli (GPa) = 74.02932 60.19687 116.13875
#
# Poissons Ratio (x) = 0.17938 0.32363
# Poissons Ratio (y) = 0.22059 0.26144
# Poissons Ratio (z) = 0.20629 0.13551
#
# Static dielectric constant tensor:
#      x y z
#    x 1.810100 0.000000 -0.051480 
#    y 0.000000 1.969720 0.000000 
#    z -0.051480 0.000000 1.749920 
# 
# From -- ./inp_files/87948.got.cif
#   From: 2010.05.17/outbox.cif.g08.bks.cpg/sg15_44_cif.got.tgz:87948.got - 2010.06.03 18:47:42.
