data_PCOD9292475
_publ_section_title
;
Structure prediction by ZEFSAII (Michael W. Deem and Ramdas Pophale) SiO2 
 PCOD9292475
Probable space group: C 2/C
;
_chemical_formula_sum "Si O2"
_cell_formula_units_Z 40
_cell_length_a 7.044011
_cell_length_b 14.743622
_cell_length_c 18.251838
_cell_angle_alpha 90.000000
_cell_angle_beta 56.830875
_cell_angle_gamma 90.000000
_cell_volume 1586.671506
_symmetry_space_group_name_H-M "C 2/C"
_symmetry_group_IT_number 15
_symmetry_cell_setting 'monoclinic'
loop_
_space_group_symop_operation_xyz
x,y,z
-x,y,1/2-z
-x,-y,-z
x,-y,1/2+z
1/2+x,1/2+y,z
1/2-x,1/2+y,1/2-z
1/2-x,1/2-y,-z
1/2+x,1/2-y,1/2+z
loop_
_atom_site_type_symbol
_atom_site_label
_atom_site_fract_x
_atom_site_fract_y
_atom_site_fract_z
Si Si1 0.216796 0.769791 0.591888
Si Si2 0.289165 0.519171 0.748351
Si Si3 0.976488 0.561700 0.429885
Si Si4 0.770882 0.218438 0.819799
Si Si5 0.969192 0.116992 0.916579
O O1 0.250000 0.750000 0.500000
O O2 0.360094 0.853958 0.588877
O O3 0.327714 0.681836 0.604442
O O4 0.947054 0.775078 0.655384
O O5 0.500000 0.480726 0.750000
O O6 0.933522 0.478851 0.666207
O O7 0.263519 0.626320 0.773705
O O8 0.407639 0.529191 0.644376
O O9 0.000000 0.500000 0.500000
O O10 0.713293 0.590113 0.483792
O O11 0.811543 0.175735 0.892128
O O12 0.000000 0.269821 0.750000
#
# Coordination Sequence:
#
# PCOD9292475 Si02
#       5
#     8   8   8   8   8
#     4  12  24  41  74 107 136 193 251 294 366 445
#     4   9  19  41  67  95 138 194 228 293 374 420
#     4  12  21  42  74 102 146 189 237 305 371 429
#     4   9  20  42  67  96 142 185 241 289 362 430
#     4  10  22  43  72  97 148 191 239 302 366 432
#
# _framework density 25.21001
#
# number of rings (size 3 to 8) (size 9 to 14) (size 15 to 20)
#    0.000    2.000    6.000    0.600    0.000    3.200 
#    7.200    4.000   13.200    0.000    0.000    0.000 
#    0.000    0.000    0.000    0.000    0.000    0.000 
#
# Total GULP energy -111646.824018 kJ/mol
# GULP energy per Si atom -5582.341201 kJ/mol
# Density = 2.515263 g / cm^3
# Si number density = 25.210010 Si / 1000 Ang^3
#
#
#
# Elastic Constant Matrix: (Units=GPa)
#
#
# Indices 1 2 3 4 5 6 
#
# 1 94.3120 29.9088 64.8036 0.0000 -29.4715 0.0000
# 2 29.9088 54.2236 59.8338 0.0000 -8.5599 0.0000
# 3 64.8036 59.8338 201.9080 0.0000 -55.1662 0.0000
# 4 0.0000 0.0000 0.0000 32.2402 0.0000 -0.3796
# 5 -29.4715 -8.5599 -55.1662 0.0000 44.3929 0.0000
# 6 0.0000 0.0000 0.0000 -0.3796 0.0000 23.5850
#
#
#
# Elastic Compliance Matrix: (Units=1/GPa)
#
#
# Indices 1 2 3 4 5 6 
#
# 1 0.015814 -0.006353 -0.000998 0.000000 0.008033 0.000000
# 2 -0.006353 0.031602 -0.010316 0.000000 -0.010944 0.000000
# 3 -0.000998 -0.010316 0.011515 0.000000 0.011658 0.000000
# 4 0.000000 0.000000 0.000000 0.031023 0.000000 0.000499
# 5 0.008033 -0.010944 0.011658 0.000000 0.040237 0.000000
# 6 0.000000 0.000000 0.000000 0.000499 0.000000 0.042408
#
#
# Mechanical properties :
#
#
# Convention : Reuss Voigt Hill
#
# Bulk Modulus (GPa) = 42.37812 73.28179 57.82995
# Shear Modulus (GPa) = 23.16959 33.10346 28.13653
#
# Velocity S-wave (km/s) = 3.03489 3.62761 3.34441
# Velocity P-wave (km/s) = 5.39697 6.83211 6.15650
#
# Compressibility (1/GPa) = 0.02359708
#
# Stress axis : x y z
#
# Youngs Moduli (GPa) = 63.23517 31.64319 86.83962
#
# Poissons Ratio (x) = 0.20104 0.08665
# Poissons Ratio (y) = 0.40176 0.89584
# Poissons Ratio (z) = 0.06310 0.32643
#
# Static dielectric constant tensor:
#      x y z
#    x 2.128740 0.000000 -0.078020 
#    y 0.000000 1.980010 0.000000 
#    z -0.078020 0.000000 2.048380 
# 
# From -- ./inp_files/310923.got.cif
#   From: 2010.05.17/outbox.cif.g08.bks.cpg/sg15_156_cif.got.tgz:310923.got - 2010.06.03 18:47:42.
