data_PCOD9292960
_publ_section_title
;
Structure prediction by ZEFSAII (Michael W. Deem and Ramdas Pophale) SiO2 
 PCOD9292960
Probable space group: C 2/C
;
_chemical_formula_sum "Si O2"
_cell_formula_units_Z 32
_cell_length_a 13.570415
_cell_length_b 4.973557
_cell_length_c 19.109849
_cell_angle_alpha 90.000000
_cell_angle_beta 116.532089
_cell_angle_gamma 90.000000
_cell_volume 1153.950852
_symmetry_space_group_name_H-M "C 2/C"
_symmetry_group_IT_number 15
_symmetry_cell_setting 'monoclinic'
loop_
_space_group_symop_operation_xyz
x,y,z
-x,y,1/2-z
-x,-y,-z
x,-y,1/2+z
1/2+x,1/2+y,z
1/2-x,1/2+y,1/2-z
1/2-x,1/2-y,-z
1/2+x,1/2-y,1/2+z
loop_
_atom_site_type_symbol
_atom_site_label
_atom_site_fract_x
_atom_site_fract_y
_atom_site_fract_z
Si Si1 0.242013 0.291914 0.371299
Si Si2 0.345206 0.211194 0.857104
Si Si3 0.135674 0.884799 0.490308
Si Si4 0.977084 0.616451 0.167085
O O1 0.294552 0.494623 0.330300
O O2 0.323742 0.332811 0.464117
O O3 0.126146 0.414672 0.355991
O O4 0.246691 0.992881 0.345657
O O5 0.422840 0.069005 0.827076
O O6 0.406520 0.244923 0.951775
O O7 0.250000 0.750000 0.500000
O O8 0.051906 0.836457 0.401163
O O9 0.000000 0.738679 0.250000
#
# Coordination Sequence:
#
# PCOD9292960 Si02
#       4
#     8   8   8   8
#     4   9  23  43  69  92 128 170 223 261 318 387
#     4  10  22  44  70  91 130 172 219 266 322 381
#     4   8  19  42  66  97 124 173 220 264 316 387
#     4  11  23  41  66 100 133 170 217 271 328 384
#
# _framework density 27.730819
#
# number of rings (size 3 to 8) (size 9 to 14) (size 15 to 20)
#    1.500    1.000    0.000    0.750    0.000    9.000 
#    0.000    2.500    0.000    0.000    0.000    0.000 
#    0.000    0.000    0.000    0.000    0.000    0.000 
#
# Total GULP energy -89573.447049 kJ/mol
# GULP energy per Si atom -5598.340441 kJ/mol
# Density = 2.766770 g / cm^3
# Si number density = 27.730819 Si / 1000 Ang^3
#
#
#
# Elastic Constant Matrix: (Units=GPa)
#
#
# Indices 1 2 3 4 5 6 
#
# 1 123.0653 2.5595 34.1295 -0.0001 1.1889 0.0000
# 2 2.5595 94.7439 17.2426 -0.0003 -1.5094 0.0002
# 3 34.1295 17.2426 180.2597 0.0000 -27.6071 0.0001
# 4 -0.0001 -0.0003 0.0000 6.0667 0.0001 -2.1458
# 5 1.1889 -1.5094 -27.6071 0.0001 45.7370 0.0000
# 6 0.0000 0.0002 0.0001 -2.1458 0.0000 35.7424
#
#
#
# Elastic Compliance Matrix: (Units=1/GPa)
#
#
# Indices 1 2 3 4 5 6 
#
# 1 0.008650 0.000082 -0.001851 0.000000 -0.001339 0.000000
# 2 0.000082 0.010746 -0.001090 0.000001 -0.000306 0.000000
# 3 -0.001851 -0.001090 0.006616 0.000000 0.004005 0.000000
# 4 0.000000 0.000001 0.000000 0.168411 0.000000 0.010111
# 5 -0.001339 -0.000306 0.004005 0.000000 0.024307 0.000000
# 6 0.000000 0.000000 0.000000 0.010111 0.000000 0.028585
#
#
# Mechanical properties :
#
#
# Convention : Reuss Voigt Hill
#
# Bulk Modulus (GPa) = 49.27617 56.21467 52.74542
# Shear Modulus (GPa) = 19.24577 40.45172 29.84874
#
# Velocity S-wave (km/s) = 2.63729 3.82347 3.28437
# Velocity P-wave (km/s) = 5.20401 6.30932 5.78313
#
# Compressibility (1/GPa) = 0.02029379
#
# Stress axis : x y z
#
# Youngs Moduli (GPa) = 115.60337 93.05706 151.15624
#
# Poissons Ratio (x) = -0.00761 0.27975
# Poissons Ratio (y) = -0.00946 0.16479
# Poissons Ratio (z) = 0.21395 0.10145
#
# Static dielectric constant tensor:
#      x y z
#    x 2.124170 0.000000 0.012050 
#    y 0.000000 2.083080 0.000000 
#    z 0.012050 0.000000 2.228400 
# 
# From -- ./inp_files/241549.got.cif
#   From: 2010.05.17/outbox.cif.g08.bks.cpg/sg15_121_cif.got.tgz:241549.got - 2010.06.03 18:47:42.
