data_PCOD9292900
_publ_section_title
;
Structure prediction by ZEFSAII (Michael W. Deem and Ramdas Pophale) SiO2 
 PCOD9292900
Probable space group: C 2/C
;
_chemical_formula_sum "Si O2"
_cell_formula_units_Z 36
_cell_length_a 15.245682
_cell_length_b 9.300387
_cell_length_c 12.119030
_cell_angle_alpha 90.000000
_cell_angle_beta 89.897333
_cell_angle_gamma 90.000000
_cell_volume 1718.363506
_symmetry_space_group_name_H-M "C 2/C"
_symmetry_group_IT_number 15
_symmetry_cell_setting 'monoclinic'
loop_
_space_group_symop_operation_xyz
x,y,z
-x,y,1/2-z
-x,-y,-z
x,-y,1/2+z
1/2+x,1/2+y,z
1/2-x,1/2+y,1/2-z
1/2-x,1/2-y,-z
1/2+x,1/2-y,1/2+z
loop_
_atom_site_type_symbol
_atom_site_label
_atom_site_fract_x
_atom_site_fract_y
_atom_site_fract_z
Si Si1 0.000000 0.732565 0.250000
Si Si2 0.663515 0.291282 0.627608
Si Si3 0.828988 0.711381 0.625353
Si Si4 0.360184 0.118252 0.083329
Si Si5 0.366622 0.625477 0.914634
O O1 0.932275 0.645417 0.175491
O O2 0.945252 0.822862 0.338694
O O3 0.640931 0.241249 0.750602
O O4 0.622687 0.184771 0.537150
O O5 0.769916 0.300479 0.618107
O O6 0.638624 0.454865 0.600091
O O7 0.849445 0.552894 0.579112
O O8 0.722520 0.707161 0.624585
O O9 0.869293 0.828528 0.542544
#
# Coordination Sequence:
#
# PCOD9292900 Si02
#       5
#     4   8   8   8   8
#     4  12  24  44  64 104 140 170 210 302 324 388
#     4  10  22  44  69  97 128 184 226 265 319 421
#     4  10  22  44  69  97 128 184 226 265 319 421
#     4  10  24  40  70  96 136 173 225 271 339 381
#     4  10  24  40  70  96 136 173 225 271 339 381
#
# _framework density 20.950168000000001
#
# number of rings (size 3 to 8) (size 9 to 14) (size 15 to 20)
#    0.000    1.778    2.222    0.000    6.222    5.333 
#    0.000    0.000    0.000    0.000    0.000    0.000 
#    0.000    0.000    0.000    0.000    0.000    0.000 
#
# Total GULP energy -100543.084938 kJ/mol
# GULP energy per Si atom -5585.726941 kJ/mol
# Density = 2.090248 g / cm^3
# Si number density = 20.950168 Si / 1000 Ang^3
#
#
#
# Elastic Constant Matrix: (Units=GPa)
#
#
# Indices 1 2 3 4 5 6 
#
# 1 28.0738 7.6988 -35.1239 0.0000 4.7564 0.0000
# 2 7.6988 56.3645 37.7353 0.0000 -4.3401 0.0000
# 3 -35.1239 37.7353 79.2236 0.0000 8.1401 0.0000
# 4 0.0000 0.0000 0.0000 3.0896 0.0000 -3.9315
# 5 4.7564 -4.3401 8.1401 0.0000 36.3108 0.0000
# 6 0.0000 0.0000 0.0000 -3.9315 0.0000 -2.1991
#
#
#
# Elastic Compliance Matrix: (Units=1/GPa)
#
#
# Indices 1 2 3 4 5 6 
#
# 1 -0.117314 0.084774 -0.097250 0.000000 0.047301 0.000000
# 2 0.084774 -0.033853 0.056569 0.000000 -0.027832 0.000000
# 3 -0.097250 0.056569 -0.060843 0.000000 0.033140 0.000000
# 4 0.000000 0.000000 0.000000 0.098831 0.000000 -0.176690
# 5 0.047301 -0.027832 0.033140 0.000000 0.010588 0.000000
# 6 0.000000 0.000000 0.000000 -0.176690 0.000000 -0.138855
#
#
# Mechanical properties :
#
#
# Convention : Reuss Voigt Hill
#
# Bulk Modulus (GPa) = -8.07591 20.47580 6.19994
# Shear Modulus (GPa) = -13.48054 17.66371 2.09158
#
# Velocity S-wave (km/s) = -2.53940 2.90682 1.00026
# Velocity P-wave (km/s) = 3.53005 4.58922 2.07361
#
# Compressibility (1/GPa) = -0.12382499
#
# Stress axis : x y z
#
# Youngs Moduli (GPa) = -8.52415 -29.53983 -16.43573
#
# Poissons Ratio (x) = 2.50420 -1.59838
# Poissons Ratio (y) = 0.72262 0.92975
# Poissons Ratio (z) = -0.82898 1.67103
#
# Static dielectric constant tensor:
#      x y z
#    x 1.803500 0.000000 0.011090 
#    y 0.000000 1.711820 0.000000 
#    z 0.011090 0.000000 1.738250 
# 
# From -- ./inp_files/94072.got.cif
#   From: 2010.05.17/outbox.cif.g08.bks.cpg/sg15_48_cif.got.tgz:94072.got - 2010.06.03 18:47:42.
