data_PCOD9292524
_publ_section_title
;
Structure prediction by ZEFSAII (Michael W. Deem and Ramdas Pophale) SiO2 
 PCOD9292524
Probable space group: C 2/C
;
_chemical_formula_sum "Si O2"
_cell_formula_units_Z 40
_cell_length_a 13.126814
_cell_length_b 4.641244
_cell_length_c 26.671167
_cell_angle_alpha 90.000000
_cell_angle_beta 64.155337
_cell_angle_gamma 90.000000
_cell_volume 1462.406932
_symmetry_space_group_name_H-M "C 2/C"
_symmetry_group_IT_number 15
_symmetry_cell_setting 'monoclinic'
loop_
_space_group_symop_operation_xyz
x,y,z
-x,y,1/2-z
-x,-y,-z
x,-y,1/2+z
1/2+x,1/2+y,z
1/2-x,1/2+y,1/2-z
1/2-x,1/2-y,-z
1/2+x,1/2-y,1/2+z
loop_
_atom_site_type_symbol
_atom_site_label
_atom_site_fract_x
_atom_site_fract_y
_atom_site_fract_z
Si Si1 0.299769 0.454079 0.802124
Si Si2 0.499045 0.869546 0.581509
Si Si3 0.155658 0.261000 0.459184
Si Si4 0.859539 0.966494 0.683651
Si Si5 0.687365 0.267233 0.591072
O O1 0.185137 0.644828 0.818120
O O2 0.383092 0.513880 0.737792
O O3 0.338145 0.436442 0.851383
O O4 0.258329 0.131115 0.801120
O O5 0.784235 0.021113 0.575048
O O6 0.568498 0.711546 0.522453
O O7 0.410915 0.063734 0.569234
O O8 0.581621 0.089194 0.593121
O O9 0.252806 0.488146 0.455471
O O10 0.948156 0.129545 0.629437
#
# Coordination Sequence:
#
# PCOD9292524 Si02
#       5
#     8   8   8   8   8
#     4  10  22  43  76 104 147 202 254 317 383 445
#     4  11  26  47  82 110 156 200 260 307 390 464
#     4  11  27  46  75 117 156 198 250 320 385 459
#     4  10  22  44  76 104 146 208 252 313 389 452
#     4  12  25  47  77 111 156 196 252 317 386 454
#
# _framework density 27.352164999999999
#
# number of rings (size 3 to 8) (size 9 to 14) (size 15 to 20)
#    0.000    1.200    2.000    2.400    0.000    8.000 
#    0.000    0.000   17.600    4.800    0.000    0.000 
#    0.000    0.000    0.000    0.000    0.000    0.000 
#
# Total GULP energy -112050.391147 kJ/mol
# GULP energy per Si atom -5602.519557 kJ/mol
# Density = 2.728991 g / cm^3
# Si number density = 27.352165 Si / 1000 Ang^3
#
#
#
# Elastic Constant Matrix: (Units=GPa)
#
#
# Indices 1 2 3 4 5 6 
#
# 1 121.7015 36.3447 58.1383 -0.0042 5.7745 -0.0094
# 2 36.3447 140.0862 56.7682 -0.0067 -7.1618 -0.0217
# 3 58.1383 56.7682 261.1918 0.0028 -3.5102 0.0001
# 4 -0.0042 -0.0067 0.0028 49.1047 -0.0012 3.2910
# 5 5.7745 -7.1618 -3.5102 -0.0012 20.1470 -0.0017
# 6 -0.0094 -0.0217 0.0001 3.2910 -0.0017 57.8180
#
#
#
# Elastic Compliance Matrix: (Units=1/GPa)
#
#
# Indices 1 2 3 4 5 6 
#
# 1 0.009869 -0.002025 -0.001808 0.000001 -0.003864 0.000001
# 2 -0.002025 0.008370 -0.001324 0.000001 0.003325 0.000003
# 3 -0.001808 -0.001324 0.004530 -0.000001 0.000837 -0.000001
# 4 0.000001 0.000001 -0.000001 0.020443 0.000001 -0.001164
# 5 -0.003864 0.003325 0.000837 0.000001 0.052070 0.000002
# 6 0.000001 0.000003 -0.000001 -0.001164 0.000002 0.017362
#
#
# Mechanical properties :
#
#
# Convention : Reuss Voigt Hill
#
# Bulk Modulus (GPa) = 80.29172 91.72022 86.00597
# Shear Modulus (GPa) = 39.33587 50.19582 44.76584
#
# Velocity S-wave (km/s) = 3.79638 4.28853 4.04994
# Velocity P-wave (km/s) = 6.97389 7.62417 7.30627
#
# Compressibility (1/GPa) = 0.01245458
#
# Stress axis : x y z
#
# Youngs Moduli (GPa) = 101.32899 119.46997 220.74501
#
# Poissons Ratio (x) = 0.24194 0.39921
# Poissons Ratio (y) = 0.20520 0.29222
# Poissons Ratio (z) = 0.18325 0.15815
#
# Static dielectric constant tensor:
#      x y z
#    x 2.204060 0.000000 -0.028620 
#    y 0.000000 2.047950 0.000000 
#    z -0.028620 0.000000 2.221320 
# 
# From -- ./inp_files/304898.got.cif
#   From: 2010.05.17/outbox.cif.g08.bks.cpg/sg15_153_cif.got.tgz:304898.got - 2010.06.03 18:47:42.
