data_PCOD9292856
_publ_section_title
;
Structure prediction by ZEFSAII (Michael W. Deem and Ramdas Pophale) SiO2 
 PCOD9292856
Probable space group: C 2/C
;
_chemical_formula_sum "Si O2"
_cell_formula_units_Z 48
_cell_length_a 5.041517
_cell_length_b 18.487828
_cell_length_c 24.278237
_cell_angle_alpha 90.000000
_cell_angle_beta 81.159391
_cell_angle_gamma 90.000000
_cell_volume 2236.010475
_symmetry_space_group_name_H-M "C 2/C"
_symmetry_group_IT_number 15
_symmetry_cell_setting 'monoclinic'
loop_
_space_group_symop_operation_xyz
x,y,z
-x,y,1/2-z
-x,-y,-z
x,-y,1/2+z
1/2+x,1/2+y,z
1/2-x,1/2+y,1/2-z
1/2-x,1/2-y,-z
1/2+x,1/2-y,1/2+z
loop_
_atom_site_type_symbol
_atom_site_label
_atom_site_fract_x
_atom_site_fract_y
_atom_site_fract_z
Si Si1 0.411891 0.926926 0.931966
Si Si2 0.077030 0.595762 0.551055
Si Si3 0.475999 0.285186 0.031917
Si Si4 0.959894 0.865605 0.870714
Si Si5 0.000000 0.757220 0.250000
Si Si6 0.000000 0.845409 0.750000
Si Si7 0.752104 0.287537 0.131062
O O1 0.140815 0.902704 0.911397
O O2 0.657550 0.888223 0.892993
O O3 0.423735 0.013574 0.929331
O O4 0.445762 0.904578 0.994563
O O5 0.912717 0.646854 0.597999
O O6 0.371754 0.631755 0.535665
O O7 0.552868 0.281858 0.870596
O O8 0.250000 0.250000 0.000000
O O9 0.516659 0.269047 0.095182
O O10 0.028613 0.888393 0.805956
O O11 0.237995 0.705417 0.264281
O O12 0.124909 0.800597 0.194909
O O13 0.750000 0.250000 0.000000
#
# Coordination Sequence:
#
# PCOD9292856 Si02
#       7
#     8   8   8   8   4   4   8
#     4  11  27  43  66  99 144 182 221 276 363 401
#     4  11  27  44  66 102 146 179 223 287 344 424
#     4  12  24  38  66 102 133 169 225 282 336 403
#     4  11  24  43  71  98 129 181 229 285 337 413
#     4  10  24  42  67 100 133 178 216 298 344 390
#     4  10  22  44  69 100 135 168 236 288 336 394
#     4  11  25  43  72  98 137 173 240 280 341 414
#
# _framework density 21.466802999999999
#
# number of rings (size 3 to 8) (size 9 to 14) (size 15 to 20)
#    0.000    1.000    1.667    4.000   11.667    1.333 
#    0.000    0.833    3.667    0.000    0.000    0.000 
#    0.000    0.000    0.000    0.000    0.000    0.000 
#
# Total GULP energy -134167.893548 kJ/mol
# GULP energy per Si atom -5590.328898 kJ/mol
# Density = 2.141794 g / cm^3
# Si number density = 21.466803 Si / 1000 Ang^3
#
#
#
# Elastic Constant Matrix: (Units=GPa)
#
#
# Indices 1 2 3 4 5 6 
#
# 1 125.2733 29.7972 22.7497 0.0000 -3.2115 0.0000
# 2 29.7972 133.5958 49.3650 0.0000 -19.9069 0.0000
# 3 22.7497 49.3650 164.1940 0.0000 -13.5748 0.0000
# 4 0.0000 0.0000 0.0000 15.5315 0.0000 -0.7996
# 5 -3.2115 -19.9069 -13.5748 0.0000 35.8314 0.0000
# 6 0.0000 0.0000 0.0000 -0.7996 0.0000 21.7397
#
#
#
# Elastic Compliance Matrix: (Units=1/GPa)
#
#
# Indices 1 2 3 4 5 6 
#
# 1 0.008504 -0.001704 -0.000703 0.000000 -0.000451 0.000000
# 2 -0.001704 0.009307 -0.002217 0.000000 0.004178 0.000000
# 3 -0.000703 -0.002217 0.006965 0.000000 0.001344 0.000000
# 4 0.000000 0.000000 0.000000 0.064507 0.000000 0.002373
# 5 -0.000451 0.004178 0.001344 0.000000 0.030699 0.000000
# 6 0.000000 0.000000 0.000000 0.002373 0.000000 0.046086
#
#
# Mechanical properties :
#
#
# Convention : Reuss Voigt Hill
#
# Bulk Modulus (GPa) = 64.39750 69.65409 67.02579
# Shear Modulus (GPa) = 27.70199 36.03060 31.86629
#
# Velocity S-wave (km/s) = 3.59619 4.10131 3.85703
# Velocity P-wave (km/s) = 6.87802 7.41252 7.15027
#
# Compressibility (1/GPa) = 0.01552855
#
# Stress axis : x y z
#
# Youngs Moduli (GPa) = 117.59139 107.44613 143.56770
#
# Poissons Ratio (x) = 0.18310 0.10096
# Poissons Ratio (y) = 0.20039 0.31823
# Poissons Ratio (z) = 0.08269 0.23817
#
# Static dielectric constant tensor:
#      x y z
#    x 1.834130 0.000000 -0.024520 
#    y 0.000000 1.805260 0.000000 
#    z -0.024520 0.000000 1.803940 
# 
# From -- ./inp_files/227313.got.cif
#   From: 2010.05.17/outbox.cif.g08.bks.cpg/sg15_114_cif.got.tgz:227313.got - 2010.06.03 18:47:42.
