data_PCOD9292886
_publ_section_title
;
Structure prediction by ZEFSAII (Michael W. Deem and Ramdas Pophale) SiO2 
 PCOD9292886
Probable space group: C 2/C
;
_chemical_formula_sum "Si O2"
_cell_formula_units_Z 52
_cell_length_a 8.326787
_cell_length_b 11.491124
_cell_length_c 24.583488
_cell_angle_alpha 90.000000
_cell_angle_beta 98.640642
_cell_angle_gamma 90.000000
_cell_volume 2325.552063
_symmetry_space_group_name_H-M "C 2/C"
_symmetry_group_IT_number 15
_symmetry_cell_setting 'monoclinic'
loop_
_space_group_symop_operation_xyz
x,y,z
-x,y,1/2-z
-x,-y,-z
x,-y,1/2+z
1/2+x,1/2+y,z
1/2-x,1/2+y,1/2-z
1/2-x,1/2-y,-z
1/2+x,1/2-y,1/2+z
loop_
_atom_site_type_symbol
_atom_site_label
_atom_site_fract_x
_atom_site_fract_y
_atom_site_fract_z
Si Si1 0.175129 0.021493 0.981172
Si Si2 0.303127 0.797422 0.946495
Si Si3 0.722918 0.974417 0.673419
Si Si4 0.231049 0.694051 0.609970
Si Si5 0.414508 0.091884 0.082340
Si Si6 0.500000 0.938893 0.250000
Si Si7 0.394401 0.760533 0.152719
O O1 0.300724 0.014483 0.038407
O O2 0.225663 0.132711 0.946192
O O3 0.201118 0.916981 0.939964
O O4 0.000000 0.000000 0.000000
O O5 0.488698 0.830060 0.956260
O O6 0.261993 0.717926 0.893376
O O7 0.250000 0.750000 0.000000
O O8 0.561880 0.958872 0.625838
O O9 0.847677 0.866585 0.675112
O O10 0.791532 0.099162 0.657332
O O11 0.641076 0.987011 0.728338
O O12 0.315571 0.819156 0.614017
O O13 0.046009 0.724759 0.618657
O O14 0.423152 0.853823 0.200814
#
# Coordination Sequence:
#
# PCOD9292886 Si02
#       7
#     8   8   8   8   8   4   8
#     4  12  23  38  62 101 145 186 226 277 336 410
#     4  11  22  38  64  99 136 176 227 271 337 415
#     4  10  24  46  67  98 130 173 231 284 345 413
#     4  11  22  42  63  96 140 178 223 280 330 408
#     4  11  23  38  64  93 136 182 220 276 334 399
#     4  10  24  42  72  94 130 168 222 298 344 408
#     4  10  22  44  69  94 134 177 222 287 342 405
#
# _framework density 22.360284
#
# number of rings (size 3 to 8) (size 9 to 14) (size 15 to 20)
#    0.000    1.231    3.077    3.692    4.308    2.462 
#    0.000    3.077    0.000    0.000    0.000    0.000 
#    0.000    0.000    0.000    0.000    0.000    0.000 
#
# Total GULP energy -144851.609788 kJ/mol
# GULP energy per Si atom -5571.215761 kJ/mol
# Density = 2.230939 g / cm^3
# Si number density = 22.360284 Si / 1000 Ang^3
#
#
#
# Elastic Constant Matrix: (Units=GPa)
#
#
# Indices 1 2 3 4 5 6 
#
# 1 118.0418 32.9473 38.7712 0.0000 -24.1342 0.0000
# 2 32.9473 83.3399 27.7677 0.0000 -16.3691 0.0000
# 3 38.7712 27.7677 76.4523 0.0000 -17.2872 0.0000
# 4 0.0000 0.0000 0.0000 30.9113 0.0000 -12.3109
# 5 -24.1342 -16.3691 -17.2872 0.0000 32.8726 0.0000
# 6 0.0000 0.0000 0.0000 -12.3109 0.0000 47.3383
#
#
#
# Elastic Compliance Matrix: (Units=1/GPa)
#
#
# Indices 1 2 3 4 5 6 
#
# 1 0.011414 -0.002212 -0.003790 0.000000 0.005286 0.000000
# 2 -0.002212 0.014768 -0.003344 0.000000 0.003971 0.000000
# 3 -0.003790 -0.003344 0.017264 0.000000 0.004631 0.000000
# 4 0.000000 0.000000 0.000000 0.036089 0.000000 0.009385
# 5 0.005286 0.003971 0.004631 0.000000 0.038714 0.000000
# 6 0.000000 0.000000 0.000000 0.009385 0.000000 0.023565
#
#
# Mechanical properties :
#
#
# Convention : Reuss Voigt Hill
#
# Bulk Modulus (GPa) = 40.39703 52.97849 46.68776
# Shear Modulus (GPa) = 29.62843 34.11428 31.87135
#
# Velocity S-wave (km/s) = 3.64407 3.91021 3.77948
# Velocity P-wave (km/s) = 5.98425 6.64311 6.32227
#
# Compressibility (1/GPa) = 0.02475429
#
# Stress axis : x y z
#
# Youngs Moduli (GPa) = 87.60835 67.71581 57.92436
#
# Poissons Ratio (x) = 0.14976 0.21954
# Poissons Ratio (y) = 0.19375 0.19371
# Poissons Ratio (z) = 0.33205 0.22645
#
# Static dielectric constant tensor:
#      x y z
#    x 1.854850 0.000000 -0.019180 
#    y 0.000000 1.973590 0.000000 
#    z -0.019180 0.000000 1.890720 
# 
# From -- ./inp_files/287720.got.cif
#   From: 2010.05.17/outbox.cif.g08.bks.cpg/sg15_144_cif.got.tgz:287720.got - 2010.06.03 18:47:42.
