data_PCOD9292218
_publ_section_title
;
Structure prediction by ZEFSAII (Michael W. Deem and Ramdas Pophale) SiO2 
 PCOD9292218
Probable space group: C 2/C
;
_chemical_formula_sum "Si O2"
_cell_formula_units_Z 40
_cell_length_a 13.680944
_cell_length_b 5.108449
_cell_length_c 24.704722
_cell_angle_alpha 90.000000
_cell_angle_beta 62.526059
_cell_angle_gamma 90.000000
_cell_volume 1531.851935
_symmetry_space_group_name_H-M "C 2/C"
_symmetry_group_IT_number 15
_symmetry_cell_setting 'monoclinic'
loop_
_space_group_symop_operation_xyz
x,y,z
-x,y,1/2-z
-x,-y,-z
x,-y,1/2+z
1/2+x,1/2+y,z
1/2-x,1/2+y,1/2-z
1/2-x,1/2-y,-z
1/2+x,1/2-y,1/2+z
loop_
_atom_site_type_symbol
_atom_site_label
_atom_site_fract_x
_atom_site_fract_y
_atom_site_fract_z
Si Si1 0.402465 0.841965 0.246565
Si Si2 0.515362 0.810054 0.634881
Si Si3 0.682626 0.445125 0.839331
Si Si4 0.986911 0.293121 0.050133
Si Si5 0.823320 0.002977 0.966717
O O1 0.500000 0.676884 0.250000
O O2 0.340132 0.700184 0.212378
O O3 0.473689 0.074151 0.201492
O O4 0.305562 0.948901 0.309345
O O5 0.405187 0.678477 0.638931
O O6 0.614210 0.600399 0.604594
O O7 0.537117 0.060066 0.591011
O O8 0.637728 0.270634 0.900130
O O9 0.068966 0.047006 0.023702
O O10 0.000000 0.500000 0.000000
O O11 0.750000 0.750000 0.000000
O O12 0.750000 0.250000 0.000000
#
# Coordination Sequence:
#
# PCOD9292218 Si02
#       5
#     8   8   8   8   8
#     4  11  23  43  70 101 139 196 249 305 387 447
#     4  10  22  44  67  95 148 191 238 313 375 442
#     4  10  22  43  68 100 151 186 249 322 362 460
#     4  10  23  43  70 103 142 198 247 304 390 449
#     4  11  22  42  67  99 141 186 240 305 364 443
#
# _framework density 26.112186999999999
#
# number of rings (size 3 to 8) (size 9 to 14) (size 15 to 20)
#    0.000    1.600    4.000    0.000    0.000    5.600 
#    3.600    0.000    0.000    0.000    0.000    0.000 
#    0.000    0.000    0.000    0.000    0.000    0.000 
#
# Total GULP energy -111739.050083 kJ/mol
# GULP energy per Si atom -5586.952504 kJ/mol
# Density = 2.605275 g / cm^3
# Si number density = 26.112187 Si / 1000 Ang^3
#
#
#
# Elastic Constant Matrix: (Units=GPa)
#
#
# Indices 1 2 3 4 5 6 
#
# 1 103.4161 16.6909 43.2170 -0.0002 -42.3706 0.0013
# 2 16.6909 108.1346 26.3682 0.0035 -23.4013 0.0029
# 3 43.2170 26.3682 133.2019 -0.0006 -44.4806 0.0002
# 4 -0.0002 0.0035 -0.0006 44.2344 0.0003 -10.5189
# 5 -42.3706 -23.4013 -44.4806 0.0003 54.3870 0.0003
# 6 0.0013 0.0029 0.0002 -10.5189 0.0003 29.9811
#
#
#
# Elastic Compliance Matrix: (Units=1/GPa)
#
#
# Indices 1 2 3 4 5 6 
#
# 1 0.014368 0.000321 -0.001295 0.000000 0.010272 -0.000001
# 2 0.000321 0.010261 -0.000795 -0.000001 0.004015 -0.000001
# 3 -0.001295 -0.000795 0.010502 0.000000 0.007238 0.000000
# 4 0.000000 -0.000001 0.000000 0.024665 -0.000001 0.008654
# 5 0.010272 0.004015 0.007238 -0.000001 0.034037 -0.000002
# 6 -0.000001 -0.000001 0.000000 0.008654 -0.000002 0.036390
#
#
# Mechanical properties :
#
#
# Convention : Reuss Voigt Hill
#
# Bulk Modulus (GPa) = 31.65159 57.47831 44.56495
# Shear Modulus (GPa) = 34.65228 42.95228 38.80228
#
# Velocity S-wave (km/s) = 3.64683 4.06015 3.85903
# Velocity P-wave (km/s) = 5.46628 6.63624 6.07947
#
# Compressibility (1/GPa) = 0.03159399
#
# Stress axis : x y z
#
# Youngs Moduli (GPa) = 69.60079 97.45769 95.22042
#
# Poissons Ratio (x) = -0.03129 0.12329
# Poissons Ratio (y) = -0.02235 0.07566
# Poissons Ratio (z) = 0.09012 0.07743
#
# Static dielectric constant tensor:
#      x y z
#    x 2.198160 0.000000 0.128430 
#    y 0.000000 2.201530 0.000000 
#    z 0.128430 0.000000 2.110390 
# 
# From -- ./inp_files/312016.got.cif
#   From: 2010.05.17/outbox.cif.g08.bks.cpg/sg15_157_cif.got.tgz:312016.got - 2010.06.03 18:47:42.
