data_PCOD9292102
_publ_section_title
;
Structure prediction by ZEFSAII (Michael W. Deem and Ramdas Pophale) SiO2 
 PCOD9292102
Probable space group: C 2/C
;
_chemical_formula_sum "Si O2"
_cell_formula_units_Z 56
_cell_length_a 24.708694
_cell_length_b 9.236479
_cell_length_c 14.977953
_cell_angle_alpha 90.000000
_cell_angle_beta 122.333179
_cell_angle_gamma 90.000000
_cell_volume 2888.290502
_symmetry_space_group_name_H-M "C 2/C"
_symmetry_group_IT_number 15
_symmetry_cell_setting 'monoclinic'
loop_
_space_group_symop_operation_xyz
x,y,z
-x,y,1/2-z
-x,-y,-z
x,-y,1/2+z
1/2+x,1/2+y,z
1/2-x,1/2+y,1/2-z
1/2-x,1/2-y,-z
1/2+x,1/2-y,1/2+z
loop_
_atom_site_type_symbol
_atom_site_label
_atom_site_fract_x
_atom_site_fract_y
_atom_site_fract_z
Si Si1 0.676391 0.282280 0.906299
Si Si2 0.675659 0.620662 0.917113
Si Si3 0.043149 0.850342 0.375396
Si Si4 0.455600 0.687935 0.122730
Si Si5 0.469511 0.155781 0.968542
Si Si6 0.736313 0.827566 0.833289
Si Si7 0.676040 0.128094 0.717095
O O1 0.667954 0.453955 0.882372
O O2 0.616316 0.251949 0.920345
O O3 0.667565 0.193856 0.808195
O O4 0.750000 0.250000 0.000000
O O5 0.613730 0.691892 0.906525
O O6 0.690598 0.712071 0.841982
O O7 0.725455 0.618350 0.044076
O O8 0.019424 0.750823 0.433672
O O9 0.000000 0.841553 0.250000
O O10 0.048984 0.018757 0.407495
O O11 0.500000 0.696606 0.250000
O O12 0.494995 0.766761 0.081460
O O13 0.393820 0.134192 0.888107
O O14 0.500000 0.000000 0.000000
O O15 0.778722 0.734044 0.801543
O O16 0.704792 0.966066 0.756384
#
# Coordination Sequence:
#
# PCOD9292102 Si02
#       7
#     8   8   8   8   8   8   8
#     4  11  22  42  71  99 129 171 224 276 332 399
#     4  10  22  43  66  95 129 170 218 270 330 394
#     4  10  23  45  69  93 127 176 224 269 325 402
#     4  10  22  44  70  94 132 180 222 271 337 404
#     4  12  27  43  64 102 136 175 220 278 339 400
#     4  11  24  42  67  95 133 175 215 275 334 390
#     4  12  25  45  66  97 136 174 223 276 332 402
#
# _framework density 19.388632999999999
#
# number of rings (size 3 to 8) (size 9 to 14) (size 15 to 20)
#    0.000    1.143    4.286    1.286    2.000    4.000 
#    0.000    0.000    0.000    0.000    0.000    0.000 
#    0.000    0.000    0.000    0.000    0.000    0.000 
#
# Total GULP energy -156226.726693 kJ/mol
# GULP energy per Si atom -5579.525953 kJ/mol
# Density = 1.934450 g / cm^3
# Si number density = 19.388633 Si / 1000 Ang^3
#
#
#
# Elastic Constant Matrix: (Units=GPa)
#
#
# Indices 1 2 3 4 5 6 
#
# 1 141.4612 81.8707 28.0667 0.0000 -19.3963 0.0000
# 2 81.8707 111.8240 41.0408 0.0000 -22.6684 0.0000
# 3 28.0667 41.0408 51.6463 0.0000 -8.0605 0.0000
# 4 0.0000 0.0000 0.0000 289.1664 0.0000 29.8792
# 5 -19.3963 -22.6684 -8.0605 0.0000 28.7728 0.0000
# 6 0.0000 0.0000 0.0000 29.8792 0.0000 40.2483
#
#
#
# Elastic Compliance Matrix: (Units=1/GPa)
#
#
# Indices 1 2 3 4 5 6 
#
# 1 0.012332 -0.008982 0.000658 0.000000 0.001421 0.000000
# 2 -0.008982 0.020910 -0.010571 0.000000 0.007458 0.000000
# 3 0.000658 -0.010571 0.027372 0.000000 -0.000217 0.000000
# 4 0.000000 0.000000 0.000000 0.003746 0.000000 -0.002781
# 5 0.001421 0.007458 -0.000217 0.000000 0.041528 0.000000
# 6 0.000000 0.000000 0.000000 -0.002781 0.000000 0.026910
#
#
# Mechanical properties :
#
#
# Convention : Reuss Voigt Hill
#
# Bulk Modulus (GPa) = 43.81616 67.43198 55.62407
# Shear Modulus (GPa) = 28.05917 81.90103 54.98010
#
# Velocity S-wave (km/s) = 3.80833 6.50642 5.33089
# Velocity P-wave (km/s) = 6.47965 9.55507 8.16349
#
# Compressibility (1/GPa) = 0.02282263
#
# Stress axis : x y z
#
# Youngs Moduli (GPa) = 81.09216 47.82378 36.53417
#
# Poissons Ratio (x) = 0.42954 -0.02403
# Poissons Ratio (y) = 0.72835 0.38621
# Poissons Ratio (z) = -0.05333 0.50556
#
# Static dielectric constant tensor:
#      x y z
#    x 1.831360 0.000000 -0.020150 
#    y 0.000000 1.722390 0.000000 
#    z -0.020150 0.000000 1.732160 
# 
# From -- ./inp_files/172298.got.cif
#   From: 2010.05.17/outbox.cif.g08.bks.cpg/sg15_87_cif.got.tgz:172298.got - 2010.06.03 18:47:42.
