data_PCOD9292204
_publ_section_title
;
Structure prediction by ZEFSAII (Michael W. Deem and Ramdas Pophale) SiO2 
 PCOD9292204
Probable space group: C 2/C
;
_chemical_formula_sum "Si O2"
_cell_formula_units_Z 44
_cell_length_a 4.876954
_cell_length_b 27.761556
_cell_length_c 14.157185
_cell_angle_alpha 90.000000
_cell_angle_beta 114.065398
_cell_angle_gamma 90.000000
_cell_volume 1750.162969
_symmetry_space_group_name_H-M "C 2/C"
_symmetry_group_IT_number 15
_symmetry_cell_setting 'monoclinic'
loop_
_space_group_symop_operation_xyz
x,y,z
-x,y,1/2-z
-x,-y,-z
x,-y,1/2+z
1/2+x,1/2+y,z
1/2-x,1/2+y,1/2-z
1/2-x,1/2-y,-z
1/2+x,1/2-y,1/2+z
loop_
_atom_site_type_symbol
_atom_site_label
_atom_site_fract_x
_atom_site_fract_y
_atom_site_fract_z
Si Si1 0.319484 0.922995 0.823645
Si Si2 0.840850 0.524054 0.828727
Si Si3 0.494264 0.873738 0.136619
Si Si4 0.500000 0.698989 0.750000
Si Si5 0.943482 0.159641 0.071894
Si Si6 0.482452 0.223698 0.100151
O O1 0.500000 0.911324 0.750000
O O2 0.192773 0.880557 0.873965
O O3 0.000000 0.944532 0.750000
O O4 0.443998 0.972429 0.887818
O O5 0.500000 0.535646 0.750000
O O6 0.940486 0.573180 0.894173
O O7 0.000000 0.520520 0.750000
O O8 0.500000 0.878241 0.250000
O O9 0.755276 0.833990 0.162464
O O10 0.182991 0.856732 0.047089
O O11 0.382276 0.737221 0.809591
O O12 0.756873 0.205115 0.078569
O O13 0.286956 0.178511 0.116405
O O14 0.250000 0.250000 0.000000
#
# Coordination Sequence:
#
# PCOD9292204 Si02
#       6
#     8   8   8   4   8   8
#     4  10  22  43  67  98 138 178 214 272 333 396
#     4   9  19  38  66  97 131 169 220 267 327 397
#     4  11  24  43  70  97 131 175 222 278 335 396
#     4  12  26  42  70  88 132 176 222 268 340 376
#     4  12  27  44  68 100 136 172 227 274 335 400
#     4  12  27  46  65  99 132 175 224 282 325 399
#
# _framework density 25.140515000000001
#
# number of rings (size 3 to 8) (size 9 to 14) (size 15 to 20)
#    0.000    1.091    2.727    2.727    6.364    0.727 
#    0.000    0.000    0.000   10.909    0.000    0.000 
#    0.000    0.000    0.000    0.000    0.000    0.000 
#
# Total GULP energy -122542.956516 kJ/mol
# GULP energy per Si atom -5570.134387 kJ/mol
# Density = 2.508329 g / cm^3
# Si number density = 25.140515 Si / 1000 Ang^3
#
#
#
# Elastic Constant Matrix: (Units=GPa)
#
#
# Indices 1 2 3 4 5 6 
#
# 1 126.0013 14.9227 9.3946 0.0000 -6.4724 0.0000
# 2 14.9227 144.2794 39.0901 0.0000 -14.9522 0.0000
# 3 9.3946 39.0901 61.4017 0.0000 -18.1840 0.0000
# 4 0.0000 0.0000 0.0000 20.6438 0.0000 2.9461
# 5 -6.4724 -14.9522 -18.1840 0.0000 20.3620 0.0000
# 6 0.0000 0.0000 0.0000 2.9461 0.0000 15.5903
#
#
#
# Elastic Compliance Matrix: (Units=1/GPa)
#
#
# Indices 1 2 3 4 5 6 
#
# 1 0.008123 -0.000555 -0.000334 0.000000 0.001876 0.000000
# 2 -0.000555 0.008467 -0.004781 0.000000 0.001772 0.000000
# 3 -0.000334 -0.004781 0.024893 0.000000 0.018614 0.000000
# 4 0.000000 0.000000 0.000000 0.049783 0.000000 -0.009408
# 5 0.001876 0.001772 0.018614 0.000000 0.067631 0.000000
# 6 0.000000 0.000000 0.000000 -0.009408 0.000000 0.065920
#
#
# Mechanical properties :
#
#
# Convention : Reuss Voigt Hill
#
# Bulk Modulus (GPa) = 33.17372 50.94414 42.05893
# Shear Modulus (GPa) = 20.30811 29.20421 24.75616
#
# Velocity S-wave (km/s) = 2.84524 3.41198 3.14142
# Velocity P-wave (km/s) = 4.90080 5.98581 5.47027
#
# Compressibility (1/GPa) = 0.03014434
#
# Stress axis : x y z
#
# Youngs Moduli (GPa) = 123.10023 118.10066 40.17130
#
# Poissons Ratio (x) = 0.06559 0.01340
# Poissons Ratio (y) = 0.06836 0.19206
# Poissons Ratio (z) = 0.04108 0.56463
#
# Static dielectric constant tensor:
#      x y z
#    x 2.649530 0.000000 0.770370 
#    y 0.000000 2.220890 0.000000 
#    z 0.770370 0.000000 2.997210 
# 
# From -- ./inp_files/129885.got.cif
#   From: 2010.05.17/outbox.cif.g08.bks.cpg/sg15_65_cif.got.tgz:129885.got - 2010.06.03 18:47:42.
