data_PCOD9292485
_publ_section_title
;
Structure prediction by ZEFSAII (Michael W. Deem and Ramdas Pophale) SiO2 
 PCOD9292485
Probable space group: C 2/C
;
_chemical_formula_sum "Si O2"
_cell_formula_units_Z 48
_cell_length_a 8.274940
_cell_length_b 16.808829
_cell_length_c 14.336379
_cell_angle_alpha 90.000000
_cell_angle_beta 110.161690
_cell_angle_gamma 90.000000
_cell_volume 1871.886727
_symmetry_space_group_name_H-M "C 2/C"
_symmetry_group_IT_number 15
_symmetry_cell_setting 'monoclinic'
loop_
_space_group_symop_operation_xyz
x,y,z
-x,y,1/2-z
-x,-y,-z
x,-y,1/2+z
1/2+x,1/2+y,z
1/2-x,1/2+y,1/2-z
1/2-x,1/2-y,-z
1/2+x,1/2-y,1/2+z
loop_
_atom_site_type_symbol
_atom_site_label
_atom_site_fract_x
_atom_site_fract_y
_atom_site_fract_z
Si Si1 0.344998 0.765591 0.920586
Si Si2 0.116373 0.430657 0.685532
Si Si3 0.706909 0.934415 0.084748
Si Si4 0.293683 0.287597 0.219733
Si Si5 0.031256 0.048955 0.159592
Si Si6 0.348481 0.335705 0.952588
O O1 0.349801 0.854261 0.875811
O O2 0.252749 0.717244 0.820167
O O3 0.250000 0.750000 0.000000
O O4 0.538010 0.728329 0.968516
O O5 0.078021 0.500565 0.603146
O O6 0.272366 0.471155 0.778618
O O7 0.000000 0.407262 0.750000
O O8 0.000000 0.096874 0.250000
O O9 0.893903 0.978977 0.126411
O O10 0.718648 0.888959 0.987704
O O11 0.500000 0.295673 0.250000
O O12 0.234130 0.210313 0.150488
O O13 0.203654 0.361487 0.154587
O O14 0.018929 0.102028 0.066595
#
# Coordination Sequence:
#
# PCOD9292485 Si02
#       6
#     8   8   8   8   8   8
#     4  12  27  47  76 112 153 197 258 310 382 453
#     4  11  25  49  74 111 162 200 237 330 393 432
#     4  11  25  48  77 110 142 204 261 294 377 471
#     4  12  25  49  76 107 151 196 257 317 372 449
#     4  10  22  43  73 106 152 197 247 308 370 448
#     4  12  26  44  82 112 144 205 255 312 373 459
#
# _framework density 25.642576999999999
#
# number of rings (size 3 to 8) (size 9 to 14) (size 15 to 20)
#    0.000    0.667    3.333    5.000    0.000    0.000 
#    3.000    1.667    0.000    0.000    0.000    0.000 
#    0.000    0.000    0.000    0.000    0.000    0.000 
#
# Total GULP energy -134034.938071 kJ/mol
# GULP energy per Si atom -5584.789086 kJ/mol
# Density = 2.558421 g / cm^3
# Si number density = 25.642577 Si / 1000 Ang^3
#
#
#
# Elastic Constant Matrix: (Units=GPa)
#
#
# Indices 1 2 3 4 5 6 
#
# 1 62.4293 35.5480 35.2237 0.0000 -28.3739 0.0000
# 2 35.5480 143.7162 57.2813 0.0000 -32.8961 0.0000
# 3 35.2237 57.2813 175.4077 0.0000 -55.1040 0.0000
# 4 0.0000 0.0000 0.0000 42.5085 0.0000 4.6185
# 5 -28.3739 -32.8961 -55.1040 0.0000 57.8911 0.0000
# 6 0.0000 0.0000 0.0000 4.6185 0.0000 40.9052
#
#
#
# Elastic Compliance Matrix: (Units=1/GPa)
#
#
# Indices 1 2 3 4 5 6 
#
# 1 0.022048 -0.003263 -0.000784 0.000000 0.008206 0.000000
# 2 -0.003263 0.008848 -0.001651 0.000000 0.001858 0.000000
# 3 -0.000784 -0.001651 0.008534 0.000000 0.006801 0.000000
# 4 0.000000 0.000000 0.000000 0.023817 0.000000 -0.002689
# 5 0.008206 0.001858 0.006801 0.000000 0.028825 0.000000
# 6 0.000000 0.000000 0.000000 -0.002689 0.000000 0.024750
#
#
# Mechanical properties :
#
#
# Convention : Reuss Voigt Hill
#
# Bulk Modulus (GPa) = 35.66970 70.85101 53.26036
# Shear Modulus (GPa) = 36.34718 45.16097 40.75408
#
# Velocity S-wave (km/s) = 3.76899 4.20118 3.99094
# Velocity P-wave (km/s) = 5.73419 7.15706 6.48477
#
# Compressibility (1/GPa) = 0.02803500
#
# Stress axis : x y z
#
# Youngs Moduli (GPa) = 45.35582 113.01570 117.17841
#
# Poissons Ratio (x) = 0.36874 0.09188
# Poissons Ratio (y) = 0.14798 0.19344
# Poissons Ratio (z) = 0.03556 0.18657
#
# Static dielectric constant tensor:
#      x y z
#    x 2.204960 0.000000 0.059780 
#    y 0.000000 2.026580 0.000000 
#    z 0.059780 0.000000 2.082590 
# 
# From -- ./inp_files/79885.got.cif
#   From: 2010.05.17/outbox.cif.g08.bks.cpg/sg15_40_cif.got.tgz:79885.got - 2010.06.03 18:47:42.
