data_PCOD9292918
_publ_section_title
;
Structure prediction by ZEFSAII (Michael W. Deem and Ramdas Pophale) SiO2 
 PCOD9292918
Probable space group: C 2/C
;
_chemical_formula_sum "Si O2"
_cell_formula_units_Z 36
_cell_length_a 8.418534
_cell_length_b 30.739602
_cell_length_c 9.136390
_cell_angle_alpha 90.000000
_cell_angle_beta 48.205011
_cell_angle_gamma 90.000000
_cell_volume 1762.694152
_symmetry_space_group_name_H-M "C 2/C"
_symmetry_group_IT_number 15
_symmetry_cell_setting 'monoclinic'
loop_
_space_group_symop_operation_xyz
x,y,z
-x,y,1/2-z
-x,-y,-z
x,-y,1/2+z
1/2+x,1/2+y,z
1/2-x,1/2+y,1/2-z
1/2-x,1/2-y,-z
1/2+x,1/2-y,1/2+z
loop_
_atom_site_type_symbol
_atom_site_label
_atom_site_fract_x
_atom_site_fract_y
_atom_site_fract_z
Si Si1 0.500000 0.004536 0.750000
Si Si2 0.747853 0.449899 0.147570
Si Si3 0.026289 0.803371 0.561537
Si Si4 0.068638 0.718502 0.357970
Si Si5 0.226856 0.151023 0.690718
O O1 0.620811 0.974714 0.558084
O O2 0.671112 0.031533 0.744428
O O3 0.500000 0.455135 0.250000
O O4 0.793987 0.398390 0.123072
O O5 0.777592 0.806487 0.674037
O O6 0.000000 0.805925 0.750000
O O7 0.104035 0.756600 0.453387
O O8 0.174063 0.838515 0.393028
O O9 0.000000 0.741672 0.250000
O O10 0.901383 0.684990 0.527042
O O11 0.000000 0.157375 0.750000
#
# Coordination Sequence:
#
# PCOD9292918 Si02
#       5
#     4   8   8   8   8
#     4  10  22  44  70 100 126 172 208 262 336 396
#     4  10  23  42  69  99 134 165 213 266 325 392
#     4  12  25  39  59  90 125 169 217 266 314 361
#     4  12  23  39  62  84 121 173 214 254 306 375
#     4  11  24  41  63  94 126 168 215 258 311 379
#
# _framework density 20.423282
#
# number of rings (size 3 to 8) (size 9 to 14) (size 15 to 20)
#    0.000    0.889    4.444    2.667    1.556    1.778 
#    0.000    5.556    0.000    0.000    0.000    0.000 
#    0.000    0.000    0.000    0.000    0.000    0.000 
#
# Total GULP energy -100442.109822 kJ/mol
# GULP energy per Si atom -5580.117212 kJ/mol
# Density = 2.037680 g / cm^3
# Si number density = 20.423282 Si / 1000 Ang^3
#
#
#
# Elastic Constant Matrix: (Units=GPa)
#
#
# Indices 1 2 3 4 5 6 
#
# 1 79.1987 29.9802 23.7789 0.0000 22.4896 0.0000
# 2 29.9802 109.2081 24.0369 0.0000 5.9817 0.0000
# 3 23.7789 24.0369 92.4837 0.0000 19.1017 0.0000
# 4 0.0000 0.0000 0.0000 22.9870 0.0000 21.4055
# 5 22.4896 5.9817 19.1017 0.0000 46.2724 0.0000
# 6 0.0000 0.0000 0.0000 21.4055 0.0000 31.8631
#
#
#
# Elastic Compliance Matrix: (Units=1/GPa)
#
#
# Indices 1 2 3 4 5 6 
#
# 1 0.016536 -0.003755 -0.001876 0.000000 -0.006777 0.000000
# 2 -0.003755 0.010568 -0.002051 0.000000 0.001306 0.000000
# 3 -0.001876 -0.002051 0.012665 0.000000 -0.004051 0.000000
# 4 0.000000 0.000000 0.000000 0.116187 0.000000 -0.078054
# 5 -0.006777 0.001306 -0.004051 0.000000 0.026409 0.000000
# 6 0.000000 0.000000 0.000000 -0.078054 0.000000 0.083821
#
#
# Mechanical properties :
#
#
# Convention : Reuss Voigt Hill
#
# Bulk Modulus (GPa) = 40.97629 48.49805 44.73717
# Shear Modulus (GPa) = 17.26024 33.76412 25.51218
#
# Velocity S-wave (km/s) = 2.91026 4.07039 3.53820
# Velocity P-wave (km/s) = 5.60356 6.77412 6.21646
#
# Compressibility (1/GPa) = 0.02440436
#
# Stress axis : x y z
#
# Youngs Moduli (GPa) = 60.47535 94.62879 78.95916
#
# Poissons Ratio (x) = 0.35537 0.14811
# Poissons Ratio (y) = 0.22711 0.16192
# Poissons Ratio (z) = 0.11344 0.19405
#
# Static dielectric constant tensor:
#      x y z
#    x 1.955290 0.000000 0.015490 
#    y 0.000000 1.680600 0.000000 
#    z 0.015490 0.000000 1.694980 
# 
# From -- ./inp_files/25172.got.cif
#   From: 2010.05.17/outbox.cif.g08.bks.cpg/sg15_13_cif.got.tgz:25172.got - 2010.06.03 18:47:42.
