data_PCOD9292875
_publ_section_title
;
Structure prediction by ZEFSAII (Michael W. Deem and Ramdas Pophale) SiO2 
 PCOD9292875
Probable space group: C 2/C
;
_chemical_formula_sum "Si O2"
_cell_formula_units_Z 40
_cell_length_a 28.942328
_cell_length_b 5.668915
_cell_length_c 10.344527
_cell_angle_alpha 90.000000
_cell_angle_beta 109.719455
_cell_angle_gamma 90.000000
_cell_volume 1597.709995
_symmetry_space_group_name_H-M "C 2/C"
_symmetry_group_IT_number 15
_symmetry_cell_setting 'monoclinic'
loop_
_space_group_symop_operation_xyz
x,y,z
-x,y,1/2-z
-x,-y,-z
x,-y,1/2+z
1/2+x,1/2+y,z
1/2-x,1/2+y,1/2-z
1/2-x,1/2-y,-z
1/2+x,1/2-y,1/2+z
loop_
_atom_site_type_symbol
_atom_site_label
_atom_site_fract_x
_atom_site_fract_y
_atom_site_fract_z
Si Si1 0.053604 0.292565 0.601773
Si Si2 0.805418 0.356776 0.675073
Si Si3 0.464670 0.709874 0.337936
Si Si4 0.856973 0.597517 0.478968
Si Si5 0.210714 0.954916 0.988546
O O1 0.057573 0.524653 0.696693
O O2 0.087503 0.368969 0.512891
O O3 0.998448 0.249526 0.497800
O O4 0.066578 0.031581 0.670721
O O5 0.836836 0.449112 0.580889
O O6 0.827718 0.473074 0.821693
O O7 0.746682 0.387759 0.609095
O O8 0.807606 0.076473 0.659112
O O9 0.500000 0.663149 0.250000
O O10 0.836430 0.857933 0.486742
O O11 0.250000 0.750000 0.000000
#
# Coordination Sequence:
#
# PCOD9292875 Si02
#       5
#     8   8   8   8   8
#     4  10  24  41  66 104 125 178 222 280 341 409
#     4  10  24  42  66  95 137 178 225 282 335 406
#     4  10  22  44  69  91 138 172 221 277 351 408
#     4  11  25  40  68 100 132 176 229 280 338 406
#     4   9  22  41  62  92 133 179 219 269 339 394
#
# _framework density 25.035834000000001
#
# number of rings (size 3 to 8) (size 9 to 14) (size 15 to 20)
#    0.000    2.000    0.000    0.600   14.000    3.200 
#    0.000    0.000    0.000    0.000    0.000    0.000 
#    0.000    0.000    0.000    0.000    0.000    0.000 
#
# Total GULP energy -111413.645314 kJ/mol
# GULP energy per Si atom -5570.682266 kJ/mol
# Density = 2.497885 g / cm^3
# Si number density = 25.035834 Si / 1000 Ang^3
#
#
#
# Elastic Constant Matrix: (Units=GPa)
#
#
# Indices 1 2 3 4 5 6 
#
# 1 50.0467 16.1882 -23.8788 0.0000 -10.1895 0.0000
# 2 16.1882 141.2072 19.7830 0.0000 -16.3647 0.0000
# 3 -23.8788 19.7830 65.4618 0.0000 -15.4774 0.0000
# 4 0.0000 0.0000 0.0000 20.8353 0.0000 -25.5562
# 5 -10.1895 -16.3647 -15.4774 0.0000 41.4730 0.0000
# 6 0.0000 0.0000 0.0000 -25.5562 0.0000 35.7794
#
#
#
# Elastic Compliance Matrix: (Units=1/GPa)
#
#
# Indices 1 2 3 4 5 6 
#
# 1 0.031151 -0.004381 0.015451 0.000000 0.011691 0.000000
# 2 -0.004381 0.008214 -0.003914 0.000000 0.000704 0.000000
# 3 0.015451 -0.003914 0.024817 0.000000 0.011513 0.000000
# 4 0.000000 0.000000 0.000000 0.387405 0.000000 0.276713
# 5 0.011691 0.000704 0.011513 0.000000 0.031559 0.000000
# 6 0.000000 0.000000 0.000000 0.276713 0.000000 0.225597
#
#
# Mechanical properties :
#
#
# Convention : Reuss Voigt Hill
#
# Bulk Modulus (GPa) = 12.73970 31.21115 21.97543
# Shear Modulus (GPa) = 6.93870 35.92576 21.43223
#
# Velocity S-wave (km/s) = 1.66659 3.79221 2.92903
# Velocity P-wave (km/s) = 2.96699 5.62745 4.49840
#
# Compressibility (1/GPa) = 0.07849476
#
# Stress axis : x y z
#
# Youngs Moduli (GPa) = 32.10174 121.74377 40.29454
#
# Poissons Ratio (x) = 0.53336 -0.62260
# Poissons Ratio (y) = 0.14064 0.15771
# Poissons Ratio (z) = -0.49601 0.47649
#
# Static dielectric constant tensor:
#      x y z
#    x 1.985280 0.000000 0.015910 
#    y 0.000000 2.301380 0.000000 
#    z 0.015910 0.000000 2.101060 
# 
# From -- ./inp_files/120873.got.cif
#   From: 2010.05.17/outbox.cif.g08.bks.cpg/sg15_61_cif.got.tgz:120873.got - 2010.06.03 18:47:42.
