data_PCOD9292445
_publ_section_title
;
Structure prediction by ZEFSAII (Michael W. Deem and Ramdas Pophale) SiO2 
 PCOD9292445
Probable space group: C 2/C
;
_chemical_formula_sum "Si O2"
_cell_formula_units_Z 36
_cell_length_a 22.560827
_cell_length_b 7.238447
_cell_length_c 9.059884
_cell_angle_alpha 90.000000
_cell_angle_beta 114.828777
_cell_angle_gamma 90.000000
_cell_volume 1342.769909
_symmetry_space_group_name_H-M "C 2/C"
_symmetry_group_IT_number 15
_symmetry_cell_setting 'monoclinic'
loop_
_space_group_symop_operation_xyz
x,y,z
-x,y,1/2-z
-x,-y,-z
x,-y,1/2+z
1/2+x,1/2+y,z
1/2-x,1/2+y,1/2-z
1/2-x,1/2-y,-z
1/2+x,1/2-y,1/2+z
loop_
_atom_site_type_symbol
_atom_site_label
_atom_site_fract_x
_atom_site_fract_y
_atom_site_fract_z
Si Si1 0.813401 0.614529 0.919813
Si Si2 0.500000 0.315928 0.750000
Si Si3 0.185700 0.992376 0.926751
Si Si4 0.399087 0.643324 0.920903
Si Si5 0.399539 0.979276 0.259814
O O1 0.803267 0.823538 0.962076
O O2 0.876582 0.554695 0.078941
O O3 0.751890 0.490562 0.901732
O O4 0.834742 0.597600 0.773774
O O5 0.457925 0.427469 0.585555
O O6 0.547652 0.177528 0.710263
O O7 0.128847 0.029587 0.746110
O O8 0.160240 0.846909 0.021022
O O9 0.419083 0.840299 0.874012
#
# Coordination Sequence:
#
# PCOD9292445 Si02
#       5
#     8   4   8   8   8
#     4  10  22  43  72 101 139 176 233 295 355 423
#     4  12  26  46  68 102 144 194 246 272 340 426
#     4  10  24  44  66 109 138 175 230 294 372 403
#     4  11  25  44  70  99 141 185 227 294 341 425
#     4  11  23  44  71 100 132 193 234 289 339 410
#
# _framework density 26.81025
#
# number of rings (size 3 to 8) (size 9 to 14) (size 15 to 20)
#    0.000    1.333    2.222    2.000    3.111    1.778 
#    0.000    0.000    0.000    0.000    0.000    0.000 
#    0.000    0.000    0.000    0.000    0.000    0.000 
#
# Total GULP energy -100789.363519 kJ/mol
# GULP energy per Si atom -5599.409084 kJ/mol
# Density = 2.674923 g / cm^3
# Si number density = 26.810250 Si / 1000 Ang^3
#
#
#
# Elastic Constant Matrix: (Units=GPa)
#
#
# Indices 1 2 3 4 5 6 
#
# 1 94.5190 18.6483 18.8574 0.0000 -21.4400 0.0000
# 2 18.6483 57.4098 23.3567 0.0000 -5.4049 0.0000
# 3 18.8574 23.3567 153.1942 0.0000 -3.4502 0.0000
# 4 0.0000 0.0000 0.0000 33.4471 0.0000 -7.5969
# 5 -21.4400 -5.4049 -3.4502 0.0000 53.9722 0.0000
# 6 0.0000 0.0000 0.0000 -7.5969 0.0000 46.3886
#
#
#
# Elastic Compliance Matrix: (Units=1/GPa)
#
#
# Indices 1 2 3 4 5 6 
#
# 1 0.012438 -0.003230 -0.000936 0.000000 0.004557 0.000000
# 2 -0.003230 0.019563 -0.002574 0.000000 0.000511 0.000000
# 3 -0.000936 -0.002574 0.007031 0.000000 -0.000180 0.000000
# 4 0.000000 0.000000 0.000000 0.031053 0.000000 0.005085
# 5 0.004557 0.000511 -0.000180 0.000000 0.020378 0.000000
# 6 0.000000 0.000000 0.000000 0.005085 0.000000 0.022390
#
#
# Mechanical properties :
#
#
# Convention : Reuss Voigt Hill
#
# Bulk Modulus (GPa) = 39.13499 47.42752 43.28126
# Shear Modulus (GPa) = 37.07823 43.04561 40.06192
#
# Velocity S-wave (km/s) = 3.72289 4.01130 3.86978
# Velocity P-wave (km/s) = 5.75401 6.25959 6.01212
#
# Compressibility (1/GPa) = 0.02555258
#
# Stress axis : x y z
#
# Youngs Moduli (GPa) = 80.40069 51.11666 142.22363
#
# Poissons Ratio (x) = 0.16512 0.13310
# Poissons Ratio (y) = 0.25972 0.36602
# Poissons Ratio (z) = 0.07524 0.13155
#
# Static dielectric constant tensor:
#      x y z
#    x 2.118100 0.000000 0.009470 
#    y 0.000000 2.119510 0.000000 
#    z 0.009470 0.000000 2.051240 
# 
# From -- ./inp_files/53611.got.cif
#   From: 2010.05.17/outbox.cif.g08.bks.cpg/sg15_27_cif.got.tgz:53611.got - 2010.06.03 18:47:42.
