data_PCOD9292167
_publ_section_title
;
Structure prediction by ZEFSAII (Michael W. Deem and Ramdas Pophale) SiO2 
 PCOD9292167
Probable space group: C 2/C
;
_chemical_formula_sum "Si O2"
_cell_formula_units_Z 40
_cell_length_a 13.362931
_cell_length_b 7.792974
_cell_length_c 22.870830
_cell_angle_alpha 90.000000
_cell_angle_beta 40.000230
_cell_angle_gamma 90.000000
_cell_volume 1530.933948
_symmetry_space_group_name_H-M "C 2/C"
_symmetry_group_IT_number 15
_symmetry_cell_setting 'monoclinic'
loop_
_space_group_symop_operation_xyz
x,y,z
-x,y,1/2-z
-x,-y,-z
x,-y,1/2+z
1/2+x,1/2+y,z
1/2-x,1/2+y,1/2-z
1/2-x,1/2-y,-z
1/2+x,1/2-y,1/2+z
loop_
_atom_site_type_symbol
_atom_site_label
_atom_site_fract_x
_atom_site_fract_y
_atom_site_fract_z
Si Si1 0.240398 0.731368 0.763956
Si Si2 0.673648 0.954459 0.191833
Si Si3 0.170923 0.843068 0.980142
Si Si4 0.601168 0.644092 0.088224
Si Si5 0.674874 0.424566 0.165201
O O1 0.269338 0.693407 0.682758
O O2 0.281636 0.567208 0.786520
O O3 0.054023 0.746705 0.847107
O O4 0.319082 0.887233 0.764540
O O5 0.500000 0.909837 0.250000
O O6 0.749576 0.019465 0.098452
O O7 0.183397 0.683270 0.928613
O O8 0.250000 0.750000 0.000000
O O9 0.064919 0.976441 0.064092
O O10 0.640365 0.577741 0.135938
O O11 0.750000 0.750000 0.000000
O O12 0.500000 0.341924 0.250000
#
# Coordination Sequence:
#
# PCOD9292167 Si02
#       5
#     8   8   8   8   8
#     4  11  24  41  67  97 128 175 222 271 335 392
#     4  11  24  43  68  97 130 173 226 277 330 399
#     4   9  20  40  63  89 128 172 210 263 329 385
#     4  11  24  40  62  98 136 168 215 275 331 394
#     4  10  22  43  67  92 129 173 222 274 322 393
#
# _framework density 26.127841
#
# number of rings (size 3 to 8) (size 9 to 14) (size 15 to 20)
#    0.000    1.600    0.000    4.800    0.000   11.200 
#    0.000    6.000    0.000    0.000    0.000    0.000 
#    0.000    0.000    0.000    0.000    0.000    0.000 
#
# Total GULP energy -111348.987223 kJ/mol
# GULP energy per Si atom -5567.449361 kJ/mol
# Density = 2.606837 g / cm^3
# Si number density = 26.127841 Si / 1000 Ang^3
#
#
#
# Elastic Constant Matrix: (Units=GPa)
#
#
# Indices 1 2 3 4 5 6 
#
# 1 173.3974 49.4135 64.4520 0.0000 21.1585 0.0000
# 2 49.4135 88.0248 21.2132 0.0000 -3.7858 0.0001
# 3 64.4520 21.2132 69.2780 0.0000 24.8097 0.0000
# 4 0.0000 0.0000 0.0000 46.6990 0.0000 24.5564
# 5 21.1585 -3.7858 24.8097 0.0000 55.9539 0.0000
# 6 0.0000 0.0001 0.0000 24.5564 0.0000 51.3034
#
#
#
# Elastic Compliance Matrix: (Units=1/GPa)
#
#
# Indices 1 2 3 4 5 6 
#
# 1 0.009754 -0.003617 -0.007796 0.000000 -0.000476 0.000000
# 2 -0.003617 0.014035 -0.002095 0.000000 0.003246 0.000000
# 3 -0.007796 -0.002095 0.025350 0.000000 -0.008434 0.000000
# 4 0.000000 0.000000 0.000000 0.028616 0.000000 -0.013697
# 5 -0.000476 0.003246 -0.008434 0.000000 0.022011 0.000000
# 6 0.000000 0.000000 0.000000 -0.013697 0.000000 0.026048
#
#
# Mechanical properties :
#
#
# Convention : Reuss Voigt Hill
#
# Bulk Modulus (GPa) = 45.20438 66.76195 55.98317
# Shear Modulus (GPa) = 31.20994 43.83269 37.52132
#
# Velocity S-wave (km/s) = 3.45992 4.10032 3.79366
# Velocity P-wave (km/s) = 5.77063 6.92996 6.37670
#
# Compressibility (1/GPa) = 0.02212175
#
# Stress axis : x y z
#
# Youngs Moduli (GPa) = 102.52350 71.24810 39.44842
#
# Poissons Ratio (x) = 0.25771 0.30755
# Poissons Ratio (y) = 0.37083 0.08265
# Poissons Ratio (z) = 0.79930 0.14928
#
# Static dielectric constant tensor:
#      x y z
#    x 1.982540 0.000000 0.002650 
#    y 0.000000 2.236950 0.000000 
#    z 0.002650 0.000000 2.016420 
# 
# From -- ./inp_files/272507.got.cif
#   From: 2010.05.17/outbox.cif.g08.bks.cpg/sg15_137_cif.got.tgz:272507.got - 2010.06.03 18:47:42.
