data_PCOD9292972
_publ_section_title
;
Structure prediction by ZEFSAII (Michael W. Deem and Ramdas Pophale) SiO2 
 PCOD9292972
Probable space group: C 2/C
;
_chemical_formula_sum "Si O2"
_cell_formula_units_Z 52
_cell_length_a 17.570533
_cell_length_b 18.538407
_cell_length_c 8.929724
_cell_angle_alpha 90.000000
_cell_angle_beta 63.263422
_cell_angle_gamma 90.000000
_cell_volume 2597.693260
_symmetry_space_group_name_H-M "C 2/C"
_symmetry_group_IT_number 15
_symmetry_cell_setting 'monoclinic'
loop_
_space_group_symop_operation_xyz
x,y,z
-x,y,1/2-z
-x,-y,-z
x,-y,1/2+z
1/2+x,1/2+y,z
1/2-x,1/2+y,1/2-z
1/2-x,1/2-y,-z
1/2+x,1/2-y,1/2+z
loop_
_atom_site_type_symbol
_atom_site_label
_atom_site_fract_x
_atom_site_fract_y
_atom_site_fract_z
Si Si1 0.027504 0.716608 0.399495
Si Si2 0.032001 0.428391 0.390481
Si Si3 0.000000 0.031279 0.750000
Si Si4 0.326812 0.449627 0.826687
Si Si5 0.078528 0.144848 0.485929
Si Si6 0.764044 0.423624 0.281472
Si Si7 0.186876 0.794569 0.161382
O O1 0.125470 0.741500 0.308615
O O2 0.000000 0.708856 0.250000
O O3 0.007108 0.642832 0.499073
O O4 0.972104 0.783226 0.513040
O O5 0.134160 0.426327 0.308305
O O6 0.000000 0.430772 0.250000
O O7 0.000000 0.500000 0.500000
O O8 0.013376 0.081696 0.591850
O O9 0.085075 0.985040 0.693416
O O10 0.356148 0.384225 0.694235
O O11 0.275755 0.508761 0.774431
O O12 0.272245 0.426899 0.018348
O O13 0.127264 0.161961 0.597643
O O14 0.734165 0.351037 0.224751
O O15 0.250000 0.750000 0.000000
#
# Coordination Sequence:
#
# PCOD9292972 Si02
#       7
#     8   8   4   8   8   8   8
#     4  10  22  44  70  96 132 182 221 270 343 407
#     4  12  28  49  71  94 129 178 235 289 342 399
#     4  12  20  40  66 102 144 180 216 256 352 410
#     4  12  25  37  68 101 142 177 216 282 338 415
#     4  11  21  41  65  98 139 178 220 261 338 420
#     4  12  24  44  65 102 134 177 229 285 336 398
#     4  11  23  41  68  95 132 175 227 282 338 403
#
# _framework density 20.017759999999999
#
# number of rings (size 3 to 8) (size 9 to 14) (size 15 to 20)
#    0.000    0.615    5.385    3.692    2.154    4.923 
#    0.000    2.308    0.000    0.000    0.000    0.000 
#    0.000    0.000    0.000    0.000    0.000    0.000 
#
# Total GULP energy -145505.851161 kJ/mol
# GULP energy per Si atom -5596.378891 kJ/mol
# Density = 1.997220 g / cm^3
# Si number density = 20.017760 Si / 1000 Ang^3
#
#
#
# Elastic Constant Matrix: (Units=GPa)
#
#
# Indices 1 2 3 4 5 6 
#
# 1 122.6584 66.0080 66.3986 0.0000 -29.0451 0.0000
# 2 66.0080 140.2478 102.0788 0.0000 -15.6105 0.0000
# 3 66.3986 102.0788 175.3170 0.0000 -21.1946 0.0000
# 4 0.0000 0.0000 0.0000 55.5074 0.0000 -2.9712
# 5 -29.0451 -15.6105 -21.1946 0.0000 34.8479 0.0000
# 6 0.0000 0.0000 0.0000 -2.9712 0.0000 9.6953
#
#
#
# Elastic Compliance Matrix: (Units=1/GPa)
#
#
# Indices 1 2 3 4 5 6 
#
# 1 0.013171 -0.004127 -0.001599 0.000000 0.008156 0.000000
# 2 -0.004127 0.013718 -0.006581 0.000000 -0.001297 0.000000
# 3 -0.001599 -0.006581 0.010388 0.000000 0.002037 0.000000
# 4 0.000000 0.000000 0.000000 0.018316 0.000000 0.005613
# 5 0.008156 -0.001297 0.002037 0.000000 0.036152 0.000000
# 6 0.000000 0.000000 0.000000 0.005613 0.000000 0.104863
#
#
# Mechanical properties :
#
#
# Convention : Reuss Voigt Hill
#
# Bulk Modulus (GPa) = 78.97753 100.79931 89.88842
# Shear Modulus (GPa) = 22.17847 33.59264 27.88556
#
# Velocity S-wave (km/s) = 3.33218 4.10096 3.73640
# Velocity P-wave (km/s) = 7.37184 8.53745 7.97596
#
# Compressibility (1/GPa) = 0.01266183
#
# Stress axis : x y z
#
# Youngs Moduli (GPa) = 75.92608 72.89436 96.26569
#
# Poissons Ratio (x) = 0.30084 0.15395
# Poissons Ratio (y) = 0.31335 0.63356
# Poissons Ratio (z) = 0.12142 0.47975
#
# Static dielectric constant tensor:
#      x y z
#    x 1.722170 0.000000 -0.014210 
#    y 0.000000 1.716810 0.000000 
#    z -0.014210 0.000000 1.694230 
# 
# From -- ./inp_files/48941.got.cif
#   From: 2010.05.17/outbox.cif.g08.bks.cpg/sg15_25_cif.got.tgz:48941.got - 2010.06.03 18:47:42.
