data_PCOD9292753
_publ_section_title
;
Structure prediction by ZEFSAII (Michael W. Deem and Ramdas Pophale) SiO2 
 PCOD9292753
Probable space group: C 2/C
;
_chemical_formula_sum "Si O2"
_cell_formula_units_Z 32
_cell_length_a 7.272477
_cell_length_b 11.983696
_cell_length_c 15.166401
_cell_angle_alpha 90.000000
_cell_angle_beta 109.772135
_cell_angle_gamma 90.000000
_cell_volume 1243.844957
_symmetry_space_group_name_H-M "C 2/C"
_symmetry_group_IT_number 15
_symmetry_cell_setting 'monoclinic'
loop_
_space_group_symop_operation_xyz
x,y,z
-x,y,1/2-z
-x,-y,-z
x,-y,1/2+z
1/2+x,1/2+y,z
1/2-x,1/2+y,1/2-z
1/2-x,1/2-y,-z
1/2+x,1/2-y,1/2+z
loop_
_atom_site_type_symbol
_atom_site_label
_atom_site_fract_x
_atom_site_fract_y
_atom_site_fract_z
Si Si1 0.808381 0.600027 0.330823
Si Si2 0.576196 0.450891 0.630942
Si Si3 0.089136 0.391424 0.353721
Si Si4 0.973643 0.757617 0.004599
O O1 0.631016 0.540842 0.354363
O O2 0.718913 0.620079 0.219635
O O3 0.976615 0.508045 0.352983
O O4 0.890325 0.706792 0.395780
O O5 0.695908 0.563848 0.635973
O O6 0.530250 0.380776 0.537190
O O7 0.000000 0.339825 0.250000
O O8 0.045011 0.317155 0.431926
O O9 0.750000 0.750000 0.000000
#
# Coordination Sequence:
#
# PCOD9292753 Si02
#       4
#     8   8   8   8
#     4  10  22  44  67  95 137 180 235 289 348 417
#     4  10  23  44  67  97 138 182 231 294 346 410
#     4  10  23  45  67  97 141 183 227 292 355 411
#     4  12  24  41  71 103 136 183 231 286 350 426
#
# _framework density 25.726678
#
# number of rings (size 3 to 8) (size 9 to 14) (size 15 to 20)
#    0.000    1.500    2.500    1.500    3.500    1.000 
#    4.500    5.000    0.000    0.000    0.000    0.000 
#    0.000    0.000    0.000    0.000    0.000    0.000 
#
# Total GULP energy -89566.849429 kJ/mol
# GULP energy per Si atom -5597.928089 kJ/mol
# Density = 2.566812 g / cm^3
# Si number density = 25.726678 Si / 1000 Ang^3
#
#
#
# Elastic Constant Matrix: (Units=GPa)
#
#
# Indices 1 2 3 4 5 6 
#
# 1 161.2061 31.7632 35.3390 0.0000 5.2821 0.0000
# 2 31.7632 128.2881 42.8079 0.0000 4.4223 0.0000
# 3 35.3390 42.8079 199.4833 0.0000 12.4295 0.0000
# 4 0.0000 0.0000 0.0000 27.8555 0.0000 5.9156
# 5 5.2821 4.4223 12.4295 0.0000 30.6497 0.0000
# 6 0.0000 0.0000 0.0000 5.9156 0.0000 39.8229
#
#
#
# Elastic Compliance Matrix: (Units=1/GPa)
#
#
# Indices 1 2 3 4 5 6 
#
# 1 0.006676 -0.001346 -0.000856 0.000000 -0.000609 0.000000
# 2 -0.001346 0.008675 -0.001600 0.000000 -0.000371 0.000000
# 3 -0.000856 -0.001600 0.005627 0.000000 -0.001903 0.000000
# 4 0.000000 0.000000 0.000000 0.037069 0.000000 -0.005506
# 5 -0.000609 -0.000371 -0.001903 0.000000 0.033557 0.000000
# 6 0.000000 0.000000 0.000000 -0.005506 0.000000 0.025929
#
#
# Mechanical properties :
#
#
# Convention : Reuss Voigt Hill
#
# Bulk Modulus (GPa) = 74.77614 78.75528 76.76571
# Shear Modulus (GPa) = 38.58177 44.93678 41.75927
#
# Velocity S-wave (km/s) = 3.87677 4.18389 4.03325
# Velocity P-wave (km/s) = 7.01198 7.34974 7.18284
#
# Compressibility (1/GPa) = 0.01337325
#
# Stress axis : x y z
#
# Youngs Moduli (GPa) = 149.78830 115.27399 177.73035
#
# Poissons Ratio (x) = 0.15520 0.15210
# Poissons Ratio (y) = 0.20167 0.28436
# Poissons Ratio (z) = 0.12819 0.18444
#
# Static dielectric constant tensor:
#      x y z
#    x 2.179400 0.000000 -0.033680 
#    y 0.000000 1.988310 0.000000 
#    z -0.033680 0.000000 2.086140 
# 
# From -- ./inp_files/187705.got.cif
#   From: 2010.05.17/outbox.cif.g08.bks.cpg/sg15_94_cif.got.tgz:187705.got - 2010.06.03 18:47:42.
