data_PCOD9292504
_publ_section_title
;
Structure prediction by ZEFSAII (Michael W. Deem and Ramdas Pophale) SiO2 
 PCOD9292504
Probable space group: C 2/C
;
_chemical_formula_sum "Si O2"
_cell_formula_units_Z 56
_cell_length_a 16.868113
_cell_length_b 9.170665
_cell_length_c 29.747128
_cell_angle_alpha 90.000000
_cell_angle_beta 149.840997
_cell_angle_gamma 90.000000
_cell_volume 2311.868965
_symmetry_space_group_name_H-M "C 2/C"
_symmetry_group_IT_number 15
_symmetry_cell_setting 'monoclinic'
loop_
_space_group_symop_operation_xyz
x,y,z
-x,y,1/2-z
-x,-y,-z
x,-y,1/2+z
1/2+x,1/2+y,z
1/2-x,1/2+y,1/2-z
1/2-x,1/2-y,-z
1/2+x,1/2-y,1/2+z
loop_
_atom_site_type_symbol
_atom_site_label
_atom_site_fract_x
_atom_site_fract_y
_atom_site_fract_z
Si Si1 0.111650 0.342438 0.717784
Si Si2 0.637250 0.049778 0.914261
Si Si3 0.582607 0.907506 0.485874
Si Si4 0.960204 0.077360 0.028251
Si Si5 0.380387 0.493870 0.298707
Si Si6 0.282132 0.891762 0.856119
Si Si7 0.626794 0.890410 0.273844
O O1 0.220957 0.424692 0.735784
O O2 0.135585 0.175007 0.720988
O O3 0.021860 0.636506 0.677484
O O4 0.928801 0.384976 0.621129
O O5 0.500000 0.136801 0.750000
O O6 0.671023 0.090172 0.981648
O O7 0.771826 0.073727 0.944275
O O8 0.499490 0.749974 0.452314
O O9 0.710213 0.926601 0.587402
O O10 0.446423 0.030194 0.421858
O O11 0.017764 0.015134 0.105712
O O12 0.340268 0.065074 0.213747
O O13 0.000000 0.000000 0.000000
O O14 0.379523 0.559596 0.247701
O O15 0.274133 0.716147 0.847305
#
# Coordination Sequence:
#
# PCOD9292504 Si02
#       7
#     8   8   8   8   8   8   8
#     4  10  25  42  77 101 149 197 251 307 379 456
#     4  10  24  48  71 104 151 199 254 313 375 461
#     4  11  24  46  74 111 149 195 256 315 375 456
#     4  12  29  45  75 110 156 203 252 318 394 458
#     4  12  24  45  73 112 145 200 250 314 387 454
#     4  11  23  43  76 109 147 194 250 312 376 452
#     4  10  22  43  74 102 142 201 251 301 376 460
#
# _framework density 24.222826999999999
#
# number of rings (size 3 to 8) (size 9 to 14) (size 15 to 20)
#    0.857    0.286    1.429    3.857    6.000    1.714 
#    0.000    3.571    0.000    0.000    0.000    0.000 
#    0.000    0.000    0.000    0.000    0.000    0.000 
#
# Total GULP energy -155915.023093 kJ/mol
# GULP energy per Si atom -5568.393682 kJ/mol
# Density = 2.416769 g / cm^3
# Si number density = 24.222827 Si / 1000 Ang^3
#
#
#
# Elastic Constant Matrix: (Units=GPa)
#
#
# Indices 1 2 3 4 5 6 
#
# 1 82.4590 40.1242 21.6715 0.0000 -16.4272 0.0000
# 2 40.1242 153.9913 44.8481 0.0000 -0.4543 0.0000
# 3 21.6715 44.8481 145.9175 -0.0001 -23.6398 0.0000
# 4 0.0000 0.0000 -0.0001 38.3606 0.0000 -7.3887
# 5 -16.4272 -0.4543 -23.6398 0.0000 35.4457 0.0000
# 6 0.0000 0.0000 0.0000 -7.3887 0.0000 13.0625
#
#
#
# Elastic Compliance Matrix: (Units=1/GPa)
#
#
# Indices 1 2 3 4 5 6 
#
# 1 0.015505 -0.004051 0.000110 0.000000 0.007207 0.000000
# 2 -0.004051 0.008266 -0.002496 0.000000 -0.003436 0.000000
# 3 0.000110 -0.002496 0.008528 0.000000 0.005707 0.000000
# 4 0.000000 0.000000 0.000000 0.029256 0.000000 0.016548
# 5 0.007207 -0.003436 0.005707 0.000000 0.035314 0.000000
# 6 0.000000 0.000000 0.000000 0.016548 0.000000 0.085915
#
#
# Mechanical properties :
#
#
# Convention : Reuss Voigt Hill
#
# Bulk Modulus (GPa) = 51.47573 66.18393 58.82983
# Shear Modulus (GPa) = 24.73609 35.75535 30.24572
#
# Velocity S-wave (km/s) = 3.19907 3.84617 3.53745
# Velocity P-wave (km/s) = 5.91122 6.86341 6.40503
#
# Compressibility (1/GPa) = 0.01942663
#
# Stress axis : x y z
#
# Youngs Moduli (GPa) = 64.49410 120.97697 117.25467
#
# Poissons Ratio (x) = 0.49005 -0.01288
# Poissons Ratio (y) = 0.26125 0.29262
# Poissons Ratio (z) = -0.00708 0.30191
#
# Static dielectric constant tensor:
#      x y z
#    x 1.969240 0.000000 -0.056920 
#    y 0.000000 2.019020 0.000000 
#    z -0.056920 0.000000 2.140040 
# 
# From -- ./inp_files/298194.got.cif
#   From: 2010.05.17/outbox.cif.g08.bks.cpg/sg15_150_cif.got.tgz:298194.got - 2010.06.03 18:47:42.
