data_PCOD9292964
_publ_section_title
;
Structure prediction by ZEFSAII (Michael W. Deem and Ramdas Pophale) SiO2 
 PCOD9292964
Probable space group: C 2/C
;
_chemical_formula_sum "Si O2"
_cell_formula_units_Z 28
_cell_length_a 19.010040
_cell_length_b 7.960630
_cell_length_c 14.240151
_cell_angle_alpha 90.000000
_cell_angle_beta 147.398008
_cell_angle_gamma 90.000000
_cell_volume 1161.108250
_symmetry_space_group_name_H-M "C 2/C"
_symmetry_group_IT_number 15
_symmetry_cell_setting 'monoclinic'
loop_
_space_group_symop_operation_xyz
x,y,z
-x,y,1/2-z
-x,-y,-z
x,-y,1/2+z
1/2+x,1/2+y,z
1/2-x,1/2+y,1/2-z
1/2-x,1/2-y,-z
1/2+x,1/2-y,1/2+z
loop_
_atom_site_type_symbol
_atom_site_label
_atom_site_fract_x
_atom_site_fract_y
_atom_site_fract_z
Si Si1 0.788733 0.589847 0.249583
Si Si2 0.500000 0.452411 0.750000
Si Si3 0.506884 0.359041 0.089141
Si Si4 0.717615 0.743587 0.573676
O O1 0.797531 0.404706 0.215512
O O2 0.782585 0.600179 0.356363
O O3 0.909232 0.703197 0.352326
O O4 0.646948 0.664668 0.058716
O O5 0.425931 0.571402 0.740000
O O6 0.426950 0.331038 0.596229
O O7 0.500000 0.500000 0.000000
O O8 0.750000 0.750000 0.500000
#
# Coordination Sequence:
#
# PCOD9292964 Si02
#       4
#     8   4   8   8
#     4  11  24  46  76  99 151 192 241 303 373 422
#     4  10  22  44  70  92 154 182 236 302 364 408
#     4  11  22  45  68 108 142 193 240 304 355 439
#     4  11  25  44  69 107 141 194 243 301 365 446
#
# _framework density 24.114892999999999
#
# number of rings (size 3 to 8) (size 9 to 14) (size 15 to 20)
#    0.000    1.143    5.714    1.714    0.000    5.714 
#    0.000    0.000    0.000    0.000    0.000    0.000 
#    0.000    0.000    0.000    0.000    0.000    0.000 
#
# Total GULP energy -78094.552683 kJ/mol
# GULP energy per Si atom -5578.182334 kJ/mol
# Density = 2.406001 g / cm^3
# Si number density = 24.114893 Si / 1000 Ang^3
#
#
#
# Elastic Constant Matrix: (Units=GPa)
#
#
# Indices 1 2 3 4 5 6 
#
# 1 144.5707 41.5264 25.5761 0.0000 -41.8279 0.0000
# 2 41.5264 81.5716 18.4349 0.0000 -27.8931 0.0000
# 3 25.5761 18.4349 70.0977 0.0000 -26.1648 0.0000
# 4 0.0000 0.0000 0.0000 45.6289 0.0000 -12.8360
# 5 -41.8279 -27.8931 -26.1648 0.0000 62.0562 0.0000
# 6 0.0000 0.0000 0.0000 -12.8360 0.0000 42.8235
#
#
#
# Elastic Compliance Matrix: (Units=1/GPa)
#
#
# Indices 1 2 3 4 5 6 
#
# 1 0.009231 -0.002951 -0.000907 0.000000 0.004513 0.000000
# 2 -0.002951 0.015589 -0.001365 0.000000 0.004442 0.000000
# 3 -0.000907 -0.001365 0.017206 0.000000 0.006030 0.000000
# 4 0.000000 0.000000 0.000000 0.023934 0.000000 0.007174
# 5 0.004513 0.004442 0.006030 0.000000 0.023695 0.000000
# 6 0.000000 0.000000 0.000000 0.007174 0.000000 0.025502
#
#
# Mechanical properties :
#
#
# Convention : Reuss Voigt Hill
#
# Bulk Modulus (GPa) = 31.66584 51.92388 41.79486
# Shear Modulus (GPa) = 36.72931 44.14855 40.43893
#
# Velocity S-wave (km/s) = 3.90692 4.28338 4.09947
# Velocity P-wave (km/s) = 5.78894 6.78541 6.30688
#
# Compressibility (1/GPa) = 0.03157977
#
# Stress axis : x y z
#
# Youngs Moduli (GPa) = 108.33172 64.14791 58.11764
#
# Poissons Ratio (x) = 0.18930 0.05274
# Poissons Ratio (y) = 0.31969 0.07932
# Poissons Ratio (z) = 0.09830 0.08755
#
# Static dielectric constant tensor:
#      x y z
#    x 2.073910 0.000000 0.082760 
#    y 0.000000 2.085990 0.000000 
#    z 0.082760 0.000000 2.042620 
# 
# From -- ./inp_files/93142.got.cif
#   From: 2010.05.17/outbox.cif.g08.bks.cpg/sg15_47_cif.got.tgz:93142.got - 2010.06.03 18:47:42.
