data_PCOD9292854
_publ_section_title
;
Structure prediction by ZEFSAII (Michael W. Deem and Ramdas Pophale) SiO2 
 PCOD9292854
Probable space group: C 2/C
;
_chemical_formula_sum "Si O2"
_cell_formula_units_Z 48
_cell_length_a 29.497318
_cell_length_b 12.555453
_cell_length_c 13.001310
_cell_angle_alpha 90.000000
_cell_angle_beta 152.900070
_cell_angle_gamma 90.000000
_cell_volume 2193.472477
_symmetry_space_group_name_H-M "C 2/C"
_symmetry_group_IT_number 15
_symmetry_cell_setting 'monoclinic'
loop_
_space_group_symop_operation_xyz
x,y,z
-x,y,1/2-z
-x,-y,-z
x,-y,1/2+z
1/2+x,1/2+y,z
1/2-x,1/2+y,1/2-z
1/2-x,1/2-y,-z
1/2+x,1/2-y,1/2+z
loop_
_atom_site_type_symbol
_atom_site_label
_atom_site_fract_x
_atom_site_fract_y
_atom_site_fract_z
Si Si1 0.606537 0.480656 0.925345
Si Si2 0.889162 0.645137 0.490785
Si Si3 0.712054 0.659719 0.798236
Si Si4 0.746359 0.017316 0.435761
Si Si5 0.758092 0.666959 0.425943
Si Si6 0.891826 0.775678 0.045013
O O1 0.500000 0.441361 0.750000
O O2 0.595413 0.606779 0.881171
O O3 0.678996 0.441677 0.162462
O O4 0.663279 0.451200 0.935062
O O5 0.872913 0.750340 0.387934
O O6 0.829820 0.553594 0.307579
O O7 0.833101 0.677616 0.482373
O O8 0.000000 0.618763 0.750000
O O9 0.722691 0.621459 0.936522
O O10 0.813123 0.706936 0.951297
O O11 0.708615 0.940141 0.448594
O O12 0.750000 0.750000 0.500000
O O13 0.653932 0.687419 0.156459
O O14 0.000000 0.724534 0.250000
#
# Coordination Sequence:
#
# PCOD9292854 Si02
#       6
#     8   8   8   8   8   8
#     4  11  23  43  66  99 136 173 223 280 332 399
#     4  11  25  44  63  99 139 173 227 279 335 403
#     4  11  22  43  70  97 134 179 221 283 335 391
#     4  12  22  43  71  98 129 176 226 280 332 397
#     4  11  24  45  68  94 135 180 220 274 340 403
#     4  10  22  44  68  99 138 173 226 276 333 402
#
# _framework density 21.883109999999999
#
# number of rings (size 3 to 8) (size 9 to 14) (size 15 to 20)
#    0.000    1.000    5.000    3.000    0.000    2.667 
#    3.000    5.833    0.000    0.000    0.000    0.000 
#    0.000    0.000    0.000    0.000    0.000    0.000 
#
# Total GULP energy -133707.777211 kJ/mol
# GULP energy per Si atom -5571.157384 kJ/mol
# Density = 2.183330 g / cm^3
# Si number density = 21.883110 Si / 1000 Ang^3
#
#
#
# Elastic Constant Matrix: (Units=GPa)
#
#
# Indices 1 2 3 4 5 6 
#
# 1 85.4416 22.1140 60.7845 0.0000 -10.0206 0.0000
# 2 22.1140 52.0942 33.6942 0.0000 -2.6057 0.0000
# 3 60.7845 33.6942 119.9443 0.0000 12.9612 0.0000
# 4 0.0000 0.0000 0.0000 12.2808 0.0000 -18.2942
# 5 -10.0206 -2.6057 12.9612 0.0000 31.5382 0.0000
# 6 0.0000 0.0000 0.0000 -18.2942 0.0000 38.3143
#
#
#
# Elastic Compliance Matrix: (Units=1/GPa)
#
#
# Indices 1 2 3 4 5 6 
#
# 1 0.022005 -0.000852 -0.012202 0.000000 0.011936 0.000000
# 2 -0.000852 0.024226 -0.006866 0.000000 0.004552 0.000000
# 3 -0.012202 -0.006866 0.017716 0.000000 -0.011725 0.000000
# 4 0.000000 0.000000 0.000000 0.282026 0.000000 0.134661
# 5 0.011936 0.004552 -0.011725 0.000000 0.040695 0.000000
# 6 0.000000 0.000000 0.000000 0.134661 0.000000 0.090397
#
#
# Mechanical properties :
#
#
# Convention : Reuss Voigt Hill
#
# Bulk Modulus (GPa) = 41.47946 54.51838 47.99892
# Shear Modulus (GPa) = 9.52489 25.81916 17.67202
#
# Velocity S-wave (km/s) = 2.08856 3.43865 2.84485
# Velocity P-wave (km/s) = 4.98119 6.38226 5.72475
#
# Compressibility (1/GPa) = 0.02410832
#
# Stress axis : x y z
#
# Youngs Moduli (GPa) = 45.44451 41.27795 56.44467
#
# Poissons Ratio (x) = 0.03517 0.68873
# Poissons Ratio (y) = 0.03872 0.38753
# Poissons Ratio (z) = 0.55451 0.28340
#
# Static dielectric constant tensor:
#      x y z
#    x 1.988010 0.000000 -0.104350 
#    y 0.000000 1.945590 0.000000 
#    z -0.104350 0.000000 1.947390 
# 
# From -- ./inp_files/123588.got.cif
#   From: 2010.05.17/outbox.cif.g08.bks.cpg/sg15_62_cif.got.tgz:123588.got - 2010.06.03 18:47:42.
