data_PCOD9292922
_publ_section_title
;
Structure prediction by ZEFSAII (Michael W. Deem and Ramdas Pophale) SiO2 
 PCOD9292922
Probable space group: C 2/C
;
_chemical_formula_sum "Si O2"
_cell_formula_units_Z 28
_cell_length_a 7.683451
_cell_length_b 32.061364
_cell_length_c 7.872207
_cell_angle_alpha 90.000000
_cell_angle_beta 40.386452
_cell_angle_gamma 90.000000
_cell_volume 1256.520248
_symmetry_space_group_name_H-M "C 2/C"
_symmetry_group_IT_number 15
_symmetry_cell_setting 'monoclinic'
loop_
_space_group_symop_operation_xyz
x,y,z
-x,y,1/2-z
-x,-y,-z
x,-y,1/2+z
1/2+x,1/2+y,z
1/2-x,1/2+y,1/2-z
1/2-x,1/2-y,-z
1/2+x,1/2-y,1/2+z
loop_
_atom_site_type_symbol
_atom_site_label
_atom_site_fract_x
_atom_site_fract_y
_atom_site_fract_z
Si Si1 0.500000 0.510180 0.250000
Si Si2 0.211809 0.550316 0.738069
Si Si3 0.618291 0.773524 0.352943
Si Si4 0.182795 0.634526 0.948514
O O1 0.477526 0.540965 0.428566
O O2 0.733816 0.478065 0.137441
O O3 0.145611 0.596521 0.846127
O O4 0.000000 0.538589 0.750000
O O5 0.500000 0.773653 0.250000
O O6 0.417652 0.745078 0.613476
O O7 0.614377 0.820314 0.424479
O O8 0.500000 0.634223 0.750000
O O9 0.000000 0.627503 0.250000
#
# Coordination Sequence:
#
# PCOD9292922 Si02
#       4
#     4   8   8   8
#     4  10  24  46  68 104 130 186 240 290 358 422
#     4  11  24  43  71  99 140 183 235 296 349 419
#     4  10  22  44  70 100 136 183 233 283 347 417
#     4  12  27  44  68 105 144 182 234 289 346 420
#
# _framework density 22.283763
#
# number of rings (size 3 to 8) (size 9 to 14) (size 15 to 20)
#    0.000    1.143    1.429    3.429    4.000    4.571 
#    7.714    0.000    0.000    0.000    0.000    0.000 
#    0.000    0.000    0.000    0.000    0.000    0.000 
#
# Total GULP energy -78138.265973 kJ/mol
# GULP energy per Si atom -5581.304712 kJ/mol
# Density = 2.223304 g / cm^3
# Si number density = 22.283763 Si / 1000 Ang^3
#
#
#
# Elastic Constant Matrix: (Units=GPa)
#
#
# Indices 1 2 3 4 5 6 
#
# 1 104.4096 37.5859 29.4039 0.0000 12.2029 0.0000
# 2 37.5859 173.9927 83.1587 0.0000 35.7414 0.0000
# 3 29.4039 83.1587 111.4935 0.0000 11.4608 0.0000
# 4 0.0000 0.0000 0.0000 28.7637 0.0000 20.7370
# 5 12.2029 35.7414 11.4608 0.0000 32.1679 0.0000
# 6 0.0000 0.0000 0.0000 20.7370 0.0000 56.6093
#
#
#
# Elastic Compliance Matrix: (Units=1/GPa)
#
#
# Indices 1 2 3 4 5 6 
#
# 1 0.010720 -0.000925 -0.001895 0.000000 -0.002364 0.000000
# 2 -0.000925 0.011430 -0.007278 0.000000 -0.009756 0.000000
# 3 -0.001895 -0.007278 0.014524 0.000000 0.003631 0.000000
# 4 0.000000 0.000000 0.000000 0.047243 0.000000 -0.017306
# 5 -0.002364 -0.009756 0.003631 0.000000 0.041529 0.000000
# 6 0.000000 0.000000 0.000000 -0.017306 0.000000 0.024004
#
#
# Mechanical properties :
#
#
# Convention : Reuss Voigt Hill
#
# Bulk Modulus (GPa) = 60.68244 76.68810 68.68527
# Shear Modulus (GPa) = 28.54880 39.49134 34.02007
#
# Velocity S-wave (km/s) = 3.58320 4.21432 3.91151
# Velocity P-wave (km/s) = 6.66407 7.62691 7.16169
#
# Compressibility (1/GPa) = 0.01647923
#
# Stress axis : x y z
#
# Youngs Moduli (GPa) = 93.28002 87.49137 68.85066
#
# Poissons Ratio (x) = 0.08090 0.13044
# Poissons Ratio (y) = 0.08625 0.50112
# Poissons Ratio (z) = 0.17673 0.63679
#
# Static dielectric constant tensor:
#      x y z
#    x 1.828440 0.000000 -0.035520 
#    y 0.000000 1.768690 0.000000 
#    z -0.035520 0.000000 2.047530 
# 
# From -- ./inp_files/2048.got.cif
#   From: 2010.05.17/outbox.cif.g08.bks.cpg/sg15_2_cif.got.tgz:2048.got - 2010.06.03 18:47:42.
