data_PCOD9292434
_publ_section_title
;
Structure prediction by ZEFSAII (Michael W. Deem and Ramdas Pophale) SiO2 
 PCOD9292434
Probable space group: C 2/C
;
_chemical_formula_sum "Si O2"
_cell_formula_units_Z 56
_cell_length_a 21.862193
_cell_length_b 18.900130
_cell_length_c 18.205036
_cell_angle_alpha 90.000000
_cell_angle_beta 161.456036
_cell_angle_gamma 90.000000
_cell_volume 2392.330561
_symmetry_space_group_name_H-M "C 2/C"
_symmetry_group_IT_number 15
_symmetry_cell_setting 'monoclinic'
loop_
_space_group_symop_operation_xyz
x,y,z
-x,y,1/2-z
-x,-y,-z
x,-y,1/2+z
1/2+x,1/2+y,z
1/2-x,1/2+y,1/2-z
1/2-x,1/2-y,-z
1/2+x,1/2-y,1/2+z
loop_
_atom_site_type_symbol
_atom_site_label
_atom_site_fract_x
_atom_site_fract_y
_atom_site_fract_z
Si Si1 0.454490 0.664721 0.342083
Si Si2 0.383710 0.093464 0.308630
Si Si3 0.861097 0.969073 0.527290
Si Si4 0.580815 0.809972 0.514460
Si Si5 0.122358 0.650809 0.464321
Si Si6 0.684124 0.154877 0.908036
Si Si7 0.470577 0.692955 0.629855
O O1 0.540238 0.587827 0.416560
O O2 0.594042 0.724064 0.537754
O O3 0.269633 0.663478 0.185507
O O4 0.364036 0.683800 0.158356
O O5 0.448292 0.131001 0.456687
O O6 0.557977 0.092807 0.449254
O O7 0.219008 0.148606 0.096757
O O8 0.267738 0.020659 0.168696
O O9 0.731065 0.923636 0.434827
O O10 0.000000 0.004104 0.750000
O O11 0.383118 0.810517 0.243494
O O12 0.345232 0.657705 0.697922
O O13 0.000000 0.641281 0.250000
O O14 0.061622 0.726311 0.430705
O O15 0.500000 0.156690 0.750000
O O16 0.500000 0.698277 0.750000
#
# Coordination Sequence:
#
# PCOD9292434 Si02
#       7
#     8   8   8   8   8   8   8
#     4  10  22  43  71  96 132 184 236 286 344 419
#     4  12  26  40  65 106 146 181 228 289 359 425
#     4  10  23  45  69  97 138 185 230 285 345 422
#     4  11  24  40  69 104 135 176 231 300 358 406
#     4  11  21  38  65  91 131 190 240 292 333 402
#     4   9  20  43  69  98 132 175 236 290 342 414
#     4  11  20  40  62  90 135 184 248 287 331 405
#
# _framework density 23.408135000000001
#
# number of rings (size 3 to 8) (size 9 to 14) (size 15 to 20)
#    0.000    1.429    2.857    2.571    2.000    5.714 
#    7.714    0.000    0.000    0.000    0.000    0.000 
#    0.000    0.000    0.000    0.000    0.000    0.000 
#
# Total GULP energy -156151.218442 kJ/mol
# GULP energy per Si atom -5576.829230 kJ/mol
# Density = 2.335486 g / cm^3
# Si number density = 23.408135 Si / 1000 Ang^3
#
#
#
# Elastic Constant Matrix: (Units=GPa)
#
#
# Indices 1 2 3 4 5 6 
#
# 1 98.8914 34.9649 28.6371 0.0124 11.5054 0.0038
# 2 34.9649 98.7894 31.0048 0.0087 -17.8038 0.0024
# 3 28.6371 31.0048 53.4376 0.0064 4.4422 0.0025
# 4 0.0124 0.0087 0.0064 90.5444 0.0074 17.5603
# 5 11.5054 -17.8038 4.4422 0.0074 43.6253 0.0022
# 6 0.0038 0.0024 0.0025 17.5603 0.0022 39.7001
#
#
#
# Elastic Compliance Matrix: (Units=1/GPa)
#
#
# Indices 1 2 3 4 5 6 
#
# 1 0.013438 -0.004275 -0.004318 -0.000001 -0.004849 0.000000
# 2 -0.004275 0.015405 -0.007326 -0.000001 0.008160 0.000000
# 3 -0.004318 -0.007326 0.025649 0.000000 -0.004463 0.000000
# 4 -0.000001 -0.000001 0.000000 0.012081 -0.000002 -0.005344
# 5 -0.004849 0.008160 -0.004463 -0.000002 0.027986 0.000000
# 6 0.000000 0.000000 0.000000 -0.005344 0.000000 0.027552
#
#
# Mechanical properties :
#
#
# Convention : Reuss Voigt Hill
#
# Bulk Modulus (GPa) = 44.14038 48.92576 46.53307
# Shear Modulus (GPa) = 30.95962 45.20807 38.08384
#
# Velocity S-wave (km/s) = 3.64070 4.39942 4.03792
# Velocity P-wave (km/s) = 6.04738 6.83762 6.45460
#
# Compressibility (1/GPa) = 0.02265499
#
# Stress axis : x y z
#
# Youngs Moduli (GPa) = 74.41499 64.91223 38.98806
#
# Poissons Ratio (x) = 0.27749 0.16835
# Poissons Ratio (y) = 0.31811 0.28562
# Poissons Ratio (z) = 0.32133 0.47553
#
# Static dielectric constant tensor:
#      x y z
#    x 1.854510 0.000010 -0.037610 
#    y 0.000010 2.008210 -0.000010 
#    z -0.037610 -0.000010 1.932630 
# 
# From -- ./inp_files/216675.got.cif
#   From: 2010.05.17/outbox.cif.g08.bks.cpg/sg15_109_cif.got.tgz:216675.got - 2010.06.03 18:47:42.
