data_PCOD9292677
_publ_section_title
;
Structure prediction by ZEFSAII (Michael W. Deem and Ramdas Pophale) SiO2 
 PCOD9292677
Probable space group: C 2/C
;
_chemical_formula_sum "Si O2"
_cell_formula_units_Z 32
_cell_length_a 7.415691
_cell_length_b 8.659190
_cell_length_c 19.589300
_cell_angle_alpha 90.000000
_cell_angle_beta 85.357219
_cell_angle_gamma 90.000000
_cell_volume 1253.777368
_symmetry_space_group_name_H-M "C 2/C"
_symmetry_group_IT_number 15
_symmetry_cell_setting 'monoclinic'
loop_
_space_group_symop_operation_xyz
x,y,z
-x,y,1/2-z
-x,-y,-z
x,-y,1/2+z
1/2+x,1/2+y,z
1/2-x,1/2+y,1/2-z
1/2-x,1/2-y,-z
1/2+x,1/2-y,1/2+z
loop_
_atom_site_type_symbol
_atom_site_label
_atom_site_fract_x
_atom_site_fract_y
_atom_site_fract_z
Si Si1 0.179062 0.835040 0.350683
Si Si2 0.208084 0.015041 0.472835
Si Si3 0.310376 0.967293 0.725226
Si Si4 0.749703 0.834414 0.394912
O O1 0.257253 0.677184 0.316887
O O2 0.964857 0.829765 0.372419
O O3 0.267224 0.878248 0.420878
O O4 0.201632 0.966212 0.292262
O O5 0.302308 0.047649 0.542142
O O6 0.212754 0.167091 0.425921
O O7 0.000000 0.000000 0.500000
O O8 0.500000 0.912833 0.750000
O O9 0.340395 0.107710 0.671600
#
# Coordination Sequence:
#
# PCOD9292677 Si02
#       4
#     8   8   8   8
#     4  11  23  42  63  91 127 166 211 261 315 373
#     4   9  20  41  69  94 123 165 209 261 317 370
#     4  12  25  39  62  93 126 165 211 259 311 374
#     4  10  22  44  66  91 128 165 209 261 314 376
#
# _framework density 25.522873000000001
#
# number of rings (size 3 to 8) (size 9 to 14) (size 15 to 20)
#    0.000    1.500    0.000    5.250    0.000    7.000 
#    0.000   18.750    0.000    0.000    0.000    0.000 
#    0.000    0.000    0.000    0.000    0.000    0.000 
#
# Total GULP energy -89601.985575 kJ/mol
# GULP energy per Si atom -5600.124098 kJ/mol
# Density = 2.546478 g / cm^3
# Si number density = 25.522873 Si / 1000 Ang^3
#
#
#
# Elastic Constant Matrix: (Units=GPa)
#
#
# Indices 1 2 3 4 5 6 
#
# 1 39.5305 17.5161 28.8222 0.0000 -20.2511 0.0000
# 2 17.5161 73.0567 59.1864 0.0000 -33.6742 0.0000
# 3 28.8222 59.1864 197.3676 0.0000 -23.4206 0.0000
# 4 0.0000 0.0000 0.0000 74.0236 0.0000 -1.0106
# 5 -20.2511 -33.6742 -23.4206 0.0000 46.5186 0.0000
# 6 0.0000 0.0000 0.0000 -1.0106 0.0000 22.3261
#
#
#
# Elastic Compliance Matrix: (Units=1/GPa)
#
#
# Indices 1 2 3 4 5 6 
#
# 1 0.034727 0.001229 -0.003765 0.000000 0.014111 0.000000
# 2 0.001229 0.025639 -0.005958 0.000000 0.016095 0.000000
# 3 -0.003765 -0.005958 0.007122 0.000000 -0.002366 0.000000
# 4 0.000000 0.000000 0.000000 0.013518 0.000000 0.000612
# 5 0.014111 0.016095 -0.002366 0.000000 0.038100 0.000000
# 6 0.000000 0.000000 0.000000 0.000612 0.000000 0.044818
#
#
# Mechanical properties :
#
#
# Convention : Reuss Voigt Hill
#
# Bulk Modulus (GPa) = 19.80238 57.88936 38.84587
# Shear Modulus (GPa) = 25.28496 42.20233 33.74365
#
# Velocity S-wave (km/s) = 3.15092 4.07075 3.64001
# Velocity P-wave (km/s) = 4.58402 6.69517 5.73753
#
# Compressibility (1/GPa) = 0.05049898
#
# Stress axis : x y z
#
# Youngs Moduli (GPa) = 28.79612 39.00315 140.40096
#
# Poissons Ratio (x) = -0.04792 0.52863
# Poissons Ratio (y) = -0.03538 0.83652
# Poissons Ratio (z) = 0.10842 0.23238
#
# Static dielectric constant tensor:
#      x y z
#    x 2.017020 0.000000 0.025230 
#    y 0.000000 2.029890 0.000000 
#    z 0.025230 0.000000 1.966160 
# 
# From -- ./inp_files/229141.got.cif
#   From: 2010.05.17/outbox.cif.g08.bks.cpg/sg15_115_cif.got.tgz:229141.got - 2010.06.03 18:47:42.
