data_PCOD9292688
_publ_section_title
;
Structure prediction by ZEFSAII (Michael W. Deem and Ramdas Pophale) SiO2 
 PCOD9292688
Probable space group: C 2/C
;
_chemical_formula_sum "Si O2"
_cell_formula_units_Z 60
_cell_length_a 20.055906
_cell_length_b 9.096932
_cell_length_c 17.681694
_cell_angle_alpha 90.000000
_cell_angle_beta 121.080190
_cell_angle_gamma 90.000000
_cell_volume 2762.872853
_symmetry_space_group_name_H-M "C 2/C"
_symmetry_group_IT_number 15
_symmetry_cell_setting 'monoclinic'
loop_
_space_group_symop_operation_xyz
x,y,z
-x,y,1/2-z
-x,-y,-z
x,-y,1/2+z
1/2+x,1/2+y,z
1/2-x,1/2+y,1/2-z
1/2-x,1/2-y,-z
1/2+x,1/2-y,1/2+z
loop_
_atom_site_type_symbol
_atom_site_label
_atom_site_fract_x
_atom_site_fract_y
_atom_site_fract_z
Si Si1 0.500000 0.501405 0.750000
Si Si2 0.066837 0.158321 0.151642
Si Si3 0.911218 0.414956 0.224888
Si Si4 0.320912 0.933204 0.548807
Si Si5 0.163995 0.416707 0.702522
Si Si6 0.689215 0.584194 0.705969
Si Si7 0.674210 0.378584 0.371965
Si Si8 0.926077 0.604109 0.965884
O O1 0.494065 0.405616 0.823617
O O2 0.418187 0.585608 0.688005
O O3 0.109783 0.276703 0.232994
O O4 0.049985 0.249138 0.065801
O O5 0.114709 0.017681 0.152464
O O6 0.856683 0.436913 0.120477
O O7 0.902801 0.559520 0.273618
O O8 0.000000 0.401981 0.250000
O O9 0.313209 0.789572 0.596775
O O10 0.235979 0.963205 0.462371
O O11 0.386391 0.886541 0.524589
O O12 0.239845 0.489914 0.784904
O O13 0.178122 0.254105 0.679705
O O14 0.138917 0.520861 0.620411
O O15 0.701510 0.593259 0.803141
O O16 0.000000 0.500000 0.000000
#
# Coordination Sequence:
#
# PCOD9292688 Si02
#       8
#     4   8   8   8   8   8   8   8
#     4  10  22  44  66  94 136 178 234 278 340 402
#     4  10  23  42  67  93 132 177 229 273 327 412
#     4  11  22  39  68  96 130 180 223 270 335 410
#     4  11  22  41  66  98 139 168 225 280 348 398
#     4  11  22  41  67  95 126 177 224 268 331 403
#     4  11  22  43  69  94 127 170 232 274 330 403
#     4  10  23  40  67  99 132 175 221 285 336 409
#     4  11  24  41  65  98 140 174 219 282 338 403
#
# _framework density 21.716526999999999
#
# number of rings (size 3 to 8) (size 9 to 14) (size 15 to 20)
#    0.000    1.333    3.333    3.200    0.933    2.133 
#    0.000    8.000    0.000    0.000    0.000    0.000 
#    0.000    0.000    0.000    0.000    0.000    0.000 
#
# Total GULP energy -167134.713325 kJ/mol
# GULP energy per Si atom -5571.157111 kJ/mol
# Density = 2.166710 g / cm^3
# Si number density = 21.716527 Si / 1000 Ang^3
#
#
#
# Elastic Constant Matrix: (Units=GPa)
#
#
# Indices 1 2 3 4 5 6 
#
# 1 90.4940 22.1128 1.2907 0.0000 14.7476 0.0000
# 2 22.1128 67.7799 -14.1401 0.0000 -2.0314 0.0000
# 3 1.2907 -14.1401 41.5308 0.0000 6.4970 0.0000
# 4 0.0000 0.0000 0.0000 31.1652 0.0000 -8.3164
# 5 14.7476 -2.0314 6.4970 0.0000 25.1722 0.0000
# 6 0.0000 0.0000 0.0000 -8.3164 0.0000 6.7408
#
#
#
# Elastic Compliance Matrix: (Units=1/GPa)
#
#
# Indices 1 2 3 4 5 6 
#
# 1 0.013569 -0.004837 -0.000796 0.000000 -0.008135 0.000000
# 2 -0.004837 0.017606 0.005710 0.000000 0.002781 0.000000
# 3 -0.000796 0.005710 0.026992 0.000000 -0.006040 0.000000
# 4 0.000000 0.000000 0.000000 0.047835 0.000000 0.059016
# 5 -0.008135 0.002781 -0.006040 0.000000 0.046275 0.000000
# 6 0.000000 0.000000 0.000000 0.059016 0.000000 0.221159
#
#
# Mechanical properties :
#
#
# Convention : Reuss Voigt Hill
#
# Bulk Modulus (GPa) = 17.14631 24.25904 20.70267
# Shear Modulus (GPa) = 12.73158 25.31842 19.02500
#
# Velocity S-wave (km/s) = 2.42391 3.41817 2.96304
# Velocity P-wave (km/s) = 3.96818 5.17432 4.61086
#
# Compressibility (1/GPa) = 0.05832160
#
# Stress axis : x y z
#
# Youngs Moduli (GPa) = 73.69517 56.79852 37.04790
#
# Poissons Ratio (x) = 0.27472 0.02949
# Poissons Ratio (y) = 0.35645 -0.21153
# Poissons Ratio (z) = 0.05865 -0.32430
#
# Static dielectric constant tensor:
#      x y z
#    x 2.155830 0.000000 0.565570 
#    y 0.000000 3.608820 0.000000 
#    z 0.565570 0.000000 2.929330 
# 
# From -- ./inp_files/214293.got.cif
#   From: 2010.05.17/outbox.cif.g08.bks.cpg/sg15_108_cif.got.tgz:214293.got - 2010.06.03 18:47:42.
