data_PCOD9292376
_publ_section_title
;
Structure prediction by ZEFSAII (Michael W. Deem and Ramdas Pophale) SiO2 
 PCOD9292376
Probable space group: C 2/C
;
_chemical_formula_sum "Si O2"
_cell_formula_units_Z 56
_cell_length_a 16.286488
_cell_length_b 22.012102
_cell_length_c 15.923619
_cell_angle_alpha 90.000000
_cell_angle_beta 28.504056
_cell_angle_gamma 90.000000
_cell_volume 2724.270691
_symmetry_space_group_name_H-M "C 2/C"
_symmetry_group_IT_number 15
_symmetry_cell_setting 'monoclinic'
loop_
_space_group_symop_operation_xyz
x,y,z
-x,y,1/2-z
-x,-y,-z
x,-y,1/2+z
1/2+x,1/2+y,z
1/2-x,1/2+y,1/2-z
1/2-x,1/2-y,-z
1/2+x,1/2-y,1/2+z
loop_
_atom_site_type_symbol
_atom_site_label
_atom_site_fract_x
_atom_site_fract_y
_atom_site_fract_z
Si Si1 0.616072 0.566191 0.062572
Si Si2 0.341913 0.562618 0.957964
Si Si3 0.703966 0.684466 0.578118
Si Si4 0.445779 0.399195 0.548952
Si Si5 0.343336 0.175405 0.110296
Si Si6 0.304574 0.180021 0.953772
Si Si7 0.744961 0.191711 0.769318
O O1 0.500000 0.567720 0.250000
O O2 0.733877 0.505755 0.967623
O O3 0.509016 0.561579 0.071998
O O4 0.707544 0.631540 0.983461
O O5 0.500000 0.557776 0.750000
O O6 0.235040 0.622068 0.023021
O O7 0.420567 0.574392 0.979063
O O8 0.500000 0.681169 0.750000
O O9 0.750000 0.750000 0.500000
O O10 0.751589 0.687798 0.632719
O O11 0.260476 0.371043 0.738606
O O12 0.597074 0.349513 0.403074
O O13 0.284912 0.241661 0.196204
O O14 0.280459 0.163076 0.072552
O O15 0.550315 0.172721 0.921490
O O16 0.500000 0.177639 0.750000
O O17 0.250000 0.250000 0.000000
#
# Coordination Sequence:
#
# PCOD9292376 Si02
#       7
#     8   8   8   8   8   8   8
#     4  11  23  43  70  96 132 184 227 277 336 409
#     4  10  22  43  70  97 133 182 229 274 340 409
#     4  11  21  41  64  96 132 173 222 280 337 396
#     4  12  22  43  68  98 136 179 230 275 343 403
#     4  12  24  39  62 102 135 178 226 279 339 410
#     4  12  25  43  66  99 138 173 227 284 337 401
#     4  12  23  39  64  97 143 174 222 286 340 399
#
# _framework density 20.555959000000001
#
# number of rings (size 3 to 8) (size 9 to 14) (size 15 to 20)
#    0.000    0.571    5.714    5.143    0.000    0.000 
#    0.000    2.143    0.000    3.429    0.000    0.000 
#    0.000    0.000    0.000    0.000    0.000    0.000 
#
# Total GULP energy -156176.139651 kJ/mol
# GULP energy per Si atom -5577.719273 kJ/mol
# Density = 2.050917 g / cm^3
# Si number density = 20.555959 Si / 1000 Ang^3
#
#
#
# Elastic Constant Matrix: (Units=GPa)
#
#
# Indices 1 2 3 4 5 6 
#
# 1 111.6407 7.7399 5.8882 0.0072 33.8941 -0.0224
# 2 7.7399 112.9537 10.6574 -0.0215 6.3816 -0.0312
# 3 5.8882 10.6574 53.7406 -0.0446 4.4314 -0.0955
# 4 0.0072 -0.0215 -0.0446 6.4424 0.0117 -6.0941
# 5 33.8941 6.3816 4.4314 0.0117 38.1398 0.0157
# 6 -0.0224 -0.0312 -0.0955 -6.0941 0.0157 31.8133
#
#
#
# Elastic Compliance Matrix: (Units=1/GPa)
#
#
# Indices 1 2 3 4 5 6 
#
# 1 0.012282 -0.000190 -0.000414 0.000017 -0.010835 0.000016
# 2 -0.000190 0.009091 -0.001687 0.000031 -0.001156 0.000010
# 3 -0.000414 -0.001687 0.019118 0.000224 -0.001571 0.000099
# 4 0.000017 0.000031 0.000224 0.189576 -0.000120 0.036316
# 5 -0.010835 -0.001156 -0.001571 -0.000120 0.036224 -0.000054
# 6 0.000016 0.000010 0.000099 0.036316 -0.000054 0.038390
#
#
# Mechanical properties :
#
#
# Convention : Reuss Voigt Hill
#
# Bulk Modulus (GPa) = 27.84948 36.32289 32.08619
# Shear Modulus (GPa) = 15.56507 32.21571 23.89039
#
# Velocity S-wave (km/s) = 2.75472 3.96311 3.41282
# Velocity P-wave (km/s) = 4.86780 6.21693 5.58327
#
# Compressibility (1/GPa) = 0.03590731
#
# Stress axis : x y z
#
# Youngs Moduli (GPa) = 81.42169 110.00275 52.30764
#
# Poissons Ratio (x) = 0.02094 0.02168
# Poissons Ratio (y) = 0.01550 0.08822
# Poissons Ratio (z) = 0.03375 0.18553
#
# Static dielectric constant tensor:
#      x y z
#    x 1.710230 -0.000090 0.012360 
#    y -0.000090 1.684650 0.000010 
#    z 0.012360 0.000010 1.719000 
# 
# From -- ./inp_files/156906.got.cif
#   From: 2010.05.17/outbox.cif.g08.bks.cpg/sg15_79_cif.got.tgz:156906.got - 2010.06.03 18:47:42.
