data_PCOD9292496
_publ_section_title
;
Structure prediction by ZEFSAII (Michael W. Deem and Ramdas Pophale) SiO2 
 PCOD9292496
Probable space group: C 2/C
;
_chemical_formula_sum "Si O2"
_cell_formula_units_Z 40
_cell_length_a 27.130748
_cell_length_b 5.212161
_cell_length_c 13.350269
_cell_angle_alpha 90.000000
_cell_angle_beta 56.443485
_cell_angle_gamma 90.000000
_cell_volume 1573.230496
_symmetry_space_group_name_H-M "C 2/C"
_symmetry_group_IT_number 15
_symmetry_cell_setting 'monoclinic'
loop_
_space_group_symop_operation_xyz
x,y,z
-x,y,1/2-z
-x,-y,-z
x,-y,1/2+z
1/2+x,1/2+y,z
1/2-x,1/2+y,1/2-z
1/2-x,1/2-y,-z
1/2+x,1/2-y,1/2+z
loop_
_atom_site_type_symbol
_atom_site_label
_atom_site_fract_x
_atom_site_fract_y
_atom_site_fract_z
Si Si1 0.723609 0.443006 0.948378
Si Si2 0.538594 0.101748 0.298366
Si Si3 0.051719 0.750079 0.505297
Si Si4 0.624889 0.273275 0.918395
Si Si5 0.156889 0.684513 0.671409
O O1 0.686098 0.300581 0.907344
O O2 0.784061 0.569896 0.843734
O O3 0.750000 0.250000 0.000000
O O4 0.681530 0.647688 0.052489
O O5 0.500000 0.206613 0.250000
O O6 0.504267 0.840022 0.368182
O O7 0.606508 0.022866 0.197871
O O8 0.535714 0.259337 0.405176
O O9 0.097181 0.508432 0.459101
O O10 0.082367 0.005765 0.507692
O O11 0.630525 0.339191 0.794290
#
# Coordination Sequence:
#
# PCOD9292496 Si02
#       5
#     8   8   8   8   8
#     4  11  27  44  71 102 140 181 243 284 348 419
#     4  10  22  43  73  98 146 182 235 287 348 411
#     4  10  25  45  69 110 133 186 233 282 353 419
#     4  11  26  46  76  98 147 179 230 295 350 413
#     4  10  26  44  68 104 138 185 233 285 353 412
#
# _framework density 25.425391999999999
#
# number of rings (size 3 to 8) (size 9 to 14) (size 15 to 20)
#    0.000    1.600    0.000    1.200   16.800    7.200 
#    0.000    5.000    0.000    0.000    0.000    0.000 
#    0.000    0.000    0.000    0.000    0.000    0.000 
#
# Total GULP energy -112018.711392 kJ/mol
# GULP energy per Si atom -5600.935570 kJ/mol
# Density = 2.536752 g / cm^3
# Si number density = 25.425392 Si / 1000 Ang^3
#
#
#
# Elastic Constant Matrix: (Units=GPa)
#
#
# Indices 1 2 3 4 5 6 
#
# 1 199.6071 37.3328 41.0871 0.0000 6.1705 0.0000
# 2 37.3328 72.3740 7.4061 0.0000 -5.8116 -0.0003
# 3 41.0871 7.4061 84.2379 0.0000 -16.3571 0.0000
# 4 0.0000 0.0000 0.0000 22.5571 0.0000 -8.8579
# 5 6.1705 -5.8116 -16.3571 0.0000 45.6227 0.0000
# 6 0.0000 -0.0003 0.0000 -8.8579 0.0000 32.6389
#
#
#
# Elastic Compliance Matrix: (Units=1/GPa)
#
#
# Indices 1 2 3 4 5 6 
#
# 1 0.006350 -0.003134 -0.003295 0.000000 -0.002439 0.000000
# 2 -0.003134 0.015578 0.000674 0.000000 0.002650 0.000000
# 3 -0.003295 0.000674 0.014534 0.000000 0.005742 0.000000
# 4 0.000000 0.000000 0.000000 0.049620 0.000000 0.013467
# 5 -0.002439 0.002650 0.005742 0.000000 0.024645 0.000000
# 6 0.000000 0.000000 0.000000 0.013467 0.000000 0.034293
#
#
# Mechanical properties :
#
#
# Convention : Reuss Voigt Hill
#
# Bulk Modulus (GPa) = 40.07989 58.65231 49.36610
# Shear Modulus (GPa) = 30.33096 38.18993 34.26045
#
# Velocity S-wave (km/s) = 3.45764 3.87982 3.67480
# Velocity P-wave (km/s) = 5.63368 6.57184 6.12076
#
# Compressibility (1/GPa) = 0.02495017
#
# Stress axis : x y z
#
# Youngs Moduli (GPa) = 157.48752 64.19467 68.80314
#
# Poissons Ratio (x) = 0.20119 0.22672
# Poissons Ratio (y) = 0.49358 -0.04635
# Poissons Ratio (z) = 0.51896 -0.04324
#
# Static dielectric constant tensor:
#      x y z
#    x 2.021850 0.000000 -0.067630 
#    y 0.000000 2.101790 0.000000 
#    z -0.067630 0.000000 2.084650 
# 
# From -- ./inp_files/175330.got.cif
#   From: 2010.05.17/outbox.cif.g08.bks.cpg/sg15_88_cif.got.tgz:175330.got - 2010.06.03 18:47:42.
