data_PCOD9292910
_publ_section_title
;
Structure prediction by ZEFSAII (Michael W. Deem and Ramdas Pophale) SiO2 
 PCOD9292910
Probable space group: C 2/C
;
_chemical_formula_sum "Si O2"
_cell_formula_units_Z 56
_cell_length_a 19.489018
_cell_length_b 8.395243
_cell_length_c 27.109114
_cell_angle_alpha 90.000000
_cell_angle_beta 32.928109
_cell_angle_gamma 90.000000
_cell_volume 2411.054640
_symmetry_space_group_name_H-M "C 2/C"
_symmetry_group_IT_number 15
_symmetry_cell_setting 'monoclinic'
loop_
_space_group_symop_operation_xyz
x,y,z
-x,y,1/2-z
-x,-y,-z
x,-y,1/2+z
1/2+x,1/2+y,z
1/2-x,1/2+y,1/2-z
1/2-x,1/2-y,-z
1/2+x,1/2-y,1/2+z
loop_
_atom_site_type_symbol
_atom_site_label
_atom_site_fract_x
_atom_site_fract_y
_atom_site_fract_z
Si Si1 0.500000 0.784821 0.750000
Si Si2 0.817302 0.963935 0.317920
Si Si3 0.095796 0.620479 0.024480
Si Si4 0.500000 0.281461 0.750000
Si Si5 0.113256 0.983825 0.003956
Si Si6 0.832598 0.016531 0.143722
Si Si7 0.307427 0.847282 0.689629
Si Si8 0.638511 0.042428 0.601193
O O1 0.579586 0.674478 0.739042
O O2 0.595954 0.892327 0.660837
O O3 0.882029 0.110768 0.307192
O O4 0.781001 0.031468 0.286848
O O5 0.691976 0.914386 0.422571
O O6 0.126164 0.510123 0.052605
O O7 0.951347 0.599703 0.095894
O O8 0.107062 0.807762 0.031232
O O9 0.542110 0.176199 0.677975
O O10 0.217186 0.081849 0.971303
O O11 0.159839 0.965591 0.919385
O O12 0.971645 0.048875 0.082867
O O13 0.797211 0.833028 0.176657
O O14 0.733657 0.133003 0.229048
#
# Coordination Sequence:
#
# PCOD9292910 Si02
#       8
#     4   8   8   4   8   8   8   8
#     4  10  24  38  74  94 132 174 230 274 334 396
#     4  11  24  45  62 100 137 176 219 282 328 400
#     4  11  25  40  71 101 132 177 230 268 335 395
#     4  10  26  44  66  94 140 174 224 272 348 388
#     4  10  22  44  69  99 134 171 224 283 324 396
#     4  10  25  44  69 101 131 179 224 271 342 395
#     4  11  26  43  69  97 137 178 225 273 335 397
#     4  11  23  43  70  99 130 176 223 280 333 398
#
# _framework density 23.226351000000001
#
# number of rings (size 3 to 8) (size 9 to 14) (size 15 to 20)
#    0.000    1.429    1.429    1.714   12.000    1.714 
#    5.143    0.000    0.000    0.000    0.000    0.000 
#    0.000    0.000    0.000    0.000    0.000    0.000 
#
# Total GULP energy -156821.991142 kJ/mol
# GULP energy per Si atom -5600.785398 kJ/mol
# Density = 2.317349 g / cm^3
# Si number density = 23.226351 Si / 1000 Ang^3
#
#
#
# Elastic Constant Matrix: (Units=GPa)
#
#
# Indices 1 2 3 4 5 6 
#
# 1 48.4360 19.1229 9.9229 -0.0038 -7.6833 0.0090
# 2 19.1229 59.4851 16.0833 -0.0045 -12.5052 0.0056
# 3 9.9229 16.0833 79.9296 -0.0011 -7.1147 0.0024
# 4 -0.0038 -0.0045 -0.0011 12.9344 0.0010 -2.6969
# 5 -7.6833 -12.5052 -7.1147 0.0010 27.1755 -0.0033
# 6 0.0090 0.0056 0.0024 -2.6969 -0.0033 29.6962
#
#
#
# Elastic Compliance Matrix: (Units=1/GPa)
#
#
# Indices 1 2 3 4 5 6 
#
# 1 0.024092 -0.006668 -0.001347 0.000003 0.003390 -0.000005
# 2 -0.006668 0.021215 -0.002805 0.000005 0.007143 -0.000001
# 3 -0.001347 -0.002805 0.013406 0.000000 0.001838 0.000000
# 4 0.000003 0.000005 0.000000 0.078805 0.000001 0.007157
# 5 0.003390 0.007143 0.001838 0.000001 0.041524 0.000002
# 6 -0.000005 -0.000001 0.000000 0.007157 0.000002 0.034324
#
#
# Mechanical properties :
#
#
# Convention : Reuss Voigt Hill
#
# Bulk Modulus (GPa) = 26.97459 30.90099 28.93779
# Shear Modulus (GPa) = 20.21302 23.47601 21.84452
#
# Velocity S-wave (km/s) = 2.95322 3.18268 3.07009
# Velocity P-wave (km/s) = 4.82366 5.18064 5.00534
#
# Compressibility (1/GPa) = 0.03707193
#
# Stress axis : x y z
#
# Youngs Moduli (GPa) = 41.50718 47.13754 74.59150
#
# Poissons Ratio (x) = 0.31431 0.10051
# Poissons Ratio (y) = 0.27677 0.20924
# Poissons Ratio (z) = 0.05593 0.13223
#
# Static dielectric constant tensor:
#      x y z
#    x 1.845200 0.000000 -0.019350 
#    y 0.000000 1.879000 0.000000 
#    z -0.019350 0.000000 1.838560 
# 
# From -- ./inp_files/259050.got.cif
#   From: 2010.05.17/outbox.cif.g08.bks.cpg/sg15_130_cif.got.tgz:259050.got - 2010.06.03 18:47:42.
