data_PCOD9292695
_publ_section_title
;
Structure prediction by ZEFSAII (Michael W. Deem and Ramdas Pophale) SiO2 
 PCOD9292695
Probable space group: C 2/C
;
_chemical_formula_sum "Si O2"
_cell_formula_units_Z 44
_cell_length_a 11.467668
_cell_length_b 13.710061
_cell_length_c 14.719109
_cell_angle_alpha 90.000000
_cell_angle_beta 61.669955
_cell_angle_gamma 90.000000
_cell_volume 2037.002251
_symmetry_space_group_name_H-M "C 2/C"
_symmetry_group_IT_number 15
_symmetry_cell_setting 'monoclinic'
loop_
_space_group_symop_operation_xyz
x,y,z
-x,y,1/2-z
-x,-y,-z
x,-y,1/2+z
1/2+x,1/2+y,z
1/2-x,1/2+y,1/2-z
1/2-x,1/2-y,-z
1/2+x,1/2-y,1/2+z
loop_
_atom_site_type_symbol
_atom_site_label
_atom_site_fract_x
_atom_site_fract_y
_atom_site_fract_z
Si Si1 0.476022 0.401458 0.117038
Si Si2 0.350243 0.905796 0.808978
Si Si3 0.689177 0.890659 0.281493
Si Si4 0.941300 0.132010 0.106175
Si Si5 0.767437 0.640189 0.533904
Si Si6 0.500000 0.251345 0.750000
O O1 0.344284 0.367377 0.213664
O O2 0.449748 0.515592 0.109981
O O3 0.618307 0.394427 0.110241
O O4 0.498427 0.344927 0.013992
O O5 0.500000 0.863560 0.750000
O O6 0.217169 0.846174 0.829516
O O7 0.345223 0.001902 0.746659
O O8 0.322159 0.921617 0.927466
O O9 0.653750 0.874333 0.401005
O O10 0.614999 0.818093 0.241763
O O11 0.024334 0.180055 0.155021
O O12 0.750000 0.750000 0.500000
#
# Coordination Sequence:
#
# PCOD9292695 Si02
#       6
#     8   8   8   8   8   4
#     4   9  20  42  65  93 122 176 218 261 331 390
#     4  10  22  44  66  96 129 176 220 265 338 390
#     4  11  23  41  66  97 136 169 213 279 330 384
#     4   9  21  39  66  93 131 166 218 271 321 397
#     4  11  24  42  68  96 131 173 226 273 317 397
#     4  12  24  40  60 102 136 166 218 280 318 390
#
# _framework density 21.600370000000002
#
# number of rings (size 3 to 8) (size 9 to 14) (size 15 to 20)
#    0.000    1.818    0.909    3.818    5.091    4.364 
#    0.000    0.000    0.000    0.000    0.000    0.000 
#    0.000    0.000    0.000    0.000    0.000    0.000 
#
# Total GULP energy -122609.911524 kJ/mol
# GULP energy per Si atom -5573.177797 kJ/mol
# Density = 2.155121 g / cm^3
# Si number density = 21.600370 Si / 1000 Ang^3
#
#
#
# Elastic Constant Matrix: (Units=GPa)
#
#
# Indices 1 2 3 4 5 6 
#
# 1 102.2693 -3.1280 62.5129 0.0000 14.9737 0.0000
# 2 -3.1280 31.2951 24.2759 0.0000 16.7223 0.0000
# 3 62.5129 24.2759 109.6704 0.0000 31.2785 0.0000
# 4 0.0000 0.0000 0.0000 19.4451 0.0000 19.1895
# 5 14.9737 16.7223 31.2785 0.0000 53.9162 0.0000
# 6 0.0000 0.0000 0.0000 19.1895 0.0000 10.3238
#
#
#
# Elastic Compliance Matrix: (Units=1/GPa)
#
#
# Indices 1 2 3 4 5 6 
#
# 1 0.018107 0.012441 -0.012630 0.000000 -0.001560 0.000000
# 2 0.012441 0.050586 -0.015372 0.000000 -0.010227 0.000000
# 3 -0.012630 -0.015372 0.020802 0.000000 -0.003792 0.000000
# 4 0.000000 0.000000 0.000000 -0.061639 0.000000 0.114572
# 5 -0.001560 -0.010227 -0.003792 0.000000 0.024353 0.000000
# 6 0.000000 0.000000 0.000000 0.114572 0.000000 -0.116099
#
#
# Mechanical properties :
#
#
# Convention : Reuss Voigt Hill
#
# Bulk Modulus (GPa) = 17.13132 45.61740 31.37436
# Shear Modulus (GPa) = -375.66154 27.37529 -174.14312
#
# Velocity S-wave (km/s) = -13.20197 3.56385 -8.98863
# Velocity P-wave (km/s) = 14.98136 6.17247 9.65250
#
# Compressibility (1/GPa) = 0.05837261
#
# Stress axis : x y z
#
# Youngs Moduli (GPa) = 55.22621 19.76823 48.07279
#
# Poissons Ratio (x) = -0.24593 0.60717
# Poissons Ratio (y) = -0.68706 0.73898
# Poissons Ratio (z) = 0.69752 0.30388
#
# Static dielectric constant tensor:
#      x y z
#    x 1.803540 0.000000 0.016800 
#    y 0.000000 1.837590 0.000000 
#    z 0.016800 0.000000 1.807280 
# 
# From -- ./inp_files/143331.got.cif
#   From: 2010.05.17/outbox.cif.g08.bks.cpg/sg15_72_cif.got.tgz:143331.got - 2010.06.03 18:47:42.
