data_PCOD9292488
_publ_section_title
;
Structure prediction by ZEFSAII (Michael W. Deem and Ramdas Pophale) SiO2 
 PCOD9292488
Probable space group: C 2/C
;
_chemical_formula_sum "Si O2"
_cell_formula_units_Z 32
_cell_length_a 8.524246
_cell_length_b 28.944436
_cell_length_c 5.591711
_cell_angle_alpha 90.000000
_cell_angle_beta 69.717313
_cell_angle_gamma 90.000000
_cell_volume 1294.093680
_symmetry_space_group_name_H-M "C 2/C"
_symmetry_group_IT_number 15
_symmetry_cell_setting 'monoclinic'
loop_
_space_group_symop_operation_xyz
x,y,z
-x,y,1/2-z
-x,-y,-z
x,-y,1/2+z
1/2+x,1/2+y,z
1/2-x,1/2+y,1/2-z
1/2-x,1/2-y,-z
1/2+x,1/2-y,1/2+z
loop_
_atom_site_type_symbol
_atom_site_label
_atom_site_fract_x
_atom_site_fract_y
_atom_site_fract_z
Si Si1 0.692855 0.313917 0.961081
Si Si2 0.000000 0.883795 0.750000
Si Si3 0.192800 0.517747 0.931684
Si Si4 0.808647 0.614342 0.764783
Si Si5 0.000000 0.269742 0.750000
O O1 0.575148 0.351736 0.915447
O O2 0.856861 0.302261 0.720833
O O3 0.759724 0.336547 0.172036
O O4 0.591697 0.266164 0.028823
O O5 0.170564 0.902064 0.534449
O O6 0.268844 0.499671 0.640689
O O7 0.196247 0.573158 0.927537
O O8 0.000000 0.500000 0.000000
O O9 0.000000 0.615288 0.750000
#
# Coordination Sequence:
#
# PCOD9292488 Si02
#       5
#     8   4   8   8   4
#     4  11  24  46  66 104 142 187 241 301 363 442
#     4  12  26  44  68 105 140 192 241 302 362 446
#     4  10  22  43  73 110 145 192 249 306 367 454
#     4  12  25  45  74 103 144 191 239 302 376 437
#     4  10  22  46  68  97 144 186 245 296 362 438
#
# _framework density 24.727733000000001
#
# number of rings (size 3 to 8) (size 9 to 14) (size 15 to 20)
#    0.000    1.000    5.000    1.500    3.500    3.000 
#    9.000    1.250    0.000    0.000    0.000    0.000 
#    0.000    0.000    0.000    0.000    0.000    0.000 
#
# Total GULP energy -89245.967433 kJ/mol
# GULP energy per Si atom -5577.872965 kJ/mol
# Density = 2.467145 g / cm^3
# Si number density = 24.727733 Si / 1000 Ang^3
#
#
#
# Elastic Constant Matrix: (Units=GPa)
#
#
# Indices 1 2 3 4 5 6 
#
# 1 110.7137 21.4139 53.9211 0.0000 -26.6750 0.0000
# 2 21.4139 83.5226 26.4714 0.0000 -10.6193 0.0000
# 3 53.9211 26.4714 103.0702 0.0000 -4.3660 0.0000
# 4 0.0000 0.0000 0.0000 -63.3068 0.0000 -87.8913
# 5 -26.6750 -10.6193 -4.3660 0.0000 52.6619 0.0000
# 6 0.0000 0.0000 0.0000 -87.8913 0.0000 -109.2594
#
#
#
# Elastic Compliance Matrix: (Units=1/GPa)
#
#
# Indices 1 2 3 4 5 6 
#
# 1 0.014077 -0.000591 -0.006940 0.000000 0.006436 0.000000
# 2 -0.000591 0.013357 -0.003030 0.000000 0.002143 0.000000
# 3 -0.006940 -0.003030 0.013985 0.000000 -0.002967 0.000000
# 4 0.000000 0.000000 0.000000 0.135219 0.000000 -0.108774
# 5 0.006436 0.002143 -0.002967 0.000000 0.022435 0.000000
# 6 0.000000 0.000000 0.000000 -0.108774 0.000000 0.078348
#
#
# Mechanical properties :
#
#
# Convention : Reuss Voigt Hill
#
# Bulk Modulus (GPa) = 49.26968 55.65769 52.46369
# Shear Modulus (GPa) = 16.37668 -10.94751 2.71458
#
# Velocity S-wave (km/s) = 2.57627 -2.10638 1.04889
# Velocity P-wave (km/s) = 5.36821 4.07937 4.76755
#
# Compressibility (1/GPa) = 0.02029646
#
# Stress axis : x y z
#
# Youngs Moduli (GPa) = 71.03589 74.86543 71.50294
#
# Poissons Ratio (x) = 0.04427 0.49624
# Poissons Ratio (y) = 0.04201 0.21668
# Poissons Ratio (z) = 0.49299 0.22687
#
# Static dielectric constant tensor:
#      x y z
#    x 1.937730 0.000000 -0.040960 
#    y 0.000000 1.938500 0.000000 
#    z -0.040960 0.000000 2.260740 
# 
# From -- ./inp_files/2589.got.cif
#   From: 2010.05.17/outbox.cif.g08.bks.cpg/sg15_2_cif.got.tgz:2589.got - 2010.06.03 18:47:42.
