data_PCOD9292197
_publ_section_title
;
Structure prediction by ZEFSAII (Michael W. Deem and Ramdas Pophale) SiO2 
 PCOD9292197
Probable space group: C 2/C
;
_chemical_formula_sum "Si O2"
_cell_formula_units_Z 48
_cell_length_a 16.450366
_cell_length_b 24.611720
_cell_length_c 5.003590
_cell_angle_alpha 90.000000
_cell_angle_beta 81.589142
_cell_angle_gamma 90.000000
_cell_volume 2004.024139
_symmetry_space_group_name_H-M "C 2/C"
_symmetry_group_IT_number 15
_symmetry_cell_setting 'monoclinic'
loop_
_space_group_symop_operation_xyz
x,y,z
-x,y,1/2-z
-x,-y,-z
x,-y,1/2+z
1/2+x,1/2+y,z
1/2-x,1/2+y,1/2-z
1/2-x,1/2-y,-z
1/2+x,1/2-y,1/2+z
loop_
_atom_site_type_symbol
_atom_site_label
_atom_site_fract_x
_atom_site_fract_y
_atom_site_fract_z
Si Si1 0.239238 0.688747 0.897690
Si Si2 0.500000 0.389614 0.750000
Si Si3 0.121255 0.965724 0.388731
Si Si4 0.082273 0.184278 0.566251
Si Si5 0.642466 0.149511 0.448028
Si Si6 0.310056 0.036947 0.860435
Si Si7 0.500000 0.789912 0.750000
O O1 0.333727 0.670434 0.831873
O O2 0.191676 0.684853 0.642954
O O3 0.250000 0.750000 0.000000
O O4 0.192755 0.653488 0.145431
O O5 0.547439 0.429014 0.523971
O O6 0.426795 0.348278 0.700279
O O7 0.213622 0.945808 0.410870
O O8 0.116351 0.980376 0.079380
O O9 0.000000 0.164327 0.750000
O O10 0.063148 0.248774 0.569106
O O11 0.639829 0.089349 0.570806
O O12 0.554045 0.174620 0.422903
O O13 0.324542 0.988160 0.062754
#
# Coordination Sequence:
#
# PCOD9292197 Si02
#       7
#     8   4   8   8   8   8   4
#     4  12  25  44  71 101 139 187 235 270 337 418
#     4  12  24  36  63  90 137 178 226 264 344 388
#     4  10  23  39  63  88 127 172 223 277 329 398
#     4  10  26  40  61  97 143 177 223 280 325 403
#     4  12  26  46  75 101 139 184 229 286 351 412
#     4  10  22  43  67  97 129 171 230 286 342 406
#     4  10  26  46  67 102 139 178 226 284 360 398
#
# _framework density 23.951808
#
# number of rings (size 3 to 8) (size 9 to 14) (size 15 to 20)
#    0.500    0.667    1.667    3.000    9.333    2.000 
#    0.000    0.833    0.000    0.000    0.000    0.000 
#    0.000    0.000    0.000    0.000    0.000    0.000 
#
# Total GULP energy -134233.221490 kJ/mol
# GULP energy per Si atom -5593.050895 kJ/mol
# Density = 2.389729 g / cm^3
# Si number density = 23.951808 Si / 1000 Ang^3
#
#
#
# Elastic Constant Matrix: (Units=GPa)
#
#
# Indices 1 2 3 4 5 6 
#
# 1 108.5363 28.0428 44.9957 0.0000 41.7309 0.0000
# 2 28.0428 98.0340 3.1006 0.0000 30.5006 0.0000
# 3 44.9957 3.1006 89.2487 0.0000 25.5158 0.0000
# 4 0.0000 0.0000 0.0000 31.7639 0.0000 23.1396
# 5 41.7309 30.5006 25.5158 0.0000 48.7045 0.0000
# 6 0.0000 0.0000 0.0000 23.1396 0.0000 26.2560
#
#
#
# Elastic Compliance Matrix: (Units=1/GPa)
#
#
# Indices 1 2 3 4 5 6 
#
# 1 0.015318 -0.001165 -0.004867 0.000000 -0.009845 0.000000
# 2 -0.001165 0.013118 0.002581 0.000000 -0.008570 0.000000
# 3 -0.004867 0.002581 0.015100 0.000000 -0.005357 0.000000
# 4 0.000000 0.000000 0.000000 0.087944 0.000000 -0.077506
# 5 -0.009845 -0.008570 -0.005357 0.000000 0.037141 0.000000
# 6 0.000000 0.000000 0.000000 -0.077506 0.000000 0.106393
#
#
# Mechanical properties :
#
#
# Convention : Reuss Voigt Hill
#
# Bulk Modulus (GPa) = 27.29622 49.78856 38.54239
# Shear Modulus (GPa) = 16.99949 35.99022 26.49485
#
# Velocity S-wave (km/s) = 2.66698 3.88056 3.32953
# Velocity P-wave (km/s) = 4.57217 6.39612 5.55946
#
# Compressibility (1/GPa) = 0.03663511
#
# Stress axis : x y z
#
# Youngs Moduli (GPa) = 65.28443 76.22959 66.22299
#
# Poissons Ratio (x) = 0.08878 0.32233
# Poissons Ratio (y) = 0.07603 -0.17095
# Poissons Ratio (z) = 0.31777 -0.19678
#
# Static dielectric constant tensor:
#      x y z
#    x 1.942130 0.000000 -0.022020 
#    y 0.000000 1.956230 0.000000 
#    z -0.022020 0.000000 2.071680 
# 
# From -- ./inp_files/10786.got.cif
#   From: 2010.05.17/outbox.cif.g08.bks.cpg/sg15_6_cif.got.tgz:10786.got - 2010.06.03 18:47:42.
