data_PCOD9292562
_publ_section_title
;
Structure prediction by ZEFSAII (Michael W. Deem and Ramdas Pophale) SiO2 
 PCOD9292562
Probable space group: C 2/C
;
_chemical_formula_sum "Si O2"
_cell_formula_units_Z 64
_cell_length_a 11.090294
_cell_length_b 18.475313
_cell_length_c 18.729257
_cell_angle_alpha 90.000000
_cell_angle_beta 48.017237
_cell_angle_gamma 90.000000
_cell_volume 2852.636779
_symmetry_space_group_name_H-M "C 2/C"
_symmetry_group_IT_number 15
_symmetry_cell_setting 'monoclinic'
loop_
_space_group_symop_operation_xyz
x,y,z
-x,y,1/2-z
-x,-y,-z
x,-y,1/2+z
1/2+x,1/2+y,z
1/2-x,1/2+y,1/2-z
1/2-x,1/2-y,-z
1/2+x,1/2-y,1/2+z
loop_
_atom_site_type_symbol
_atom_site_label
_atom_site_fract_x
_atom_site_fract_y
_atom_site_fract_z
Si Si1 0.647379 0.463822 0.900619
Si Si2 0.907175 0.429184 0.108946
Si Si3 0.424451 0.233495 0.599033
Si Si4 0.133640 0.413842 0.146060
Si Si5 0.847529 0.331776 0.861797
Si Si6 0.531198 0.153962 0.429216
Si Si7 0.192234 0.066327 0.173547
Si Si8 0.893306 0.133206 0.434223
O O1 0.778303 0.526632 0.838353
O O2 0.738069 0.403099 0.909798
O O3 0.549539 0.419965 0.879576
O O4 0.500000 0.500000 0.000000
O O5 0.873531 0.345707 0.146886
O O6 0.764372 0.487546 0.161298
O O7 0.039562 0.451522 0.116279
O O8 0.959472 0.413477 0.005176
O O9 0.266561 0.271953 0.629232
O O10 0.540953 0.215440 0.485342
O O11 0.527774 0.287834 0.606938
O O12 0.000000 0.377116 0.250000
O O13 0.277629 0.369324 0.050178
O O14 0.914662 0.317473 0.913790
O O15 0.000000 0.345403 0.750000
O O16 0.695833 0.124128 0.328974
O O17 0.215850 0.099799 0.084487
O O18 0.000000 0.066694 0.250000
#
# Coordination Sequence:
#
# PCOD9292562 Si02
#       8
#     8   8   8   8   8   8   8   8
#     4   9  21  35  61  90 131 166 211 268 332 393
#     4  10  24  44  66  93 130 178 221 273 336 406
#     4   9  23  44  68  88 135 178 218 268 346 405
#     4  11  22  39  63  95 129 172 221 274 332 400
#     4  11  22  39  66  99 127 168 231 277 325 403
#     4  10  23  43  67  91 128 184 213 277 338 406
#     4  12  26  40  71  99 133 169 231 283 339 400
#     4  10  22  44  62  99 130 177 218 278 333 410
#
# _framework density 22.435383000000002
#
# number of rings (size 3 to 8) (size 9 to 14) (size 15 to 20)
#    0.750    1.000    1.250    1.875    8.750    2.500 
#    2.250    1.250    0.000    0.000    0.000    0.000 
#    0.000    0.000    0.000    0.000    0.000    0.000 
#
# Total GULP energy -178176.103822 kJ/mol
# GULP energy per Si atom -5568.003244 kJ/mol
# Density = 2.238432 g / cm^3
# Si number density = 22.435383 Si / 1000 Ang^3
#
#
#
# Elastic Constant Matrix: (Units=GPa)
#
#
# Indices 1 2 3 4 5 6 
#
# 1 93.3736 42.1787 22.3979 -0.0003 -11.7903 0.0001
# 2 42.1787 97.4597 11.5137 -0.0001 -19.5333 0.0001
# 3 22.3979 11.5137 82.9697 0.0002 -17.3937 0.0000
# 4 -0.0003 -0.0001 0.0002 13.3063 0.0000 -10.5742
# 5 -11.7903 -19.5333 -17.3937 0.0000 36.1095 -0.0001
# 6 0.0001 0.0001 0.0000 -10.5742 -0.0001 35.0177
#
#
#
# Elastic Compliance Matrix: (Units=1/GPa)
#
#
# Indices 1 2 3 4 5 6 
#
# 1 0.014005 -0.005698 -0.002978 0.000000 0.000056 0.000000
# 2 -0.005698 0.013835 0.000887 0.000000 0.006050 0.000000
# 3 -0.002978 0.000887 0.014049 0.000000 0.006275 0.000000
# 4 0.000000 0.000000 0.000000 0.098880 0.000000 0.029859
# 5 0.000056 0.006050 0.006275 0.000000 0.034007 0.000000
# 6 0.000000 0.000000 0.000000 0.029859 0.000000 0.037573
#
#
# Mechanical properties :
#
#
# Convention : Reuss Voigt Hill
#
# Bulk Modulus (GPa) = 38.00917 47.33151 42.67034
# Shear Modulus (GPa) = 21.12393 30.06754 25.59574
#
# Velocity S-wave (km/s) = 3.07179 3.66482 3.38133
# Velocity P-wave (km/s) = 5.43687 6.24904 5.85705
#
# Compressibility (1/GPa) = 0.02630944
#
# Stress axis : x y z
#
# Youngs Moduli (GPa) = 71.40276 72.28281 71.17988
#
# Poissons Ratio (x) = 0.41187 0.21199
# Poissons Ratio (y) = 0.40686 -0.06312
# Poissons Ratio (z) = 0.21266 -0.06410
#
# Static dielectric constant tensor:
#      x y z
#    x 1.938210 0.000000 0.093560 
#    y 0.000000 1.832110 0.000000 
#    z 0.093560 0.000000 1.944940 
# 
# From -- ./inp_files/240410.got.cif
#   From: 2010.05.17/outbox.cif.g08.bks.cpg/sg15_121_cif.got.tgz:240410.got - 2010.06.03 18:47:42.
