data_PCOD9292427
_publ_section_title
;
Structure prediction by ZEFSAII (Michael W. Deem and Ramdas Pophale) SiO2 
 PCOD9292427
Probable space group: C 2/C
;
_chemical_formula_sum "Si O2"
_cell_formula_units_Z 44
_cell_length_a 9.773485
_cell_length_b 21.468158
_cell_length_c 11.612747
_cell_angle_alpha 90.000000
_cell_angle_beta 57.722559
_cell_angle_gamma 90.000000
_cell_volume 2060.053544
_symmetry_space_group_name_H-M "C 2/C"
_symmetry_group_IT_number 15
_symmetry_cell_setting 'monoclinic'
loop_
_space_group_symop_operation_xyz
x,y,z
-x,y,1/2-z
-x,-y,-z
x,-y,1/2+z
1/2+x,1/2+y,z
1/2-x,1/2+y,1/2-z
1/2-x,1/2-y,-z
1/2+x,1/2-y,1/2+z
loop_
_atom_site_type_symbol
_atom_site_label
_atom_site_fract_x
_atom_site_fract_y
_atom_site_fract_z
Si Si1 0.980936 0.585388 0.892490
Si Si2 0.179755 0.878349 0.022912
Si Si3 0.470760 0.833084 0.600655
Si Si4 0.000000 0.218997 0.750000
Si Si5 0.616636 0.612268 0.299761
Si Si6 0.734514 0.501524 0.628123
O O1 0.000000 0.594303 0.750000
O O2 0.123915 0.539711 0.871156
O O3 0.991775 0.650519 0.956586
O O4 0.818456 0.548782 0.004565
O O5 0.372746 0.868312 0.915017
O O6 0.079374 0.872906 0.949493
O O7 0.150091 0.945609 0.090805
O O8 0.135184 0.826420 0.137347
O O9 0.465444 0.764902 0.658307
O O10 0.297066 0.861895 0.704436
O O11 0.500000 0.636156 0.250000
O O12 0.636173 0.538593 0.265238
#
# Coordination Sequence:
#
# PCOD9292427 Si02
#       6
#     8   8   8   4   8   8
#     4   9  17  35  64 101 131 163 215 271 328 385
#     4  11  23  43  71  94 127 180 221 269 319 390
#     4  10  22  43  71  91 123 179 227 267 308 392
#     4  12  24  44  74  92 124 174 248 260 302 394
#     4  11  23  41  66  99 138 165 208 278 339 378
#     4   9  20  35  62  98 132 172 210 258 330 404
#
# _framework density 21.358668999999999
#
# number of rings (size 3 to 8) (size 9 to 14) (size 15 to 20)
#    0.000    1.818    1.818    2.727    1.273    0.727 
#   13.091    1.818    0.000    0.000    0.000    0.000 
#    0.000    0.000    0.000    0.000    0.000    0.000 
#
# Total GULP energy -122628.449777 kJ/mol
# GULP energy per Si atom -5574.020444 kJ/mol
# Density = 2.131006 g / cm^3
# Si number density = 21.358669 Si / 1000 Ang^3
#
#
#
# Elastic Constant Matrix: (Units=GPa)
#
#
# Indices 1 2 3 4 5 6 
#
# 1 87.5329 31.7758 41.8971 0.0000 12.7340 0.0000
# 2 31.7758 101.0807 49.4874 0.0000 3.6623 0.0000
# 3 41.8971 49.4874 124.0902 0.0000 39.7937 0.0000
# 4 0.0000 0.0000 0.0000 46.6743 0.0000 2.5578
# 5 12.7340 3.6623 39.7937 0.0000 40.5030 0.0000
# 6 0.0000 0.0000 0.0000 2.5578 0.0000 27.4365
#
#
#
# Elastic Compliance Matrix: (Units=1/GPa)
#
#
# Indices 1 2 3 4 5 6 
#
# 1 0.014184 -0.002755 -0.003416 0.000000 -0.000854 0.000000
# 2 -0.002755 0.013698 -0.006443 0.000000 0.005958 0.000000
# 3 -0.003416 -0.006443 0.016425 0.000000 -0.014481 0.000000
# 4 0.000000 0.000000 0.000000 0.021535 0.000000 -0.002008
# 5 -0.000854 0.005958 -0.014481 0.000000 0.038647 0.000000
# 6 0.000000 0.000000 0.000000 -0.002008 0.000000 0.036635
#
#
# Mechanical properties :
#
#
# Convention : Reuss Voigt Hill
#
# Bulk Modulus (GPa) = 52.41706 62.11382 57.26544
# Shear Modulus (GPa) = 28.94983 35.55902 32.25442
#
# Velocity S-wave (km/s) = 3.68559 4.08469 3.89026
# Velocity P-wave (km/s) = 6.53499 7.16873 6.85918
#
# Compressibility (1/GPa) = 0.01907776
#
# Stress axis : x y z
#
# Youngs Moduli (GPa) = 70.50236 73.00460 60.88100
#
# Poissons Ratio (x) = 0.20115 0.20799
# Poissons Ratio (y) = 0.19426 0.39226
# Poissons Ratio (z) = 0.24086 0.47037
#
# Static dielectric constant tensor:
#      x y z
#    x 1.830040 0.000000 -0.029690 
#    y 0.000000 1.783290 0.000000 
#    z -0.029690 0.000000 1.824730 
# 
# From -- ./inp_files/78118.got.cif
#   From: 2010.05.17/outbox.cif.g08.bks.cpg/sg15_40_cif.got.tgz:78118.got - 2010.06.03 18:47:42.
