data_PCOD9292439
_publ_section_title
;
Structure prediction by ZEFSAII (Michael W. Deem and Ramdas Pophale) SiO2 
 PCOD9292439
Probable space group: C 2/C
;
_chemical_formula_sum "Si O2"
_cell_formula_units_Z 40
_cell_length_a 11.585854
_cell_length_b 18.296522
_cell_length_c 8.301360
_cell_angle_alpha 90.000000
_cell_angle_beta 97.066585
_cell_angle_gamma 90.000000
_cell_volume 1746.362044
_symmetry_space_group_name_H-M "C 2/C"
_symmetry_group_IT_number 15
_symmetry_cell_setting 'monoclinic'
loop_
_space_group_symop_operation_xyz
x,y,z
-x,y,1/2-z
-x,-y,-z
x,-y,1/2+z
1/2+x,1/2+y,z
1/2-x,1/2+y,1/2-z
1/2-x,1/2-y,-z
1/2+x,1/2-y,1/2+z
loop_
_atom_site_type_symbol
_atom_site_label
_atom_site_fract_x
_atom_site_fract_y
_atom_site_fract_z
Si Si1 0.362473 0.936063 0.208514
Si Si2 0.500000 0.750608 0.750000
Si Si3 0.838791 0.120260 0.651888
Si Si4 0.319258 0.817259 0.930136
Si Si5 0.799626 0.924505 0.799693
Si Si6 0.000000 0.008641 0.750000
O O1 0.500000 0.942038 0.250000
O O2 0.296725 0.890631 0.337920
O O3 0.302915 0.015918 0.200292
O O4 0.332077 0.887274 0.047971
O O5 0.393584 0.699196 0.674765
O O6 0.445893 0.794414 0.888655
O O7 0.862787 0.084344 0.482595
O O8 0.907945 0.070767 0.796614
O O9 0.249522 0.847496 0.764631
O O10 0.250000 0.750000 0.000000
O O11 0.897096 0.951949 0.690467
#
# Coordination Sequence:
#
# PCOD9292439 Si02
#       6
#     8   4   8   8   8   4
#     4  11  25  46  71 101 142 183 235 289 349 416
#     4  11  26  46  70  96 145 182 236 288 353 416
#     4  10  22  43  71  98 134 183 232 288 350 415
#     4  12  28  48  69 105 144 185 232 292 351 414
#     4  11  25  41  74 104 135 183 236 285 352 411
#     4   9  20  40  70 104 133 172 230 294 343 416
#
# _framework density 22.904757
#
# number of rings (size 3 to 8) (size 9 to 14) (size 15 to 20)
#    0.000    1.200    2.000    3.000    7.000    4.000 
#    0.000    0.000    0.000    0.000    0.000    0.000 
#    0.000    0.000    0.000    0.000    0.000    0.000 
#
# Total GULP energy -111366.592384 kJ/mol
# GULP energy per Si atom -5568.329619 kJ/mol
# Density = 2.285262 g / cm^3
# Si number density = 22.904757 Si / 1000 Ang^3
#
#
#
# Elastic Constant Matrix: (Units=GPa)
#
#
# Indices 1 2 3 4 5 6 
#
# 1 169.5569 56.2751 26.4316 0.0000 -12.1569 0.0000
# 2 56.2751 114.3385 34.7353 0.0000 -7.1992 0.0000
# 3 26.4316 34.7353 90.3345 0.0000 -5.5485 0.0000
# 4 0.0000 0.0000 0.0000 37.2625 0.0000 4.0949
# 5 -12.1569 -7.1992 -5.5485 0.0000 30.9691 0.0000
# 6 0.0000 0.0000 0.0000 4.0949 0.0000 22.3524
#
#
#
# Elastic Compliance Matrix: (Units=1/GPa)
#
#
# Indices 1 2 3 4 5 6 
#
# 1 0.007218 -0.003198 -0.000762 0.000000 0.001953 0.000000
# 2 -0.003198 0.011402 -0.003400 0.000000 0.000786 0.000000
# 3 -0.000762 -0.003400 0.012673 0.000000 0.001181 0.000000
# 4 0.000000 0.000000 0.000000 0.027388 0.000000 -0.005017
# 5 0.001953 0.000786 0.001181 0.000000 0.033451 0.000000
# 6 0.000000 0.000000 0.000000 -0.005017 0.000000 0.045657
#
#
# Mechanical properties :
#
#
# Convention : Reuss Voigt Hill
#
# Bulk Modulus (GPa) = 60.34244 67.67930 64.01087
# Shear Modulus (GPa) = 31.63844 35.23599 33.43721
#
# Velocity S-wave (km/s) = 3.72062 3.92646 3.82493
# Velocity P-wave (km/s) = 6.69772 7.08297 6.89304
#
# Compressibility (1/GPa) = 0.01657209
#
# Stress axis : x y z
#
# Youngs Moduli (GPa) = 138.54238 87.70027 78.90736
#
# Poissons Ratio (x) = 0.28046 0.06015
# Poissons Ratio (y) = 0.44306 0.26832
# Poissons Ratio (z) = 0.10561 0.29822
#
# Static dielectric constant tensor:
#      x y z
#    x 1.865840 0.000000 -0.014330 
#    y 0.000000 1.869500 0.000000 
#    z -0.014330 0.000000 2.119060 
# 
# From -- ./inp_files/29134.got.cif
#   From: 2010.05.17/outbox.cif.g08.bks.cpg/sg15_15_cif.got.tgz:29134.got - 2010.06.03 18:47:42.
