data_PCOD9292891
_publ_section_title
;
Structure prediction by ZEFSAII (Michael W. Deem and Ramdas Pophale) SiO2 
 PCOD9292891
Probable space group: C 2/C
;
_chemical_formula_sum "Si O2"
_cell_formula_units_Z 40
_cell_length_a 12.076556
_cell_length_b 12.568964
_cell_length_c 11.467008
_cell_angle_alpha 90.000000
_cell_angle_beta 61.779343
_cell_angle_gamma 90.000000
_cell_volume 1533.677959
_symmetry_space_group_name_H-M "C 2/C"
_symmetry_group_IT_number 15
_symmetry_cell_setting 'monoclinic'
loop_
_space_group_symop_operation_xyz
x,y,z
-x,y,1/2-z
-x,-y,-z
x,-y,1/2+z
1/2+x,1/2+y,z
1/2-x,1/2+y,1/2-z
1/2-x,1/2-y,-z
1/2+x,1/2-y,1/2+z
loop_
_atom_site_type_symbol
_atom_site_label
_atom_site_fract_x
_atom_site_fract_y
_atom_site_fract_z
Si Si1 0.819530 0.407184 0.290982
Si Si2 0.580881 0.764115 0.452106
Si Si3 0.876023 0.798270 0.895916
Si Si4 0.309643 0.129792 0.399463
Si Si5 0.647551 0.473009 0.181436
O O1 0.908399 0.363821 0.142789
O O2 0.804079 0.310978 0.392827
O O3 0.859493 0.519496 0.324501
O O4 0.694601 0.441193 0.284805
O O5 0.453692 0.705056 0.478917
O O6 0.584854 0.803849 0.583636
O O7 0.711147 0.696551 0.369071
O O8 0.819439 0.907460 0.874776
O O9 0.000000 0.790615 0.750000
O O10 0.216657 0.097864 0.551778
O O11 0.500000 0.460946 0.250000
#
# Coordination Sequence:
#
# PCOD9292891 Si02
#       5
#     8   8   8   8   8
#     4  11  22  41  66  96 128 169 216 266 330 388
#     4  10  24  43  68  95 133 172 214 274 328 384
#     4  12  24  42  64  96 133 171 216 270 324 388
#     4  10  22  44  69  96 132 169 222 272 325 388
#     4  11  24  41  69  96 127 175 224 270 323 385
#
# _framework density 26.081094
#
# number of rings (size 3 to 8) (size 9 to 14) (size 15 to 20)
#    0.000    1.200    2.000    4.200    2.800    2.400 
#    3.600    0.000    0.000    0.000    0.000    0.000 
#    0.000    0.000    0.000    0.000    0.000    0.000 
#
# Total GULP energy -111742.238342 kJ/mol
# GULP energy per Si atom -5587.111917 kJ/mol
# Density = 2.602173 g / cm^3
# Si number density = 26.081094 Si / 1000 Ang^3
#
#
#
# Elastic Constant Matrix: (Units=GPa)
#
#
# Indices 1 2 3 4 5 6 
#
# 1 131.3908 53.6575 32.4788 0.0000 34.2158 0.0000
# 2 53.6575 168.4996 38.3142 0.0000 32.8257 0.0000
# 3 32.4788 38.3142 55.0829 0.0000 27.7681 0.0000
# 4 0.0000 0.0000 0.0000 54.3983 0.0000 13.2195
# 5 34.2158 32.8257 27.7681 0.0000 28.0235 0.0000
# 6 0.0000 0.0000 0.0000 13.2195 0.0000 36.7311
#
#
#
# Elastic Compliance Matrix: (Units=1/GPa)
#
#
# Indices 1 2 3 4 5 6 
#
# 1 0.011358 -0.001223 0.000844 0.000000 -0.013271 0.000000
# 2 -0.001223 0.007894 -0.001720 0.000000 -0.006048 0.000000
# 3 0.000844 -0.001720 0.036679 0.000000 -0.035360 0.000000
# 4 0.000000 0.000000 0.000000 0.020145 0.000000 -0.007250
# 5 -0.013271 -0.006048 -0.035360 0.000000 0.094009 0.000000
# 6 0.000000 0.000000 0.000000 -0.007250 0.000000 0.029834
#
#
# Mechanical properties :
#
#
# Convention : Reuss Voigt Hill
#
# Bulk Modulus (GPa) = 19.33101 67.09716 43.21409
# Shear Modulus (GPa) = 22.58749 39.19876 30.89312
#
# Velocity S-wave (km/s) = 2.94606 3.88100 3.44539
# Velocity P-wave (km/s) = 4.35894 6.77238 5.69498
#
# Compressibility (1/GPa) = 0.05173036
#
# Stress axis : x y z
#
# Youngs Moduli (GPa) = 88.04590 126.68287 27.26372
#
# Poissons Ratio (x) = 0.15499 -0.02301
# Poissons Ratio (y) = 0.10772 0.04691
# Poissons Ratio (z) = -0.07431 0.21795
#
# Static dielectric constant tensor:
#      x y z
#    x 2.250150 0.000000 -0.084980 
#    y 0.000000 2.090300 0.000000 
#    z -0.084980 0.000000 2.227530 
# 
# From -- ./inp_files/141755.got.cif
#   From: 2010.05.17/outbox.cif.g08.bks.cpg/sg15_71_cif.got.tgz:141755.got - 2010.06.03 18:47:42.
