data_PCOD9292709
_publ_section_title
;
Structure prediction by ZEFSAII (Michael W. Deem and Ramdas Pophale) SiO2 
 PCOD9292709
Probable space group: C 2/C
;
_chemical_formula_sum "Si O2"
_cell_formula_units_Z 64
_cell_length_a 15.290763
_cell_length_b 9.617624
_cell_length_c 26.745354
_cell_angle_alpha 90.000000
_cell_angle_beta 128.534689
_cell_angle_gamma 90.000000
_cell_volume 3076.666279
_symmetry_space_group_name_H-M "C 2/C"
_symmetry_group_IT_number 15
_symmetry_cell_setting 'monoclinic'
loop_
_space_group_symop_operation_xyz
x,y,z
-x,y,1/2-z
-x,-y,-z
x,-y,1/2+z
1/2+x,1/2+y,z
1/2-x,1/2+y,1/2-z
1/2-x,1/2-y,-z
1/2+x,1/2-y,1/2+z
loop_
_atom_site_type_symbol
_atom_site_label
_atom_site_fract_x
_atom_site_fract_y
_atom_site_fract_z
Si Si1 0.456796 0.180227 0.853137
Si Si2 0.973874 0.780379 0.299731
Si Si3 0.398652 0.343893 0.423552
Si Si4 0.712217 0.154547 0.940595
Si Si5 0.605537 0.341086 0.571784
Si Si6 0.199547 0.324144 0.933036
Si Si7 0.156193 0.615107 0.177107
Si Si8 0.591430 0.588578 0.239635
O O1 0.585641 0.191861 0.883701
O O2 0.437235 0.239399 0.901206
O O3 0.397944 0.280646 0.793082
O O4 0.414342 0.023882 0.839394
O O5 0.077748 0.726608 0.370788
O O6 0.000000 0.759910 0.250000
O O7 0.862760 0.697963 0.277457
O O8 0.952746 0.944648 0.299929
O O9 0.298062 0.320229 0.426528
O O10 0.514381 0.341505 0.494992
O O11 0.385691 0.503959 0.401821
O O12 0.391749 0.225397 0.379875
O O13 0.708041 0.988647 0.948358
O O14 0.750000 0.250000 0.000000
O O15 0.720374 0.300124 0.586234
O O16 0.250000 0.250000 0.000000
O O17 0.278073 0.568650 0.200683
O O18 0.500000 0.619244 0.250000
#
# Coordination Sequence:
#
# PCOD9292709 Si02
#       8
#     8   8   8   8   8   8   8   8
#     4  12  25  42  67 102 132 173 224 282 346 398
#     4  11  26  48  70 100 141 185 235 284 345 419
#     4  10  22  44  66  97 137 179 224 273 339 415
#     4  11  23  43  65 104 138 173 220 283 346 402
#     4  10  23  39  69  98 134 178 220 275 346 406
#     4  11  25  44  71 102 138 182 228 280 344 414
#     4  12  25  45  69  98 134 178 235 281 343 409
#     4  11  27  46  69  96 134 184 231 282 344 408
#
# _framework density 20.801736999999999
#
# number of rings (size 3 to 8) (size 9 to 14) (size 15 to 20)
#    0.000    1.000    2.500    3.000    7.000    2.000 
#    2.250    0.000    0.000    0.000    0.000    0.000 
#    0.000    0.000    0.000    0.000    0.000    0.000 
#
# Total GULP energy -178722.330350 kJ/mol
# GULP energy per Si atom -5585.072823 kJ/mol
# Density = 2.075439 g / cm^3
# Si number density = 20.801737 Si / 1000 Ang^3
#
#
#
# Elastic Constant Matrix: (Units=GPa)
#
#
# Indices 1 2 3 4 5 6 
#
# 1 110.4451 45.3432 31.0955 0.0000 19.9391 0.0000
# 2 45.3432 108.1087 26.5368 0.0000 -11.4254 0.0000
# 3 31.0955 26.5368 53.9129 0.0000 10.8826 0.0000
# 4 0.0000 0.0000 0.0000 30.5672 0.0000 3.5979
# 5 19.9391 -11.4254 10.8826 0.0000 37.8046 0.0000
# 6 0.0000 0.0000 0.0000 3.5979 0.0000 49.3926
#
#
#
# Elastic Compliance Matrix: (Units=1/GPa)
#
#
# Indices 1 2 3 4 5 6 
#
# 1 0.013889 -0.005814 -0.003520 0.000000 -0.008069 0.000000
# 2 -0.005814 0.013910 -0.005267 0.000000 0.008787 0.000000
# 3 -0.003520 -0.005267 0.024544 0.000000 -0.006800 0.000000
# 4 0.000000 0.000000 0.000000 0.032998 0.000000 -0.002404
# 5 -0.008069 0.008787 -0.006800 0.000000 0.035321 0.000000
# 6 0.000000 0.000000 0.000000 -0.002404 0.000000 0.020421
#
#
# Mechanical properties :
#
#
# Convention : Reuss Voigt Hill
#
# Bulk Modulus (GPa) = 43.21418 53.15753 48.18586
# Shear Modulus (GPa) = 28.09006 34.85228 31.47117
#
# Velocity S-wave (km/s) = 3.67873 4.09767 3.89384
# Velocity P-wave (km/s) = 6.23406 6.92804 6.59019
#
# Compressibility (1/GPa) = 0.02314055
#
# Stress axis : x y z
#
# Youngs Moduli (GPa) = 71.99853 71.89096 40.74315
#
# Poissons Ratio (x) = 0.41798 0.14343
# Poissons Ratio (y) = 0.41861 0.21459
# Poissons Ratio (z) = 0.25345 0.37864
#
# Static dielectric constant tensor:
#      x y z
#    x 1.782120 0.000000 0.060250 
#    y 0.000000 1.739780 0.000000 
#    z 0.060250 0.000000 1.808570 
# 
# From -- ./inp_files/313155.got.cif
#   From: 2010.05.17/outbox.cif.g08.bks.cpg/sg15_157_cif.got.tgz:313155.got - 2010.06.03 18:47:42.
