data_PCOD9292044
_publ_section_title
;
Structure prediction by ZEFSAII (Michael W. Deem and Ramdas Pophale) SiO2 
 PCOD9292044
Probable space group: C 2/C
;
_chemical_formula_sum "Si O2"
_cell_formula_units_Z 56
_cell_length_a 9.065343
_cell_length_b 16.423730
_cell_length_c 18.278546
_cell_angle_alpha 90.000000
_cell_angle_beta 80.434026
_cell_angle_gamma 90.000000
_cell_volume 2683.591434
_symmetry_space_group_name_H-M "C 2/C"
_symmetry_group_IT_number 15
_symmetry_cell_setting 'monoclinic'
loop_
_space_group_symop_operation_xyz
x,y,z
-x,y,1/2-z
-x,-y,-z
x,-y,1/2+z
1/2+x,1/2+y,z
1/2-x,1/2+y,1/2-z
1/2-x,1/2-y,-z
1/2+x,1/2-y,1/2+z
loop_
_atom_site_type_symbol
_atom_site_label
_atom_site_fract_x
_atom_site_fract_y
_atom_site_fract_z
Si Si1 0.921124 0.087917 0.011898
Si Si2 0.673843 0.825805 0.463726
Si Si3 0.500000 0.999827 0.250000
Si Si4 0.107379 0.249666 0.959413
Si Si5 0.344438 0.760554 0.715868
Si Si6 0.717207 0.594365 0.317750
Si Si7 0.000000 0.975286 0.250000
Si Si8 0.773386 0.380386 0.194335
O O1 0.768134 0.095003 0.978032
O O2 0.860389 0.110116 0.098191
O O3 0.029757 0.160418 0.974883
O O4 0.000000 0.000000 0.000000
O O5 0.750000 0.750000 0.500000
O O6 0.504540 0.818892 0.501741
O O7 0.685958 0.822092 0.375816
O O8 0.400738 0.944550 0.204024
O O9 0.382724 0.053859 0.306063
O O10 0.131159 0.269941 0.872224
O O11 0.250000 0.250000 0.000000
O O12 0.500000 0.758475 0.750000
O O13 0.243090 0.829565 0.761914
O O14 0.260625 0.675069 0.733043
O O15 0.607972 0.529956 0.289145
O O16 0.113373 0.922351 0.192250
#
# Coordination Sequence:
#
# PCOD9292044 Si02
#       8
#     8   8   4   8   8   8   4   8
#     4  11  24  43  72 100 141 179 227 284 364 421
#     4  10  22  43  65  95 136 180 223 276 352 422
#     4  10  26  42  68 100 134 166 234 294 342 402
#     4  11  27  44  66 101 140 177 234 290 351 421
#     4  12  23  42  72  96 132 185 234 277 345 423
#     4  11  24  44  68  98 138 177 230 280 351 416
#     4  10  24  40  68  98 130 170 228 282 340 410
#     4  11  23  42  71  93 132 173 231 278 343 409
#
# _framework density 20.867557000000001
#
# number of rings (size 3 to 8) (size 9 to 14) (size 15 to 20)
#    0.000    1.143    1.429    5.143    8.000    0.571 
#    0.000    1.429    0.000    0.000    0.000    0.000 
#    0.000    0.000    0.000    0.000    0.000    0.000 
#
# Total GULP energy -156322.574977 kJ/mol
# GULP energy per Si atom -5582.949106 kJ/mol
# Density = 2.082006 g / cm^3
# Si number density = 20.867557 Si / 1000 Ang^3
#
#
#
# Elastic Constant Matrix: (Units=GPa)
#
#
# Indices 1 2 3 4 5 6 
#
# 1 117.7569 40.7546 42.1712 0.0000 -7.0635 0.0000
# 2 40.7546 95.7787 28.2941 0.0000 -17.1963 0.0000
# 3 42.1712 28.2941 159.4424 0.0000 -11.6392 0.0000
# 4 0.0000 0.0000 0.0000 -56.5502 0.0000 169.4524
# 5 -7.0635 -17.1963 -11.6392 0.0000 24.2326 0.0000
# 6 0.0000 0.0000 0.0000 169.4524 0.0000 -319.0412
#
#
#
# Elastic Compliance Matrix: (Units=1/GPa)
#
#
# Indices 1 2 3 4 5 6 
#
# 1 0.010606 -0.004020 -0.002150 0.000000 -0.000794 0.000000
# 2 -0.004020 0.013875 -0.000793 0.000000 0.008293 0.000000
# 3 -0.002150 -0.000793 0.007145 0.000000 0.002242 0.000000
# 4 0.000000 0.000000 0.000000 0.029894 0.000000 0.015878
# 5 -0.000794 0.008293 0.002242 0.000000 0.047997 0.000000
# 6 0.000000 0.000000 0.000000 0.015878 0.000000 0.005299
#
#
# Mechanical properties :
#
#
# Convention : Reuss Voigt Hill
#
# Bulk Modulus (GPa) = 56.50195 66.15754 61.32974
# Shear Modulus (GPa) = 37.13547 -52.82124 -7.84289
#
# Velocity S-wave (km/s) = 4.22308 -5.03662 -1.94077
# Velocity P-wave (km/s) = 7.13544 1.43215 4.94284
#
# Compressibility (1/GPa) = 0.01769850
#
# Stress axis : x y z
#
# Youngs Moduli (GPa) = 94.28920 72.07329 139.96010
#
# Poissons Ratio (x) = 0.28976 0.30086
# Poissons Ratio (y) = 0.37907 0.11105
# Poissons Ratio (z) = 0.20269 0.05719
#
# Static dielectric constant tensor:
#      x y z
#    x 1.750650 0.000000 0.009110 
#    y 0.000000 1.781390 0.000000 
#    z 0.009110 0.000000 1.815530 
# 
# From -- ./inp_files/190967.got.cif
#   From: 2010.05.17/outbox.cif.g08.bks.cpg/sg15_96_cif.got.tgz:190967.got - 2010.06.03 18:47:42.
