data_PCOD9292389
_publ_section_title
;
Structure prediction by ZEFSAII (Michael W. Deem and Ramdas Pophale) SiO2 
 PCOD9292389
Probable space group: C 2/C
;
_chemical_formula_sum "Si O2"
_cell_formula_units_Z 44
_cell_length_a 12.111630
_cell_length_b 8.697233
_cell_length_c 18.435267
_cell_angle_alpha 90.000000
_cell_angle_beta 65.123949
_cell_angle_gamma 90.000000
_cell_volume 1761.755805
_symmetry_space_group_name_H-M "C 2/C"
_symmetry_group_IT_number 15
_symmetry_cell_setting 'monoclinic'
loop_
_space_group_symop_operation_xyz
x,y,z
-x,y,1/2-z
-x,-y,-z
x,-y,1/2+z
1/2+x,1/2+y,z
1/2-x,1/2+y,1/2-z
1/2-x,1/2-y,-z
1/2+x,1/2-y,1/2+z
loop_
_atom_site_type_symbol
_atom_site_label
_atom_site_fract_x
_atom_site_fract_y
_atom_site_fract_z
Si Si1 0.983625 0.445262 0.123946
Si Si2 0.000000 0.216397 0.250000
Si Si3 0.362444 0.513147 0.969355
Si Si4 0.144298 0.043929 0.871046
Si Si5 0.137692 0.363037 0.486818
Si Si6 0.742519 0.147726 0.269899
O O1 0.955289 0.371957 0.054052
O O2 0.860891 0.527290 0.182232
O O3 0.021208 0.326072 0.174560
O O4 0.080856 0.574405 0.077506
O O5 0.125613 0.128959 0.228994
O O6 0.342910 0.411827 0.047146
O O7 0.345349 0.683741 0.006844
O O8 0.500044 0.505415 0.902794
O O9 0.252035 0.521548 0.943055
O O10 0.189055 0.186779 0.809015
O O11 0.221787 0.895821 0.822923
#
# Coordination Sequence:
#
# PCOD9292389 Si02
#       6
#     8   4   8   8   8   8
#     4  11  24  45  68 105 141 188 240 303 361 439
#     4  12  26  46  70 100 152 190 234 306 372 418
#     4  10  22  43  72 100 138 190 239 301 355 436
#     4  11  24  45  70 106 146 186 247 301 359 440
#     4  10  22  43  70  99 138 185 245 287 368 436
#     4  12  25  45  68 106 145 191 240 296 373 424
#
# _framework density 24.975083999999999
#
# number of rings (size 3 to 8) (size 9 to 14) (size 15 to 20)
#    0.000    1.091    3.636    2.182    2.545    0.000 
#    0.000    3.636    0.000    0.000    0.000    0.000 
#    0.000    0.000    0.000    0.000    0.000    0.000 
#
# Total GULP energy -122928.338308 kJ/mol
# GULP energy per Si atom -5587.651741 kJ/mol
# Density = 2.491824 g / cm^3
# Si number density = 24.975084 Si / 1000 Ang^3
#
#
#
# Elastic Constant Matrix: (Units=GPa)
#
#
# Indices 1 2 3 4 5 6 
#
# 1 84.8255 -4.0857 28.5906 0.0000 -9.8485 0.0000
# 2 -4.0857 49.4329 33.1006 0.0000 -8.3290 0.0000
# 3 28.5906 33.1006 135.8260 0.0000 -25.6920 0.0000
# 4 0.0000 0.0000 0.0000 34.4842 0.0000 -8.3255
# 5 -9.8485 -8.3290 -25.6920 0.0000 44.3717 0.0000
# 6 0.0000 0.0000 0.0000 -8.3255 0.0000 37.4369
#
#
#
# Elastic Compliance Matrix: (Units=1/GPa)
#
#
# Indices 1 2 3 4 5 6 
#
# 1 0.013294 0.003636 -0.003366 0.000000 0.001684 0.000000
# 2 0.003636 0.025232 -0.006587 0.000000 0.001729 0.000000
# 3 -0.003366 -0.006587 0.010445 0.000000 0.004064 0.000000
# 4 0.000000 0.000000 0.000000 0.030644 0.000000 0.006815
# 5 0.001684 0.001729 0.004064 0.000000 0.025589 0.000000
# 6 0.000000 0.000000 0.000000 0.006815 0.000000 0.028227
#
#
# Mechanical properties :
#
#
# Convention : Reuss Voigt Hill
#
# Bulk Modulus (GPa) = 27.51971 42.81059 35.16515
# Shear Modulus (GPa) = 31.60999 37.42380 34.51689
#
# Velocity S-wave (km/s) = 3.56147 3.87518 3.72163
# Velocity P-wave (km/s) = 5.28724 6.09928 5.70772
#
# Compressibility (1/GPa) = 0.03633759
#
# Stress axis : x y z
#
# Youngs Moduli (GPa) = 75.22127 39.63161 95.73964
#
# Poissons Ratio (x) = -0.14412 0.32225
# Poissons Ratio (y) = -0.27354 0.63068
# Poissons Ratio (z) = 0.25319 0.26107
#
# Static dielectric constant tensor:
#      x y z
#    x 2.155110 0.000000 0.019860 
#    y 0.000000 1.980160 0.000000 
#    z 0.019860 0.000000 1.976720 
# 
# From -- ./inp_files/196442.got.cif
#   From: 2010.05.17/outbox.cif.g08.bks.cpg/sg15_99_cif.got.tgz:196442.got - 2010.06.03 18:47:42.
