data_PCOD9292783
_publ_section_title
;
Structure prediction by ZEFSAII (Michael W. Deem and Ramdas Pophale) SiO2 
 PCOD9292783
Probable space group: C 2/C
;
_chemical_formula_sum "Si O2"
_cell_formula_units_Z 40
_cell_length_a 7.751961
_cell_length_b 11.626148
_cell_length_c 31.305573
_cell_angle_alpha 90.000000
_cell_angle_beta 143.688428
_cell_angle_gamma 90.000000
_cell_volume 1670.782206
_symmetry_space_group_name_H-M "C 2/C"
_symmetry_group_IT_number 15
_symmetry_cell_setting 'monoclinic'
loop_
_space_group_symop_operation_xyz
x,y,z
-x,y,1/2-z
-x,-y,-z
x,-y,1/2+z
1/2+x,1/2+y,z
1/2-x,1/2+y,1/2-z
1/2-x,1/2-y,-z
1/2+x,1/2-y,1/2+z
loop_
_atom_site_type_symbol
_atom_site_label
_atom_site_fract_x
_atom_site_fract_y
_atom_site_fract_z
Si Si1 0.207931 0.698870 0.881145
Si Si2 0.616090 0.410499 0.819096
Si Si3 0.342652 0.015579 0.560584
Si Si4 0.245602 0.651769 0.034946
Si Si5 0.680628 0.508601 0.664811
O O1 0.008354 0.787954 0.815149
O O2 0.061753 0.613391 0.886281
O O3 0.382051 0.784466 0.948612
O O4 0.342325 0.616532 0.871766
O O5 0.500000 0.435237 0.750000
O O6 0.524713 0.507300 0.834606
O O7 0.965553 0.407170 0.888195
O O8 0.388217 0.049022 0.520112
O O9 0.000000 0.000000 0.500000
O O10 0.556084 0.599885 0.112718
O O11 0.250000 0.750000 0.000000
O O12 0.000000 0.498347 0.750000
#
# Coordination Sequence:
#
# PCOD9292783 Si02
#       5
#     8   8   8   8   8
#     4  10  22  44  68 101 135 178 231 280 354 409
#     4  11  26  44  66  99 140 175 235 286 344 421
#     4  11  22  45  71  97 140 184 224 284 343 412
#     4   9  21  41  66 100 136 171 232 276 338 412
#     4  11  22  43  71  97 138 183 227 289 354 411
#
# _framework density 23.940881999999998
#
# number of rings (size 3 to 8) (size 9 to 14) (size 15 to 20)
#    0.000    1.600    2.000    1.800    0.000    4.000 
#   10.800   21.000    0.000    0.000    0.000    0.000 
#    0.000    0.000    0.000    0.000    0.000    0.000 
#
# Total GULP energy -111372.972360 kJ/mol
# GULP energy per Si atom -5568.648618 kJ/mol
# Density = 2.388639 g / cm^3
# Si number density = 23.940882 Si / 1000 Ang^3
#
#
#
# Elastic Constant Matrix: (Units=GPa)
#
#
# Indices 1 2 3 4 5 6 
#
# 1 107.4502 42.6607 75.2439 0.0000 -40.4945 0.0000
# 2 42.6607 98.8413 62.2444 0.0000 -23.1406 0.0000
# 3 75.2439 62.2444 178.6567 0.0000 -24.4750 0.0000
# 4 0.0000 0.0000 0.0000 34.1870 0.0000 -22.8437
# 5 -40.4945 -23.1406 -24.4750 0.0000 59.4242 0.0000
# 6 0.0000 0.0000 0.0000 -22.8437 0.0000 47.1666
#
#
#
# Elastic Compliance Matrix: (Units=1/GPa)
#
#
# Indices 1 2 3 4 5 6 
#
# 1 0.017092 -0.001999 -0.005313 0.000000 0.008681 0.000000
# 2 -0.001999 0.013868 -0.003642 0.000000 0.002538 0.000000
# 3 -0.005313 -0.003642 0.008917 0.000000 -0.001366 0.000000
# 4 0.000000 0.000000 0.000000 0.043246 0.000000 0.020945
# 5 0.008681 0.002538 -0.001366 0.000000 0.023169 0.000000
# 6 0.000000 0.000000 0.000000 0.020945 0.000000 0.031346
#
#
# Mechanical properties :
#
#
# Convention : Reuss Voigt Hill
#
# Bulk Modulus (GPa) = 55.65202 82.80515 69.22859
# Shear Modulus (GPa) = 30.20499 41.80883 36.00691
#
# Velocity S-wave (km/s) = 3.55582 4.18345 3.88234
# Velocity P-wave (km/s) = 6.33676 7.61561 7.00543
#
# Compressibility (1/GPa) = 0.01796880
#
# Stress axis : x y z
#
# Youngs Moduli (GPa) = 58.50557 72.11002 112.14955
#
# Poissons Ratio (x) = 0.14415 0.59585
# Poissons Ratio (y) = 0.11696 0.40844
# Poissons Ratio (z) = 0.31084 0.26262
#
# Static dielectric constant tensor:
#      x y z
#    x 1.969130 0.000000 0.021050 
#    y 0.000000 1.991050 0.000000 
#    z 0.021050 0.000000 1.945980 
# 
# From -- ./inp_files/307337.got.cif
#   From: 2010.05.17/outbox.cif.g08.bks.cpg/sg15_154_cif.got.tgz:307337.got - 2010.06.03 18:47:42.
