data_PCOD9292291
_publ_section_title
;
Structure prediction by ZEFSAII (Michael W. Deem and Ramdas Pophale) SiO2 
 PCOD9292291
Probable space group: C 2/C
;
_chemical_formula_sum "Si O2"
_cell_formula_units_Z 56
_cell_length_a 14.366332
_cell_length_b 21.010239
_cell_length_c 8.909943
_cell_angle_alpha 90.000000
_cell_angle_beta 84.828177
_cell_angle_gamma 90.000000
_cell_volume 2678.428947
_symmetry_space_group_name_H-M "C 2/C"
_symmetry_group_IT_number 15
_symmetry_cell_setting 'monoclinic'
loop_
_space_group_symop_operation_xyz
x,y,z
-x,y,1/2-z
-x,-y,-z
x,-y,1/2+z
1/2+x,1/2+y,z
1/2-x,1/2+y,1/2-z
1/2-x,1/2-y,-z
1/2+x,1/2-y,1/2+z
loop_
_atom_site_type_symbol
_atom_site_label
_atom_site_fract_x
_atom_site_fract_y
_atom_site_fract_z
Si Si1 0.646394 0.805461 0.123928
Si Si2 0.662776 0.662519 0.053350
Si Si3 0.290590 0.605725 0.130980
Si Si4 0.649443 0.879544 0.417652
Si Si5 0.004294 0.929973 0.930333
Si Si6 0.344113 0.997067 0.279262
Si Si7 0.945406 0.417828 0.523790
O O1 0.755441 0.822176 0.076954
O O2 0.622645 0.828936 0.294368
O O3 0.594814 0.848605 0.008481
O O4 0.624907 0.731793 0.105033
O O5 0.705124 0.631932 0.199957
O O6 0.582170 0.614907 0.010495
O O7 0.395034 0.601330 0.052988
O O8 0.243079 0.535674 0.142661
O O9 0.221484 0.643973 0.031634
O O10 0.691222 0.939988 0.321584
O O11 0.555845 0.907849 0.505214
O O12 0.000000 0.935299 0.750000
O O13 0.000000 0.000000 0.000000
O O14 0.409475 0.961439 0.390265
O O15 0.402452 0.047842 0.173507
#
# Coordination Sequence:
#
# PCOD9292291 Si02
#       7
#     8   8   8   8   8   8   8
#     4  10  22  43  69  88 123 169 214 254 318 385
#     4  10  23  46  65  90 122 167 214 265 314 381
#     4  11  24  38  61  91 125 168 199 269 317 369
#     4  11  25  36  61  95 123 168 202 257 319 377
#     4  10  25  40  64  94 123 165 212 264 324 374
#     4  11  21  36  57  89 135 157 208 249 324 382
#     4  11  23  38  61  94 126 171 201 261 316 386
#
# _framework density 20.907779000000001
#
# number of rings (size 3 to 8) (size 9 to 14) (size 15 to 20)
#    0.000    1.429    2.857    2.143   10.000    4.000 
#    0.000    0.000    0.000    3.429    0.000    0.000 
#    0.000    0.000    0.000    0.000    0.000    0.000 
#
# Total GULP energy -156495.141628 kJ/mol
# GULP energy per Si atom -5589.112201 kJ/mol
# Density = 2.086019 g / cm^3
# Si number density = 20.907779 Si / 1000 Ang^3
#
#
#
# Elastic Constant Matrix: (Units=GPa)
#
#
# Indices 1 2 3 4 5 6 
#
# 1 75.7906 34.1584 23.2879 0.0000 16.3894 0.0000
# 2 34.1584 107.4259 7.9763 0.0000 7.0695 0.0000
# 3 23.2879 7.9763 54.0119 0.0000 9.5804 0.0000
# 4 0.0000 0.0000 0.0000 20.7714 0.0000 -3.0006
# 5 16.3894 7.0695 9.5804 0.0000 26.1015 0.0000
# 6 0.0000 0.0000 0.0000 -3.0006 0.0000 29.3335
#
#
#
# Elastic Compliance Matrix: (Units=1/GPa)
#
#
# Indices 1 2 3 4 5 6 
#
# 1 0.019163 -0.005091 -0.006012 0.000000 -0.008447 0.000000
# 2 -0.005091 0.010882 0.000582 0.000000 0.000036 0.000000
# 3 -0.006012 0.000582 0.021798 0.000000 -0.004383 0.000000
# 4 0.000000 0.000000 0.000000 0.048865 0.000000 0.004999
# 5 -0.008447 0.000036 -0.004383 0.000000 0.045215 0.000000
# 6 0.000000 0.000000 0.000000 0.004999 0.000000 0.034602
#
#
# Mechanical properties :
#
#
# Convention : Reuss Voigt Hill
#
# Bulk Modulus (GPa) = 32.46747 40.89707 36.68227
# Shear Modulus (GPa) = 23.60331 26.69498 25.14915
#
# Velocity S-wave (km/s) = 3.36359 3.57711 3.47199
# Velocity P-wave (km/s) = 5.53603 6.05509 5.80137
#
# Compressibility (1/GPa) = 0.03080006
#
# Stress axis : x y z
#
# Youngs Moduli (GPa) = 52.18498 91.89516 45.87527
#
# Poissons Ratio (x) = 0.46783 0.27581
# Poissons Ratio (y) = 0.26567 -0.02668
# Poissons Ratio (z) = 0.31374 -0.05345
#
# Static dielectric constant tensor:
#      x y z
#    x 1.794080 0.000000 0.004340 
#    y 0.000000 1.742000 0.000000 
#    z 0.004340 0.000000 1.771330 
# 
# From -- ./inp_files/41228.got.cif
#   From: 2010.05.17/outbox.cif.g08.bks.cpg/sg15_21_cif.got.tgz:41228.got - 2010.06.03 18:47:42.
