data_PCOD9292469
_publ_section_title
;
Structure prediction by ZEFSAII (Michael W. Deem and Ramdas Pophale) SiO2 
 PCOD9292469
Probable space group: C 2/C
;
_chemical_formula_sum "Si O2"
_cell_formula_units_Z 60
_cell_length_a 22.127405
_cell_length_b 8.115235
_cell_length_c 13.649071
_cell_angle_alpha 90.000000
_cell_angle_beta 97.102491
_cell_angle_gamma 90.000000
_cell_volume 2432.144060
_symmetry_space_group_name_H-M "C 2/C"
_symmetry_group_IT_number 15
_symmetry_cell_setting 'monoclinic'
loop_
_space_group_symop_operation_xyz
x,y,z
-x,y,1/2-z
-x,-y,-z
x,-y,1/2+z
1/2+x,1/2+y,z
1/2-x,1/2+y,1/2-z
1/2-x,1/2-y,-z
1/2+x,1/2-y,1/2+z
loop_
_atom_site_type_symbol
_atom_site_label
_atom_site_fract_x
_atom_site_fract_y
_atom_site_fract_z
Si Si1 0.309193 0.794838 0.293812
Si Si2 0.750000 0.250000 0.500000
Si Si3 0.429187 0.010115 0.347021
Si Si4 0.634356 0.702488 0.571989
Si Si5 0.615404 0.375999 0.459782
Si Si6 0.315225 0.573888 0.722082
Si Si7 0.807973 0.407473 0.072535
Si Si8 0.060133 0.562131 0.376377
O O1 0.309244 0.602040 0.272076
O O2 0.294428 0.862535 0.181597
O O3 0.373783 0.878432 0.334552
O O4 0.247106 0.850264 0.339733
O O5 0.676098 0.284979 0.509397
O O6 0.766192 0.442120 0.535118
O O7 0.413318 0.152844 0.419387
O O8 0.498676 0.958762 0.381487
O O9 0.434044 0.087925 0.239514
O O10 0.605258 0.533613 0.526422
O O11 0.663764 0.689119 0.685725
O O12 0.685918 0.761280 0.505556
O O13 0.636082 0.435995 0.355256
O O14 0.564119 0.237120 0.433297
O O15 0.877764 0.468842 0.089856
#
# Coordination Sequence:
#
# PCOD9292469 Si02
#       8
#     8   4   8   8   8   8   8   8
#     4  11  25  42  66  99 141 181 228 278 355 418
#     4  10  24  38  66  96 136 180 214 276 348 406
#     4  10  22  43  72  96 129 185 231 283 343 421
#     4  12  25  41  69 103 134 179 231 281 356 407
#     4  11  24  43  66 101 140 175 226 286 341 415
#     4  12  26  42  67 104 141 183 223 290 349 423
#     4  10  23  43  65 101 138 180 227 286 340 420
#     4   9  21  46  70  93 135 181 233 283 344 410
#
# _framework density 24.669591
#
# number of rings (size 3 to 8) (size 9 to 14) (size 15 to 20)
#    0.000    1.333    2.667    1.600    9.333    3.200 
#    0.000    1.333    2.933    0.000    0.000    0.000 
#    0.000    0.000    0.000    0.000    0.000    0.000 
#
# Total GULP energy -167531.054499 kJ/mol
# GULP energy per Si atom -5584.368483 kJ/mol
# Density = 2.461344 g / cm^3
# Si number density = 24.669591 Si / 1000 Ang^3
#
#
#
# Elastic Constant Matrix: (Units=GPa)
#
#
# Indices 1 2 3 4 5 6 
#
# 1 95.1525 7.3658 12.8496 0.0000 4.8509 0.0000
# 2 7.3658 61.9701 -18.1539 0.0000 5.0890 0.0000
# 3 12.8496 -18.1539 67.6635 0.0000 9.3754 0.0000
# 4 0.0000 0.0000 0.0000 49.2199 0.0000 -6.8337
# 5 4.8509 5.0890 9.3754 0.0000 30.0423 0.0000
# 6 0.0000 0.0000 0.0000 -6.8337 0.0000 28.7681
#
#
#
# Elastic Compliance Matrix: (Units=1/GPa)
#
#
# Indices 1 2 3 4 5 6 
#
# 1 0.011041 -0.002005 -0.002545 0.000000 -0.000649 0.000000
# 2 -0.002005 0.018517 0.005998 0.000000 -0.004685 0.000000
# 3 -0.002545 0.005998 0.017722 0.000000 -0.006136 0.000000
# 4 0.000000 0.000000 0.000000 0.021010 0.000000 0.004991
# 5 -0.000649 -0.004685 -0.006136 0.000000 0.036100 0.000000
# 6 0.000000 0.000000 0.000000 0.004991 0.000000 0.035946
#
#
# Mechanical properties :
#
#
# Convention : Reuss Voigt Hill
#
# Bulk Modulus (GPa) = 19.92949 25.43435 22.68192
# Shear Modulus (GPa) = 32.43305 36.45439 34.44372
#
# Velocity S-wave (km/s) = 3.62981 3.84826 3.74063
# Velocity P-wave (km/s) = 5.06591 5.48433 5.27927
#
# Compressibility (1/GPa) = 0.05017690
#
# Stress axis : x y z
#
# Youngs Moduli (GPa) = 90.56872 54.00505 56.42846
#
# Poissons Ratio (x) = 0.10825 0.14359
# Poissons Ratio (y) = 0.18155 -0.33844
# Poissons Ratio (z) = 0.23047 -0.32391
#
# Static dielectric constant tensor:
#      x y z
#    x 1.990830 0.000000 -0.120930 
#    y 0.000000 1.929580 0.000000 
#    z -0.120930 0.000000 2.436800 
# 
# From -- ./inp_files/172422.got.cif
#   From: 2010.05.17/outbox.cif.g08.bks.cpg/sg15_87_cif.got.tgz:172422.got - 2010.06.03 18:47:42.
