data_PCOD9292780
_publ_section_title
;
Structure prediction by ZEFSAII (Michael W. Deem and Ramdas Pophale) SiO2 
 PCOD9292780
Probable space group: C 2/C
;
_chemical_formula_sum "Si O2"
_cell_formula_units_Z 56
_cell_length_a 13.420067
_cell_length_b 25.177459
_cell_length_c 15.123311
_cell_angle_alpha 90.000000
_cell_angle_beta 151.658707
_cell_angle_gamma 90.000000
_cell_volume 2425.791183
_symmetry_space_group_name_H-M "C 2/C"
_symmetry_group_IT_number 15
_symmetry_cell_setting 'monoclinic'
loop_
_space_group_symop_operation_xyz
x,y,z
-x,y,1/2-z
-x,-y,-z
x,-y,1/2+z
1/2+x,1/2+y,z
1/2-x,1/2+y,1/2-z
1/2-x,1/2-y,-z
1/2+x,1/2-y,1/2+z
loop_
_atom_site_type_symbol
_atom_site_label
_atom_site_fract_x
_atom_site_fract_y
_atom_site_fract_z
Si Si1 0.515025 0.487312 0.658864
Si Si2 0.500000 0.000000 0.500000
Si Si3 0.769487 0.604230 0.601909
Si Si4 0.371886 0.323112 0.365706
Si Si5 0.479964 0.886894 0.582832
Si Si6 0.000000 0.828652 0.750000
Si Si7 0.740500 0.203736 0.206538
Si Si8 0.840259 0.105798 0.513601
O O1 0.500000 0.470506 0.750000
O O2 0.367202 0.448163 0.486836
O O3 0.426075 0.546372 0.586258
O O4 0.752678 0.483188 0.814658
O O5 0.446998 0.940883 0.503084
O O6 0.786726 0.640597 0.702010
O O7 0.644043 0.636315 0.428136
O O8 0.000000 0.588428 0.750000
O O9 0.301481 0.263366 0.295091
O O10 0.567148 0.317321 0.585528
O O11 0.471184 0.354603 0.362430
O O12 0.548874 0.836690 0.575935
O O13 0.283711 0.878423 0.494974
O O14 0.672349 0.894294 0.802398
O O15 0.166780 0.796317 0.820499
#
# Coordination Sequence:
#
# PCOD9292780 Si02
#       8
#     8   4   8   8   8   4   8   8
#     4  12  25  43  68 106 136 184 233 291 361 426
#     4  12  24  42  72 102 144 182 226 304 358 416
#     4  11  26  43  71 106 143 189 234 294 361 436
#     4  10  24  43  64 100 135 184 241 287 355 420
#     4  10  23  43  70  97 137 185 232 294 356 418
#     4  10  22  44  68 100 152 170 238 300 352 422
#     4  10  23  41  67 100 135 187 233 297 347 425
#     4  10  23  46  65  96 140 181 236 291 352 427
#
# _framework density 23.085253000000002
#
# number of rings (size 3 to 8) (size 9 to 14) (size 15 to 20)
#    0.000    1.429    2.143    2.571    5.000    6.286 
#    0.000    0.000    0.000    0.000    0.000    0.000 
#    0.000    0.000    0.000    0.000    0.000    0.000 
#
# Total GULP energy -156237.623563 kJ/mol
# GULP energy per Si atom -5579.915127 kJ/mol
# Density = 2.303271 g / cm^3
# Si number density = 23.085253 Si / 1000 Ang^3
#
#
#
# Elastic Constant Matrix: (Units=GPa)
#
#
# Indices 1 2 3 4 5 6 
#
# 1 89.3524 57.8104 32.0925 -0.0005 19.7730 -0.0002
# 2 57.8104 127.4106 13.9804 0.0001 5.5652 0.0001
# 3 32.0925 13.9804 72.9653 -0.0002 12.5491 0.0000
# 4 -0.0005 0.0001 -0.0002 -0.1953 -0.0003 -12.0514
# 5 19.7730 5.5652 12.5491 -0.0003 46.9651 -0.0002
# 6 -0.0002 0.0001 0.0000 -12.0514 -0.0002 36.1902
#
#
#
# Elastic Compliance Matrix: (Units=1/GPa)
#
#
# Indices 1 2 3 4 5 6 
#
# 1 0.019963 -0.008122 -0.006230 -0.000002 -0.005777 -0.000001
# 2 -0.008122 0.011336 0.001093 0.000001 0.001784 0.000000
# 3 -0.006230 0.001093 0.016569 0.000000 -0.001934 0.000000
# 4 -0.000002 0.000001 0.000000 -0.237617 -0.000001 -0.079127
# 5 -0.005777 0.001784 -0.001934 -0.000001 0.024030 0.000000
# 6 -0.000001 0.000000 0.000000 -0.079127 0.000000 0.001282
#
#
# Mechanical properties :
#
#
# Convention : Reuss Voigt Hill
#
# Bulk Modulus (GPa) = 46.83953 55.27723 51.05838
# Shear Modulus (GPa) = -38.22505 28.98168 -4.62168
#
# Velocity S-wave (km/s) = -4.07359 3.54703 -1.41646
# Velocity P-wave (km/s) = 1.33854 6.38530 4.41477
#
# Compressibility (1/GPa) = 0.02134949
#
# Stress axis : x y z
#
# Youngs Moduli (GPa) = 50.09381 88.21601 60.35538
#
# Poissons Ratio (x) = 0.71646 0.37604
# Poissons Ratio (y) = 0.40685 -0.06599
# Poissons Ratio (z) = 0.31211 -0.09645
#
# Static dielectric constant tensor:
#      x y z
#    x 1.883470 0.000000 -0.050780 
#    y 0.000000 1.843470 0.000000 
#    z -0.050780 0.000000 1.904950 
# 
# From -- ./inp_files/207022.got.cif
#   From: 2010.05.17/outbox.cif.g08.bks.cpg/sg15_104_cif.got.tgz:207022.got - 2010.06.03 18:47:42.
