data_PCOD9292171
_publ_section_title
;
Structure prediction by ZEFSAII (Michael W. Deem and Ramdas Pophale) SiO2 
 PCOD9292171
Probable space group: C 2/C
;
_chemical_formula_sum "Si O2"
_cell_formula_units_Z 52
_cell_length_a 26.773361
_cell_length_b 13.200453
_cell_length_c 10.158859
_cell_angle_alpha 90.000000
_cell_angle_beta 137.690752
_cell_angle_gamma 90.000000
_cell_volume 2416.778372
_symmetry_space_group_name_H-M "C 2/C"
_symmetry_group_IT_number 15
_symmetry_cell_setting 'monoclinic'
loop_
_space_group_symop_operation_xyz
x,y,z
-x,y,1/2-z
-x,-y,-z
x,-y,1/2+z
1/2+x,1/2+y,z
1/2-x,1/2+y,1/2-z
1/2-x,1/2-y,-z
1/2+x,1/2-y,1/2+z
loop_
_atom_site_type_symbol
_atom_site_label
_atom_site_fract_x
_atom_site_fract_y
_atom_site_fract_z
Si Si1 0.569736 0.227267 0.823034
Si Si2 0.189678 0.128181 0.669852
Si Si3 0.138078 0.609488 0.509497
Si Si4 0.683221 0.466020 0.872838
Si Si5 0.500000 0.743279 0.750000
Si Si6 0.530951 0.388010 0.547114
Si Si7 0.646681 0.054856 0.812277
O O1 0.500000 0.169421 0.750000
O O2 0.529167 0.322097 0.674359
O O3 0.605844 0.154082 0.785611
O O4 0.635602 0.276642 0.038395
O O5 0.277733 0.152542 0.835332
O O6 0.176437 0.050150 0.518799
O O7 0.174667 0.073414 0.780621
O O8 0.135924 0.540301 0.636312
O O9 0.124030 0.541387 0.354209
O O10 0.073428 0.689613 0.402724
O O11 0.618377 0.397596 0.686746
O O12 0.765255 0.430242 0.995816
O O13 0.509764 0.671972 0.644398
O O14 0.500000 0.500000 0.500000
#
# Coordination Sequence:
#
# PCOD9292171 Si02
#       7
#     8   8   8   8   4   8   8
#     4  11  23  39  64  94 126 169 215 264 330 385
#     4   9  20  39  64  92 129 166 215 262 323 385
#     4  10  23  43  66  97 127 172 218 269 323 382
#     4   9  20  38  65  90 127 169 211 259 321 384
#     4  12  26  40  66  94 126 172 216 258 324 390
#     4  11  25  40  63  94 133 167 211 267 326 392
#     4  10  22  43  67  93 128 170 218 272 322 381
#
# _framework density 21.516247
#
# number of rings (size 3 to 8) (size 9 to 14) (size 15 to 20)
#    0.000    1.846    1.538    0.923    8.615    3.692 
#    0.000    0.000    0.000    6.462    0.000    0.000 
#    0.000    0.000    0.000    0.000    0.000    0.000 
#
# Total GULP energy -145102.912702 kJ/mol
# GULP energy per Si atom -5580.881258 kJ/mol
# Density = 2.146727 g / cm^3
# Si number density = 21.516247 Si / 1000 Ang^3
#
#
#
# Elastic Constant Matrix: (Units=GPa)
#
#
# Indices 1 2 3 4 5 6 
#
# 1 66.0667 10.9068 12.0620 0.0000 2.2827 0.0000
# 2 10.9068 32.4219 13.6564 0.0000 1.3877 0.0000
# 3 12.0620 13.6564 69.0672 0.0000 -5.1249 0.0000
# 4 0.0000 0.0000 0.0000 60.1503 0.0000 -4.6176
# 5 2.2827 1.3877 -5.1249 0.0000 10.0084 0.0000
# 6 0.0000 0.0000 0.0000 -4.6176 0.0000 28.4872
#
#
#
# Elastic Compliance Matrix: (Units=1/GPa)
#
#
# Indices 1 2 3 4 5 6 
#
# 1 0.016431 -0.004361 -0.002329 0.000000 -0.004336 0.000000
# 2 -0.004361 0.035495 -0.006807 0.000000 -0.007412 0.000000
# 3 -0.002329 -0.006807 0.016986 0.000000 0.010173 0.000000
# 4 0.000000 0.000000 0.000000 0.016835 0.000000 0.002729
# 5 -0.004336 -0.007412 0.010173 0.000000 0.107142 0.000000
# 6 0.000000 0.000000 0.000000 0.002729 0.000000 0.035546
#
#
# Mechanical properties :
#
#
# Convention : Reuss Voigt Hill
#
# Bulk Modulus (GPa) = 23.85564 26.75624 25.30594
# Shear Modulus (GPa) = 18.55976 28.45787 23.50882
#
# Velocity S-wave (km/s) = 2.94018 3.64073 3.30905
# Velocity P-wave (km/s) = 4.75789 5.48959 5.13679
#
# Compressibility (1/GPa) = 0.04191880
#
# Stress axis : x y z
#
# Youngs Moduli (GPa) = 60.85988 28.17324 58.87168
#
# Poissons Ratio (x) = 0.12286 0.13711
# Poissons Ratio (y) = 0.26541 0.40072
# Poissons Ratio (z) = 0.14174 0.19177
#
# Static dielectric constant tensor:
#      x y z
#    x 1.852630 0.000000 0.017700 
#    y 0.000000 1.758440 0.000000 
#    z 0.017700 0.000000 1.762370 
# 
# From -- ./inp_files/126499.got.cif
#   From: 2010.05.17/outbox.cif.g08.bks.cpg/sg15_64_cif.got.tgz:126499.got - 2010.06.03 18:47:42.
