data_PCOD9292418
_publ_section_title
;
Structure prediction by ZEFSAII (Michael W. Deem and Ramdas Pophale) SiO2 
 PCOD9292418
Probable space group: C 2/C
;
_chemical_formula_sum "Si O2"
_cell_formula_units_Z 40
_cell_length_a 21.537201
_cell_length_b 9.212070
_cell_length_c 8.741596
_cell_angle_alpha 90.000000
_cell_angle_beta 105.168682
_cell_angle_gamma 90.000000
_cell_volume 1673.926502
_symmetry_space_group_name_H-M "C 2/C"
_symmetry_group_IT_number 15
_symmetry_cell_setting 'monoclinic'
loop_
_space_group_symop_operation_xyz
x,y,z
-x,y,1/2-z
-x,-y,-z
x,-y,1/2+z
1/2+x,1/2+y,z
1/2-x,1/2+y,1/2-z
1/2-x,1/2-y,-z
1/2+x,1/2-y,1/2+z
loop_
_atom_site_type_symbol
_atom_site_label
_atom_site_fract_x
_atom_site_fract_y
_atom_site_fract_z
Si Si1 0.295388 0.350945 0.135289
Si Si2 0.872716 0.385783 0.599788
Si Si3 0.000000 0.023851 0.750000
Si Si4 0.751242 0.409949 0.065009
Si Si5 0.946360 0.794305 0.930440
Si Si6 0.000000 0.562446 0.750000
O O1 0.353420 0.241985 0.205988
O O2 0.259948 0.401726 0.263092
O O3 0.250000 0.250000 0.000000
O O4 0.306314 0.493911 0.043331
O O5 0.817144 0.507093 0.564720
O O6 0.883958 0.295215 0.448948
O O7 0.937986 0.463724 0.686980
O O8 0.972227 0.124148 0.597573
O O9 0.947689 0.917013 0.798707
O O10 0.750000 0.250000 0.000000
O O11 0.991373 0.668099 0.890186
#
# Coordination Sequence:
#
# PCOD9292418 Si02
#       6
#     8   8   4   8   8   4
#     4  10  24  45  71 104 142 194 251 307 367 438
#     4  11  25  43  75 106 155 186 254 299 380 451
#     4   9  21  46  66 102 156 188 248 298 364 466
#     4  11  24  47  75 104 144 196 254 314 368 431
#     4  10  22  43  71 105 148 195 244 298 380 449
#     4  11  25  44  74 112 148 198 242 310 384 456
#
# _framework density 23.895913
#
# number of rings (size 3 to 8) (size 9 to 14) (size 15 to 20)
#    0.000    1.600    0.000    3.600    8.400    1.600 
#   10.800    0.000    0.000    0.000    0.000    0.000 
#    0.000    0.000    0.000    0.000    0.000    0.000 
#
# Total GULP energy -111793.322692 kJ/mol
# GULP energy per Si atom -5589.666135 kJ/mol
# Density = 2.384152 g / cm^3
# Si number density = 23.895913 Si / 1000 Ang^3
#
#
#
# Elastic Constant Matrix: (Units=GPa)
#
#
# Indices 1 2 3 4 5 6 
#
# 1 127.3246 81.9965 46.9579 0.0000 -12.7322 0.0000
# 2 81.9965 207.4068 70.8967 0.0000 -7.1199 0.0000
# 3 46.9579 70.8967 144.7446 0.0000 -26.5716 0.0000
# 4 0.0000 0.0000 0.0000 42.6646 0.0000 -19.2428
# 5 -12.7322 -7.1199 -26.5716 0.0000 30.9212 0.0000
# 6 0.0000 0.0000 0.0000 -19.2428 0.0000 45.5258
#
#
#
# Elastic Compliance Matrix: (Units=1/GPa)
#
#
# Indices 1 2 3 4 5 6 
#
# 1 0.011052 -0.003865 -0.001211 0.000000 0.002620 0.000000
# 2 -0.003865 0.007188 -0.002677 0.000000 -0.002237 0.000000
# 3 -0.001211 -0.002677 0.009983 0.000000 0.007464 0.000000
# 4 0.000000 0.000000 0.000000 0.028959 0.000000 0.012241
# 5 0.002620 -0.002237 0.007464 0.000000 0.039318 0.000000
# 6 0.000000 0.000000 0.000000 0.012241 0.000000 0.027139
#
#
# Mechanical properties :
#
#
# Convention : Reuss Voigt Hill
#
# Bulk Modulus (GPa) = 78.64662 97.68648 88.16655
# Shear Modulus (GPa) = 34.87090 42.46395 38.66742
#
# Velocity S-wave (km/s) = 3.82420 4.22007 4.02700
# Velocity P-wave (km/s) = 7.24451 8.04450 7.65497
#
# Compressibility (1/GPa) = 0.01271511
#
# Stress axis : x y z
#
# Youngs Moduli (GPa) = 90.48240 139.12130 100.16762
#
# Poissons Ratio (x) = 0.53774 0.12133
# Poissons Ratio (y) = 0.34974 0.26819
# Poissons Ratio (z) = 0.10960 0.37249
#
# Static dielectric constant tensor:
#      x y z
#    x 2.031400 0.000000 0.008720 
#    y 0.000000 1.912220 0.000000 
#    z 0.008720 0.000000 1.952060 
# 
# From -- ./inp_files/60052.got.cif
#   From: 2010.05.17/outbox.cif.g08.bks.cpg/sg15_31_cif.got.tgz:60052.got - 2010.06.03 18:47:42.
