data_PCOD9292138
_publ_section_title
;
Structure prediction by ZEFSAII (Michael W. Deem and Ramdas Pophale) SiO2 
 PCOD9292138
Probable space group: C 2/C
;
_chemical_formula_sum "Si O2"
_cell_formula_units_Z 32
_cell_length_a 13.811830
_cell_length_b 7.453851
_cell_length_c 11.822987
_cell_angle_alpha 90.000000
_cell_angle_beta 101.451543
_cell_angle_gamma 90.000000
_cell_volume 1192.961467
_symmetry_space_group_name_H-M "C 2/C"
_symmetry_group_IT_number 15
_symmetry_cell_setting 'monoclinic'
loop_
_space_group_symop_operation_xyz
x,y,z
-x,y,1/2-z
-x,-y,-z
x,-y,1/2+z
1/2+x,1/2+y,z
1/2-x,1/2+y,1/2-z
1/2-x,1/2-y,-z
1/2+x,1/2-y,1/2+z
loop_
_atom_site_type_symbol
_atom_site_label
_atom_site_fract_x
_atom_site_fract_y
_atom_site_fract_z
Si Si1 0.323404 0.859278 0.640622
Si Si2 0.850057 0.739303 0.757181
Si Si3 0.483029 0.785156 0.505170
Si Si4 0.829100 0.908504 0.526427
O O1 0.260982 0.752936 0.719243
O O2 0.086754 0.736256 0.402183
O O3 0.364041 0.042150 0.707315
O O4 0.239802 0.930239 0.532282
O O5 0.923906 0.761521 0.877721
O O6 0.862010 0.889489 0.664077
O O7 0.579326 0.660202 0.527801
O O8 0.500000 0.000000 0.500000
O O9 0.750000 0.750000 0.500000
#
# Coordination Sequence:
#
# PCOD9292138 Si02
#       4
#     8   8   8   8
#     4  11  25  45  72 103 145 184 236 292 354 420
#     4  11  24  43  70 103 140 185 233 290 358 417
#     4  12  23  42  72 100 134 186 236 286 353 419
#     4  10  22  43  67 100 139 178 233 290 337 419
#
# _framework density 26.824002
#
# number of rings (size 3 to 8) (size 9 to 14) (size 15 to 20)
#    0.000    1.000    5.000    3.000    3.500    1.000 
#    0.000    2.500    0.000    0.000    0.000    0.000 
#    0.000    0.000    0.000    0.000    0.000    0.000 
#
# Total GULP energy -89706.535739 kJ/mol
# GULP energy per Si atom -5606.658484 kJ/mol
# Density = 2.676295 g / cm^3
# Si number density = 26.824002 Si / 1000 Ang^3
#
#
#
# Elastic Constant Matrix: (Units=GPa)
#
#
# Indices 1 2 3 4 5 6 
#
# 1 233.4543 59.4129 61.1467 0.0000 -37.7966 0.0000
# 2 59.4129 112.1309 41.3162 0.0000 -4.2272 0.0000
# 3 61.1467 41.3162 113.8773 0.0000 -14.3807 0.0000
# 4 0.0000 0.0000 0.0000 30.5883 0.0000 -8.3973
# 5 -37.7966 -4.2272 -14.3807 0.0000 48.0521 0.0000
# 6 0.0000 0.0000 0.0000 -8.3973 0.0000 64.6144
#
#
#
# Elastic Compliance Matrix: (Units=1/GPa)
#
#
# Indices 1 2 3 4 5 6 
#
# 1 0.006014 -0.002345 -0.001878 0.000000 0.003962 0.000000
# 2 -0.002345 0.011211 -0.003031 0.000000 -0.001765 0.000000
# 3 -0.001878 -0.003031 0.011088 0.000000 0.001575 0.000000
# 4 0.000000 0.000000 0.000000 0.033902 0.000000 0.004406
# 5 0.003962 -0.001765 0.001575 0.000000 0.024243 0.000000
# 6 0.000000 0.000000 0.000000 0.004406 0.000000 0.016049
#
#
# Mechanical properties :
#
#
# Convention : Reuss Voigt Hill
#
# Bulk Modulus (GPa) = 72.43983 87.02380 79.73181
# Shear Modulus (GPa) = 41.11278 48.49007 44.80142
#
# Velocity S-wave (km/s) = 3.91920 4.25633 4.09124
# Velocity P-wave (km/s) = 6.89525 7.52782 7.21847
#
# Compressibility (1/GPa) = 0.01380456
#
# Stress axis : x y z
#
# Youngs Moduli (GPa) = 166.29033 89.19789 90.18465
#
# Poissons Ratio (x) = 0.20917 0.16936
# Poissons Ratio (y) = 0.38995 0.27338
# Poissons Ratio (z) = 0.31228 0.27038
#
# Static dielectric constant tensor:
#      x y z
#    x 2.079320 0.000000 -0.020590 
#    y 0.000000 2.324370 0.000000 
#    z -0.020590 0.000000 2.135010 
# 
# From -- ./inp_files/149956.got.cif
#   From: 2010.05.17/outbox.cif.g08.bks.cpg/sg15_75_cif.got.tgz:149956.got - 2010.06.03 18:47:42.
