data_PCOD9292788
_publ_section_title
;
Structure prediction by ZEFSAII (Michael W. Deem and Ramdas Pophale) SiO2 
 PCOD9292788
Probable space group: C 2/C
;
_chemical_formula_sum "Si O2"
_cell_formula_units_Z 40
_cell_length_a 15.134577
_cell_length_b 8.257172
_cell_length_c 31.515352
_cell_angle_alpha 90.000000
_cell_angle_beta 27.034255
_cell_angle_gamma 90.000000
_cell_volume 1790.110162
_symmetry_space_group_name_H-M "C 2/C"
_symmetry_group_IT_number 15
_symmetry_cell_setting 'monoclinic'
loop_
_space_group_symop_operation_xyz
x,y,z
-x,y,1/2-z
-x,-y,-z
x,-y,1/2+z
1/2+x,1/2+y,z
1/2-x,1/2+y,1/2-z
1/2-x,1/2-y,-z
1/2+x,1/2-y,1/2+z
loop_
_atom_site_type_symbol
_atom_site_label
_atom_site_fract_x
_atom_site_fract_y
_atom_site_fract_z
Si Si1 0.852288 0.274768 0.153295
Si Si2 0.250000 0.250000 0.000000
Si Si3 0.226319 0.532259 0.894516
Si Si4 0.354906 0.616010 0.926887
Si Si5 0.199968 0.435105 0.240344
Si Si6 0.500000 0.747288 0.250000
O O1 0.756791 0.384969 0.158862
O O2 0.918515 0.373227 0.167663
O O3 0.061869 0.213608 0.048349
O O4 0.719442 0.125628 0.224311
O O5 0.220822 0.066107 0.032633
O O6 0.311943 0.641933 0.895509
O O7 0.349281 0.368241 0.838786
O O8 0.000000 0.500000 0.000000
O O9 0.581873 0.618535 0.841304
O O10 0.250000 0.750000 0.000000
O O11 0.113647 0.351796 0.236029
#
# Coordination Sequence:
#
# PCOD9292788 Si02
#       6
#     8   4   8   8   8   4
#     4  11  24  46  71 104 142 187 239 299 369 438
#     4  10  22  44  68 102 140 180 234 296 356 428
#     4  12  24  46  75 106 144 194 244 305 370 440
#     4  11  24  45  70 104 143 190 240 301 367 439
#     4  11  26  44  71 104 143 190 240 302 367 440
#     4  12  26  48  70 108 148 190 248 310 366 444
#
# _framework density 22.344992000000001
#
# number of rings (size 3 to 8) (size 9 to 14) (size 15 to 20)
#    0.000    0.800    2.000    6.000    2.800    2.400 
#    3.600    3.000    0.000    0.000    0.000    0.000 
#    0.000    0.000    0.000    0.000    0.000    0.000 
#
# Total GULP energy -111401.261073 kJ/mol
# GULP energy per Si atom -5570.063054 kJ/mol
# Density = 2.229413 g / cm^3
# Si number density = 22.344992 Si / 1000 Ang^3
#
#
#
# Elastic Constant Matrix: (Units=GPa)
#
#
# Indices 1 2 3 4 5 6 
#
# 1 176.6065 44.4437 25.5078 0.0082 8.5938 0.0083
# 2 44.4437 101.9643 10.2259 -0.0017 12.1906 0.0086
# 3 25.5078 10.2259 54.4323 -0.0372 -2.6096 0.0065
# 4 0.0082 -0.0017 -0.0372 20.7634 0.0068 7.0327
# 5 8.5938 12.1906 -2.6096 0.0068 38.4125 -0.0022
# 6 0.0083 0.0086 0.0065 7.0327 -0.0022 43.8923
#
#
#
# Elastic Compliance Matrix: (Units=1/GPa)
#
#
# Indices 1 2 3 4 5 6 
#
# 1 0.006743 -0.002561 -0.002721 -0.000008 -0.000881 0.000001
# 2 -0.002561 0.011406 -0.001092 0.000002 -0.003121 -0.000002
# 3 -0.002721 -0.001092 0.019963 0.000039 0.002312 -0.000008
# 4 -0.000008 0.000002 0.000039 0.050925 -0.000006 -0.008160
# 5 -0.000881 -0.003121 0.002312 -0.000006 0.027378 0.000003
# 6 0.000001 -0.000002 -0.000008 -0.008160 0.000003 0.024090
#
#
# Mechanical properties :
#
#
# Convention : Reuss Voigt Hill
#
# Bulk Modulus (GPa) = 39.42704 54.81754 47.12229
# Shear Modulus (GPa) = 30.92004 37.46869 34.19437
#
# Velocity S-wave (km/s) = 3.72392 4.09935 3.91614
# Velocity P-wave (km/s) = 6.01441 6.85506 6.44845
#
# Compressibility (1/GPa) = 0.02536330
#
# Stress axis : x y z
#
# Youngs Moduli (GPa) = 148.31162 87.67123 50.09377
#
# Poissons Ratio (x) = 0.22450 0.13630
# Poissons Ratio (y) = 0.37979 0.05473
# Poissons Ratio (z) = 0.40353 0.09578
#
# Static dielectric constant tensor:
#      x y z
#    x 1.816480 -0.000030 0.040420 
#    y -0.000030 1.833660 -0.000230 
#    z 0.040420 -0.000230 2.071590 
# 
# From -- ./inp_files/272967.got.cif
#   From: 2010.05.17/outbox.cif.g08.bks.cpg/sg15_137_cif.got.tgz:272967.got - 2010.06.03 18:47:42.
