data_PCOD9292030
_publ_section_title
;
Structure prediction by ZEFSAII (Michael W. Deem and Ramdas Pophale) SiO2 
 PCOD9292030
Probable space group: C 2/C
;
_chemical_formula_sum "Si O2"
_cell_formula_units_Z 56
_cell_length_a 22.747490
_cell_length_b 18.583227
_cell_length_c 19.369700
_cell_angle_alpha 90.000000
_cell_angle_beta 161.609885
_cell_angle_gamma 90.000000
_cell_volume 2583.191922
_symmetry_space_group_name_H-M "C 2/C"
_symmetry_group_IT_number 15
_symmetry_cell_setting 'monoclinic'
loop_
_space_group_symop_operation_xyz
x,y,z
-x,y,1/2-z
-x,-y,-z
x,-y,1/2+z
1/2+x,1/2+y,z
1/2-x,1/2+y,1/2-z
1/2-x,1/2-y,-z
1/2+x,1/2-y,1/2+z
loop_
_atom_site_type_symbol
_atom_site_label
_atom_site_fract_x
_atom_site_fract_y
_atom_site_fract_z
Si Si1 0.432652 0.164016 0.059000
Si Si2 0.238292 0.661476 0.776666
Si Si3 0.805660 0.959700 0.573993
Si Si4 0.621964 0.819162 0.535734
Si Si5 0.174147 0.800122 0.478577
Si Si6 0.928342 0.943231 0.861582
Si Si7 0.000000 0.338934 0.250000
Si Si8 0.500000 0.935311 0.750000
O O1 0.655034 0.156480 0.300912
O O2 0.384955 0.115720 0.071152
O O3 0.327940 0.143869 0.874161
O O4 0.392801 0.246080 0.036342
O O5 0.306654 0.744119 0.853677
O O6 0.064379 0.656502 0.633554
O O7 0.400131 0.605757 0.973272
O O8 0.846218 0.977381 0.699948
O O9 0.683232 0.886613 0.435615
O O10 0.000000 0.957574 0.750000
O O11 0.648926 0.016529 0.375562
O O12 0.773059 0.883538 0.711101
O O13 0.566321 0.801531 0.394207
O O14 0.250000 0.750000 0.500000
O O15 0.000000 0.840455 0.250000
O O16 0.000000 0.000000 0.000000
#
# Coordination Sequence:
#
# PCOD9292030 Si02
#       8
#     8   8   8   8   8   8   4   4
#     4  11  21  37  55  88 129 172 209 276 315 386
#     4  12  24  42  66 102 143 173 224 279 342 409
#     4  10  22  43  65  94 123 169 224 275 330 402
#     4  11  24  44  68 105 135 178 225 283 350 405
#     4   9  17  33  52  75 116 162 213 252 315 367
#     4  11  25  46  69  98 139 181 224 277 343 414
#     4   9  22  44  70  92 134 161 218 290 336 405
#     4  11  22  38  60  92 126 167 230 270 320 387
#
# _framework density 21.678605999999998
#
# number of rings (size 3 to 8) (size 9 to 14) (size 15 to 20)
#    0.000    1.429    3.571    2.571    0.000    2.857 
#    1.286    0.000    0.000    0.000    0.000    0.000 
#    0.000    0.000    0.000    0.000    0.000    0.000 
#
# Total GULP energy -156273.466403 kJ/mol
# GULP energy per Si atom -5581.195229 kJ/mol
# Density = 2.162926 g / cm^3
# Si number density = 21.678606 Si / 1000 Ang^3
#
#
#
# Elastic Constant Matrix: (Units=GPa)
#
#
# Indices 1 2 3 4 5 6 
#
# 1 50.3701 12.8282 11.8070 -0.0090 -1.6028 -0.0079
# 2 12.8282 58.8603 25.0951 0.0087 6.5184 0.0026
# 3 11.8070 25.0951 93.9359 0.0129 11.4534 0.0058
# 4 -0.0090 0.0087 0.0129 47.9226 0.0055 9.0553
# 5 -1.6028 6.5184 11.4534 0.0055 57.8147 -0.0017
# 6 -0.0079 0.0026 0.0058 9.0553 -0.0017 26.0505
#
#
#
# Elastic Compliance Matrix: (Units=1/GPa)
#
#
# Indices 1 2 3 4 5 6 
#
# 1 0.021345 -0.004052 -0.001771 0.000004 0.001399 0.000006
# 2 -0.004052 0.020021 -0.004663 -0.000003 -0.001446 -0.000001
# 3 -0.001771 -0.004663 0.012354 -0.000002 -0.001971 -0.000002
# 4 0.000004 -0.000003 -0.000002 0.022334 -0.000001 -0.007763
# 5 0.001399 -0.001446 -0.001971 -0.000001 0.017889 0.000003
# 6 0.000006 -0.000001 -0.000002 -0.007763 0.000003 0.041085
#
#
# Mechanical properties :
#
#
# Convention : Reuss Voigt Hill
#
# Bulk Modulus (GPa) = 30.53640 33.62521 32.08081
# Shear Modulus (GPa) = 29.95534 36.58666 33.27100
#
# Velocity S-wave (km/s) = 3.72128 4.11260 3.92182
# Velocity P-wave (km/s) = 5.70793 6.17218 5.94459
#
# Compressibility (1/GPa) = 0.03274780
#
# Stress axis : x y z
#
# Youngs Moduli (GPa) = 46.85020 49.94856 80.94436
#
# Poissons Ratio (x) = 0.20238 0.14336
# Poissons Ratio (y) = 0.18983 0.37744
# Poissons Ratio (z) = 0.08297 0.23291
#
# Static dielectric constant tensor:
#      x y z
#    x 1.836470 0.000000 -0.041010 
#    y 0.000000 1.790050 0.000000 
#    z -0.041010 0.000000 1.842880 
# 
# From -- ./inp_files/216692.got.cif
#   From: 2010.05.17/outbox.cif.g08.bks.cpg/sg15_109_cif.got.tgz:216692.got - 2010.06.03 18:47:42.
