data_PCOD9292309
_publ_section_title
;
Structure prediction by ZEFSAII (Michael W. Deem and Ramdas Pophale) SiO2 
 PCOD9292309
Probable space group: C 2/C
;
_chemical_formula_sum "Si O2"
_cell_formula_units_Z 24
_cell_length_a 15.300133
_cell_length_b 9.588016
_cell_length_c 9.433323
_cell_angle_alpha 90.000000
_cell_angle_beta 39.049849
_cell_angle_gamma 90.000000
_cell_volume 871.819653
_symmetry_space_group_name_H-M "C 2/C"
_symmetry_group_IT_number 15
_symmetry_cell_setting 'monoclinic'
loop_
_space_group_symop_operation_xyz
x,y,z
-x,y,1/2-z
-x,-y,-z
x,-y,1/2+z
1/2+x,1/2+y,z
1/2-x,1/2+y,1/2-z
1/2-x,1/2-y,-z
1/2+x,1/2-y,1/2+z
loop_
_atom_site_type_symbol
_atom_site_label
_atom_site_fract_x
_atom_site_fract_y
_atom_site_fract_z
Si Si1 0.100535 0.240120 0.757074
Si Si2 0.916177 0.635623 0.707965
Si Si3 0.632436 0.556006 0.185639
O O1 0.250000 0.250000 0.500000
O O2 0.000000 0.235995 0.750000
O O3 0.113660 0.082721 0.803380
O O4 0.037539 0.360762 0.936072
O O5 0.859302 0.794364 0.748865
O O6 0.000000 0.625816 0.750000
O O7 0.774425 0.551771 0.914643
O O8 0.500000 0.564016 0.250000
#
# Coordination Sequence:
#
# PCOD9292309 Si02
#       3
#     8   8   8
#     4  11  26  43  64  99 136 169 219 277 330 391
#     4  10  22  43  69  95 128 174 221 269 331 396
#     4   9  21  42  69  91 129 175 220 264 330 394
#
# _framework density 27.52863
#
# number of rings (size 3 to 8) (size 9 to 14) (size 15 to 20)
#    0.000    2.000    0.000    1.000   14.000    2.667 
#    0.000    0.000    0.000    0.000    0.000    0.000 
#    0.000    0.000    0.000    0.000    0.000    0.000 
#
# Total GULP energy -67048.086918 kJ/mol
# GULP energy per Si atom -5587.340576 kJ/mol
# Density = 2.746597 g / cm^3
# Si number density = 27.528630 Si / 1000 Ang^3
#
#
#
# Elastic Constant Matrix: (Units=GPa)
#
#
# Indices 1 2 3 4 5 6 
#
# 1 109.1601 -10.0519 67.7045 0.0000 -15.5313 0.0000
# 2 -10.0519 56.2585 46.2538 0.0000 -18.5095 0.0000
# 3 67.7045 46.2538 276.5443 0.0000 -37.2929 0.0000
# 4 0.0000 0.0000 0.0000 81.8768 0.0000 13.3034
# 5 -15.5313 -18.5095 -37.2929 0.0000 46.3469 0.0000
# 6 0.0000 0.0000 0.0000 13.3034 0.0000 -10.8387
#
#
#
# Elastic Compliance Matrix: (Units=1/GPa)
#
#
# Indices 1 2 3 4 5 6 
#
# 1 0.012576 0.006523 -0.003646 0.000000 0.003886 0.000000
# 2 0.006523 0.025666 -0.004725 0.000000 0.008634 0.000000
# 3 -0.003646 -0.004725 0.005474 0.000000 0.001295 0.000000
# 4 0.000000 0.000000 0.000000 0.010183 0.000000 0.012498
# 5 0.003886 0.008634 0.001295 0.000000 0.027369 0.000000
# 6 0.000000 0.000000 0.000000 0.012498 0.000000 -0.076922
#
#
# Mechanical properties :
#
#
# Convention : Reuss Voigt Hill
#
# Bulk Modulus (GPa) = 24.98843 72.19729 48.59286
# Shear Modulus (GPa) = 233.83968 46.01410 139.92689
#
# Velocity S-wave (km/s) = 9.22652 4.09283 7.13722
# Velocity P-wave (km/s) = 11.07257 6.97268 9.25257
#
# Compressibility (1/GPa) = 0.04001852
#
# Stress axis : x y z
#
# Youngs Moduli (GPa) = 79.51927 38.96167 182.69212
#
# Poissons Ratio (x) = -0.25414 0.66605
# Poissons Ratio (y) = -0.51868 0.86331
# Poissons Ratio (z) = 0.28991 0.18411
#
# Static dielectric constant tensor:
#      x y z
#    x 2.000080 0.000000 0.081500 
#    y 0.000000 2.394060 0.000000 
#    z 0.081500 0.000000 2.374640 
# 
# From -- ./inp_files/26903.got.cif
#   From: 2010.05.17/outbox.cif.g08.bks.cpg/sg15_14_cif.got.tgz:26903.got - 2010.06.03 18:47:42.
