data_PCOD9292778
_publ_section_title
;
Structure prediction by ZEFSAII (Michael W. Deem and Ramdas Pophale) SiO2 
 PCOD9292778
Probable space group: C 2/C
;
_chemical_formula_sum "Si O2"
_cell_formula_units_Z 40
_cell_length_a 7.826554
_cell_length_b 22.161832
_cell_length_c 8.805691
_cell_angle_alpha 90.000000
_cell_angle_beta 85.303341
_cell_angle_gamma 90.000000
_cell_volume 1522.225322
_symmetry_space_group_name_H-M "C 2/C"
_symmetry_group_IT_number 15
_symmetry_cell_setting 'monoclinic'
loop_
_space_group_symop_operation_xyz
x,y,z
-x,y,1/2-z
-x,-y,-z
x,-y,1/2+z
1/2+x,1/2+y,z
1/2-x,1/2+y,1/2-z
1/2-x,1/2-y,-z
1/2+x,1/2-y,1/2+z
loop_
_atom_site_type_symbol
_atom_site_label
_atom_site_fract_x
_atom_site_fract_y
_atom_site_fract_z
Si Si1 0.238003 0.477626 0.625909
Si Si2 0.931750 0.891096 0.406831
Si Si3 0.646000 0.321200 0.626063
Si Si4 0.128445 0.426794 0.934231
Si Si5 0.194866 0.773812 0.174847
O O1 0.386449 0.441448 0.531557
O O2 0.231485 0.467051 0.804002
O O3 0.199162 0.546345 0.584945
O O4 0.068559 0.441969 0.575572
O O5 0.786201 0.845540 0.353527
O O6 0.000000 0.921416 0.250000
O O7 0.058179 0.840982 0.474657
O O8 0.500000 0.345582 0.750000
O O9 0.820373 0.359286 0.609129
O O10 0.690950 0.256950 0.699401
O O11 0.000000 0.760139 0.250000
O O12 0.250000 0.750000 0.000000
#
# Coordination Sequence:
#
# PCOD9292778 Si02
#       5
#     8   8   8   8   8
#     4  10  22  44  68 100 139 181 228 280 346 412
#     4  11  26  46  67 100 141 178 234 291 342 418
#     4  12  24  44  70 103 137 183 233 281 359 411
#     4  10  23  40  72 100 137 182 227 281 344 418
#     4  11  25  45  73 101 141 186 233 293 349 421
#
# _framework density 26.277317
#
# number of rings (size 3 to 8) (size 9 to 14) (size 15 to 20)
#    0.000    1.200    4.000    0.000    8.400    4.800 
#    0.000    0.000    0.000    0.000    0.000    0.000 
#    0.000    0.000    0.000    0.000    0.000    0.000 
#
# Total GULP energy -111609.017724 kJ/mol
# GULP energy per Si atom -5580.450886 kJ/mol
# Density = 2.621751 g / cm^3
# Si number density = 26.277317 Si / 1000 Ang^3
#
#
#
# Elastic Constant Matrix: (Units=GPa)
#
#
# Indices 1 2 3 4 5 6 
#
# 1 88.2194 20.5570 17.2544 0.0000 -2.4991 0.0000
# 2 20.5570 82.7593 -9.4374 0.0000 5.0143 0.0000
# 3 17.2544 -9.4374 82.1652 0.0000 -3.4664 0.0000
# 4 0.0000 0.0000 0.0000 23.9481 0.0000 -0.1196
# 5 -2.4991 5.0143 -3.4664 0.0000 47.3534 0.0000
# 6 0.0000 0.0000 0.0000 -0.1196 0.0000 41.9119
#
#
#
# Elastic Compliance Matrix: (Units=1/GPa)
#
#
# Indices 1 2 3 4 5 6 
#
# 1 0.012791 -0.003577 -0.003062 0.000000 0.000830 0.000000
# 2 -0.003577 0.013312 0.002219 0.000000 -0.001436 0.000000
# 3 -0.003062 0.002219 0.013092 0.000000 0.000562 0.000000
# 4 0.000000 0.000000 0.000000 0.041758 0.000000 0.000119
# 5 0.000830 -0.001436 0.000562 0.000000 0.021355 0.000000
# 6 0.000000 0.000000 0.000000 0.000119 0.000000 0.023860
#
#
# Mechanical properties :
#
#
# Convention : Reuss Voigt Hill
#
# Bulk Modulus (GPa) = 32.94140 34.43242 33.68691
# Shear Modulus (GPa) = 34.45313 37.62733 36.04023
#
# Velocity S-wave (km/s) = 3.62489 3.78819 3.70744
# Velocity P-wave (km/s) = 5.48480 5.68030 5.58341
#
# Compressibility (1/GPa) = 0.03035694
#
# Stress axis : x y z
#
# Youngs Moduli (GPa) = 78.17880 75.12156 76.38118
#
# Poissons Ratio (x) = 0.26869 0.23387
# Poissons Ratio (y) = 0.27962 -0.16953
# Poissons Ratio (z) = 0.23938 -0.16673
#
# Static dielectric constant tensor:
#      x y z
#    x 2.146720 0.000000 0.048000 
#    y 0.000000 2.067440 0.000000 
#    z 0.048000 0.000000 2.139050 
# 
# From -- ./inp_files/23604.got.cif
#   From: 2010.05.17/outbox.cif.g08.bks.cpg/sg15_12_cif.got.tgz:23604.got - 2010.06.03 18:47:42.
