data_PCOD9292324
_publ_section_title
;
Structure prediction by ZEFSAII (Michael W. Deem and Ramdas Pophale) SiO2 
 PCOD9292324
Probable space group: C 2/C
;
_chemical_formula_sum "Si O2"
_cell_formula_units_Z 60
_cell_length_a 23.546458
_cell_length_b 23.586578
_cell_length_c 9.240149
_cell_angle_alpha 90.000000
_cell_angle_beta 147.811138
_cell_angle_gamma 90.000000
_cell_volume 2733.768854
_symmetry_space_group_name_H-M "C 2/C"
_symmetry_group_IT_number 15
_symmetry_cell_setting 'monoclinic'
loop_
_space_group_symop_operation_xyz
x,y,z
-x,y,1/2-z
-x,-y,-z
x,-y,1/2+z
1/2+x,1/2+y,z
1/2-x,1/2+y,1/2-z
1/2-x,1/2-y,-z
1/2+x,1/2-y,1/2+z
loop_
_atom_site_type_symbol
_atom_site_label
_atom_site_fract_x
_atom_site_fract_y
_atom_site_fract_z
Si Si1 0.751656 0.982654 0.969705
Si Si2 0.901509 0.170449 0.648031
Si Si3 0.665106 0.874506 0.632270
Si Si4 0.500000 0.125573 0.250000
Si Si5 0.881946 0.051220 0.015771
Si Si6 0.925525 0.556881 0.819157
Si Si7 0.844769 0.700480 0.105481
Si Si8 0.898614 0.171122 0.966282
O O1 0.676227 0.933952 0.742537
O O2 0.689194 0.028323 0.928936
O O3 0.826461 0.952218 0.242629
O O4 0.816534 0.015674 0.988927
O O5 0.787245 0.143800 0.350723
O O6 0.884889 0.237089 0.650075
O O7 0.925795 0.149113 0.863016
O O8 0.000000 0.162049 0.750000
O O9 0.586272 0.894165 0.331128
O O10 0.636994 0.826257 0.693319
O O11 0.555796 0.088187 0.491006
O O12 0.409417 0.160573 0.136463
O O13 0.000000 0.027957 0.250000
O O14 0.886466 0.118520 0.050822
O O15 0.000000 0.500000 0.000000
O O16 0.717710 0.698814 0.800835
O O17 0.000000 0.205051 0.250000
#
# Coordination Sequence:
#
# PCOD9292324 Si02
#       8
#     8   8   8   4   8   8   8   8
#     4  12  22  43  63 102 141 181 233 285 349 439
#     4  11  24  46  73 105 142 182 245 310 357 428
#     4  11  24  44  71  99 142 196 229 294 361 436
#     4  12  26  44  70 100 142 184 228 308 354 420
#     4  11  23  39  64  97 139 184 227 279 348 427
#     4  12  27  45  70 106 142 188 237 288 359 442
#     4  11  23  48  69 100 143 182 245 298 365 423
#     4  10  22  43  69  97 136 189 230 295 365 424
#
# _framework density 21.947721000000001
#
# number of rings (size 3 to 8) (size 9 to 14) (size 15 to 20)
#    0.000    0.800    4.667    4.400    0.000    5.333 
#    4.800    1.333    0.000    0.000    0.000    0.000 
#    0.000    0.000    0.000    0.000    0.000    0.000 
#
# Total GULP energy -167239.449264 kJ/mol
# GULP energy per Si atom -5574.648309 kJ/mol
# Density = 2.189777 g / cm^3
# Si number density = 21.947721 Si / 1000 Ang^3
#
#
#
# Elastic Constant Matrix: (Units=GPa)
#
#
# Indices 1 2 3 4 5 6 
#
# 1 137.0559 73.5898 57.5039 0.0000 -27.6168 0.0000
# 2 73.5898 169.7068 68.2072 0.0000 -70.6804 0.0000
# 3 57.5039 68.2072 153.3358 0.0000 -61.8987 0.0000
# 4 0.0000 0.0000 0.0000 28.8073 0.0000 2.1594
# 5 -27.6168 -70.6804 -61.8987 0.0000 98.7106 0.0000
# 6 0.0000 0.0000 0.0000 2.1594 0.0000 52.3692
#
#
#
# Elastic Compliance Matrix: (Units=1/GPa)
#
#
# Indices 1 2 3 4 5 6 
#
# 1 0.010295 -0.004099 -0.002758 0.000000 -0.001784 0.000000
# 2 -0.004099 0.010395 -0.000730 0.000000 0.005839 0.000000
# 3 -0.002758 -0.000730 0.009852 0.000000 0.004884 0.000000
# 4 0.000000 0.000000 0.000000 0.034821 0.000000 -0.001436
# 5 -0.001784 0.005839 0.004884 0.000000 0.016875 0.000000
# 6 0.000000 0.000000 0.000000 -0.001436 0.000000 0.019154
#
#
# Mechanical properties :
#
#
# Convention : Reuss Voigt Hill
#
# Bulk Modulus (GPa) = 65.06482 95.41114 80.23798
# Shear Modulus (GPa) = 41.08909 53.36392 47.22650
#
# Velocity S-wave (km/s) = 4.33151 4.93628 4.64375
# Velocity P-wave (km/s) = 7.39768 8.72098 8.08645
#
# Compressibility (1/GPa) = 0.01536929
#
# Stress axis : x y z
#
# Youngs Moduli (GPa) = 97.13891 96.20104 101.50321
#
# Poissons Ratio (x) = 0.39429 0.27990
# Poissons Ratio (y) = 0.39814 0.07408
# Poissons Ratio (z) = 0.26787 0.07021
#
# Static dielectric constant tensor:
#      x y z
#    x 1.847860 0.000000 0.029270 
#    y 0.000000 1.840420 0.000000 
#    z 0.029270 0.000000 1.933810 
# 
# From -- ./inp_files/58790.got.cif
#   From: 2010.05.17/outbox.cif.g08.bks.cpg/sg15_30_cif.got.tgz:58790.got - 2010.06.03 18:47:42.
