data_PCOD9292652
_publ_section_title
;
Structure prediction by ZEFSAII (Michael W. Deem and Ramdas Pophale) SiO2 
 PCOD9292652
Probable space group: C 2/C
;
_chemical_formula_sum "Si O2"
_cell_formula_units_Z 24
_cell_length_a 14.293648
_cell_length_b 14.101274
_cell_length_c 7.645717
_cell_angle_alpha 90.000000
_cell_angle_beta 49.048636
_cell_angle_gamma 90.000000
_cell_volume 1163.910827
_symmetry_space_group_name_H-M "C 2/C"
_symmetry_group_IT_number 15
_symmetry_cell_setting 'monoclinic'
loop_
_space_group_symop_operation_xyz
x,y,z
-x,y,1/2-z
-x,-y,-z
x,-y,1/2+z
1/2+x,1/2+y,z
1/2-x,1/2+y,1/2-z
1/2-x,1/2-y,-z
1/2+x,1/2-y,1/2+z
loop_
_atom_site_type_symbol
_atom_site_label
_atom_site_fract_x
_atom_site_fract_y
_atom_site_fract_z
Si Si1 0.848532 0.103115 0.609924
Si Si2 0.500000 0.755915 0.250000
Si Si3 0.000000 0.064459 0.750000
Si Si4 0.444209 0.100656 0.506971
O O1 0.704212 0.094884 0.821643
O O2 0.885232 0.185923 0.430721
O O3 0.926333 0.120609 0.692100
O O4 0.901596 0.005061 0.465529
O O5 0.522429 0.821959 0.388611
O O6 0.500000 0.000000 0.500000
O O7 0.500000 0.124215 0.250000
#
# Coordination Sequence:
#
# PCOD9292652 Si02
#       4
#     8   4   4   8
#     4  10  22  44  66 101 133 171 229 268 326 400
#     4  11  26  44  67 102 132 176 223 278 324 385
#     4   9  20  40  73  92 132 182 213 274 334 383
#     4  12  25  44  68  99 135 177 217 274 339 390
#
# _framework density 20.620138000000001
#
# number of rings (size 3 to 8) (size 9 to 14) (size 15 to 20)
#    0.000    1.333    1.667    3.000    2.333    1.333 
#   12.000    0.000    0.000    0.000    0.000    0.000 
#    0.000    0.000    0.000    0.000    0.000    0.000 
#
# Total GULP energy -67137.154408 kJ/mol
# GULP energy per Si atom -5594.762867 kJ/mol
# Density = 2.057321 g / cm^3
# Si number density = 20.620138 Si / 1000 Ang^3
#
#
#
# Elastic Constant Matrix: (Units=GPa)
#
#
# Indices 1 2 3 4 5 6 
#
# 1 98.3546 54.4343 79.8859 0.0000 9.7652 0.0000
# 2 54.4343 98.2741 51.4149 0.0000 -1.0420 0.0000
# 3 79.8859 51.4149 192.1325 0.0000 -16.0991 0.0000
# 4 0.0000 0.0000 0.0000 6.4247 0.0000 17.8771
# 5 9.7652 -1.0420 -16.0991 0.0000 50.2407 0.0000
# 6 0.0000 0.0000 0.0000 17.8771 0.0000 26.1871
#
#
#
# Elastic Compliance Matrix: (Units=1/GPa)
#
#
# Indices 1 2 3 4 5 6 
#
# 1 0.021060 -0.007984 -0.007169 0.000000 -0.006556 0.000000
# 2 -0.007984 0.014889 -0.000523 0.000000 0.001693 0.000000
# 3 -0.007169 -0.000523 0.008674 0.000000 0.004162 0.000000
# 4 0.000000 0.000000 0.000000 -0.173027 0.000000 0.118120
# 5 -0.006556 0.001693 0.004162 0.000000 0.022547 0.000000
# 6 0.000000 0.000000 0.000000 0.118120 0.000000 -0.042450
#
#
# Mechanical properties :
#
#
# Convention : Reuss Voigt Hill
#
# Bulk Modulus (GPa) = 75.34971 84.47017 79.90994
# Shear Modulus (GPa) = -44.43299 30.10557 -7.16371
#
# Velocity S-wave (km/s) = -4.64706 3.82515 -1.86592
# Velocity P-wave (km/s) = 2.79779 7.78221 5.84767
#
# Compressibility (1/GPa) = 0.01327145
#
# Stress axis : x y z
#
# Youngs Moduli (GPa) = 47.48344 67.16146 115.28251
#
# Poissons Ratio (x) = 0.53621 0.82649
# Poissons Ratio (y) = 0.37910 0.06029
# Poissons Ratio (z) = 0.34042 0.03513
#
# Static dielectric constant tensor:
#      x y z
#    x 1.726070 0.000000 0.031920 
#    y 0.000000 1.716940 0.000000 
#    z 0.031920 0.000000 1.712260 
# 
# From -- ./inp_files/26967.got.cif
#   From: 2010.05.17/outbox.cif.g08.bks.cpg/sg15_14_cif.got.tgz:26967.got - 2010.06.03 18:47:42.
