data_PCOD9292849
_publ_section_title
;
Structure prediction by ZEFSAII (Michael W. Deem and Ramdas Pophale) SiO2 
 PCOD9292849
Probable space group: C 2/C
;
_chemical_formula_sum "Si O2"
_cell_formula_units_Z 52
_cell_length_a 10.122726
_cell_length_b 25.227037
_cell_length_c 9.309563
_cell_angle_alpha 90.000000
_cell_angle_beta 83.684984
_cell_angle_gamma 90.000000
_cell_volume 2362.924063
_symmetry_space_group_name_H-M "C 2/C"
_symmetry_group_IT_number 15
_symmetry_cell_setting 'monoclinic'
loop_
_space_group_symop_operation_xyz
x,y,z
-x,y,1/2-z
-x,-y,-z
x,-y,1/2+z
1/2+x,1/2+y,z
1/2-x,1/2+y,1/2-z
1/2-x,1/2-y,-z
1/2+x,1/2-y,1/2+z
loop_
_atom_site_type_symbol
_atom_site_label
_atom_site_fract_x
_atom_site_fract_y
_atom_site_fract_z
Si Si1 0.815942 0.167536 0.779276
Si Si2 0.500000 0.641096 0.250000
Si Si3 0.961132 0.666978 0.524766
Si Si4 0.000000 0.411659 0.250000
Si Si5 0.223127 0.055403 0.162428
Si Si6 0.218157 0.948997 0.314804
Si Si7 0.000000 0.401762 0.750000
Si Si8 0.464981 0.286235 0.029875
O O1 0.674898 0.172866 0.871491
O O2 0.843028 0.105925 0.737340
O O3 0.829995 0.198992 0.628688
O O4 0.919448 0.193457 0.876820
O O5 0.629609 0.603547 0.226280
O O6 0.487685 0.679625 0.386615
O O7 0.042326 0.626434 0.614449
O O8 0.940276 0.636539 0.379098
O O9 0.023509 0.724006 0.495444
O O10 0.129565 0.445596 0.261298
O O11 0.375490 0.066584 0.195922
O O12 0.168512 0.002680 0.247784
O O13 0.214411 0.049591 0.989356
#
# Coordination Sequence:
#
# PCOD9292849 Si02
#       8
#     8   4   8   4   8   8   4   8
#     4  10  23  44  67  97 140 184 231 284 341 420
#     4  12  27  46  66 110 142 180 239 286 332 418
#     4  11  23  42  69 103 136 185 227 284 344 412
#     4  10  22  44  68  98 142 168 228 288 348 408
#     4  12  28  45  72 102 138 182 232 292 346 413
#     4  11  25  46  68  99 136 183 227 288 353 403
#     4  12  25  46  74 108 140 172 239 290 342 418
#     4  11  23  43  69  97 142 189 228 278 347 411
#
# _framework density 22.006630999999999
#
# number of rings (size 3 to 8) (size 9 to 14) (size 15 to 20)
#    0.000    0.923    3.077    3.231    6.462    4.308 
#    0.000    3.077    0.000    0.000    0.000    0.000 
#    0.000    0.000    0.000    0.000    0.000    0.000 
#
# Total GULP energy -145342.816123 kJ/mol
# GULP energy per Si atom -5590.108312 kJ/mol
# Density = 2.195654 g / cm^3
# Si number density = 22.006631 Si / 1000 Ang^3
#
#
#
# Elastic Constant Matrix: (Units=GPa)
#
#
# Indices 1 2 3 4 5 6 
#
# 1 62.7057 10.5103 14.2373 0.0000 -10.1085 0.0000
# 2 10.5103 152.8696 65.5843 0.0000 -3.3838 0.0000
# 3 14.2373 65.5843 149.2003 0.0000 -18.6962 0.0000
# 4 0.0000 0.0000 0.0000 35.5752 0.0000 -2.2561
# 5 -10.1085 -3.3838 -18.6962 0.0000 28.7370 0.0000
# 6 0.0000 0.0000 0.0000 -2.2561 0.0000 20.0019
#
#
#
# Elastic Compliance Matrix: (Units=1/GPa)
#
#
# Indices 1 2 3 4 5 6 
#
# 1 0.017108 -0.000802 -0.000585 0.000000 0.005543 0.000000
# 2 -0.000802 0.008157 -0.003728 0.000000 -0.001747 0.000000
# 3 -0.000585 -0.003728 0.009054 0.000000 0.005246 0.000000
# 4 0.000000 0.000000 0.000000 0.028312 0.000000 0.003193
# 5 0.005543 -0.001747 0.005246 0.000000 0.039955 0.000000
# 6 0.000000 0.000000 0.000000 0.003193 0.000000 0.050355
#
#
# Mechanical properties :
#
#
# Convention : Reuss Voigt Hill
#
# Bulk Modulus (GPa) = 41.51352 60.60435 51.05894
# Shear Modulus (GPa) = 29.20485 35.15907 32.18196
#
# Velocity S-wave (km/s) = 3.64688 4.00141 3.82825
# Velocity P-wave (km/s) = 6.05294 6.99623 6.54161
#
# Compressibility (1/GPa) = 0.02408854
#
# Stress axis : x y z
#
# Youngs Moduli (GPa) = 58.45070 122.58676 110.44340
#
# Poissons Ratio (x) = 0.09837 0.06463
# Poissons Ratio (y) = 0.04691 0.41175
# Poissons Ratio (z) = 0.03421 0.45703
#
# Static dielectric constant tensor:
#      x y z
#    x 1.868690 0.000000 0.011320 
#    y 0.000000 1.772920 0.000000 
#    z 0.011320 0.000000 1.778570 
# 
# From -- ./inp_files/33589.got.cif
#   From: 2010.05.17/outbox.cif.g08.bks.cpg/sg15_17_cif.got.tgz:33589.got - 2010.06.03 18:47:42.
