data_PCOD9292877
_publ_section_title
;
Structure prediction by ZEFSAII (Michael W. Deem and Ramdas Pophale) SiO2 
 PCOD9292877
Probable space group: C 2/C
;
_chemical_formula_sum "Si O2"
_cell_formula_units_Z 60
_cell_length_a 16.523199
_cell_length_b 15.841118
_cell_length_c 11.783677
_cell_angle_alpha 90.000000
_cell_angle_beta 99.834929
_cell_angle_gamma 90.000000
_cell_volume 3039.002214
_symmetry_space_group_name_H-M "C 2/C"
_symmetry_group_IT_number 15
_symmetry_cell_setting 'monoclinic'
loop_
_space_group_symop_operation_xyz
x,y,z
-x,y,1/2-z
-x,-y,-z
x,-y,1/2+z
1/2+x,1/2+y,z
1/2-x,1/2+y,1/2-z
1/2-x,1/2-y,-z
1/2+x,1/2-y,1/2+z
loop_
_atom_site_type_symbol
_atom_site_label
_atom_site_fract_x
_atom_site_fract_y
_atom_site_fract_z
Si Si1 0.630919 0.083102 0.789782
Si Si2 0.746227 0.923889 0.111504
Si Si3 0.982594 0.729984 0.633228
Si Si4 0.500000 0.947770 0.750000
Si Si5 0.092315 0.661694 0.461638
Si Si6 0.275357 0.103949 0.474400
Si Si7 0.146200 0.777500 0.072464
Si Si8 0.592601 0.328414 0.307838
O O1 0.703579 0.101131 0.720354
O O2 0.577803 0.162955 0.818753
O O3 0.572873 0.009932 0.727835
O O4 0.669254 0.057246 0.918675
O O5 0.839690 0.892388 0.126638
O O6 0.750234 0.025768 0.108271
O O7 0.682106 0.879179 0.007545
O O8 0.933586 0.779748 0.525956
O O9 0.000000 0.785424 0.750000
O O10 0.050331 0.680077 0.574557
O O11 0.464919 0.895386 0.634877
O O12 0.093331 0.750057 0.394829
O O13 0.207800 0.156387 0.528961
O O14 0.322545 0.180415 0.424642
O O15 0.128484 0.797948 0.196655
O O16 0.500000 0.356358 0.250000
#
# Coordination Sequence:
#
# PCOD9292877 Si02
#       8
#     8   8   8   4   8   8   8   8
#     4  11  22  36  61  96 137 164 203 271 330 400
#     4  12  25  41  66  98 133 170 219 275 331 385
#     4  11  21  39  62  96 132 173 212 266 331 397
#     4  12  22  36  62 102 132 168 206 262 344 406
#     4  12  24  39  65  99 137 174 213 266 340 401
#     4  10  23  41  67  95 125 176 223 266 323 396
#     4  10  22  44  69  92 130 174 221 269 331 388
#     4  12  25  46  66  93 133 177 225 277 326 385
#
# _framework density 19.743323
#
# number of rings (size 3 to 8) (size 9 to 14) (size 15 to 20)
#    0.000    0.800    6.667    0.400    5.600    1.067 
#    0.000    2.667    0.000    0.000    0.000    0.000 
#    0.000    0.000    0.000    0.000    0.000    0.000 
#
# Total GULP energy -167130.989516 kJ/mol
# GULP energy per Si atom -5571.032984 kJ/mol
# Density = 1.969839 g / cm^3
# Si number density = 19.743323 Si / 1000 Ang^3
#
#
#
# Elastic Constant Matrix: (Units=GPa)
#
#
# Indices 1 2 3 4 5 6 
#
# 1 89.1066 29.4055 13.1726 0.0000 17.3007 0.0000
# 2 29.4055 46.7223 7.9360 0.0000 18.7567 0.0000
# 3 13.1726 7.9360 81.3085 0.0000 7.8325 0.0000
# 4 0.0000 0.0000 0.0000 4.0542 0.0000 3.5085
# 5 17.3007 18.7567 7.8325 0.0000 31.3701 0.0000
# 6 0.0000 0.0000 0.0000 3.5085 0.0000 10.5142
#
#
#
# Elastic Compliance Matrix: (Units=1/GPa)
#
#
# Indices 1 2 3 4 5 6 
#
# 1 0.014557 -0.007695 -0.001309 0.000000 -0.003101 0.000000
# 2 -0.007695 0.032337 -0.000467 0.000000 -0.014974 0.000000
# 3 -0.001309 -0.000467 0.012767 0.000000 -0.002187 0.000000
# 4 0.000000 0.000000 0.000000 0.346813 0.000000 -0.115730
# 5 -0.003101 -0.014974 -0.002187 0.000000 0.043087 0.000000
# 6 0.000000 0.000000 0.000000 -0.115730 0.000000 0.133728
#
#
# Mechanical properties :
#
#
# Convention : Reuss Voigt Hill
#
# Bulk Modulus (GPa) = 24.55796 35.35175 29.95486
# Shear Modulus (GPa) = 8.11947 20.29591 14.20769
#
# Velocity S-wave (km/s) = 2.03013 3.20970 2.68548
# Velocity P-wave (km/s) = 4.23803 5.62857 4.98205
#
# Compressibility (1/GPa) = 0.04072000
#
# Stress axis : x y z
#
# Youngs Moduli (GPa) = 68.69386 30.92462 78.32647
#
# Poissons Ratio (x) = 0.23796 0.10250
# Poissons Ratio (y) = 0.52859 0.03659
# Poissons Ratio (z) = 0.08990 0.01444
#
# Static dielectric constant tensor:
#      x y z
#    x 1.781110 0.000000 0.084280 
#    y 0.000000 1.694670 0.000000 
#    z 0.084280 0.000000 1.797190 
# 
# From -- ./inp_files/105386.got.cif
#   From: 2010.05.17/outbox.cif.g08.bks.cpg/sg15_53_cif.got.tgz:105386.got - 2010.06.03 18:47:42.
