data_PCOD9292717
_publ_section_title
;
Structure prediction by ZEFSAII (Michael W. Deem and Ramdas Pophale) SiO2 
 PCOD9292717
Probable space group: C 2/C
;
_chemical_formula_sum "Si O2"
_cell_formula_units_Z 36
_cell_length_a 8.653242
_cell_length_b 21.624719
_cell_length_c 12.011382
_cell_angle_alpha 90.000000
_cell_angle_beta 132.012593
_cell_angle_gamma 90.000000
_cell_volume 1669.974325
_symmetry_space_group_name_H-M "C 2/C"
_symmetry_group_IT_number 15
_symmetry_cell_setting 'monoclinic'
loop_
_space_group_symop_operation_xyz
x,y,z
-x,y,1/2-z
-x,-y,-z
x,-y,1/2+z
1/2+x,1/2+y,z
1/2-x,1/2+y,1/2-z
1/2-x,1/2-y,-z
1/2+x,1/2-y,1/2+z
loop_
_atom_site_type_symbol
_atom_site_label
_atom_site_fract_x
_atom_site_fract_y
_atom_site_fract_z
Si Si1 0.000000 0.001474 0.250000
Si Si2 0.425082 0.804530 0.841130
Si Si3 0.697658 0.614250 0.911704
Si Si4 0.237585 0.297910 0.394022
Si Si5 0.064313 0.105715 0.102729
O O1 0.962352 0.044268 0.338623
O O2 0.196110 0.954528 0.357617
O O3 0.500000 0.799278 0.750000
O O4 0.369208 0.737985 0.863339
O O5 0.219133 0.847119 0.741069
O O6 0.604720 0.840862 0.995733
O O7 0.500000 0.642097 0.750000
O O8 0.652621 0.600613 0.020176
O O9 0.250000 0.250000 0.500000
O O10 0.345222 0.360822 0.481354
O O11 0.000000 0.307283 0.250000
#
# Coordination Sequence:
#
# PCOD9292717 Si02
#       5
#     4   8   8   8   8
#     4  10  22  44  66  98 136 170 230 278 322 396
#     4  10  23  44  67  98 135 176 220 272 339 405
#     4   9  23  40  67  97 129 174 226 272 331 389
#     4  12  25  42  65 101 137 176 217 275 339 400
#     4  11  22  42  67  95 138 175 219 275 335 400
#
# _framework density 21.557219
#
# number of rings (size 3 to 8) (size 9 to 14) (size 15 to 20)
#    0.667    0.889    2.222    2.000    3.111    5.333 
#    0.000    3.333    0.000    0.000    0.000    0.000 
#    0.000    0.000    0.000    0.000    0.000    0.000 
#
# Total GULP energy -100572.266805 kJ/mol
# GULP energy per Si atom -5587.348156 kJ/mol
# Density = 2.150815 g / cm^3
# Si number density = 21.557219 Si / 1000 Ang^3
#
#
#
# Elastic Constant Matrix: (Units=GPa)
#
#
# Indices 1 2 3 4 5 6 
#
# 1 62.6688 39.1710 37.0657 0.0000 -0.0175 0.0000
# 2 39.1710 111.1782 58.6875 0.0000 -3.3304 0.0000
# 3 37.0657 58.6875 162.0317 0.0000 13.6748 0.0000
# 4 0.0000 0.0000 0.0000 34.6698 0.0000 -30.4593
# 5 -0.0175 -3.3304 13.6748 0.0000 26.5631 0.0000
# 6 0.0000 0.0000 0.0000 -30.4593 0.0000 9.3874
#
#
#
# Elastic Compliance Matrix: (Units=1/GPa)
#
#
# Indices 1 2 3 4 5 6 
#
# 1 0.021370 -0.006057 -0.002751 0.000000 0.000671 0.000000
# 2 -0.006057 0.013182 -0.003688 0.000000 0.003547 0.000000
# 3 -0.002751 -0.003688 0.008547 0.000000 -0.004865 0.000000
# 4 0.000000 0.000000 0.000000 -0.015586 0.000000 -0.050571
# 5 0.000671 0.003547 -0.004865 0.000000 0.040596 0.000000
# 6 0.000000 0.000000 0.000000 -0.050571 0.000000 -0.057561
#
#
# Mechanical properties :
#
#
# Convention : Reuss Voigt Hill
#
# Bulk Modulus (GPa) = 55.22897 67.30299 61.26598
# Shear Modulus (GPa) = 120.26039 27.52102 73.89071
#
# Velocity S-wave (km/s) = 7.47715 3.57690 5.86097
# Velocity P-wave (km/s) = 10.01094 6.95323 8.61877
#
# Compressibility (1/GPa) = 0.01810644
#
# Stress axis : x y z
#
# Youngs Moduli (GPa) = 46.79408 75.86278 116.99381
#
# Poissons Ratio (x) = 0.45948 0.32190
# Poissons Ratio (y) = 0.28342 0.43150
# Poissons Ratio (z) = 0.12875 0.27980
#
# Static dielectric constant tensor:
#      x y z
#    x 1.795120 0.000000 -0.025870 
#    y 0.000000 1.765850 0.000000 
#    z -0.025870 0.000000 1.784400 
# 
# From -- ./inp_files/136534.got.cif
#   From: 2010.05.17/outbox.cif.g08.bks.cpg/sg15_69_cif.got.tgz:136534.got - 2010.06.03 18:47:42.
