data_PCOD9292807
_publ_section_title
;
Structure prediction by ZEFSAII (Michael W. Deem and Ramdas Pophale) SiO2 
 PCOD9292807
Probable space group: C 2/C
;
_chemical_formula_sum "Si O2"
_cell_formula_units_Z 52
_cell_length_a 9.298739
_cell_length_b 25.904075
_cell_length_c 18.797888
_cell_angle_alpha 90.000000
_cell_angle_beta 34.232970
_cell_angle_gamma 90.000000
_cell_volume 2547.237550
_symmetry_space_group_name_H-M "C 2/C"
_symmetry_group_IT_number 15
_symmetry_cell_setting 'monoclinic'
loop_
_space_group_symop_operation_xyz
x,y,z
-x,y,1/2-z
-x,-y,-z
x,-y,1/2+z
1/2+x,1/2+y,z
1/2-x,1/2+y,1/2-z
1/2-x,1/2-y,-z
1/2+x,1/2-y,1/2+z
loop_
_atom_site_type_symbol
_atom_site_label
_atom_site_fract_x
_atom_site_fract_y
_atom_site_fract_z
Si Si1 0.381371 0.630531 0.034679
Si Si2 0.846191 0.306419 0.382496
Si Si3 0.519455 0.106784 0.564868
Si Si4 0.408029 0.436809 0.659975
Si Si5 0.750628 0.551335 0.801897
Si Si6 0.941656 0.627604 0.105823
Si Si7 0.000000 0.792351 0.750000
O O1 0.552244 0.679156 0.988810
O O2 0.564338 0.592237 0.915076
O O3 0.314578 0.597891 0.131874
O O4 0.143724 0.643560 0.082672
O O5 0.941386 0.338503 0.410896
O O6 0.000000 0.327551 0.250000
O O7 0.911027 0.246079 0.349901
O O8 0.345584 0.072447 0.687183
O O9 0.425874 0.114889 0.523264
O O10 0.801719 0.081116 0.445045
O O11 0.386980 0.496541 0.649994
O O12 0.219736 0.421542 0.800790
O O13 0.000000 0.544719 0.750000
O O14 0.733352 0.672082 0.177758
#
# Coordination Sequence:
#
# PCOD9292807 Si02
#       7
#     8   8   8   8   8   8   4
#     4  11  22  42  68  94 127 163 219 274 300 382
#     4   9  19  44  69  90 116 166 220 253 314 380
#     4  11  22  43  66  90 136 168 204 271 318 380
#     4  11  24  41  64  92 128 176 219 252 310 386
#     4  12  21  40  68  94 121 177 226 252 314 372
#     4  12  25  42  60  97 137 165 203 269 330 371
#     4  10  22  44  68  88 130 168 214 256 334 384
#
# _framework density 20.414272
#
# number of rings (size 3 to 8) (size 9 to 14) (size 15 to 20)
#    0.462    0.615    6.154    1.846    2.154    2.462 
#    2.769    0.000    3.385    0.000    0.000    0.000 
#    0.000    0.000    0.000    0.000    0.000    0.000 
#
# Total GULP energy -145316.569889 kJ/mol
# GULP energy per Si atom -5589.098842 kJ/mol
# Density = 2.036781 g / cm^3
# Si number density = 20.414272 Si / 1000 Ang^3
#
#
#
# Elastic Constant Matrix: (Units=GPa)
#
#
# Indices 1 2 3 4 5 6 
#
# 1 74.0005 6.6401 9.5823 0.0009 12.4377 -0.0010
# 2 6.6401 70.5161 -0.3831 0.0001 -2.5152 -0.0004
# 3 9.5823 -0.3831 55.6996 0.0025 20.0222 -0.0031
# 4 0.0009 0.0001 0.0025 18.8291 -0.0010 9.5041
# 5 12.4377 -2.5152 20.0222 -0.0010 32.7662 0.0012
# 6 -0.0010 -0.0004 -0.0031 9.5041 0.0012 -3.0385
#
#
#
# Elastic Compliance Matrix: (Units=1/GPa)
#
#
# Indices 1 2 3 4 5 6 
#
# 1 0.014624 -0.001569 -0.000625 0.000001 -0.005290 -0.000003
# 2 -0.001569 0.014395 -0.000311 0.000000 0.001890 0.000000
# 3 -0.000625 -0.000311 0.023044 0.000004 -0.013868 -0.000016
# 4 0.000001 0.000000 0.000004 0.020595 -0.000005 0.064417
# 5 -0.005290 0.001890 -0.013868 -0.000005 0.041146 0.000017
# 6 -0.000003 0.000000 -0.000016 0.064417 0.000017 -0.127620
#
#
# Mechanical properties :
#
#
# Convention : Reuss Voigt Hill
#
# Bulk Modulus (GPa) = 21.25274 25.76610 23.50942
# Shear Modulus (GPa) = 726.99583 22.00315 374.49949
#
# Velocity S-wave (km/s) = 18.89165 3.28660 13.55906
# Velocity P-wave (km/s) = 22.05204 5.20109 16.02098
#
# Compressibility (1/GPa) = 0.04705276
#
# Stress axis : x y z
#
# Youngs Moduli (GPa) = 68.37968 69.47017 43.39551
#
# Poissons Ratio (x) = 0.10901 0.02713
# Poissons Ratio (y) = 0.10730 0.01348
# Poissons Ratio (z) = 0.04275 0.02158
#
# Static dielectric constant tensor:
#      x y z
#    x 1.721760 0.000000 0.029450 
#    y 0.000000 1.701050 0.000000 
#    z 0.029450 0.000000 1.755440 
# 
# From -- ./inp_files/193674.got.cif
#   From: 2010.05.17/outbox.cif.g08.bks.cpg/sg15_97_cif.got.tgz:193674.got - 2010.06.03 18:47:42.
