data_PCOD9292107
_publ_section_title
;
Structure prediction by ZEFSAII (Michael W. Deem and Ramdas Pophale) SiO2 
 PCOD9292107
Probable space group: C 2/C
;
_chemical_formula_sum "Si O2"
_cell_formula_units_Z 40
_cell_length_a 7.995245
_cell_length_b 11.591129
_cell_length_c 18.037851
_cell_angle_alpha 90.000000
_cell_angle_beta 94.435973
_cell_angle_gamma 90.000000
_cell_volume 1666.630712
_symmetry_space_group_name_H-M "C 2/C"
_symmetry_group_IT_number 15
_symmetry_cell_setting 'monoclinic'
loop_
_space_group_symop_operation_xyz
x,y,z
-x,y,1/2-z
-x,-y,-z
x,-y,1/2+z
1/2+x,1/2+y,z
1/2-x,1/2+y,1/2-z
1/2-x,1/2-y,-z
1/2+x,1/2-y,1/2+z
loop_
_atom_site_type_symbol
_atom_site_label
_atom_site_fract_x
_atom_site_fract_y
_atom_site_fract_z
Si Si1 0.186320 0.121611 0.523409
Si Si2 0.356149 0.965186 0.418741
Si Si3 0.927426 0.366057 0.669637
Si Si4 0.498165 0.404220 0.164872
Si Si5 0.367904 0.290539 0.935099
O O1 0.250000 0.250000 0.500000
O O2 0.145791 0.093820 0.607943
O O3 0.007545 0.127344 0.474187
O O4 0.305806 0.022554 0.495129
O O5 0.433600 0.836801 0.414269
O O6 0.174939 0.952930 0.373423
O O7 0.470316 0.059747 0.384803
O O8 0.734758 0.350418 0.635227
O O9 0.000000 0.412505 0.750000
O O10 0.981275 0.233497 0.669774
O O11 0.500000 0.448834 0.250000
O O12 0.250000 0.250000 0.000000
#
# Coordination Sequence:
#
# PCOD9292107 Si02
#       5
#     8   8   8   8   8
#     4  12  23  44  70 100 131 177 227 273 328 399
#     4  11  23  44  67  99 126 177 226 264 339 396
#     4  10  22  44  67  96 141 172 217 283 337 390
#     4  10  22  43  66  95 139 170 218 280 334 391
#     4  11  23  43  65  99 132 173 223 277 327 398
#
# _framework density 24.000518
#
# number of rings (size 3 to 8) (size 9 to 14) (size 15 to 20)
#    0.000    1.200    6.000    0.600    0.000    4.800 
#    3.600    0.000    0.000    0.000    0.000    0.000 
#    0.000    0.000    0.000    0.000    0.000    0.000 
#
# Total GULP energy -111640.191663 kJ/mol
# GULP energy per Si atom -5582.009583 kJ/mol
# Density = 2.394589 g / cm^3
# Si number density = 24.000518 Si / 1000 Ang^3
#
#
#
# Elastic Constant Matrix: (Units=GPa)
#
#
# Indices 1 2 3 4 5 6 
#
# 1 78.7090 40.0210 60.9417 0.0000 1.6912 0.0000
# 2 40.0210 98.8856 29.1896 0.0000 7.0852 0.0000
# 3 60.9417 29.1896 176.1128 0.0000 12.3474 0.0000
# 4 0.0000 0.0000 0.0000 25.7138 0.0000 4.5632
# 5 1.6912 7.0852 12.3474 0.0000 23.3280 0.0000
# 6 0.0000 0.0000 0.0000 4.5632 0.0000 49.6771
#
#
#
# Elastic Compliance Matrix: (Units=1/GPa)
#
#
# Indices 1 2 3 4 5 6 
#
# 1 0.021136 -0.006938 -0.006443 0.000000 0.003985 0.000000
# 2 -0.006938 0.013039 0.000500 0.000000 -0.003722 0.000000
# 3 -0.006443 0.000500 0.008103 0.000000 -0.003974 0.000000
# 4 0.000000 0.000000 0.000000 0.039534 0.000000 -0.003631
# 5 0.003985 -0.003722 -0.003974 0.000000 0.045812 0.000000
# 6 0.000000 0.000000 0.000000 -0.003631 0.000000 0.020464
#
#
# Mechanical properties :
#
#
# Convention : Reuss Voigt Hill
#
# Bulk Modulus (GPa) = 60.54105 68.22355 64.38230
# Shear Modulus (GPa) = 27.87763 34.64747 31.26255
#
# Velocity S-wave (km/s) = 3.41184 3.80361 3.61304
# Velocity P-wave (km/s) = 6.38753 6.91213 6.65500
#
# Compressibility (1/GPa) = 0.01651772
#
# Stress axis : x y z
#
# Youngs Moduli (GPa) = 47.31309 76.69015 123.40369
#
# Poissons Ratio (x) = 0.53205 0.79513
# Poissons Ratio (y) = 0.32824 -0.06176
# Poissons Ratio (z) = 0.30485 -0.03838
#
# Static dielectric constant tensor:
#      x y z
#    x 1.996060 0.000000 0.044790 
#    y 0.000000 1.942170 0.000000 
#    z 0.044790 0.000000 2.065660 
# 
# From -- ./inp_files/187884.got.cif
#   From: 2010.05.17/outbox.cif.g08.bks.cpg/sg15_94_cif.got.tgz:187884.got - 2010.06.03 18:47:42.
