data_PCOD9292588
_publ_section_title
;
Structure prediction by ZEFSAII (Michael W. Deem and Ramdas Pophale) SiO2 
 PCOD9292588
Probable space group: C 2/C
;
_chemical_formula_sum "Si O2"
_cell_formula_units_Z 40
_cell_length_a 9.763429
_cell_length_b 19.664849
_cell_length_c 10.864162
_cell_angle_alpha 90.000000
_cell_angle_beta 103.737070
_cell_angle_gamma 90.000000
_cell_volume 2026.214369
_symmetry_space_group_name_H-M "C 2/C"
_symmetry_group_IT_number 15
_symmetry_cell_setting 'monoclinic'
loop_
_space_group_symop_operation_xyz
x,y,z
-x,y,1/2-z
-x,-y,-z
x,-y,1/2+z
1/2+x,1/2+y,z
1/2-x,1/2+y,1/2-z
1/2-x,1/2-y,-z
1/2+x,1/2-y,1/2+z
loop_
_atom_site_type_symbol
_atom_site_label
_atom_site_fract_x
_atom_site_fract_y
_atom_site_fract_z
Si Si1 0.337977 0.588462 0.731334
Si Si2 0.841395 0.658197 0.264188
Si Si3 0.163389 0.210042 0.586135
Si Si4 0.659861 0.683170 0.005349
Si Si5 0.590713 0.019416 0.140900
O O1 0.500000 0.562515 0.750000
O O2 0.309925 0.635646 0.846884
O O3 0.327917 0.638402 0.613169
O O4 0.220320 0.531407 0.690708
O O5 0.816827 0.734457 0.302864
O O6 0.728963 0.643599 0.134018
O O7 0.846836 0.595953 0.360766
O O8 0.000000 0.660593 0.250000
O O9 0.250000 0.250000 0.500000
O O10 0.001342 0.204447 0.508732
O O11 0.750000 0.750000 0.000000
O O12 0.500000 0.017983 0.250000
O O13 0.500000 0.000000 0.000000
#
# Coordination Sequence:
#
# PCOD9292588 Si02
#       5
#     8   8   8   8   8
#     4  10  22  44  64  91 130 173 209 264 329 385
#     4  11  21  41  65  91 126 167 216 260 320 388
#     4  11  24  38  63  97 127 161 216 271 320 373
#     4  11  20  40  67  88 122 169 212 262 320 382
#     4  11  26  43  69  99 130 175 218 270 324 386
#
# _framework density 19.741247999999999
#
# number of rings (size 3 to 8) (size 9 to 14) (size 15 to 20)
#    0.000    1.200    4.000    3.000    2.800    0.800 
#    3.600    3.000    0.000    0.000    0.000    0.000 
#    0.000    0.000    0.000    0.000    0.000    0.000 
#
# Total GULP energy -111432.911930 kJ/mol
# GULP energy per Si atom -5571.645596 kJ/mol
# Density = 1.969632 g / cm^3
# Si number density = 19.741248 Si / 1000 Ang^3
#
#
#
# Elastic Constant Matrix: (Units=GPa)
#
#
# Indices 1 2 3 4 5 6 
#
# 1 56.1293 19.9210 21.9657 0.0000 1.9584 0.0000
# 2 19.9210 63.4175 2.1020 0.0000 4.5065 0.0000
# 3 21.9657 2.1020 99.9489 0.0000 15.9788 0.0000
# 4 0.0000 0.0000 0.0000 33.5371 0.0000 1.2113
# 5 1.9584 4.5065 15.9788 0.0000 26.7796 0.0000
# 6 0.0000 0.0000 0.0000 1.2113 0.0000 91.4352
#
#
#
# Elastic Compliance Matrix: (Units=1/GPa)
#
#
# Indices 1 2 3 4 5 6 
#
# 1 0.022226 -0.006998 -0.005158 0.000000 0.002630 0.000000
# 2 -0.006998 0.018164 0.001728 0.000000 -0.003576 0.000000
# 3 -0.005158 0.001728 0.012258 0.000000 -0.007227 0.000000
# 4 0.000000 0.000000 0.000000 0.029832 0.000000 -0.000395
# 5 0.002630 -0.003576 -0.007227 0.000000 0.042064 0.000000
# 6 0.000000 0.000000 0.000000 -0.000395 0.000000 0.010942
#
#
# Mechanical properties :
#
#
# Convention : Reuss Voigt Hill
#
# Bulk Modulus (GPa) = 31.45511 34.16367 32.80939
# Shear Modulus (GPa) = 29.95109 42.05083 36.00096
#
# Velocity S-wave (km/s) = 3.89933 4.62031 4.27504
# Velocity P-wave (km/s) = 6.02008 6.76803 6.40498
#
# Compressibility (1/GPa) = 0.03179134
#
# Stress axis : x y z
#
# Youngs Moduli (GPa) = 44.99163 55.05538 81.58079
#
# Poissons Ratio (x) = 0.38526 0.42079
# Poissons Ratio (y) = 0.31484 -0.14093
# Poissons Ratio (z) = 0.23206 -0.09511
#
# Static dielectric constant tensor:
#      x y z
#    x 1.723200 0.000000 -0.022180 
#    y 0.000000 1.644180 0.000000 
#    z -0.022180 0.000000 1.765720 
# 
# From -- ./inp_files/77622.got.cif
#   From: 2010.05.17/outbox.cif.g08.bks.cpg/sg15_39_cif.got.tgz:77622.got - 2010.06.03 18:47:42.
