data_PCOD9292168
_publ_section_title
;
Structure prediction by ZEFSAII (Michael W. Deem and Ramdas Pophale) SiO2 
 PCOD9292168
Probable space group: C 2/C
;
_chemical_formula_sum "Si O2"
_cell_formula_units_Z 48
_cell_length_a 22.672174
_cell_length_b 19.011963
_cell_length_c 8.797849
_cell_angle_alpha 90.000000
_cell_angle_beta 145.693930
_cell_angle_gamma 90.000000
_cell_volume 2137.361914
_symmetry_space_group_name_H-M "C 2/C"
_symmetry_group_IT_number 15
_symmetry_cell_setting 'monoclinic'
loop_
_space_group_symop_operation_xyz
x,y,z
-x,y,1/2-z
-x,-y,-z
x,-y,1/2+z
1/2+x,1/2+y,z
1/2-x,1/2+y,1/2-z
1/2-x,1/2-y,-z
1/2+x,1/2-y,1/2+z
loop_
_atom_site_type_symbol
_atom_site_label
_atom_site_fract_x
_atom_site_fract_y
_atom_site_fract_z
Si Si1 0.330882 0.936221 0.984120
Si Si2 0.305484 0.494306 0.046539
Si Si3 0.000000 0.457230 0.750000
Si Si4 0.000000 0.778085 0.250000
Si Si5 0.869149 0.663642 0.802335
Si Si6 0.069775 0.137287 0.632016
Si Si7 0.344913 0.359573 0.500330
O O1 0.362100 0.859383 0.111650
O O2 0.243410 0.964155 0.915842
O O3 0.426984 0.990740 0.191430
O O4 0.281411 0.942696 0.712194
O O5 0.403111 0.444758 0.288754
O O6 0.327865 0.556202 0.974560
O O7 0.922778 0.405491 0.493859
O O8 0.060662 0.727951 0.496250
O O9 0.075746 0.825490 0.307694
O O10 0.754165 0.673942 0.627663
O O11 0.143385 0.162263 0.650095
O O12 0.952982 0.149549 0.320297
#
# Coordination Sequence:
#
# PCOD9292168 Si02
#       7
#     8   8   4   4   8   8   8
#     4  11  21  37  68 100 132 161 204 266 337 373
#     4  11  21  39  63 105 128 160 206 271 336 376
#     4  11  18  38  66  98 132 157 210 268 334 385
#     4  11  28  44  64  88 130 179 226 250 310 371
#     4  10  23  42  63  93 130 170 208 268 309 381
#     4  11  24  41  64  94 127 175 210 259 317 389
#     4  10  22  43  67  92 132 158 215 269 329 374
#
# _framework density 22.457591000000001
#
# number of rings (size 3 to 8) (size 9 to 14) (size 15 to 20)
#    0.000    1.333    5.000    1.000    4.667    2.667 
#    0.000    1.667    0.000    0.000    0.000    0.000 
#    0.000    0.000    0.000    0.000    0.000    0.000 
#
# Total GULP energy -134040.190158 kJ/mol
# GULP energy per Si atom -5585.007923 kJ/mol
# Density = 2.240648 g / cm^3
# Si number density = 22.457591 Si / 1000 Ang^3
#
#
#
# Elastic Constant Matrix: (Units=GPa)
#
#
# Indices 1 2 3 4 5 6 
#
# 1 61.5744 28.0833 -9.0169 0.0000 7.9243 0.0000
# 2 28.0833 58.0054 -5.1095 0.0000 3.2060 0.0000
# 3 -9.0169 -5.1095 37.9131 0.0000 3.7239 0.0000
# 4 0.0000 0.0000 0.0000 25.3726 0.0000 -12.9928
# 5 7.9243 3.2060 3.7239 0.0000 30.0574 0.0000
# 6 0.0000 0.0000 0.0000 -12.9928 0.0000 20.8991
#
#
#
# Elastic Compliance Matrix: (Units=1/GPa)
#
#
# Indices 1 2 3 4 5 6 
#
# 1 0.022155 -0.010041 0.004438 0.000000 -0.005320 0.000000
# 2 -0.010041 0.022140 0.000575 0.000000 0.000215 0.000000
# 3 0.004438 0.000575 0.027970 0.000000 -0.004697 0.000000
# 4 0.000000 0.000000 0.000000 0.057820 0.000000 0.035946
# 5 -0.005320 0.000215 -0.004697 0.000000 0.035231 0.000000
# 6 0.000000 0.000000 0.000000 0.035946 0.000000 0.070196
#
#
# Mechanical properties :
#
#
# Convention : Reuss Voigt Hill
#
# Bulk Modulus (GPa) = 16.07495 20.60075 18.33785
# Shear Modulus (GPa) = 18.77545 24.83490 21.80518
#
# Velocity S-wave (km/s) = 2.89457 3.32905 3.11939
# Velocity P-wave (km/s) = 4.28309 4.89590 4.59971
#
# Compressibility (1/GPa) = 0.06220857
#
# Stress axis : x y z
#
# Youngs Moduli (GPa) = 45.13703 45.16713 35.75203
#
# Poissons Ratio (x) = 0.45353 -0.15868
# Poissons Ratio (y) = 0.45323 -0.02054
# Poissons Ratio (z) = -0.20033 -0.02595
#
# Static dielectric constant tensor:
#      x y z
#    x 1.832910 0.000000 -0.028380 
#    y 0.000000 1.816790 0.000000 
#    z -0.028380 0.000000 1.895270 
# 
# From -- ./inp_files/63330.got.cif
#   From: 2010.05.17/outbox.cif.g08.bks.cpg/sg15_32_cif.got.tgz:63330.got - 2010.06.03 18:47:42.
