data_PCOD9292953
_publ_section_title
;
Structure prediction by ZEFSAII (Michael W. Deem and Ramdas Pophale) SiO2 
 PCOD9292953
Probable space group: C 2/C
;
_chemical_formula_sum "Si O2"
_cell_formula_units_Z 64
_cell_length_a 17.081154
_cell_length_b 22.494059
_cell_length_c 20.342744
_cell_angle_alpha 90.000000
_cell_angle_beta 157.296021
_cell_angle_gamma 90.000000
_cell_volume 3016.811980
_symmetry_space_group_name_H-M "C 2/C"
_symmetry_group_IT_number 15
_symmetry_cell_setting 'monoclinic'
loop_
_space_group_symop_operation_xyz
x,y,z
-x,y,1/2-z
-x,-y,-z
x,-y,1/2+z
1/2+x,1/2+y,z
1/2-x,1/2+y,1/2-z
1/2-x,1/2-y,-z
1/2+x,1/2-y,1/2+z
loop_
_atom_site_type_symbol
_atom_site_label
_atom_site_fract_x
_atom_site_fract_y
_atom_site_fract_z
Si Si1 0.525665 0.103475 0.874925
Si Si2 0.323198 0.405600 0.162221
Si Si3 0.558119 0.167567 0.555825
Si Si4 0.917652 0.097907 0.963268
Si Si5 0.142001 0.186554 0.422514
Si Si6 0.527578 0.034206 0.194773
Si Si7 0.000807 0.980195 0.412906
Si Si8 0.643839 0.298378 0.672421
O O1 0.530371 0.125628 0.954386
O O2 0.297324 0.120620 0.677787
O O3 0.538681 0.033184 0.873499
O O4 0.688619 0.136566 0.956834
O O5 0.500000 0.382817 0.250000
O O6 0.235842 0.360971 0.149687
O O7 0.436084 0.458317 0.291076
O O8 0.122749 0.426755 0.966647
O O9 0.626535 0.229774 0.640836
O O10 0.370892 0.183762 0.364291
O O11 0.053905 0.154168 0.051147
O O12 0.016509 0.051039 0.090718
O O13 0.867487 0.056908 0.861343
O O14 0.250000 0.250000 0.500000
O O15 0.000000 0.178892 0.250000
O O16 0.998236 0.188702 0.374494
O O17 0.500000 0.047703 0.250000
O O18 0.773635 0.036151 0.384700
#
# Coordination Sequence:
#
# PCOD9292953 Si02
#       8
#     8   8   8   8   8   8   8   8
#     4  11  24  40  64 103 145 184 233 276 340 432
#     4  12  26  47  78 100 142 179 239 304 366 418
#     4  12  26  47  68 104 133 192 236 289 351 419
#     4  10  23  42  70 100 142 186 230 290 344 423
#     4  12  25  39  61  97 140 189 232 270 337 411
#     4  11  25  43  68 109 145 184 232 295 359 426
#     4  10  22  44  70 107 140 185 232 287 364 415
#     4  12  25  44  69  95 144 185 237 286 342 415
#
# _framework density 21.214447
#
# number of rings (size 3 to 8) (size 9 to 14) (size 15 to 20)
#    0.000    0.750    5.000    1.500    7.000    1.000 
#    0.000    0.625    0.000    0.000    0.000    0.000 
#    0.000    0.000    0.000    0.000    0.000    0.000 
#
# Total GULP energy -178656.470310 kJ/mol
# GULP energy per Si atom -5583.014697 kJ/mol
# Density = 2.116616 g / cm^3
# Si number density = 21.214447 Si / 1000 Ang^3
#
#
#
# Elastic Constant Matrix: (Units=GPa)
#
#
# Indices 1 2 3 4 5 6 
#
# 1 99.5824 27.3780 27.5431 -0.0002 2.0929 -0.0036
# 2 27.3780 75.3863 39.7217 0.0502 -2.0014 -0.0072
# 3 27.5431 39.7217 108.0861 0.1022 2.2838 0.0347
# 4 -0.0002 0.0502 0.1022 26.5888 -0.0099 8.5097
# 5 2.0929 -2.0014 2.2838 -0.0099 33.2549 -0.0212
# 6 -0.0036 -0.0072 0.0347 8.5097 -0.0212 27.7028
#
#
#
# Elastic Compliance Matrix: (Units=1/GPa)
#
#
# Indices 1 2 3 4 5 6 
#
# 1 0.011428 -0.003282 -0.001689 0.000013 -0.000801 -0.000002
# 2 -0.003282 0.017459 -0.005615 -0.000016 0.001643 0.000017
# 3 -0.001689 -0.005615 0.011768 -0.000033 -0.001040 -0.000007
# 4 0.000013 -0.000016 -0.000033 0.041711 0.000005 -0.012813
# 5 -0.000801 0.001643 -0.001040 0.000005 0.030291 0.000023
# 6 -0.000002 0.000017 -0.000007 -0.012813 0.000023 0.040033
#
#
# Mechanical properties :
#
#
# Convention : Reuss Voigt Hill
#
# Bulk Modulus (GPa) = 51.32466 52.48227 51.90347
# Shear Modulus (GPa) = 27.72303 30.07011 28.89657
#
# Velocity S-wave (km/s) = 3.61889 3.76897 3.69469
# Velocity P-wave (km/s) = 6.45814 6.61308 6.53607
#
# Compressibility (1/GPa) = 0.01948381
#
# Stress axis : x y z
#
# Youngs Moduli (GPa) = 87.50297 57.27779 84.97810
#
# Poissons Ratio (x) = 0.18796 0.14356
# Poissons Ratio (y) = 0.28714 0.47712
# Poissons Ratio (z) = 0.14782 0.32159
#
# Static dielectric constant tensor:
#      x y z
#    x 1.879410 -0.000030 -0.021800 
#    y -0.000030 1.772270 -0.000010 
#    z -0.021800 -0.000010 1.854280 
# 
# From -- ./inp_files/250279.got.cif
#   From: 2010.05.17/outbox.cif.g08.bks.cpg/sg15_126_cif.got.tgz:250279.got - 2010.06.03 18:47:42.
