data_PCOD9292055
_publ_section_title
;
Structure prediction by ZEFSAII (Michael W. Deem and Ramdas Pophale) SiO2 
 PCOD9292055
Probable space group: C 2/C
;
_chemical_formula_sum "Si O2"
_cell_formula_units_Z 56
_cell_length_a 22.654303
_cell_length_b 22.131570
_cell_length_c 5.098671
_cell_angle_alpha 90.000000
_cell_angle_beta 120.969775
_cell_angle_gamma 90.000000
_cell_volume 2191.911872
_symmetry_space_group_name_H-M "C 2/C"
_symmetry_group_IT_number 15
_symmetry_cell_setting 'monoclinic'
loop_
_space_group_symop_operation_xyz
x,y,z
-x,y,1/2-z
-x,-y,-z
x,-y,1/2+z
1/2+x,1/2+y,z
1/2-x,1/2+y,1/2-z
1/2-x,1/2-y,-z
1/2+x,1/2-y,1/2+z
loop_
_atom_site_type_symbol
_atom_site_label
_atom_site_fract_x
_atom_site_fract_y
_atom_site_fract_z
Si Si1 0.565997 0.770776 0.289318
Si Si2 0.000000 0.828215 0.250000
Si Si3 0.091730 0.040166 0.172907
Si Si4 0.605551 0.347704 0.062688
Si Si5 0.364622 0.874419 0.354282
Si Si6 0.744226 0.034268 0.960370
Si Si7 0.750745 0.295157 0.264249
Si Si8 0.000000 0.544513 0.250000
O O1 0.500000 0.803848 0.250000
O O2 0.595475 0.725120 0.566838
O O3 0.541123 0.718684 0.031781
O O4 0.611954 0.820502 0.275685
O O5 0.939648 0.863233 0.277911
O O6 0.075350 0.104174 0.280791
O O7 0.174893 0.044852 0.327250
O O8 0.072601 0.009830 0.850992
O O9 0.686036 0.341760 0.159277
O O10 0.308078 0.914372 0.076720
O O11 0.318103 0.837068 0.450161
O O12 0.431015 0.913462 0.590216
O O13 0.729032 0.020373 0.623191
O O14 0.750000 0.250000 0.500000
O O15 0.750000 0.250000 0.000000
O O16 0.000000 0.500000 0.500000
#
# Coordination Sequence:
#
# PCOD9292055 Si02
#       8
#     8   4   8   8   8   8   8   4
#     4  10  23  43  70 102 144 193 247 305 387 464
#     4  10  23  44  70  98 148 197 230 306 382 460
#     4  10  23  41  69 101 137 183 236 297 368 446
#     4  11  23  45  71 105 147 193 251 309 390 467
#     4  12  24  47  75 107 151 202 258 324 387 461
#     4  10  22  43  65  97 137 185 236 296 366 430
#     4  12  27  44  72 115 153 194 252 328 397 467
#     4  12  31  52  78 112 158 217 282 332 386 466
#
# _framework density 25.548472
#
# number of rings (size 3 to 8) (size 9 to 14) (size 15 to 20)
#    0.000    1.143    2.857    2.143    3.000    3.429 
#    5.143    0.714    0.000    0.000    0.000    0.000 
#    0.000    0.000    0.000    0.000    0.000    0.000 
#
# Total GULP energy -156007.551993 kJ/mol
# GULP energy per Si atom -5571.698285 kJ/mol
# Density = 2.549032 g / cm^3
# Si number density = 25.548472 Si / 1000 Ang^3
#
#
#
# Elastic Constant Matrix: (Units=GPa)
#
#
# Indices 1 2 3 4 5 6 
#
# 1 195.0315 61.2695 32.7767 0.0000 2.8519 0.0000
# 2 61.2695 129.5918 16.4949 0.0000 7.6652 0.0000
# 3 32.7767 16.4949 59.5945 0.0000 -21.6502 0.0000
# 4 0.0000 0.0000 0.0000 27.1887 0.0000 5.6478
# 5 2.8519 7.6652 -21.6502 0.0000 36.7474 0.0000
# 6 0.0000 0.0000 0.0000 5.6478 0.0000 38.0273
#
#
#
# Elastic Compliance Matrix: (Units=1/GPa)
#
#
# Indices 1 2 3 4 5 6 
#
# 1 0.006570 -0.002505 -0.003709 0.000000 -0.002172 0.000000
# 2 -0.002505 0.009389 -0.002369 0.000000 -0.003160 0.000000
# 3 -0.003709 -0.002369 0.025141 0.000000 0.015594 0.000000
# 4 0.000000 0.000000 0.000000 0.037951 0.000000 -0.005636
# 5 -0.002172 -0.003160 0.015594 0.000000 0.037228 0.000000
# 6 0.000000 0.000000 0.000000 -0.005636 0.000000 0.027134
#
#
# Mechanical properties :
#
#
# Convention : Reuss Voigt Hill
#
# Bulk Modulus (GPa) = 41.78258 67.25556 54.51907
# Shear Modulus (GPa) = 29.66358 38.63778 34.15068
#
# Velocity S-wave (km/s) = 3.41114 3.89309 3.66006
# Velocity P-wave (km/s) = 5.64839 6.82569 6.26476
#
# Compressibility (1/GPa) = 0.02393342
#
# Stress axis : x y z
#
# Youngs Moduli (GPa) = 152.21729 106.50219 39.77593
#
# Poissons Ratio (x) = 0.26683 0.14753
# Poissons Ratio (y) = 0.38137 0.09422
# Poissons Ratio (z) = 0.56457 0.25228
#
# Static dielectric constant tensor:
#      x y z
#    x 2.202710 0.000000 0.069540 
#    y 0.000000 2.270060 0.000000 
#    z 0.069540 0.000000 2.136590 
# 
# From -- ./inp_files/15877.got.cif
#   From: 2010.05.17/outbox.cif.g08.bks.cpg/sg15_8_cif.got.tgz:15877.got - 2010.06.03 18:47:42.
