data_PCOD9292552
_publ_section_title
;
Structure prediction by ZEFSAII (Michael W. Deem and Ramdas Pophale) SiO2 
 PCOD9292552
Probable space group: C 2/C
;
_chemical_formula_sum "Si O2"
_cell_formula_units_Z 56
_cell_length_a 8.612595
_cell_length_b 11.169577
_cell_length_c 31.973896
_cell_angle_alpha 90.000000
_cell_angle_beta 119.114124
_cell_angle_gamma 90.000000
_cell_volume 2687.230618
_symmetry_space_group_name_H-M "C 2/C"
_symmetry_group_IT_number 15
_symmetry_cell_setting 'monoclinic'
loop_
_space_group_symop_operation_xyz
x,y,z
-x,y,1/2-z
-x,-y,-z
x,-y,1/2+z
1/2+x,1/2+y,z
1/2-x,1/2+y,1/2-z
1/2-x,1/2-y,-z
1/2+x,1/2-y,1/2+z
loop_
_atom_site_type_symbol
_atom_site_label
_atom_site_fract_x
_atom_site_fract_y
_atom_site_fract_z
Si Si1 0.107321 0.545209 0.912953
Si Si2 0.474674 0.513624 0.920009
Si Si3 0.500000 0.016284 0.750000
Si Si4 0.633555 0.867754 0.185059
Si Si5 0.858459 0.405389 0.501298
Si Si6 0.000000 0.024496 0.750000
Si Si7 0.870240 0.090257 0.318762
Si Si8 0.039170 0.245607 0.465853
O O1 0.300351 0.574222 0.918037
O O2 0.019378 0.651278 0.928693
O O3 0.969455 0.536080 0.857239
O O4 0.132584 0.435385 0.948372
O O5 0.663224 0.571543 0.956802
O O6 0.448234 0.490079 0.867009
O O7 0.483679 0.382150 0.941857
O O8 0.428257 0.102150 0.776573
O O9 0.340020 0.936137 0.711292
O O10 0.592866 0.730357 0.168652
O O11 0.841315 0.893698 0.212236
O O12 0.000000 0.500000 0.500000
O O13 0.933509 0.280995 0.493794
O O14 0.940979 0.946493 0.782245
O O15 0.250000 0.250000 0.500000
#
# Coordination Sequence:
#
# PCOD9292552 Si02
#       8
#     8   8   4   8   8   4   8   8
#     4  11  23  41  63  95 127 163 209 258 304 378
#     4  12  23  41  64  93 127 166 207 255 316 368
#     4  10  22  44  62  92 122 156 206 264 312 358
#     4  11  22  42  65  90 124 160 208 256 312 368
#     4  10  23  40  63  92 128 163 208 252 305 373
#     4  10  26  40  64  92 124 158 212 264 308 370
#     4  11  23  40  67  89 122 166 204 254 319 369
#     4  11  23  42  65  88 128 173 202 257 312 364
#
# _framework density 20.839299
#
# number of rings (size 3 to 8) (size 9 to 14) (size 15 to 20)
#    0.000    1.143    5.714    1.286    4.000    0.571 
#    0.000    0.000    0.000    0.000    0.000    0.000 
#    0.000    0.000    0.000    0.000    0.000    0.000 
#
# Total GULP energy -156335.539052 kJ/mol
# GULP energy per Si atom -5583.412109 kJ/mol
# Density = 2.079187 g / cm^3
# Si number density = 20.839299 Si / 1000 Ang^3
#
#
#
# Elastic Constant Matrix: (Units=GPa)
#
#
# Indices 1 2 3 4 5 6 
#
# 1 109.3653 18.2800 42.4942 0.0000 7.6461 0.0000
# 2 18.2800 54.1888 17.8107 0.0000 -8.8673 0.0000
# 3 42.4942 17.8107 115.4157 0.0000 11.8197 0.0000
# 4 0.0000 0.0000 0.0000 20.1714 0.0000 0.5331
# 5 7.6461 -8.8673 11.8197 0.0000 27.8368 0.0000
# 6 0.0000 0.0000 0.0000 0.5331 0.0000 19.8840
#
#
#
# Elastic Compliance Matrix: (Units=1/GPa)
#
#
# Indices 1 2 3 4 5 6 
#
# 1 0.011148 -0.003085 -0.003360 0.000000 -0.002618 0.000000
# 2 -0.003085 0.022064 -0.003215 0.000000 0.009241 0.000000
# 3 -0.003360 -0.003215 0.010881 0.000000 -0.004722 0.000000
# 4 0.000000 0.000000 0.000000 0.049610 0.000000 -0.001330
# 5 -0.002618 0.009241 -0.004722 0.000000 0.041591 0.000000
# 6 0.000000 0.000000 0.000000 -0.001330 0.000000 0.050327
#
#
# Mechanical properties :
#
#
# Convention : Reuss Voigt Hill
#
# Bulk Modulus (GPa) = 40.36819 48.45997 44.41408
# Shear Modulus (GPa) = 23.45218 26.93743 25.19481
#
# Velocity S-wave (km/s) = 3.35831 3.59921 3.48085
# Velocity P-wave (km/s) = 5.86949 6.37001 6.12487
#
# Compressibility (1/GPa) = 0.02477198
#
# Stress axis : x y z
#
# Youngs Moduli (GPa) = 89.70260 45.32365 91.90060
#
# Poissons Ratio (x) = 0.13980 0.30882
# Poissons Ratio (y) = 0.27669 0.29551
# Poissons Ratio (z) = 0.30144 0.14574
#
# Static dielectric constant tensor:
#      x y z
#    x 1.779960 0.000000 -0.028680 
#    y 0.000000 1.786290 0.000000 
#    z -0.028680 0.000000 1.839280 
# 
# From -- ./inp_files/287985.got.cif
#   From: 2010.05.17/outbox.cif.g08.bks.cpg/sg15_144_cif.got.tgz:287985.got - 2010.06.03 18:47:42.
