data_PCOD9292497
_publ_section_title
;
Structure prediction by ZEFSAII (Michael W. Deem and Ramdas Pophale) SiO2 
 PCOD9292497
Probable space group: C 2/C
;
_chemical_formula_sum "Si O2"
_cell_formula_units_Z 56
_cell_length_a 24.837403
_cell_length_b 20.612876
_cell_length_c 13.299387
_cell_angle_alpha 90.000000
_cell_angle_beta 159.127182
_cell_angle_gamma 90.000000
_cell_volume 2425.972266
_symmetry_space_group_name_H-M "C 2/C"
_symmetry_group_IT_number 15
_symmetry_cell_setting 'monoclinic'
loop_
_space_group_symop_operation_xyz
x,y,z
-x,y,1/2-z
-x,-y,-z
x,-y,1/2+z
1/2+x,1/2+y,z
1/2-x,1/2+y,1/2-z
1/2-x,1/2-y,-z
1/2+x,1/2-y,1/2+z
loop_
_atom_site_type_symbol
_atom_site_label
_atom_site_fract_x
_atom_site_fract_y
_atom_site_fract_z
Si Si1 0.458941 0.152717 0.326446
Si Si2 0.336662 0.899161 0.031565
Si Si3 0.086617 0.491549 0.025531
Si Si4 0.891675 0.325831 0.935765
Si Si5 0.179373 0.992068 0.891268
Si Si6 0.133259 0.945814 0.109179
Si Si7 0.754687 0.689077 0.779229
O O1 0.505465 0.078043 0.388262
O O2 0.380717 0.161468 0.297701
O O3 0.621554 0.188317 0.594465
O O4 0.352056 0.177348 0.050880
O O5 0.429588 0.836638 0.232257
O O6 0.464027 0.954365 0.283330
O O7 0.307624 0.876579 0.865762
O O8 0.202031 0.926254 0.863786
O O9 0.222945 0.484210 0.183793
O O10 0.821615 0.497691 0.711584
O O11 0.834319 0.255259 0.864397
O O12 0.155652 0.048925 0.769126
O O13 0.027275 0.979600 0.687541
O O14 0.148291 0.874231 0.090491
#
# Coordination Sequence:
#
# PCOD9292497 Si02
#       7
#     8   8   8   8   8   8   8
#     4  10  22  43  73  99 129 181 229 283 348 395
#     4  11  24  41  66 102 133 176 238 277 339 407
#     4  11  22  42  72 101 133 176 229 293 339 410
#     4  11  23  42  64 100 134 177 227 279 332 408
#     4  11  22  42  66 102 140 172 224 293 353 399
#     4  10  23  40  66  99 137 178 223 278 351 415
#     4  10  23  43  65  99 135 178 232 276 334 421
#
# _framework density 23.083528999999999
#
# number of rings (size 3 to 8) (size 9 to 14) (size 15 to 20)
#    0.000    1.429    1.429    3.857    2.000    4.571 
#   10.286    3.571    3.143    0.000    0.000    0.000 
#    0.000    0.000    0.000    0.000    0.000    0.000 
#
# Total GULP energy -156365.448594 kJ/mol
# GULP energy per Si atom -5584.480307 kJ/mol
# Density = 2.303099 g / cm^3
# Si number density = 23.083529 Si / 1000 Ang^3
#
#
#
# Elastic Constant Matrix: (Units=GPa)
#
#
# Indices 1 2 3 4 5 6 
#
# 1 151.3898 31.4900 37.2584 0.0000 4.3400 0.0000
# 2 31.4900 141.3074 49.1523 0.0000 15.2311 0.0000
# 3 37.2584 49.1523 93.7366 0.0000 10.7626 0.0000
# 4 0.0000 0.0000 0.0000 24.2910 0.0000 0.0782
# 5 4.3400 15.2311 10.7626 0.0000 42.2783 0.0000
# 6 0.0000 0.0000 0.0000 0.0782 0.0000 28.5155
#
#
#
# Elastic Compliance Matrix: (Units=1/GPa)
#
#
# Indices 1 2 3 4 5 6 
#
# 1 0.007390 -0.000779 -0.002549 0.000000 0.000171 0.000000
# 2 -0.000779 0.008909 -0.004123 0.000000 -0.002080 0.000000
# 3 -0.002549 -0.004123 0.014053 0.000000 -0.001831 0.000000
# 4 0.000000 0.000000 0.000000 0.041168 0.000000 -0.000113
# 5 0.000171 -0.002080 -0.001831 0.000000 0.024851 0.000000
# 6 0.000000 0.000000 0.000000 -0.000113 0.000000 0.035069
#
#
# Mechanical properties :
#
#
# Convention : Reuss Voigt Hill
#
# Bulk Modulus (GPa) = 64.72021 69.13724 66.92872
# Shear Modulus (GPa) = 33.00544 36.91917 34.96231
#
# Velocity S-wave (km/s) = 3.78541 4.00355 3.89601
# Velocity P-wave (km/s) = 6.87052 7.16849 7.02108
#
# Compressibility (1/GPa) = 0.01545112
#
# Stress axis : x y z
#
# Youngs Moduli (GPa) = 135.32217 112.25042 71.15728
#
# Poissons Ratio (x) = 0.08741 0.18135
# Poissons Ratio (y) = 0.10538 0.29339
# Poissons Ratio (z) = 0.34488 0.46282
#
# Static dielectric constant tensor:
#      x y z
#    x 2.032550 0.000000 0.004890 
#    y 0.000000 1.900350 0.000000 
#    z 0.004890 0.000000 1.902690 
# 
# From -- ./inp_files/225730.got.cif
#   From: 2010.05.17/outbox.cif.g08.bks.cpg/sg15_113_cif.got.tgz:225730.got - 2010.06.03 18:47:42.
