data_PCOD9292603
_publ_section_title
;
Structure prediction by ZEFSAII (Michael W. Deem and Ramdas Pophale) SiO2 
 PCOD9292603
Probable space group: C 2/C
;
_chemical_formula_sum "Si O2"
_cell_formula_units_Z 36
_cell_length_a 27.709382
_cell_length_b 10.206484
_cell_length_c 19.978807
_cell_angle_alpha 90.000000
_cell_angle_beta 162.851463
_cell_angle_gamma 90.000000
_cell_volume 1665.994398
_symmetry_space_group_name_H-M "C 2/C"
_symmetry_group_IT_number 15
_symmetry_cell_setting 'monoclinic'
loop_
_space_group_symop_operation_xyz
x,y,z
-x,y,1/2-z
-x,-y,-z
x,-y,1/2+z
1/2+x,1/2+y,z
1/2-x,1/2+y,1/2-z
1/2-x,1/2-y,-z
1/2+x,1/2-y,1/2+z
loop_
_atom_site_type_symbol
_atom_site_label
_atom_site_fract_x
_atom_site_fract_y
_atom_site_fract_z
Si Si1 0.000000 0.736844 0.750000
Si Si2 0.990929 0.488577 0.810782
Si Si3 0.159984 0.918178 0.197803
Si Si4 0.381545 0.150422 0.298248
Si Si5 0.252808 0.607988 0.832575
O O1 0.073166 0.633612 0.792145
O O2 0.857659 0.822438 0.528500
O O3 0.760121 0.451737 0.672851
O O4 0.000000 0.421257 0.750000
O O5 0.178185 0.506003 0.082140
O O6 0.175237 0.798113 0.269193
O O7 0.904894 0.406074 0.754378
O O8 0.000000 0.000000 0.000000
O O9 0.337412 0.363059 0.373876
O O10 0.561521 0.147719 0.572165
#
# Coordination Sequence:
#
# PCOD9292603 Si02
#       5
#     4   8   8   8   8
#     4  10  22  44  64  98 134 164 228 270 336 382
#     4   9  23  42  65  94 131 172 218 280 322 396
#     4  11  24  41  69  96 133 180 218 271 338 399
#     4  10  23  42  66  96 135 174 221 272 330 397
#     4  10  24  40  67  99 130 174 222 275 326 401
#
# _framework density 21.608716000000001
#
# number of rings (size 3 to 8) (size 9 to 14) (size 15 to 20)
#    0.667    1.333    0.000    1.333   15.556    3.556 
#    2.000    0.000    0.000    0.000    0.000    0.000 
#    0.000    0.000    0.000    0.000    0.000    0.000 
#
# Total GULP energy -100441.394779 kJ/mol
# GULP energy per Si atom -5580.077488 kJ/mol
# Density = 2.155953 g / cm^3
# Si number density = 21.608716 Si / 1000 Ang^3
#
#
#
# Elastic Constant Matrix: (Units=GPa)
#
#
# Indices 1 2 3 4 5 6 
#
# 1 96.7856 39.0161 52.7026 0.0000 -10.4031 0.0000
# 2 39.0161 112.0089 43.6567 0.0000 -6.2049 0.0000
# 3 52.7026 43.6567 61.2643 0.0000 -19.8654 0.0000
# 4 0.0000 0.0000 0.0000 22.5797 0.0000 6.8266
# 5 -10.4031 -6.2049 -19.8654 0.0000 33.7190 0.0000
# 6 0.0000 0.0000 0.0000 6.8266 0.0000 7.3179
#
#
#
# Elastic Compliance Matrix: (Units=1/GPa)
#
#
# Indices 1 2 3 4 5 6 
#
# 1 0.020078 0.000125 -0.018968 0.000000 -0.004958 0.000000
# 2 0.000125 0.012726 -0.010389 0.000000 -0.003740 0.000000
# 3 -0.018968 -0.010389 0.046387 0.000000 0.019565 0.000000
# 4 0.000000 0.000000 0.000000 0.061685 0.000000 -0.057544
# 5 -0.004958 -0.003740 0.019565 0.000000 0.038966 0.000000
# 6 0.000000 0.000000 0.000000 -0.057544 0.000000 0.190332
#
#
# Mechanical properties :
#
#
# Convention : Reuss Voigt Hill
#
# Bulk Modulus (GPa) = 48.24717 60.08996 54.16856
# Shear Modulus (GPa) = 11.47978 21.70222 16.59100
#
# Velocity S-wave (km/s) = 2.30740 3.17255 2.77391
# Velocity P-wave (km/s) = 5.42908 6.42563 5.94826
#
# Compressibility (1/GPa) = 0.02072661
#
# Stress axis : x y z
#
# Youngs Moduli (GPa) = 49.80631 78.57696 21.55753
#
# Poissons Ratio (x) = -0.00981 0.40891
# Poissons Ratio (y) = -0.00622 0.22396
# Poissons Ratio (z) = 0.94475 0.81633
#
# Static dielectric constant tensor:
#      x y z
#    x 1.831790 0.000000 -0.036000 
#    y 0.000000 1.797550 0.000000 
#    z -0.036000 0.000000 1.802460 
# 
# From -- ./inp_files/62331.got.cif
#   From: 2010.05.17/outbox.cif.g08.bks.cpg/sg15_32_cif.got.tgz:62331.got - 2010.06.03 18:47:42.
