data_PCOD9292231
_publ_section_title
;
Structure prediction by ZEFSAII (Michael W. Deem and Ramdas Pophale) SiO2 
 PCOD9292231
Probable space group: C 2/C
;
_chemical_formula_sum "Si O2"
_cell_formula_units_Z 60
_cell_length_a 16.400062
_cell_length_b 17.403842
_cell_length_c 24.121290
_cell_angle_alpha 90.000000
_cell_angle_beta 20.329291
_cell_angle_gamma 90.000000
_cell_volume 2391.882354
_symmetry_space_group_name_H-M "C 2/C"
_symmetry_group_IT_number 15
_symmetry_cell_setting 'monoclinic'
loop_
_space_group_symop_operation_xyz
x,y,z
-x,y,1/2-z
-x,-y,-z
x,-y,1/2+z
1/2+x,1/2+y,z
1/2-x,1/2+y,1/2-z
1/2-x,1/2-y,-z
1/2+x,1/2-y,1/2+z
loop_
_atom_site_type_symbol
_atom_site_label
_atom_site_fract_x
_atom_site_fract_y
_atom_site_fract_z
Si Si1 0.535324 0.987544 0.542819
Si Si2 0.815045 0.948152 0.150793
Si Si3 0.758464 0.283571 0.325537
Si Si4 0.360893 0.187526 0.532804
Si Si5 0.400756 0.208603 0.223592
Si Si6 0.500000 0.920798 0.750000
Si Si7 0.944393 0.191667 0.435728
Si Si8 0.293083 0.042803 0.955283
O O1 0.624430 0.901096 0.489170
O O2 0.500000 0.000000 0.500000
O O3 0.285307 0.008866 0.731109
O O4 0.710591 0.028558 0.475672
O O5 0.865636 0.857506 0.124726
O O6 0.574027 0.135000 0.252944
O O7 0.000000 0.000000 0.000000
O O8 0.590153 0.210809 0.422038
O O9 0.756563 0.292834 0.391848
O O10 0.928219 0.438188 0.229505
O O11 0.398457 0.225710 0.449136
O O12 0.154113 0.219433 0.702210
O O13 0.174849 0.189629 0.328679
O O14 0.291760 0.970047 0.913669
O O15 0.881352 0.110681 0.448682
O O16 0.001727 0.260778 0.357248
#
# Coordination Sequence:
#
# PCOD9292231 Si02
#       8
#     8   8   8   8   8   4   8   8
#     4  10  24  45  73 104 147 198 247 323 388 459
#     4  10  24  43  74 109 140 199 262 316 374 453
#     4  10  23  39  76 108 153 202 257 322 387 484
#     4  10  22  43  68 110 141 196 246 305 398 450
#     4  10  23  41  75 106 151 195 250 323 378 479
#     4  12  22  44  68 120 138 196 258 320 380 446
#     4  10  23  45  71 113 150 205 257 309 407 461
#     4  10  24  43  74 104 155 191 257 316 374 473
#
# _framework density 25.084845999999999
#
# number of rings (size 3 to 8) (size 9 to 14) (size 15 to 20)
#    0.800    1.067    1.333    0.800   14.933    1.600 
#    0.000    1.333    2.933    2.400    0.000    0.000 
#    0.000    0.000    0.000    0.000    0.000    0.000 
#
# Total GULP energy -167418.207706 kJ/mol
# GULP energy per Si atom -5580.606924 kJ/mol
# Density = 2.502775 g / cm^3
# Si number density = 25.084846 Si / 1000 Ang^3
#
#
#
# Elastic Constant Matrix: (Units=GPa)
#
#
# Indices 1 2 3 4 5 6 
#
# 1 120.4405 30.8761 42.0678 -0.0653 39.4622 0.0456
# 2 30.8761 116.1791 58.5306 -0.0473 29.1201 0.0374
# 3 42.0678 58.5306 144.1169 -0.0607 55.4719 0.0710
# 4 -0.0653 -0.0473 -0.0607 36.1967 0.0718 3.7011
# 5 39.4622 29.1201 55.4719 0.0718 57.9993 -0.0349
# 6 0.0456 0.0374 0.0710 3.7011 -0.0349 40.8223
#
#
#
# Elastic Compliance Matrix: (Units=1/GPa)
#
#
# Indices 1 2 3 4 5 6 
#
# 1 0.010826 -0.001140 -0.000130 0.000033 -0.006669 -0.000020
# 2 -0.001140 0.011082 -0.003680 0.000009 -0.001269 -0.000004
# 3 -0.000130 -0.003680 0.012227 0.000038 -0.009759 -0.000030
# 4 0.000033 0.000009 0.000038 0.027886 -0.000099 -0.002528
# 5 -0.006669 -0.001269 -0.009759 -0.000099 0.031750 0.000062
# 6 -0.000020 -0.000004 -0.000030 -0.002528 0.000062 0.024726
#
#
# Mechanical properties :
#
#
# Convention : Reuss Voigt Hill
#
# Bulk Modulus (GPa) = 41.26046 71.52061 56.39054
# Shear Modulus (GPa) = 36.63682 43.62112 40.12897
#
# Velocity S-wave (km/s) = 3.82582 4.17459 4.00400
# Velocity P-wave (km/s) = 5.99999 7.19789 6.62607
#
# Compressibility (1/GPa) = 0.02423628
#
# Stress axis : x y z
#
# Youngs Moduli (GPa) = 92.37336 90.23431 81.78337
#
# Poissons Ratio (x) = 0.10286 0.01064
# Poissons Ratio (y) = 0.10530 0.30092
# Poissons Ratio (z) = 0.01201 0.33202
#
# Static dielectric constant tensor:
#      x y z
#    x 2.098080 -0.000060 -0.056710 
#    y -0.000060 2.095660 0.000040 
#    z -0.056710 0.000040 2.129550 
# 
# From -- ./inp_files/277544.got.cif
#   From: 2010.05.17/outbox.cif.g08.bks.cpg/sg15_139_cif.got.tgz:277544.got - 2010.06.03 18:47:42.
