data_PCOD9292930
_publ_section_title
;
Structure prediction by ZEFSAII (Michael W. Deem and Ramdas Pophale) SiO2 
 PCOD9292930
Probable space group: C 2/C
;
_chemical_formula_sum "Si O2"
_cell_formula_units_Z 60
_cell_length_a 11.709774
_cell_length_b 17.680366
_cell_length_c 14.283048
_cell_angle_alpha 90.000000
_cell_angle_beta 65.590833
_cell_angle_gamma 90.000000
_cell_volume 2692.753991
_symmetry_space_group_name_H-M "C 2/C"
_symmetry_group_IT_number 15
_symmetry_cell_setting 'monoclinic'
loop_
_space_group_symop_operation_xyz
x,y,z
-x,y,1/2-z
-x,-y,-z
x,-y,1/2+z
1/2+x,1/2+y,z
1/2-x,1/2+y,1/2-z
1/2-x,1/2-y,-z
1/2+x,1/2-y,1/2+z
loop_
_atom_site_type_symbol
_atom_site_label
_atom_site_fract_x
_atom_site_fract_y
_atom_site_fract_z
Si Si1 0.356214 0.514253 0.520971
Si Si2 0.143390 0.462614 0.238629
Si Si3 0.088120 0.575166 0.392797
Si Si4 0.634037 0.191469 0.212167
Si Si5 0.809347 0.608340 0.499604
Si Si6 0.162232 0.306320 0.315971
Si Si7 0.000000 0.212641 0.250000
Si Si8 0.777319 0.834427 0.948223
O O1 0.500000 0.500000 0.500000
O O2 0.253034 0.503922 0.638010
O O3 0.306968 0.449534 0.465624
O O4 0.337328 0.600952 0.494326
O O5 0.151692 0.497720 0.339617
O O6 0.168941 0.374272 0.240828
O O7 0.000000 0.472339 0.250000
O O8 0.105514 0.622710 0.291274
O O9 0.151068 0.624214 0.452812
O O10 0.940756 0.562978 0.453942
O O11 0.500000 0.231868 0.250000
O O12 0.686251 0.160863 0.095720
O O13 0.727700 0.246907 0.230954
O O14 0.822370 0.661896 0.585051
O O15 0.037574 0.262280 0.327891
O O16 0.122964 0.169864 0.171610
O O17 0.750000 0.750000 0.000000
#
# Coordination Sequence:
#
# PCOD9292930 Si02
#       8
#     8   8   8   8   8   8   4   8
#     4  12  29  48  72 111 152 191 242 305 377 446
#     4  12  24  46  75 101 140 190 247 298 355 439
#     4  11  22  45  77  95 140 188 253 292 363 422
#     4  10  22  44  70 101 138 193 238 295 367 438
#     4  11  24  46  73 107 136 193 244 305 351 445
#     4  12  25  42  73 107 143 183 247 300 371 435
#     4  12  26  46  72 106 156 188 230 314 390 424
#     4  12  28  47  74 110 146 194 249 307 372 446
#
# _framework density 22.282021
#
# number of rings (size 3 to 8) (size 9 to 14) (size 15 to 20)
#    0.000    0.533    4.667    3.200    5.600    2.133 
#    2.400    0.000    0.000    0.000    0.000    0.000 
#    0.000    0.000    0.000    0.000    0.000    0.000 
#
# Total GULP energy -167544.739497 kJ/mol
# GULP energy per Si atom -5584.824650 kJ/mol
# Density = 2.223131 g / cm^3
# Si number density = 22.282021 Si / 1000 Ang^3
#
#
#
# Elastic Constant Matrix: (Units=GPa)
#
#
# Indices 1 2 3 4 5 6 
#
# 1 175.9977 60.5961 36.8133 0.0000 0.9641 0.0000
# 2 60.5961 92.1468 22.5042 0.0000 0.8389 0.0000
# 3 36.8133 22.5042 85.3951 0.0000 -7.2525 0.0000
# 4 0.0000 0.0000 0.0000 28.4308 0.0000 7.8238
# 5 0.9641 0.8389 -7.2525 0.0000 27.9859 0.0000
# 6 0.0000 0.0000 0.0000 7.8238 0.0000 46.7416
#
#
#
# Elastic Compliance Matrix: (Units=1/GPa)
#
#
# Indices 1 2 3 4 5 6 
#
# 1 0.007701 -0.004524 -0.002187 0.000000 -0.000696 0.000000
# 2 -0.004524 0.014293 -0.001881 0.000000 -0.000760 0.000000
# 3 -0.002187 -0.001881 0.013456 0.000000 0.003619 0.000000
# 4 0.000000 0.000000 0.000000 0.036872 0.000000 -0.006172
# 5 -0.000696 -0.000760 0.003619 0.000000 0.036717 0.000000
# 6 0.000000 0.000000 0.000000 -0.006172 0.000000 0.022427
#
#
# Mechanical properties :
#
#
# Convention : Reuss Voigt Hill
#
# Bulk Modulus (GPa) = 54.74355 65.92965 60.33660
# Shear Modulus (GPa) = 32.31278 36.20671 34.25975
#
# Velocity S-wave (km/s) = 3.81224 4.03541 3.92542
# Velocity P-wave (km/s) = 6.63321 7.16699 6.90526
#
# Compressibility (1/GPa) = 0.01826699
#
# Stress axis : x y z
#
# Youngs Moduli (GPa) = 129.86072 69.96289 74.31593
#
# Poissons Ratio (x) = 0.31648 0.16251
# Poissons Ratio (y) = 0.58743 0.13980
# Poissons Ratio (z) = 0.28397 0.13161
#
# Static dielectric constant tensor:
#      x y z
#    x 1.815070 0.000000 0.026920 
#    y 0.000000 1.863620 0.000000 
#    z 0.026920 0.000000 1.871490 
# 
# From -- ./inp_files/146040.got.cif
#   From: 2010.05.17/outbox.cif.g08.bks.cpg/sg15_74_cif.got.tgz:146040.got - 2010.06.03 18:47:42.
