data_PCOD9292386
_publ_section_title
;
Structure prediction by ZEFSAII (Michael W. Deem and Ramdas Pophale) SiO2 
 PCOD9292386
Probable space group: C 2/C
;
_chemical_formula_sum "Si O2"
_cell_formula_units_Z 48
_cell_length_a 14.423758
_cell_length_b 6.003326
_cell_length_c 23.742667
_cell_angle_alpha 90.000000
_cell_angle_beta 80.640783
_cell_angle_gamma 90.000000
_cell_volume 2028.522252
_symmetry_space_group_name_H-M "C 2/C"
_symmetry_group_IT_number 15
_symmetry_cell_setting 'monoclinic'
loop_
_space_group_symop_operation_xyz
x,y,z
-x,y,1/2-z
-x,-y,-z
x,-y,1/2+z
1/2+x,1/2+y,z
1/2-x,1/2+y,1/2-z
1/2-x,1/2-y,-z
1/2+x,1/2-y,1/2+z
loop_
_atom_site_type_symbol
_atom_site_label
_atom_site_fract_x
_atom_site_fract_y
_atom_site_fract_z
Si Si1 0.321387 0.058653 0.471692
Si Si2 0.011887 0.106987 0.559765
Si Si3 0.252460 0.876067 0.179745
Si Si4 0.933755 0.022032 0.831860
Si Si5 0.871770 0.943882 0.724709
Si Si6 0.693573 0.243304 0.416554
O O1 0.250000 0.250000 0.500000
O O2 0.420852 0.176834 0.450282
O O3 0.327080 0.892970 0.524044
O O4 0.270461 0.927554 0.426014
O O5 0.906591 0.156435 0.588908
O O6 0.060072 0.955785 0.603641
O O7 0.000000 0.000000 0.500000
O O8 0.150231 0.798289 0.166354
O O9 0.223054 0.931848 0.247224
O O10 0.275205 0.078243 0.135923
O O11 0.342113 0.722346 0.178787
O O12 0.903169 0.854946 0.784215
O O13 0.038854 0.087390 0.803118
#
# Coordination Sequence:
#
# PCOD9292386 Si02
#       6
#     8   8   8   8   8   8
#     4  11  24  47  66 104 149 188 236 303 351 443
#     4  12  25  43  73 104 150 191 243 297 368 445
#     4  10  22  43  70  99 130 191 234 301 367 432
#     4   9  23  42  67 104 139 183 237 306 358 433
#     4   9  22  44  70  93 146 179 244 303 363 436
#     4  11  26  41  73 106 143 192 245 285 382 439
#
# _framework density 23.662545999999999
#
# number of rings (size 3 to 8) (size 9 to 14) (size 15 to 20)
#    1.000    0.667    1.667    1.500    7.000    2.667 
#    0.000    0.000    0.000    0.000    0.000    0.000 
#    0.000    0.000    0.000    0.000    0.000    0.000 
#
# Total GULP energy -133623.689123 kJ/mol
# GULP energy per Si atom -5567.653713 kJ/mol
# Density = 2.360869 g / cm^3
# Si number density = 23.662546 Si / 1000 Ang^3
#
#
#
# Elastic Constant Matrix: (Units=GPa)
#
#
# Indices 1 2 3 4 5 6 
#
# 1 134.4619 57.8006 68.0443 0.0000 16.7402 0.0000
# 2 57.8006 63.4164 39.3697 0.0000 13.1297 0.0000
# 3 68.0443 39.3697 138.4655 0.0000 30.1638 0.0000
# 4 0.0000 0.0000 0.0000 45.5024 0.0000 11.0037
# 5 16.7402 13.1297 30.1638 0.0000 47.5248 0.0000
# 6 0.0000 0.0000 0.0000 11.0037 0.0000 35.1185
#
#
#
# Elastic Compliance Matrix: (Units=1/GPa)
#
#
# Indices 1 2 3 4 5 6 
#
# 1 0.013763 -0.010177 -0.003976 0.000000 0.000487 0.000000
# 2 -0.010177 0.026861 -0.002090 0.000000 -0.002510 0.000000
# 3 -0.003976 -0.002090 0.010838 0.000000 -0.004901 0.000000
# 4 0.000000 0.000000 0.000000 0.023779 0.000000 -0.007451
# 5 0.000487 -0.002510 -0.004901 0.000000 0.024674 0.000000
# 6 0.000000 0.000000 0.000000 -0.007451 0.000000 0.030809
#
#
# Mechanical properties :
#
#
# Convention : Reuss Voigt Hill
#
# Bulk Modulus (GPa) = 52.69465 74.08589 63.39027
# Shear Modulus (GPa) = 29.49247 37.03777 33.26512
#
# Velocity S-wave (km/s) = 3.53424 3.96061 3.75349
# Velocity P-wave (km/s) = 6.24276 7.23136 6.75517
#
# Compressibility (1/GPa) = 0.01897726
#
# Stress axis : x y z
#
# Youngs Moduli (GPa) = 72.65784 37.22818 92.27120
#
# Poissons Ratio (x) = 0.37887 0.36687
# Poissons Ratio (y) = 0.73943 0.19281
# Poissons Ratio (z) = 0.28889 0.07779
#
# Static dielectric constant tensor:
#      x y z
#    x 2.027250 0.000000 -0.020250 
#    y 0.000000 1.769520 0.000000 
#    z -0.020250 0.000000 1.962450 
# 
# From -- ./inp_files/294436.got.cif
#   From: 2010.05.17/outbox.cif.g08.bks.cpg/sg15_148_cif.got.tgz:294436.got - 2010.06.03 18:47:42.
