data_PCOD9292393
_publ_section_title
;
Structure prediction by ZEFSAII (Michael W. Deem and Ramdas Pophale) SiO2 
 PCOD9292393
Probable space group: C 2/C
;
_chemical_formula_sum "Si O2"
_cell_formula_units_Z 48
_cell_length_a 26.566436
_cell_length_b 8.462162
_cell_length_c 14.625373
_cell_angle_alpha 90.000000
_cell_angle_beta 36.121053
_cell_angle_gamma 90.000000
_cell_volume 1938.208029
_symmetry_space_group_name_H-M "C 2/C"
_symmetry_group_IT_number 15
_symmetry_cell_setting 'monoclinic'
loop_
_space_group_symop_operation_xyz
x,y,z
-x,y,1/2-z
-x,-y,-z
x,-y,1/2+z
1/2+x,1/2+y,z
1/2-x,1/2+y,1/2-z
1/2-x,1/2-y,-z
1/2+x,1/2-y,1/2+z
loop_
_atom_site_type_symbol
_atom_site_label
_atom_site_fract_x
_atom_site_fract_y
_atom_site_fract_z
Si Si1 0.653389 0.417642 0.582094
Si Si2 0.812083 0.915234 0.645523
Si Si3 0.854141 0.580862 0.835492
Si Si4 0.912221 0.371031 0.912808
Si Si5 0.090654 0.073513 0.843502
Si Si6 0.388711 0.919028 0.605617
O O1 0.647372 0.458207 0.484565
O O2 0.754062 0.414646 0.456830
O O3 0.618366 0.247848 0.662690
O O4 0.611344 0.552265 0.706566
O O5 0.852838 0.749288 0.555483
O O6 0.710995 0.911357 0.779241
O O7 0.838579 0.968511 0.707089
O O8 0.866212 0.445335 0.892922
O O9 0.898983 0.541168 0.674130
O O10 0.000000 0.295394 0.750000
O O11 0.935764 0.513573 0.947864
O O12 0.091687 0.249570 0.880492
O O13 0.000000 0.000000 0.000000
#
# Coordination Sequence:
#
# PCOD9292393 Si02
#       6
#     8   8   8   8   8   8
#     4  10  22  43  71 100 133 177 230 277 339 419
#     4  11  24  45  71  98 139 187 232 277 344 431
#     4  10  22  43  72  99 132 178 229 280 336 422
#     4  12  27  41  69 102 141 176 227 290 348 407
#     4  12  27  41  69 102 141 177 228 294 350 406
#     4  11  24  46  72  97 137 187 234 277 346 427
#
# _framework density 24.765142999999998
#
# number of rings (size 3 to 8) (size 9 to 14) (size 15 to 20)
#    0.000    1.000    0.000    6.000    7.000    6.000 
#    0.000    0.000    0.000    0.000    0.000    0.000 
#    0.000    0.000    0.000    0.000    0.000    0.000 
#
# Total GULP energy -134652.487094 kJ/mol
# GULP energy per Si atom -5610.520296 kJ/mol
# Density = 2.470878 g / cm^3
# Si number density = 24.765143 Si / 1000 Ang^3
#
#
#
# Elastic Constant Matrix: (Units=GPa)
#
#
# Indices 1 2 3 4 5 6 
#
# 1 61.9718 15.2452 10.0670 -0.0001 8.3505 0.0000
# 2 15.2452 96.2717 3.5202 -0.0006 -6.0782 0.0002
# 3 10.0670 3.5202 74.7844 -0.0003 10.0723 0.0001
# 4 -0.0001 -0.0006 -0.0003 39.3569 0.0001 5.0283
# 5 8.3505 -6.0782 10.0723 0.0001 35.2533 0.0000
# 6 0.0000 0.0002 0.0001 5.0283 0.0000 41.7889
#
#
#
# Elastic Compliance Matrix: (Units=1/GPa)
#
#
# Indices 1 2 3 4 5 6 
#
# 1 0.017720 -0.003013 -0.001673 0.000000 -0.004239 0.000000
# 2 -0.003013 0.011056 -0.000486 0.000000 0.002759 0.000000
# 3 -0.001673 -0.000486 0.014121 0.000000 -0.003722 0.000000
# 4 0.000000 0.000000 0.000000 0.025805 0.000000 -0.003105
# 5 -0.004239 0.002759 -0.003722 0.000000 0.030909 0.000000
# 6 0.000000 0.000000 0.000000 -0.003105 0.000000 0.024303
#
#
# Mechanical properties :
#
#
# Convention : Reuss Voigt Hill
#
# Bulk Modulus (GPa) = 30.71786 32.29919 31.50853
# Shear Modulus (GPa) = 34.45641 36.89284 35.67462
#
# Velocity S-wave (km/s) = 3.73410 3.86386 3.79953
# Velocity P-wave (km/s) = 5.56973 5.74251 5.65678
#
# Compressibility (1/GPa) = 0.03255435
#
# Stress axis : x y z
#
# Youngs Moduli (GPa) = 56.43217 90.44611 70.81561
#
# Poissons Ratio (x) = 0.27248 0.11845
# Poissons Ratio (y) = 0.17001 0.03445
# Poissons Ratio (z) = 0.09439 0.04400
#
# Static dielectric constant tensor:
#      x y z
#    x 1.918060 0.000000 -0.030230 
#    y 0.000000 1.964620 0.000000 
#    z -0.030230 0.000000 1.913310 
# 
# From -- ./inp_files/176902.got.cif
#   From: 2010.05.17/outbox.cif.g08.bks.cpg/sg15_89_cif.got.tgz:176902.got - 2010.06.03 18:47:42.
