data_PCOD9292565
_publ_section_title
;
Structure prediction by ZEFSAII (Michael W. Deem and Ramdas Pophale) SiO2 
 PCOD9292565
Probable space group: C 2/C
;
_chemical_formula_sum "Si O2"
_cell_formula_units_Z 56
_cell_length_a 9.621841
_cell_length_b 14.935587
_cell_length_c 30.247963
_cell_angle_alpha 90.000000
_cell_angle_beta 37.321895
_cell_angle_gamma 90.000000
_cell_volume 2635.473690
_symmetry_space_group_name_H-M "C 2/C"
_symmetry_group_IT_number 15
_symmetry_cell_setting 'monoclinic'
loop_
_space_group_symop_operation_xyz
x,y,z
-x,y,1/2-z
-x,-y,-z
x,-y,1/2+z
1/2+x,1/2+y,z
1/2-x,1/2+y,1/2-z
1/2-x,1/2-y,-z
1/2+x,1/2-y,1/2+z
loop_
_atom_site_type_symbol
_atom_site_label
_atom_site_fract_x
_atom_site_fract_y
_atom_site_fract_z
Si Si1 0.956559 0.374999 0.867377
Si Si2 0.833900 0.482607 0.250500
Si Si3 0.843373 0.007527 0.914022
Si Si4 0.564418 0.379532 0.532925
Si Si5 0.663599 0.232604 0.750500
Si Si6 0.979043 0.370468 0.967076
Si Si7 0.663482 0.242472 0.585978
O O1 0.080050 0.461178 0.813414
O O2 0.102883 0.288821 0.813414
O O3 0.691750 0.379104 0.920088
O O4 0.957808 0.370895 0.920089
O O5 0.576659 0.506583 0.329159
O O6 0.821793 0.375001 0.250001
O O7 0.000000 0.504408 0.250000
O O8 0.654323 0.949729 0.936228
O O9 0.878265 0.967899 0.954283
O O10 0.750043 0.106844 0.947290
O O11 0.585462 0.300270 0.563772
O O12 0.763502 0.356845 0.447291
O O13 0.500000 0.254406 0.750000
O O14 0.527547 0.256579 0.829159
O O15 0.100322 0.282102 0.954283
#
# Coordination Sequence:
#
# PCOD9292565 Si02
#       7
#     8   8   8   8   8   8   8
#     4  12  24  42  70 100 127 184 222 269 334 404
#     4  11  25  43  67  98 137 174 221 279 334 392
#     4  10  22  44  63  94 132 173 216 279 328 395
#     4  10  23  40  69  92 132 173 222 270 335 388
#     4  11  25  43  67  98 137 174 221 279 334 392
#     4  10  23  40  69  92 132 173 222 270 335 388
#     4  10  22  44  63  94 132 173 216 279 328 395
#
# _framework density 21.248552
#
# number of rings (size 3 to 8) (size 9 to 14) (size 15 to 20)
#    0.000    1.429    2.857    1.714    4.000    3.429 
#    0.000    1.429    0.000    0.000    0.000    0.000 
#    0.000    0.000    0.000    0.000    0.000    0.000 
#
# Total GULP energy -156392.316556 kJ/mol
# GULP energy per Si atom -5585.439877 kJ/mol
# Density = 2.120019 g / cm^3
# Si number density = 21.248552 Si / 1000 Ang^3
#
#
#
# Elastic Constant Matrix: (Units=GPa)
#
#
# Indices 1 2 3 4 5 6 
#
# 1 104.9820 8.9480 23.4651 -0.0012 1.6008 0.0010
# 2 8.9480 30.6810 -3.6959 0.0005 0.6659 -0.0001
# 3 23.4651 -3.6959 88.1494 -0.0025 -0.7145 0.0021
# 4 -0.0012 0.0005 -0.0025 19.3145 0.0020 -0.5664
# 5 1.6008 0.6659 -0.7145 0.0020 25.6938 -0.0003
# 6 0.0010 -0.0001 0.0021 -0.5664 -0.0003 8.5986
#
#
#
# Elastic Compliance Matrix: (Units=1/GPa)
#
#
# Indices 1 2 3 4 5 6 
#
# 1 0.010481 -0.003397 -0.002938 0.000000 -0.000647 -0.000001
# 2 -0.003397 0.033877 0.002320 -0.000001 -0.000602 0.000000
# 3 -0.002938 0.002320 0.012227 0.000001 0.000463 -0.000003
# 4 0.000000 -0.000001 0.000001 0.051875 -0.000004 0.003417
# 5 -0.000647 -0.000602 0.000463 -0.000004 0.038989 0.000001
# 6 -0.000001 0.000000 -0.000003 0.003417 0.000001 0.116524
#
#
# Mechanical properties :
#
#
# Convention : Reuss Voigt Hill
#
# Bulk Modulus (GPa) = 20.59487 31.24966 25.92226
# Shear Modulus (GPa) = 17.34983 23.72773 20.53878
#
# Velocity S-wave (km/s) = 2.86058 3.34529 3.11239
# Velocity P-wave (km/s) = 4.54136 5.44610 5.01418
#
# Compressibility (1/GPa) = 0.04855579
#
# Stress axis : x y z
#
# Youngs Moduli (GPa) = 95.40653 29.51891 81.78341
#
# Poissons Ratio (x) = 0.10027 0.24026
# Poissons Ratio (y) = 0.32407 -0.18971
# Poissons Ratio (z) = 0.28028 -0.06847
#
# Static dielectric constant tensor:
#      x y z
#    x 1.736650 0.000000 -0.002070 
#    y 0.000000 1.824770 0.000000 
#    z -0.002070 0.000000 1.776060 
# 
# From -- ./inp_files/289673.got.cif
#   From: 2010.05.17/outbox.cif.g08.bks.cpg/sg15_145_cif.got.tgz:289673.got - 2010.06.03 18:47:42.
