data_PCOD9292534
_publ_section_title
;
Structure prediction by ZEFSAII (Michael W. Deem and Ramdas Pophale) SiO2 
 PCOD9292534
Probable space group: C 2/C
;
_chemical_formula_sum "Si O2"
_cell_formula_units_Z 32
_cell_length_a 20.319352
_cell_length_b 8.056258
_cell_length_c 10.586105
_cell_angle_alpha 90.000000
_cell_angle_beta 141.604838
_cell_angle_gamma 90.000000
_cell_volume 1076.286971
_symmetry_space_group_name_H-M "C 2/C"
_symmetry_group_IT_number 15
_symmetry_cell_setting 'monoclinic'
loop_
_space_group_symop_operation_xyz
x,y,z
-x,y,1/2-z
-x,-y,-z
x,-y,1/2+z
1/2+x,1/2+y,z
1/2-x,1/2+y,1/2-z
1/2-x,1/2-y,-z
1/2+x,1/2-y,1/2+z
loop_
_atom_site_type_symbol
_atom_site_label
_atom_site_fract_x
_atom_site_fract_y
_atom_site_fract_z
Si Si1 0.153066 0.616455 0.351550
Si Si2 0.780261 0.687537 0.401877
Si Si3 0.420424 0.171153 0.921513
Si Si4 0.964006 0.896881 0.567671
O O1 0.250000 0.750000 0.500000
O O2 0.147799 0.814637 0.068057
O O3 0.142584 0.497948 0.210125
O O4 0.175392 0.493941 0.501587
O O5 0.750000 0.750000 0.500000
O O6 0.665447 0.695038 0.161800
O O7 0.964094 0.732640 0.849485
O O8 0.529930 0.171895 0.163505
O O9 0.000000 0.000000 0.500000
O O10 0.000000 0.981300 0.750000
#
# Coordination Sequence:
#
# PCOD9292534 Si02
#       4
#     8   8   8   8
#     4  10  22  43  81 123 174 240 316 388 489 573
#     4  10  22  49  82 122 187 238 318 400 480 586
#     4  10  24  49  81 125 187 241 318 401 484 593
#     4  12  26  51  91 141 196 259 333 424 507 603
#
# _framework density 29.731846000000001
#
# number of rings (size 3 to 8) (size 9 to 14) (size 15 to 20)
#    0.000    1.500    5.000    0.000    3.500    0.000 
#   13.500    5.000   11.000    0.000    0.000    0.000 
#    0.000    0.000    0.000    0.000    0.000    0.000 
#
# Total GULP energy -89397.070484 kJ/mol
# GULP energy per Si atom -5587.316905 kJ/mol
# Density = 2.966418 g / cm^3
# Si number density = 29.731846 Si / 1000 Ang^3
#
#
#
# Elastic Constant Matrix: (Units=GPa)
#
#
# Indices 1 2 3 4 5 6 
#
# 1 240.2634 87.1038 137.2881 0.0000 29.1189 0.0000
# 2 87.1038 182.7696 121.4287 0.0000 21.6265 0.0000
# 3 137.2881 121.4287 242.0398 0.0000 36.3468 0.0000
# 4 0.0000 0.0000 0.0000 78.5286 0.0000 6.0393
# 5 29.1189 21.6265 36.3468 0.0000 101.4959 0.0000
# 6 0.0000 0.0000 0.0000 6.0393 0.0000 60.7008
#
#
#
# Elastic Compliance Matrix: (Units=1/GPa)
#
#
# Indices 1 2 3 4 5 6 
#
# 1 0.006289 -0.000926 -0.003024 0.000000 -0.000524 0.000000
# 2 -0.000926 0.008351 -0.003632 0.000000 -0.000213 0.000000
# 3 -0.003024 -0.003632 0.007844 0.000000 -0.001168 0.000000
# 4 0.000000 0.000000 0.000000 0.012832 0.000000 -0.001277
# 5 -0.000524 -0.000213 -0.001168 0.000000 0.010466 0.000000
# 6 0.000000 0.000000 0.000000 -0.001277 0.000000 0.016601
#
#
# Mechanical properties :
#
#
# Convention : Reuss Voigt Hill
#
# Bulk Modulus (GPa) = 136.61536 150.74600 143.68068
# Shear Modulus (GPa) = 62.50739 69.42853 65.96796
#
# Velocity S-wave (km/s) = 4.59014 4.83759 4.71549
# Velocity P-wave (km/s) = 8.61054 9.05621 8.83619
#
# Compressibility (1/GPa) = 0.00731982
#
# Stress axis : x y z
#
# Youngs Moduli (GPa) = 158.99881 119.74198 127.47822
#
# Poissons Ratio (x) = 0.11091 0.38549
# Poissons Ratio (y) = 0.14727 0.46305
# Poissons Ratio (z) = 0.48081 0.43495
#
# Static dielectric constant tensor:
#      x y z
#    x 2.307600 0.000000 -0.038590 
#    y 0.000000 2.668540 0.000000 
#    z -0.038590 0.000000 2.607710 
# 
# From -- ./inp_files/60792.got.cif
#   From: 2010.05.17/outbox.cif.g08.bks.cpg/sg15_31_cif.got.tgz:60792.got - 2010.06.03 18:47:42.
