data_PCOD9292683
_publ_section_title
;
Structure prediction by ZEFSAII (Michael W. Deem and Ramdas Pophale) SiO2 
 PCOD9292683
Probable space group: C 2/C
;
_chemical_formula_sum "Si O2"
_cell_formula_units_Z 48
_cell_length_a 16.052873
_cell_length_b 12.745177
_cell_length_c 33.706413
_cell_angle_alpha 90.000000
_cell_angle_beta 162.198982
_cell_angle_gamma 90.000000
_cell_volume 2108.259084
_symmetry_space_group_name_H-M "C 2/C"
_symmetry_group_IT_number 15
_symmetry_cell_setting 'monoclinic'
loop_
_space_group_symop_operation_xyz
x,y,z
-x,y,1/2-z
-x,-y,-z
x,-y,1/2+z
1/2+x,1/2+y,z
1/2-x,1/2+y,1/2-z
1/2-x,1/2-y,-z
1/2+x,1/2-y,1/2+z
loop_
_atom_site_type_symbol
_atom_site_label
_atom_site_fract_x
_atom_site_fract_y
_atom_site_fract_z
Si Si1 0.382493 0.046247 0.592190
Si Si2 0.411404 0.106472 0.037653
Si Si3 0.012453 0.225415 0.423351
Si Si4 0.651979 0.711050 0.693057
Si Si5 0.695257 0.180453 0.595676
Si Si6 0.759055 0.424939 0.609282
O O1 0.092735 0.105341 0.466972
O O2 0.614444 0.127315 0.711366
O O3 0.450291 0.002379 0.579095
O O4 0.370662 0.950753 0.616552
O O5 0.623822 0.194793 0.149054
O O6 0.392187 0.108767 0.981166
O O7 0.125257 0.149181 0.925226
O O8 0.250000 0.250000 0.500000
O O9 0.739234 0.241328 0.275011
O O10 0.002405 0.303271 0.456013
O O11 0.696021 0.301638 0.581646
O O12 0.000000 0.153735 0.750000
O O13 0.500000 0.500000 0.500000
O O14 0.000000 0.444815 0.750000
#
# Coordination Sequence:
#
# PCOD9292683 Si02
#       6
#     8   8   8   8   8   8
#     4  11  25  40  68 101 143 176 234 289 356 424
#     4  11  24  39  72 100 136 185 231 285 353 424
#     4  10  22  44  66  93 138 181 223 290 349 405
#     4  10  23  42  64  98 138 181 228 281 352 419
#     4  11  22  42  65  97 138 178 231 287 348 416
#     4  11  24  36  62 102 136 178 226 292 357 421
#
# _framework density 22.767600000000002
#
# number of rings (size 3 to 8) (size 9 to 14) (size 15 to 20)
#    0.000    1.333    3.333    2.000    9.333    0.000 
#    0.000    5.833    0.000    0.000    0.000    0.000 
#    0.000    0.000    0.000    0.000    0.000    0.000 
#
# Total GULP energy -134005.581715 kJ/mol
# GULP energy per Si atom -5583.565905 kJ/mol
# Density = 2.271578 g / cm^3
# Si number density = 22.767600 Si / 1000 Ang^3
#
#
#
# Elastic Constant Matrix: (Units=GPa)
#
#
# Indices 1 2 3 4 5 6 
#
# 1 144.5475 27.3758 18.0931 0.0075 -25.0411 0.0084
# 2 27.3758 44.1614 20.2428 -0.0131 -4.7715 0.0076
# 3 18.0931 20.2428 65.9627 -0.0281 -11.4670 0.0326
# 4 0.0075 -0.0131 -0.0281 23.5261 0.0200 -5.4783
# 5 -25.0411 -4.7715 -11.4670 0.0200 40.0347 0.0055
# 6 0.0084 0.0076 0.0326 -5.4783 0.0055 40.7938
#
#
#
# Elastic Compliance Matrix: (Units=1/GPa)
#
#
# Indices 1 2 3 4 5 6 
#
# 1 0.008678 -0.004831 -0.000057 -0.000010 0.004836 -0.000003
# 2 -0.004831 0.029069 -0.007913 0.000011 -0.001823 0.000004
# 3 -0.000057 -0.007913 0.018347 0.000011 0.004276 -0.000012
# 4 -0.000010 0.000011 0.000011 0.043878 -0.000025 0.005892
# 5 0.004836 -0.001823 0.004276 -0.000025 0.029011 -0.000011
# 6 -0.000003 0.000004 -0.000012 0.005892 -0.000011 0.025305
#
#
# Mechanical properties :
#
#
# Convention : Reuss Voigt Hill
#
# Bulk Modulus (GPa) = 32.79440 42.89946 37.84693
# Shear Modulus (GPa) = 26.30841 33.46825 29.88833
#
# Velocity S-wave (km/s) = 3.40298 3.83821 3.62713
# Velocity P-wave (km/s) = 5.46586 6.20691 5.84813
#
# Compressibility (1/GPa) = 0.03049301
#
# Stress axis : x y z
#
# Youngs Moduli (GPa) = 115.23466 34.40112 54.50353
#
# Poissons Ratio (x) = 0.16619 0.00312
# Poissons Ratio (y) = 0.55668 0.43127
# Poissons Ratio (z) = 0.00659 0.27220
#
# Static dielectric constant tensor:
#      x y z
#    x 1.949940 0.000020 -0.033560 
#    y 0.000020 1.982760 0.000000 
#    z -0.033560 0.000000 1.892880 
# 
# From -- ./inp_files/314136.got.cif
#   From: 2010.05.17/outbox.cif.g08.bks.cpg/sg15_158_cif.got.tgz:314136.got - 2010.06.03 18:47:42.
