data_PCOD9292327
_publ_section_title
;
Structure prediction by ZEFSAII (Michael W. Deem and Ramdas Pophale) SiO2 
 PCOD9292327
Probable space group: C 2/C
;
_chemical_formula_sum "Si O2"
_cell_formula_units_Z 44
_cell_length_a 5.060111
_cell_length_b 19.844906
_cell_length_c 16.855129
_cell_angle_alpha 90.000000
_cell_angle_beta 96.721006
_cell_angle_gamma 90.000000
_cell_volume 1680.917170
_symmetry_space_group_name_H-M "C 2/C"
_symmetry_group_IT_number 15
_symmetry_cell_setting 'monoclinic'
loop_
_space_group_symop_operation_xyz
x,y,z
-x,y,1/2-z
-x,-y,-z
x,-y,1/2+z
1/2+x,1/2+y,z
1/2-x,1/2+y,1/2-z
1/2-x,1/2-y,-z
1/2+x,1/2-y,1/2+z
loop_
_atom_site_type_symbol
_atom_site_label
_atom_site_fract_x
_atom_site_fract_y
_atom_site_fract_z
Si Si1 0.641638 0.214024 0.628901
Si Si2 0.982455 0.184892 0.484890
Si Si3 0.000000 0.038079 0.250000
Si Si4 0.721270 0.851354 0.823815
Si Si5 0.811416 0.563804 0.846442
Si Si6 0.332566 0.445612 0.447222
O O1 0.856297 0.203812 0.565127
O O2 0.419999 0.254604 0.569506
O O3 0.721019 0.272282 0.693158
O O4 0.596798 0.140951 0.664216
O O5 0.735947 0.154884 0.420459
O O6 0.182599 0.123806 0.504899
O O7 0.058563 0.090881 0.182274
O O8 0.242568 0.988165 0.275512
O O9 0.500000 0.869724 0.750000
O O10 0.526019 0.568919 0.879644
O O11 0.041823 0.533188 0.909368
O O12 0.500000 0.500000 0.500000
#
# Coordination Sequence:
#
# PCOD9292327 Si02
#       6
#     8   8   4   8   8   8
#     4   8  19  44  68 105 132 191 241 305 355 433
#     4   8  18  41  72  98 138 178 243 298 352 427
#     4  12  28  42  66 106 146 194 238 302 378 446
#     4  10  22  43  69  97 143 185 241 293 367 440
#     4  11  26  42  70 100 141 184 237 296 359 429
#     4  11  23  43  68 104 135 186 237 294 358 427
#
# _framework density 26.176185
#
# number of rings (size 3 to 8) (size 9 to 14) (size 15 to 20)
#    1.091    1.091    0.000    1.636    6.364    0.727 
#    9.818    0.000    0.000    0.000    0.000    0.000 
#    0.000    0.000    0.000    0.000    0.000    0.000 
#
# Total GULP energy -122562.263448 kJ/mol
# GULP energy per Si atom -5571.011975 kJ/mol
# Density = 2.611661 g / cm^3
# Si number density = 26.176185 Si / 1000 Ang^3
#
#
#
# Elastic Constant Matrix: (Units=GPa)
#
#
# Indices 1 2 3 4 5 6 
#
# 1 82.5213 21.5298 46.3372 0.0000 10.1079 0.0000
# 2 21.5298 204.9633 65.4687 0.0000 7.4380 0.0000
# 3 46.3372 65.4687 105.8690 0.0000 22.5236 0.0000
# 4 0.0000 0.0000 0.0000 34.6525 0.0000 6.1323
# 5 10.1079 7.4380 22.5236 0.0000 43.4407 0.0000
# 6 0.0000 0.0000 0.0000 6.1323 0.0000 17.7409
#
#
#
# Elastic Compliance Matrix: (Units=1/GPa)
#
#
# Indices 1 2 3 4 5 6 
#
# 1 0.016147 0.000700 -0.007503 0.000000 0.000013 0.000000
# 2 0.000700 0.006151 -0.004329 0.000000 0.001028 0.000000
# 3 -0.007503 -0.004329 0.016722 0.000000 -0.006183 0.000000
# 4 0.000000 0.000000 0.000000 0.030738 0.000000 -0.010625
# 5 0.000013 0.001028 -0.006183 0.000000 0.026047 0.000000
# 6 0.000000 0.000000 0.000000 -0.010625 0.000000 0.060039
#
#
# Mechanical properties :
#
#
# Convention : Reuss Voigt Hill
#
# Bulk Modulus (GPa) = 59.67967 73.33611 66.50789
# Shear Modulus (GPa) = 27.21944 36.50136 31.86040
#
# Velocity S-wave (km/s) = 3.22818 3.73828 3.49256
# Velocity P-wave (km/s) = 6.06165 6.83449 6.45963
#
# Compressibility (1/GPa) = 0.01675613
#
# Stress axis : x y z
#
# Youngs Moduli (GPa) = 61.93161 162.58187 59.80198
#
# Poissons Ratio (x) = -0.11380 0.44869
# Poissons Ratio (y) = -0.04335 0.25887
# Poissons Ratio (z) = 0.46467 0.70377
#
# Static dielectric constant tensor:
#      x y z
#    x 2.799200 0.000000 0.088060 
#    y 0.000000 2.110840 0.000000 
#    z 0.088060 0.000000 2.176140 
# 
# From -- ./inp_files/261067.got.cif
#   From: 2010.05.17/outbox.cif.g08.bks.cpg/sg15_131_cif.got.tgz:261067.got - 2010.06.03 18:47:42.
