data_PCOD9292278
_publ_section_title
;
Structure prediction by ZEFSAII (Michael W. Deem and Ramdas Pophale) SiO2 
 PCOD9292278
Probable space group: C 2/C
;
_chemical_formula_sum "Si O2"
_cell_formula_units_Z 44
_cell_length_a 18.088385
_cell_length_b 15.800245
_cell_length_c 7.356485
_cell_angle_alpha 90.000000
_cell_angle_beta 97.332257
_cell_angle_gamma 90.000000
_cell_volume 2085.297552
_symmetry_space_group_name_H-M "C 2/C"
_symmetry_group_IT_number 15
_symmetry_cell_setting 'monoclinic'
loop_
_space_group_symop_operation_xyz
x,y,z
-x,y,1/2-z
-x,-y,-z
x,-y,1/2+z
1/2+x,1/2+y,z
1/2-x,1/2+y,1/2-z
1/2-x,1/2-y,-z
1/2+x,1/2-y,1/2+z
loop_
_atom_site_type_symbol
_atom_site_label
_atom_site_fract_x
_atom_site_fract_y
_atom_site_fract_z
Si Si1 0.251896 0.656122 0.416647
Si Si2 0.579009 0.619382 0.978904
Si Si3 0.988551 0.293462 0.460717
Si Si4 0.500000 0.507364 0.250000
Si Si5 0.360111 0.882071 0.926068
Si Si6 0.139455 0.575165 0.654399
O O1 0.250000 0.750000 0.500000
O O2 0.336796 0.626536 0.427494
O O3 0.207996 0.653497 0.212757
O O4 0.207816 0.596236 0.543526
O O5 0.547865 0.713846 0.951337
O O6 0.525376 0.570614 0.101246
O O7 0.568773 0.557495 0.804360
O O8 0.067139 0.323378 0.564655
O O9 0.000000 0.271118 0.250000
O O10 0.930981 0.371547 0.440065
O O11 0.377114 0.975768 0.854737
O O12 0.344352 0.894039 0.135587
#
# Coordination Sequence:
#
# PCOD9292278 Si02
#       6
#     8   8   8   4   8   8
#     4  12  27  45  68 105 139 178 231 278 346 412
#     4  11  24  46  66  98 130 179 232 282 335 410
#     4  10  22  43  69 100 139 178 230 278 340 416
#     4  10  26  44  70  90 130 184 230 284 332 394
#     4  11  25  43  73 102 141 182 219 290 341 407
#     4  11  23  45  68 109 140 179 225 279 350 413
#
# _framework density 21.100106
#
# number of rings (size 3 to 8) (size 9 to 14) (size 15 to 20)
#    0.000    1.091    4.545    0.545    5.091    1.455 
#    3.273    0.000    0.000    0.000    0.000    0.000 
#    0.000    0.000    0.000    0.000    0.000    0.000 
#
# Total GULP energy -122998.200583 kJ/mol
# GULP energy per Si atom -5590.827299 kJ/mol
# Density = 2.105208 g / cm^3
# Si number density = 21.100106 Si / 1000 Ang^3
#
#
#
# Elastic Constant Matrix: (Units=GPa)
#
#
# Indices 1 2 3 4 5 6 
#
# 1 113.6940 25.6412 46.7648 0.0000 33.0813 0.0000
# 2 25.6412 91.1516 26.9154 0.0000 26.5377 0.0000
# 3 46.7648 26.9154 98.9875 0.0000 29.6092 0.0000
# 4 0.0000 0.0000 0.0000 22.5330 0.0000 9.7192
# 5 33.0813 26.5377 29.6092 0.0000 42.2074 0.0000
# 6 0.0000 0.0000 0.0000 9.7192 0.0000 26.5290
#
#
#
# Elastic Compliance Matrix: (Units=1/GPa)
#
#
# Indices 1 2 3 4 5 6 
#
# 1 0.012408 -0.000395 -0.003695 0.000000 -0.006884 0.000000
# 2 -0.000395 0.013602 -0.001324 0.000000 -0.007314 0.000000
# 3 -0.003695 -0.001324 0.014039 0.000000 -0.006119 0.000000
# 4 0.000000 0.000000 0.000000 0.052709 0.000000 -0.019310
# 5 -0.006884 -0.007314 -0.006119 0.000000 0.037980 0.000000
# 6 0.000000 0.000000 0.000000 -0.019310 0.000000 0.044769
#
#
# Mechanical properties :
#
#
# Convention : Reuss Voigt Hill
#
# Bulk Modulus (GPa) = 34.22340 55.83065 45.02702
# Shear Modulus (GPa) = 25.50053 31.88799 28.69426
#
# Velocity S-wave (km/s) = 3.48019 3.89173 3.69170
# Velocity P-wave (km/s) = 5.69243 6.83457 6.28948
#
# Compressibility (1/GPa) = 0.02921977
#
# Stress axis : x y z
#
# Youngs Moduli (GPa) = 80.59570 73.51771 71.23264
#
# Poissons Ratio (x) = 0.02903 0.26321
# Poissons Ratio (y) = 0.03183 0.09433
# Poissons Ratio (z) = 0.29781 0.09736
#
# Static dielectric constant tensor:
#      x y z
#    x 1.722050 0.000000 -0.000390 
#    y 0.000000 1.731870 0.000000 
#    z -0.000390 0.000000 1.868330 
# 
# From -- ./inp_files/47076.got.cif
#   From: 2010.05.17/outbox.cif.g08.bks.cpg/sg15_24_cif.got.tgz:47076.got - 2010.06.03 18:47:42.
