data_PCOD9292518
_publ_section_title
;
Structure prediction by ZEFSAII (Michael W. Deem and Ramdas Pophale) SiO2 
 PCOD9292518
Probable space group: C 2/C
;
_chemical_formula_sum "Si O2"
_cell_formula_units_Z 40
_cell_length_a 14.404958
_cell_length_b 24.000448
_cell_length_c 8.568164
_cell_angle_alpha 90.000000
_cell_angle_beta 34.149009
_cell_angle_gamma 90.000000
_cell_volume 1662.840478
_symmetry_space_group_name_H-M "C 2/C"
_symmetry_group_IT_number 15
_symmetry_cell_setting 'monoclinic'
loop_
_space_group_symop_operation_xyz
x,y,z
-x,y,1/2-z
-x,-y,-z
x,-y,1/2+z
1/2+x,1/2+y,z
1/2-x,1/2+y,1/2-z
1/2-x,1/2-y,-z
1/2+x,1/2-y,1/2+z
loop_
_atom_site_type_symbol
_atom_site_label
_atom_site_fract_x
_atom_site_fract_y
_atom_site_fract_z
Si Si1 0.000000 0.793771 0.750000
Si Si2 0.165292 0.718310 0.266002
Si Si3 0.718931 0.420350 0.139947
Si Si4 0.000000 0.667827 0.250000
Si Si5 0.853506 0.125742 0.199367
Si Si6 0.301055 0.467918 0.998499
O O1 0.894618 0.833706 0.785794
O O2 0.115895 0.757141 0.477814
O O3 0.993754 0.701375 0.419459
O O4 0.263649 0.665107 0.198814
O O5 0.250000 0.750000 0.000000
O O6 0.529608 0.399161 0.397559
O O7 0.762433 0.445560 0.249341
O O8 0.745716 0.469409 0.979159
O O9 0.839967 0.369359 0.953460
O O10 0.762096 0.073191 0.407653
O O11 0.500000 0.467363 0.750000
#
# Coordination Sequence:
#
# PCOD9292518 Si02
#       6
#     4   8   8   4   8   8
#     4  12  24  46  77 110 143 186 252 316 362 428
#     4  12  29  48  73 108 148 199 249 305 367 432
#     4  11  25  46  72 108 145 184 245 295 373 442
#     4  12  30  46  67 108 151 192 240 304 374 434
#     4  11  23  47  78 102 141 191 241 303 361 441
#     4  10  22  43  75 107 136 182 244 296 360 445
#
# _framework density 24.055223000000002
#
# number of rings (size 3 to 8) (size 9 to 14) (size 15 to 20)
#    0.000    0.800    3.000    5.400    8.400    2.400 
#    0.000    0.000    0.000    0.000    0.000    0.000 
#    0.000    0.000    0.000    0.000    0.000    0.000 
#
# Total GULP energy -111967.931534 kJ/mol
# GULP energy per Si atom -5598.396577 kJ/mol
# Density = 2.400047 g / cm^3
# Si number density = 24.055223 Si / 1000 Ang^3
#
#
#
# Elastic Constant Matrix: (Units=GPa)
#
#
# Indices 1 2 3 4 5 6 
#
# 1 152.4900 62.9715 30.5708 0.0000 30.9865 0.0000
# 2 62.9715 118.9813 21.9526 0.0000 9.7357 0.0000
# 3 30.5708 21.9526 57.7102 0.0000 24.7158 0.0000
# 4 0.0000 0.0000 0.0000 27.6535 0.0000 14.2658
# 5 30.9865 9.7357 24.7158 0.0000 25.8202 0.0000
# 6 0.0000 0.0000 0.0000 14.2658 0.0000 82.4260
#
#
#
# Elastic Compliance Matrix: (Units=1/GPa)
#
#
# Indices 1 2 3 4 5 6 
#
# 1 0.010892 -0.005016 0.001570 0.000000 -0.012683 0.000000
# 2 -0.005016 0.011350 -0.004077 0.000000 0.005643 0.000000
# 3 0.001570 -0.004077 0.030838 0.000000 -0.029866 0.000000
# 4 0.000000 0.000000 0.000000 0.039707 0.000000 -0.006872
# 5 -0.012683 0.005643 -0.029866 0.000000 0.080410 0.000000
# 6 0.000000 0.000000 0.000000 -0.006872 0.000000 0.013322
#
#
# Mechanical properties :
#
#
# Convention : Reuss Voigt Hill
#
# Bulk Modulus (GPa) = 26.29281 62.24127 44.26704
# Shear Modulus (GPa) = 23.33801 41.42571 32.38186
#
# Velocity S-wave (km/s) = 3.11816 4.15433 3.67297
# Velocity P-wave (km/s) = 4.89058 6.99584 6.03571
#
# Compressibility (1/GPa) = 0.03803321
#
# Stress axis : x y z
#
# Youngs Moduli (GPa) = 91.81263 88.10460 32.42771
#
# Poissons Ratio (x) = 0.44197 -0.05092
# Poissons Ratio (y) = 0.46057 0.13221
# Poissons Ratio (z) = -0.14416 0.35920
#
# Static dielectric constant tensor:
#      x y z
#    x 1.944130 0.000000 0.014000 
#    y 0.000000 1.962740 0.000000 
#    z 0.014000 0.000000 1.947410 
# 
# From -- ./inp_files/41968.got.cif
#   From: 2010.05.17/outbox.cif.g08.bks.cpg/sg15_21_cif.got.tgz:41968.got - 2010.06.03 18:47:42.
