data_PCOD9292872
_publ_section_title
;
Structure prediction by ZEFSAII (Michael W. Deem and Ramdas Pophale) SiO2 
 PCOD9292872
Probable space group: C 2/C
;
_chemical_formula_sum "Si O2"
_cell_formula_units_Z 40
_cell_length_a 5.117674
_cell_length_b 18.672283
_cell_length_c 16.643929
_cell_angle_alpha 90.000000
_cell_angle_beta 90.739921
_cell_angle_gamma 90.000000
_cell_volume 1590.338884
_symmetry_space_group_name_H-M "C 2/C"
_symmetry_group_IT_number 15
_symmetry_cell_setting 'monoclinic'
loop_
_space_group_symop_operation_xyz
x,y,z
-x,y,1/2-z
-x,-y,-z
x,-y,1/2+z
1/2+x,1/2+y,z
1/2-x,1/2+y,1/2-z
1/2-x,1/2-y,-z
1/2+x,1/2-y,1/2+z
loop_
_atom_site_type_symbol
_atom_site_label
_atom_site_fract_x
_atom_site_fract_y
_atom_site_fract_z
Si Si1 0.000000 0.669293 0.250000
Si Si2 0.000000 0.737831 0.750000
Si Si3 0.894038 0.323609 0.578909
Si Si4 0.121555 0.478103 0.160345
Si Si5 0.598235 0.461773 0.581024
Si Si6 0.602060 0.174714 0.593902
O O1 0.741735 0.713130 0.233243
O O2 0.036944 0.643908 0.158202
O O3 0.924995 0.695818 0.669382
O O4 0.646254 0.377060 0.569522
O O5 0.809329 0.240047 0.584739
O O6 0.033090 0.332250 0.493125
O O7 0.386430 0.523099 0.149657
O O8 0.208567 0.400436 0.126473
O O9 0.000000 0.476989 0.250000
O O10 0.878655 0.504112 0.105008
O O11 0.500000 0.500000 0.500000
#
# Coordination Sequence:
#
# PCOD9292872 Si02
#       6
#     4   4   8   8   8   8
#     4  10  24  44  67 106 149 190 234 310 362 448
#     4  10  22  44  69 106 149 184 242 302 374 426
#     4  10  24  47  77 110 149 192 251 302 378 433
#     4  12  27  51  74 108 148 201 249 306 376 448
#     4  12  27  50  75 108 152 198 248 309 376 450
#     4  10  22  47  75 110 142 194 244 309 363 442
#
# _framework density 25.151875
#
# number of rings (size 3 to 8) (size 9 to 14) (size 15 to 20)
#    0.000    1.200    3.000    1.200    1.400    7.200 
#    7.200    0.000    0.000    0.000    0.000    0.000 
#    0.000    0.000    0.000    0.000    0.000    0.000 
#
# Total GULP energy -111566.977259 kJ/mol
# GULP energy per Si atom -5578.348863 kJ/mol
# Density = 2.509463 g / cm^3
# Si number density = 25.151875 Si / 1000 Ang^3
#
#
#
# Elastic Constant Matrix: (Units=GPa)
#
#
# Indices 1 2 3 4 5 6 
#
# 1 80.7095 39.3447 10.8562 0.0000 -0.9121 0.0000
# 2 39.3447 131.5154 10.8804 0.0000 -11.0320 0.0000
# 3 10.8562 10.8804 213.0359 0.0000 17.7804 0.0000
# 4 0.0000 0.0000 0.0000 27.0912 0.0000 -11.6517
# 5 -0.9121 -11.0320 17.7804 0.0000 44.7860 0.0000
# 6 0.0000 0.0000 0.0000 -11.6517 0.0000 12.4042
#
#
#
# Elastic Compliance Matrix: (Units=1/GPa)
#
#
# Indices 1 2 3 4 5 6 
#
# 1 0.014578 -0.004372 -0.000470 0.000000 -0.000593 0.000000
# 2 -0.004372 0.009144 -0.000439 0.000000 0.002338 0.000000
# 3 -0.000470 -0.000439 0.004913 0.000000 -0.002068 0.000000
# 4 0.000000 0.000000 0.000000 0.061933 0.000000 0.058176
# 5 -0.000593 0.002338 -0.002068 0.000000 0.023713 0.000000
# 6 0.000000 0.000000 0.000000 0.058176 0.000000 0.135265
#
#
# Mechanical properties :
#
#
# Convention : Reuss Voigt Hill
#
# Bulk Modulus (GPa) = 55.33378 60.82482 58.07930
# Shear Modulus (GPa) = 18.78757 41.13492 29.96125
#
# Velocity S-wave (km/s) = 2.73603 4.04847 3.45514
# Velocity P-wave (km/s) = 5.65940 6.78889 6.24971
#
# Compressibility (1/GPa) = 0.01807214
#
# Stress axis : x y z
#
# Youngs Moduli (GPa) = 68.59663 109.36008 203.53907
#
# Poissons Ratio (x) = 0.47813 0.09568
# Poissons Ratio (y) = 0.29991 0.08942
# Poissons Ratio (z) = 0.03224 0.04805
#
# Static dielectric constant tensor:
#      x y z
#    x 1.919840 0.000000 -0.025020 
#    y 0.000000 2.107250 0.000000 
#    z -0.025020 0.000000 2.207750 
# 
# From -- ./inp_files/184680.got.cif
#   From: 2010.05.17/outbox.cif.g08.bks.cpg/sg15_93_cif.got.tgz:184680.got - 2010.06.03 18:47:42.
