data_PCOD9292031
_publ_section_title
;
Structure prediction by ZEFSAII (Michael W. Deem and Ramdas Pophale) SiO2 
 PCOD9292031
Probable space group: C 2/C
;
_chemical_formula_sum "Si O2"
_cell_formula_units_Z 48
_cell_length_a 19.815401
_cell_length_b 10.523363
_cell_length_c 11.610119
_cell_angle_alpha 90.000000
_cell_angle_beta 88.569265
_cell_angle_gamma 90.000000
_cell_volume 2420.241320
_symmetry_space_group_name_H-M "C 2/C"
_symmetry_group_IT_number 15
_symmetry_cell_setting 'monoclinic'
loop_
_space_group_symop_operation_xyz
x,y,z
-x,y,1/2-z
-x,-y,-z
x,-y,1/2+z
1/2+x,1/2+y,z
1/2-x,1/2+y,1/2-z
1/2-x,1/2-y,-z
1/2+x,1/2-y,1/2+z
loop_
_atom_site_type_symbol
_atom_site_label
_atom_site_fract_x
_atom_site_fract_y
_atom_site_fract_z
Si Si1 0.683577 0.416372 0.493246
Si Si2 0.573774 0.183058 0.830616
Si Si3 0.444298 0.894171 0.656393
Si Si4 0.205150 0.193905 0.402239
Si Si5 0.791093 0.325998 0.668059
Si Si6 0.442102 0.264244 0.920105
O O1 0.680353 0.553856 0.437487
O O2 0.745741 0.408684 0.581237
O O3 0.698644 0.308803 0.396710
O O4 0.612543 0.374380 0.554560
O O5 0.642913 0.212792 0.887640
O O6 0.518892 0.287153 0.875482
O O7 0.584649 0.190268 0.692340
O O8 0.546037 0.044490 0.863000
O O9 0.500000 0.854257 0.750000
O O10 0.365564 0.878112 0.694876
O O11 0.448379 0.815873 0.537429
O O12 0.250000 0.250000 0.500000
O O13 0.247894 0.187259 0.284181
#
# Coordination Sequence:
#
# PCOD9292031 Si02
#       6
#     8   8   8   8   8   8
#     4  10  23  46  67  89 136 173 215 276 326 398
#     4  11  23  40  68  95 133 171 221 267 322 405
#     4  11  23  38  68 100 131 171 219 279 316 390
#     4  12  27  40  68 102 129 173 225 271 324 400
#     4  10  24  42  66  94 131 175 216 269 344 376
#     4  10  22  43  65  94 128 181 211 265 341 373
#
# _framework density 19.832732
#
# number of rings (size 3 to 8) (size 9 to 14) (size 15 to 20)
#    0.000    1.333    3.333    1.500    7.000    0.667 
#    0.000    0.000   14.667    0.000    0.000    0.000 
#    0.000    0.000    0.000    0.000    0.000    0.000 
#
# Total GULP energy -133925.263566 kJ/mol
# GULP energy per Si atom -5580.219315 kJ/mol
# Density = 1.978759 g / cm^3
# Si number density = 19.832732 Si / 1000 Ang^3
#
#
#
# Elastic Constant Matrix: (Units=GPa)
#
#
# Indices 1 2 3 4 5 6 
#
# 1 137.6590 18.7782 52.1369 0.0000 24.1393 0.0000
# 2 18.7782 31.4518 19.4621 0.0000 2.3473 0.0000
# 3 52.1369 19.4621 94.9018 0.0000 11.5351 0.0000
# 4 0.0000 0.0000 0.0000 0.5914 0.0000 10.1581
# 5 24.1393 2.3473 11.5351 0.0000 43.2599 0.0000
# 6 0.0000 0.0000 0.0000 10.1581 0.0000 21.5644
#
#
#
# Elastic Compliance Matrix: (Units=1/GPa)
#
#
# Indices 1 2 3 4 5 6 
#
# 1 0.010095 -0.002975 -0.004414 0.000000 -0.004295 0.000000
# 2 -0.002975 0.037293 -0.006169 0.000000 0.001282 0.000000
# 3 -0.004414 -0.006169 0.014352 0.000000 -0.001029 0.000000
# 4 0.000000 0.000000 0.000000 -0.238455 0.000000 0.112326
# 5 -0.004295 0.001282 -0.001029 0.000000 0.025717 0.000000
# 6 0.000000 0.000000 0.000000 0.112326 0.000000 -0.006539
#
#
# Mechanical properties :
#
#
# Convention : Reuss Voigt Hill
#
# Bulk Modulus (GPa) = 28.88199 49.41856 39.15028
# Shear Modulus (GPa) = -42.05964 24.65882 -8.70041
#
# Velocity S-wave (km/s) = -4.61012 3.52993 -2.09676
# Velocity P-wave (km/s) = 3.70719 6.44869 3.73111
#
# Compressibility (1/GPa) = 0.03462365
#
# Stress axis : x y z
#
# Youngs Moduli (GPa) = 99.05924 26.81474 69.67548
#
# Poissons Ratio (x) = 0.07979 0.30753
# Poissons Ratio (y) = 0.29475 0.42983
# Poissons Ratio (z) = 0.43722 0.16542
#
# Static dielectric constant tensor:
#      x y z
#    x 1.715150 0.000000 -0.001720 
#    y 0.000000 1.683700 0.000000 
#    z -0.001720 0.000000 1.683570 
# 
# From -- ./inp_files/103750.got.cif
#   From: 2010.05.17/outbox.cif.g08.bks.cpg/sg15_52_cif.got.tgz:103750.got - 2010.06.03 18:47:42.
