data_PCOD9292735
_publ_section_title
;
Structure prediction by ZEFSAII (Michael W. Deem and Ramdas Pophale) SiO2 
 PCOD9292735
Probable space group: C 2/C
;
_chemical_formula_sum "Si O2"
_cell_formula_units_Z 52
_cell_length_a 9.244519
_cell_length_b 11.993505
_cell_length_c 22.907174
_cell_angle_alpha 90.000000
_cell_angle_beta 101.879362
_cell_angle_gamma 90.000000
_cell_volume 2485.419542
_symmetry_space_group_name_H-M "C 2/C"
_symmetry_group_IT_number 15
_symmetry_cell_setting 'monoclinic'
loop_
_space_group_symop_operation_xyz
x,y,z
-x,y,1/2-z
-x,-y,-z
x,-y,1/2+z
1/2+x,1/2+y,z
1/2-x,1/2+y,1/2-z
1/2-x,1/2-y,-z
1/2+x,1/2-y,1/2+z
loop_
_atom_site_type_symbol
_atom_site_label
_atom_site_fract_x
_atom_site_fract_y
_atom_site_fract_z
Si Si1 0.615065 0.501954 0.881985
Si Si2 0.905112 0.810510 0.522926
Si Si3 0.786757 0.720830 0.935603
Si Si4 0.500000 0.894436 0.750000
Si Si5 0.313090 0.844245 0.839093
Si Si6 0.383531 0.932066 0.622648
Si Si7 0.839756 0.112663 0.897923
O O1 0.611360 0.411521 0.933659
O O2 0.720744 0.604725 0.908101
O O3 0.681949 0.432415 0.833589
O O4 0.449336 0.549343 0.862831
O O5 0.750000 0.750000 0.500000
O O6 0.941727 0.857776 0.461814
O O7 0.036719 0.731088 0.554786
O O8 0.711304 0.820005 0.892203
O O9 0.750000 0.750000 0.000000
O O10 0.383112 0.828780 0.780614
O O11 0.411775 0.960915 0.693173
O O12 0.452747 0.900231 0.885875
O O13 0.279999 0.725855 0.864896
O O14 0.289198 0.032478 0.589761
#
# Coordination Sequence:
#
# PCOD9292735 Si02
#       7
#     8   8   8   4   8   8   8
#     4  12  23  39  67  95 133 173 216 259 331 397
#     4  12  25  38  60  99 140 171 210 266 322 396
#     4  12  23  41  67  99 134 177 215 263 334 399
#     4   8  22  48  62  92 130 164 226 284 320 380
#     4  10  23  44  65  94 123 170 221 270 331 379
#     4  10  22  44  67  89 132 168 216 276 325 383
#     4  12  22  43  65  96 131 171 214 270 321 393
#
# _framework density 20.922021000000001
#
# number of rings (size 3 to 8) (size 9 to 14) (size 15 to 20)
#    0.923    0.000    6.154    1.385    2.154    0.615 
#    5.538    0.000    0.000    0.000    0.000    0.000 
#    0.000    0.000    0.000    0.000    0.000    0.000 
#
# Total GULP energy -144983.448821 kJ/mol
# GULP energy per Si atom -5576.286493 kJ/mol
# Density = 2.087440 g / cm^3
# Si number density = 20.922021 Si / 1000 Ang^3
#
#
#
# Elastic Constant Matrix: (Units=GPa)
#
#
# Indices 1 2 3 4 5 6 
#
# 1 85.6461 33.2734 -15.0332 0.0000 4.4307 0.0000
# 2 33.2734 110.4644 -4.1619 0.0000 -7.0491 0.0000
# 3 -15.0332 -4.1619 38.9470 0.0000 -8.6921 0.0000
# 4 0.0000 0.0000 0.0000 9.9257 0.0000 -5.2272
# 5 4.4307 -7.0491 -8.6921 0.0000 33.4117 0.0000
# 6 0.0000 0.0000 0.0000 -5.2272 0.0000 34.1840
#
#
#
# Elastic Compliance Matrix: (Units=1/GPa)
#
#
# Indices 1 2 3 4 5 6 
#
# 1 0.014212 -0.004203 0.004691 0.000000 -0.001551 0.000000
# 2 -0.004203 0.010503 0.000126 0.000000 0.002806 0.000000
# 3 0.004691 0.000126 0.029054 0.000000 0.006963 0.000000
# 4 0.000000 0.000000 0.000000 0.109572 0.000000 0.016755
# 5 -0.001551 0.002806 0.006963 0.000000 0.032539 0.000000
# 6 0.000000 0.000000 0.000000 0.016755 0.000000 0.031816
#
#
# Mechanical properties :
#
#
# Convention : Reuss Voigt Hill
#
# Bulk Modulus (GPa) = 18.18321 29.24599 23.71460
# Shear Modulus (GPa) = 20.42480 30.23623 25.33052
#
# Velocity S-wave (km/s) = 3.12787 3.80569 3.48330
# Velocity P-wave (km/s) = 4.66418 5.77234 5.24759
#
# Compressibility (1/GPa) = 0.05499579
#
# Stress axis : x y z
#
# Youngs Moduli (GPa) = 70.36062 95.21468 34.41876
#
# Poissons Ratio (x) = 0.40021 -0.16144
# Poissons Ratio (y) = 0.29574 -0.00434
# Poissons Ratio (z) = -0.33003 -0.01201
#
# Static dielectric constant tensor:
#      x y z
#    x 1.842050 0.000000 -0.027640 
#    y 0.000000 1.771330 0.000000 
#    z -0.027640 0.000000 1.777320 
# 
# From -- ./inp_files/287716.got.cif
#   From: 2010.05.17/outbox.cif.g08.bks.cpg/sg15_144_cif.got.tgz:287716.got - 2010.06.03 18:47:42.
