data_PCOD9292160
_publ_section_title
;
Structure prediction by ZEFSAII (Michael W. Deem and Ramdas Pophale) SiO2 
 PCOD9292160
Probable space group: C 2/C
;
_chemical_formula_sum "Si O2"
_cell_formula_units_Z 40
_cell_length_a 13.870582
_cell_length_b 8.080297
_cell_length_c 17.635122
_cell_angle_alpha 90.000000
_cell_angle_beta 119.732078
_cell_angle_gamma 90.000000
_cell_volume 1716.316112
_symmetry_space_group_name_H-M "C 2/C"
_symmetry_group_IT_number 15
_symmetry_cell_setting 'monoclinic'
loop_
_space_group_symop_operation_xyz
x,y,z
-x,y,1/2-z
-x,-y,-z
x,-y,1/2+z
1/2+x,1/2+y,z
1/2-x,1/2+y,1/2-z
1/2-x,1/2-y,-z
1/2+x,1/2-y,1/2+z
loop_
_atom_site_type_symbol
_atom_site_label
_atom_site_fract_x
_atom_site_fract_y
_atom_site_fract_z
Si Si1 0.385624 0.554208 0.696740
Si Si2 0.675057 0.239735 0.182729
Si Si3 0.843507 0.646051 0.080565
Si Si4 0.686080 0.867399 0.534312
Si Si5 0.374375 0.940125 0.231309
O O1 0.500000 0.456540 0.750000
O O2 0.355825 0.621760 0.768035
O O3 0.412540 0.713141 0.651693
O O4 0.282619 0.468674 0.615798
O O5 0.628880 0.237604 0.078825
O O6 0.635584 0.068492 0.203959
O O7 0.807777 0.275537 0.226674
O O8 0.806165 0.531256 0.136699
O O9 0.750000 0.750000 0.000000
O O10 0.885199 0.506394 0.037625
O O11 0.750000 0.750000 0.500000
O O12 0.500000 0.924271 0.250000
#
# Coordination Sequence:
#
# PCOD9292160 Si02
#       5
#     8   8   8   8   8
#     4  10  22  43  67  89 124 173 223 265 322 403
#     4  11  21  41  66  91 128 175 221 263 339 393
#     4   9  19  37  64  87 125 171 203 272 336 373
#     4  11  21  38  65  93 131 168 208 277 337 383
#     4  11  23  42  67  94 128 172 227 270 323 406
#
# _framework density 23.305727999999998
#
# number of rings (size 3 to 8) (size 9 to 14) (size 15 to 20)
#    0.000    1.600    4.000    2.400    0.000    0.800 
#    0.000    5.000    4.400    0.000    0.000    0.000 
#    0.000    0.000    0.000    0.000    0.000    0.000 
#
# Total GULP energy -111399.236467 kJ/mol
# GULP energy per Si atom -5569.961823 kJ/mol
# Density = 2.325268 g / cm^3
# Si number density = 23.305728 Si / 1000 Ang^3
#
#
#
# Elastic Constant Matrix: (Units=GPa)
#
#
# Indices 1 2 3 4 5 6 
#
# 1 114.0527 30.6709 30.3381 0.0000 -8.6841 0.0000
# 2 30.6709 87.7130 29.6858 0.0000 -15.3217 0.0000
# 3 30.3381 29.6858 139.1147 0.0000 -35.2614 0.0000
# 4 0.0000 0.0000 0.0000 44.9179 0.0000 -10.5234
# 5 -8.6841 -15.3217 -35.2614 0.0000 33.7083 0.0000
# 6 0.0000 0.0000 0.0000 -10.5234 0.0000 29.6782
#
#
#
# Elastic Compliance Matrix: (Units=1/GPa)
#
#
# Indices 1 2 3 4 5 6 
#
# 1 0.009983 -0.003021 -0.001672 0.000000 -0.000550 0.000000
# 2 -0.003021 0.013585 -0.001187 0.000000 0.004155 0.000000
# 3 -0.001672 -0.001187 0.010288 0.000000 0.009792 0.000000
# 4 0.000000 0.000000 0.000000 0.024280 0.000000 0.008609
# 5 -0.000550 0.004155 0.009792 0.000000 0.041656 0.000000
# 6 0.000000 0.000000 0.000000 0.008609 0.000000 0.036747
#
#
# Mechanical properties :
#
#
# Convention : Reuss Voigt Hill
#
# Bulk Modulus (GPa) = 45.25663 58.02998 51.64330
# Shear Modulus (GPa) = 32.12032 38.33992 35.23012
#
# Velocity S-wave (km/s) = 3.71646 4.06037 3.89221
# Velocity P-wave (km/s) = 6.15442 6.85096 6.51201
#
# Compressibility (1/GPa) = 0.02209621
#
# Stress axis : x y z
#
# Youngs Moduli (GPa) = 100.16884 73.61233 97.19902
#
# Poissons Ratio (x) = 0.22239 0.16251
# Poissons Ratio (y) = 0.30262 0.11536
# Poissons Ratio (z) = 0.16747 0.08737
#
# Static dielectric constant tensor:
#      x y z
#    x 1.929800 0.000000 -0.025800 
#    y 0.000000 1.964960 0.000000 
#    z -0.025800 0.000000 1.904860 
# 
# From -- ./inp_files/150780.got.cif
#   From: 2010.05.17/outbox.cif.g08.bks.cpg/sg15_76_cif.got.tgz:150780.got - 2010.06.03 18:47:42.
