data_PCOD9292042
_publ_section_title
;
Structure prediction by ZEFSAII (Michael W. Deem and Ramdas Pophale) SiO2 
 PCOD9292042
Probable space group: C 2/C
;
_chemical_formula_sum "Si O2"
_cell_formula_units_Z 44
_cell_length_a 13.081680
_cell_length_b 9.197470
_cell_length_c 22.374699
_cell_angle_alpha 90.000000
_cell_angle_beta 138.918168
_cell_angle_gamma 90.000000
_cell_volume 1769.068043
_symmetry_space_group_name_H-M "C 2/C"
_symmetry_group_IT_number 15
_symmetry_cell_setting 'monoclinic'
loop_
_space_group_symop_operation_xyz
x,y,z
-x,y,1/2-z
-x,-y,-z
x,-y,1/2+z
1/2+x,1/2+y,z
1/2-x,1/2+y,1/2-z
1/2-x,1/2-y,-z
1/2+x,1/2-y,1/2+z
loop_
_atom_site_type_symbol
_atom_site_label
_atom_site_fract_x
_atom_site_fract_y
_atom_site_fract_z
Si Si1 0.310793 0.342135 0.446136
Si Si2 0.500000 0.044924 0.750000
Si Si3 0.513242 0.772552 0.942808
Si Si4 0.806292 0.356814 0.756199
Si Si5 0.759171 0.978337 0.549430
Si Si6 0.561376 0.569039 0.689609
O O1 0.149903 0.368004 0.339272
O O2 0.461212 0.340877 0.469791
O O3 0.318557 0.175786 0.470824
O O4 0.299900 0.450226 0.497156
O O5 0.431762 0.944779 0.772894
O O6 0.357992 0.852195 0.848713
O O7 0.545118 0.681572 0.896693
O O8 0.642086 0.891045 0.011590
O O9 0.648415 0.447511 0.688857
O O10 0.810695 0.189637 0.734354
O O11 0.917304 0.992628 0.657956
#
# Coordination Sequence:
#
# PCOD9292042 Si02
#       6
#     8   4   8   8   8   8
#     4  11  24  40  73  95 138 184 227 285 354 417
#     4  12  20  46  64  98 134 186 230 276 354 420
#     4  10  22  43  65  95 134 171 229 286 336 423
#     4  10  23  42  65  97 132 177 225 284 331 427
#     4  11  24  43  66 105 134 180 229 293 350 414
#     4  10  23  42  68  92 138 171 222 280 338 408
#
# _framework density 24.871850999999999
#
# number of rings (size 3 to 8) (size 9 to 14) (size 15 to 20)
#    1.091    0.364    3.636    1.091    5.091    0.727 
#    6.545    0.000    0.000    0.000    0.000    0.000 
#    0.000    0.000    0.000    0.000    0.000    0.000 
#
# Total GULP energy -122529.734341 kJ/mol
# GULP energy per Si atom -5569.533379 kJ/mol
# Density = 2.481524 g / cm^3
# Si number density = 24.871851 Si / 1000 Ang^3
#
#
#
# Elastic Constant Matrix: (Units=GPa)
#
#
# Indices 1 2 3 4 5 6 
#
# 1 55.4720 5.0020 25.4509 0.0000 5.2450 0.0000
# 2 5.0020 87.6256 40.9526 0.0000 13.1833 0.0000
# 3 25.4509 40.9526 77.2736 0.0000 0.0331 0.0000
# 4 0.0000 0.0000 0.0000 27.2730 0.0000 9.6819
# 5 5.2450 13.1833 0.0331 0.0000 30.6566 0.0000
# 6 0.0000 0.0000 0.0000 9.6819 0.0000 33.9777
#
#
#
# Elastic Compliance Matrix: (Units=1/GPa)
#
#
# Indices 1 2 3 4 5 6 
#
# 1 0.022582 0.004022 -0.009567 0.000000 -0.005583 0.000000
# 2 0.004022 0.017309 -0.010494 0.000000 -0.008120 0.000000
# 3 -0.009567 -0.010494 0.021651 0.000000 0.006126 0.000000
# 4 0.000000 0.000000 0.000000 0.040793 0.000000 -0.011624
# 5 -0.005583 -0.008120 0.006126 0.000000 0.037060 0.000000
# 6 0.000000 0.000000 0.000000 -0.011624 0.000000 0.032743
#
#
# Mechanical properties :
#
#
# Convention : Reuss Voigt Hill
#
# Bulk Modulus (GPa) = 33.94048 40.35357 37.14702
# Shear Modulus (GPa) = 23.36049 28.31250 25.83650
#
# Velocity S-wave (km/s) = 3.06802 3.37758 3.22651
# Velocity P-wave (km/s) = 5.12114 5.60986 5.37106
#
# Compressibility (1/GPa) = 0.02946335
#
# Stress axis : x y z
#
# Youngs Moduli (GPa) = 44.28402 57.77357 46.18733
#
# Poissons Ratio (x) = -0.23236 0.44185
# Poissons Ratio (y) = -0.17811 0.48471
# Poissons Ratio (z) = 0.42365 0.60630
#
# Static dielectric constant tensor:
#      x y z
#    x 2.087050 0.000000 -0.087400 
#    y 0.000000 2.024910 0.000000 
#    z -0.087400 0.000000 2.212250 
# 
# From -- ./inp_files/295326.got.cif
#   From: 2010.05.17/outbox.cif.g08.bks.cpg/sg15_148_cif.got.tgz:295326.got - 2010.06.03 18:47:42.
