data_PCOD9292145
_publ_section_title
;
Structure prediction by ZEFSAII (Michael W. Deem and Ramdas Pophale) SiO2 
 PCOD9292145
Probable space group: C 2/C
;
_chemical_formula_sum "Si O2"
_cell_formula_units_Z 44
_cell_length_a 21.811169
_cell_length_b 8.390992
_cell_length_c 12.770099
_cell_angle_alpha 90.000000
_cell_angle_beta 126.782088
_cell_angle_gamma 90.000000
_cell_volume 1871.866594
_symmetry_space_group_name_H-M "C 2/C"
_symmetry_group_IT_number 15
_symmetry_cell_setting 'monoclinic'
loop_
_space_group_symop_operation_xyz
x,y,z
-x,y,1/2-z
-x,-y,-z
x,-y,1/2+z
1/2+x,1/2+y,z
1/2-x,1/2+y,1/2-z
1/2-x,1/2-y,-z
1/2+x,1/2-y,1/2+z
loop_
_atom_site_type_symbol
_atom_site_label
_atom_site_fract_x
_atom_site_fract_y
_atom_site_fract_z
Si Si1 0.500000 0.961948 0.750000
Si Si2 0.292200 0.598334 0.725837
Si Si3 0.579641 0.806300 0.181235
Si Si4 0.373448 0.760317 0.502563
Si Si5 0.740091 0.765724 0.366904
Si Si6 0.914937 0.031069 0.697362
O O1 0.479031 0.072038 0.828537
O O2 0.424711 0.865911 0.634794
O O3 0.212890 0.674910 0.601264
O O4 0.278347 0.409157 0.699100
O O5 0.301990 0.663900 0.852361
O O6 0.370102 0.626050 0.741939
O O7 0.665348 0.876316 0.278098
O O8 0.580038 0.649436 0.255761
O O9 0.578727 0.760154 0.057851
O O10 0.367749 0.584966 0.547301
O O11 0.750000 0.750000 0.500000
O O12 0.000000 0.074205 0.750000
#
# Coordination Sequence:
#
# PCOD9292145 Si02
#       6
#     4   8   8   8   8   8
#     4  12  22  44  66  98 138 180 222 288 336 400
#     4  10  24  43  71 100 139 178 228 281 335 409
#     4  10  24  42  65  95 139 178 222 278 337 407
#     4  11  24  44  67 103 132 178 232 277 341 397
#     4  10  22  43  67 102 135 180 228 276 343 400
#     4  11  23  45  66 101 135 180 224 274 340 406
#
# _framework density 23.505948
#
# number of rings (size 3 to 8) (size 9 to 14) (size 15 to 20)
#    0.000    1.455    1.818    2.182    0.000   13.818 
#    6.545    0.000    0.000    0.000    0.000    0.000 
#    0.000    0.000    0.000    0.000    0.000    0.000 
#
# Total GULP energy -122665.774755 kJ/mol
# GULP energy per Si atom -5575.717034 kJ/mol
# Density = 2.345245 g / cm^3
# Si number density = 23.505948 Si / 1000 Ang^3
#
#
#
# Elastic Constant Matrix: (Units=GPa)
#
#
# Indices 1 2 3 4 5 6 
#
# 1 174.8300 44.0772 40.8392 0.0000 -30.8655 0.0000
# 2 44.0772 78.3591 40.0747 0.0000 -15.8596 0.0000
# 3 40.8392 40.0747 93.1479 0.0000 -35.9183 0.0000
# 4 0.0000 0.0000 0.0000 27.4123 0.0000 -21.4405
# 5 -30.8655 -15.8596 -35.9183 0.0000 49.4342 0.0000
# 6 0.0000 0.0000 0.0000 -21.4405 0.0000 -33.8857
#
#
#
# Elastic Compliance Matrix: (Units=1/GPa)
#
#
# Indices 1 2 3 4 5 6 
#
# 1 0.007186 -0.003097 -0.000655 0.000000 0.003018 0.000000
# 2 -0.003097 0.017697 -0.006686 0.000000 -0.001113 0.000000
# 3 -0.000655 -0.006686 0.017941 0.000000 0.010482 0.000000
# 4 0.000000 0.000000 0.000000 0.024403 0.000000 -0.015441
# 5 0.003018 -0.001113 0.010482 0.000000 0.029372 0.000000
# 6 0.000000 0.000000 0.000000 -0.015441 0.000000 -0.019741
#
#
# Mechanical properties :
#
#
# Convention : Reuss Voigt Hill
#
# Bulk Modulus (GPa) = 45.55688 66.25769 55.90728
# Shear Modulus (GPa) = 47.59673 23.34857 35.47265
#
# Velocity S-wave (km/s) = 4.50475 3.15509 3.88892
# Velocity P-wave (km/s) = 6.81763 6.44373 6.63331
#
# Compressibility (1/GPa) = 0.02195058
#
# Stress axis : x y z
#
# Youngs Moduli (GPa) = 139.15429 56.50534 55.73857
#
# Poissons Ratio (x) = 0.17498 0.03650
# Poissons Ratio (y) = 0.43091 0.37264
# Poissons Ratio (z) = 0.09112 0.37777
#
# Static dielectric constant tensor:
#      x y z
#    x 1.926580 0.000000 0.023240 
#    y 0.000000 1.931560 0.000000 
#    z 0.023240 0.000000 1.977630 
# 
# From -- ./inp_files/110166.got.cif
#   From: 2010.05.17/outbox.cif.g08.bks.cpg/sg15_56_cif.got.tgz:110166.got - 2010.06.03 18:47:42.
