data_PCOD9292901
_publ_section_title
;
Structure prediction by ZEFSAII (Michael W. Deem and Ramdas Pophale) SiO2 
 PCOD9292901
Probable space group: C 2/C
;
_chemical_formula_sum "Si O2"
_cell_formula_units_Z 56
_cell_length_a 18.258108
_cell_length_b 7.932457
_cell_length_c 27.030122
_cell_angle_alpha 90.000000
_cell_angle_beta 39.349970
_cell_angle_gamma 90.000000
_cell_volume 2482.211586
_symmetry_space_group_name_H-M "C 2/C"
_symmetry_group_IT_number 15
_symmetry_cell_setting 'monoclinic'
loop_
_space_group_symop_operation_xyz
x,y,z
-x,y,1/2-z
-x,-y,-z
x,-y,1/2+z
1/2+x,1/2+y,z
1/2-x,1/2+y,1/2-z
1/2-x,1/2-y,-z
1/2+x,1/2-y,1/2+z
loop_
_atom_site_type_symbol
_atom_site_label
_atom_site_fract_x
_atom_site_fract_y
_atom_site_fract_z
Si Si1 0.920742 0.537004 0.994350
Si Si2 0.724005 0.698981 0.443972
Si Si3 0.349031 0.492421 0.744451
Si Si4 0.882045 0.379700 0.183984
Si Si5 0.594583 0.581010 0.597413
Si Si6 0.381057 0.029649 0.292341
Si Si7 0.177693 0.833894 0.636463
O O1 0.001163 0.594311 0.907552
O O2 0.855910 0.362218 0.017126
O O3 0.816371 0.665081 0.059898
O O4 0.000000 0.500000 0.000000
O O5 0.652185 0.564808 0.513466
O O6 0.837684 0.760556 0.414286
O O7 0.770563 0.635925 0.367347
O O8 0.226826 0.566719 0.792412
O O9 0.365369 0.312429 0.709380
O O10 0.457702 0.603346 0.670437
O O11 0.352847 0.453723 0.800938
O O12 0.882886 0.489166 0.233721
O O13 0.624331 0.419549 0.615805
O O14 0.500000 0.108445 0.250000
O O15 0.368872 0.850952 0.327714
#
# Coordination Sequence:
#
# PCOD9292901 Si02
#       7
#     8   8   8   8   8   8   8
#     4  11  24  46  68  97 141 179 228 273 336 407
#     4  10  26  43  68 104 127 179 226 277 337 403
#     4  11  24  43  66 101 130 180 221 275 339 398
#     4  11  27  43  68 102 135 178 223 278 338 399
#     4  10  23  44  68  96 135 172 228 273 332 402
#     4  11  26  44  68 102 137 169 227 286 337 400
#     4  10  22  44  69  97 132 176 229 268 340 403
#
# _framework density 22.560525999999999
#
# number of rings (size 3 to 8) (size 9 to 14) (size 15 to 20)
#    0.000    1.429    1.429    2.143   12.000    2.857 
#    0.000    1.429    0.000    0.000    0.000    0.000 
#    0.000    0.000    0.000    0.000    0.000    0.000 
#
# Total GULP energy -156813.556723 kJ/mol
# GULP energy per Si atom -5600.484169 kJ/mol
# Density = 2.250918 g / cm^3
# Si number density = 22.560526 Si / 1000 Ang^3
#
#
#
# Elastic Constant Matrix: (Units=GPa)
#
#
# Indices 1 2 3 4 5 6 
#
# 1 51.7095 8.6227 28.0741 -0.0001 -9.5640 0.0006
# 2 8.6227 58.5057 32.3634 -0.0001 2.7002 0.0013
# 3 28.0741 32.3634 183.4288 0.0001 -8.6794 -0.0001
# 4 -0.0001 -0.0001 0.0001 38.1150 0.0001 3.5878
# 5 -9.5640 2.7002 -8.6794 0.0001 41.3743 -0.0002
# 6 0.0006 0.0013 -0.0001 3.5878 -0.0002 15.9726
#
#
#
# Elastic Compliance Matrix: (Units=1/GPa)
#
#
# Indices 1 2 3 4 5 6 
#
# 1 0.022043 -0.001903 -0.002819 0.000000 0.004628 -0.000001
# 2 -0.001903 0.019263 -0.003220 0.000000 -0.002373 -0.000002
# 3 -0.002819 -0.003220 0.006495 0.000000 0.000921 0.000000
# 4 0.000000 0.000000 0.000000 0.026803 0.000000 -0.006020
# 5 0.004628 -0.002373 0.000921 0.000000 0.025587 0.000000
# 6 -0.000001 -0.000002 0.000000 -0.006020 0.000000 0.063959
#
#
# Mechanical properties :
#
#
# Convention : Reuss Voigt Hill
#
# Bulk Modulus (GPa) = 31.33080 47.97384 39.65232
# Shear Modulus (GPa) = 26.22288 34.06462 30.14375
#
# Velocity S-wave (km/s) = 3.41300 3.88999 3.65927
# Velocity P-wave (km/s) = 5.42670 6.44101 5.95549
#
# Compressibility (1/GPa) = 0.03191748
#
# Stress axis : x y z
#
# Youngs Moduli (GPa) = 45.36675 51.91201 153.96917
#
# Poissons Ratio (x) = 0.09879 0.43403
# Poissons Ratio (y) = 0.08633 0.49574
# Poissons Ratio (z) = 0.12788 0.16714
#
# Static dielectric constant tensor:
#      x y z
#    x 1.821650 0.000000 0.010620 
#    y 0.000000 1.849100 0.000000 
#    z 0.010620 0.000000 1.850870 
# 
# From -- ./inp_files/317488.got.cif
#   From: 2010.05.17/outbox.cif.g08.bks.cpg/sg15_159_cif.got.tgz:317488.got - 2010.06.03 18:47:42.
