data_PCOD9292850
_publ_section_title
;
Structure prediction by ZEFSAII (Michael W. Deem and Ramdas Pophale) SiO2 
 PCOD9292850
Probable space group: C 2/C
;
_chemical_formula_sum "Si O2"
_cell_formula_units_Z 36
_cell_length_a 32.864702
_cell_length_b 7.867656
_cell_length_c 12.882797
_cell_angle_alpha 90.000000
_cell_angle_beta 151.989772
_cell_angle_gamma 90.000000
_cell_volume 1564.372927
_symmetry_space_group_name_H-M "C 2/C"
_symmetry_group_IT_number 15
_symmetry_cell_setting 'monoclinic'
loop_
_space_group_symop_operation_xyz
x,y,z
-x,y,1/2-z
-x,-y,-z
x,-y,1/2+z
1/2+x,1/2+y,z
1/2-x,1/2+y,1/2-z
1/2-x,1/2-y,-z
1/2+x,1/2-y,1/2+z
loop_
_atom_site_type_symbol
_atom_site_label
_atom_site_fract_x
_atom_site_fract_y
_atom_site_fract_z
Si Si1 0.422025 0.096358 0.770992
Si Si2 0.500000 0.022834 0.250000
Si Si3 0.690400 0.230403 0.468963
Si Si4 0.338841 0.569031 0.163289
Si Si5 0.321990 0.770696 0.318586
O O1 0.453632 0.101449 0.725560
O O2 0.398364 0.276399 0.761498
O O3 0.500000 0.000000 0.000000
O O4 0.417792 0.142938 0.034573
O O5 0.750000 0.250000 0.500000
O O6 0.626964 0.388341 0.298973
O O7 0.653639 0.041291 0.386930
O O8 0.712087 0.258174 0.640440
O O9 0.247097 0.609491 0.897766
O O10 0.328735 0.600511 0.263772
#
# Coordination Sequence:
#
# PCOD9292850 Si02
#       5
#     8   4   8   8   8
#     4  11  24  46  68  99 139 179 229 288 351 407
#     4  10  22  44  68  98 142 176 224 298 344 402
#     4  11  26  42  70 103 136 183 237 286 342 417
#     4  11  24  44  71  99 138 187 228 281 351 418
#     4  10  23  43  68 102 138 177 233 287 345 414
#
# _framework density 23.012416000000002
#
# number of rings (size 3 to 8) (size 9 to 14) (size 15 to 20)
#    0.000    1.333    2.222    2.667    9.333    0.889 
#    0.000    1.111    0.000    0.000    0.000    0.000 
#    0.000    0.000    0.000    0.000    0.000    0.000 
#
# Total GULP energy -100353.679608 kJ/mol
# GULP energy per Si atom -5575.204423 kJ/mol
# Density = 2.296004 g / cm^3
# Si number density = 23.012416 Si / 1000 Ang^3
#
#
#
# Elastic Constant Matrix: (Units=GPa)
#
#
# Indices 1 2 3 4 5 6 
#
# 1 190.7279 42.8080 40.6564 0.0000 -32.8841 0.0000
# 2 42.8080 84.8660 -11.8669 0.0000 -10.0117 0.0000
# 3 40.6564 -11.8669 71.6578 0.0000 -1.0241 0.0000
# 4 0.0000 0.0000 0.0000 17.4186 0.0000 -4.5968
# 5 -32.8841 -10.0117 -1.0241 0.0000 50.4464 0.0000
# 6 0.0000 0.0000 0.0000 -4.5968 0.0000 25.8481
#
#
#
# Elastic Compliance Matrix: (Units=1/GPa)
#
#
# Indices 1 2 3 4 5 6 
#
# 1 0.008059 -0.004289 -0.005222 0.000000 0.004297 0.000000
# 2 -0.004289 0.014651 0.004863 0.000000 0.000211 0.000000
# 3 -0.005222 0.004863 0.017693 0.000000 -0.002079 0.000000
# 4 0.000000 0.000000 0.000000 0.060237 0.000000 0.010713
# 5 0.004297 0.000211 -0.002079 0.000000 0.022623 0.000000
# 6 0.000000 0.000000 0.000000 0.010713 0.000000 0.040593
#
#
# Mechanical properties :
#
#
# Convention : Reuss Voigt Hill
#
# Bulk Modulus (GPa) = 32.14496 54.49407 43.31952
# Shear Modulus (GPa) = 27.24471 37.11956 32.18214
#
# Velocity S-wave (km/s) = 3.44454 4.02060 3.74367
# Velocity P-wave (km/s) = 5.46064 6.72944 6.12797
#
# Compressibility (1/GPa) = 0.03110908
#
# Stress axis : x y z
#
# Youngs Moduli (GPa) = 124.07799 68.25304 56.51857
#
# Poissons Ratio (x) = 0.29271 0.29511
# Poissons Ratio (y) = 0.53212 -0.27483
# Poissons Ratio (z) = 0.64787 -0.33189
#
# Static dielectric constant tensor:
#      x y z
#    x 1.808830 0.000000 0.154010 
#    y 0.000000 1.880630 0.000000 
#    z 0.154010 0.000000 1.876670 
# 
# From -- ./inp_files/68196.got.cif
#   From: 2010.05.17/outbox.cif.g08.bks.cpg/sg15_35_cif.got.tgz:68196.got - 2010.06.03 18:47:42.
