data_PCOD9292752
_publ_section_title
;
Structure prediction by ZEFSAII (Michael W. Deem and Ramdas Pophale) SiO2 
 PCOD9292752
Probable space group: C 2/C
;
_chemical_formula_sum "Si O2"
_cell_formula_units_Z 48
_cell_length_a 15.519734
_cell_length_b 9.693305
_cell_length_c 28.399869
_cell_angle_alpha 90.000000
_cell_angle_beta 147.529067
_cell_angle_gamma 90.000000
_cell_volume 2293.733614
_symmetry_space_group_name_H-M "C 2/C"
_symmetry_group_IT_number 15
_symmetry_cell_setting 'monoclinic'
loop_
_space_group_symop_operation_xyz
x,y,z
-x,y,1/2-z
-x,-y,-z
x,-y,1/2+z
1/2+x,1/2+y,z
1/2-x,1/2+y,1/2-z
1/2-x,1/2-y,-z
1/2+x,1/2-y,1/2+z
loop_
_atom_site_type_symbol
_atom_site_label
_atom_site_fract_x
_atom_site_fract_y
_atom_site_fract_z
Si Si1 0.201115 0.689623 0.340922
Si Si2 0.685416 0.887870 0.342935
Si Si3 0.853645 0.607455 0.832760
Si Si4 0.288180 0.901655 0.033289
Si Si5 0.715923 0.204317 0.187875
Si Si6 0.866604 0.830518 0.020784
O O1 0.242935 0.530938 0.344932
O O2 0.284190 0.800887 0.344448
O O3 0.290773 0.691429 0.433319
O O4 0.000000 0.703513 0.250000
O O5 0.500000 0.889826 0.250000
O O6 0.702107 0.897599 0.405927
O O7 0.744598 0.747540 0.347303
O O8 0.818499 0.702229 0.770975
O O9 0.770463 0.457203 0.795423
O O10 0.043211 0.568066 0.915384
O O11 0.250000 0.750000 0.000000
O O12 0.148058 0.014757 0.964958
O O13 0.536958 0.263145 0.108035
O O14 0.750000 0.750000 0.000000
#
# Coordination Sequence:
#
# PCOD9292752 Si02
#       6
#     8   8   8   8   8   8
#     4  10  24  44  71  97 137 180 224 276 342 401
#     4  10  22  44  67  95 137 179 219 272 336 403
#     4  12  26  45  69 102 134 181 225 284 335 402
#     4  11  26  43  69 100 138 176 226 281 338 401
#     4  12  26  42  73  99 136 177 233 276 339 401
#     4  11  24  45  69  99 137 181 221 275 342 403
#
# _framework density 20.926580999999999
#
# number of rings (size 3 to 8) (size 9 to 14) (size 15 to 20)
#    0.000    1.000    3.333    2.000    9.333    4.000 
#    0.000    0.000    0.000    0.000    0.000    0.000 
#    0.000    0.000    0.000    0.000    0.000    0.000 
#
# Total GULP energy -133606.764792 kJ/mol
# GULP energy per Si atom -5566.948533 kJ/mol
# Density = 2.087895 g / cm^3
# Si number density = 20.926581 Si / 1000 Ang^3
#
#
#
# Elastic Constant Matrix: (Units=GPa)
#
#
# Indices 1 2 3 4 5 6 
#
# 1 71.5433 31.7297 -14.9976 0.0000 -1.3550 0.0000
# 2 31.7297 126.1143 -16.8315 0.0000 27.2909 0.0000
# 3 -14.9976 -16.8315 -1.1947 0.0000 32.3405 0.0000
# 4 0.0000 0.0000 0.0000 33.2021 0.0000 5.5728
# 5 -1.3550 27.2909 32.3405 0.0000 -22.7608 0.0000
# 6 0.0000 0.0000 0.0000 5.5728 0.0000 58.3909
#
#
#
# Elastic Compliance Matrix: (Units=1/GPa)
#
#
# Indices 1 2 3 4 5 6 
#
# 1 0.018094 -0.004693 0.009142 0.000000 0.006287 0.000000
# 2 -0.004693 0.007970 -0.005682 0.000000 0.001762 0.000000
# 3 0.009142 -0.005682 0.028586 0.000000 0.033259 0.000000
# 4 0.000000 0.000000 0.000000 0.030609 0.000000 -0.002921
# 5 0.006287 0.001762 0.033259 0.000000 0.005061 0.000000
# 6 0.000000 0.000000 0.000000 -0.002921 0.000000 0.017405
#
#
# Mechanical properties :
#
#
# Convention : Reuss Voigt Hill
#
# Bulk Modulus (GPa) = 19.16253 21.80710 20.48482
# Shear Modulus (GPa) = 39.18952 26.87059 33.03005
#
# Velocity S-wave (km/s) = 4.33218 3.58724 3.97719
# Velocity P-wave (km/s) = 5.84813 5.25368 5.55886
#
# Compressibility (1/GPa) = 0.05218519
#
# Stress axis : x y z
#
# Youngs Moduli (GPa) = 55.26587 125.46603 34.98258
#
# Poissons Ratio (x) = 0.58877 -0.31983
# Poissons Ratio (y) = 0.25934 0.19878
# Poissons Ratio (z) = -0.50527 0.71294
#
# Static dielectric constant tensor:
#      x y z
#    x 1.789270 0.000000 -0.003140 
#    y 0.000000 1.944600 0.000000 
#    z -0.003140 0.000000 1.747410 
# 
# From -- ./inp_files/295457.got.cif
#   From: 2010.05.17/outbox.cif.g08.bks.cpg/sg15_148_cif.got.tgz:295457.got - 2010.06.03 18:47:42.
