data_PCOD9292721
_publ_section_title
;
Structure prediction by ZEFSAII (Michael W. Deem and Ramdas Pophale) SiO2 
 PCOD9292721
Probable space group: C 2/C
;
_chemical_formula_sum "Si O2"
_cell_formula_units_Z 32
_cell_length_a 9.015021
_cell_length_b 12.804617
_cell_length_c 12.209337
_cell_angle_alpha 90.000000
_cell_angle_beta 56.370618
_cell_angle_gamma 90.000000
_cell_volume 1173.495159
_symmetry_space_group_name_H-M "C 2/C"
_symmetry_group_IT_number 15
_symmetry_cell_setting 'monoclinic'
loop_
_space_group_symop_operation_xyz
x,y,z
-x,y,1/2-z
-x,-y,-z
x,-y,1/2+z
1/2+x,1/2+y,z
1/2-x,1/2+y,1/2-z
1/2-x,1/2-y,-z
1/2+x,1/2-y,1/2+z
loop_
_atom_site_type_symbol
_atom_site_label
_atom_site_fract_x
_atom_site_fract_y
_atom_site_fract_z
Si Si1 0.000000 0.065478 0.750000
Si Si2 0.571511 0.950696 0.083525
Si Si3 0.791663 0.288126 0.172606
Si Si4 0.041590 0.128683 0.110455
Si Si5 0.000000 0.637306 0.250000
O O1 0.833451 0.136880 0.847819
O O2 0.036066 0.987872 0.837286
O O3 0.612274 0.053985 0.135812
O O4 0.408025 0.875601 0.187723
O O5 0.500000 0.000000 0.000000
O O6 0.750687 0.884646 0.994704
O O7 0.634172 0.205972 0.269731
O O8 0.941545 0.206949 0.070959
O O9 0.000000 0.174233 0.250000
#
# Coordination Sequence:
#
# PCOD9292721 Si02
#       5
#     4   8   8   8   4
#     4   9  20  41  62  92 138 171 220 285 332 400
#     4  12  24  48  70 102 145 176 231 292 335 411
#     4  11  22  43  67  99 135 181 227 278 343 409
#     4  10  22  44  67 100 138 181 225 285 342 400
#     4  11  28  45  70 106 134 187 232 273 356 414
#
# _framework density 27.268968999999998
#
# number of rings (size 3 to 8) (size 9 to 14) (size 15 to 20)
#    0.750    0.500    2.500    3.750    1.750    2.000 
#    9.000    0.000    0.000    0.000    0.000    0.000 
#    0.000    0.000    0.000    0.000    0.000    0.000 
#
# Total GULP energy -89100.432289 kJ/mol
# GULP energy per Si atom -5568.777018 kJ/mol
# Density = 2.720690 g / cm^3
# Si number density = 27.268969 Si / 1000 Ang^3
#
#
#
# Elastic Constant Matrix: (Units=GPa)
#
#
# Indices 1 2 3 4 5 6 
#
# 1 161.0727 91.0169 41.1665 0.0000 -39.6372 0.0000
# 2 91.0169 200.2070 31.0937 0.0000 -17.3412 0.0000
# 3 41.1665 31.0937 80.5335 0.0000 -17.1704 0.0000
# 4 0.0000 0.0000 0.0000 7.7838 0.0000 -20.9360
# 5 -39.6372 -17.3412 -17.1704 0.0000 38.9919 0.0000
# 6 0.0000 0.0000 0.0000 -20.9360 0.0000 89.7951
#
#
#
# Elastic Compliance Matrix: (Units=1/GPa)
#
#
# Indices 1 2 3 4 5 6 
#
# 1 0.011150 -0.003965 -0.002349 0.000000 0.008537 0.000000
# 2 -0.003965 0.006816 -0.000903 0.000000 -0.001396 0.000000
# 3 -0.002349 -0.000903 0.014757 0.000000 0.003709 0.000000
# 4 0.000000 0.000000 0.000000 0.344527 0.000000 0.080328
# 5 0.008537 -0.001396 0.003709 0.000000 0.035337 0.000000
# 6 0.000000 0.000000 0.000000 0.080328 0.000000 0.029865
#
#
# Mechanical properties :
#
#
# Convention : Reuss Voigt Hill
#
# Bulk Modulus (GPa) = 54.67123 85.37417 70.02270
# Shear Modulus (GPa) = 10.79956 45.88324 28.34140
#
# Velocity S-wave (km/s) = 1.99223 4.10642 3.22736
# Velocity P-wave (km/s) = 5.03829 7.33892 6.29461
#
# Compressibility (1/GPa) = 0.01829115
#
# Stress axis : x y z
#
# Youngs Moduli (GPa) = 89.68909 146.70314 67.76349
#
# Poissons Ratio (x) = 0.58162 0.15915
# Poissons Ratio (y) = 0.35558 0.06118
# Poissons Ratio (z) = 0.21064 0.13246
#
# Static dielectric constant tensor:
#      x y z
#    x 2.153890 0.000000 0.090880 
#    y 0.000000 2.114670 0.000000 
#    z 0.090880 0.000000 2.267450 
# 
# From -- ./inp_files/131969.got.cif
#   From: 2010.05.17/outbox.cif.g08.bks.cpg/sg15_66_cif.got.tgz:131969.got - 2010.06.03 18:47:42.
