data_PCOD9292061
_publ_section_title
;
Structure prediction by ZEFSAII (Michael W. Deem and Ramdas Pophale) SiO2 
 PCOD9292061
Probable space group: C 2/C
;
_chemical_formula_sum "Si O2"
_cell_formula_units_Z 60
_cell_length_a 16.867624
_cell_length_b 11.979252
_cell_length_c 14.735621
_cell_angle_alpha 90.000000
_cell_angle_beta 66.310482
_cell_angle_gamma 90.000000
_cell_volume 2726.606066
_symmetry_space_group_name_H-M "C 2/C"
_symmetry_group_IT_number 15
_symmetry_cell_setting 'monoclinic'
loop_
_space_group_symop_operation_xyz
x,y,z
-x,y,1/2-z
-x,-y,-z
x,-y,1/2+z
1/2+x,1/2+y,z
1/2-x,1/2+y,1/2-z
1/2-x,1/2-y,-z
1/2+x,1/2-y,1/2+z
loop_
_atom_site_type_symbol
_atom_site_label
_atom_site_fract_x
_atom_site_fract_y
_atom_site_fract_z
Si Si1 0.932625 0.438809 0.903511
Si Si2 0.689825 0.937052 0.163584
Si Si3 0.125795 0.521741 0.379532
Si Si4 0.500000 0.500000 0.000000
Si Si5 0.412601 0.516078 0.349411
Si Si6 0.849254 0.784730 0.434561
Si Si7 0.161518 0.101175 0.385798
Si Si8 0.275210 0.686294 0.331354
O O1 0.895665 0.534281 0.854629
O O2 0.903204 0.320781 0.876211
O O3 0.033457 0.447019 0.878784
O O4 0.887363 0.453059 0.022455
O O5 0.720950 0.811868 0.135632
O O6 0.674687 0.955479 0.277825
O O7 0.759874 0.031884 0.106590
O O8 0.181329 0.630205 0.379603
O O9 0.561283 0.534733 0.058041
O O10 0.412714 0.514432 0.105606
O O11 0.500000 0.518087 0.250000
O O12 0.365730 0.394133 0.366821
O O13 0.344256 0.608876 0.350810
O O14 0.750000 0.750000 0.500000
O O15 0.884734 0.821351 0.517793
O O16 0.196456 0.174195 0.287298
#
# Coordination Sequence:
#
# PCOD9292061 Si02
#       8
#     8   8   8   4   8   8   8   8
#     4  11  23  46  68  98 136 183 228 279 347 410
#     4  11  24  44  71  99 138 182 224 283 346 414
#     4  10  25  45  66 103 135 177 234 278 346 419
#     4  10  22  44  64  96 138 164 228 278 342 416
#     4  11  24  43  68 102 134 179 230 287 348 415
#     4  11  22  42  70  94 135 182 227 283 337 410
#     4  10  22  43  66 100 131 180 225 279 347 409
#     4  11  24  44  69 100 140 177 228 291 347 411
#
# _framework density 22.005378
#
# number of rings (size 3 to 8) (size 9 to 14) (size 15 to 20)
#    0.000    1.333    2.667    2.000    1.867    5.867 
#    9.600    0.000    0.000    0.000    0.000    0.000 
#    0.000    0.000    0.000    0.000    0.000    0.000 
#
# Total GULP energy -167115.231832 kJ/mol
# GULP energy per Si atom -5570.507728 kJ/mol
# Density = 2.195529 g / cm^3
# Si number density = 22.005378 Si / 1000 Ang^3
#
#
#
# Elastic Constant Matrix: (Units=GPa)
#
#
# Indices 1 2 3 4 5 6 
#
# 1 110.4614 43.7798 3.8554 0.0000 10.7272 0.0000
# 2 43.7798 129.5377 5.6860 0.0000 11.9218 0.0000
# 3 3.8554 5.6860 48.6314 0.0000 2.6370 0.0000
# 4 0.0000 0.0000 0.0000 18.9859 0.0000 11.9200
# 5 10.7272 11.9218 2.6370 0.0000 29.7179 0.0000
# 6 0.0000 0.0000 0.0000 11.9200 0.0000 -3.5351
#
#
#
# Elastic Compliance Matrix: (Units=1/GPa)
#
#
# Indices 1 2 3 4 5 6 
#
# 1 0.010632 -0.003353 -0.000317 0.000000 -0.002465 0.000000
# 2 -0.003353 0.009101 -0.000669 0.000000 -0.002382 0.000000
# 3 -0.000317 -0.000669 0.020745 0.000000 -0.001458 0.000000
# 4 0.000000 0.000000 0.000000 0.016898 0.000000 0.056978
# 5 -0.002465 -0.002382 -0.001458 0.000000 0.035624 0.000000
# 6 0.000000 0.000000 0.000000 0.056978 0.000000 -0.090753
#
#
# Mechanical properties :
#
#
# Convention : Reuss Voigt Hill
#
# Bulk Modulus (GPa) = 31.44582 43.91921 37.68251
# Shear Modulus (GPa) = 232.27266 24.72101 128.49684
#
# Velocity S-wave (km/s) = 10.28503 3.35536 7.64985
# Velocity P-wave (km/s) = 12.46449 5.91718 9.75645
#
# Compressibility (1/GPa) = 0.03180073
#
# Stress axis : x y z
#
# Youngs Moduli (GPa) = 94.05473 109.87335 48.20370
#
# Poissons Ratio (x) = 0.36836 0.01529
# Poissons Ratio (y) = 0.31532 0.03226
# Poissons Ratio (z) = 0.02984 0.07353
#
# Static dielectric constant tensor:
#      x y z
#    x 1.856190 0.000000 -0.005700 
#    y 0.000000 1.873140 0.000000 
#    z -0.005700 0.000000 1.844480 
# 
# From -- ./inp_files/161301.got.cif
#   From: 2010.05.17/outbox.cif.g08.bks.cpg/sg15_81_cif.got.tgz:161301.got - 2010.06.03 18:47:42.
