data_PCOD9292010
_publ_section_title
;
Structure prediction by ZEFSAII (Michael W. Deem and Ramdas Pophale) SiO2 
 PCOD9292010
Probable space group: C 2/C
;
_chemical_formula_sum "Si O2"
_cell_formula_units_Z 64
_cell_length_a 18.978798
_cell_length_b 16.811346
_cell_length_c 23.342641
_cell_angle_alpha 90.000000
_cell_angle_beta 158.022178
_cell_angle_gamma 90.000000
_cell_volume 2787.278008
_symmetry_space_group_name_H-M "C 2/C"
_symmetry_group_IT_number 15
_symmetry_cell_setting 'monoclinic'
loop_
_space_group_symop_operation_xyz
x,y,z
-x,y,1/2-z
-x,-y,-z
x,-y,1/2+z
1/2+x,1/2+y,z
1/2-x,1/2+y,1/2-z
1/2-x,1/2-y,-z
1/2+x,1/2-y,1/2+z
loop_
_atom_site_type_symbol
_atom_site_label
_atom_site_fract_x
_atom_site_fract_y
_atom_site_fract_z
Si Si1 0.589007 0.329063 0.677890
Si Si2 0.851222 0.087441 0.471535
Si Si3 0.941968 0.549150 0.772299
Si Si4 0.843037 0.700619 0.261414
Si Si5 0.088269 0.182157 0.879535
Si Si6 0.708901 0.490724 0.260452
Si Si7 0.925852 0.547415 0.032356
Si Si8 0.829444 0.716031 0.665640
O O1 0.702259 0.294870 0.708623
O O2 0.609520 0.423872 0.692043
O O3 0.370857 0.304178 0.513328
O O4 0.686688 0.292804 0.807147
O O5 0.773011 0.161728 0.377957
O O6 0.832692 0.107110 0.525178
O O7 0.729312 0.013101 0.358176
O O8 0.066121 0.066957 0.621002
O O9 0.096696 0.508510 0.929461
O O10 0.884634 0.638471 0.745291
O O11 0.000000 0.555064 0.750000
O O12 0.007243 0.636276 0.400997
O O13 0.931882 0.780272 0.303989
O O14 0.000000 0.168310 0.750000
O O15 0.250000 0.250000 0.000000
O O16 0.895938 0.507269 0.365644
O O17 0.761172 0.456315 0.362100
O O18 0.000000 0.728397 0.750000
#
# Coordination Sequence:
#
# PCOD9292010 Si02
#       8
#     8   8   8   8   8   8   8   8
#     4  11  25  44  70 100 134 170 226 279 334 411
#     4  11  24  42  71  92 135 175 228 279 321 406
#     4  10  23  41  68  95 128 174 220 266 335 399
#     4  10  25  43  66 102 131 181 228 269 338 397
#     4  12  27  44  64  97 142 184 222 275 332 394
#     4  10  22  43  65 103 126 171 224 279 334 388
#     4   9  22  40  68  94 137 166 218 283 331 387
#     4  11  25  46  69  97 135 175 215 274 348 406
#
# _framework density 22.961469000000001
#
# number of rings (size 3 to 8) (size 9 to 14) (size 15 to 20)
#    0.000    1.500    2.500    0.375   10.500    1.500 
#    2.250    0.625    0.000    0.000    0.000    0.000 
#    0.000    0.000    0.000    0.000    0.000    0.000 
#
# Total GULP energy -179026.865382 kJ/mol
# GULP energy per Si atom -5594.589543 kJ/mol
# Density = 2.290921 g / cm^3
# Si number density = 22.961469 Si / 1000 Ang^3
#
#
#
# Elastic Constant Matrix: (Units=GPa)
#
#
# Indices 1 2 3 4 5 6 
#
# 1 67.1887 19.2134 21.9457 -0.0101 -17.3413 0.0029
# 2 19.2134 56.5606 1.4418 0.0125 -2.3517 -0.0006
# 3 21.9457 1.4418 82.6782 -0.0047 -7.4235 -0.0162
# 4 -0.0101 0.0125 -0.0047 21.0586 0.0035 -4.2453
# 5 -17.3413 -2.3517 -7.4235 0.0035 31.9453 0.0039
# 6 0.0029 -0.0006 -0.0162 -4.2453 0.0039 21.0972
#
#
#
# Elastic Compliance Matrix: (Units=1/GPa)
#
#
# Indices 1 2 3 4 5 6 
#
# 1 0.020734 -0.006524 -0.004517 0.000010 0.009726 -0.000006
# 2 -0.006524 0.019790 0.001225 -0.000014 -0.001800 0.000000
# 3 -0.004517 0.001225 0.013339 0.000002 0.000738 0.000011
# 4 0.000010 -0.000014 0.000002 0.049494 -0.000002 0.009959
# 5 0.009726 -0.001800 0.000738 -0.000002 0.036622 -0.000008
# 6 -0.000006 0.000000 0.000011 0.009959 -0.000008 0.049404
#
#
# Mechanical properties :
#
#
# Convention : Reuss Voigt Hill
#
# Bulk Modulus (GPa) = 29.21208 32.40324 30.80766
# Shear Modulus (GPa) = 22.68337 25.74199 24.21268
#
# Velocity S-wave (km/s) = 3.14648 3.35191 3.25082
# Velocity P-wave (km/s) = 5.09414 5.39658 5.24754
#
# Compressibility (1/GPa) = 0.03423241
#
# Stress axis : x y z
#
# Youngs Moduli (GPa) = 48.22880 50.52995 74.96891
#
# Poissons Ratio (x) = 0.32965 0.33861
# Poissons Ratio (y) = 0.31464 -0.09183
# Poissons Ratio (z) = 0.21783 -0.06190
#
# Static dielectric constant tensor:
#      x y z
#    x 2.074440 0.000060 -0.048350 
#    y 0.000060 1.841860 -0.000030 
#    z -0.048350 -0.000030 1.863460 
# 
# From -- ./inp_files/70587.got.cif
#   From: 2010.05.17/outbox.cif.g08.bks.cpg/sg15_36_cif.got.tgz:70587.got - 2010.06.03 18:47:42.
