data_PCOD9292381
_publ_section_title
;
Structure prediction by ZEFSAII (Michael W. Deem and Ramdas Pophale) SiO2 
 PCOD9292381
Probable space group: C 2/C
;
_chemical_formula_sum "Si O2"
_cell_formula_units_Z 32
_cell_length_a 16.325714
_cell_length_b 19.347001
_cell_length_c 9.175270
_cell_angle_alpha 90.000000
_cell_angle_beta 152.661282
_cell_angle_gamma 90.000000
_cell_volume 1330.925660
_symmetry_space_group_name_H-M "C 2/C"
_symmetry_group_IT_number 15
_symmetry_cell_setting 'monoclinic'
loop_
_space_group_symop_operation_xyz
x,y,z
-x,y,1/2-z
-x,-y,-z
x,-y,1/2+z
1/2+x,1/2+y,z
1/2-x,1/2+y,1/2-z
1/2-x,1/2-y,-z
1/2+x,1/2-y,1/2+z
loop_
_atom_site_type_symbol
_atom_site_label
_atom_site_fract_x
_atom_site_fract_y
_atom_site_fract_z
Si Si1 0.714672 0.292872 0.627675
Si Si2 0.652062 0.414004 0.716430
Si Si3 0.684428 0.029560 0.730953
Si Si4 0.261192 0.642251 0.631484
O O1 0.737289 0.340985 0.802988
O O2 0.196628 0.331802 0.870748
O O3 0.787607 0.215690 0.754003
O O4 0.500000 0.288233 0.250000
O O5 0.841464 0.591462 0.924040
O O6 0.442774 0.399065 0.387065
O O7 0.709876 0.441060 0.964190
O O8 0.500000 0.000000 0.500000
O O9 0.788909 0.969155 0.811455
#
# Coordination Sequence:
#
# PCOD9292381 Si02
#       4
#     8   8   8   8
#     4   9  21  42  70 100 132 173 219 270 329 395
#     4  11  24  44  69  96 132 177 224 273 329 395
#     4  12  26  43  66  97 135 175 223 279 330 390
#     4  10  22  43  70  98 133 175 219 270 331 398
#
# _framework density 24.043417000000002
#
# number of rings (size 3 to 8) (size 9 to 14) (size 15 to 20)
#    0.000    1.500    0.000    3.750    0.000   13.000 
#    0.000    2.500    0.000    0.000    0.000    0.000 
#    0.000    0.000    0.000    0.000    0.000    0.000 
#
# Total GULP energy -89621.081068 kJ/mol
# GULP energy per Si atom -5601.317567 kJ/mol
# Density = 2.398869 g / cm^3
# Si number density = 24.043417 Si / 1000 Ang^3
#
#
#
# Elastic Constant Matrix: (Units=GPa)
#
#
# Indices 1 2 3 4 5 6 
#
# 1 170.7866 108.8275 45.3505 0.0000 7.1521 0.0000
# 2 108.8275 193.4923 53.9600 0.0000 5.6169 0.0000
# 3 45.3505 53.9600 64.1468 0.0000 -3.3961 0.0000
# 4 0.0000 0.0000 0.0000 15.6067 0.0000 -4.9204
# 5 7.1521 5.6169 -3.3961 0.0000 24.4099 0.0000
# 6 0.0000 0.0000 0.0000 -4.9204 0.0000 61.2256
#
#
#
# Elastic Compliance Matrix: (Units=1/GPa)
#
#
# Indices 1 2 3 4 5 6 
#
# 1 0.009642 -0.004473 -0.003172 0.000000 -0.002237 0.000000
# 2 -0.004473 0.008965 -0.004452 0.000000 -0.001372 0.000000
# 3 -0.003172 -0.004452 0.021841 0.000000 0.004992 0.000000
# 4 0.000000 0.000000 0.000000 0.065741 0.000000 0.005283
# 5 -0.002237 -0.001372 0.004992 0.000000 0.042633 0.000000
# 6 0.000000 0.000000 0.000000 0.005283 0.000000 0.016758
#
#
# Mechanical properties :
#
#
# Convention : Reuss Voigt Hill
#
# Bulk Modulus (GPa) = 61.52374 93.85575 77.68975
# Shear Modulus (GPa) = 25.61590 34.93428 30.27509
#
# Velocity S-wave (km/s) = 3.26759 3.81592 3.55235
# Velocity P-wave (km/s) = 6.31509 7.65086 7.01484
#
# Compressibility (1/GPa) = 0.01625389
#
# Stress axis : x y z
#
# Youngs Moduli (GPa) = 103.71614 111.53950 45.78578
#
# Poissons Ratio (x) = 0.49895 0.14523
# Poissons Ratio (y) = 0.46396 0.20383
# Poissons Ratio (z) = 0.32898 0.49654
#
# Static dielectric constant tensor:
#      x y z
#    x 1.940600 0.000000 0.040160 
#    y 0.000000 1.920030 0.000000 
#    z 0.040160 0.000000 1.938900 
# 
# From -- ./inp_files/41111.got.cif
#   From: 2010.05.17/outbox.cif.g08.bks.cpg/sg15_21_cif.got.tgz:41111.got - 2010.06.03 18:47:42.
