data_PCOD9292297
_publ_section_title
;
Structure prediction by ZEFSAII (Michael W. Deem and Ramdas Pophale) SiO2 
 PCOD9292297
Probable space group: C 2/C
;
_chemical_formula_sum "Si O2"
_cell_formula_units_Z 40
_cell_length_a 11.814506
_cell_length_b 8.805165
_cell_length_c 16.364575
_cell_angle_alpha 90.000000
_cell_angle_beta 82.776304
_cell_angle_gamma 90.000000
_cell_volume 1688.872848
_symmetry_space_group_name_H-M "C 2/C"
_symmetry_group_IT_number 15
_symmetry_cell_setting 'monoclinic'
loop_
_space_group_symop_operation_xyz
x,y,z
-x,y,1/2-z
-x,-y,-z
x,-y,1/2+z
1/2+x,1/2+y,z
1/2-x,1/2+y,1/2-z
1/2-x,1/2-y,-z
1/2+x,1/2-y,1/2+z
loop_
_atom_site_type_symbol
_atom_site_label
_atom_site_fract_x
_atom_site_fract_y
_atom_site_fract_z
Si Si1 0.991936 0.983365 0.129793
Si Si2 0.110544 0.705682 0.190600
Si Si3 0.359653 0.758248 0.227447
Si Si4 0.121490 0.799461 0.493846
Si Si5 0.041616 0.419397 0.120647
O O1 0.078245 0.874518 0.168283
O O2 0.923374 0.106772 0.188474
O O3 0.904816 0.867549 0.092394
O O4 0.070503 0.071347 0.057761
O O5 0.228271 0.718646 0.227087
O O6 0.105648 0.580606 0.119561
O O7 0.000000 0.650322 0.250000
O O8 0.411532 0.891416 0.163828
O O9 0.390765 0.816477 0.315765
O O10 0.250000 0.750000 0.500000
O O11 0.051622 0.653057 0.530528
#
# Coordination Sequence:
#
# PCOD9292297 Si02
#       5
#     8   8   8   8   8
#     4  10  25  43  65  99 126 175 223 263 322 392
#     4  12  26  38  68 102 127 169 221 271 329 380
#     4  10  23  44  64  95 138 164 222 275 317 383
#     4  10  22  43  69  91 133 177 213 262 332 388
#     4  10  23  44  64  98 133 173 214 275 328 380
#
# _framework density 23.684434
#
# number of rings (size 3 to 8) (size 9 to 14) (size 15 to 20)
#    0.000    1.600    2.000    1.200   11.200    2.400 
#    0.000   14.000    0.000    0.000    0.000    0.000 
#    0.000    0.000    0.000    0.000    0.000    0.000 
#
# Total GULP energy -111620.056504 kJ/mol
# GULP energy per Si atom -5581.002825 kJ/mol
# Density = 2.363053 g / cm^3
# Si number density = 23.684434 Si / 1000 Ang^3
#
#
#
# Elastic Constant Matrix: (Units=GPa)
#
#
# Indices 1 2 3 4 5 6 
#
# 1 168.4809 34.2486 27.8591 0.0000 -1.6125 0.0000
# 2 34.2486 105.1518 15.2308 0.0000 -0.7051 0.0000
# 3 27.8591 15.2308 30.5600 0.0000 -3.7944 0.0000
# 4 0.0000 0.0000 0.0000 16.8738 0.0000 18.7258
# 5 -1.6125 -0.7051 -3.7944 0.0000 17.3056 0.0000
# 6 0.0000 0.0000 0.0000 18.7258 0.0000 38.3487
#
#
#
# Elastic Compliance Matrix: (Units=1/GPa)
#
#
# Indices 1 2 3 4 5 6 
#
# 1 0.007211 -0.001497 -0.005913 0.000000 -0.000686 0.000000
# 2 -0.001497 0.010569 -0.003975 0.000000 -0.000580 0.000000
# 3 -0.005913 -0.003975 0.041125 0.000000 0.008304 0.000000
# 4 0.000000 0.000000 0.000000 0.129366 0.000000 -0.063170
# 5 -0.000686 -0.000580 0.008304 0.000000 0.059518 0.000000
# 6 0.000000 0.000000 0.000000 -0.063170 0.000000 0.056922
#
#
# Mechanical properties :
#
#
# Convention : Reuss Voigt Hill
#
# Bulk Modulus (GPa) = 27.67339 50.98551 39.32945
# Shear Modulus (GPa) = 14.72641 29.62925 22.17783
#
# Velocity S-wave (km/s) = 2.49625 3.54079 3.06337
# Velocity P-wave (km/s) = 4.47414 6.18789 5.39944
#
# Compressibility (1/GPa) = 0.03613580
#
# Stress axis : x y z
#
# Youngs Moduli (GPa) = 138.68139 94.61204 24.31614
#
# Poissons Ratio (x) = 0.14161 0.14377
# Poissons Ratio (y) = 0.20757 0.09666
# Poissons Ratio (z) = 0.81997 0.37611
#
# Static dielectric constant tensor:
#      x y z
#    x 1.897890 0.000000 -0.014160 
#    y 0.000000 1.972390 0.000000 
#    z -0.014160 0.000000 2.032680 
# 
# From -- ./inp_files/235787.got.cif
#   From: 2010.05.17/outbox.cif.g08.bks.cpg/sg15_118_cif.got.tgz:235787.got - 2010.06.03 18:47:42.
