data_PCOD9292487
_publ_section_title
;
Structure prediction by ZEFSAII (Michael W. Deem and Ramdas Pophale) SiO2 
 PCOD9292487
Probable space group: C 2/C
;
_chemical_formula_sum "Si O2"
_cell_formula_units_Z 48
_cell_length_a 8.017632
_cell_length_b 12.910415
_cell_length_c 17.066616
_cell_angle_alpha 90.000000
_cell_angle_beta 82.783421
_cell_angle_gamma 90.000000
_cell_volume 1752.587580
_symmetry_space_group_name_H-M "C 2/C"
_symmetry_group_IT_number 15
_symmetry_cell_setting 'monoclinic'
loop_
_space_group_symop_operation_xyz
x,y,z
-x,y,1/2-z
-x,-y,-z
x,-y,1/2+z
1/2+x,1/2+y,z
1/2-x,1/2+y,1/2-z
1/2-x,1/2-y,-z
1/2+x,1/2-y,1/2+z
loop_
_atom_site_type_symbol
_atom_site_label
_atom_site_fract_x
_atom_site_fract_y
_atom_site_fract_z
Si Si1 0.612974 0.942598 0.356349
Si Si2 0.809030 0.579762 0.353678
Si Si3 0.877907 0.274627 0.424401
Si Si4 0.014004 0.929736 0.159247
Si Si5 0.682033 0.256676 0.745439
Si Si6 0.588213 0.612302 0.493563
O O1 0.487457 0.879555 0.422463
O O2 0.800798 0.985436 0.360608
O O3 0.646739 0.850927 0.292111
O O4 0.508717 0.031423 0.164297
O O5 0.655315 0.497952 0.343406
O O6 0.793355 0.673616 0.294312
O O7 0.774762 0.603874 0.448073
O O8 0.750000 0.250000 0.500000
O O9 0.783144 0.268261 0.346833
O O10 0.010138 0.183532 0.431122
O O11 0.000000 0.890885 0.250000
O O12 0.049362 0.850933 0.084148
O O13 0.500000 0.312394 0.750000
O O14 0.500000 0.500000 0.500000
#
# Coordination Sequence:
#
# PCOD9292487 Si02
#       6
#     8   8   8   8   8   8
#     4  11  26  47  82 114 150 209 267 322 407 485
#     4  11  23  49  80 108 159 208 259 328 403 478
#     4  11  23  44  76 112 159 212 261 336 410 475
#     4  11  27  43  78 111 152 204 261 327 392 480
#     4  10  22  46  77 112 160 200 264 332 394 480
#     4  10  22  43  73 108 151 202 256 318 395 470
#
# _framework density 27.388076000000002
#
# number of rings (size 3 to 8) (size 9 to 14) (size 15 to 20)
#    0.000    1.333    3.333    2.500   11.667    1.333 
#    0.000    1.667   14.667    1.000    0.000    0.000 
#    0.000    0.000    0.000    0.000    0.000    0.000 
#
# Total GULP energy -134131.257322 kJ/mol
# GULP energy per Si atom -5588.802388 kJ/mol
# Density = 2.732574 g / cm^3
# Si number density = 27.388076 Si / 1000 Ang^3
#
#
#
# Elastic Constant Matrix: (Units=GPa)
#
#
# Indices 1 2 3 4 5 6 
#
# 1 168.9649 38.7362 42.4996 0.0000 -13.4948 0.0000
# 2 38.7362 62.4771 13.0149 0.0000 6.2106 0.0000
# 3 42.4996 13.0149 188.7911 0.0000 -4.0291 0.0000
# 4 0.0000 0.0000 0.0000 28.8546 0.0000 -0.9058
# 5 -13.4948 6.2106 -4.0291 0.0000 51.9223 0.0000
# 6 0.0000 0.0000 0.0000 -0.9058 0.0000 47.5726
#
#
#
# Elastic Compliance Matrix: (Units=1/GPa)
#
#
# Indices 1 2 3 4 5 6 
#
# 1 0.007499 -0.004613 -0.001319 0.000000 0.002399 0.000000
# 2 -0.004613 0.019294 -0.000367 0.000000 -0.003535 0.000000
# 3 -0.001319 -0.000367 0.005622 0.000000 0.000137 0.000000
# 4 0.000000 0.000000 0.000000 0.034677 0.000000 0.000660
# 5 0.002399 -0.003535 0.000137 0.000000 0.020316 0.000000
# 6 0.000000 0.000000 0.000000 0.000660 0.000000 0.021033
#
#
# Mechanical properties :
#
#
# Convention : Reuss Voigt Hill
#
# Bulk Modulus (GPa) = 50.46233 67.63714 59.04974
# Shear Modulus (GPa) = 39.17072 47.40208 43.28640
#
# Velocity S-wave (km/s) = 3.78592 4.16475 3.97984
# Velocity P-wave (km/s) = 6.12991 6.91927 6.53652
#
# Compressibility (1/GPa) = 0.01981676
#
# Stress axis : x y z
#
# Youngs Moduli (GPa) = 133.34498 51.82953 177.87214
#
# Poissons Ratio (x) = 0.23911 0.23461
# Poissons Ratio (y) = 0.61516 0.06528
# Poissons Ratio (z) = 0.17588 0.01902
#
# Static dielectric constant tensor:
#      x y z
#    x 2.381310 0.000000 -0.112520 
#    y 0.000000 2.213090 0.000000 
#    z -0.112520 0.000000 2.388380 
# 
# From -- ./inp_files/196492.got.cif
#   From: 2010.05.17/outbox.cif.g08.bks.cpg/sg15_99_cif.got.tgz:196492.got - 2010.06.03 18:47:42.
