data_PCOD9292147
_publ_section_title
;
Structure prediction by ZEFSAII (Michael W. Deem and Ramdas Pophale) SiO2 
 PCOD9292147
Probable space group: C 2/C
;
_chemical_formula_sum "Si O2"
_cell_formula_units_Z 32
_cell_length_a 9.060179
_cell_length_b 16.436305
_cell_length_c 14.559978
_cell_angle_alpha 90.000000
_cell_angle_beta 33.070824
_cell_angle_gamma 90.000000
_cell_volume 1183.139603
_symmetry_space_group_name_H-M "C 2/C"
_symmetry_group_IT_number 15
_symmetry_cell_setting 'monoclinic'
loop_
_space_group_symop_operation_xyz
x,y,z
-x,y,1/2-z
-x,-y,-z
x,-y,1/2+z
1/2+x,1/2+y,z
1/2-x,1/2+y,1/2-z
1/2-x,1/2-y,-z
1/2+x,1/2-y,1/2+z
loop_
_atom_site_type_symbol
_atom_site_label
_atom_site_fract_x
_atom_site_fract_y
_atom_site_fract_z
Si Si1 0.438093 0.672933 0.424547
Si Si2 0.091152 0.486948 0.058921
Si Si3 0.439348 0.575182 0.678495
Si Si4 0.549827 0.736202 0.879941
O O1 0.250000 0.750000 0.500000
O O2 0.285341 0.591482 0.473223
O O3 0.463274 0.683500 0.520489
O O4 0.736377 0.690523 0.226715
O O5 0.257512 0.561208 0.015206
O O6 0.000000 0.500000 0.000000
O O7 0.794222 0.470222 0.254939
O O8 0.500000 0.542819 0.750000
O O9 0.330439 0.666484 0.749856
O O10 0.250000 0.750000 0.000000
#
# Coordination Sequence:
#
# PCOD9292147 Si02
#       4
#     8   8   8   8
#     4  12  26  47  75 108 147 199 253 310 378 452
#     4  10  24  43  71 104 146 195 252 308 381 451
#     4  10  22  43  67 102 145 194 249 311 379 452
#     4  12  27  46  74 109 152 193 255 316 381 455
#
# _framework density 27.046681
#
# number of rings (size 3 to 8) (size 9 to 14) (size 15 to 20)
#    0.000    1.000    2.500    3.000    7.000    5.000 
#    0.000    0.000    0.000    0.000    0.000    0.000 
#    0.000    0.000    0.000    0.000    0.000    0.000 
#
# Total GULP energy -89339.445748 kJ/mol
# GULP energy per Si atom -5583.715359 kJ/mol
# Density = 2.698512 g / cm^3
# Si number density = 27.046681 Si / 1000 Ang^3
#
#
#
# Elastic Constant Matrix: (Units=GPa)
#
#
# Indices 1 2 3 4 5 6 
#
# 1 147.1515 64.0883 43.9577 -0.0158 -26.0970 -0.0016
# 2 64.0883 113.1058 29.8878 -0.0269 -34.9718 -0.0064
# 3 43.9577 29.8878 131.8334 -0.1067 -64.6256 -0.0172
# 4 -0.0158 -0.0269 -0.1067 46.2248 -0.0100 -21.3693
# 5 -26.0970 -34.9718 -64.6256 -0.0100 68.1651 0.0079
# 6 -0.0016 -0.0064 -0.0172 -21.3693 0.0079 58.9909
#
#
#
# Elastic Compliance Matrix: (Units=1/GPa)
#
#
# Indices 1 2 3 4 5 6 
#
# 1 0.009623 -0.005225 -0.002863 -0.000009 -0.001710 -0.000004
# 2 -0.005225 0.013362 0.002042 0.000015 0.006791 0.000006
# 3 -0.002863 0.002042 0.015046 0.000047 0.014216 0.000020
# 4 -0.000009 0.000015 0.000047 0.025985 0.000052 0.009413
# 5 -0.001710 0.006791 0.014216 0.000052 0.030977 0.000019
# 6 -0.000004 0.000006 0.000020 0.009413 0.000019 0.020362
#
#
# Mechanical properties :
#
#
# Convention : Reuss Voigt Hill
#
# Bulk Modulus (GPa) = 38.55167 74.21759 56.38463
# Shear Modulus (GPa) = 36.73942 51.61993 44.17968
#
# Velocity S-wave (km/s) = 3.68961 4.37343 4.04599
# Velocity P-wave (km/s) = 5.69523 7.28029 6.53599
#
# Compressibility (1/GPa) = 0.02593922
#
# Stress axis : x y z
#
# Youngs Moduli (GPa) = 103.91563 74.83858 66.46355
#
# Poissons Ratio (x) = 0.39104 0.19026
# Poissons Ratio (y) = 0.54298 -0.13571
# Poissons Ratio (z) = 0.29747 -0.15281
#
# Static dielectric constant tensor:
#      x y z
#    x 2.248050 0.000010 0.251780 
#    y 0.000010 2.136910 0.000050 
#    z 0.251780 0.000050 2.538930 
# 
# From -- ./inp_files/76514.got.cif
#   From: 2010.05.17/outbox.cif.g08.bks.cpg/sg15_39_cif.got.tgz:76514.got - 2010.06.03 18:47:42.
