data_PCOD9292112
_publ_section_title
;
Structure prediction by ZEFSAII (Michael W. Deem and Ramdas Pophale) SiO2 
 PCOD9292112
Probable space group: C 2/C
;
_chemical_formula_sum "Si O2"
_cell_formula_units_Z 64
_cell_length_a 23.928086
_cell_length_b 24.097405
_cell_length_c 18.159587
_cell_angle_alpha 90.000000
_cell_angle_beta 163.000462
_cell_angle_gamma 90.000000
_cell_volume 3061.315501
_symmetry_space_group_name_H-M "C 2/C"
_symmetry_group_IT_number 15
_symmetry_cell_setting 'monoclinic'
loop_
_space_group_symop_operation_xyz
x,y,z
-x,y,1/2-z
-x,-y,-z
x,-y,1/2+z
1/2+x,1/2+y,z
1/2-x,1/2+y,1/2-z
1/2-x,1/2-y,-z
1/2+x,1/2-y,1/2+z
loop_
_atom_site_type_symbol
_atom_site_label
_atom_site_fract_x
_atom_site_fract_y
_atom_site_fract_z
Si Si1 0.346951 0.861730 0.308572
Si Si2 0.181197 0.966315 0.699790
Si Si3 0.426667 0.301196 0.078815
Si Si4 0.068753 0.510040 0.257761
Si Si5 0.470157 0.744917 0.935618
Si Si6 0.436608 0.638269 0.354931
Si Si7 0.739480 0.919074 0.850667
Si Si8 0.792832 0.102451 0.022973
O O1 0.392521 0.798499 0.388271
O O2 0.153896 0.879839 0.107512
O O3 0.529914 0.898020 0.560898
O O4 0.314780 0.868218 0.180466
O O5 0.183343 0.960131 0.614594
O O6 0.160352 0.905605 0.711707
O O7 0.000000 0.000000 0.500000
O O8 0.377691 0.995065 0.971760
O O9 0.500000 0.280756 0.250000
O O10 0.564664 0.285978 0.186248
O O11 0.374392 0.365568 0.021822
O O12 0.234876 0.271900 0.807841
O O13 0.000000 0.531631 0.250000
O O14 0.203459 0.551659 0.382731
O O15 0.183244 0.452591 0.410092
O O16 0.545918 0.698105 0.085887
O O17 0.326073 0.638548 0.137958
O O18 0.000000 0.087657 0.250000
#
# Coordination Sequence:
#
# PCOD9292112 Si02
#       8
#     8   8   8   8   8   8   8   8
#     4  10  22  43  66  96 133 177 225 279 337 409
#     4  12  25  40  69  97 132 181 229 280 342 415
#     4  11  24  44  66  98 129 175 224 287 342 406
#     4  12  25  44  64 101 139 181 231 287 343 403
#     4  11  22  43  70  93 134 173 223 281 344 409
#     4  11  22  42  66  99 132 175 226 273 343 414
#     4  11  25  43  68  94 136 182 228 280 347 409
#     4  10  23  40  67  97 136 177 222 280 336 404
#
# _framework density 20.906044999999999
#
# number of rings (size 3 to 8) (size 9 to 14) (size 15 to 20)
#    0.000    1.000    5.000    1.500    3.500    2.000 
#    2.250    1.250    0.000    0.000    0.000    0.000 
#    0.000    0.000    0.000    0.000    0.000    0.000 
#
# Total GULP energy -178853.422704 kJ/mol
# GULP energy per Si atom -5589.169460 kJ/mol
# Density = 2.085846 g / cm^3
# Si number density = 20.906045 Si / 1000 Ang^3
#
#
#
# Elastic Constant Matrix: (Units=GPa)
#
#
# Indices 1 2 3 4 5 6 
#
# 1 120.8450 30.9744 -12.6610 0.0002 -11.5889 -0.0001
# 2 30.9744 76.4882 3.6339 0.0001 -0.7407 0.0000
# 3 -12.6610 3.6339 25.4951 0.0002 -11.4887 -0.0001
# 4 0.0002 0.0001 0.0002 8.0960 0.0001 11.0258
# 5 -11.5889 -0.7407 -11.4887 0.0001 28.2831 -0.0001
# 6 -0.0001 0.0000 -0.0001 11.0258 -0.0001 12.0801
#
#
#
# Elastic Compliance Matrix: (Units=1/GPa)
#
#
# Indices 1 2 3 4 5 6 
#
# 1 0.011510 -0.005070 0.010410 0.000004 0.008812 -0.000003
# 2 -0.005070 0.015403 -0.006693 -0.000002 -0.004393 0.000001
# 3 0.010410 -0.006693 0.057763 0.000014 0.027554 -0.000012
# 4 0.000004 -0.000002 0.000014 -0.508257 0.000010 0.463898
# 5 0.008812 -0.004393 0.027554 0.000010 0.050045 -0.000008
# 6 -0.000003 0.000001 -0.000012 0.463898 -0.000008 -0.340629
#
#
# Mechanical properties :
#
#
# Convention : Reuss Voigt Hill
#
# Bulk Modulus (GPa) = 12.19976 29.63586 20.91781
# Shear Modulus (GPa) = -7.30850 23.08390 7.88770
#
# Velocity S-wave (km/s) = -1.87176 3.32652 1.94451
# Velocity P-wave (km/s) = 1.08485 5.38152 3.88186
#
# Compressibility (1/GPa) = 0.08196884
#
# Stress axis : x y z
#
# Youngs Moduli (GPa) = 86.87798 64.92391 17.31212
#
# Poissons Ratio (x) = 0.32919 -0.18021
# Poissons Ratio (y) = 0.44051 0.11587
# Poissons Ratio (z) = -0.90438 0.43453
#
# Static dielectric constant tensor:
#      x y z
#    x 1.776590 0.000000 0.015930 
#    y 0.000000 1.724110 0.000000 
#    z 0.015930 0.000000 1.749530 
# 
# From -- ./inp_files/220299.got.cif
#   From: 2010.05.17/outbox.cif.g08.bks.cpg/sg15_111_cif.got.tgz:220299.got - 2010.06.03 18:47:42.
