data_PCOD9292134
_publ_section_title
;
Structure prediction by ZEFSAII (Michael W. Deem and Ramdas Pophale) SiO2 
 PCOD9292134
Probable space group: C 2/C
;
_chemical_formula_sum "Si O2"
_cell_formula_units_Z 48
_cell_length_a 8.793185
_cell_length_b 11.862354
_cell_length_c 19.075246
_cell_angle_alpha 90.000000
_cell_angle_beta 97.035730
_cell_angle_gamma 90.000000
_cell_volume 1974.715834
_symmetry_space_group_name_H-M "C 2/C"
_symmetry_group_IT_number 15
_symmetry_cell_setting 'monoclinic'
loop_
_space_group_symop_operation_xyz
x,y,z
-x,y,1/2-z
-x,-y,-z
x,-y,1/2+z
1/2+x,1/2+y,z
1/2-x,1/2+y,1/2-z
1/2-x,1/2-y,-z
1/2+x,1/2-y,1/2+z
loop_
_atom_site_type_symbol
_atom_site_label
_atom_site_fract_x
_atom_site_fract_y
_atom_site_fract_z
Si Si1 0.716823 0.113456 0.823729
Si Si2 0.461256 0.710667 0.633408
Si Si3 0.389210 0.336208 0.636269
Si Si4 0.203842 0.209234 0.219107
Si Si5 0.755183 0.536888 0.950041
Si Si6 0.446503 0.953611 0.598292
O O1 0.660337 0.206598 0.877976
O O2 0.662568 0.166507 0.747694
O O3 0.900324 0.128735 0.836859
O O4 0.639032 0.996687 0.837001
O O5 0.362024 0.762017 0.691324
O O6 0.347175 0.642520 0.577241
O O7 0.513370 0.827187 0.600934
O O8 0.307952 0.361207 0.708440
O O9 0.570610 0.334484 0.661424
O O10 0.339840 0.425455 0.576268
O O11 0.911186 0.532075 0.913588
O O12 0.814239 0.539161 0.032307
#
# Coordination Sequence:
#
# PCOD9292134 Si02
#       6
#     8   8   8   8   8   8
#     4  10  22  43  67 100 132 177 228 277 346 399
#     4  12  24  43  68 104 134 177 229 278 343 413
#     4   9  20  44  66 101 127 179 226 272 348 398
#     4   9  21  42  67  99 135 172 225 284 338 404
#     4  11  25  44  69 101 137 183 229 281 342 406
#     4  11  25  47  68  98 142 182 226 285 337 406
#
# _framework density 24.307296999999998
#
# number of rings (size 3 to 8) (size 9 to 14) (size 15 to 20)
#    1.000    0.667    1.667    2.000    2.333    2.667 
#    6.000    3.333    0.000    0.000    0.000    0.000 
#    0.000    0.000    0.000    0.000    0.000    0.000 
#
# Total GULP energy -134004.538101 kJ/mol
# GULP energy per Si atom -5583.522421 kJ/mol
# Density = 2.425197 g / cm^3
# Si number density = 24.307297 Si / 1000 Ang^3
#
#
#
# Elastic Constant Matrix: (Units=GPa)
#
#
# Indices 1 2 3 4 5 6 
#
# 1 82.5789 13.1556 9.6891 0.0000 25.9099 0.0000
# 2 13.1556 91.8000 3.2935 0.0000 5.3646 0.0000
# 3 9.6891 3.2935 23.9616 0.0000 17.2914 0.0000
# 4 0.0000 0.0000 0.0000 34.8694 0.0000 19.2357
# 5 25.9099 5.3646 17.2914 0.0000 35.0752 0.0000
# 6 0.0000 0.0000 0.0000 19.2357 0.0000 40.5230
#
#
#
# Elastic Compliance Matrix: (Units=1/GPa)
#
#
# Indices 1 2 3 4 5 6 
#
# 1 0.016163 -0.001657 0.003299 0.000000 -0.013313 0.000000
# 2 -0.001657 0.011165 -0.000800 0.000000 -0.000089 0.000000
# 3 0.003299 -0.000800 0.065471 0.000000 -0.034590 0.000000
# 4 0.000000 0.000000 0.000000 0.038852 0.000000 -0.018443
# 5 -0.013313 -0.000089 -0.034590 0.000000 0.055410 0.000000
# 6 0.000000 0.000000 0.000000 -0.018443 0.000000 0.033432
#
#
# Mechanical properties :
#
#
# Convention : Reuss Voigt Hill
#
# Bulk Modulus (GPa) = 10.58398 27.84633 19.21516
# Shear Modulus (GPa) = 19.97569 33.57368 26.77468
#
# Velocity S-wave (km/s) = 2.86981 3.72051 3.32250
# Velocity P-wave (km/s) = 3.91724 5.47148 4.75825
#
# Compressibility (1/GPa) = 0.09448243
#
# Stress axis : x y z
#
# Youngs Moduli (GPa) = 61.86780 89.56890 15.27396
#
# Poissons Ratio (x) = 0.14839 -0.05038
# Poissons Ratio (y) = 0.10250 0.01222
# Poissons Ratio (z) = -0.20408 0.07168
#
# Static dielectric constant tensor:
#      x y z
#    x 2.003510 0.000000 -0.062780 
#    y 0.000000 1.961300 0.000000 
#    z -0.062780 0.000000 1.982180 
# 
# From -- ./inp_files/263190.got.cif
#   From: 2010.05.17/outbox.cif.g08.bks.cpg/sg15_132_cif.got.tgz:263190.got - 2010.06.03 18:47:42.
