data_PCOD9292615
_publ_section_title
;
Structure prediction by ZEFSAII (Michael W. Deem and Ramdas Pophale) SiO2 
 PCOD9292615
Probable space group: C 2/C
;
_chemical_formula_sum "Si O2"
_cell_formula_units_Z 64
_cell_length_a 31.833385
_cell_length_b 15.258885
_cell_length_c 12.668853
_cell_angle_alpha 90.000000
_cell_angle_beta 150.843197
_cell_angle_gamma 90.000000
_cell_volume 2998.136799
_symmetry_space_group_name_H-M "C 2/C"
_symmetry_group_IT_number 15
_symmetry_cell_setting 'monoclinic'
loop_
_space_group_symop_operation_xyz
x,y,z
-x,y,1/2-z
-x,-y,-z
x,-y,1/2+z
1/2+x,1/2+y,z
1/2-x,1/2+y,1/2-z
1/2-x,1/2-y,-z
1/2+x,1/2-y,1/2+z
loop_
_atom_site_type_symbol
_atom_site_label
_atom_site_fract_x
_atom_site_fract_y
_atom_site_fract_z
Si Si1 0.717056 0.232723 0.047468
Si Si2 0.612792 0.331578 0.246854
Si Si3 0.080948 0.032438 0.862830
Si Si4 0.013827 0.428494 0.670448
Si Si5 0.714775 0.446895 0.308607
Si Si6 0.455586 0.668347 0.265365
Si Si7 0.361887 0.944839 0.189755
Si Si8 0.834484 0.304582 0.480211
O O1 0.796730 0.248556 0.301379
O O2 0.750000 0.250000 0.000000
O O3 0.638730 0.293978 0.916753
O O4 0.675090 0.136327 0.956744
O O5 0.604179 0.402637 0.320535
O O6 0.656036 0.379506 0.242998
O O7 0.665841 0.252082 0.413329
O O8 0.519829 0.302378 0.999311
O O9 0.000000 0.068955 0.750000
O O10 0.052331 0.937371 0.754596
O O11 0.157113 0.011605 0.112367
O O12 0.073731 0.490544 0.730902
O O13 0.000000 0.477008 0.750000
O O14 0.921172 0.411487 0.415017
O O15 0.068898 0.341626 0.816049
O O16 0.777032 0.497779 0.526569
O O17 0.774488 0.389560 0.362774
O O18 0.500000 0.693569 0.250000
#
# Coordination Sequence:
#
# PCOD9292615 Si02
#       8
#     8   8   8   8   8   8   8   8
#     4  12  25  41  67  99 135 168 224 281 339 391
#     4  12  24  39  69  94 125 170 220 268 320 406
#     4  11  23  41  63  92 127 169 209 259 330 395
#     4  10  22  44  65  86 130 171 208 265 331 383
#     4  11  23  43  65  91 133 168 214 270 336 386
#     4  11  23  44  65  91 134 178 212 267 342 400
#     4  10  24  40  63  98 121 166 220 260 319 405
#     4  11  24  42  63  95 129 168 218 272 329 396
#
# _framework density 21.346592000000001
#
# number of rings (size 3 to 8) (size 9 to 14) (size 15 to 20)
#    0.000    1.000    3.750    3.000    1.750    5.000 
#    0.000    1.250    0.000    0.000    0.000    0.000 
#    0.000    0.000    0.000    0.000    0.000    0.000 
#
# Total GULP energy -178750.401553 kJ/mol
# GULP energy per Si atom -5585.950049 kJ/mol
# Density = 2.129801 g / cm^3
# Si number density = 21.346592 Si / 1000 Ang^3
#
#
#
# Elastic Constant Matrix: (Units=GPa)
#
#
# Indices 1 2 3 4 5 6 
#
# 1 54.0691 -6.5475 25.6587 0.0000 -1.5987 0.0000
# 2 -6.5475 38.9070 32.6307 0.0000 -0.8290 0.0000
# 3 25.6587 32.6307 182.0412 0.0000 -20.1974 0.0000
# 4 0.0000 0.0000 0.0000 25.2898 0.0000 -13.6074
# 5 -1.5987 -0.8290 -20.1974 0.0000 26.5055 0.0000
# 6 0.0000 0.0000 0.0000 -13.6074 0.0000 11.4444
#
#
#
# Elastic Compliance Matrix: (Units=1/GPa)
#
#
# Indices 1 2 3 4 5 6 
#
# 1 0.021508 0.007418 -0.004579 0.000000 -0.001960 0.000000
# 2 0.007418 0.033105 -0.007444 0.000000 -0.004190 0.000000
# 3 -0.004579 -0.007444 0.008101 0.000000 0.005664 0.000000
# 4 0.000000 0.000000 0.000000 0.109762 0.000000 0.130506
# 5 -0.001960 -0.004190 0.005664 0.000000 0.041795 0.000000
# 6 0.000000 0.000000 0.000000 0.130506 0.000000 0.242550
#
#
# Mechanical properties :
#
#
# Convention : Reuss Voigt Hill
#
# Bulk Modulus (GPa) = 18.69027 42.05567 30.37297
# Shear Modulus (GPa) = 10.33344 27.53298 18.93321
#
# Velocity S-wave (km/s) = 2.20257 3.59528 2.98139
# Velocity P-wave (km/s) = 3.90423 6.08103 5.10989
#
# Compressibility (1/GPa) = 0.05350377
#
# Stress axis : x y z
#
# Youngs Moduli (GPa) = 46.49440 30.20709 123.43443
#
# Poissons Ratio (x) = -0.22407 0.56516
# Poissons Ratio (y) = -0.34488 0.91889
# Poissons Ratio (z) = 0.21288 0.22487
#
# Static dielectric constant tensor:
#      x y z
#    x 1.778190 0.000000 0.001270 
#    y 0.000000 1.770640 0.000000 
#    z 0.001270 0.000000 1.801130 
# 
# From -- ./inp_files/127306.got.cif
#   From: 2010.05.17/outbox.cif.g08.bks.cpg/sg15_64_cif.got.tgz:127306.got - 2010.06.03 18:47:42.
