data_PCOD9292072
_publ_section_title
;
Structure prediction by ZEFSAII (Michael W. Deem and Ramdas Pophale) SiO2 
 PCOD9292072
Probable space group: C 2/C
;
_chemical_formula_sum "Si O2"
_cell_formula_units_Z 64
_cell_length_a 29.718382
_cell_length_b 7.544463
_cell_length_c 23.298024
_cell_angle_alpha 90.000000
_cell_angle_beta 149.565849
_cell_angle_gamma 90.000000
_cell_volume 2646.019209
_symmetry_space_group_name_H-M "C 2/C"
_symmetry_group_IT_number 15
_symmetry_cell_setting 'monoclinic'
loop_
_space_group_symop_operation_xyz
x,y,z
-x,y,1/2-z
-x,-y,-z
x,-y,1/2+z
1/2+x,1/2+y,z
1/2-x,1/2+y,1/2-z
1/2-x,1/2-y,-z
1/2+x,1/2-y,1/2+z
loop_
_atom_site_type_symbol
_atom_site_label
_atom_site_fract_x
_atom_site_fract_y
_atom_site_fract_z
Si Si1 0.878110 0.711393 0.678755
Si Si2 0.629902 0.732299 0.738057
Si Si3 0.065630 0.667501 0.509041
Si Si4 0.092803 0.108997 0.826289
Si Si5 0.457199 0.818777 0.076076
Si Si6 0.704475 0.134789 0.030452
Si Si7 0.813464 0.221562 0.457809
Si Si8 0.928679 0.101132 0.382977
O O1 0.798913 0.766233 0.635245
O O2 0.828221 0.620867 0.571215
O O3 0.963941 0.605993 0.795968
O O4 0.913066 0.900228 0.693642
O O5 0.540448 0.811986 0.613518
O O6 0.616366 0.696637 0.791263
O O7 0.719099 0.845101 0.830646
O O8 0.638867 0.545781 0.713591
O O9 0.078406 0.461532 0.508646
O O10 0.110965 0.781685 0.507747
O O11 0.101094 0.738328 0.608791
O O12 0.000000 0.175755 0.750000
O O13 0.161380 0.139218 0.953511
O O14 0.513249 0.669936 0.106087
O O15 0.372445 0.763070 0.019537
O O16 0.702452 0.931935 0.048652
O O17 0.000000 0.000000 0.500000
#
# Coordination Sequence:
#
# PCOD9292072 Si02
#       8
#     8   8   8   8   8   8   8   8
#     4  11  23  37  57  91 128 167 205 253 315 384
#     4  11  22  42  62  94 129 166 210 263 316 383
#     4  10  24  41  65  92 124 166 215 269 325 373
#     4  12  22  36  64  95 133 168 209 253 319 386
#     4  11  21  41  63  86 124 162 213 258 322 375
#     4  10  23  37  57  89 128 165 201 257 317 382
#     4  11  23  40  63  95 129 167 210 263 320 388
#     4  10  22  43  66  87 119 161 216 270 316 371
#
# _framework density 24.187276000000001
#
# number of rings (size 3 to 8) (size 9 to 14) (size 15 to 20)
#    0.000    1.250    3.750    1.875    1.750    1.000 
#    0.000    8.750    0.000    0.000    0.000    0.000 
#    0.000    0.000    0.000    0.000    0.000    0.000 
#
# Total GULP energy -178935.191749 kJ/mol
# GULP energy per Si atom -5591.724742 kJ/mol
# Density = 2.413222 g / cm^3
# Si number density = 24.187276 Si / 1000 Ang^3
#
#
#
# Elastic Constant Matrix: (Units=GPa)
#
#
# Indices 1 2 3 4 5 6 
#
# 1 77.6550 6.7639 38.5333 0.0000 8.5790 0.0001
# 2 6.7639 36.7568 -2.5045 0.0001 -7.1033 0.0002
# 3 38.5333 -2.5045 90.7573 0.0000 3.8795 0.0000
# 4 0.0000 0.0001 0.0000 35.1186 0.0000 -11.3286
# 5 8.5790 -7.1033 3.8795 0.0000 31.9793 0.0000
# 6 0.0001 0.0002 0.0000 -11.3286 0.0000 32.1517
#
#
#
# Elastic Compliance Matrix: (Units=1/GPa)
#
#
# Indices 1 2 3 4 5 6 
#
# 1 0.017453 -0.004644 -0.007332 0.000000 -0.004824 0.000000
# 2 -0.004644 0.029686 0.002468 0.000000 0.007540 0.000000
# 3 -0.007332 0.002468 0.014165 0.000000 0.000797 0.000000
# 4 0.000000 0.000000 0.000000 0.032126 0.000000 0.011320
# 5 -0.004824 0.007540 0.000797 0.000000 0.034142 0.000000
# 6 0.000000 0.000000 0.000000 0.011320 0.000000 0.035091
#
#
# Mechanical properties :
#
#
# Convention : Reuss Voigt Hill
#
# Bulk Modulus (GPa) = 23.64637 32.30608 27.97622
# Shear Modulus (GPa) = 25.53949 30.67501 28.10725
#
# Velocity S-wave (km/s) = 3.25300 3.56508 3.41261
# Velocity P-wave (km/s) = 4.88947 5.50746 5.20764
#
# Compressibility (1/GPa) = 0.04228979
#
# Stress axis : x y z
#
# Youngs Moduli (GPa) = 57.29629 33.68634 70.59418
#
# Poissons Ratio (x) = 0.15642 0.51760
# Poissons Ratio (y) = 0.26606 -0.17425
# Poissons Ratio (z) = 0.42010 -0.08315
#
# Static dielectric constant tensor:
#      x y z
#    x 2.032260 0.000000 -0.099530 
#    y 0.000000 2.021140 0.000000 
#    z -0.099530 0.000000 2.086070 
# 
# From -- ./inp_files/284469.got.cif
#   From: 2010.05.17/outbox.cif.g08.bks.cpg/sg15_143_cif.got.tgz:284469.got - 2010.06.03 18:47:42.
