data_PCOD9292178
_publ_section_title
;
Structure prediction by ZEFSAII (Michael W. Deem and Ramdas Pophale) SiO2 
 PCOD9292178
Probable space group: C 2/C
;
_chemical_formula_sum "Si O2"
_cell_formula_units_Z 52
_cell_length_a 14.194639
_cell_length_b 15.564244
_cell_length_c 16.738587
_cell_angle_alpha 90.000000
_cell_angle_beta 136.206331
_cell_angle_gamma 90.000000
_cell_volume 2559.275679
_symmetry_space_group_name_H-M "C 2/C"
_symmetry_group_IT_number 15
_symmetry_cell_setting 'monoclinic'
loop_
_space_group_symop_operation_xyz
x,y,z
-x,y,1/2-z
-x,-y,-z
x,-y,1/2+z
1/2+x,1/2+y,z
1/2-x,1/2+y,1/2-z
1/2-x,1/2-y,-z
1/2+x,1/2-y,1/2+z
loop_
_atom_site_type_symbol
_atom_site_label
_atom_site_fract_x
_atom_site_fract_y
_atom_site_fract_z
Si Si1 0.756706 0.847650 0.802742
Si Si2 0.290848 0.013334 0.004434
Si Si3 0.242272 0.966900 0.288894
Si Si4 0.146256 0.317607 0.232164
Si Si5 0.039264 0.929190 0.458641
Si Si6 0.500000 0.108410 0.250000
Si Si7 0.660930 0.173347 0.918393
O O1 0.780284 0.763491 0.763235
O O2 0.618199 0.843749 0.771072
O O3 0.753671 0.936830 0.747898
O O4 0.885082 0.855618 0.942983
O O5 0.415207 0.053837 0.132028
O O6 0.312434 0.912224 0.017498
O O7 0.268547 0.037293 0.899027
O O8 0.155569 0.037031 0.970663
O O9 0.353023 0.903937 0.318638
O O10 0.099490 0.920676 0.176564
O O11 0.203310 0.344805 0.353113
O O12 0.992040 0.296245 0.159693
O O13 0.000000 0.000000 0.500000
O O14 0.750000 0.250000 0.000000
#
# Coordination Sequence:
#
# PCOD9292178 Si02
#       7
#     8   8   8   8   8   4   8
#     4  10  22  43  67  94 133 178 218 274 333 390
#     4  11  22  41  66  95 127 174 222 273 337 393
#     4  11  23  40  67  98 131 174 225 273 328 405
#     4  11  25  42  63 102 132 172 223 268 336 394
#     4   9  20  39  65  89 129 173 213 270 324 387
#     4  10  22  44  66  86 128 176 222 274 324 388
#     4  11  24  39  64  96 136 170 213 277 333 399
#
# _framework density 20.318247
#
# number of rings (size 3 to 8) (size 9 to 14) (size 15 to 20)
#    0.000    1.538    0.000    6.000    6.462    3.692 
#    2.769    1.538    0.000    0.000    0.000    0.000 
#    0.000    0.000    0.000    0.000    0.000    0.000 
#
# Total GULP energy -145006.202878 kJ/mol
# GULP energy per Si atom -5577.161649 kJ/mol
# Density = 2.027200 g / cm^3
# Si number density = 20.318247 Si / 1000 Ang^3
#
#
#
# Elastic Constant Matrix: (Units=GPa)
#
#
# Indices 1 2 3 4 5 6 
#
# 1 122.7418 38.9539 49.8104 0.0000 -24.2123 0.0000
# 2 38.9539 70.6491 16.5700 0.0000 -6.9876 0.0000
# 3 49.8104 16.5700 113.9865 0.0000 -23.2269 0.0000
# 4 0.0000 0.0000 0.0000 19.7785 0.0000 -5.0716
# 5 -24.2123 -6.9876 -23.2269 0.0000 29.5431 0.0000
# 6 0.0000 0.0000 0.0000 -5.0716 0.0000 19.3702
#
#
#
# Elastic Compliance Matrix: (Units=1/GPa)
#
#
# Indices 1 2 3 4 5 6 
#
# 1 0.012499 -0.005476 -0.003385 0.000000 0.006287 0.000000
# 2 -0.005476 0.017167 -0.000226 0.000000 -0.000605 0.000000
# 3 -0.003385 -0.000226 0.011561 0.000000 0.006262 0.000000
# 4 0.000000 0.000000 0.000000 0.054199 0.000000 0.014191
# 5 0.006287 -0.000605 0.006262 0.000000 0.043782 0.000000
# 6 0.000000 0.000000 0.000000 0.014191 0.000000 0.055341
#
#
# Mechanical properties :
#
#
# Convention : Reuss Voigt Hill
#
# Bulk Modulus (GPa) = 43.37702 57.56066 50.46884
# Shear Modulus (GPa) = 22.68550 27.20790 24.94670
#
# Velocity S-wave (km/s) = 3.34505 3.66332 3.50780
# Velocity P-wave (km/s) = 6.02613 6.80326 6.42645
#
# Compressibility (1/GPa) = 0.02305368
#
# Stress axis : x y z
#
# Youngs Moduli (GPa) = 80.00776 58.25193 86.49918
#
# Poissons Ratio (x) = 0.31898 0.29277
# Poissons Ratio (y) = 0.43811 0.01954
# Poissons Ratio (z) = 0.27080 0.01316
#
# Static dielectric constant tensor:
#      x y z
#    x 1.788050 0.000000 0.086770 
#    y 0.000000 1.671580 0.000000 
#    z 0.086770 0.000000 1.840670 
# 
# From -- ./inp_files/205795.got.cif
#   From: 2010.05.17/outbox.cif.g08.bks.cpg/sg15_103_cif.got.tgz:205795.got - 2010.06.03 18:47:42.
