data_PCOD9292527
_publ_section_title
;
Structure prediction by ZEFSAII (Michael W. Deem and Ramdas Pophale) SiO2 
 PCOD9292527
Probable space group: C 2/C
;
_chemical_formula_sum "Si O2"
_cell_formula_units_Z 32
_cell_length_a 24.200428
_cell_length_b 7.785081
_cell_length_c 17.108928
_cell_angle_alpha 90.000000
_cell_angle_beta 158.408499
_cell_angle_gamma 90.000000
_cell_volume 1186.153844
_symmetry_space_group_name_H-M "C 2/C"
_symmetry_group_IT_number 15
_symmetry_cell_setting 'monoclinic'
loop_
_space_group_symop_operation_xyz
x,y,z
-x,y,1/2-z
-x,-y,-z
x,-y,1/2+z
1/2+x,1/2+y,z
1/2-x,1/2+y,1/2-z
1/2-x,1/2-y,-z
1/2+x,1/2-y,1/2+z
loop_
_atom_site_type_symbol
_atom_site_label
_atom_site_fract_x
_atom_site_fract_y
_atom_site_fract_z
Si Si1 0.091333 0.729436 0.035250
Si Si2 0.636790 0.412280 0.528035
Si Si3 0.135537 0.404063 0.366781
Si Si4 0.153250 0.202758 0.788429
O O1 0.963630 0.595369 0.843902
O O2 0.250097 0.633551 0.252037
O O3 0.077170 0.811971 0.102801
O O4 0.095349 0.889800 0.981747
O O5 0.733148 0.360548 0.579201
O O6 0.488636 0.296890 0.340917
O O7 0.250000 0.250000 0.500000
O O8 0.237471 0.551027 0.540468
O O9 0.000000 0.376917 0.250000
#
# Coordination Sequence:
#
# PCOD9292527 Si02
#       4
#     8   8   8   8
#     4  10  23  43  82 108 154 210 255 326 397 461
#     4  10  22  43  76 111 158 201 268 315 397 472
#     4  12  26  46  77 113 156 199 271 324 384 474
#     4  10  24  46  74 119 153 210 265 320 392 484
#
# _framework density 26.97795
#
# number of rings (size 3 to 8) (size 9 to 14) (size 15 to 20)
#    1.500    0.000    2.500    2.250    3.500    1.000 
#    4.500    2.500    0.000    0.000    0.000    0.000 
#    0.000    0.000    0.000    0.000    0.000    0.000 
#
# Total GULP energy -89426.566832 kJ/mol
# GULP energy per Si atom -5589.160427 kJ/mol
# Density = 2.691655 g / cm^3
# Si number density = 26.977950 Si / 1000 Ang^3
#
#
#
# Elastic Constant Matrix: (Units=GPa)
#
#
# Indices 1 2 3 4 5 6 
#
# 1 104.7565 58.7431 88.7510 0.0000 19.0642 0.0000
# 2 58.7431 127.4351 50.5166 0.0000 9.5041 0.0000
# 3 88.7510 50.5166 218.7802 0.0000 8.5612 0.0000
# 4 0.0000 0.0000 0.0000 64.4717 0.0000 1.2435
# 5 19.0642 9.5041 8.5612 0.0000 73.0038 0.0000
# 6 0.0000 0.0000 0.0000 1.2435 0.0000 28.5603
#
#
#
# Elastic Compliance Matrix: (Units=1/GPa)
#
#
# Indices 1 2 3 4 5 6 
#
# 1 0.018609 -0.005929 -0.006048 0.000000 -0.003379 0.000000
# 2 -0.005929 0.010585 -0.000046 0.000000 0.000176 0.000000
# 3 -0.006048 -0.000046 0.007005 0.000000 0.000764 0.000000
# 4 0.000000 0.000000 0.000000 0.015524 0.000000 -0.000676
# 5 -0.003379 0.000176 0.000764 0.000000 0.014468 0.000000
# 6 0.000000 0.000000 0.000000 -0.000676 0.000000 0.035043
#
#
# Mechanical properties :
#
#
# Convention : Reuss Voigt Hill
#
# Bulk Modulus (GPa) = 82.27645 94.11037 88.19341
# Shear Modulus (GPa) = 38.66062 50.07124 44.36593
#
# Velocity S-wave (km/s) = 3.78967 4.31281 4.05967
# Velocity P-wave (km/s) = 7.05072 7.73048 7.39841
#
# Compressibility (1/GPa) = 0.01215415
#
# Stress axis : x y z
#
# Youngs Moduli (GPa) = 53.73665 94.47151 142.75673
#
# Poissons Ratio (x) = 0.56010 0.86338
# Poissons Ratio (y) = 0.31859 0.00656
# Poissons Ratio (z) = 0.32499 0.00434
#
# Static dielectric constant tensor:
#      x y z
#    x 2.128430 0.000000 -0.025990 
#    y 0.000000 2.208310 0.000000 
#    z -0.025990 0.000000 2.039610 
# 
# From -- ./inp_files/258670.got.cif
#   From: 2010.05.17/outbox.cif.g08.bks.cpg/sg15_130_cif.got.tgz:258670.got - 2010.06.03 18:47:42.
