data_PCOD9292417
_publ_section_title
;
Structure prediction by ZEFSAII (Michael W. Deem and Ramdas Pophale) SiO2 
 PCOD9292417
Probable space group: C 2/C
;
_chemical_formula_sum "Si O2"
_cell_formula_units_Z 48
_cell_length_a 13.812902
_cell_length_b 8.926959
_cell_length_c 23.801708
_cell_angle_alpha 90.000000
_cell_angle_beta 34.929927
_cell_angle_gamma 90.000000
_cell_volume 1680.460676
_symmetry_space_group_name_H-M "C 2/C"
_symmetry_group_IT_number 15
_symmetry_cell_setting 'monoclinic'
loop_
_space_group_symop_operation_xyz
x,y,z
-x,y,1/2-z
-x,-y,-z
x,-y,1/2+z
1/2+x,1/2+y,z
1/2-x,1/2+y,1/2-z
1/2-x,1/2-y,-z
1/2+x,1/2-y,1/2+z
loop_
_atom_site_type_symbol
_atom_site_label
_atom_site_fract_x
_atom_site_fract_y
_atom_site_fract_z
Si Si1 0.044546 0.054635 0.541765
Si Si2 0.156132 0.259882 0.234899
Si Si3 0.500000 0.989589 0.250000
Si Si4 0.000000 0.981425 0.250000
Si Si5 0.144801 0.402210 0.048369
Si Si6 0.746749 0.675657 0.300259
Si Si7 0.825046 0.365050 0.058191
O O1 0.075043 0.232286 0.519622
O O2 0.229038 0.011270 0.478017
O O3 0.000000 0.000000 0.500000
O O4 0.898562 0.952147 0.640966
O O5 0.292844 0.239904 0.217771
O O6 0.154795 0.365072 0.180739
O O7 0.114022 0.097293 0.231035
O O8 0.017056 0.350450 0.338687
O O9 0.410813 0.104955 0.250189
O O10 0.878534 0.890060 0.348990
O O11 0.250000 0.250000 0.000000
O O12 0.114962 0.481362 0.001716
O O13 0.676599 0.801715 0.376420
#
# Coordination Sequence:
#
# PCOD9292417 Si02
#       7
#     8   8   4   4   8   8   8
#     4  10  22  43  71 105 147 192 253 316 374 464
#     4  11  25  46  74 107 154 206 251 319 392 468
#     4  11  27  50  74 108 162 204 258 330 394 456
#     4  11  23  44  72 108 154 194 258 322 376 464
#     4  12  22  45  72 107 153 195 248 320 387 461
#     4  11  24  48  72 107 150 204 259 321 395 468
#     4  11  24  41  75 110 145 196 258 315 380 465
#
# _framework density 28.563596
#
# number of rings (size 3 to 8) (size 9 to 14) (size 15 to 20)
#    0.000    1.000    3.333    3.000    2.333    0.667 
#    6.000    0.000    0.000    0.000    0.000    0.000 
#    0.000    0.000    0.000    0.000    0.000    0.000 
#
# Total GULP energy -133706.317213 kJ/mol
# GULP energy per Si atom -5571.096551 kJ/mol
# Density = 2.849858 g / cm^3
# Si number density = 28.563596 Si / 1000 Ang^3
#
#
#
# Elastic Constant Matrix: (Units=GPa)
#
#
# Indices 1 2 3 4 5 6 
#
# 1 185.6857 64.7586 28.6165 0.0000 11.4624 0.0000
# 2 64.7586 196.6674 61.0035 0.0000 -0.0888 0.0000
# 3 28.6165 61.0035 155.5875 0.0000 0.6995 0.0000
# 4 0.0000 0.0000 0.0000 39.4342 0.0000 0.4193
# 5 11.4624 -0.0888 0.6995 0.0000 44.7611 0.0000
# 6 0.0000 0.0000 0.0000 0.4193 0.0000 52.6401
#
#
#
# Elastic Compliance Matrix: (Units=1/GPa)
#
#
# Indices 1 2 3 4 5 6 
#
# 1 0.006215 -0.001929 -0.000379 0.000000 -0.001589 0.000000
# 2 -0.001929 0.006388 -0.002152 0.000000 0.000540 0.000000
# 3 -0.000379 -0.002152 0.007341 0.000000 -0.000022 0.000000
# 4 0.000000 0.000000 0.000000 0.025361 0.000000 -0.000202
# 5 -0.001589 0.000540 -0.000022 0.000000 0.022749 0.000000
# 6 0.000000 0.000000 0.000000 -0.000202 0.000000 0.018999
#
#
# Mechanical properties :
#
#
# Convention : Reuss Voigt Hill
#
# Bulk Modulus (GPa) = 90.73013 94.07752 92.40383
# Shear Modulus (GPa) = 50.17644 52.93789 51.55717
#
# Velocity S-wave (km/s) = 4.19580 4.30971 4.25313
# Velocity P-wave (km/s) = 7.43681 7.60082 7.51926
#
# Compressibility (1/GPa) = 0.01102170
#
# Stress axis : x y z
#
# Youngs Moduli (GPa) = 160.90244 156.54663 136.22208
#
# Poissons Ratio (x) = 0.30205 0.05169
# Poissons Ratio (y) = 0.31046 0.29317
# Poissons Ratio (z) = 0.06105 0.33691
#
# Static dielectric constant tensor:
#      x y z
#    x 2.716900 0.000000 0.167030 
#    y 0.000000 2.367930 0.000000 
#    z 0.167030 0.000000 2.403970 
# 
# From -- ./inp_files/295425.got.cif
#   From: 2010.05.17/outbox.cif.g08.bks.cpg/sg15_148_cif.got.tgz:295425.got - 2010.06.03 18:47:42.
