data_PCOD9292526
_publ_section_title
;
Structure prediction by ZEFSAII (Michael W. Deem and Ramdas Pophale) SiO2 
 PCOD9292526
Probable space group: C 2/C
;
_chemical_formula_sum "Si O2"
_cell_formula_units_Z 56
_cell_length_a 28.138116
_cell_length_b 8.008861
_cell_length_c 11.612705
_cell_angle_alpha 90.000000
_cell_angle_beta 75.352222
_cell_angle_gamma 90.000000
_cell_volume 2531.917367
_symmetry_space_group_name_H-M "C 2/C"
_symmetry_group_IT_number 15
_symmetry_cell_setting 'monoclinic'
loop_
_space_group_symop_operation_xyz
x,y,z
-x,y,1/2-z
-x,-y,-z
x,-y,1/2+z
1/2+x,1/2+y,z
1/2-x,1/2+y,1/2-z
1/2-x,1/2-y,-z
1/2+x,1/2-y,1/2+z
loop_
_atom_site_type_symbol
_atom_site_label
_atom_site_fract_x
_atom_site_fract_y
_atom_site_fract_z
Si Si1 0.098810 0.244189 0.376000
Si Si2 0.674546 0.242559 0.250603
Si Si3 0.496580 0.376214 0.887655
Si Si4 0.608575 0.372395 0.469957
Si Si5 0.674035 0.743844 0.119020
Si Si6 0.249774 0.509441 0.319850
Si Si7 0.831988 0.609152 0.487273
O O1 0.041622 0.253495 0.375277
O O2 0.136023 0.258739 0.247099
O O3 0.121208 0.363338 0.460108
O O4 0.102878 0.055295 0.420625
O O5 0.626263 0.250779 0.357348
O O6 0.705136 0.409114 0.260946
O O7 0.709338 0.088071 0.261556
O O8 0.663780 0.230986 0.123166
O O9 0.500000 0.440557 0.750000
O O10 0.500000 0.500000 0.000000
O O11 0.441269 0.311854 0.938695
O O12 0.650573 0.378516 0.539839
O O13 0.725081 0.664076 0.128920
O O14 0.674103 0.921802 0.056486
O O15 0.219002 0.373103 0.411789
#
# Coordination Sequence:
#
# PCOD9292526 Si02
#       7
#     8   8   8   8   8   8   8
#     4  11  24  45  72  99 134 178 236 287 355 415
#     4  12  25  42  65  97 138 178 237 281 355 411
#     4  10  22  43  76 107 137 178 235 300 357 421
#     4  11  24  43  70 100 132 176 228 291 345 417
#     4  12  24  43  68  97 142 176 233 281 352 416
#     4  12  25  41  66  98 136 188 231 285 348 423
#     4  12  26  42  65  98 142 185 230 289 341 429
#
# _framework density 22.117625
#
# number of rings (size 3 to 8) (size 9 to 14) (size 15 to 20)
#    0.000    0.571    4.286    4.286    2.000    1.143 
#    0.000    0.714    3.143    0.000    0.000    0.000 
#    0.000    0.000    0.000    0.000    0.000    0.000 
#
# Total GULP energy -156375.445923 kJ/mol
# GULP energy per Si atom -5584.837354 kJ/mol
# Density = 2.206728 g / cm^3
# Si number density = 22.117625 Si / 1000 Ang^3
#
#
#
# Elastic Constant Matrix: (Units=GPa)
#
#
# Indices 1 2 3 4 5 6 
#
# 1 92.2756 23.2846 49.4411 0.0000 -0.3218 0.0000
# 2 23.2846 42.3220 18.6141 0.0000 -3.5470 0.0000
# 3 49.4411 18.6141 131.0713 0.0000 -7.2004 0.0000
# 4 0.0000 0.0000 0.0000 30.0636 0.0000 13.5110
# 5 -0.3218 -3.5470 -7.2004 0.0000 40.2588 0.0000
# 6 0.0000 0.0000 0.0000 13.5110 0.0000 25.1429
#
#
#
# Elastic Compliance Matrix: (Units=1/GPa)
#
#
# Indices 1 2 3 4 5 6 
#
# 1 0.015001 -0.006231 -0.004845 0.000000 -0.001296 0.000000
# 2 -0.006231 0.027893 -0.001493 0.000000 0.002141 0.000000
# 3 -0.004845 -0.001493 0.009755 0.000000 0.001574 0.000000
# 4 0.000000 0.000000 0.000000 0.043853 0.000000 -0.023565
# 5 -0.001296 0.002141 0.001574 0.000000 0.025299 0.000000
# 6 0.000000 0.000000 0.000000 -0.023565 0.000000 0.052436
#
#
# Mechanical properties :
#
#
# Convention : Reuss Voigt Hill
#
# Bulk Modulus (GPa) = 36.34882 49.81650 43.08266
# Shear Modulus (GPa) = 23.97564 30.71501 27.34533
#
# Velocity S-wave (km/s) = 3.29600 3.73059 3.52000
# Velocity P-wave (km/s) = 5.56370 6.41317 6.00348
#
# Compressibility (1/GPa) = 0.02751121
#
# Stress axis : x y z
#
# Youngs Moduli (GPa) = 66.66396 35.85180 102.50694
#
# Poissons Ratio (x) = 0.22339 0.49661
# Poissons Ratio (y) = 0.41537 0.15307
# Poissons Ratio (z) = 0.32296 0.05354
#
# Static dielectric constant tensor:
#      x y z
#    x 1.836550 0.000000 0.018930 
#    y 0.000000 1.837710 0.000000 
#    z 0.018930 0.000000 1.887800 
# 
# From -- ./inp_files/121904.got.cif
#   From: 2010.05.17/outbox.cif.g08.bks.cpg/sg15_61_cif.got.tgz:121904.got - 2010.06.03 18:47:42.
