data_PCOD9292758
_publ_section_title
;
Structure prediction by ZEFSAII (Michael W. Deem and Ramdas Pophale) SiO2 
 PCOD9292758
Probable space group: C 2/C
;
_chemical_formula_sum "Si O2"
_cell_formula_units_Z 52
_cell_length_a 7.989121
_cell_length_b 11.972332
_cell_length_c 25.342750
_cell_angle_alpha 90.000000
_cell_angle_beta 86.902226
_cell_angle_gamma 90.000000
_cell_volume 2420.451706
_symmetry_space_group_name_H-M "C 2/C"
_symmetry_group_IT_number 15
_symmetry_cell_setting 'monoclinic'
loop_
_space_group_symop_operation_xyz
x,y,z
-x,y,1/2-z
-x,-y,-z
x,-y,1/2+z
1/2+x,1/2+y,z
1/2-x,1/2+y,1/2-z
1/2-x,1/2-y,-z
1/2+x,1/2-y,1/2+z
loop_
_atom_site_type_symbol
_atom_site_label
_atom_site_fract_x
_atom_site_fract_y
_atom_site_fract_z
Si Si1 0.756910 0.080400 0.041451
Si Si2 0.000000 0.680492 0.250000
Si Si3 0.916174 0.187051 0.937346
Si Si4 0.712774 0.826707 0.051594
Si Si5 0.283850 0.315176 0.327087
Si Si6 0.006566 0.169437 0.373224
Si Si7 0.675630 0.551508 0.214882
O O1 0.626544 0.183589 0.048167
O O2 0.878030 0.093446 0.090488
O O3 0.678804 0.956949 0.039847
O O4 0.864619 0.110248 0.987615
O O5 0.053616 0.753739 0.198821
O O6 0.168122 0.614223 0.261746
O O7 0.811404 0.156530 0.887792
O O8 0.110046 0.173432 0.921649
O O9 0.575113 0.763434 0.088087
O O10 0.750000 0.750000 0.000000
O O11 0.126764 0.232715 0.330015
O O12 0.263184 0.425340 0.293843
O O13 0.870927 0.102819 0.341608
O O14 0.500000 0.551911 0.250000
#
# Coordination Sequence:
#
# PCOD9292758 Si02
#       7
#     8   4   8   8   8   8   8
#     4  10  23  44  65  97 144 178 230 285 336 415
#     4  12  26  48  70 104 134 178 238 286 362 418
#     4  10  22  44  67  96 140 186 225 286 343 411
#     4  12  24  38  66 103 137 184 232 277 340 411
#     4  11  25  46  72 101 136 183 232 289 353 416
#     4  11  25  45  68 102 136 183 232 282 351 419
#     4  12  26  47  76 100 138 180 231 298 352 417
#
# _framework density 21.483592000000002
#
# number of rings (size 3 to 8) (size 9 to 14) (size 15 to 20)
#    0.000    0.923    3.846    2.308    2.154    5.538 
#    2.769    0.000    0.000    0.000    0.000    0.000 
#    0.000    0.000    0.000    0.000    0.000    0.000 
#
# Total GULP energy -145348.656607 kJ/mol
# GULP energy per Si atom -5590.332946 kJ/mol
# Density = 2.143469 g / cm^3
# Si number density = 21.483592 Si / 1000 Ang^3
#
#
#
# Elastic Constant Matrix: (Units=GPa)
#
#
# Indices 1 2 3 4 5 6 
#
# 1 57.2902 18.1189 17.9596 0.0000 -13.2339 0.0000
# 2 18.1189 129.4559 49.6141 0.0000 -10.8856 0.0000
# 3 17.9596 49.6141 81.0411 0.0000 -14.9408 0.0000
# 4 0.0000 0.0000 0.0000 17.4341 0.0000 -2.1442
# 5 -13.2339 -10.8856 -14.9408 0.0000 39.3822 0.0000
# 6 0.0000 0.0000 0.0000 -2.1442 0.0000 -8.9889
#
#
#
# Elastic Compliance Matrix: (Units=1/GPa)
#
#
# Indices 1 2 3 4 5 6 
#
# 1 0.019930 -0.001339 -0.002613 0.000000 0.005336 0.000000
# 2 -0.001339 0.010191 -0.005920 0.000000 0.000121 0.000000
# 3 -0.002613 -0.005920 0.017288 0.000000 0.004044 0.000000
# 4 0.000000 0.000000 0.000000 0.055724 0.000000 -0.013292
# 5 0.005336 0.000121 0.004044 0.000000 0.028753 0.000000
# 6 0.000000 0.000000 0.000000 -0.013292 0.000000 -0.108078
#
#
# Mechanical properties :
#
#
# Convention : Reuss Voigt Hill
#
# Bulk Modulus (GPa) = 36.14677 48.79692 42.47184
# Shear Modulus (GPa) = 94.74041 21.70511 58.22276
#
# Velocity S-wave (km/s) = 6.64791 3.18199 5.21151
# Velocity P-wave (km/s) = 8.70563 6.02187 7.48502
#
# Compressibility (1/GPa) = 0.02766499
#
# Stress axis : x y z
#
# Youngs Moduli (GPa) = 50.17481 98.12485 57.84224
#
# Poissons Ratio (x) = 0.13142 0.15115
# Poissons Ratio (y) = 0.06720 0.34242
# Poissons Ratio (z) = 0.13111 0.58090
#
# Static dielectric constant tensor:
#      x y z
#    x 1.823530 0.000000 0.033260 
#    y 0.000000 1.777810 0.000000 
#    z 0.033260 0.000000 1.788490 
# 
# From -- ./inp_files/287615.got.cif
#   From: 2010.05.17/outbox.cif.g08.bks.cpg/sg15_144_cif.got.tgz:287615.got - 2010.06.03 18:47:42.
