data_PCOD9292164
_publ_section_title
;
Structure prediction by ZEFSAII (Michael W. Deem and Ramdas Pophale) SiO2 
 PCOD9292164
Probable space group: C 2/C
;
_chemical_formula_sum "Si O2"
_cell_formula_units_Z 60
_cell_length_a 13.621064
_cell_length_b 9.193620
_cell_length_c 22.133962
_cell_angle_alpha 90.000000
_cell_angle_beta 107.189423
_cell_angle_gamma 90.000000
_cell_volume 2647.960441
_symmetry_space_group_name_H-M "C 2/C"
_symmetry_group_IT_number 15
_symmetry_cell_setting 'monoclinic'
loop_
_space_group_symop_operation_xyz
x,y,z
-x,y,1/2-z
-x,-y,-z
x,-y,1/2+z
1/2+x,1/2+y,z
1/2-x,1/2+y,1/2-z
1/2-x,1/2-y,-z
1/2+x,1/2-y,1/2+z
loop_
_atom_site_type_symbol
_atom_site_label
_atom_site_fract_x
_atom_site_fract_y
_atom_site_fract_z
Si Si1 0.575494 0.358827 0.856286
Si Si2 0.159812 0.505588 0.255228
Si Si3 0.380242 0.660207 0.619024
Si Si4 0.500000 0.223676 0.250000
Si Si5 0.358413 0.168817 0.524816
Si Si6 0.057102 0.120114 0.552437
Si Si7 0.722293 0.956886 0.901999
Si Si8 0.635580 0.319145 0.730037
O O1 0.648270 0.491253 0.889910
O O2 0.583346 0.237095 0.907449
O O3 0.607427 0.316941 0.795235
O O4 0.454662 0.390488 0.825781
O O5 0.068444 0.615232 0.222329
O O6 0.162027 0.497277 0.329396
O O7 0.264198 0.586744 0.259419
O O8 0.150835 0.351920 0.220436
O O9 0.427155 0.682043 0.694606
O O10 0.476967 0.664245 0.590452
O O11 0.292132 0.781741 0.597240
O O12 0.250000 0.250000 0.500000
O O13 0.418076 0.228182 0.477565
O O14 0.329605 0.010798 0.544835
O O15 0.166780 0.037230 0.584858
O O16 0.000000 0.000000 0.500000
#
# Coordination Sequence:
#
# PCOD9292164 Si02
#       8
#     8   8   8   4   8   8   8   8
#     4  11  22  43  64  94 132 176 218 276 345 400
#     4  11  24  40  64  99 130 177 218 277 336 415
#     4  11  24  41  71  98 131 173 222 284 337 412
#     4  10  24  42  66  96 140 164 220 274 354 398
#     4  10  22  43  67  91 129 178 222 277 342 399
#     4  11  23  43  70  95 129 178 226 281 334 398
#     4  10  24  43  66  93 137 170 224 283 337 404
#     4  11  25  38  68  95 135 176 226 271 341 415
#
# _framework density 22.658950000000001
#
# number of rings (size 3 to 8) (size 9 to 14) (size 15 to 20)
#    0.000    1.333    2.667    2.400    9.333    1.067 
#    0.000    0.000    0.000    0.000    0.000    0.000 
#    0.000    0.000    0.000    0.000    0.000    0.000 
#
# Total GULP energy -167305.405077 kJ/mol
# GULP energy per Si atom -5576.846836 kJ/mol
# Density = 2.260738 g / cm^3
# Si number density = 22.658950 Si / 1000 Ang^3
#
#
#
# Elastic Constant Matrix: (Units=GPa)
#
#
# Indices 1 2 3 4 5 6 
#
# 1 58.2414 -1.2255 1.4768 0.0000 -2.1108 0.0000
# 2 -1.2255 74.0861 -16.0575 0.0000 2.4930 0.0000
# 3 1.4768 -16.0575 38.3053 0.0000 -2.8128 0.0000
# 4 0.0000 0.0000 0.0000 16.4550 0.0000 -6.3186
# 5 -2.1108 2.4930 -2.8128 0.0000 29.0801 0.0000
# 6 0.0000 0.0000 0.0000 -6.3186 0.0000 34.7710
#
#
#
# Elastic Compliance Matrix: (Units=1/GPa)
#
#
# Indices 1 2 3 4 5 6 
#
# 1 0.017229 0.000132 -0.000522 0.000000 0.001189 0.000000
# 2 0.000132 0.014861 0.006176 0.000000 -0.000667 0.000000
# 3 -0.000522 0.006176 0.028878 0.000000 0.002226 0.000000
# 4 0.000000 0.000000 0.000000 0.065330 0.000000 0.011872
# 5 0.001189 -0.000667 0.002226 0.000000 0.034747 0.000000
# 6 0.000000 0.000000 0.000000 0.011872 0.000000 0.030917
#
#
# Mechanical properties :
#
#
# Convention : Reuss Voigt Hill
#
# Bulk Modulus (GPa) = 13.78548 15.44673 14.61610
# Shear Modulus (GPa) = 24.44146 28.49049 26.46597
#
# Velocity S-wave (km/s) = 3.28787 3.54978 3.42133
# Velocity P-wave (km/s) = 4.52886 4.86139 4.69806
#
# Compressibility (1/GPa) = 0.07254009
#
# Stress axis : x y z
#
# Youngs Moduli (GPa) = 58.04161 67.29052 34.62796
#
# Poissons Ratio (x) = -0.00888 0.01806
# Poissons Ratio (y) = -0.00766 -0.21385
# Poissons Ratio (z) = 0.03028 -0.41556
#
# Static dielectric constant tensor:
#      x y z
#    x 2.339280 0.000000 -0.027200 
#    y 0.000000 2.002630 0.000000 
#    z -0.027200 0.000000 1.861120 
# 
# From -- ./inp_files/272809.got.cif
#   From: 2010.05.17/outbox.cif.g08.bks.cpg/sg15_137_cif.got.tgz:272809.got - 2010.06.03 18:47:42.
