data_PCOD9292928
_publ_section_title
;
Structure prediction by ZEFSAII (Michael W. Deem and Ramdas Pophale) SiO2 
 PCOD9292928
Probable space group: C 2/C
;
_chemical_formula_sum "Si O2"
_cell_formula_units_Z 40
_cell_length_a 20.453025
_cell_length_b 8.898619
_cell_length_c 25.213111
_cell_angle_alpha 90.000000
_cell_angle_beta 162.325233
_cell_angle_gamma 90.000000
_cell_volume 1393.245496
_symmetry_space_group_name_H-M "C 2/C"
_symmetry_group_IT_number 15
_symmetry_cell_setting 'monoclinic'
loop_
_space_group_symop_operation_xyz
x,y,z
-x,y,1/2-z
-x,-y,-z
x,-y,1/2+z
1/2+x,1/2+y,z
1/2-x,1/2+y,1/2-z
1/2-x,1/2-y,-z
1/2+x,1/2-y,1/2+z
loop_
_atom_site_type_symbol
_atom_site_label
_atom_site_fract_x
_atom_site_fract_y
_atom_site_fract_z
Si Si1 0.609749 0.716729 0.229385
Si Si2 0.500000 0.463484 0.750000
Si Si3 0.250000 0.250000 0.000000
Si Si4 0.030452 0.558977 0.387790
Si Si5 0.973887 0.933011 0.076368
Si Si6 0.066199 0.303909 0.031277
O O1 0.551181 0.641802 0.240137
O O2 0.539856 0.888904 0.173182
O O3 0.480983 0.611787 0.088058
O O4 0.857779 0.691109 0.406628
O O5 0.296687 0.572273 0.585533
O O6 0.333230 0.366195 0.014759
O O7 0.495224 0.166971 0.181654
O O8 0.006125 0.613080 0.429262
O O9 0.221707 0.874832 0.278836
O O10 0.906242 0.868772 0.966776
#
# Coordination Sequence:
#
# PCOD9292928 Si02
#       6
#     8   4   4   8   8   8
#     4  12  25  44  72 105 142 194 248 306 372 438
#     4  12  24  42  72  96 148 184 246 302 372 426
#     4  10  22  44  70 100 146 184 244 290 372 432
#     4  11  23  46  70 106 143 195 244 305 369 448
#     4  11  24  46  73 103 145 196 240 307 367 446
#     4  11  25  47  74 104 148 194 246 305 375 435
#
# _framework density 28.709945000000001
#
# number of rings (size 3 to 8) (size 9 to 14) (size 15 to 20)
#    0.000    0.800    4.000    2.400    2.800    2.400 
#    7.200    6.000    0.000    0.000    0.000    0.000 
#    0.000    0.000    0.000    0.000    0.000    0.000 
#
# Total GULP energy -111837.374534 kJ/mol
# GULP energy per Si atom -5591.868727 kJ/mol
# Density = 2.864460 g / cm^3
# Si number density = 28.709945 Si / 1000 Ang^3
#
#
#
# Elastic Constant Matrix: (Units=GPa)
#
#
# Indices 1 2 3 4 5 6 
#
# 1 141.6049 50.0974 63.3927 -0.0151 35.2144 0.0011
# 2 50.0974 168.8985 43.7043 -0.0079 8.9426 -0.0005
# 3 63.3927 43.7043 133.3900 -0.0276 28.1092 0.0138
# 4 -0.0151 -0.0079 -0.0276 40.9546 0.0038 -0.6009
# 5 35.2144 8.9426 28.1092 0.0038 58.4307 -0.0026
# 6 0.0011 -0.0005 0.0138 -0.6009 -0.0026 66.4870
#
#
#
# Elastic Compliance Matrix: (Units=1/GPa)
#
#
# Indices 1 2 3 4 5 6 
#
# 1 0.010333 -0.001968 -0.003358 0.000002 -0.004311 0.000000
# 2 -0.001968 0.006844 -0.001487 0.000000 0.000854 0.000000
# 3 -0.003358 -0.001487 0.010133 0.000006 -0.002623 -0.000002
# 4 0.000002 0.000000 0.000006 0.024421 -0.000005 0.000221
# 5 -0.004311 0.000854 -0.002623 -0.000005 0.020844 0.000001
# 6 0.000000 0.000000 -0.000002 0.000221 0.000001 0.015043
#
#
# Mechanical properties :
#
#
# Convention : Reuss Voigt Hill
#
# Bulk Modulus (GPa) = 73.07451 84.25359 78.66405
# Shear Modulus (GPa) = 47.25740 52.28771 49.77255
#
# Velocity S-wave (km/s) = 4.06153 4.27223 4.16821
# Velocity P-wave (km/s) = 6.89222 7.33117 7.11508
#
# Compressibility (1/GPa) = 0.01368466
#
# Stress axis : x y z
#
# Youngs Moduli (GPa) = 96.77433 146.11306 98.69189
#
# Poissons Ratio (x) = 0.28754 0.33137
# Poissons Ratio (y) = 0.19044 0.14677
# Poissons Ratio (z) = 0.32493 0.21729
#
# Static dielectric constant tensor:
#      x y z
#    x -2.183560 -0.000020 1.607540 
#    y -0.000020 3.069750 -0.000010 
#    z 1.607540 -0.000010 1.811800 
# 
# From -- ./inp_files/317638.got.cif
#   From: 2010.05.17/outbox.cif.g08.bks.cpg/sg15_159_cif.got.tgz:317638.got - 2010.06.03 18:47:42.
