data_PCOD9292348
_publ_section_title
;
Structure prediction by ZEFSAII (Michael W. Deem and Ramdas Pophale) SiO2 
 PCOD9292348
Probable space group: C 2/C
;
_chemical_formula_sum "Si O2"
_cell_formula_units_Z 64
_cell_length_a 8.054980
_cell_length_b 18.111394
_cell_length_c 26.319845
_cell_angle_alpha 90.000000
_cell_angle_beta 139.406523
_cell_angle_gamma 90.000000
_cell_volume 2498.459520
_symmetry_space_group_name_H-M "C 2/C"
_symmetry_group_IT_number 15
_symmetry_cell_setting 'monoclinic'
loop_
_space_group_symop_operation_xyz
x,y,z
-x,y,1/2-z
-x,-y,-z
x,-y,1/2+z
1/2+x,1/2+y,z
1/2-x,1/2+y,1/2-z
1/2-x,1/2-y,-z
1/2+x,1/2-y,1/2+z
loop_
_atom_site_type_symbol
_atom_site_label
_atom_site_fract_x
_atom_site_fract_y
_atom_site_fract_z
Si Si1 0.171110 0.041308 0.739326
Si Si2 0.492887 0.163865 0.647546
Si Si3 0.298362 0.479075 0.057840
Si Si4 0.710973 0.818540 0.028991
Si Si5 0.153981 0.795037 0.833350
Si Si6 0.273138 0.635768 0.018404
Si Si7 0.664807 0.121420 0.214096
Si Si8 0.756872 0.735264 0.138894
O O1 0.326210 0.965189 0.780629
O O2 0.000000 0.051310 0.750000
O O3 0.381346 0.105226 0.786443
O O4 0.970444 0.034314 0.647318
O O5 0.289495 0.221763 0.622460
O O6 0.386461 0.129964 0.570760
O O7 0.718821 0.217285 0.680346
O O8 0.309715 0.398723 0.033541
O O9 0.391498 0.554774 0.054013
O O10 0.000000 0.500000 0.000000
O O11 0.834007 0.789354 0.110536
O O12 0.750000 0.750000 0.000000
O O13 0.338601 0.850001 0.845807
O O14 0.000000 0.759061 0.750000
O O15 0.931480 0.850080 0.801127
O O16 0.419626 0.839786 0.980291
O O17 0.017835 0.800519 0.938035
O O18 0.436027 0.165596 0.184093
#
# Coordination Sequence:
#
# PCOD9292348 Si02
#       8
#     8   8   8   8   8   8   8   8
#     4  12  23  42  71 104 136 187 233 295 357 432
#     4  11  24  42  74 103 140 180 243 297 358 418
#     4  10  24  46  67 101 143 185 233 291 358 431
#     4  10  22  43  70 101 132 181 232 285 350 416
#     4   8  21  44  65  96 137 175 231 296 347 413
#     4  10  24  48  68 103 144 191 232 297 360 430
#     4   9  23  44  64 103 135 185 231 283 360 423
#     4  11  24  43  69 104 135 183 236 285 356 420
#
# _framework density 25.615784999999999
#
# number of rings (size 3 to 8) (size 9 to 14) (size 15 to 20)
#    0.750    1.000    1.250    3.750    5.250    5.000 
#    0.000    6.250    0.000    0.000    0.000    0.000 
#    0.000    0.000    0.000    0.000    0.000    0.000 
#
# Total GULP energy -178842.437212 kJ/mol
# GULP energy per Si atom -5588.826163 kJ/mol
# Density = 2.555748 g / cm^3
# Si number density = 25.615785 Si / 1000 Ang^3
#
#
#
# Elastic Constant Matrix: (Units=GPa)
#
#
# Indices 1 2 3 4 5 6 
#
# 1 49.7677 36.5864 27.6418 -0.0003 0.5351 -0.0003
# 2 36.5864 234.6643 55.4150 0.0000 -5.4646 -0.0001
# 3 27.6418 55.4150 83.7018 -0.0007 8.7789 -0.0003
# 4 -0.0003 0.0000 -0.0007 38.1949 -0.0003 7.2795
# 5 0.5351 -5.4646 8.7789 -0.0003 35.0457 -0.0003
# 6 -0.0003 -0.0001 -0.0003 7.2795 -0.0003 36.3939
#
#
#
# Elastic Compliance Matrix: (Units=1/GPa)
#
#
# Indices 1 2 3 4 5 6 
#
# 1 0.025708 -0.002317 -0.007063 0.000000 0.001015 0.000000
# 2 -0.002317 0.005357 -0.002950 0.000000 0.001610 0.000000
# 3 -0.007063 -0.002950 0.016709 0.000000 -0.004538 0.000000
# 4 0.000000 0.000000 0.000000 0.027219 0.000000 -0.005444
# 5 0.001015 0.001610 -0.004538 0.000000 0.029906 0.000000
# 6 0.000000 0.000000 0.000000 -0.005444 0.000000 0.028566
#
#
# Mechanical properties :
#
#
# Convention : Reuss Voigt Hill
#
# Bulk Modulus (GPa) = 43.26277 67.49114 55.37695
# Shear Modulus (GPa) = 30.15149 38.49294 34.32222
#
# Velocity S-wave (km/s) = 3.43456 3.88068 3.66442
# Velocity P-wave (km/s) = 5.71437 6.81793 6.29040
#
# Compressibility (1/GPa) = 0.02311456
#
# Stress axis : x y z
#
# Youngs Moduli (GPa) = 38.89799 186.67967 59.84915
#
# Poissons Ratio (x) = 0.43248 0.42269
# Poissons Ratio (y) = 0.09012 0.17657
# Poissons Ratio (z) = 0.27472 0.55075
#
# Static dielectric constant tensor:
#      x y z
#    x 2.107760 0.000000 0.006350 
#    y 0.000000 1.958950 0.000000 
#    z 0.006350 0.000000 2.172720 
# 
# From -- ./inp_files/311669.got.cif
#   From: 2010.05.17/outbox.cif.g08.bks.cpg/sg15_156_cif.got.tgz:311669.got - 2010.06.03 18:47:42.
