data_PCOD9292391
_publ_section_title
;
Structure prediction by ZEFSAII (Michael W. Deem and Ramdas Pophale) SiO2 
 PCOD9292391
Probable space group: C 2/C
;
_chemical_formula_sum "Si O2"
_cell_formula_units_Z 40
_cell_length_a 17.601554
_cell_length_b 8.143668
_cell_length_c 17.818513
_cell_angle_alpha 90.000000
_cell_angle_beta 38.276910
_cell_angle_gamma 90.000000
_cell_volume 1582.186612
_symmetry_space_group_name_H-M "C 2/C"
_symmetry_group_IT_number 15
_symmetry_cell_setting 'monoclinic'
loop_
_space_group_symop_operation_xyz
x,y,z
-x,y,1/2-z
-x,-y,-z
x,-y,1/2+z
1/2+x,1/2+y,z
1/2-x,1/2+y,1/2-z
1/2-x,1/2-y,-z
1/2+x,1/2-y,1/2+z
loop_
_atom_site_type_symbol
_atom_site_label
_atom_site_fract_x
_atom_site_fract_y
_atom_site_fract_z
Si Si1 0.328262 0.358667 0.996888
Si Si2 0.132522 0.838695 0.130320
Si Si3 0.716123 0.010883 0.723086
Si Si4 0.901189 0.845645 0.177872
Si Si5 0.022313 0.690089 0.959801
O O1 0.398089 0.502960 0.897518
O O2 0.417254 0.258673 0.984402
O O3 0.250000 0.250000 0.000000
O O4 0.231862 0.451623 0.124174
O O5 0.152183 0.900218 0.199581
O O6 0.000000 0.746365 0.250000
O O7 0.250000 0.750000 0.000000
O O8 0.844579 0.022517 0.665916
O O9 0.641119 0.160848 0.817324
O O10 0.655477 0.836921 0.780700
O O11 0.026390 0.794403 0.034648
O O12 0.000000 0.500000 0.000000
#
# Coordination Sequence:
#
# PCOD9292391 Si02
#       5
#     8   8   8   8   8
#     4  11  26  44  71 112 150 199 259 335 399 478
#     4  12  29  49  74 112 162 209 261 329 411 485
#     4  10  22  43  70  99 144 191 258 313 391 466
#     4  10  23  42  68 103 139 197 250 320 383 471
#     4   9  22  42  71 105 143 202 260 324 393 480
#
# _framework density 25.281469000000001
#
# number of rings (size 3 to 8) (size 9 to 14) (size 15 to 20)
#    0.000    1.600    2.000    0.000   14.000    1.600 
#    0.000    4.000    0.000    0.000    0.000    0.000 
#    0.000    0.000    0.000    0.000    0.000    0.000 
#
# Total GULP energy -111395.487148 kJ/mol
# GULP energy per Si atom -5569.774357 kJ/mol
# Density = 2.522393 g / cm^3
# Si number density = 25.281469 Si / 1000 Ang^3
#
#
#
# Elastic Constant Matrix: (Units=GPa)
#
#
# Indices 1 2 3 4 5 6 
#
# 1 72.0340 35.6712 30.6027 0.0000 23.4981 0.0000
# 2 35.6712 108.4001 61.5233 0.0000 14.4050 0.0000
# 3 30.6027 61.5233 205.6848 0.0000 24.3171 0.0000
# 4 0.0000 0.0000 0.0000 37.8489 0.0000 9.1726
# 5 23.4981 14.4050 24.3171 0.0000 52.4002 0.0000
# 6 0.0000 0.0000 0.0000 9.1726 0.0000 44.4046
#
#
#
# Elastic Compliance Matrix: (Units=1/GPa)
#
#
# Indices 1 2 3 4 5 6 
#
# 1 0.018793 -0.004997 -0.000495 0.000000 -0.006824 0.000000
# 2 -0.004997 0.012568 -0.003039 0.000000 0.000196 0.000000
# 3 -0.000495 -0.003039 0.006051 0.000000 -0.001751 0.000000
# 4 0.000000 0.000000 0.000000 0.027813 0.000000 -0.005745
# 5 -0.006824 0.000196 -0.001751 0.000000 0.022903 0.000000
# 6 0.000000 0.000000 0.000000 -0.005745 0.000000 0.023707
#
#
# Mechanical properties :
#
#
# Convention : Reuss Voigt Hill
#
# Bulk Modulus (GPa) = 49.13573 71.30147 60.21860
# Shear Modulus (GPa) = 36.85138 44.15219 40.50179
#
# Velocity S-wave (km/s) = 3.82205 4.18356 4.00688
# Velocity P-wave (km/s) = 6.24140 7.18335 6.72888
#
# Compressibility (1/GPa) = 0.02035179
#
# Stress axis : x y z
#
# Youngs Moduli (GPa) = 53.21153 79.56657 165.24958
#
# Poissons Ratio (x) = 0.39756 0.08176
# Poissons Ratio (y) = 0.26587 0.50220
# Poissons Ratio (z) = 0.02633 0.24181
#
# Static dielectric constant tensor:
#      x y z
#    x 2.405200 0.000000 -0.058110 
#    y 0.000000 1.977680 0.000000 
#    z -0.058110 0.000000 2.141920 
# 
# From -- ./inp_files/213679.got.cif
#   From: 2010.05.17/outbox.cif.g08.bks.cpg/sg15_107_cif.got.tgz:213679.got - 2010.06.03 18:47:42.
