data_PCOD9292855
_publ_section_title
;
Structure prediction by ZEFSAII (Michael W. Deem and Ramdas Pophale) SiO2 
 PCOD9292855
Probable space group: C 2/C
;
_chemical_formula_sum "Si O2"
_cell_formula_units_Z 40
_cell_length_a 17.173359
_cell_length_b 13.511607
_cell_length_c 12.294759
_cell_angle_alpha 90.000000
_cell_angle_beta 139.556905
_cell_angle_gamma 90.000000
_cell_volume 1850.636639
_symmetry_space_group_name_H-M "C 2/C"
_symmetry_group_IT_number 15
_symmetry_cell_setting 'monoclinic'
loop_
_space_group_symop_operation_xyz
x,y,z
-x,y,1/2-z
-x,-y,-z
x,-y,1/2+z
1/2+x,1/2+y,z
1/2-x,1/2+y,1/2-z
1/2-x,1/2-y,-z
1/2+x,1/2-y,1/2+z
loop_
_atom_site_type_symbol
_atom_site_label
_atom_site_fract_x
_atom_site_fract_y
_atom_site_fract_z
Si Si1 0.876841 0.709293 0.685010
Si Si2 0.121234 0.491334 0.196141
Si Si3 0.558363 0.348109 0.555823
Si Si4 0.333284 0.448678 0.255004
Si Si5 0.728966 0.354943 0.532802
O O1 0.750000 0.750000 0.500000
O O2 0.877009 0.591710 0.707800
O O3 0.896992 0.758495 0.824194
O O4 0.000000 0.734192 0.750000
O O5 0.221352 0.459601 0.215168
O O6 0.158419 0.597016 0.285494
O O7 0.000000 0.500000 0.000000
O O8 0.417158 0.359471 0.386544
O O9 0.596632 0.447926 0.659779
O O10 0.623313 0.348422 0.508668
O O11 0.303097 0.428618 0.098830
O O12 0.750000 0.250000 0.500000
#
# Coordination Sequence:
#
# PCOD9292855 Si02
#       5
#     8   8   8   8   8
#     4  12  27  45  74 101 145 192 243 293 369 433
#     4  11  27  43  69 101 145 182 235 303 360 431
#     4  10  23  43  72 102 137 184 243 293 348 435
#     4  10  22  44  68  99 139 180 239 295 359 417
#     4  11  24  42  72 100 143 184 239 287 365 427
#
# _framework density 21.614184000000002
#
# number of rings (size 3 to 8) (size 9 to 14) (size 15 to 20)
#    0.000    1.200    0.000    4.200   11.200    3.200 
#    3.600    0.000    0.000    0.000    0.000    0.000 
#    0.000    0.000    0.000    0.000    0.000    0.000 
#
# Total GULP energy -111848.774886 kJ/mol
# GULP energy per Si atom -5592.438744 kJ/mol
# Density = 2.156499 g / cm^3
# Si number density = 21.614184 Si / 1000 Ang^3
#
#
#
# Elastic Constant Matrix: (Units=GPa)
#
#
# Indices 1 2 3 4 5 6 
#
# 1 78.4247 33.9416 67.4864 0.0000 -8.0326 0.0000
# 2 33.9416 102.1464 45.1990 0.0000 2.0999 0.0000
# 3 67.4864 45.1990 154.4834 0.0000 18.5460 0.0000
# 4 0.0000 0.0000 0.0000 43.4746 0.0000 -15.0649
# 5 -8.0326 2.0999 18.5460 0.0000 41.9441 0.0000
# 6 0.0000 0.0000 0.0000 -15.0649 0.0000 25.8845
#
#
#
# Elastic Compliance Matrix: (Units=1/GPa)
#
#
# Indices 1 2 3 4 5 6 
#
# 1 0.024675 -0.003576 -0.010900 0.000000 0.009724 0.000000
# 2 -0.003576 0.011799 -0.001835 0.000000 -0.000464 0.000000
# 3 -0.010900 -0.001835 0.012685 0.000000 -0.007604 0.000000
# 4 0.000000 0.000000 0.000000 0.028813 0.000000 0.016769
# 5 0.009724 -0.000464 -0.007604 0.000000 0.029089 0.000000
# 6 0.000000 0.000000 0.000000 0.016769 0.000000 0.048393
#
#
# Mechanical properties :
#
#
# Convention : Reuss Voigt Hill
#
# Bulk Modulus (GPa) = 60.46810 69.81208 65.14009
# Shear Modulus (GPa) = 25.82817 34.82248 30.32532
#
# Velocity S-wave (km/s) = 3.46058 4.01820 3.74977
# Velocity P-wave (km/s) = 6.63357 7.34147 6.99648
#
# Compressibility (1/GPa) = 0.01653764
#
# Stress axis : x y z
#
# Youngs Moduli (GPa) = 40.52747 84.75100 78.83496
#
# Poissons Ratio (x) = 0.30303 0.85933
# Poissons Ratio (y) = 0.14491 0.14463
# Poissons Ratio (z) = 0.44177 0.15548
#
# Static dielectric constant tensor:
#      x y z
#    x 1.753130 0.000000 0.026520 
#    y 0.000000 1.825010 0.000000 
#    z 0.026520 0.000000 1.788890 
# 
# From -- ./inp_files/96032.got.cif
#   From: 2010.05.17/outbox.cif.g08.bks.cpg/sg15_49_cif.got.tgz:96032.got - 2010.06.03 18:47:42.
