data_PCOD9292470
_publ_section_title
;
Structure prediction by ZEFSAII (Michael W. Deem and Ramdas Pophale) SiO2 
 PCOD9292470
Probable space group: C 2/C
;
_chemical_formula_sum "Si O2"
_cell_formula_units_Z 56
_cell_length_a 6.719220
_cell_length_b 24.477142
_cell_length_c 17.302283
_cell_angle_alpha 90.000000
_cell_angle_beta 67.119465
_cell_angle_gamma 90.000000
_cell_volume 2621.756316
_symmetry_space_group_name_H-M "C 2/C"
_symmetry_group_IT_number 15
_symmetry_cell_setting 'monoclinic'
loop_
_space_group_symop_operation_xyz
x,y,z
-x,y,1/2-z
-x,-y,-z
x,-y,1/2+z
1/2+x,1/2+y,z
1/2-x,1/2+y,1/2-z
1/2-x,1/2-y,-z
1/2+x,1/2-y,1/2+z
loop_
_atom_site_type_symbol
_atom_site_label
_atom_site_fract_x
_atom_site_fract_y
_atom_site_fract_z
Si Si1 0.500000 0.951115 0.250000
Si Si2 0.000000 0.706469 0.250000
Si Si3 0.399241 0.886122 0.875100
Si Si4 0.386746 0.537419 0.185557
Si Si5 0.662573 0.953531 0.947881
Si Si6 0.152763 0.735378 0.890238
Si Si7 0.069787 0.177662 0.524007
Si Si8 0.876086 0.372300 0.404513
O O1 0.486005 0.912865 0.327228
O O2 0.714847 0.988484 0.218489
O O3 0.985803 0.666501 0.178475
O O4 0.215385 0.741094 0.202267
O O5 0.246997 0.913230 0.833132
O O6 0.565906 0.929818 0.882802
O O7 0.248515 0.865003 0.967162
O O8 0.500000 0.549880 0.250000
O O9 0.593206 0.525608 0.099382
O O10 0.654719 0.904528 0.010650
O O11 0.500000 0.000000 0.000000
O O12 0.027796 0.783452 0.955432
O O13 0.009008 0.683358 0.893533
O O14 0.334391 0.714802 0.923072
O O15 0.862120 0.145962 0.584559
#
# Coordination Sequence:
#
# PCOD9292470 Si02
#       8
#     4   4   8   8   8   8   8   8
#     4  12  31  44  66 100 144 182 235 290 350 418
#     4  10  23  42  70 100 140 180 217 288 352 408
#     4  11  22  45  71 107 134 178 233 282 350 410
#     4  12  25  47  69 102 142 180 229 289 346 415
#     4  12  26  43  74 103 136 184 235 288 349 414
#     4  10  23  44  67 101 136 173 225 285 347 410
#     4  10  22  43  72  96 136 174 227 287 337 420
#     4  12  25  46  67 101 132 187 230 281 355 415
#
# _framework density 21.359725999999998
#
# number of rings (size 3 to 8) (size 9 to 14) (size 15 to 20)
#    0.000    0.857    2.857    4.286    4.000    2.286 
#    0.000    1.429    0.000    0.000    0.000    0.000 
#    0.000    0.000    0.000    0.000    0.000    0.000 
#
# Total GULP energy -156619.739757 kJ/mol
# GULP energy per Si atom -5593.562134 kJ/mol
# Density = 2.131111 g / cm^3
# Si number density = 21.359726 Si / 1000 Ang^3
#
#
#
# Elastic Constant Matrix: (Units=GPa)
#
#
# Indices 1 2 3 4 5 6 
#
# 1 86.8309 41.0880 41.8860 0.0000 -22.4463 0.0000
# 2 41.0880 85.8275 28.0607 0.0000 -30.9148 0.0000
# 3 41.8860 28.0607 82.4910 0.0000 -32.8722 0.0000
# 4 0.0000 0.0000 0.0000 59.2888 0.0000 -11.0099
# 5 -22.4463 -30.9148 -32.8722 0.0000 41.8715 0.0000
# 6 0.0000 0.0000 0.0000 -11.0099 0.0000 35.9372
#
#
#
# Elastic Compliance Matrix: (Units=1/GPa)
#
#
# Indices 1 2 3 4 5 6 
#
# 1 0.017838 -0.006508 -0.007201 0.000000 -0.000895 0.000000
# 2 -0.006508 0.018311 0.001561 0.000000 0.011256 0.000000
# 3 -0.007201 0.001561 0.020620 0.000000 0.013481 0.000000
# 4 0.000000 0.000000 0.000000 0.017884 0.000000 0.005479
# 5 -0.000895 0.011256 0.013481 0.000000 0.042297 0.000000
# 6 0.000000 0.000000 0.000000 0.005479 0.000000 0.029505
#
#
# Mechanical properties :
#
#
# Convention : Reuss Voigt Hill
#
# Bulk Modulus (GPa) = 30.79361 53.02430 41.90895
# Shear Modulus (GPa) = 27.53707 37.02716 32.28211
#
# Velocity S-wave (km/s) = 3.59445 4.16805 3.89183
# Velocity P-wave (km/s) = 5.62803 6.93122 6.31334
#
# Compressibility (1/GPa) = 0.03247427
#
# Stress axis : x y z
#
# Youngs Moduli (GPa) = 56.05954 54.61237 48.49766
#
# Poissons Ratio (x) = 0.35541 0.34921
# Poissons Ratio (y) = 0.36483 -0.07572
# Poissons Ratio (z) = 0.40366 -0.08527
#
# Static dielectric constant tensor:
#      x y z
#    x 1.753370 0.000000 -0.004300 
#    y 0.000000 1.765700 0.000000 
#    z -0.004300 0.000000 1.799710 
# 
# From -- ./inp_files/186159.got.cif
#   From: 2010.05.17/outbox.cif.g08.bks.cpg/sg15_94_cif.got.tgz:186159.got - 2010.06.03 18:47:42.
