data_PCOD9292558
_publ_section_title
;
Structure prediction by ZEFSAII (Michael W. Deem and Ramdas Pophale) SiO2 
 PCOD9292558
Probable space group: C 2/C
;
_chemical_formula_sum "Si O2"
_cell_formula_units_Z 36
_cell_length_a 22.747521
_cell_length_b 13.967636
_cell_length_c 7.414417
_cell_angle_alpha 90.000000
_cell_angle_beta 142.526118
_cell_angle_gamma 90.000000
_cell_volume 1433.253452
_symmetry_space_group_name_H-M "C 2/C"
_symmetry_group_IT_number 15
_symmetry_cell_setting 'monoclinic'
loop_
_space_group_symop_operation_xyz
x,y,z
-x,y,1/2-z
-x,-y,-z
x,-y,1/2+z
1/2+x,1/2+y,z
1/2-x,1/2+y,1/2-z
1/2-x,1/2-y,-z
1/2+x,1/2-y,1/2+z
loop_
_atom_site_type_symbol
_atom_site_label
_atom_site_fract_x
_atom_site_fract_y
_atom_site_fract_z
Si Si1 0.750000 0.250000 0.500000
Si Si2 0.000000 0.470729 0.250000
Si Si3 0.569517 0.794863 0.629006
Si Si4 0.306370 0.095095 0.808214
Si Si5 0.790799 0.089536 0.298775
Si Si6 0.500000 0.340901 0.250000
O O1 0.631341 0.258094 0.129957
O O2 0.764710 0.150312 0.411024
O O3 0.019671 0.393600 0.455942
O O4 0.093956 0.536084 0.468686
O O5 0.502219 0.730550 0.584953
O O6 0.669820 0.819649 0.991882
O O7 0.269522 0.123987 0.523147
O O8 0.235142 0.019868 0.724487
O O9 0.902581 0.100671 0.524263
#
# Coordination Sequence:
#
# PCOD9292558 Si02
#       6
#     4   4   8   8   8   4
#     4  10  22  44  62  94 142 186 226 294 360 422
#     4  12  23  40  68 105 140 182 238 306 339 422
#     4  11  24  41  67 101 144 185 242 288 363 419
#     4  12  24  42  71 104 139 188 240 299 350 427
#     4  11  24  46  70 104 144 188 242 295 360 427
#     4  10  27  44  68 105 146 192 236 296 371 422
#
# _framework density 25.117678000000002
#
# number of rings (size 3 to 8) (size 9 to 14) (size 15 to 20)
#    0.000    0.889    4.444    1.333    3.111    6.222 
#    0.000    0.000    0.000    0.000    0.000    0.000 
#    0.000    0.000    0.000    0.000    0.000    0.000 
#
# Total GULP energy -100446.726277 kJ/mol
# GULP energy per Si atom -5580.373682 kJ/mol
# Density = 2.506051 g / cm^3
# Si number density = 25.117678 Si / 1000 Ang^3
#
#
#
# Elastic Constant Matrix: (Units=GPa)
#
#
# Indices 1 2 3 4 5 6 
#
# 1 120.5945 24.5012 52.4700 0.0000 27.0221 0.0000
# 2 24.5012 97.5454 24.1746 0.0000 0.3724 0.0000
# 3 52.4700 24.1746 109.6566 0.0000 -3.8363 0.0000
# 4 0.0000 0.0000 0.0000 -0.6974 0.0000 -16.4359
# 5 27.0221 0.3724 -3.8363 0.0000 53.8470 0.0000
# 6 0.0000 0.0000 0.0000 -16.4359 0.0000 18.8604
#
#
#
# Elastic Compliance Matrix: (Units=1/GPa)
#
#
# Indices 1 2 3 4 5 6 
#
# 1 0.012764 -0.001700 -0.005971 0.000000 -0.006819 0.000000
# 2 -0.001700 0.011074 -0.001605 0.000000 0.000662 0.000000
# 3 -0.005971 -0.001605 0.012467 0.000000 0.003896 0.000000
# 4 0.000000 0.000000 0.000000 -0.066576 0.000000 -0.058017
# 5 -0.006819 0.000662 0.003896 0.000000 0.022266 0.000000
# 6 0.000000 0.000000 0.000000 -0.058017 0.000000 0.002462
#
#
# Mechanical properties :
#
#
# Convention : Reuss Voigt Hill
#
# Bulk Modulus (GPa) = 56.33059 58.89866 57.61463
# Shear Modulus (GPa) = 264.19785 29.51203 146.85494
#
# Velocity S-wave (km/s) = 10.26705 3.43147 7.65465
# Velocity P-wave (km/s) = 12.76813 6.26099 10.05548
#
# Compressibility (1/GPa) = 0.01775234
#
# Stress axis : x y z
#
# Youngs Moduli (GPa) = 78.34819 90.30319 80.21476
#
# Poissons Ratio (x) = 0.15352 0.47897
# Poissons Ratio (y) = 0.13320 0.12872
# Poissons Ratio (z) = 0.46782 0.14491
#
# Static dielectric constant tensor:
#      x y z
#    x 4.405540 0.000000 0.237010 
#    y 0.000000 2.216890 0.000000 
#    z 0.237010 0.000000 2.150770 
# 
# From -- ./inp_files/37682.got.cif
#   From: 2010.05.17/outbox.cif.g08.bks.cpg/sg15_19_cif.got.tgz:37682.got - 2010.06.03 18:47:42.
