data_PCOD9292587
_publ_section_title
;
Structure prediction by ZEFSAII (Michael W. Deem and Ramdas Pophale) SiO2 
 PCOD9292587
Probable space group: C 2/C
;
_chemical_formula_sum "Si O2"
_cell_formula_units_Z 44
_cell_length_a 11.345626
_cell_length_b 16.842666
_cell_length_c 11.438870
_cell_angle_alpha 90.000000
_cell_angle_beta 114.049821
_cell_angle_gamma 90.000000
_cell_volume 1996.109011
_symmetry_space_group_name_H-M "C 2/C"
_symmetry_group_IT_number 15
_symmetry_cell_setting 'monoclinic'
loop_
_space_group_symop_operation_xyz
x,y,z
-x,y,1/2-z
-x,-y,-z
x,-y,1/2+z
1/2+x,1/2+y,z
1/2-x,1/2+y,1/2-z
1/2-x,1/2-y,-z
1/2+x,1/2-y,1/2+z
loop_
_atom_site_type_symbol
_atom_site_label
_atom_site_fract_x
_atom_site_fract_y
_atom_site_fract_z
Si Si1 0.752804 0.152704 0.508549
Si Si2 0.671910 0.869708 0.509867
Si Si3 0.644859 0.058131 0.254049
Si Si4 0.000000 0.152080 0.750000
Si Si5 0.608028 0.884457 0.174889
Si Si6 0.318707 0.697567 0.886474
O O1 0.750000 0.250000 0.500000
O O2 0.732072 0.110368 0.376439
O O3 0.880725 0.118894 0.625429
O O4 0.639580 0.126294 0.550347
O O5 0.667108 0.913525 0.630546
O O6 0.545389 0.893224 0.385447
O O7 0.653944 0.778243 0.537024
O O8 0.800465 0.868717 0.481358
O O9 0.500000 0.067706 0.250000
O O10 0.671599 0.964649 0.249926
O O11 0.920881 0.193088 0.823277
O O12 0.679866 0.810278 0.265033
#
# Coordination Sequence:
#
# PCOD9292587 Si02
#       6
#     8   8   8   4   8   8
#     4  11  24  42  70 100 135 188 235 276 335 426
#     4  11  22  39  63 102 134 173 224 289 344 404
#     4  12  24  39  70 106 137 173 226 294 363 396
#     4  10  22  44  64  90 128 186 226 268 324 412
#     4  11  23  41  69 101 139 169 226 298 345 403
#     4  10  23  39  65  92 135 178 228 274 335 412
#
# _framework density 22.042884999999998
#
# number of rings (size 3 to 8) (size 9 to 14) (size 15 to 20)
#    0.000    1.091    1.818    5.455    5.091    0.000 
#    0.000    6.364    0.000    0.000    0.000    0.000 
#    0.000    0.000    0.000    0.000    0.000    0.000 
#
# Total GULP energy -122500.733379 kJ/mol
# GULP energy per Si atom -5568.215154 kJ/mol
# Density = 2.199271 g / cm^3
# Si number density = 22.042885 Si / 1000 Ang^3
#
#
#
# Elastic Constant Matrix: (Units=GPa)
#
#
# Indices 1 2 3 4 5 6 
#
# 1 100.8330 19.7350 17.5927 0.0000 -33.8971 0.0000
# 2 19.7350 100.4820 54.6803 0.0000 -6.3270 0.0000
# 3 17.5927 54.6803 130.3153 0.0000 -8.9137 0.0000
# 4 0.0000 0.0000 0.0000 9.2320 0.0000 -22.8634
# 5 -33.8971 -6.3270 -8.9137 0.0000 45.2925 0.0000
# 6 0.0000 0.0000 0.0000 -22.8634 0.0000 15.2554
#
#
#
# Elastic Compliance Matrix: (Units=1/GPa)
#
#
# Indices 1 2 3 4 5 6 
#
# 1 0.013676 -0.001849 -0.000393 0.000000 0.009899 0.000000
# 2 -0.001849 0.013172 -0.005318 0.000000 -0.000590 0.000000
# 3 -0.000393 -0.005318 0.010022 0.000000 0.000935 0.000000
# 4 0.000000 0.000000 0.000000 -0.039946 0.000000 -0.059868
# 5 0.009899 -0.000590 0.000935 0.000000 0.029589 0.000000
# 6 0.000000 0.000000 0.000000 -0.059868 0.000000 -0.024174
#
#
# Mechanical properties :
#
#
# Convention : Reuss Voigt Hill
#
# Bulk Modulus (GPa) = 45.97667 57.29404 51.63535
# Shear Modulus (GPa) = 202.36536 29.93078 116.14807
#
# Velocity S-wave (km/s) = 9.59190 3.68889 7.26679
# Velocity P-wave (km/s) = 11.98232 6.64774 9.68938
#
# Compressibility (1/GPa) = 0.02175016
#
# Stress axis : x y z
#
# Youngs Moduli (GPa) = 73.12256 75.92035 99.77987
#
# Poissons Ratio (x) = 0.14034 0.03926
# Poissons Ratio (y) = 0.13517 0.53059
# Poissons Ratio (z) = 0.02877 0.40372
#
# Static dielectric constant tensor:
#      x y z
#    x 1.929640 0.000000 -0.050750 
#    y 0.000000 1.820480 0.000000 
#    z -0.050750 0.000000 1.893580 
# 
# From -- ./inp_files/87700.got.cif
#   From: 2010.05.17/outbox.cif.g08.bks.cpg/sg15_44_cif.got.tgz:87700.got - 2010.06.03 18:47:42.
