data_PCOD9292423
_publ_section_title
;
Structure prediction by ZEFSAII (Michael W. Deem and Ramdas Pophale) SiO2 
 PCOD9292423
Probable space group: C 2/C
;
_chemical_formula_sum "Si O2"
_cell_formula_units_Z 52
_cell_length_a 20.363805
_cell_length_b 10.172125
_cell_length_c 21.656673
_cell_angle_alpha 90.000000
_cell_angle_beta 26.757611
_cell_angle_gamma 90.000000
_cell_volume 2019.688081
_symmetry_space_group_name_H-M "C 2/C"
_symmetry_group_IT_number 15
_symmetry_cell_setting 'monoclinic'
loop_
_space_group_symop_operation_xyz
x,y,z
-x,y,1/2-z
-x,-y,-z
x,-y,1/2+z
1/2+x,1/2+y,z
1/2-x,1/2+y,1/2-z
1/2-x,1/2-y,-z
1/2+x,1/2-y,1/2+z
loop_
_atom_site_type_symbol
_atom_site_label
_atom_site_fract_x
_atom_site_fract_y
_atom_site_fract_z
Si Si1 0.000000 0.454897 0.750000
Si Si2 0.000000 0.000000 0.500000
Si Si3 0.081164 0.475855 0.550763
Si Si4 0.193848 0.364979 0.775350
Si Si5 0.085116 0.899144 0.559736
Si Si6 0.791655 0.242539 0.868253
Si Si7 0.730676 0.295675 0.662400
Si Si8 0.000000 0.966789 0.250000
O O1 0.039452 0.526258 0.653568
O O2 0.141462 0.365563 0.650731
O O3 0.939212 0.000849 0.476878
O O4 0.158067 0.053658 0.343773
O O5 0.137880 0.325300 0.513155
O O6 0.201422 0.567860 0.419068
O O7 0.941979 0.460622 0.623218
O O8 0.207129 0.274879 0.704405
O O9 0.182076 0.274564 0.846258
O O10 0.224089 0.815185 0.423247
O O11 0.940162 0.807436 0.682656
O O12 0.092675 0.952773 0.622597
O O13 0.902137 0.127027 0.791268
#
# Coordination Sequence:
#
# PCOD9292423 Si02
#       8
#     4   4   8   8   8   8   8   4
#     4   9  22  39  68 104 148 197 232 301 374 434
#     4  10  26  48  70 106 144 188 246 294 384 420
#     4  11  22  42  67 107 144 186 246 305 359 440
#     4  10  25  43  75 107 143 196 238 315 362 444
#     4  11  27  47  74 104 146 203 244 306 364 447
#     4  10  22  43  71 108 146 187 247 300 371 433
#     4  11  26  46  68 106 143 198 252 296 371 438
#     4  11  24  47  72 110 152 191 244 309 372 434
#
# _framework density 25.746549000000002
#
# number of rings (size 3 to 8) (size 9 to 14) (size 15 to 20)
#    0.000    1.538    1.538    0.923    8.615    6.154 
#    0.000    0.000    0.000    0.000    0.000    0.000 
#    0.000    0.000    0.000    0.000    0.000    0.000 
#
# Total GULP energy -145164.373690 kJ/mol
# GULP energy per Si atom -5583.245142 kJ/mol
# Density = 2.568795 g / cm^3
# Si number density = 25.746549 Si / 1000 Ang^3
#
#
#
# Elastic Constant Matrix: (Units=GPa)
#
#
# Indices 1 2 3 4 5 6 
#
# 1 80.5098 35.1058 22.6459 0.0003 19.3220 0.0000
# 2 35.1058 42.0976 14.8110 0.0003 14.4323 0.0000
# 3 22.6459 14.8110 90.6844 0.0008 10.0827 -0.0002
# 4 0.0003 0.0003 0.0008 40.7670 -0.0002 8.7480
# 5 19.3220 14.4323 10.0827 -0.0002 62.2991 0.0000
# 6 0.0000 0.0000 -0.0002 8.7480 0.0000 25.6648
#
#
#
# Elastic Compliance Matrix: (Units=1/GPa)
#
#
# Indices 1 2 3 4 5 6 
#
# 1 0.020320 -0.015317 -0.002308 0.000000 -0.002380 0.000000
# 2 -0.015317 0.038568 -0.002046 0.000000 -0.003853 0.000000
# 3 -0.002308 -0.002046 0.012022 0.000000 -0.000756 0.000000
# 4 0.000000 0.000000 0.000000 0.026465 0.000000 -0.009021
# 5 -0.002380 -0.003853 -0.000756 0.000000 0.017805 0.000000
# 6 0.000000 0.000000 0.000000 -0.009021 0.000000 0.042039
#
#
# Mechanical properties :
#
#
# Convention : Reuss Voigt Hill
#
# Bulk Modulus (GPa) = 31.67739 39.82412 35.75076
# Shear Modulus (GPa) = 24.14474 35.12812 29.63643
#
# Velocity S-wave (km/s) = 3.06565 3.69776 3.39644
# Velocity P-wave (km/s) = 4.98610 5.80798 5.41266
#
# Compressibility (1/GPa) = 0.03156825
#
# Stress axis : x y z
#
# Youngs Moduli (GPa) = 49.21162 25.92802 83.18227
#
# Poissons Ratio (x) = 0.39715 0.19199
# Poissons Ratio (y) = 0.75379 0.17016
# Poissons Ratio (z) = 0.11358 0.05304
#
# Static dielectric constant tensor:
#      x y z
#    x 1.360900 0.000000 -0.309000 
#    y 0.000000 2.022660 0.000000 
#    z -0.309000 0.000000 1.879270 
# 
# From -- ./inp_files/252736.got.cif
#   From: 2010.05.17/outbox.cif.g08.bks.cpg/sg15_127_cif.got.tgz:252736.got - 2010.06.03 18:47:42.
