data_PCOD9292275
_publ_section_title
;
Structure prediction by ZEFSAII (Michael W. Deem and Ramdas Pophale) SiO2 
 PCOD9292275
Probable space group: C 2/C
;
_chemical_formula_sum "Si O2"
_cell_formula_units_Z 60
_cell_length_a 20.884721
_cell_length_b 23.525961
_cell_length_c 7.940381
_cell_angle_alpha 90.000000
_cell_angle_beta 141.006922
_cell_angle_gamma 90.000000
_cell_volume 2454.846808
_symmetry_space_group_name_H-M "C 2/C"
_symmetry_group_IT_number 15
_symmetry_cell_setting 'monoclinic'
loop_
_space_group_symop_operation_xyz
x,y,z
-x,y,1/2-z
-x,-y,-z
x,-y,1/2+z
1/2+x,1/2+y,z
1/2-x,1/2+y,1/2-z
1/2-x,1/2-y,-z
1/2+x,1/2-y,1/2+z
loop_
_atom_site_type_symbol
_atom_site_label
_atom_site_fract_x
_atom_site_fract_y
_atom_site_fract_z
Si Si1 0.755958 0.980832 0.035733
Si Si2 0.900067 0.175906 0.636637
Si Si3 0.697035 0.869884 0.706650
Si Si4 0.500000 0.109092 0.250000
Si Si5 0.890302 0.058426 0.104276
Si Si6 0.934532 0.560864 0.774407
Si Si7 0.836524 0.696185 0.017283
Si Si8 0.891535 0.179755 0.005199
O O1 0.795351 0.950165 0.283004
O O2 0.852622 0.018832 0.177329
O O3 0.724708 0.931725 0.841427
O O4 0.659668 0.020901 0.870748
O O5 0.800307 0.153680 0.340507
O O6 0.893496 0.244017 0.631210
O O7 0.894485 0.156232 0.818986
O O8 0.000000 0.155839 0.750000
O O9 0.611660 0.880675 0.394866
O O10 0.668644 0.828239 0.802376
O O11 0.502404 0.074135 0.428712
O O12 0.599635 0.149138 0.452192
O O13 0.000000 0.042271 0.250000
O O14 0.895392 0.126134 0.138254
O O15 0.000000 0.538793 0.750000
O O16 0.720885 0.706111 0.715958
O O17 0.000000 0.211834 0.250000
#
# Coordination Sequence:
#
# PCOD9292275 Si02
#       8
#     8   8   8   4   8   8   8   8
#     4  12  24  46  68 106 147 191 245 297 362 445
#     4  11  24  44  73 104 141 186 242 303 367 437
#     4  11  24  47  69 101 148 190 239 305 359 439
#     4  12  26  48  80 104 154 186 248 318 364 436
#     4  11  23  41  69 103 144 191 241 298 366 430
#     4  12  28  49  74 109 146 200 249 296 372 441
#     4  11  22  48  70 103 145 188 241 309 370 429
#     4  10  22  43  68  99 140 188 232 295 368 427
#
# _framework density 24.441445000000002
#
# number of rings (size 3 to 8) (size 9 to 14) (size 15 to 20)
#    0.000    0.800    6.000    2.800    0.000    4.267 
#    7.200    1.333    0.000    0.000    0.000    0.000 
#    0.000    0.000    0.000    0.000    0.000    0.000 
#
# Total GULP energy -167886.913039 kJ/mol
# GULP energy per Si atom -5596.230435 kJ/mol
# Density = 2.438581 g / cm^3
# Si number density = 24.441445 Si / 1000 Ang^3
#
#
#
# Elastic Constant Matrix: (Units=GPa)
#
#
# Indices 1 2 3 4 5 6 
#
# 1 113.4654 26.3481 17.3434 0.0000 27.0396 0.0000
# 2 26.3481 65.9294 13.4413 0.0000 3.3064 0.0000
# 3 17.3434 13.4413 106.5464 0.0000 4.2806 0.0000
# 4 0.0000 0.0000 0.0000 22.8319 0.0000 8.1170
# 5 27.0396 3.3064 4.2806 0.0000 44.8787 0.0000
# 6 0.0000 0.0000 0.0000 8.1170 0.0000 20.9334
#
#
#
# Elastic Compliance Matrix: (Units=1/GPa)
#
#
# Indices 1 2 3 4 5 6 
#
# 1 0.011468 -0.004033 -0.001097 0.000000 -0.006508 0.000000
# 2 -0.004033 0.017028 -0.001545 0.000000 0.001323 0.000000
# 3 -0.001097 -0.001545 0.009765 0.000000 -0.000157 0.000000
# 4 0.000000 0.000000 0.000000 0.050801 0.000000 -0.019698
# 5 -0.006508 0.001323 -0.000157 0.000000 0.026121 0.000000
# 6 0.000000 0.000000 0.000000 -0.019698 0.000000 0.055409
#
#
# Mechanical properties :
#
#
# Convention : Reuss Voigt Hill
#
# Bulk Modulus (GPa) = 40.14032 44.46742 42.30387
# Shear Modulus (GPa) = 26.00830 32.98269 29.49550
#
# Velocity S-wave (km/s) = 3.26560 3.67748 3.47765
# Velocity P-wave (km/s) = 5.53874 6.02202 5.78543
#
# Compressibility (1/GPa) = 0.02491261
#
# Stress axis : x y z
#
# Youngs Moduli (GPa) = 87.19661 58.72609 102.40382
#
# Poissons Ratio (x) = 0.23686 0.11229
# Poissons Ratio (y) = 0.35169 0.15819
# Poissons Ratio (z) = 0.09561 0.09072
#
# Static dielectric constant tensor:
#      x y z
#    x 1.971940 0.000000 0.001850 
#    y 0.000000 1.932760 0.000000 
#    z 0.001850 0.000000 1.963350 
# 
# From -- ./inp_files/58789.got.cif
#   From: 2010.05.17/outbox.cif.g08.bks.cpg/sg15_30_cif.got.tgz:58789.got - 2010.06.03 18:47:42.
