data_PCOD9292086
_publ_section_title
;
Structure prediction by ZEFSAII (Michael W. Deem and Ramdas Pophale) SiO2 
 PCOD9292086
Probable space group: C 2/C
;
_chemical_formula_sum "Si O2"
_cell_formula_units_Z 48
_cell_length_a 17.075585
_cell_length_b 10.187300
_cell_length_c 30.597256
_cell_angle_alpha 90.000000
_cell_angle_beta 25.510516
_cell_angle_gamma 90.000000
_cell_volume 2292.284898
_symmetry_space_group_name_H-M "C 2/C"
_symmetry_group_IT_number 15
_symmetry_cell_setting 'monoclinic'
loop_
_space_group_symop_operation_xyz
x,y,z
-x,y,1/2-z
-x,-y,-z
x,-y,1/2+z
1/2+x,1/2+y,z
1/2-x,1/2+y,1/2-z
1/2-x,1/2-y,-z
1/2+x,1/2-y,1/2+z
loop_
_atom_site_type_symbol
_atom_site_label
_atom_site_fract_x
_atom_site_fract_y
_atom_site_fract_z
Si Si1 0.140483 0.529662 0.364621
Si Si2 0.462268 0.210426 0.005908
Si Si3 0.629267 0.058755 0.076549
Si Si4 0.167586 0.748147 0.136501
Si Si5 0.820845 0.711138 0.915895
Si Si6 0.443337 0.503753 0.351311
O O1 0.028659 0.406123 0.440108
O O2 0.342314 0.482099 0.251073
O O3 0.141394 0.639237 0.402050
O O4 0.025667 0.582417 0.381444
O O5 0.642272 0.273722 0.935554
O O6 0.340018 0.304535 0.038107
O O7 0.656627 0.177545 0.095623
O O8 0.577951 0.925883 0.128705
O O9 0.818773 0.027200 0.956231
O O10 0.139624 0.904271 0.142589
O O11 0.000000 0.701776 0.250000
O O12 0.922503 0.843283 0.849921
O O13 0.750000 0.750000 0.000000
#
# Coordination Sequence:
#
# PCOD9292086 Si02
#       6
#     8   8   8   8   8   8
#     4  11  22  39  72  99 128 174 229 268 330 397
#     4  11  21  40  67  98 130 174 223 276 324 399
#     4  11  25  46  64 101 142 167 217 290 330 388
#     4  12  25  42  68 100 140 176 222 274 334 395
#     4  10  22  43  66  92 132 171 216 277 330 387
#     4  11  22  41  73  96 125 182 226 266 327 405
#
# _framework density 20.939805
#
# number of rings (size 3 to 8) (size 9 to 14) (size 15 to 20)
#    0.000    1.000    6.667    1.500    0.000    4.667 
#    3.000    0.000    0.000    0.000    0.000    0.000 
#    0.000    0.000    0.000    0.000    0.000    0.000 
#
# Total GULP energy -134108.869354 kJ/mol
# GULP energy per Si atom -5587.869556 kJ/mol
# Density = 2.089214 g / cm^3
# Si number density = 20.939805 Si / 1000 Ang^3
#
#
#
# Elastic Constant Matrix: (Units=GPa)
#
#
# Indices 1 2 3 4 5 6 
#
# 1 142.5172 17.7807 24.5298 0.0000 -6.5160 0.0000
# 2 17.7807 58.5505 -3.9908 0.0004 3.7610 0.0000
# 3 24.5298 -3.9908 90.7927 0.0015 -7.6040 -0.0013
# 4 0.0000 0.0004 0.0015 5.3299 -0.0003 0.0365
# 5 -6.5160 3.7610 -7.6040 -0.0003 17.4150 0.0000
# 6 0.0000 0.0000 -0.0013 0.0365 0.0000 37.3063
#
#
#
# Elastic Compliance Matrix: (Units=1/GPa)
#
#
# Indices 1 2 3 4 5 6 
#
# 1 0.007817 -0.002680 -0.002010 0.000001 0.002626 0.000000
# 2 -0.002680 0.018257 0.001154 -0.000002 -0.004441 0.000000
# 3 -0.002010 0.001154 0.011961 -0.000003 0.004221 0.000000
# 4 0.000001 -0.000002 -0.000003 0.187621 0.000003 -0.000183
# 5 0.002626 -0.004441 0.004221 0.000003 0.061207 0.000000
# 6 0.000000 0.000000 0.000000 -0.000183 0.000000 0.026805
#
#
# Mechanical properties :
#
#
# Convention : Reuss Voigt Hill
#
# Bulk Modulus (GPa) = 32.29391 40.94444 36.61918
# Shear Modulus (GPa) = 15.10299 28.91295 22.00797
#
# Velocity S-wave (km/s) = 2.68854 3.71990 3.24545
# Velocity P-wave (km/s) = 5.00933 6.16815 5.61869
#
# Compressibility (1/GPa) = 0.03096559
#
# Stress axis : x y z
#
# Youngs Moduli (GPa) = 127.92658 54.77362 83.60233
#
# Poissons Ratio (x) = 0.14677 0.16802
# Poissons Ratio (y) = 0.34278 -0.09652
# Poissons Ratio (z) = 0.25711 -0.06323
#
# Static dielectric constant tensor:
#      x y z
#    x 1.738980 0.000000 0.005570 
#    y 0.000000 1.785690 0.000000 
#    z 0.005570 0.000000 1.779200 
# 
# From -- ./inp_files/296028.got.cif
#   From: 2010.05.17/outbox.cif.g08.bks.cpg/sg15_149_cif.got.tgz:296028.got - 2010.06.03 18:47:42.
