data_PCOD9292650
_publ_section_title
;
Structure prediction by ZEFSAII (Michael W. Deem and Ramdas Pophale) SiO2 
 PCOD9292650
Probable space group: C 2/C
;
_chemical_formula_sum "Si O2"
_cell_formula_units_Z 48
_cell_length_a 13.387509
_cell_length_b 16.217612
_cell_length_c 11.703982
_cell_angle_alpha 90.000000
_cell_angle_beta 55.603175
_cell_angle_gamma 90.000000
_cell_volume 2096.768561
_symmetry_space_group_name_H-M "C 2/C"
_symmetry_group_IT_number 15
_symmetry_cell_setting 'monoclinic'
loop_
_space_group_symop_operation_xyz
x,y,z
-x,y,1/2-z
-x,-y,-z
x,-y,1/2+z
1/2+x,1/2+y,z
1/2-x,1/2+y,1/2-z
1/2-x,1/2-y,-z
1/2+x,1/2-y,1/2+z
loop_
_atom_site_type_symbol
_atom_site_label
_atom_site_fract_x
_atom_site_fract_y
_atom_site_fract_z
Si Si1 0.000000 0.409332 0.750000
Si Si2 0.841055 0.871054 0.019723
Si Si3 0.882242 0.442493 0.464189
Si Si4 0.490023 0.773905 0.393326
Si Si5 0.269562 0.546897 0.797569
Si Si6 0.848518 0.297147 0.013892
Si Si7 0.000000 0.960369 0.750000
O O1 0.091900 0.481661 0.638843
O O2 0.040508 0.339782 0.628098
O O3 0.728255 0.887540 0.010889
O O4 0.810802 0.927121 0.146702
O O5 0.872361 0.775318 0.015730
O O6 0.961120 0.905213 0.881697
O O7 0.985591 0.373865 0.406761
O O8 0.839061 0.480854 0.613120
O O9 0.500000 0.759022 0.250000
O O10 0.596087 0.748210 0.412946
O O11 0.227423 0.629393 0.883602
O O12 0.384503 0.512792 0.790756
O O13 0.750000 0.250000 0.000000
#
# Coordination Sequence:
#
# PCOD9292650 Si02
#       7
#     4   8   8   8   8   8   4
#     4  10  24  48  72 102 148 194 236 300 360 436
#     4  11  23  43  67 107 142 182 236 302 369 423
#     4  10  23  44  72 105 139 180 248 294 363 430
#     4  12  25  46  75 105 147 186 240 301 365 425
#     4  10  24  42  70  98 137 191 237 292 357 431
#     4  11  28  47  70 106 145 194 238 292 364 429
#     4  10  22  44  66 100 140 182 240 292 366 422
#
# _framework density 22.892368999999999
#
# number of rings (size 3 to 8) (size 9 to 14) (size 15 to 20)
#    0.000    1.333    1.667    2.000    7.000    1.333 
#    3.000    0.000    0.000    0.000    0.000    0.000 
#    0.000    0.000    0.000    0.000    0.000    0.000 
#
# Total GULP energy -133640.319912 kJ/mol
# GULP energy per Si atom -5568.346663 kJ/mol
# Density = 2.284026 g / cm^3
# Si number density = 22.892369 Si / 1000 Ang^3
#
#
#
# Elastic Constant Matrix: (Units=GPa)
#
#
# Indices 1 2 3 4 5 6 
#
# 1 97.5741 46.1419 30.1133 0.0000 19.9448 0.0000
# 2 46.1419 82.4880 30.8999 0.0000 13.6404 0.0000
# 3 30.1133 30.8999 132.3921 0.0000 9.0773 0.0000
# 4 0.0000 0.0000 0.0000 -403.5856 0.0000 -652.6597
# 5 19.9448 13.6404 9.0773 0.0000 27.4444 0.0000
# 6 0.0000 0.0000 0.0000 -652.6597 0.0000 -913.1244
#
#
#
# Elastic Compliance Matrix: (Units=1/GPa)
#
#
# Indices 1 2 3 4 5 6 
#
# 1 0.015443 -0.006902 -0.001399 0.000000 -0.007329 0.000000
# 2 -0.006902 0.017304 -0.002275 0.000000 -0.002832 0.000000
# 3 -0.001399 -0.002275 0.008447 0.000000 -0.000647 0.000000
# 4 0.000000 0.000000 0.000000 0.015897 0.000000 -0.011362
# 5 -0.007329 -0.002832 -0.000647 0.000000 0.043385 0.000000
# 6 0.000000 0.000000 0.000000 -0.011362 0.000000 0.007026
#
#
# Mechanical properties :
#
#
# Convention : Reuss Voigt Hill
#
# Bulk Modulus (GPa) = 49.89523 58.52935 54.21229
# Shear Modulus (GPa) = 36.94560 -244.16652 -103.61046
#
# Velocity S-wave (km/s) = 4.02167 -10.33876 -6.73484
# Velocity P-wave (km/s) = 6.58848 10.81191 6.06174
#
# Compressibility (1/GPa) = 0.02004200
#
# Stress axis : x y z
#
# Youngs Moduli (GPa) = 64.75626 57.78917 118.38855
#
# Poissons Ratio (x) = 0.39887 0.16563
# Poissons Ratio (y) = 0.44695 0.26929
# Poissons Ratio (z) = 0.09060 0.13145
#
# Static dielectric constant tensor:
#      x y z
#    x 1.946350 0.000000 0.011850 
#    y 0.000000 1.896520 0.000000 
#    z 0.011850 0.000000 1.912670 
# 
# From -- ./inp_files/96909.got.cif
#   From: 2010.05.17/outbox.cif.g08.bks.cpg/sg15_49_cif.got.tgz:96909.got - 2010.06.03 18:47:42.
