data_PCOD9292982
_publ_section_title
;
Structure prediction by ZEFSAII (Michael W. Deem and Ramdas Pophale) SiO2 
 PCOD9292982
Probable space group: C 2/C
;
_chemical_formula_sum "Si O2"
_cell_formula_units_Z 56
_cell_length_a 12.301520
_cell_length_b 33.202433
_cell_length_c 8.471610
_cell_angle_alpha 90.000000
_cell_angle_beta 127.949062
_cell_angle_gamma 90.000000
_cell_volume 2728.526432
_symmetry_space_group_name_H-M "C 2/C"
_symmetry_group_IT_number 15
_symmetry_cell_setting 'monoclinic'
loop_
_space_group_symop_operation_xyz
x,y,z
-x,y,1/2-z
-x,-y,-z
x,-y,1/2+z
1/2+x,1/2+y,z
1/2-x,1/2+y,1/2-z
1/2-x,1/2-y,-z
1/2+x,1/2-y,1/2+z
loop_
_atom_site_type_symbol
_atom_site_label
_atom_site_fract_x
_atom_site_fract_y
_atom_site_fract_z
Si Si1 0.779455 0.908303 0.223376
Si Si2 0.696644 0.826994 0.763720
Si Si3 0.025190 0.044795 0.086396
Si Si4 0.370802 0.175110 0.926992
Si Si5 0.215883 0.584735 0.294723
Si Si6 0.470532 0.955820 0.408373
Si Si7 0.861410 0.758573 0.729390
O O1 0.933170 0.921394 0.411525
O O2 0.718704 0.863651 0.213306
O O3 0.686078 0.942171 0.219711
O O4 0.745743 0.914264 0.007898
O O5 0.536475 0.830726 0.566948
O O6 0.755454 0.870649 0.776286
O O7 0.797815 0.794243 0.778873
O O8 0.679707 0.820464 0.936801
O O9 0.000000 0.047246 0.250000
O O10 0.184526 0.053315 0.196822
O O11 0.000000 0.000000 0.000000
O O12 0.360180 0.217694 0.830320
O O13 0.062549 0.573758 0.100747
O O14 0.500000 0.953288 0.250000
O O15 0.500000 0.000000 0.500000
O O16 0.750000 0.750000 0.500000
O O17 0.000000 0.766384 0.750000
#
# Coordination Sequence:
#
# PCOD9292982 Si02
#       7
#     8   8   8   8   8   8   8
#     4  11  23  43  70  96 126 174 221 272 335 391
#     4  10  22  44  70  97 133 176 225 274 331 406
#     4  12  26  45  65  96 137 179 219 272 336 398
#     4  10  22  44  70  97 132 177 224 274 333 403
#     4  11  23  43  68  97 129 169 221 278 327 394
#     4  12  24  39  63  96 130 170 217 269 324 392
#     4  12  25  42  65 100 137 176 218 279 339 394
#
# _framework density 20.523897000000002
#
# number of rings (size 3 to 8) (size 9 to 14) (size 15 to 20)
#    0.000    0.857    2.857    4.714    0.000    4.571 
#    0.000    1.429    0.000    0.000    0.000    0.000 
#    0.000    0.000    0.000    0.000    0.000    0.000 
#
# Total GULP energy -156213.550968 kJ/mol
# GULP energy per Si atom -5579.055392 kJ/mol
# Density = 2.047718 g / cm^3
# Si number density = 20.523897 Si / 1000 Ang^3
#
#
#
# Elastic Constant Matrix: (Units=GPa)
#
#
# Indices 1 2 3 4 5 6 
#
# 1 75.3456 23.5253 -3.4538 0.0000 11.2934 0.0000
# 2 23.5253 131.8079 14.0879 0.0000 -8.0759 0.0000
# 3 -3.4538 14.0879 72.0449 0.0000 2.2843 0.0000
# 4 0.0000 0.0000 0.0000 78.3240 0.0000 29.4640
# 5 11.2934 -8.0759 2.2843 0.0000 28.4514 0.0000
# 6 0.0000 0.0000 0.0000 29.4640 0.0000 40.2834
#
#
#
# Elastic Compliance Matrix: (Units=1/GPa)
#
#
# Indices 1 2 3 4 5 6 
#
# 1 0.015488 -0.003382 0.001633 0.000000 -0.007239 0.000000
# 2 -0.003382 0.008644 -0.001978 0.000000 0.003955 0.000000
# 3 0.001633 -0.001978 0.014420 0.000000 -0.002368 0.000000
# 4 0.000000 0.000000 0.000000 0.017614 0.000000 -0.012883
# 5 -0.007239 0.003955 -0.002368 0.000000 0.039334 0.000000
# 6 0.000000 0.000000 0.000000 -0.012883 0.000000 0.034247
#
#
# Mechanical properties :
#
#
# Convention : Reuss Voigt Hill
#
# Bulk Modulus (GPa) = 32.15536 38.61302 35.38419
# Shear Modulus (GPa) = 33.88273 45.74768 39.81520
#
# Velocity S-wave (km/s) = 4.06752 4.72635 4.40926
# Velocity P-wave (km/s) = 6.14499 6.97417 6.57267
#
# Compressibility (1/GPa) = 0.03109901
#
# Stress axis : x y z
#
# Youngs Moduli (GPa) = 64.56516 115.68394 69.34628
#
# Poissons Ratio (x) = 0.39130 -0.11327
# Poissons Ratio (y) = 0.21839 0.13716
# Poissons Ratio (z) = -0.10547 0.22881
#
# Static dielectric constant tensor:
#      x y z
#    x 1.726330 0.000000 -0.038880 
#    y 0.000000 1.710330 0.000000 
#    z -0.038880 0.000000 1.711440 
# 
# From -- ./inp_files/35744.got.cif
#   From: 2010.05.17/outbox.cif.g08.bks.cpg/sg15_18_cif.got.tgz:35744.got - 2010.06.03 18:47:42.
