data_PCOD9292840
_publ_section_title
;
Structure prediction by ZEFSAII (Michael W. Deem and Ramdas Pophale) SiO2 
 PCOD9292840
Probable space group: C 2/C
;
_chemical_formula_sum "Si O2"
_cell_formula_units_Z 36
_cell_length_a 25.084759
_cell_length_b 5.394647
_cell_length_c 27.754658
_cell_angle_alpha 90.000000
_cell_angle_beta 158.462341
_cell_angle_gamma 90.000000
_cell_volume 1378.822106
_symmetry_space_group_name_H-M "C 2/C"
_symmetry_group_IT_number 15
_symmetry_cell_setting 'monoclinic'
loop_
_space_group_symop_operation_xyz
x,y,z
-x,y,1/2-z
-x,-y,-z
x,-y,1/2+z
1/2+x,1/2+y,z
1/2-x,1/2+y,1/2-z
1/2-x,1/2-y,-z
1/2+x,1/2-y,1/2+z
loop_
_atom_site_type_symbol
_atom_site_label
_atom_site_fract_x
_atom_site_fract_y
_atom_site_fract_z
Si Si1 0.964562 0.194693 0.928263
Si Si2 0.761825 0.477727 0.829277
Si Si3 0.221906 0.251056 0.556781
Si Si4 0.000000 0.024974 0.250000
Si Si5 0.879705 0.746538 0.069593
O O1 0.841069 0.366434 0.848753
O O2 0.887461 0.089044 0.816026
O O3 0.115803 0.334351 0.048668
O O4 0.000000 0.000000 0.000000
O O5 0.741083 0.290213 0.855953
O O6 0.362284 0.297880 0.641112
O O7 0.115376 0.475831 0.449786
O O8 0.161052 0.979692 0.497661
O O9 0.988888 0.843464 0.286856
O O10 0.750000 0.750000 0.000000
#
# Coordination Sequence:
#
# PCOD9292840 Si02
#       5
#     8   8   8   4   8
#     4  11  24  48  71 104 151 190 251 315 379 451
#     4  11  26  44  75 106 145 200 247 314 381 452
#     4  11  26  41  71 104 139 187 243 298 367 439
#     4  10  22  44  68  96 140 182 228 298 360 430
#     4  10  23  44  64  99 138 183 238 293 358 431
#
# _framework density 26.109244
#
# number of rings (size 3 to 8) (size 9 to 14) (size 15 to 20)
#    0.000    1.333    2.222    2.667    6.222    8.000 
#    0.000    0.000    0.000    0.000    0.000    0.000 
#    0.000    0.000    0.000    0.000    0.000    0.000 
#
# Total GULP energy -100803.948099 kJ/mol
# GULP energy per Si atom -5600.219339 kJ/mol
# Density = 2.604982 g / cm^3
# Si number density = 26.109244 Si / 1000 Ang^3
#
#
#
# Elastic Constant Matrix: (Units=GPa)
#
#
# Indices 1 2 3 4 5 6 
#
# 1 102.1987 48.2948 54.9772 0.0019 -22.7373 -0.0155
# 2 48.2948 124.8882 53.7521 -0.0270 -6.5342 -0.0451
# 3 54.9772 53.7521 148.8244 0.0153 -13.0917 -0.0267
# 4 0.0019 -0.0270 0.0153 33.9689 0.0029 -13.9094
# 5 -22.7373 -6.5342 -13.0917 0.0029 52.7049 0.0033
# 6 -0.0155 -0.0451 -0.0267 -13.9094 0.0033 49.9172
#
#
#
# Elastic Compliance Matrix: (Units=1/GPa)
#
#
# Indices 1 2 3 4 5 6 
#
# 1 0.014634 -0.003861 -0.003576 -0.000004 0.004946 -0.000002
# 2 -0.003861 0.010505 -0.002454 0.000014 -0.000973 0.000011
# 3 -0.003576 -0.002454 0.008960 -0.000006 0.000379 0.000000
# 4 -0.000004 0.000014 -0.000006 0.033230 -0.000004 0.009260
# 5 0.004946 -0.000973 0.000379 -0.000004 0.021081 -0.000002
# 6 -0.000002 0.000011 0.000000 0.009260 -0.000002 0.022613
#
#
# Mechanical properties :
#
#
# Convention : Reuss Voigt Hill
#
# Bulk Modulus (GPa) = 69.84514 76.66215 73.25365
# Shear Modulus (GPa) = 36.87941 41.91069 39.39505
#
# Velocity S-wave (km/s) = 3.76241 4.01085 3.88861
# Velocity P-wave (km/s) = 6.75895 7.13267 6.94833
#
# Compressibility (1/GPa) = 0.01431739
#
# Stress axis : x y z
#
# Youngs Moduli (GPa) = 68.33617 95.18983 111.60819
#
# Poissons Ratio (x) = 0.36751 0.39914
# Poissons Ratio (y) = 0.26384 0.27384
# Poissons Ratio (z) = 0.24439 0.23356
#
# Static dielectric constant tensor:
#      x y z
#    x 2.108310 -0.000050 0.000960 
#    y -0.000050 2.105540 0.000040 
#    z 0.000960 0.000040 2.242260 
# 
# From -- ./inp_files/319884.got.cif
#   From: 2010.05.17/outbox.cif.g08.bks.cpg/sg15_160_cif.got.tgz:319884.got - 2010.06.03 18:47:42.
