data_PCOD9292426
_publ_section_title
;
Structure prediction by ZEFSAII (Michael W. Deem and Ramdas Pophale) SiO2 
 PCOD9292426
Probable space group: C 2/C
;
_chemical_formula_sum "Si O2"
_cell_formula_units_Z 48
_cell_length_a 8.735166
_cell_length_b 18.114928
_cell_length_c 18.087976
_cell_angle_alpha 90.000000
_cell_angle_beta 123.415391
_cell_angle_gamma 90.000000
_cell_volume 2389.065964
_symmetry_space_group_name_H-M "C 2/C"
_symmetry_group_IT_number 15
_symmetry_cell_setting 'monoclinic'
loop_
_space_group_symop_operation_xyz
x,y,z
-x,y,1/2-z
-x,-y,-z
x,-y,1/2+z
1/2+x,1/2+y,z
1/2-x,1/2+y,1/2-z
1/2-x,1/2-y,-z
1/2+x,1/2-y,1/2+z
loop_
_atom_site_type_symbol
_atom_site_label
_atom_site_fract_x
_atom_site_fract_y
_atom_site_fract_z
Si Si1 0.687077 0.516878 0.591141
Si Si2 0.894944 0.714872 0.983402
Si Si3 0.005007 0.553524 0.430925
Si Si4 0.197181 0.014921 0.765417
Si Si5 0.658258 0.819084 0.193273
Si Si6 0.763612 0.807911 0.380987
O O1 0.500000 0.500000 0.500000
O O2 0.848423 0.476721 0.589413
O O3 0.681004 0.494026 0.675310
O O4 0.708288 0.605175 0.598006
O O5 0.943228 0.633389 0.025175
O O6 0.083165 0.761620 0.035934
O O7 0.750000 0.750000 0.000000
O O8 0.804389 0.710324 0.878334
O O9 0.000000 0.500000 0.500000
O O10 0.808141 0.546808 0.339551
O O11 0.311715 0.091949 0.800098
O O12 0.000000 0.027839 0.750000
O O13 0.774137 0.793236 0.295230
O O14 0.447318 0.796775 0.152237
#
# Coordination Sequence:
#
# PCOD9292426 Si02
#       6
#     8   8   8   8   8   8
#     4  11  22  40  67  99 130 173 224 272 337 397
#     4  12  26  42  66 103 139 171 219 280 339 396
#     4  12  23  44  68 101 134 173 224 279 336 400
#     4  11  23  41  70  96 131 175 230 278 333 401
#     4  10  22  43  71  90 130 180 222 262 337 411
#     4  10  22  44  67  95 128 180 222 266 332 406
#
# _framework density 20.091535
#
# number of rings (size 3 to 8) (size 9 to 14) (size 15 to 20)
#    0.000    1.000    3.333    3.000    4.667    0.000 
#   12.000    0.000    0.000    0.000    0.000    0.000 
#    0.000    0.000    0.000    0.000    0.000    0.000 
#
# Total GULP energy -134151.921569 kJ/mol
# GULP energy per Si atom -5589.663399 kJ/mol
# Density = 2.004581 g / cm^3
# Si number density = 20.091535 Si / 1000 Ang^3
#
#
#
# Elastic Constant Matrix: (Units=GPa)
#
#
# Indices 1 2 3 4 5 6 
#
# 1 87.9849 3.7153 11.0653 0.0000 -7.6428 0.0000
# 2 3.7153 45.2321 -10.4340 0.0000 -0.9413 0.0000
# 3 11.0653 -10.4340 85.1297 0.0000 -16.5623 0.0000
# 4 0.0000 0.0000 0.0000 18.1117 0.0000 -0.0683
# 5 -7.6428 -0.9413 -16.5623 0.0000 42.0171 0.0000
# 6 0.0000 0.0000 0.0000 -0.0683 0.0000 30.9739
#
#
#
# Elastic Compliance Matrix: (Units=1/GPa)
#
#
# Indices 1 2 3 4 5 6 
#
# 1 0.011727 -0.001247 -0.001373 0.000000 0.001564 0.000000
# 2 -0.001247 0.023003 0.003290 0.000000 0.001585 0.000000
# 3 -0.001373 0.003290 0.013315 0.000000 0.005073 0.000000
# 4 0.000000 0.000000 0.000000 0.055213 0.000000 0.000122
# 5 0.001564 0.001585 0.005073 0.000000 0.026119 0.000000
# 6 0.000000 0.000000 0.000000 0.000122 0.000000 0.032285
#
#
# Mechanical properties :
#
#
# Convention : Reuss Voigt Hill
#
# Bulk Modulus (GPa) = 20.24952 25.22666 22.73809
# Shear Modulus (GPa) = 28.28298 32.48724 30.38511
#
# Velocity S-wave (km/s) = 3.75601 4.02551 3.89309
# Velocity P-wave (km/s) = 5.37687 5.84717 5.61694
#
# Compressibility (1/GPa) = 0.04938388
#
# Stress axis : x y z
#
# Youngs Moduli (GPa) = 85.27502 43.47351 75.10132
#
# Poissons Ratio (x) = 0.05423 0.10310
# Poissons Ratio (y) = 0.10637 -0.24707
# Poissons Ratio (z) = 0.11707 -0.14302
#
# Static dielectric constant tensor:
#      x y z
#    x 1.747050 0.000000 -0.008100 
#    y 0.000000 1.684910 0.000000 
#    z -0.008100 0.000000 1.714280 
# 
# From -- ./inp_files/190612.got.cif
#   From: 2010.05.17/outbox.cif.g08.bks.cpg/sg15_96_cif.got.tgz:190612.got - 2010.06.03 18:47:42.
