data_PCOD9292661
_publ_section_title
;
Structure prediction by ZEFSAII (Michael W. Deem and Ramdas Pophale) SiO2 
 PCOD9292661
Probable space group: C 2/C
;
_chemical_formula_sum "Si O2"
_cell_formula_units_Z 36
_cell_length_a 10.825338
_cell_length_b 18.745164
_cell_length_c 8.201520
_cell_angle_alpha 90.000000
_cell_angle_beta 57.488191
_cell_angle_gamma 90.000000
_cell_volume 1403.450864
_symmetry_space_group_name_H-M "C 2/C"
_symmetry_group_IT_number 15
_symmetry_cell_setting 'monoclinic'
loop_
_space_group_symop_operation_xyz
x,y,z
-x,y,1/2-z
-x,-y,-z
x,-y,1/2+z
1/2+x,1/2+y,z
1/2-x,1/2+y,1/2-z
1/2-x,1/2-y,-z
1/2+x,1/2-y,1/2+z
loop_
_atom_site_type_symbol
_atom_site_label
_atom_site_fract_x
_atom_site_fract_y
_atom_site_fract_z
Si Si1 0.207909 0.038032 0.361536
Si Si2 0.269762 0.806647 0.233174
Si Si3 0.500000 0.384597 0.250000
Si Si4 0.328174 0.665321 0.335317
Si Si5 0.614364 0.937519 0.452141
O O1 0.066084 0.062739 0.563976
O O2 0.208303 0.087285 0.202686
O O3 0.334360 0.057976 0.399348
O O4 0.249724 0.960894 0.263347
O O5 0.292035 0.721812 0.217526
O O6 0.252439 0.820593 0.438376
O O7 0.407107 0.854795 0.075866
O O8 0.128098 0.833931 0.232941
O O9 0.500000 0.671229 0.250000
O O10 0.500000 0.000000 0.500000
#
# Coordination Sequence:
#
# PCOD9292661 Si02
#       5
#     8   8   4   8   8
#     4  11  24  43  69 100 139 181 230 285 349 410
#     4  10  24  44  73 102 142 182 229 292 347 415
#     4  10  22  44  66 106 138 178 234 280 344 420
#     4  11  23  45  69 104 140 184 230 286 351 422
#     4  11  25  46  69 102 138 185 236 289 350 416
#
# _framework density 25.651057999999999
#
# number of rings (size 3 to 8) (size 9 to 14) (size 15 to 20)
#    0.000    1.333    2.222    2.000    0.000   12.444 
#   14.000    0.000    0.000    0.000    0.000    0.000 
#    0.000    0.000    0.000    0.000    0.000    0.000 
#
# Total GULP energy -100719.424698 kJ/mol
# GULP energy per Si atom -5595.523594 kJ/mol
# Density = 2.559268 g / cm^3
# Si number density = 25.651058 Si / 1000 Ang^3
#
#
#
# Elastic Constant Matrix: (Units=GPa)
#
#
# Indices 1 2 3 4 5 6 
#
# 1 108.3789 17.7988 0.8237 0.0000 -6.3701 0.0000
# 2 17.7988 101.7676 -14.7573 0.0000 5.5847 0.0000
# 3 0.8237 -14.7573 64.9728 0.0000 16.1903 0.0000
# 4 0.0000 0.0000 0.0000 31.4750 0.0000 17.4927
# 5 -6.3701 5.5847 16.1903 0.0000 31.8106 0.0000
# 6 0.0000 0.0000 0.0000 17.4927 0.0000 33.6653
#
#
#
# Elastic Compliance Matrix: (Units=1/GPa)
#
#
# Indices 1 2 3 4 5 6 
#
# 1 0.009752 -0.002064 -0.001339 0.000000 0.002997 0.000000
# 2 -0.002064 0.010927 0.003538 0.000000 -0.004132 0.000000
# 3 -0.001339 0.003538 0.018820 0.000000 -0.010468 0.000000
# 4 0.000000 0.000000 0.000000 0.044671 0.000000 -0.023212
# 5 0.002997 -0.004132 -0.010468 0.000000 0.038089 0.000000
# 6 0.000000 0.000000 0.000000 -0.023212 0.000000 0.041765
#
#
# Mechanical properties :
#
#
# Convention : Reuss Voigt Hill
#
# Bulk Modulus (GPa) = 25.14599 31.42774 28.28687
# Shear Modulus (GPa) = 28.24653 37.47380 32.86017
#
# Velocity S-wave (km/s) = 3.32201 3.82633 3.58305
# Velocity P-wave (km/s) = 4.95366 5.63912 5.30747
#
# Compressibility (1/GPa) = 0.03976776
#
# Stress axis : x y z
#
# Youngs Moduli (GPa) = 102.54064 91.51533 53.13480
#
# Poissons Ratio (x) = 0.18892 0.07116
# Poissons Ratio (y) = 0.21168 -0.18798
# Poissons Ratio (z) = 0.13733 -0.32376
#
# Static dielectric constant tensor:
#      x y z
#    x 2.065610 0.000000 -0.115940 
#    y 0.000000 1.968440 0.000000 
#    z -0.115940 0.000000 2.049370 
# 
# From -- ./inp_files/28976.got.cif
#   From: 2010.05.17/outbox.cif.g08.bks.cpg/sg15_15_cif.got.tgz:28976.got - 2010.06.03 18:47:42.
