data_PCOD9292610
_publ_section_title
;
Structure prediction by ZEFSAII (Michael W. Deem and Ramdas Pophale) SiO2 
 PCOD9292610
Probable space group: C 2/C
;
_chemical_formula_sum "Si O2"
_cell_formula_units_Z 48
_cell_length_a 13.936483
_cell_length_b 23.810800
_cell_length_c 11.496960
_cell_angle_alpha 90.000000
_cell_angle_beta 148.031377
_cell_angle_gamma 90.000000
_cell_volume 2019.942744
_symmetry_space_group_name_H-M "C 2/C"
_symmetry_group_IT_number 15
_symmetry_cell_setting 'monoclinic'
loop_
_space_group_symop_operation_xyz
x,y,z
-x,y,1/2-z
-x,-y,-z
x,-y,1/2+z
1/2+x,1/2+y,z
1/2-x,1/2+y,1/2-z
1/2-x,1/2-y,-z
1/2+x,1/2-y,1/2+z
loop_
_atom_site_type_symbol
_atom_site_label
_atom_site_fract_x
_atom_site_fract_y
_atom_site_fract_z
Si Si1 0.561518 0.716038 0.568454
Si Si2 0.000000 0.489627 0.250000
Si Si3 0.713437 0.425135 0.452266
Si Si4 0.810456 0.670596 0.217304
Si Si5 0.810005 0.614052 0.553137
Si Si6 0.664407 0.115094 0.659683
Si Si7 0.000000 0.200800 0.250000
O O1 0.380715 0.683378 0.418803
O O2 0.595471 0.768603 0.687250
O O3 0.726912 0.673151 0.745547
O O4 0.552991 0.733049 0.422460
O O5 0.148392 0.530950 0.346009
O O6 0.134158 0.444270 0.452010
O O7 0.500000 0.435482 0.250000
O O8 0.765033 0.363436 0.553985
O O9 0.769840 0.425242 0.375181
O O10 0.953378 0.631251 0.432103
O O11 0.778544 0.594972 0.654392
O O12 0.655118 0.657433 0.367035
O O13 0.000000 0.646853 0.750000
#
# Coordination Sequence:
#
# PCOD9292610 Si02
#       7
#     8   4   8   8   8   8   4
#     4  11  24  40  66  98 135 180 228 263 344 389
#     4  10  24  44  67 104 124 181 220 286 336 404
#     4  12  25  44  65  93 141 175 226 279 324 396
#     4  12  23  43  63  96 135 180 220 274 325 404
#     4   9  22  43  69  96 131 170 223 279 342 391
#     4  11  22  44  64  96 133 179 220 275 331 400
#     4  10  22  44  65 100 138 171 222 288 322 410
#
# _framework density 23.763048999999999
#
# number of rings (size 3 to 8) (size 9 to 14) (size 15 to 20)
#    0.500    0.667    5.000    1.000    1.167    2.000 
#    4.500    0.833    0.000    0.000    0.000    0.000 
#    0.000    0.000    0.000    0.000    0.000    0.000 
#
# Total GULP energy -133814.978580 kJ/mol
# GULP energy per Si atom -5575.624108 kJ/mol
# Density = 2.370896 g / cm^3
# Si number density = 23.763049 Si / 1000 Ang^3
#
#
#
# Elastic Constant Matrix: (Units=GPa)
#
#
# Indices 1 2 3 4 5 6 
#
# 1 70.1503 36.7706 37.3464 0.0000 8.2150 0.0000
# 2 36.7706 103.3301 31.1483 0.0000 15.5915 0.0000
# 3 37.3464 31.1483 94.7394 0.0000 32.1623 0.0000
# 4 0.0000 0.0000 0.0000 -5.1595 0.0000 -11.8627
# 5 8.2150 15.5915 32.1623 0.0000 48.4204 0.0000
# 6 0.0000 0.0000 0.0000 -11.8627 0.0000 3.2908
#
#
#
# Elastic Compliance Matrix: (Units=1/GPa)
#
#
# Indices 1 2 3 4 5 6 
#
# 1 0.020796 -0.005646 -0.007438 0.000000 0.003230 0.000000
# 2 -0.005646 0.012353 -0.001047 0.000000 -0.002325 0.000000
# 3 -0.007438 -0.001047 0.017158 0.000000 -0.009798 0.000000
# 4 0.000000 0.000000 0.000000 -0.020867 0.000000 -0.075222
# 5 0.003230 -0.002325 -0.009798 0.000000 0.027361 0.000000
# 6 0.000000 0.000000 0.000000 -0.075222 0.000000 0.032717
#
#
# Mechanical properties :
#
#
# Convention : Reuss Voigt Hill
#
# Bulk Modulus (GPa) = 45.36083 53.19450 49.27767
# Shear Modulus (GPa) = 39.95926 20.17395 30.06660
#
# Velocity S-wave (km/s) = 4.10515 2.91686 3.56092
# Velocity P-wave (km/s) = 6.44980 5.81189 6.13913
#
# Compressibility (1/GPa) = 0.02204545
#
# Stress axis : x y z
#
# Youngs Moduli (GPa) = 48.08603 80.95177 58.28264
#
# Poissons Ratio (x) = 0.45702 0.43353
# Poissons Ratio (y) = 0.27147 0.06101
# Poissons Ratio (z) = 0.35768 0.08474
#
# Static dielectric constant tensor:
#      x y z
#    x 2.217770 0.000000 -0.146850 
#    y 0.000000 1.915470 0.000000 
#    z -0.146850 0.000000 1.979150 
# 
# From -- ./inp_files/101724.got.cif
#   From: 2010.05.17/outbox.cif.g08.bks.cpg/sg15_51_cif.got.tgz:101724.got - 2010.06.03 18:47:42.
