data_PCOD9292384
_publ_section_title
;
Structure prediction by ZEFSAII (Michael W. Deem and Ramdas Pophale) SiO2 
 PCOD9292384
Probable space group: C 2/C
;
_chemical_formula_sum "Si O2"
_cell_formula_units_Z 52
_cell_length_a 11.433142
_cell_length_b 19.907020
_cell_length_c 13.188091
_cell_angle_alpha 90.000000
_cell_angle_beta 128.312562
_cell_angle_gamma 90.000000
_cell_volume 2355.182077
_symmetry_space_group_name_H-M "C 2/C"
_symmetry_group_IT_number 15
_symmetry_cell_setting 'monoclinic'
loop_
_space_group_symop_operation_xyz
x,y,z
-x,y,1/2-z
-x,-y,-z
x,-y,1/2+z
1/2+x,1/2+y,z
1/2-x,1/2+y,1/2-z
1/2-x,1/2-y,-z
1/2+x,1/2-y,1/2+z
loop_
_atom_site_type_symbol
_atom_site_label
_atom_site_fract_x
_atom_site_fract_y
_atom_site_fract_z
Si Si1 0.386887 0.441664 0.971915
Si Si2 0.425007 0.762422 0.105385
Si Si3 0.890270 0.473497 0.789332
Si Si4 0.000000 0.288498 0.750000
Si Si5 0.932482 0.806832 0.404356
Si Si6 0.358531 0.870430 0.311667
Si Si7 0.150360 0.393532 0.975274
O O1 0.266518 0.437641 0.816320
O O2 0.272259 0.448309 0.005279
O O3 0.500000 0.500000 0.000000
O O4 0.475095 0.375482 0.050977
O O5 0.500000 0.736328 0.250000
O O6 0.480558 0.839102 0.123937
O O7 0.250000 0.750000 0.000000
O O8 0.487432 0.728054 0.036824
O O9 0.856234 0.550278 0.794089
O O10 0.000000 0.473416 0.750000
O O11 0.994225 0.430310 0.918744
O O12 0.051299 0.241897 0.683803
O O13 0.117593 0.339123 0.868897
O O14 0.760976 0.830776 0.320127
O O15 0.304029 0.858003 0.397279
#
# Coordination Sequence:
#
# PCOD9292384 Si02
#       7
#     8   8   8   4   8   8   8
#     4  11  23  45  69 101 140 184 247 316 379 448
#     4  12  27  46  70 107 149 197 254 306 381 457
#     4  10  22  43  70  98 138 191 248 305 375 447
#     4  12  24  46  68 112 144 192 246 304 386 450
#     4  12  27  42  75 105 148 194 243 319 375 462
#     4  12  24  44  72 104 143 197 250 306 385 450
#     4  11  24  43  73 104 145 190 248 315 375 462
#
# _framework density 22.078973000000001
#
# number of rings (size 3 to 8) (size 9 to 14) (size 15 to 20)
#    0.000    0.615    6.923    1.846    2.154    2.462 
#    0.000    1.538    0.000    0.000    0.000    0.000 
#    0.000    0.000    0.000    0.000    0.000    0.000 
#
# Total GULP energy -144991.463071 kJ/mol
# GULP energy per Si atom -5576.594733 kJ/mol
# Density = 2.202872 g / cm^3
# Si number density = 22.078973 Si / 1000 Ang^3
#
#
#
# Elastic Constant Matrix: (Units=GPa)
#
#
# Indices 1 2 3 4 5 6 
#
# 1 80.9638 34.5560 42.4950 0.0000 10.7081 0.0000
# 2 34.5560 116.7986 42.3092 0.0000 5.0038 0.0000
# 3 42.4950 42.3092 114.9361 0.0000 -5.4165 0.0000
# 4 0.0000 0.0000 0.0000 39.0239 0.0000 0.3752
# 5 10.7081 5.0038 -5.4165 0.0000 50.0889 0.0000
# 6 0.0000 0.0000 0.0000 0.3752 0.0000 43.0230
#
#
#
# Elastic Compliance Matrix: (Units=1/GPa)
#
#
# Indices 1 2 3 4 5 6 
#
# 1 0.016925 -0.002892 -0.005377 0.000000 -0.003911 0.000000
# 2 -0.002892 0.010470 -0.002819 0.000000 -0.000733 0.000000
# 3 -0.005377 -0.002819 0.011854 0.000000 0.002713 0.000000
# 4 0.000000 0.000000 0.000000 0.025627 0.000000 -0.000223
# 5 -0.003911 -0.000733 0.002713 0.000000 0.021167 0.000000
# 6 0.000000 0.000000 0.000000 -0.000223 0.000000 0.023245
#
#
# Mechanical properties :
#
#
# Convention : Reuss Voigt Hill
#
# Bulk Modulus (GPa) = 58.57566 61.26877 59.92221
# Shear Modulus (GPa) = 36.45431 39.31637 37.88534
#
# Velocity S-wave (km/s) = 4.06777 4.22443 4.14684
# Velocity P-wave (km/s) = 6.97495 7.18363 7.08006
#
# Compressibility (1/GPa) = 0.01707194
#
# Stress axis : x y z
#
# Youngs Moduli (GPa) = 59.08352 95.51034 84.35701
#
# Poissons Ratio (x) = 0.27622 0.45362
# Poissons Ratio (y) = 0.17087 0.23784
# Poissons Ratio (z) = 0.31772 0.26928
#
# Static dielectric constant tensor:
#      x y z
#    x 1.898340 0.000000 -0.016730 
#    y 0.000000 1.792400 0.000000 
#    z -0.016730 0.000000 1.906900 
# 
# From -- ./inp_files/147214.got.cif
#   From: 2010.05.17/outbox.cif.g08.bks.cpg/sg15_74_cif.got.tgz:147214.got - 2010.06.03 18:47:42.
