data_PCOD9292837
_publ_section_title
;
Structure prediction by ZEFSAII (Michael W. Deem and Ramdas Pophale) SiO2 
 PCOD9292837
Probable space group: C 2/C
;
_chemical_formula_sum "Si O2"
_cell_formula_units_Z 36
_cell_length_a 5.425885
_cell_length_b 18.606035
_cell_length_c 18.190502
_cell_angle_alpha 90.000000
_cell_angle_beta 56.256545
_cell_angle_gamma 90.000000
_cell_volume 1527.033726
_symmetry_space_group_name_H-M "C 2/C"
_symmetry_group_IT_number 15
_symmetry_cell_setting 'monoclinic'
loop_
_space_group_symop_operation_xyz
x,y,z
-x,y,1/2-z
-x,-y,-z
x,-y,1/2+z
1/2+x,1/2+y,z
1/2-x,1/2+y,1/2-z
1/2-x,1/2-y,-z
1/2+x,1/2-y,1/2+z
loop_
_atom_site_type_symbol
_atom_site_label
_atom_site_fract_x
_atom_site_fract_y
_atom_site_fract_z
Si Si1 0.027583 0.803731 0.574670
Si Si2 0.709653 0.900759 0.843149
Si Si3 0.953393 0.920941 0.044738
Si Si4 0.500000 0.203313 0.250000
Si Si5 0.224212 0.436754 0.353444
O O1 0.250000 0.750000 0.500000
O O2 0.203799 0.855815 0.600438
O O3 0.916362 0.858632 0.529659
O O4 0.790350 0.761426 0.666356
O O5 0.570387 0.848979 0.805809
O O6 0.000000 0.921776 0.750000
O O7 0.610609 0.980161 0.878900
O O8 0.599372 0.903226 0.111909
O O9 0.128516 0.918051 0.092618
O O10 0.000000 0.000000 0.000000
O O11 0.500000 0.426019 0.250000
#
# Coordination Sequence:
#
# PCOD9292837 Si02
#       5
#     8   8   8   4   8
#     4  11  25  44  69 102 137 186 243 295 359 436
#     4   9  20  38  67  99 131 185 237 283 350 437
#     4  12  24  43  70 106 141 181 242 302 354 429
#     4  10  22  44  68  96 138 184 238 294 358 442
#     4  11  24  42  69 104 146 186 234 295 368 424
#
# _framework density 23.575118
#
# number of rings (size 3 to 8) (size 9 to 14) (size 15 to 20)
#    0.000    1.333    2.222    2.667    9.333    0.889 
#    2.000    4.444    0.000    0.000    0.000    0.000 
#    0.000    0.000    0.000    0.000    0.000    0.000 
#
# Total GULP energy -100300.081744 kJ/mol
# GULP energy per Si atom -5572.226764 kJ/mol
# Density = 2.352146 g / cm^3
# Si number density = 23.575118 Si / 1000 Ang^3
#
#
#
# Elastic Constant Matrix: (Units=GPa)
#
#
# Indices 1 2 3 4 5 6 
#
# 1 100.1600 -14.4205 66.0830 0.0000 -4.7909 0.0000
# 2 -14.4205 48.2130 43.2973 0.0000 -8.8709 0.0000
# 3 66.0830 43.2973 203.5090 0.0000 -24.7741 0.0000
# 4 0.0000 0.0000 0.0000 53.1807 0.0000 2.4536
# 5 -4.7909 -8.8709 -24.7741 0.0000 73.3585 0.0000
# 6 0.0000 0.0000 0.0000 2.4536 0.0000 24.8787
#
#
#
# Elastic Compliance Matrix: (Units=1/GPa)
#
#
# Indices 1 2 3 4 5 6 
#
# 1 0.017271 0.012598 -0.008307 0.000000 -0.000154 0.000000
# 2 0.012598 0.034951 -0.011380 0.000000 0.001206 0.000000
# 3 -0.008307 -0.011380 0.010219 0.000000 0.001532 0.000000
# 4 0.000000 0.000000 0.000000 0.018890 0.000000 -0.001863
# 5 -0.000154 0.001206 0.001532 0.000000 0.014285 0.000000
# 6 0.000000 0.000000 0.000000 -0.001863 0.000000 0.040379
#
#
# Mechanical properties :
#
#
# Convention : Reuss Voigt Hill
#
# Bulk Modulus (GPa) = 20.72001 60.20017 40.46009
# Shear Modulus (GPa) = 30.07323 47.41173 38.74248
#
# Velocity S-wave (km/s) = 3.57548 4.48938 4.05824
# Velocity P-wave (km/s) = 5.08462 7.24318 6.25768
#
# Compressibility (1/GPa) = 0.04826253
#
# Stress axis : x y z
#
# Youngs Moduli (GPa) = 57.89917 28.61165 97.85706
#
# Poissons Ratio (x) = -0.36045 0.81293
# Poissons Ratio (y) = -0.72941 1.11360
# Poissons Ratio (z) = 0.48099 0.32560
#
# Static dielectric constant tensor:
#      x y z
#    x 1.970080 0.000000 -0.175060 
#    y 0.000000 2.243280 0.000000 
#    z -0.175060 0.000000 1.830750 
# 
# From -- ./inp_files/184596.got.cif
#   From: 2010.05.17/outbox.cif.g08.bks.cpg/sg15_93_cif.got.tgz:184596.got - 2010.06.03 18:47:42.
