data_PCOD9292557
_publ_section_title
;
Structure prediction by ZEFSAII (Michael W. Deem and Ramdas Pophale) SiO2 
 PCOD9292557
Probable space group: C 2/C
;
_chemical_formula_sum "Si O2"
_cell_formula_units_Z 60
_cell_length_a 29.643055
_cell_length_b 17.986708
_cell_length_c 5.546810
_cell_angle_alpha 90.000000
_cell_angle_beta 106.647927
_cell_angle_gamma 90.000000
_cell_volume 2833.486765
_symmetry_space_group_name_H-M "C 2/C"
_symmetry_group_IT_number 15
_symmetry_cell_setting 'monoclinic'
loop_
_space_group_symop_operation_xyz
x,y,z
-x,y,1/2-z
-x,-y,-z
x,-y,1/2+z
1/2+x,1/2+y,z
1/2-x,1/2+y,1/2-z
1/2-x,1/2-y,-z
1/2+x,1/2-y,1/2+z
loop_
_atom_site_type_symbol
_atom_site_label
_atom_site_fract_x
_atom_site_fract_y
_atom_site_fract_z
Si Si1 0.312980 0.165510 0.578044
Si Si2 0.000000 0.275811 0.750000
Si Si3 0.075679 0.038304 0.820574
Si Si4 0.769405 0.197113 0.739063
Si Si5 0.664427 0.625246 0.008687
Si Si6 0.400881 0.753839 0.363057
Si Si7 0.251875 0.954229 0.812842
Si Si8 0.458170 0.667611 0.050524
O O1 0.276802 0.154237 0.743438
O O2 0.294462 0.244757 0.453107
O O3 0.366838 0.180563 0.719450
O O4 0.298790 0.097174 0.387455
O O5 0.016243 0.236094 0.532185
O O6 0.945336 0.292138 0.569433
O O7 0.056824 0.116972 0.696534
O O8 0.062982 0.985977 0.572422
O O9 0.131177 0.054271 0.923545
O O10 0.750000 0.250000 0.500000
O O11 0.809677 0.144702 0.698583
O O12 0.633324 0.697216 0.038457
O O13 0.707144 0.602583 0.249362
O O14 0.419697 0.699223 0.176228
O O15 0.249786 0.996876 0.553383
O O16 0.500000 0.624879 0.250000
#
# Coordination Sequence:
#
# PCOD9292557 Si02
#       8
#     8   4   8   8   8   8   8   8
#     4  11  23  38  63  97 128 169 218 261 335 389
#     4  10  22  44  62  94 120 154 206 282 352 376
#     4  12  26  40  58  88 120 174 230 258 303 376
#     4  11  20  38  62  95 125 162 211 283 319 384
#     4  12  22  42  66  91 131 174 220 263 324 374
#     4  11  22  40  69  94 122 163 208 282 334 384
#     4  12  27  44  62  93 142 184 218 261 306 387
#     4  10  23  42  62  82 123 156 210 278 335 371
#
# _framework density 21.175324
#
# number of rings (size 3 to 8) (size 9 to 14) (size 15 to 20)
#    0.000    0.800    4.000    4.000    1.867    2.667 
#    0.000    0.000    0.000    0.000    0.000    0.933 
#    0.000    0.000    0.000    0.000    0.000    0.000 
#
# Total GULP energy -167114.580844 kJ/mol
# GULP energy per Si atom -5570.486028 kJ/mol
# Density = 2.112713 g / cm^3
# Si number density = 21.175324 Si / 1000 Ang^3
#
#
#
# Elastic Constant Matrix: (Units=GPa)
#
#
# Indices 1 2 3 4 5 6 
#
# 1 109.6288 21.2137 37.5640 0.0000 15.5512 0.0000
# 2 21.2137 39.7077 18.5874 0.0000 4.2772 0.0000
# 3 37.5640 18.5874 90.2545 0.0000 20.8748 0.0000
# 4 0.0000 0.0000 0.0000 39.3753 0.0000 -0.0436
# 5 15.5512 4.2772 20.8748 0.0000 54.9838 0.0000
# 6 0.0000 0.0000 0.0000 -0.0436 0.0000 6.7161
#
#
#
# Elastic Compliance Matrix: (Units=1/GPa)
#
#
# Indices 1 2 3 4 5 6 
#
# 1 0.011365 -0.004270 -0.003491 0.000000 -0.001557 0.000000
# 2 -0.004270 0.029475 -0.004431 0.000000 0.000597 0.000000
# 3 -0.003491 -0.004431 0.014402 0.000000 -0.004136 0.000000
# 4 0.000000 0.000000 0.000000 0.025397 0.000000 0.000165
# 5 -0.001557 0.000597 -0.004136 0.000000 0.020151 0.000000
# 6 0.000000 0.000000 0.000000 0.000165 0.000000 0.148898
#
#
# Mechanical properties :
#
#
# Convention : Reuss Voigt Hill
#
# Bulk Modulus (GPa) = 32.40623 43.81347 38.10985
# Shear Modulus (GPa) = 17.58353 31.03009 24.30681
#
# Velocity S-wave (km/s) = 2.88475 3.83219 3.39172
# Velocity P-wave (km/s) = 5.14128 6.34954 5.77708
#
# Compressibility (1/GPa) = 0.03085826
#
# Stress axis : x y z
#
# Youngs Moduli (GPa) = 87.99061 33.92680 69.43632
#
# Poissons Ratio (x) = 0.14487 0.24237
# Poissons Ratio (y) = 0.37572 0.30769
# Poissons Ratio (z) = 0.30714 0.15034
#
# Static dielectric constant tensor:
#      x y z
#    x 1.834180 0.000000 0.035750 
#    y 0.000000 1.810730 0.000000 
#    z 0.035750 0.000000 1.899400 
# 
# From -- ./inp_files/18472.got.cif
#   From: 2010.05.17/outbox.cif.g08.bks.cpg/sg15_10_cif.got.tgz:18472.got - 2010.06.03 18:47:42.
