data_PCOD9292351
_publ_section_title
;
Structure prediction by ZEFSAII (Michael W. Deem and Ramdas Pophale) SiO2 
 PCOD9292351
Probable space group: C 2/C
;
_chemical_formula_sum "Si O2"
_cell_formula_units_Z 60
_cell_length_a 25.613000
_cell_length_b 14.145416
_cell_length_c 13.846215
_cell_angle_alpha 90.000000
_cell_angle_beta 30.735024
_cell_angle_gamma 90.000000
_cell_volume 2563.812758
_symmetry_space_group_name_H-M "C 2/C"
_symmetry_group_IT_number 15
_symmetry_cell_setting 'monoclinic'
loop_
_space_group_symop_operation_xyz
x,y,z
-x,y,1/2-z
-x,-y,-z
x,-y,1/2+z
1/2+x,1/2+y,z
1/2-x,1/2+y,1/2-z
1/2-x,1/2-y,-z
1/2+x,1/2-y,1/2+z
loop_
_atom_site_type_symbol
_atom_site_label
_atom_site_fract_x
_atom_site_fract_y
_atom_site_fract_z
Si Si1 0.453809 0.893801 0.178177
Si Si2 0.672977 0.799015 0.694887
Si Si3 0.613537 0.543745 0.325351
Si Si4 0.876970 0.443662 0.096603
Si Si5 0.000000 0.042183 0.250000
Si Si6 0.674416 0.052028 0.034948
Si Si7 0.815743 0.936914 0.571684
Si Si8 0.994077 0.191752 0.414801
O O1 0.417461 0.885478 0.123878
O O2 0.475333 0.790250 0.181398
O O3 0.373362 0.949154 0.371130
O O4 0.552103 0.962492 0.021825
O O5 0.750000 0.750000 0.500000
O O6 0.633508 0.884457 0.688669
O O7 0.749020 0.846450 0.651000
O O8 0.589951 0.729132 0.873625
O O9 0.500000 0.500000 0.500000
O O10 0.704391 0.470258 0.154470
O O11 0.639436 0.573081 0.393184
O O12 0.595356 0.640178 0.294978
O O13 0.864187 0.407697 0.006614
O O14 0.764827 0.478298 0.302930
O O15 0.954235 0.113558 0.402537
O O16 0.910647 0.972287 0.356430
#
# Coordination Sequence:
#
# PCOD9292351 Si02
#       8
#     8   8   8   8   4   8   8   8
#     4  11  22  43  70 102 150 181 248 303 370 438
#     4  12  26  45  73 106 145 187 249 308 356 434
#     4  11  24  47  71 103 143 193 248 299 371 445
#     4  10  22  43  70 101 139 198 238 297 367 453
#     4  12  28  44  78 102 148 196 246 294 388 442
#     4  11  24  44  74 101 144 202 240 292 385 442
#     4  11  24  48  73  98 144 201 243 291 381 445
#     4  12  27  45  68 110 145 180 244 315 358 439
#
# _framework density 23.402646000000001
#
# number of rings (size 3 to 8) (size 9 to 14) (size 15 to 20)
#    0.000    0.800    4.000    2.800    5.600    1.600 
#    0.000    1.333    0.000    0.000    0.000    0.000 
#    0.000    0.000    0.000    0.000    0.000    0.000 
#
# Total GULP energy -167508.078087 kJ/mol
# GULP energy per Si atom -5583.602603 kJ/mol
# Density = 2.334938 g / cm^3
# Si number density = 23.402646 Si / 1000 Ang^3
#
#
#
# Elastic Constant Matrix: (Units=GPa)
#
#
# Indices 1 2 3 4 5 6 
#
# 1 144.1999 2.8105 18.9319 0.0000 -1.5596 0.0000
# 2 2.8105 46.1911 -5.5642 0.0000 1.0752 0.0000
# 3 18.9319 -5.5642 98.3230 0.0000 -8.9885 0.0000
# 4 0.0000 0.0000 0.0000 41.2871 0.0000 6.0947
# 5 -1.5596 1.0752 -8.9885 0.0000 31.6392 0.0000
# 6 0.0000 0.0000 0.0000 6.0947 0.0000 20.5903
#
#
#
# Elastic Compliance Matrix: (Units=1/GPa)
#
#
# Indices 1 2 3 4 5 6 
#
# 1 0.007131 -0.000603 -0.001410 0.000000 -0.000029 0.000000
# 2 -0.000603 0.021854 0.001316 0.000000 -0.000398 0.000000
# 3 -0.001410 0.001316 0.010786 0.000000 0.002950 0.000000
# 4 0.000000 0.000000 0.000000 0.025327 0.000000 -0.007497
# 5 -0.000029 -0.000398 0.002950 0.000000 0.032457 0.000000
# 6 0.000000 0.000000 0.000000 -0.007497 0.000000 0.050786
#
#
# Mechanical properties :
#
#
# Convention : Reuss Voigt Hill
#
# Bulk Modulus (GPa) = 26.05637 35.67447 30.86542
# Shear Modulus (GPa) = 30.76419 36.87237 33.81828
#
# Velocity S-wave (km/s) = 3.62962 3.97364 3.80552
# Velocity P-wave (km/s) = 5.35944 6.02744 5.70323
#
# Compressibility (1/GPa) = 0.03837833
#
# Stress axis : x y z
#
# Youngs Moduli (GPa) = 140.22565 45.75872 92.71090
#
# Poissons Ratio (x) = 0.02760 0.13071
# Poissons Ratio (y) = 0.08457 -0.12205
# Poissons Ratio (z) = 0.19770 -0.06024
#
# Static dielectric constant tensor:
#      x y z
#    x 2.001710 0.000000 0.030820 
#    y 0.000000 1.966010 0.000000 
#    z 0.030820 0.000000 1.962800 
# 
# From -- ./inp_files/178538.got.cif
#   From: 2010.05.17/outbox.cif.g08.bks.cpg/sg15_90_cif.got.tgz:178538.got - 2010.06.03 18:47:42.
