data_PCOD9292525
_publ_section_title
;
Structure prediction by ZEFSAII (Michael W. Deem and Ramdas Pophale) SiO2 
 PCOD9292525
Probable space group: C 2/C
;
_chemical_formula_sum "Si O2"
_cell_formula_units_Z 44
_cell_length_a 7.992354
_cell_length_b 14.483316
_cell_length_c 15.466485
_cell_angle_alpha 90.000000
_cell_angle_beta 68.942386
_cell_angle_gamma 90.000000
_cell_volume 1670.775862
_symmetry_space_group_name_H-M "C 2/C"
_symmetry_group_IT_number 15
_symmetry_cell_setting 'monoclinic'
loop_
_space_group_symop_operation_xyz
x,y,z
-x,y,1/2-z
-x,-y,-z
x,-y,1/2+z
1/2+x,1/2+y,z
1/2-x,1/2+y,1/2-z
1/2-x,1/2-y,-z
1/2+x,1/2-y,1/2+z
loop_
_atom_site_type_symbol
_atom_site_label
_atom_site_fract_x
_atom_site_fract_y
_atom_site_fract_z
Si Si1 0.965182 0.864008 0.931223
Si Si2 0.878480 0.429903 0.080208
Si Si3 0.705540 0.736648 0.180860
Si Si4 0.749543 0.441561 0.754839
Si Si5 0.786297 0.580840 0.883227
Si Si6 0.250000 0.250000 0.500000
O O1 0.058644 0.919483 0.835589
O O2 0.811327 0.804343 0.911908
O O3 0.141510 0.069855 0.984210
O O4 0.109327 0.801667 0.955547
O O5 0.764250 0.490862 0.169906
O O6 0.029384 0.382597 0.112026
O O7 0.783515 0.351599 0.041790
O O8 0.000000 0.500000 0.000000
O O9 0.813115 0.660145 0.214586
O O10 0.787396 0.837901 0.164708
O O11 0.836011 0.490625 0.821464
O O12 0.000000 0.757547 0.750000
#
# Coordination Sequence:
#
# PCOD9292525 Si02
#       6
#     8   8   8   8   8   4
#     4  11  25  47  76 108 159 205 265 326 405 489
#     4  12  27  50  79 116 159 206 269 341 411 490
#     4  10  22  43  76 106 152 204 261 321 397 474
#     4  11  26  45  78 115 150 205 269 330 404 488
#     4  12  24  47  81 110 154 210 259 335 406 471
#     4  12  28  48  78 120 158 214 274 332 410 504
#
# _framework density 26.335070000000002
#
# number of rings (size 3 to 8) (size 9 to 14) (size 15 to 20)
#    0.000    0.727    1.818    4.909    5.091    4.364 
#    0.000    0.000    0.000    0.000    0.000    0.000 
#    0.000    0.000    0.000    0.000    0.000    0.000 
#
# Total GULP energy -122493.793678 kJ/mol
# GULP energy per Si atom -5567.899713 kJ/mol
# Density = 2.627513 g / cm^3
# Si number density = 26.335070 Si / 1000 Ang^3
#
#
#
# Elastic Constant Matrix: (Units=GPa)
#
#
# Indices 1 2 3 4 5 6 
#
# 1 60.4158 38.5777 49.7749 0.0000 -11.8310 0.0000
# 2 38.5777 108.1193 58.7508 0.0000 -10.3727 0.0000
# 3 49.7749 58.7508 142.4479 0.0000 -20.2482 0.0000
# 4 0.0000 0.0000 0.0000 58.3181 0.0000 20.9507
# 5 -11.8310 -10.3727 -20.2482 0.0000 58.9647 0.0000
# 6 0.0000 0.0000 0.0000 20.9507 0.0000 28.2513
#
#
#
# Elastic Compliance Matrix: (Units=1/GPa)
#
#
# Indices 1 2 3 4 5 6 
#
# 1 0.025769 -0.005496 -0.006455 0.000000 0.001987 0.000000
# 2 -0.005496 0.013103 -0.003483 0.000000 0.000006 0.000000
# 3 -0.006455 -0.003483 0.010977 0.000000 0.001862 0.000000
# 4 0.000000 0.000000 0.000000 0.023375 0.000000 -0.017334
# 5 0.001987 0.000006 0.001862 0.000000 0.017998 0.000000
# 6 0.000000 0.000000 0.000000 -0.017334 0.000000 0.048252
#
#
# Mechanical properties :
#
#
# Convention : Reuss Voigt Hill
#
# Bulk Modulus (GPa) = 52.68559 67.24329 59.96444
# Shear Modulus (GPa) = 28.30167 40.03213 34.16690
#
# Velocity S-wave (km/s) = 3.28178 3.90308 3.60584
# Velocity P-wave (km/s) = 5.86595 6.77505 6.33682
#
# Compressibility (1/GPa) = 0.01898052
#
# Stress axis : x y z
#
# Youngs Moduli (GPa) = 38.80686 76.31664 91.10219
#
# Poissons Ratio (x) = 0.41946 0.58806
# Poissons Ratio (y) = 0.21329 0.31730
# Poissons Ratio (z) = 0.25049 0.26580
#
# Static dielectric constant tensor:
#      x y z
#    x 2.160330 0.000000 0.036610 
#    y 0.000000 2.173890 0.000000 
#    z 0.036610 0.000000 2.149050 
# 
# From -- ./inp_files/196318.got.cif
#   From: 2010.05.17/outbox.cif.g08.bks.cpg/sg15_99_cif.got.tgz:196318.got - 2010.06.03 18:47:42.
