data_PCOD9292739
_publ_section_title
;
Structure prediction by ZEFSAII (Michael W. Deem and Ramdas Pophale) SiO2 
 PCOD9292739
Probable space group: C 2/C
;
_chemical_formula_sum "Si O2"
_cell_formula_units_Z 36
_cell_length_a 8.744858
_cell_length_b 24.166617
_cell_length_c 8.769646
_cell_angle_alpha 90.000000
_cell_angle_beta 65.713368
_cell_angle_gamma 90.000000
_cell_volume 1689.300873
_symmetry_space_group_name_H-M "C 2/C"
_symmetry_group_IT_number 15
_symmetry_cell_setting 'monoclinic'
loop_
_space_group_symop_operation_xyz
x,y,z
-x,y,1/2-z
-x,-y,-z
x,-y,1/2+z
1/2+x,1/2+y,z
1/2-x,1/2+y,1/2-z
1/2-x,1/2-y,-z
1/2+x,1/2-y,1/2+z
loop_
_atom_site_type_symbol
_atom_site_label
_atom_site_fract_x
_atom_site_fract_y
_atom_site_fract_z
Si Si1 0.506765 0.281562 0.007809
Si Si2 0.282940 0.050145 0.195899
Si Si3 0.824416 0.565705 0.534637
Si Si4 0.270652 0.188086 0.664844
Si Si5 0.000000 0.130525 0.250000
O O1 0.555632 0.220541 0.930732
O O2 0.539882 0.328346 0.870669
O O3 0.319615 0.290353 0.145956
O O4 0.639001 0.293525 0.088321
O O5 0.258486 0.060714 0.387155
O O6 0.474389 0.062702 0.070331
O O7 0.157139 0.090302 0.159373
O O8 0.259353 0.986315 0.158597
O O9 0.785139 0.622690 0.636580
#
# Coordination Sequence:
#
# PCOD9292739 Si02
#       5
#     8   8   8   8   4
#     4  10  24  40  67  98 129 176 226 267 339 387
#     4  10  24  40  68  96 136 173 226 273 337 394
#     4  10  22  45  66  95 131 185 220 269 335 407
#     4  10  22  44  67  91 133 182 222 267 329 412
#     4  12  24  42  62 108 134 168 222 294 322 398
#
# _framework density 21.310592
#
# number of rings (size 3 to 8) (size 9 to 14) (size 15 to 20)
#    0.000    1.778    2.222    0.000    6.222    5.333 
#    0.000    0.000    0.000    0.000    0.000    0.000 
#    0.000    0.000    0.000    0.000    0.000    0.000 
#
# Total GULP energy -100540.284567 kJ/mol
# GULP energy per Si atom -5585.571365 kJ/mol
# Density = 2.126209 g / cm^3
# Si number density = 21.310592 Si / 1000 Ang^3
#
#
#
# Elastic Constant Matrix: (Units=GPa)
#
#
# Indices 1 2 3 4 5 6 
#
# 1 22.2116 7.6312 2.4806 0.0000 6.0759 0.0000
# 2 7.6312 149.7958 51.7622 0.0000 -7.3120 0.0000
# 3 2.4806 51.7622 68.5508 0.0000 -22.0464 0.0000
# 4 0.0000 0.0000 0.0000 30.3413 0.0000 -4.5870
# 5 6.0759 -7.3120 -22.0464 0.0000 0.2636 0.0000
# 6 0.0000 0.0000 0.0000 -4.5870 0.0000 31.4645
#
#
#
# Elastic Compliance Matrix: (Units=1/GPa)
#
#
# Indices 1 2 3 4 5 6 
#
# 1 0.036789 -0.004516 0.012006 0.000000 0.030866 0.000000
# 2 -0.004516 0.008653 -0.004027 0.000000 0.007286 0.000000
# 3 0.012006 -0.004027 0.004160 0.000000 -0.040529 0.000000
# 4 0.000000 0.000000 0.000000 0.033701 0.000000 0.004913
# 5 0.030866 0.007286 -0.040529 0.000000 -0.105442 0.000000
# 6 0.000000 0.000000 0.000000 0.004913 0.000000 0.032498
#
#
# Mechanical properties :
#
#
# Convention : Reuss Voigt Hill
#
# Bulk Modulus (GPa) = 17.69088 40.47846 29.08467
# Shear Modulus (GPa) = 224.45025 24.32615 124.38820
#
# Velocity S-wave (km/s) = 10.27385 3.38228 7.64826
# Velocity P-wave (km/s) = 12.20883 5.85567 9.57456
#
# Compressibility (1/GPa) = 0.05652630
#
# Stress axis : x y z
#
# Youngs Moduli (GPa) = 27.18205 115.56511 240.39285
#
# Poissons Ratio (x) = 0.52190 -2.88608
# Poissons Ratio (y) = 0.12276 0.96816
# Poissons Ratio (z) = -0.32634 0.46543
#
# Static dielectric constant tensor:
#      x y z
#    x 1.781820 0.000000 0.005350 
#    y 0.000000 1.724520 0.000000 
#    z 0.005350 0.000000 1.813350 
# 
# From -- ./inp_files/23307.got.cif
#   From: 2010.05.17/outbox.cif.g08.bks.cpg/sg15_12_cif.got.tgz:23307.got - 2010.06.03 18:47:42.
