data_PCOD9292088
_publ_section_title
;
Structure prediction by ZEFSAII (Michael W. Deem and Ramdas Pophale) SiO2 
 PCOD9292088
Probable space group: C 2/C
;
_chemical_formula_sum "Si O2"
_cell_formula_units_Z 48
_cell_length_a 22.803016
_cell_length_b 11.012430
_cell_length_c 9.562917
_cell_angle_alpha 90.000000
_cell_angle_beta 102.768965
_cell_angle_gamma 90.000000
_cell_volume 2342.018683
_symmetry_space_group_name_H-M "C 2/C"
_symmetry_group_IT_number 15
_symmetry_cell_setting 'monoclinic'
loop_
_space_group_symop_operation_xyz
x,y,z
-x,y,1/2-z
-x,-y,-z
x,-y,1/2+z
1/2+x,1/2+y,z
1/2-x,1/2+y,1/2-z
1/2-x,1/2-y,-z
1/2+x,1/2-y,1/2+z
loop_
_atom_site_type_symbol
_atom_site_label
_atom_site_fract_x
_atom_site_fract_y
_atom_site_fract_z
Si Si1 0.754742 0.187013 0.853834
Si Si2 0.331675 0.002378 0.126415
Si Si3 0.630531 0.157267 0.099716
Si Si4 0.813201 0.256228 0.453306
Si Si5 0.417046 0.570640 0.584978
Si Si6 0.450559 0.363277 0.415263
O O1 0.819388 0.237564 0.838002
O O2 0.705134 0.234280 0.718186
O O3 0.735919 0.046462 0.870180
O O4 0.750000 0.250000 0.000000
O O5 0.359687 0.049657 0.284708
O O6 0.337037 0.116696 0.026109
O O7 0.360524 0.893505 0.051767
O O8 0.568148 0.223985 0.088936
O O9 0.750000 0.250000 0.500000
O O10 0.859085 0.148567 0.512013
O O11 0.418208 0.434706 0.524681
O O12 0.477633 0.624242 0.545585
O O13 0.427883 0.579227 0.756662
#
# Coordination Sequence:
#
# PCOD9292088 Si02
#       6
#     8   8   8   8   8   8
#     4  10  23  38  59  91 126 164 206 258 308 377
#     4  11  22  38  60  91 127 161 210 254 307 379
#     4  11  22  41  63  91 127 170 206 261 311 375
#     4  12  22  39  63  91 126 165 205 257 321 372
#     4  10  23  42  67  93 126 164 212 268 312 381
#     4  10  22  43  66  93 126 164 217 261 319 372
#
# _framework density 20.495138000000001
#
# number of rings (size 3 to 8) (size 9 to 14) (size 15 to 20)
#    0.000    1.333    5.000    0.000    2.333    2.667 
#    3.000    0.833    3.667    0.000    0.000    0.000 
#    0.000    0.000    0.000    0.000    0.000    0.000 
#
# Total GULP energy -133799.831027 kJ/mol
# GULP energy per Si atom -5574.992959 kJ/mol
# Density = 2.044849 g / cm^3
# Si number density = 20.495138 Si / 1000 Ang^3
#
#
#
# Elastic Constant Matrix: (Units=GPa)
#
#
# Indices 1 2 3 4 5 6 
#
# 1 58.0156 29.5724 32.5790 0.0000 7.1407 0.0000
# 2 29.5724 69.1550 18.7333 0.0000 -2.0272 0.0000
# 3 32.5790 18.7333 103.0069 0.0000 -12.5943 0.0000
# 4 0.0000 0.0000 0.0000 39.2544 0.0000 1.0186
# 5 7.1407 -2.0272 -12.5943 0.0000 25.5087 0.0000
# 6 0.0000 0.0000 0.0000 1.0186 0.0000 30.6533
#
#
#
# Elastic Compliance Matrix: (Units=1/GPa)
#
#
# Indices 1 2 3 4 5 6 
#
# 1 0.029299 -0.010484 -0.009008 0.000000 -0.013483 0.000000
# 2 -0.010484 0.018962 0.000437 0.000000 0.004657 0.000000
# 3 -0.009008 0.000437 0.013612 0.000000 0.009277 0.000000
# 4 0.000000 0.000000 0.000000 0.025497 0.000000 -0.000847
# 5 -0.013483 0.004657 0.009277 0.000000 0.047927 0.000000
# 6 0.000000 0.000000 0.000000 -0.000847 0.000000 0.032651
#
#
# Mechanical properties :
#
#
# Convention : Reuss Voigt Hill
#
# Bulk Modulus (GPa) = 42.08464 43.54963 42.81714
# Shear Modulus (GPa) = 23.36675 29.03613 26.20144
#
# Velocity S-wave (km/s) = 3.38022 3.76803 3.57938
# Velocity P-wave (km/s) = 5.98440 6.34237 6.16598
#
# Compressibility (1/GPa) = 0.02376164
#
# Stress axis : x y z
#
# Youngs Moduli (GPa) = 34.13090 52.73810 73.46384
#
# Poissons Ratio (x) = 0.55290 0.66180
# Poissons Ratio (y) = 0.35782 -0.03209
# Poissons Ratio (z) = 0.30747 -0.02304
#
# Static dielectric constant tensor:
#      x y z
#    x 1.771140 0.000000 -0.001370 
#    y 0.000000 1.776760 0.000000 
#    z -0.001370 0.000000 1.741940 
# 
# From -- ./inp_files/60887.got.cif
#   From: 2010.05.17/outbox.cif.g08.bks.cpg/sg15_31_cif.got.tgz:60887.got - 2010.06.03 18:47:42.
