data_PCOD9292129
_publ_section_title
;
Structure prediction by ZEFSAII (Michael W. Deem and Ramdas Pophale) SiO2 
 PCOD9292129
Probable space group: C 2/C
;
_chemical_formula_sum "Si O2"
_cell_formula_units_Z 48
_cell_length_a 27.526769
_cell_length_b 7.208730
_cell_length_c 20.754146
_cell_angle_alpha 90.000000
_cell_angle_beta 152.014957
_cell_angle_gamma 90.000000
_cell_volume 1932.479374
_symmetry_space_group_name_H-M "C 2/C"
_symmetry_group_IT_number 15
_symmetry_cell_setting 'monoclinic'
loop_
_space_group_symop_operation_xyz
x,y,z
-x,y,1/2-z
-x,-y,-z
x,-y,1/2+z
1/2+x,1/2+y,z
1/2-x,1/2+y,1/2-z
1/2-x,1/2-y,-z
1/2+x,1/2-y,1/2+z
loop_
_atom_site_type_symbol
_atom_site_label
_atom_site_fract_x
_atom_site_fract_y
_atom_site_fract_z
Si Si1 0.557181 0.045505 0.255176
Si Si2 0.740507 0.934213 0.552215
Si Si3 0.347558 0.539661 0.898931
Si Si4 0.254879 0.806421 0.335465
Si Si5 0.023296 0.975854 0.203175
Si Si6 0.298212 0.941394 0.164052
O O1 0.500000 0.958930 0.250000
O O2 0.728206 0.160678 0.361488
O O3 0.514594 0.250111 0.193259
O O4 0.582478 0.936925 0.219077
O O5 0.673431 0.039881 0.420686
O O6 0.734375 0.711274 0.548653
O O7 0.704223 0.015598 0.578942
O O8 0.860989 0.977832 0.683065
O O9 0.331583 0.316736 0.882156
O O10 0.341421 0.630636 0.821787
O O11 0.241817 0.606073 0.811181
O O12 0.442887 0.565290 0.058816
O O13 0.000000 0.028800 0.250000
#
# Coordination Sequence:
#
# PCOD9292129 Si02
#       6
#     8   8   8   8   8   8
#     4  11  23  42  69 104 143 185 234 293 361 424
#     4  12  23  42  71  98 147 183 235 297 359 427
#     4  10  22  43  71  99 144 186 239 291 357 416
#     4  10  22  43  66  98 139 184 238 288 354 416
#     4  11  22  40  71 104 140 189 233 294 366 422
#     4  10  24  42  66 106 135 184 235 290 353 427
#
# _framework density 24.838559
#
# number of rings (size 3 to 8) (size 9 to 14) (size 15 to 20)
#    1.000    0.333    1.667    5.000    0.000    2.667 
#    0.000    2.500    0.000    0.000    0.000    0.000 
#    0.000    0.000    0.000    0.000    0.000    0.000 
#
# Total GULP energy -133604.484716 kJ/mol
# GULP energy per Si atom -5566.853530 kJ/mol
# Density = 2.478202 g / cm^3
# Si number density = 24.838559 Si / 1000 Ang^3
#
#
#
# Elastic Constant Matrix: (Units=GPa)
#
#
# Indices 1 2 3 4 5 6 
#
# 1 68.0551 29.7139 26.7344 0.0000 4.4750 0.0000
# 2 29.7139 119.9971 33.8886 0.0000 -14.5924 0.0000
# 3 26.7344 33.8886 104.4966 0.0000 -18.7647 0.0000
# 4 0.0000 0.0000 0.0000 38.5417 0.0000 -8.4575
# 5 4.4750 -14.5924 -18.7647 0.0000 41.9762 0.0000
# 6 0.0000 0.0000 0.0000 -8.4575 0.0000 19.0119
#
#
#
# Elastic Compliance Matrix: (Units=1/GPa)
#
#
# Indices 1 2 3 4 5 6 
#
# 1 0.018515 -0.003990 -0.004400 0.000000 -0.005328 0.000000
# 2 -0.003990 0.010194 -0.001710 0.000000 0.003205 0.000000
# 3 -0.004400 -0.001710 0.012207 0.000000 0.005332 0.000000
# 4 0.000000 0.000000 0.000000 0.028753 0.000000 0.012791
# 5 -0.005328 0.003205 0.005332 0.000000 0.027889 0.000000
# 6 0.000000 0.000000 0.000000 0.012791 0.000000 0.058288
#
#
# Mechanical properties :
#
#
# Convention : Reuss Voigt Hill
#
# Bulk Modulus (GPa) = 48.26833 52.58031 50.42432
# Shear Modulus (GPa) = 27.32991 33.38677 30.35834
#
# Velocity S-wave (km/s) = 3.32068 3.67024 3.49983
# Velocity P-wave (km/s) = 5.84616 6.25905 6.05612
#
# Compressibility (1/GPa) = 0.02071752
#
# Stress axis : x y z
#
# Youngs Moduli (GPa) = 54.01121 98.09576 81.91941
#
# Poissons Ratio (x) = 0.39141 0.36040
# Poissons Ratio (y) = 0.21551 0.14005
# Poissons Ratio (z) = 0.23762 0.16771
#
# Static dielectric constant tensor:
#      x y z
#    x 2.173750 0.000000 0.025310 
#    y 0.000000 1.999250 0.000000 
#    z 0.025310 0.000000 1.939980 
# 
# From -- ./inp_files/257252.got.cif
#   From: 2010.05.17/outbox.cif.g08.bks.cpg/sg15_129_cif.got.tgz:257252.got - 2010.06.03 18:47:42.
