data_PCOD9292984
_publ_section_title
;
Structure prediction by ZEFSAII (Michael W. Deem and Ramdas Pophale) SiO2 
 PCOD9292984
Probable space group: C 2/C
;
_chemical_formula_sum "Si O2"
_cell_formula_units_Z 40
_cell_length_a 24.787343
_cell_length_b 6.516037
_cell_length_c 11.969218
_cell_angle_alpha 90.000000
_cell_angle_beta 67.031232
_cell_angle_gamma 90.000000
_cell_volume 1779.941749
_symmetry_space_group_name_H-M "C 2/C"
_symmetry_group_IT_number 15
_symmetry_cell_setting 'monoclinic'
loop_
_space_group_symop_operation_xyz
x,y,z
-x,y,1/2-z
-x,-y,-z
x,-y,1/2+z
1/2+x,1/2+y,z
1/2-x,1/2+y,1/2-z
1/2-x,1/2-y,-z
1/2+x,1/2-y,1/2+z
loop_
_atom_site_type_symbol
_atom_site_label
_atom_site_fract_x
_atom_site_fract_y
_atom_site_fract_z
Si Si1 0.639012 0.250222 0.188888
Si Si2 0.769592 0.420422 0.395624
Si Si3 0.039886 0.689919 0.436377
Si Si4 0.067873 0.945166 0.047404
Si Si5 0.175258 0.108136 0.317104
O O1 0.593940 0.144357 0.311867
O O2 0.674853 0.415882 0.232285
O O3 0.682210 0.082634 0.101170
O O4 0.600570 0.374824 0.131403
O O5 0.750000 0.250000 0.500000
O O6 0.714239 0.542676 0.391441
O O7 0.798484 0.300784 0.267956
O O8 0.000000 0.500000 0.500000
O O9 0.996228 0.847912 0.408941
O O10 0.062940 0.812431 0.526794
O O11 0.108928 0.863587 0.913022
#
# Coordination Sequence:
#
# PCOD9292984 Si02
#       5
#     8   8   8   8   8
#     4  11  24  43  68 100 139 181 237 290 357 423
#     4  12  26  41  68  98 135 191 234 291 358 420
#     4  10  22  44  70  97 137 181 229 295 355 423
#     4  10  23  41  68  99 132 177 228 294 354 418
#     4  11  24  43  64  95 138 179 231 294 348 421
#
# _framework density 22.472646000000001
#
# number of rings (size 3 to 8) (size 9 to 14) (size 15 to 20)
#    0.000    1.200    2.000    3.000    2.800    6.400 
#    0.000    8.000    0.000    0.000    0.000    0.000 
#    0.000    0.000    0.000    0.000    0.000    0.000 
#
# Total GULP energy -111917.911090 kJ/mol
# GULP energy per Si atom -5595.895554 kJ/mol
# Density = 2.242150 g / cm^3
# Si number density = 22.472646 Si / 1000 Ang^3
#
#
#
# Elastic Constant Matrix: (Units=GPa)
#
#
# Indices 1 2 3 4 5 6 
#
# 1 109.6851 46.9876 25.9874 0.0000 4.0988 0.0000
# 2 46.9876 79.5046 46.8282 0.0000 2.7365 0.0000
# 3 25.9874 46.8282 60.3000 0.0000 -6.5145 0.0000
# 4 0.0000 0.0000 0.0000 50.9214 0.0000 -10.8999
# 5 4.0988 2.7365 -6.5145 0.0000 40.0958 0.0000
# 6 0.0000 0.0000 0.0000 -10.8999 0.0000 43.5007
#
#
#
# Elastic Compliance Matrix: (Units=1/GPa)
#
#
# Indices 1 2 3 4 5 6 
#
# 1 0.012237 -0.007484 0.000466 0.000000 -0.000664 0.000000
# 2 -0.007484 0.028618 -0.019469 0.000000 -0.004351 0.000000
# 3 0.000466 -0.019469 0.032206 0.000000 0.006514 0.000000
# 4 0.000000 0.000000 0.000000 0.020751 0.000000 0.005200
# 5 -0.000664 -0.004351 0.006514 0.000000 0.026363 0.000000
# 6 0.000000 0.000000 0.000000 0.005200 0.000000 0.024291
#
#
# Mechanical properties :
#
#
# Convention : Reuss Voigt Hill
#
# Bulk Modulus (GPa) = 49.78179 54.34401 52.06290
# Shear Modulus (GPa) = 24.49337 35.54936 30.02137
#
# Velocity S-wave (km/s) = 3.30497 3.98162 3.65897
# Velocity P-wave (km/s) = 6.06334 6.73591 6.40845
#
# Compressibility (1/GPa) = 0.02008767
#
# Stress axis : x y z
#
# Youngs Moduli (GPa) = 81.71606 34.94279 31.05025
#
# Poissons Ratio (x) = 0.26152 -0.01448
# Poissons Ratio (y) = 0.61159 0.60452
# Poissons Ratio (z) = -0.03812 0.68030
#
# Static dielectric constant tensor:
#      x y z
#    x 1.809280 0.000000 0.004780 
#    y 0.000000 1.828650 0.000000 
#    z 0.004780 0.000000 1.831540 
# 
# From -- ./inp_files/175326.got.cif
#   From: 2010.05.17/outbox.cif.g08.bks.cpg/sg15_88_cif.got.tgz:175326.got - 2010.06.03 18:47:42.
