data_PCOD9292590
_publ_section_title
;
Structure prediction by ZEFSAII (Michael W. Deem and Ramdas Pophale) SiO2 
 PCOD9292590
Probable space group: C 2/C
;
_chemical_formula_sum "Si O2"
_cell_formula_units_Z 48
_cell_length_a 15.102849
_cell_length_b 12.506072
_cell_length_c 18.164211
_cell_angle_alpha 90.000000
_cell_angle_beta 38.183736
_cell_angle_gamma 90.000000
_cell_volume 2120.874715
_symmetry_space_group_name_H-M "C 2/C"
_symmetry_group_IT_number 15
_symmetry_cell_setting 'monoclinic'
loop_
_space_group_symop_operation_xyz
x,y,z
-x,y,1/2-z
-x,-y,-z
x,-y,1/2+z
1/2+x,1/2+y,z
1/2-x,1/2+y,1/2-z
1/2-x,1/2-y,-z
1/2+x,1/2-y,1/2+z
loop_
_atom_site_type_symbol
_atom_site_label
_atom_site_fract_x
_atom_site_fract_y
_atom_site_fract_z
Si Si1 0.830803 0.227782 0.342007
Si Si2 0.016814 0.519004 0.105273
Si Si3 0.263885 0.567590 0.517125
Si Si4 0.167868 0.720690 0.298521
Si Si5 0.479325 0.438332 0.090364
Si Si6 0.308541 0.904098 0.148611
O O1 0.750383 0.338997 0.413602
O O2 0.782806 0.134735 0.429435
O O3 0.774053 0.201593 0.297698
O O4 0.000000 0.241139 0.250000
O O5 0.113715 0.492975 0.110542
O O6 0.906300 0.615488 0.182380
O O7 0.928253 0.417555 0.133615
O O8 0.124132 0.552267 0.969156
O O9 0.388963 0.482728 0.448161
O O10 0.047251 0.810228 0.400176
O O11 0.258068 0.782378 0.177630
O O12 0.331820 0.465436 0.229910
O O13 0.500000 0.500000 0.000000
#
# Coordination Sequence:
#
# PCOD9292590 Si02
#       6
#     8   8   8   8   8   8
#     4  11  23  38  63  99 130 165 217 266 319 384
#     4  11  22  41  66  95 131 166 220 270 317 394
#     4  11  24  39  66  98 127 166 218 273 319 381
#     4  10  23  41  64  93 128 179 209 261 327 389
#     4  10  22  44  64  92 131 173 211 264 329 387
#     4   9  22  40  63  94 129 172 208 258 335 379
#
# _framework density 22.632169999999999
#
# number of rings (size 3 to 8) (size 9 to 14) (size 15 to 20)
#    1.000    0.667    1.667    3.000    4.667    3.333 
#    0.000    0.000    0.000    0.000    0.000    0.000 
#    0.000    0.000    0.000    0.000    0.000    0.000 
#
# Total GULP energy -133991.211042 kJ/mol
# GULP energy per Si atom -5582.967127 kJ/mol
# Density = 2.258066 g / cm^3
# Si number density = 22.632170 Si / 1000 Ang^3
#
#
#
# Elastic Constant Matrix: (Units=GPa)
#
#
# Indices 1 2 3 4 5 6 
#
# 1 80.6438 27.8602 10.4156 0.0000 -35.3352 0.0000
# 2 27.8602 66.5281 17.6017 0.0000 -10.5393 0.0000
# 3 10.4156 17.6017 83.3353 0.0000 -21.3715 0.0000
# 4 0.0000 0.0000 0.0000 36.6422 0.0000 -19.2762
# 5 -35.3352 -10.5393 -21.3715 0.0000 30.2868 0.0000
# 6 0.0000 0.0000 0.0000 -19.2762 0.0000 25.5297
#
#
#
# Elastic Compliance Matrix: (Units=1/GPa)
#
#
# Indices 1 2 3 4 5 6 
#
# 1 0.032042 -0.009259 0.008194 0.000000 0.039944 0.000000
# 2 -0.009259 0.018976 -0.004795 0.000000 -0.007583 0.000000
# 3 0.008194 -0.004795 0.017108 0.000000 0.019964 0.000000
# 4 0.000000 0.000000 0.000000 0.045274 0.000000 0.034184
# 5 0.039944 -0.007583 0.019964 0.000000 0.091068 0.000000
# 6 0.000000 0.000000 0.000000 0.034184 0.000000 0.064981
#
#
# Mechanical properties :
#
#
# Convention : Reuss Voigt Hill
#
# Bulk Modulus (GPa) = 17.72818 38.02914 27.87866
# Shear Modulus (GPa) = 16.66825 30.13373 23.40099
#
# Velocity S-wave (km/s) = 2.71677 3.65287 3.21903
# Velocity P-wave (km/s) = 4.20610 5.88480 5.11479
#
# Compressibility (1/GPa) = 0.05640738
#
# Stress axis : x y z
#
# Youngs Moduli (GPa) = 31.20856 52.69782 58.45163
#
# Poissons Ratio (x) = 0.48792 -0.47898
# Poissons Ratio (y) = 0.28895 0.28030
# Poissons Ratio (z) = -0.25574 0.25271
#
# Static dielectric constant tensor:
#      x y z
#    x 1.829500 0.000000 -0.009560 
#    y 0.000000 1.838790 0.000000 
#    z -0.009560 0.000000 1.864750 
# 
# From -- ./inp_files/243912.got.cif
#   From: 2010.05.17/outbox.cif.g08.bks.cpg/sg15_122_cif.got.tgz:243912.got - 2010.06.03 18:47:42.
