data_PCOD9292247
_publ_section_title
;
Structure prediction by ZEFSAII (Michael W. Deem and Ramdas Pophale) SiO2 
 PCOD9292247
Probable space group: C 2/C
;
_chemical_formula_sum "Si O2"
_cell_formula_units_Z 48
_cell_length_a 13.185068
_cell_length_b 19.630544
_cell_length_c 8.781386
_cell_angle_alpha 90.000000
_cell_angle_beta 85.498041
_cell_angle_gamma 90.000000
_cell_volume 2265.873994
_symmetry_space_group_name_H-M "C 2/C"
_symmetry_group_IT_number 15
_symmetry_cell_setting 'monoclinic'
loop_
_space_group_symop_operation_xyz
x,y,z
-x,y,1/2-z
-x,-y,-z
x,-y,1/2+z
1/2+x,1/2+y,z
1/2-x,1/2+y,1/2-z
1/2-x,1/2-y,-z
1/2+x,1/2-y,1/2+z
loop_
_atom_site_type_symbol
_atom_site_label
_atom_site_fract_x
_atom_site_fract_y
_atom_site_fract_z
Si Si1 0.612620 0.311458 0.501440
Si Si2 0.214510 0.581511 0.530650
Si Si3 0.386600 0.187331 0.800053
Si Si4 0.718920 0.555102 0.314045
Si Si5 0.500000 0.772168 0.750000
Si Si6 0.500000 0.406789 0.750000
Si Si7 0.188522 0.320416 0.524665
O O1 0.699999 0.362370 0.435952
O O2 0.657358 0.254515 0.612335
O O3 0.557474 0.273303 0.370222
O O4 0.536404 0.358759 0.607512
O O5 0.114022 0.622347 0.588613
O O6 0.225059 0.568200 0.351758
O O7 0.237479 0.512236 0.614381
O O8 0.500000 0.209546 0.750000
O O9 0.341099 0.164155 0.645441
O O10 0.598628 0.550875 0.290911
O O11 0.740986 0.620721 0.415057
O O12 0.589026 0.811310 0.645120
O O13 0.250000 0.250000 0.500000
#
# Coordination Sequence:
#
# PCOD9292247 Si02
#       7
#     8   8   8   8   4   4   8
#     4  11  21  40  67  99 134 171 228 279 339 393
#     4  11  25  43  65  96 137 182 225 279 340 403
#     4  12  23  44  68  99 134 181 230 277 339 399
#     4  11  25  44  67  99 139 179 229 275 347 402
#     4  12  22  37  66 105 134 176 228 282 348 401
#     4  10  22  43  68  95 134 180 224 288 332 411
#     4  12  24  42  69 101 140 178 233 287 339 409
#
# _framework density 21.183879000000001
#
# number of rings (size 3 to 8) (size 9 to 14) (size 15 to 20)
#    0.000    0.667    2.500    6.500    0.000    4.667 
#    1.500    1.667    0.000    0.000    0.000    0.000 
#    0.000    0.000    0.000    0.000    0.000    0.000 
#
# Total GULP energy -134194.622041 kJ/mol
# GULP energy per Si atom -5591.442585 kJ/mol
# Density = 2.113566 g / cm^3
# Si number density = 21.183879 Si / 1000 Ang^3
#
#
#
# Elastic Constant Matrix: (Units=GPa)
#
#
# Indices 1 2 3 4 5 6 
#
# 1 42.4438 12.2493 5.6431 0.0000 -13.8767 0.0000
# 2 12.2493 99.8694 -3.0911 0.0000 -3.8976 0.0000
# 3 5.6431 -3.0911 71.6391 0.0000 -2.2795 0.0000
# 4 0.0000 0.0000 0.0000 24.0415 0.0000 -0.1014
# 5 -13.8767 -3.8976 -2.2795 0.0000 38.4105 0.0000
# 6 0.0000 0.0000 0.0000 -0.1014 0.0000 33.6806
#
#
#
# Elastic Compliance Matrix: (Units=1/GPa)
#
#
# Indices 1 2 3 4 5 6 
#
# 1 0.027876 -0.003106 -0.002023 0.000000 0.009636 0.000000
# 2 -0.003106 0.010415 0.000693 0.000000 -0.000024 0.000000
# 3 -0.002023 0.000693 0.014154 0.000000 0.000179 0.000000
# 4 0.000000 0.000000 0.000000 0.041595 0.000000 0.000125
# 5 0.009636 -0.000024 0.000179 0.000000 0.029524 0.000000
# 6 0.000000 0.000000 0.000000 0.000125 0.000000 0.029691
#
#
# Mechanical properties :
#
#
# Convention : Reuss Voigt Hill
#
# Bulk Modulus (GPa) = 22.94986 27.06163 25.00574
# Shear Modulus (GPa) = 28.30446 32.50325 30.40385
#
# Velocity S-wave (km/s) = 3.65928 3.92131 3.79256
# Velocity P-wave (km/s) = 5.35826 5.77102 5.56846
#
# Compressibility (1/GPa) = 0.04357326
#
# Stress axis : x y z
#
# Youngs Moduli (GPa) = 35.87283 96.01977 70.65213
#
# Poissons Ratio (x) = 0.29821 0.14295
# Poissons Ratio (y) = 0.11141 -0.04898
# Poissons Ratio (z) = 0.07258 -0.06657
#
# Static dielectric constant tensor:
#      x y z
#    x 0.848160 0.000000 0.967630 
#    y 0.000000 1.714570 0.000000 
#    z 0.967630 0.000000 0.758270 
# 
# From -- ./inp_files/39685.got.cif
#   From: 2010.05.17/outbox.cif.g08.bks.cpg/sg15_20_cif.got.tgz:39685.got - 2010.06.03 18:47:42.
