data_PCOD9292022
_publ_section_title
;
Structure prediction by ZEFSAII (Michael W. Deem and Ramdas Pophale) SiO2 
 PCOD9292022
Probable space group: C 2/C
;
_chemical_formula_sum "Si O2"
_cell_formula_units_Z 52
_cell_length_a 7.944245
_cell_length_b 27.811557
_cell_length_c 12.172091
_cell_angle_alpha 90.000000
_cell_angle_beta 83.320566
_cell_angle_gamma 90.000000
_cell_volume 2671.070087
_symmetry_space_group_name_H-M "C 2/C"
_symmetry_group_IT_number 15
_symmetry_cell_setting 'monoclinic'
loop_
_space_group_symop_operation_xyz
x,y,z
-x,y,1/2-z
-x,-y,-z
x,-y,1/2+z
1/2+x,1/2+y,z
1/2-x,1/2+y,1/2-z
1/2-x,1/2-y,-z
1/2+x,1/2-y,1/2+z
loop_
_atom_site_type_symbol
_atom_site_label
_atom_site_fract_x
_atom_site_fract_y
_atom_site_fract_z
Si Si1 0.000000 0.077703 0.250000
Si Si2 0.929295 0.429023 0.049058
Si Si3 0.401754 0.780760 0.935863
Si Si4 0.859944 0.529418 0.163368
Si Si5 0.819350 0.133461 0.071170
Si Si6 0.544406 0.682972 0.867684
Si Si7 0.433793 0.832132 0.370122
O O1 0.829864 0.046785 0.291104
O O2 0.939192 0.111796 0.154944
O O3 0.781509 0.409198 0.981370
O O4 0.077089 0.443991 0.952477
O O5 0.870407 0.473521 0.127651
O O6 0.991567 0.385228 0.118952
O O7 0.316588 0.825840 0.878533
O O8 0.516955 0.740689 0.869929
O O9 0.250000 0.750000 0.000000
O O10 0.502399 0.803073 0.029936
O O11 0.000000 0.538121 0.250000
O O12 0.925390 0.159543 0.968001
O O13 0.500000 0.664798 0.750000
O O14 0.733792 0.669073 0.881270
O O15 0.500000 0.811337 0.250000
#
# Coordination Sequence:
#
# PCOD9292022 Si02
#       7
#     4   8   8   8   8   8   8
#     4  12  24  44  68 102 132 176 230 270 342 396
#     4  10  22  43  65  92 131 174 217 271 334 391
#     4   9  20  40  59  89 125 161 212 264 323 381
#     4  11  23  43  66  95 135 169 218 280 333 396
#     4  10  22  43  65  94 130 171 218 272 329 402
#     4  11  22  41  62  97 128 168 219 266 324 400
#     4  11  21  39  64  89 127 171 214 267 329 395
#
# _framework density 19.467853000000002
#
# number of rings (size 3 to 8) (size 9 to 14) (size 15 to 20)
#    0.000    1.538    1.538    4.615    0.000    0.615 
#   26.308    0.000    0.000    0.000    0.000    0.000 
#    0.000    0.000    0.000    0.000    0.000    0.000 
#
# Total GULP energy -145106.406320 kJ/mol
# GULP energy per Si atom -5581.015628 kJ/mol
# Density = 1.942354 g / cm^3
# Si number density = 19.467853 Si / 1000 Ang^3
#
#
#
# Elastic Constant Matrix: (Units=GPa)
#
#
# Indices 1 2 3 4 5 6 
#
# 1 125.2707 37.0597 52.1249 0.0000 24.1499 0.0000
# 2 37.0597 58.6281 51.2962 0.0000 14.3879 0.0000
# 3 52.1249 51.2962 97.1383 0.0000 11.5430 0.0000
# 4 0.0000 0.0000 0.0000 181.0654 0.0000 -202.7173
# 5 24.1499 14.3879 11.5430 0.0000 32.8154 0.0000
# 6 0.0000 0.0000 0.0000 -202.7173 0.0000 340.3365
#
#
#
# Elastic Compliance Matrix: (Units=1/GPa)
#
#
# Indices 1 2 3 4 5 6 
#
# 1 0.011593 -0.001895 -0.004493 0.000000 -0.006120 0.000000
# 2 -0.001895 0.034378 -0.016188 0.000000 -0.007984 0.000000
# 3 -0.004493 -0.016188 0.020891 0.000000 0.003056 0.000000
# 4 0.000000 0.000000 0.000000 0.016578 0.000000 0.009875
# 5 -0.006120 -0.007984 0.003056 0.000000 0.037403 0.000000
# 6 0.000000 0.000000 0.000000 0.009875 0.000000 0.008820
#
#
# Mechanical properties :
#
#
# Convention : Reuss Voigt Hill
#
# Bulk Modulus (GPa) = 46.06356 62.44430 54.25393
# Shear Modulus (GPa) = 27.46470 120.21388 73.83929
#
# Velocity S-wave (km/s) = 3.76010 7.86664 6.16532
# Velocity P-wave (km/s) = 6.52410 10.70781 8.86626
#
# Compressibility (1/GPa) = 0.02170913
#
# Stress axis : x y z
#
# Youngs Moduli (GPa) = 86.26210 29.08845 47.86760
#
# Poissons Ratio (x) = 0.05513 0.21505
# Poissons Ratio (y) = 0.16348 0.77490
# Poissons Ratio (z) = 0.38754 0.47090
#
# Static dielectric constant tensor:
#      x y z
#    x 1.577140 0.000000 0.066790 
#    y 0.000000 1.709830 0.000000 
#    z 0.066790 0.000000 1.590380 
# 
# From -- ./inp_files/80735.got.cif
#   From: 2010.05.17/outbox.cif.g08.bks.cpg/sg15_41_cif.got.tgz:80735.got - 2010.06.03 18:47:42.
