data_PCOD9292161
_publ_section_title
;
Structure prediction by ZEFSAII (Michael W. Deem and Ramdas Pophale) SiO2 
 PCOD9292161
Probable space group: C 2/C
;
_chemical_formula_sum "Si O2"
_cell_formula_units_Z 56
_cell_length_a 18.887038
_cell_length_b 21.865482
_cell_length_c 9.414003
_cell_angle_alpha 90.000000
_cell_angle_beta 131.117640
_cell_angle_gamma 90.000000
_cell_volume 2928.871758
_symmetry_space_group_name_H-M "C 2/C"
_symmetry_group_IT_number 15
_symmetry_cell_setting 'monoclinic'
loop_
_space_group_symop_operation_xyz
x,y,z
-x,y,1/2-z
-x,-y,-z
x,-y,1/2+z
1/2+x,1/2+y,z
1/2-x,1/2+y,1/2-z
1/2-x,1/2-y,-z
1/2+x,1/2-y,1/2+z
loop_
_atom_site_type_symbol
_atom_site_label
_atom_site_fract_x
_atom_site_fract_y
_atom_site_fract_z
Si Si1 0.551906 0.449900 0.467767
Si Si2 0.141198 0.750907 0.902426
Si Si3 0.000000 0.641564 0.250000
Si Si4 0.521510 0.183857 0.973811
Si Si5 0.730920 0.490823 0.069502
Si Si6 0.352220 0.963327 0.493673
Si Si7 0.000000 0.568893 0.750000
Si Si8 0.091282 0.111670 0.287047
O O1 0.500000 0.439371 0.250000
O O2 0.500000 0.500000 0.500000
O O3 0.653480 0.475636 0.561952
O O4 0.565378 0.391361 0.586905
O O5 0.108375 0.714717 0.001893
O O6 0.113221 0.821695 0.874676
O O7 0.072057 0.720681 0.694637
O O8 0.250000 0.750000 0.000000
O O9 0.968993 0.679942 0.345830
O O10 0.915582 0.596285 0.093954
O O11 0.505639 0.115438 0.890132
O O12 0.813222 0.470626 0.284111
O O13 0.768090 0.535314 0.996017
O O14 0.678589 0.432930 0.931174
O O15 0.412722 0.023163 0.616628
O O16 0.000000 0.087525 0.250000
#
# Coordination Sequence:
#
# PCOD9292161 Si02
#       8
#     8   8   4   8   8   8   4   8
#     4  12  21  38  58  90 130 168 196 250 315 379
#     4  10  24  44  68  91 114 166 231 267 314 382
#     4  11  24  42  64  90 140 160 199 278 336 372
#     4  10  22  43  67  91 123 169 216 268 327 371
#     4  12  22  34  60  92 129 163 210 242 305 390
#     4  11  23  36  59  99 127 166 205 249 321 390
#     4   9  20  40  62  86 128 168 203 254 314 382
#     4  12  23  41  64  86 128 167 207 263 313 373
#
# _framework density 19.119990999999999
#
# number of rings (size 3 to 8) (size 9 to 14) (size 15 to 20)
#    0.000    1.143    5.714    1.714    6.000    3.429 
#    1.286    0.714    0.000    0.000    0.000    0.000 
#    0.000    0.000    0.000    0.000    0.000    0.000 
#
# Total GULP energy -156314.670105 kJ/mol
# GULP energy per Si atom -5582.666789 kJ/mol
# Density = 1.907647 g / cm^3
# Si number density = 19.119991 Si / 1000 Ang^3
#
#
#
# Elastic Constant Matrix: (Units=GPa)
#
#
# Indices 1 2 3 4 5 6 
#
# 1 110.9672 37.7943 55.3365 0.0000 -6.0231 0.0000
# 2 37.7943 60.9381 18.0394 0.0000 -5.8703 0.0000
# 3 55.3365 18.0394 109.8379 0.0000 -23.0494 0.0000
# 4 0.0000 0.0000 0.0000 6.4669 0.0000 8.4862
# 5 -6.0231 -5.8703 -23.0494 0.0000 42.9352 0.0000
# 6 0.0000 0.0000 0.0000 8.4862 0.0000 5.2156
#
#
#
# Elastic Compliance Matrix: (Units=1/GPa)
#
#
# Indices 1 2 3 4 5 6 
#
# 1 0.014766 -0.007404 -0.006763 0.000000 -0.002571 0.000000
# 2 -0.007404 0.020995 0.000751 0.000000 0.002235 0.000000
# 3 -0.006763 0.000751 0.013761 0.000000 0.006541 0.000000
# 4 0.000000 0.000000 0.000000 -0.136225 0.000000 0.221649
# 5 -0.002571 0.002235 0.006541 0.000000 0.026747 0.000000
# 6 0.000000 0.000000 0.000000 0.221649 0.000000 -0.168908
#
#
# Mechanical properties :
#
#
# Convention : Reuss Voigt Hill
#
# Bulk Modulus (GPa) = 44.07128 56.00929 50.04028
# Shear Modulus (GPa) = -25.71109 22.29507 -1.70801
#
# Velocity S-wave (km/s) = -3.67102 3.41847 -0.94618
# Velocity P-wave (km/s) = 2.26524 6.70361 5.00348
#
# Compressibility (1/GPa) = 0.02269052
#
# Stress axis : x y z
#
# Youngs Moduli (GPa) = 67.72205 47.63032 72.67001
#
# Poissons Ratio (x) = 0.35265 0.49146
# Poissons Ratio (y) = 0.50140 -0.05457
# Poissons Ratio (z) = 0.45800 -0.03577
#
# Static dielectric constant tensor:
#      x y z
#    x 1.705950 0.000000 0.004540 
#    y 0.000000 1.656200 0.000000 
#    z 0.004540 0.000000 1.682140 
# 
# From -- ./inp_files/51607.got.cif
#   From: 2010.05.17/outbox.cif.g08.bks.cpg/sg15_26_cif.got.tgz:51607.got - 2010.06.03 18:47:42.
