data_PCOD9292755
_publ_section_title
;
Structure prediction by ZEFSAII (Michael W. Deem and Ramdas Pophale) SiO2 
 PCOD9292755
Probable space group: C 2/C
;
_chemical_formula_sum "Si O2"
_cell_formula_units_Z 44
_cell_length_a 7.960453
_cell_length_b 12.452860
_cell_length_c 18.824370
_cell_angle_alpha 90.000000
_cell_angle_beta 66.482008
_cell_angle_gamma 90.000000
_cell_volume 1711.062215
_symmetry_space_group_name_H-M "C 2/C"
_symmetry_group_IT_number 15
_symmetry_cell_setting 'monoclinic'
loop_
_space_group_symop_operation_xyz
x,y,z
-x,y,1/2-z
-x,-y,-z
x,-y,1/2+z
1/2+x,1/2+y,z
1/2-x,1/2+y,1/2-z
1/2-x,1/2-y,-z
1/2+x,1/2-y,1/2+z
loop_
_atom_site_type_symbol
_atom_site_label
_atom_site_fract_x
_atom_site_fract_y
_atom_site_fract_z
Si Si1 0.373049 0.911144 0.960298
Si Si2 0.173940 0.368145 0.024515
Si Si3 0.500000 0.604660 0.750000
Si Si4 0.764536 0.283382 0.851958
Si Si5 0.204395 0.579757 0.293940
Si Si6 0.096241 0.715096 0.667831
O O1 0.260360 0.829828 0.931374
O O2 0.531349 0.944134 0.874455
O O3 0.255365 0.013020 0.006761
O O4 0.487154 0.871607 0.008862
O O5 0.205552 0.369690 0.104479
O O6 0.250000 0.250000 0.000000
O O7 0.415518 0.688092 0.821758
O O8 0.667138 0.523885 0.736353
O O9 0.814632 0.369745 0.781533
O O10 0.567059 0.245865 0.858040
O O11 0.305119 0.678076 0.320472
O O12 0.000000 0.660649 0.750000
#
# Coordination Sequence:
#
# PCOD9292755 Si02
#       6
#     8   8   4   8   8   8
#     4  11  24  42  66  98 136 177 234 278 336 409
#     4  11  24  44  70  92 136 189 224 276 345 407
#     4  12  22  38  70 100 142 174 230 284 332 402
#     4  11  23  40  66 106 134 173 231 280 337 399
#     4  11  21  42  66  98 139 179 221 283 340 402
#     4  10  22  44  67  96 135 177 228 274 347 405
#
# _framework density 25.715019999999999
#
# number of rings (size 3 to 8) (size 9 to 14) (size 15 to 20)
#    0.000    1.091    6.364    1.091    0.000    6.545 
#    0.000    0.909    0.000    0.000    0.000    0.000 
#    0.000    0.000    0.000    0.000    0.000    0.000 
#
# Total GULP energy -122640.396520 kJ/mol
# GULP energy per Si atom -5574.563478 kJ/mol
# Density = 2.565649 g / cm^3
# Si number density = 25.715020 Si / 1000 Ang^3
#
#
#
# Elastic Constant Matrix: (Units=GPa)
#
#
# Indices 1 2 3 4 5 6 
#
# 1 47.7799 22.7705 2.2590 0.0000 17.8521 0.0000
# 2 22.7705 135.2804 33.8034 0.0000 21.4715 0.0000
# 3 2.2590 33.8034 97.4179 0.0000 35.0232 0.0000
# 4 0.0000 0.0000 0.0000 32.9229 0.0000 -7.6924
# 5 17.8521 21.4715 35.0232 0.0000 47.5831 0.0000
# 6 0.0000 0.0000 0.0000 -7.6924 0.0000 49.0949
#
#
#
# Elastic Compliance Matrix: (Units=1/GPa)
#
#
# Indices 1 2 3 4 5 6 
#
# 1 0.027089 -0.003904 0.005095 0.000000 -0.012152 0.000000
# 2 -0.003904 0.008822 -0.002810 0.000000 -0.000448 0.000000
# 3 0.005095 -0.002810 0.015439 0.000000 -0.012007 0.000000
# 4 0.000000 0.000000 0.000000 0.031528 0.000000 0.004940
# 5 -0.012152 -0.000448 -0.012007 0.000000 0.034615 0.000000
# 6 0.000000 0.000000 0.000000 0.004940 0.000000 0.021143
#
#
# Mechanical properties :
#
#
# Convention : Reuss Voigt Hill
#
# Bulk Modulus (GPa) = 20.78414 44.23824 32.51119
# Shear Modulus (GPa) = 31.66333 40.69653 36.17993
#
# Velocity S-wave (km/s) = 3.51282 3.98250 3.75501
# Velocity P-wave (km/s) = 4.95512 6.19578 5.60986
#
# Compressibility (1/GPa) = 0.04811362
#
# Stress axis : x y z
#
# Youngs Moduli (GPa) = 36.91487 113.34762 64.77247
#
# Poissons Ratio (x) = 0.44253 -0.33004
# Poissons Ratio (y) = 0.14412 0.18199
# Poissons Ratio (z) = -0.18810 0.31846
#
# Static dielectric constant tensor:
#      x y z
#    x 2.105370 0.000000 -0.185210 
#    y 0.000000 2.141300 0.000000 
#    z -0.185210 0.000000 2.321160 
# 
# From -- ./inp_files/230185.got.cif
#   From: 2010.05.17/outbox.cif.g08.bks.cpg/sg15_116_cif.got.tgz:230185.got - 2010.06.03 18:47:42.
