data_PCOD9292214
_publ_section_title
;
Structure prediction by ZEFSAII (Michael W. Deem and Ramdas Pophale) SiO2 
 PCOD9292214
Probable space group: C 2/C
;
_chemical_formula_sum "Si O2"
_cell_formula_units_Z 48
_cell_length_a 28.905465
_cell_length_b 18.086120
_cell_length_c 9.204880
_cell_angle_alpha 90.000000
_cell_angle_beta 150.316582
_cell_angle_gamma 90.000000
_cell_volume 2383.035431
_symmetry_space_group_name_H-M "C 2/C"
_symmetry_group_IT_number 15
_symmetry_cell_setting 'monoclinic'
loop_
_space_group_symop_operation_xyz
x,y,z
-x,y,1/2-z
-x,-y,-z
x,-y,1/2+z
1/2+x,1/2+y,z
1/2-x,1/2+y,1/2-z
1/2-x,1/2-y,-z
1/2+x,1/2-y,1/2+z
loop_
_atom_site_type_symbol
_atom_site_label
_atom_site_fract_x
_atom_site_fract_y
_atom_site_fract_z
Si Si1 0.877003 0.923118 0.676412
Si Si2 0.370832 0.304261 0.154519
Si Si3 0.209897 0.644976 0.572738
Si Si4 0.500000 0.344559 0.250000
Si Si5 0.251314 0.935658 0.623487
Si Si6 0.500000 0.381179 0.750000
Si Si7 0.569117 0.030485 0.308004
O O1 0.798589 0.862292 0.420400
O O2 0.942300 0.928125 0.711294
O O3 0.823329 0.998350 0.566390
O O4 0.935507 0.895178 0.972010
O O5 0.437802 0.299473 0.196599
O O6 0.431247 0.332013 0.459567
O O7 0.319745 0.227475 0.046077
O O8 0.293228 0.367214 0.911558
O O9 0.235725 0.595973 0.502754
O O10 0.123054 0.603731 0.408495
O O11 0.350000 0.969827 0.940716
O O12 0.500000 0.045551 0.250000
O O13 0.500000 0.000000 0.000000
#
# Coordination Sequence:
#
# PCOD9292214 Si02
#       7
#     8   8   8   4   8   4   8
#     4  10  24  43  67  98 133 170 220 265 324 390
#     4  11  25  42  68  97 139 170 214 267 335 394
#     4  11  24  45  67  96 133 172 220 269 334 384
#     4  10  26  43  64 104 129 172 214 268 329 386
#     4  11  24  41  69  96 130 173 214 270 331 377
#     4  10  22  43  68 100 131 174 218 262 321 398
#     4  11  24  44  67  95 125 172 226 275 315 384
#
# _framework density 20.142377
#
# number of rings (size 3 to 8) (size 9 to 14) (size 15 to 20)
#    0.000    1.333    3.333    0.500    5.833    6.000 
#    3.000    0.000    0.000    0.000    0.000    0.000 
#    0.000    0.000    0.000    0.000    0.000    0.000 
#
# Total GULP energy -134134.795883 kJ/mol
# GULP energy per Si atom -5588.949828 kJ/mol
# Density = 2.009653 g / cm^3
# Si number density = 20.142377 Si / 1000 Ang^3
#
#
#
# Elastic Constant Matrix: (Units=GPa)
#
#
# Indices 1 2 3 4 5 6 
#
# 1 156.9802 52.8324 48.6044 0.0000 4.6376 0.0000
# 2 52.8324 118.5338 61.4245 0.0000 11.7021 0.0000
# 3 48.6044 61.4245 131.2920 0.0000 6.9225 0.0000
# 4 0.0000 0.0000 0.0000 23.3884 0.0000 8.9437
# 5 4.6376 11.7021 6.9225 0.0000 33.1184 0.0000
# 6 0.0000 0.0000 0.0000 8.9437 0.0000 30.7473
#
#
#
# Elastic Compliance Matrix: (Units=1/GPa)
#
#
# Indices 1 2 3 4 5 6 
#
# 1 0.007759 -0.002618 -0.001657 0.000000 0.000185 0.000000
# 2 -0.002618 0.012297 -0.004625 0.000000 -0.003012 0.000000
# 3 -0.001657 -0.004625 0.010411 0.000000 -0.000310 0.000000
# 4 0.000000 0.000000 0.000000 0.048107 0.000000 -0.013993
# 5 0.000185 -0.003012 -0.000310 0.000000 0.031298 0.000000
# 6 0.000000 0.000000 0.000000 -0.013993 0.000000 0.036594
#
#
# Mechanical properties :
#
#
# Convention : Reuss Voigt Hill
#
# Bulk Modulus (GPa) = 78.95292 81.39207 80.17249
# Shear Modulus (GPa) = 29.67564 33.71380 31.69472
#
# Velocity S-wave (km/s) = 3.84252 4.09562 3.97108
# Velocity P-wave (km/s) = 7.67913 7.92853 7.80483
#
# Compressibility (1/GPa) = 0.01266578
#
# Stress axis : x y z
#
# Youngs Moduli (GPa) = 128.88377 81.31808 96.05672
#
# Poissons Ratio (x) = 0.21286 0.15921
# Poissons Ratio (y) = 0.33737 0.44430
# Poissons Ratio (z) = 0.21362 0.37613
#
# Static dielectric constant tensor:
#      x y z
#    x 1.694690 0.000000 -0.006490 
#    y 0.000000 1.671720 0.000000 
#    z -0.006490 0.000000 1.698430 
# 
# From -- ./inp_files/70654.got.cif
#   From: 2010.05.17/outbox.cif.g08.bks.cpg/sg15_36_cif.got.tgz:70654.got - 2010.06.03 18:47:42.
