data_PCOD9292718
_publ_section_title
;
Structure prediction by ZEFSAII (Michael W. Deem and Ramdas Pophale) SiO2 
 PCOD9292718
Probable space group: C 2/C
;
_chemical_formula_sum "Si O2"
_cell_formula_units_Z 36
_cell_length_a 8.654820
_cell_length_b 19.570941
_cell_length_c 14.446075
_cell_angle_alpha 90.000000
_cell_angle_beta 41.295007
_cell_angle_gamma 90.000000
_cell_volume 1614.810493
_symmetry_space_group_name_H-M "C 2/C"
_symmetry_group_IT_number 15
_symmetry_cell_setting 'monoclinic'
loop_
_space_group_symop_operation_xyz
x,y,z
-x,y,1/2-z
-x,-y,-z
x,-y,1/2+z
1/2+x,1/2+y,z
1/2-x,1/2+y,1/2-z
1/2-x,1/2-y,-z
1/2+x,1/2-y,1/2+z
loop_
_atom_site_type_symbol
_atom_site_label
_atom_site_fract_x
_atom_site_fract_y
_atom_site_fract_z
Si Si1 0.500000 0.126866 0.750000
Si Si2 0.638002 0.040438 0.857616
Si Si3 0.198315 0.590626 0.238284
Si Si4 0.161866 0.664443 0.965276
Si Si5 0.499625 0.309122 0.016415
O O1 0.488496 0.076980 0.844334
O O2 0.270573 0.173771 0.849880
O O3 0.745694 0.104870 0.860584
O O4 0.786085 0.981069 0.740840
O O5 0.500000 0.000000 0.000000
O O6 0.000000 0.575352 0.250000
O O7 0.059430 0.634744 0.377389
O O8 0.393570 0.636365 0.102859
O O9 0.363733 0.681456 0.947903
O O10 0.071323 0.732482 0.955325
#
# Coordination Sequence:
#
# PCOD9292718 Si02
#       5
#     4   8   8   8   8
#     4  12  26  42  66 102 144 174 224 286 344 400
#     4  10  22  44  66  98 136 177 228 280 341 404
#     4   9  18  41  67  91 132 175 225 277 335 400
#     4   9  21  43  70  97 129 178 232 276 342 413
#     4  10  23  42  69 100 136 179 225 284 339 408
#
# _framework density 22.293635999999999
#
# number of rings (size 3 to 8) (size 9 to 14) (size 15 to 20)
#    0.000    2.222    1.111    0.000    3.111    2.667 
#    4.000    2.222    0.000    0.000    0.000    0.000 
#    0.000    0.000    0.000    0.000    0.000    0.000 
#
# Total GULP energy -100548.497978 kJ/mol
# GULP energy per Si atom -5586.027665 kJ/mol
# Density = 2.224289 g / cm^3
# Si number density = 22.293636 Si / 1000 Ang^3
#
#
#
# Elastic Constant Matrix: (Units=GPa)
#
#
# Indices 1 2 3 4 5 6 
#
# 1 66.0225 61.1060 58.2778 -0.0002 -3.4395 0.0002
# 2 61.1060 208.7611 72.6814 0.0000 -5.3053 0.0000
# 3 58.2778 72.6814 102.0263 -0.0008 -15.8284 0.0009
# 4 -0.0002 0.0000 -0.0008 14.2103 0.0004 22.6733
# 5 -3.4395 -5.3053 -15.8284 0.0004 35.2921 -0.0004
# 6 0.0002 0.0000 0.0009 22.6733 -0.0004 34.0270
#
#
#
# Elastic Compliance Matrix: (Units=1/GPa)
#
#
# Indices 1 2 3 4 5 6 
#
# 1 0.033823 -0.004029 -0.017231 0.000012 -0.005037 -0.000008
# 2 -0.004029 0.006894 -0.002698 0.000005 -0.000566 -0.000003
# 3 -0.017231 -0.002698 0.022831 -0.000024 0.008155 0.000015
# 4 0.000012 0.000005 -0.000024 -1.114052 0.000012 0.742327
# 5 -0.005037 -0.000566 0.008155 0.000012 0.031416 -0.000008
# 6 -0.000008 -0.000003 0.000015 0.742327 -0.000008 -0.465247
#
#
# Mechanical properties :
#
#
# Convention : Reuss Voigt Hill
#
# Bulk Modulus (GPa) = 63.97074 84.54892 74.25983
# Shear Modulus (GPa) = -3.49355 29.02218 12.76432
#
# Velocity S-wave (km/s) = -1.25318 3.61198 2.39541
# Velocity P-wave (km/s) = 5.16362 7.44330 6.40569
#
# Compressibility (1/GPa) = 0.01563215
#
# Stress axis : x y z
#
# Youngs Moduli (GPa) = 29.56597 145.04540 43.80068
#
# Poissons Ratio (x) = 0.58441 0.75472
# Poissons Ratio (y) = 0.11913 0.11817
# Poissons Ratio (z) = 0.50945 0.39130
#
# Static dielectric constant tensor:
#      x y z
#    x 1.842520 0.000000 0.040610 
#    y 0.000000 1.818590 0.000000 
#    z 0.040610 0.000000 1.803230 
# 
# From -- ./inp_files/114342.got.cif
#   From: 2010.05.17/outbox.cif.g08.bks.cpg/sg15_58_cif.got.tgz:114342.got - 2010.06.03 18:47:42.
