data_PCOD9292468
_publ_section_title
;
Structure prediction by ZEFSAII (Michael W. Deem and Ramdas Pophale) SiO2 
 PCOD9292468
Probable space group: C 2/C
;
_chemical_formula_sum "Si O2"
_cell_formula_units_Z 60
_cell_length_a 9.708518
_cell_length_b 17.996806
_cell_length_c 17.856982
_cell_angle_alpha 90.000000
_cell_angle_beta 122.143088
_cell_angle_gamma 90.000000
_cell_volume 2641.784019
_symmetry_space_group_name_H-M "C 2/C"
_symmetry_group_IT_number 15
_symmetry_cell_setting 'monoclinic'
loop_
_space_group_symop_operation_xyz
x,y,z
-x,y,1/2-z
-x,-y,-z
x,-y,1/2+z
1/2+x,1/2+y,z
1/2-x,1/2+y,1/2-z
1/2-x,1/2-y,-z
1/2+x,1/2-y,1/2+z
loop_
_atom_site_type_symbol
_atom_site_label
_atom_site_fract_x
_atom_site_fract_y
_atom_site_fract_z
Si Si1 0.145060 0.716414 0.138658
Si Si2 0.002335 0.067243 0.558215
Si Si3 0.663944 0.650604 0.114993
Si Si4 0.674408 0.431663 0.762665
Si Si5 0.346789 0.854721 0.154438
Si Si6 0.466587 0.807236 0.430961
Si Si7 0.500000 0.782422 0.750000
Si Si8 0.166382 0.082128 0.836398
O O1 0.208625 0.634654 0.178128
O O2 0.289828 0.771654 0.158872
O O3 0.069011 0.751464 0.192535
O O4 0.031458 0.706018 0.033451
O O5 0.187602 0.095052 0.622001
O O6 0.905542 0.131786 0.485811
O O7 0.899313 0.052993 0.602974
O O8 0.000000 0.000000 0.500000
O O9 0.645303 0.582393 0.166635
O O10 0.572311 0.725758 0.114338
O O11 0.853002 0.669697 0.172920
O O12 0.500000 0.421222 0.750000
O O13 0.730955 0.512733 0.805823
O O14 0.500000 0.876516 0.250000
O O15 0.404979 0.849661 0.084967
O O16 0.300866 0.854733 0.383152
O O17 0.000000 0.109392 0.750000
#
# Coordination Sequence:
#
# PCOD9292468 Si02
#       8
#     8   8   8   8   8   8   4   8
#     4  11  23  43  74 106 143 189 242 306 364 435
#     4  12  27  47  72 102 149 193 244 300 371 433
#     4  11  24  45  70 104 143 191 238 303 365 434
#     4  10  22  43  72  95 140 188 240 287 372 436
#     4  12  26  46  70 109 144 191 245 310 362 436
#     4  12  26  43  76 109 144 188 252 306 364 433
#     4  10  24  42  68 108 144 188 236 296 370 436
#     4  11  26  46  72 103 144 196 245 302 364 439
#
# _framework density 22.711922999999999
#
# number of rings (size 3 to 8) (size 9 to 14) (size 15 to 20)
#    0.000    0.800    1.333    6.400    6.533    1.600 
#    6.000    0.000    0.000    0.000    0.000    0.000 
#    0.000    0.000    0.000    0.000    0.000    0.000 
#
# Total GULP energy -167795.074326 kJ/mol
# GULP energy per Si atom -5593.169144 kJ/mol
# Density = 2.266023 g / cm^3
# Si number density = 22.711923 Si / 1000 Ang^3
#
#
#
# Elastic Constant Matrix: (Units=GPa)
#
#
# Indices 1 2 3 4 5 6 
#
# 1 87.7313 17.4926 40.0882 0.0000 -14.9712 0.0000
# 2 17.4926 96.4906 43.3921 0.0000 -5.5067 0.0000
# 3 40.0882 43.3921 146.8542 0.0000 -3.9091 0.0000
# 4 0.0000 0.0000 0.0000 36.4124 0.0000 -5.0199
# 5 -14.9712 -5.5067 -3.9091 0.0000 43.2662 0.0000
# 6 0.0000 0.0000 0.0000 -5.0199 0.0000 22.2751
#
#
#
# Elastic Compliance Matrix: (Units=1/GPa)
#
#
# Indices 1 2 3 4 5 6 
#
# 1 0.013871 -0.000708 -0.003460 0.000000 0.004397 0.000000
# 2 -0.000708 0.012051 -0.003341 0.000000 0.000987 0.000000
# 3 -0.003460 -0.003341 0.008719 0.000000 -0.000835 0.000000
# 4 0.000000 0.000000 0.000000 0.028344 0.000000 0.006388
# 5 0.004397 0.000987 -0.000835 0.000000 0.024684 0.000000
# 6 0.000000 0.000000 0.000000 0.006388 0.000000 0.046333
#
#
# Mechanical properties :
#
#
# Convention : Reuss Voigt Hill
#
# Bulk Modulus (GPa) = 50.96187 59.22466 55.09327
# Shear Modulus (GPa) = 32.14162 35.73096 33.93629
#
# Velocity S-wave (km/s) = 3.76598 3.97069 3.86969
# Velocity P-wave (km/s) = 6.43407 6.86695 6.65403
#
# Compressibility (1/GPa) = 0.01962251
#
# Stress axis : x y z
#
# Youngs Moduli (GPa) = 72.09243 82.98119 114.68995
#
# Poissons Ratio (x) = 0.05872 0.39687
# Poissons Ratio (y) = 0.05101 0.38322
# Poissons Ratio (z) = 0.24947 0.27727
#
# Static dielectric constant tensor:
#      x y z
#    x 1.811230 0.000000 -0.023950 
#    y 0.000000 1.870530 0.000000 
#    z -0.023950 0.000000 1.855580 
# 
# From -- ./inp_files/192557.got.cif
#   From: 2010.05.17/outbox.cif.g08.bks.cpg/sg15_97_cif.got.tgz:192557.got - 2010.06.03 18:47:42.
