data_PCOD9292596
_publ_section_title
;
Structure prediction by ZEFSAII (Michael W. Deem and Ramdas Pophale) SiO2 
 PCOD9292596
Probable space group: C 2/C
;
_chemical_formula_sum "Si O2"
_cell_formula_units_Z 28
_cell_length_a 5.511916
_cell_length_b 13.579141
_cell_length_c 15.346670
_cell_angle_alpha 90.000000
_cell_angle_beta 99.736944
_cell_angle_gamma 90.000000
_cell_volume 1132.106720
_symmetry_space_group_name_H-M "C 2/C"
_symmetry_group_IT_number 15
_symmetry_cell_setting 'monoclinic'
loop_
_space_group_symop_operation_xyz
x,y,z
-x,y,1/2-z
-x,-y,-z
x,-y,1/2+z
1/2+x,1/2+y,z
1/2-x,1/2+y,1/2-z
1/2-x,1/2-y,-z
1/2+x,1/2-y,1/2+z
loop_
_atom_site_type_symbol
_atom_site_label
_atom_site_fract_x
_atom_site_fract_y
_atom_site_fract_z
Si Si1 0.237615 0.594541 0.714377
Si Si2 0.500000 0.600126 0.250000
Si Si3 0.692171 0.651878 0.440987
Si Si4 0.722890 0.131533 0.509288
O O1 0.500000 0.646717 0.750000
O O2 0.284632 0.481840 0.749982
O O3 0.210955 0.603253 0.609509
O O4 0.000000 0.631757 0.750000
O O5 0.577035 0.662243 0.338322
O O6 0.750000 0.750000 0.500000
O O7 0.474468 0.597529 0.479344
O O8 0.961392 0.602803 0.451391
O O9 0.750000 0.250000 0.500000
#
# Coordination Sequence:
#
# PCOD9292596 Si02
#       4
#     8   4   8   8
#     4  10  23  42  66  99 133 179 222 273 335 399
#     4  10  26  42  68  98 140 172 232 270 342 400
#     4  10  23  43  66  98 132 177 219 283 333 397
#     4  10  22  44  64  96 135 170 225 277 332 392
#
# _framework density 24.732651000000001
#
# number of rings (size 3 to 8) (size 9 to 14) (size 15 to 20)
#    0.857    1.143    0.000    1.714    4.000    2.286 
#   30.857    0.000    0.000    0.000    0.000    0.000 
#    0.000    0.000    0.000    0.000    0.000    0.000 
#
# Total GULP energy -78120.544423 kJ/mol
# GULP energy per Si atom -5580.038887 kJ/mol
# Density = 2.467636 g / cm^3
# Si number density = 24.732651 Si / 1000 Ang^3
#
#
#
# Elastic Constant Matrix: (Units=GPa)
#
#
# Indices 1 2 3 4 5 6 
#
# 1 273.5793 27.5543 106.7266 0.0000 -7.7271 0.0000
# 2 27.5543 111.1354 41.6170 0.0000 16.9436 0.0000
# 3 106.7266 41.6170 217.3593 0.0000 33.2526 0.0000
# 4 0.0000 0.0000 0.0000 28.0510 0.0000 4.1595
# 5 -7.7271 16.9436 33.2526 0.0000 35.9658 0.0000
# 6 0.0000 0.0000 0.0000 4.1595 0.0000 -33.8550
#
#
#
# Elastic Compliance Matrix: (Units=1/GPa)
#
#
# Indices 1 2 3 4 5 6 
#
# 1 0.004998 -0.000771 -0.002943 0.000000 0.004158 0.000000
# 2 -0.000771 0.010165 -0.000943 0.000000 -0.004083 0.000000
# 3 -0.002943 -0.000943 0.007285 0.000000 -0.006924 0.000000
# 4 0.000000 0.000000 0.000000 0.035012 0.000000 0.004302
# 5 0.004158 -0.004083 -0.006924 0.000000 0.037022 0.000000
# 6 0.000000 0.000000 0.000000 0.004302 0.000000 -0.029009
#
#
# Mechanical properties :
#
#
# Convention : Reuss Voigt Hill
#
# Bulk Modulus (GPa) = 76.13413 105.98553 91.05983
# Shear Modulus (GPa) = 63.15924 34.44409 48.80167
#
# Velocity S-wave (km/s) = 5.05888 3.73588 4.44685
# Velocity P-wave (km/s) = 8.06056 7.84567 7.95384
#
# Compressibility (1/GPa) = 0.01313471
#
# Stress axis : x y z
#
# Youngs Moduli (GPa) = 200.06655 98.37896 137.26179
#
# Poissons Ratio (x) = 0.07587 0.40392
# Poissons Ratio (y) = 0.15429 0.12943
# Poissons Ratio (z) = 0.58873 0.09277
#
# Static dielectric constant tensor:
#      x y z
#    x 2.006220 0.000000 0.038050 
#    y 0.000000 2.230960 0.000000 
#    z 0.038050 0.000000 1.847280 
# 
# From -- ./inp_files/128045.got.cif
#   From: 2010.05.17/outbox.cif.g08.bks.cpg/sg15_65_cif.got.tgz:128045.got - 2010.06.03 18:47:42.
