data_PCOD9292585
_publ_section_title
;
Structure prediction by ZEFSAII (Michael W. Deem and Ramdas Pophale) SiO2 
 PCOD9292585
Probable space group: C 2/C
;
_chemical_formula_sum "Si O2"
_cell_formula_units_Z 60
_cell_length_a 26.989285
_cell_length_b 6.576869
_cell_length_c 17.283249
_cell_angle_alpha 90.000000
_cell_angle_beta 70.981190
_cell_angle_gamma 90.000000
_cell_volume 2900.393370
_symmetry_space_group_name_H-M "C 2/C"
_symmetry_group_IT_number 15
_symmetry_cell_setting 'monoclinic'
loop_
_space_group_symop_operation_xyz
x,y,z
-x,y,1/2-z
-x,-y,-z
x,-y,1/2+z
1/2+x,1/2+y,z
1/2-x,1/2+y,1/2-z
1/2-x,1/2-y,-z
1/2+x,1/2-y,1/2+z
loop_
_atom_site_type_symbol
_atom_site_label
_atom_site_fract_x
_atom_site_fract_y
_atom_site_fract_z
Si Si1 0.961267 0.314250 0.922786
Si Si2 0.943155 0.313727 0.527921
Si Si3 0.000000 0.876463 0.250000
Si Si4 0.705257 0.636466 0.367792
Si Si5 0.108173 0.880811 0.701293
Si Si6 0.628069 0.510233 0.021075
Si Si7 0.373224 0.061824 0.679286
Si Si8 0.193088 0.172577 0.738104
O O1 0.001382 0.237073 0.968648
O O2 0.989354 0.264431 0.828752
O O3 0.907214 0.190895 0.949875
O O4 0.952262 0.548505 0.947686
O O5 0.901605 0.141357 0.529410
O O6 0.919492 0.464438 0.604903
O O7 0.948919 0.016304 0.264836
O O8 0.684510 0.549338 0.459290
O O9 0.658847 0.777389 0.356596
O O10 0.758022 0.767191 0.340394
O O11 0.712910 0.452846 0.302728
O O12 0.150504 0.033028 0.717577
O O13 0.124977 0.867581 0.602981
O O14 0.108974 0.677416 0.752124
O O15 0.335208 0.877647 0.720879
#
# Coordination Sequence:
#
# PCOD9292585 Si02
#       8
#     8   8   4   8   8   8   8   8
#     4  10  23  38  60  94 126 171 217 270 314 380
#     4  11  22  37  65  93 124 169 225 265 313 378
#     4  10  22  44  64  88 138 176 206 262 328 380
#     4  11  22  39  70  93 125 164 216 271 316 375
#     4  10  26  42  64  95 136 172 209 263 328 384
#     4  11  23  42  60  94 134 168 210 271 324 377
#     4  11  22  41  65  94 123 169 219 264 315 384
#     4  11  22  42  67  98 125 167 217 268 320 385
#
# _framework density 20.68685
#
# number of rings (size 3 to 8) (size 9 to 14) (size 15 to 20)
#    0.000    1.333    4.000    1.200    1.867    8.000 
#    0.000    2.000    0.000    0.000    0.000    0.000 
#    0.000    0.000    0.000    0.000    0.000    0.000 
#
# Total GULP energy -167688.809376 kJ/mol
# GULP energy per Si atom -5589.626979 kJ/mol
# Density = 2.063977 g / cm^3
# Si number density = 20.686850 Si / 1000 Ang^3
#
#
#
# Elastic Constant Matrix: (Units=GPa)
#
#
# Indices 1 2 3 4 5 6 
#
# 1 63.5918 8.7653 22.5002 0.0000 -14.8074 0.0000
# 2 8.7653 44.7944 22.7967 0.0000 0.9845 0.0000
# 3 22.5002 22.7967 94.7423 0.0000 -15.8354 0.0000
# 4 0.0000 0.0000 0.0000 20.5643 0.0000 -3.5849
# 5 -14.8074 0.9845 -15.8354 0.0000 32.5652 0.0000
# 6 0.0000 0.0000 0.0000 -3.5849 0.0000 17.7302
#
#
#
# Elastic Compliance Matrix: (Units=1/GPa)
#
#
# Indices 1 2 3 4 5 6 
#
# 1 0.018695 -0.002484 -0.002622 0.000000 0.007301 0.000000
# 2 -0.002484 0.026277 -0.006590 0.000000 -0.005129 0.000000
# 3 -0.002622 -0.006590 0.013712 0.000000 0.005675 0.000000
# 4 0.000000 0.000000 0.000000 0.050405 0.000000 0.010191
# 5 0.007301 -0.005129 0.005675 0.000000 0.036942 0.000000
# 6 0.000000 0.000000 0.000000 0.010191 0.000000 0.058462
#
#
# Mechanical properties :
#
#
# Convention : Reuss Voigt Hill
#
# Bulk Modulus (GPa) = 28.33528 34.58366 31.45947
# Shear Modulus (GPa) = 20.86390 24.10967 22.48679
#
# Velocity S-wave (km/s) = 3.17923 3.41759 3.30056
# Velocity P-wave (km/s) = 5.21571 5.68570 5.45577
#
# Compressibility (1/GPa) = 0.03529169
#
# Stress axis : x y z
#
# Youngs Moduli (GPa) = 53.48888 38.05640 72.93040
#
# Poissons Ratio (x) = 0.09455 0.19121
# Poissons Ratio (y) = 0.13289 0.48060
# Poissons Ratio (z) = 0.14024 0.25078
#
# Static dielectric constant tensor:
#      x y z
#    x 1.732360 0.000000 0.004100 
#    y 0.000000 1.723400 0.000000 
#    z 0.004100 0.000000 1.755070 
# 
# From -- ./inp_files/223886.got.cif
#   From: 2010.05.17/outbox.cif.g08.bks.cpg/sg15_112_cif.got.tgz:223886.got - 2010.06.03 18:47:42.
