data_PCOD9292795
_publ_section_title
;
Structure prediction by ZEFSAII (Michael W. Deem and Ramdas Pophale) SiO2 
 PCOD9292795
Probable space group: C 2/C
;
_chemical_formula_sum "Si O2"
_cell_formula_units_Z 60
_cell_length_a 28.986506
_cell_length_b 8.302106
_cell_length_c 11.348015
_cell_angle_alpha 90.000000
_cell_angle_beta 92.412626
_cell_angle_gamma 90.000000
_cell_volume 2728.468256
_symmetry_space_group_name_H-M "C 2/C"
_symmetry_group_IT_number 15
_symmetry_cell_setting 'monoclinic'
loop_
_space_group_symop_operation_xyz
x,y,z
-x,y,1/2-z
-x,-y,-z
x,-y,1/2+z
1/2+x,1/2+y,z
1/2-x,1/2+y,1/2-z
1/2-x,1/2-y,-z
1/2+x,1/2-y,1/2+z
loop_
_atom_site_type_symbol
_atom_site_label
_atom_site_fract_x
_atom_site_fract_y
_atom_site_fract_z
Si Si1 0.384687 0.633355 0.370378
Si Si2 0.235378 0.813953 0.368642
Si Si3 0.420325 0.291457 0.333888
Si Si4 0.863675 0.709229 0.109678
Si Si5 0.127692 0.661948 0.961497
Si Si6 0.000000 0.383103 0.750000
Si Si7 0.698724 0.341947 0.815374
Si Si8 0.049791 0.697785 0.783625
O O1 0.414880 0.472605 0.376821
O O2 0.363980 0.684384 0.491724
O O3 0.343617 0.602271 0.273321
O O4 0.417390 0.775861 0.325031
O O5 0.250000 0.750000 0.500000
O O6 0.186041 0.732960 0.336741
O O7 0.270553 0.766271 0.268784
O O8 0.226967 0.005522 0.365454
O O9 0.403457 0.277085 0.197779
O O10 0.384460 0.183652 0.404099
O O11 0.471993 0.222175 0.340169
O O12 0.869745 0.523058 0.076589
O O13 0.173738 0.747642 0.919048
O O14 0.083108 0.746333 0.893499
O O15 0.963974 0.512685 0.693962
O O16 0.000000 0.777331 0.750000
#
# Coordination Sequence:
#
# PCOD9292795 Si02
#       8
#     8   8   8   8   8   4   8   8
#     4  11  24  43  70  97 144 185 231 285 358 420
#     4  12  25  45  74 106 144 183 237 295 348 420
#     4  12  26  43  70 106 143 183 237 295 352 425
#     4  12  24  45  72 101 143 189 232 288 359 419
#     4  11  25  44  73 102 143 188 237 292 356 423
#     4  10  22  44  68 104 138 178 244 288 348 424
#     4  11  25  47  71 104 142 184 235 287 355 422
#     4   9  21  43  69  96 138 184 234 287 351 414
#
# _framework density 21.990362000000001
#
# number of rings (size 3 to 8) (size 9 to 14) (size 15 to 20)
#    0.400    0.533    4.000    2.400    4.667    2.667 
#    0.000    3.333    0.000    0.000    0.000    0.000 
#    0.000    0.000    0.000    0.000    0.000    0.000 
#
# Total GULP energy -167525.094394 kJ/mol
# GULP energy per Si atom -5584.169813 kJ/mol
# Density = 2.194031 g / cm^3
# Si number density = 21.990362 Si / 1000 Ang^3
#
#
#
# Elastic Constant Matrix: (Units=GPa)
#
#
# Indices 1 2 3 4 5 6 
#
# 1 96.5267 46.0030 13.8074 0.0000 -28.2236 0.0000
# 2 46.0030 118.7099 29.7806 0.0000 -17.4224 0.0000
# 3 13.8074 29.7806 50.4902 0.0000 -22.8850 0.0000
# 4 0.0000 0.0000 0.0000 22.0909 0.0000 -10.2366
# 5 -28.2236 -17.4224 -22.8850 0.0000 36.6612 0.0000
# 6 0.0000 0.0000 0.0000 -10.2366 0.0000 39.6834
#
#
#
# Elastic Compliance Matrix: (Units=1/GPa)
#
#
# Indices 1 2 3 4 5 6 
#
# 1 0.015998 -0.005502 0.004557 0.000000 0.012546 0.000000
# 2 -0.005502 0.011836 -0.006760 0.000000 -0.002830 0.000000
# 3 0.004557 -0.006760 0.031630 0.000000 0.020040 0.000000
# 4 0.000000 0.000000 0.000000 0.051413 0.000000 0.013262
# 5 0.012546 -0.002830 0.020040 0.000000 0.048100 0.000000
# 6 0.000000 0.000000 0.000000 0.013262 0.000000 0.028621
#
#
# Mechanical properties :
#
#
# Convention : Reuss Voigt Hill
#
# Bulk Modulus (GPa) = 22.69867 49.43432 36.06650
# Shear Modulus (GPa) = 22.96817 31.42949 27.19883
#
# Velocity S-wave (km/s) = 3.23533 3.78463 3.52071
# Velocity P-wave (km/s) = 4.92960 6.45188 5.74141
#
# Compressibility (1/GPa) = 0.04405545
#
# Stress axis : x y z
#
# Youngs Moduli (GPa) = 62.50641 84.48579 31.61563
#
# Poissons Ratio (x) = 0.46480 -0.14406
# Poissons Ratio (y) = 0.34388 0.21371
# Poissons Ratio (z) = -0.28481 0.57109
#
# Static dielectric constant tensor:
#      x y z
#    x 1.848820 0.000000 -0.010810 
#    y 0.000000 1.818150 0.000000 
#    z -0.010810 0.000000 1.827110 
# 
# From -- ./inp_files/121942.got.cif
#   From: 2010.05.17/outbox.cif.g08.bks.cpg/sg15_61_cif.got.tgz:121942.got - 2010.06.03 18:47:42.
