data_PCOD9292595
_publ_section_title
;
Structure prediction by ZEFSAII (Michael W. Deem and Ramdas Pophale) SiO2 
 PCOD9292595
Probable space group: C 2/C
;
_chemical_formula_sum "Si O2"
_cell_formula_units_Z 60
_cell_length_a 7.887816
_cell_length_b 11.606519
_cell_length_c 30.311421
_cell_angle_alpha 90.000000
_cell_angle_beta 99.801681
_cell_angle_gamma 90.000000
_cell_volume 2734.506074
_symmetry_space_group_name_H-M "C 2/C"
_symmetry_group_IT_number 15
_symmetry_cell_setting 'monoclinic'
loop_
_space_group_symop_operation_xyz
x,y,z
-x,y,1/2-z
-x,-y,-z
x,-y,1/2+z
1/2+x,1/2+y,z
1/2-x,1/2+y,1/2-z
1/2-x,1/2-y,-z
1/2+x,1/2-y,1/2+z
loop_
_atom_site_type_symbol
_atom_site_label
_atom_site_fract_x
_atom_site_fract_y
_atom_site_fract_z
Si Si1 0.137861 0.134272 0.998157
Si Si2 0.535597 0.726523 0.423598
Si Si3 0.500000 0.344457 0.750000
Si Si4 0.206164 0.510417 0.846753
Si Si5 0.703630 0.429332 0.054158
Si Si6 0.069983 0.955937 0.846166
Si Si7 0.671304 0.219038 0.285550
Si Si8 0.640623 0.112915 0.644113
O O1 0.019192 0.157614 0.036042
O O2 0.236596 0.016174 0.014812
O O3 0.250000 0.250000 0.000000
O O4 0.999052 0.103918 0.954294
O O5 0.698412 0.807474 0.440821
O O6 0.544264 0.645611 0.380804
O O7 0.393013 0.818709 0.402125
O O8 0.557247 0.415028 0.795364
O O9 0.668768 0.279822 0.741072
O O10 0.227323 0.499266 0.900526
O O11 0.404261 0.541315 0.843540
O O12 0.169612 0.398749 0.814801
O O13 0.039614 0.594011 0.837703
O O14 0.263148 0.996454 0.862665
O O15 0.500000 0.231061 0.250000
O O16 0.719898 0.319872 0.320917
#
# Coordination Sequence:
#
# PCOD9292595 Si02
#       8
#     8   8   4   8   8   8   8   8
#     4  11  24  41  68 104 133 172 227 278 339 415
#     4  11  23  46  63  96 141 170 227 281 333 412
#     4  10  22  44  64  96 134 174 226 282 328 394
#     4  10  22  46  65  95 136 173 226 279 326 412
#     4  10  23  42  68  96 133 178 218 273 350 392
#     4  11  23  44  68  95 139 174 226 286 331 399
#     4  11  23  44  65  96 137 173 229 287 337 406
#     4  11  24  41  68  97 124 188 221 269 354 398
#
# _framework density 21.941804999999999
#
# number of rings (size 3 to 8) (size 9 to 14) (size 15 to 20)
#    0.000    1.333    4.000    1.200    2.800    3.733 
#    8.400    0.000    0.000    0.000    0.000    0.000 
#    0.000    0.000    0.000    0.000    0.000    0.000 
#
# Total GULP energy -167207.103527 kJ/mol
# GULP energy per Si atom -5573.570118 kJ/mol
# Density = 2.189186 g / cm^3
# Si number density = 21.941805 Si / 1000 Ang^3
#
#
#
# Elastic Constant Matrix: (Units=GPa)
#
#
# Indices 1 2 3 4 5 6 
#
# 1 88.9557 34.7856 23.1557 0.0000 30.2033 0.0000
# 2 34.7856 53.4676 17.2967 0.0000 6.0786 0.0000
# 3 23.1557 17.2967 80.8087 0.0000 26.9649 0.0000
# 4 0.0000 0.0000 0.0000 -67.7980 0.0000 -14.1915
# 5 30.2033 6.0786 26.9649 0.0000 34.4995 0.0000
# 6 0.0000 0.0000 0.0000 -14.1915 0.0000 18.1339
#
#
#
# Elastic Compliance Matrix: (Units=1/GPa)
#
#
# Indices 1 2 3 4 5 6 
#
# 1 0.022246 -0.013214 0.002943 0.000000 -0.019448 0.000000
# 2 -0.013214 0.027945 -0.005969 0.000000 0.011310 0.000000
# 3 0.002943 -0.005969 0.018017 0.000000 -0.015607 0.000000
# 4 0.000000 0.000000 0.000000 -0.012674 0.000000 -0.009918
# 5 -0.019448 0.011310 -0.015607 0.000000 0.056218 0.000000
# 6 0.000000 0.000000 0.000000 -0.009918 0.000000 0.047383
#
#
# Mechanical properties :
#
#
# Convention : Reuss Voigt Hill
#
# Bulk Modulus (GPa) = 27.98901 41.52311 34.75606
# Shear Modulus (GPa) = 24.56702 6.83336 15.70019
#
# Velocity S-wave (km/s) = 3.34974 1.76666 2.67786
# Velocity P-wave (km/s) = 5.26732 4.80902 5.04338
#
# Compressibility (1/GPa) = 0.03572831
#
# Stress axis : x y z
#
# Youngs Moduli (GPa) = 44.95214 35.78444 55.50284
#
# Poissons Ratio (x) = 0.47286 -0.16337
# Poissons Ratio (y) = 0.59401 0.33130
# Poissons Ratio (z) = -0.13231 0.21360
#
# Static dielectric constant tensor:
#      x y z
#    x 1.824140 0.000000 0.023680 
#    y 0.000000 1.838270 0.000000 
#    z 0.023680 0.000000 1.738050 
# 
# From -- ./inp_files/307184.got.cif
#   From: 2010.05.17/outbox.cif.g08.bks.cpg/sg15_154_cif.got.tgz:307184.got - 2010.06.03 18:47:42.
