data_PCOD9292495
_publ_section_title
;
Structure prediction by ZEFSAII (Michael W. Deem and Ramdas Pophale) SiO2 
 PCOD9292495
Probable space group: C 2/C
;
_chemical_formula_sum "Si O2"
_cell_formula_units_Z 60
_cell_length_a 14.343042
_cell_length_b 14.464858
_cell_length_c 20.880572
_cell_angle_alpha 90.000000
_cell_angle_beta 40.978031
_cell_angle_gamma 90.000000
_cell_volume 2840.855324
_symmetry_space_group_name_H-M "C 2/C"
_symmetry_group_IT_number 15
_symmetry_cell_setting 'monoclinic'
loop_
_space_group_symop_operation_xyz
x,y,z
-x,y,1/2-z
-x,-y,-z
x,-y,1/2+z
1/2+x,1/2+y,z
1/2-x,1/2+y,1/2-z
1/2-x,1/2-y,-z
1/2+x,1/2-y,1/2+z
loop_
_atom_site_type_symbol
_atom_site_label
_atom_site_fract_x
_atom_site_fract_y
_atom_site_fract_z
Si Si1 0.805773 0.386885 0.517104
Si Si2 0.265385 0.703453 0.849775
Si Si3 0.000000 0.647574 0.250000
Si Si4 0.988963 0.867958 0.640901
Si Si5 0.286102 0.499296 0.813271
Si Si6 0.971127 0.770414 0.999223
Si Si7 0.704324 0.200551 0.728469
Si Si8 0.552836 0.986292 0.322878
O O1 0.656440 0.361781 0.564008
O O2 0.764598 0.430939 0.605760
O O3 0.907407 0.301091 0.480238
O O4 0.897506 0.456420 0.427106
O O5 0.368280 0.781428 0.823982
O O6 0.312027 0.597756 0.833283
O O7 0.250435 0.707561 0.779493
O O8 0.107332 0.720619 0.958923
O O9 0.961103 0.577530 0.212470
O O10 0.969298 0.854877 0.574662
O O11 0.903494 0.786532 0.721932
O O12 0.922200 0.960882 0.704589
O O13 0.156314 0.501034 0.830065
O O14 0.844769 0.792450 0.112764
O O15 0.623948 0.104852 0.753948
#
# Coordination Sequence:
#
# PCOD9292495 Si02
#       8
#     8   8   4   8   8   8   8   8
#     4  12  23  38  71 103 132 172 233 283 338 418
#     4  10  25  48  66 100 134 189 232 285 336 423
#     4  12  28  46  72  94 152 178 240 288 348 406
#     4  11  23  38  66 110 132 165 227 293 339 397
#     4  11  23  45  72  94 137 187 233 276 351 411
#     4  11  22  42  71 100 141 177 220 286 353 420
#     4  10  22  43  73  97 142 179 220 282 362 404
#     4  11  25  45  66 100 135 190 221 285 350 421
#
# _framework density 21.120398999999999
#
# number of rings (size 3 to 8) (size 9 to 14) (size 15 to 20)
#    0.000    1.067    5.333    2.800    3.733    0.000 
#    4.800    4.667    0.000    0.000    0.000    0.000 
#    0.000    0.000    0.000    0.000    0.000    0.000 
#
# Total GULP energy -167574.460252 kJ/mol
# GULP energy per Si atom -5585.815342 kJ/mol
# Density = 2.107233 g / cm^3
# Si number density = 21.120399 Si / 1000 Ang^3
#
#
#
# Elastic Constant Matrix: (Units=GPa)
#
#
# Indices 1 2 3 4 5 6 
#
# 1 49.3063 64.8341 39.6176 0.0000 -24.4153 0.0000
# 2 64.8341 299.5093 236.2825 0.0000 -38.7952 0.0000
# 3 39.6176 236.2825 323.3060 -0.0001 -50.8852 0.0000
# 4 0.0000 0.0000 -0.0001 14.7368 0.0001 -2.9844
# 5 -24.4153 -38.7952 -50.8852 0.0001 38.5968 0.0000
# 6 0.0000 0.0000 0.0000 -2.9844 0.0000 39.1280
#
#
#
# Elastic Compliance Matrix: (Units=1/GPa)
#
#
# Indices 1 2 3 4 5 6 
#
# 1 0.041628 -0.011471 0.007082 0.000000 0.024139 0.000000
# 2 -0.011471 0.011051 -0.007653 0.000000 -0.006237 0.000000
# 3 0.007082 -0.007653 0.009227 0.000000 0.008953 0.000000
# 4 0.000000 0.000000 0.000000 0.068922 0.000000 0.005257
# 5 0.024139 -0.006237 0.008953 0.000000 0.046712 0.000000
# 6 0.000000 0.000000 0.000000 0.005257 0.000000 0.025958
#
#
# Mechanical properties :
#
#
# Convention : Reuss Voigt Hill
#
# Bulk Modulus (GPa) = 26.43950 150.39891 88.41920
# Shear Modulus (GPa) = 20.81688 40.58481 30.70085
#
# Velocity S-wave (km/s) = 3.14288 4.38835 3.81676
# Velocity P-wave (km/s) = 5.07108 9.85097 7.83446
#
# Compressibility (1/GPa) = 0.03782220
#
# Stress axis : x y z
#
# Youngs Moduli (GPa) = 24.02222 90.48887 108.37731
#
# Poissons Ratio (x) = 1.03801 -0.76750
# Poissons Ratio (y) = 0.27556 0.82936
# Poissons Ratio (z) = -0.17012 0.69247
#
# Static dielectric constant tensor:
#      x y z
#    x 1.801760 0.000000 -0.001430 
#    y 0.000000 1.814260 0.000000 
#    z -0.001430 0.000000 1.739770 
# 
# From -- ./inp_files/244684.got.cif
#   From: 2010.05.17/outbox.cif.g08.bks.cpg/sg15_123_cif.got.tgz:244684.got - 2010.06.03 18:47:42.
