data_PCOD9292355
_publ_section_title
;
Structure prediction by ZEFSAII (Michael W. Deem and Ramdas Pophale) SiO2 
 PCOD9292355
Probable space group: C 2/C
;
_chemical_formula_sum "Si O2"
_cell_formula_units_Z 40
_cell_length_a 13.721521
_cell_length_b 7.746707
_cell_length_c 22.173563
_cell_angle_alpha 90.000000
_cell_angle_beta 38.961868
_cell_angle_gamma 90.000000
_cell_volume 1482.072676
_symmetry_space_group_name_H-M "C 2/C"
_symmetry_group_IT_number 15
_symmetry_cell_setting 'monoclinic'
loop_
_space_group_symop_operation_xyz
x,y,z
-x,y,1/2-z
-x,-y,-z
x,-y,1/2+z
1/2+x,1/2+y,z
1/2-x,1/2+y,1/2-z
1/2-x,1/2-y,-z
1/2+x,1/2-y,1/2+z
loop_
_atom_site_type_symbol
_atom_site_label
_atom_site_fract_x
_atom_site_fract_y
_atom_site_fract_z
Si Si1 0.004991 0.895784 0.310613
Si Si2 0.354645 0.967703 0.180158
Si Si3 0.389308 0.760901 0.386084
Si Si4 0.748834 0.027194 0.141138
Si Si5 0.470911 0.731263 0.956283
O O1 0.183824 0.937148 0.238552
O O2 0.000000 0.795744 0.250000
O O3 0.912626 0.075332 0.345347
O O4 0.931079 0.817661 0.406463
O O5 0.330960 0.062599 0.256316
O O6 0.457041 0.079768 0.085214
O O7 0.454927 0.802633 0.151319
O O8 0.250000 0.750000 0.500000
O O9 0.351261 0.912870 0.357364
O O10 0.889261 0.894939 0.090983
O O11 0.830571 0.187485 0.068200
#
# Coordination Sequence:
#
# PCOD9292355 Si02
#       5
#     8   8   8   8   8
#     4  11  22  43  69  99 141 185 238 291 353 428
#     4  11  24  43  71 103 140 189 236 290 360 424
#     4  12  24  45  71 101 138 190 234 290 363 425
#     4  10  22  45  73  95 147 187 229 295 361 420
#     4  10  22  43  70 104 137 183 238 292 350 419
#
# _framework density 26.989229999999999
#
# number of rings (size 3 to 8) (size 9 to 14) (size 15 to 20)
#    0.000    1.200    2.000    5.400    0.000    2.400 
#    3.600    2.000    0.000    0.000    0.000    0.000 
#    0.000    0.000    0.000    0.000    0.000    0.000 
#
# Total GULP energy -112260.087541 kJ/mol
# GULP energy per Si atom -5613.004377 kJ/mol
# Density = 2.692780 g / cm^3
# Si number density = 26.989230 Si / 1000 Ang^3
#
#
#
# Elastic Constant Matrix: (Units=GPa)
#
#
# Indices 1 2 3 4 5 6 
#
# 1 148.4885 9.3121 56.4553 0.0000 12.0949 0.0000
# 2 9.3121 60.4214 18.3904 0.0000 2.9784 0.0001
# 3 56.4553 18.3904 175.1469 0.0000 18.2880 0.0000
# 4 0.0000 0.0000 0.0000 51.7246 0.0000 -4.2598
# 5 12.0949 2.9784 18.2880 0.0000 39.3523 0.0000
# 6 0.0000 0.0001 0.0000 -4.2598 0.0000 40.2981
#
#
#
# Elastic Compliance Matrix: (Units=1/GPa)
#
#
# Indices 1 2 3 4 5 6 
#
# 1 0.007747 -0.000425 -0.002320 0.000000 -0.001271 0.000000
# 2 -0.000425 0.017129 -0.001618 0.000000 -0.000414 0.000000
# 3 -0.002320 -0.001618 0.006873 0.000000 -0.002359 0.000000
# 4 0.000000 0.000000 0.000000 0.019503 0.000000 0.002062
# 5 -0.001271 -0.000414 -0.002359 0.000000 0.026930 0.000000
# 6 0.000000 0.000000 0.000000 0.002062 0.000000 0.025033
#
#
# Mechanical properties :
#
#
# Convention : Reuss Voigt Hill
#
# Bulk Modulus (GPa) = 43.43553 61.37472 52.40512
# Shear Modulus (GPa) = 41.80077 46.26824 44.03450
#
# Velocity S-wave (km/s) = 3.93974 4.14493 4.04364
# Velocity P-wave (km/s) = 6.06828 6.75996 6.42344
#
# Compressibility (1/GPa) = 0.02302263
#
# Stress axis : x y z
#
# Youngs Moduli (GPa) = 129.08833 58.38078 145.48834
#
# Poissons Ratio (x) = 0.02483 0.33748
# Poissons Ratio (y) = 0.05489 0.23544
# Poissons Ratio (z) = 0.29944 0.09448
#
# Static dielectric constant tensor:
#      x y z
#    x 2.089160 0.000000 0.011270 
#    y 0.000000 2.155660 0.000000 
#    z 0.011270 0.000000 2.039290 
# 
# From -- ./inp_files/272508.got.cif
#   From: 2010.05.17/outbox.cif.g08.bks.cpg/sg15_137_cif.got.tgz:272508.got - 2010.06.03 18:47:42.
