data_PCOD9292968
_publ_section_title
;
Structure prediction by ZEFSAII (Michael W. Deem and Ramdas Pophale) SiO2 
 PCOD9292968
Probable space group: C 2/C
;
_chemical_formula_sum "Si O2"
_cell_formula_units_Z 56
_cell_length_a 27.510909
_cell_length_b 8.543907
_cell_length_c 12.153438
_cell_angle_alpha 90.000000
_cell_angle_beta 59.998640
_cell_angle_gamma 90.000000
_cell_volume 2473.917897
_symmetry_space_group_name_H-M "C 2/C"
_symmetry_group_IT_number 15
_symmetry_cell_setting 'monoclinic'
loop_
_space_group_symop_operation_xyz
x,y,z
-x,y,1/2-z
-x,-y,-z
x,-y,1/2+z
1/2+x,1/2+y,z
1/2-x,1/2+y,1/2-z
1/2-x,1/2-y,-z
1/2+x,1/2-y,1/2+z
loop_
_atom_site_type_symbol
_atom_site_label
_atom_site_fract_x
_atom_site_fract_y
_atom_site_fract_z
Si Si1 0.239573 0.843780 0.625180
Si Si2 0.532239 0.911540 0.061161
Si Si3 0.849069 0.257434 0.629749
Si Si4 0.500000 0.343208 0.750000
Si Si5 0.029698 0.907544 0.062291
Si Si6 0.308043 0.327179 0.403934
Si Si7 0.500000 0.158055 0.250000
Si Si8 0.151103 0.880133 0.902839
O O1 0.250000 0.750000 0.500000
O O2 0.299574 0.845250 0.619157
O O3 0.195242 0.794648 0.771860
O O4 0.210347 0.003225 0.619095
O O5 0.491524 0.778479 0.160048
O O6 0.543636 0.039211 0.145018
O O7 0.590342 0.828571 0.965417
O O8 0.500000 0.000000 0.000000
O O9 0.838174 0.265403 0.772420
O O10 0.843789 0.070555 0.609727
O O11 0.457187 0.466977 0.854060
O O12 0.989401 0.777461 0.161704
O O13 0.086940 0.840359 0.950103
O O14 0.000000 0.000000 0.000000
O O15 0.250000 0.250000 0.500000
O O16 0.341194 0.335853 0.479323
#
# Coordination Sequence:
#
# PCOD9292968 Si02
#       8
#     8   8   8   4   8   8   4   8
#     4  11  24  45  72 108 149 188 244 301 371 443
#     4  11  24  46  68 103 147 191 243 309 371 438
#     4  11  24  45  74 106 147 196 242 302 379 441
#     4  10  22  44  70  94 146 190 244 298 364 434
#     4  11  24  44  74 108 143 192 252 304 364 447
#     4  11  24  45  73 105 150 189 245 305 363 450
#     4  10  26  42  66 104 144 188 250 300 374 430
#     4  11  24  44  75 107 145 196 246 299 372 444
#
# _framework density 22.63616
#
# number of rings (size 3 to 8) (size 9 to 14) (size 15 to 20)
#    0.000    1.143    4.286    0.857    2.000    5.714 
#    5.143    0.000    0.000    0.000    0.000    0.000 
#    0.000    0.000    0.000    0.000    0.000    0.000 
#
# Total GULP energy -156082.554930 kJ/mol
# GULP energy per Si atom -5574.376962 kJ/mol
# Density = 2.258464 g / cm^3
# Si number density = 22.636160 Si / 1000 Ang^3
#
#
#
# Elastic Constant Matrix: (Units=GPa)
#
#
# Indices 1 2 3 4 5 6 
#
# 1 129.4667 16.7051 75.5979 0.0000 4.4013 0.0000
# 2 16.7051 65.8658 48.5472 0.0000 5.8946 0.0000
# 3 75.5979 48.5472 173.1613 0.0000 7.8938 0.0000
# 4 0.0000 0.0000 0.0000 65.2254 0.0000 3.1008
# 5 4.4013 5.8946 7.8938 0.0000 26.9815 0.0000
# 6 0.0000 0.0000 0.0000 3.1008 0.0000 28.1604
#
#
#
# Elastic Compliance Matrix: (Units=1/GPa)
#
#
# Indices 1 2 3 4 5 6 
#
# 1 0.010415 0.000930 -0.004785 0.000000 -0.000502 0.000000
# 2 0.000930 0.019408 -0.005723 0.000000 -0.002717 0.000000
# 3 -0.004785 -0.005723 0.009503 0.000000 -0.000749 0.000000
# 4 0.000000 0.000000 0.000000 0.015412 0.000000 -0.001697
# 5 -0.000502 -0.002717 -0.000749 0.000000 0.037957 0.000000
# 6 0.000000 0.000000 0.000000 -0.001697 0.000000 0.035698
#
#
# Mechanical properties :
#
#
# Convention : Reuss Voigt Hill
#
# Bulk Modulus (GPa) = 49.57948 72.24381 60.91164
# Shear Modulus (GPa) = 32.41021 39.24969 35.82995
#
# Velocity S-wave (km/s) = 3.78800 4.16858 3.98284
# Velocity P-wave (km/s) = 6.40955 7.42657 6.93672
#
# Compressibility (1/GPa) = 0.02016964
#
# Stress axis : x y z
#
# Youngs Moduli (GPa) = 96.01560 51.52461 105.23376
#
# Poissons Ratio (x) = -0.04793 0.50352
# Poissons Ratio (y) = -0.08931 0.60230
# Poissons Ratio (z) = 0.45941 0.29490
#
# Static dielectric constant tensor:
#      x y z
#    x 1.806320 0.000000 0.005690 
#    y 0.000000 1.855640 0.000000 
#    z 0.005690 0.000000 1.825590 
# 
# From -- ./inp_files/125857.got.cif
#   From: 2010.05.17/outbox.cif.g08.bks.cpg/sg15_63_cif.got.tgz:125857.got - 2010.06.03 18:47:42.
