data_PCOD9292916
_publ_section_title
;
Structure prediction by ZEFSAII (Michael W. Deem and Ramdas Pophale) SiO2 
 PCOD9292916
Probable space group: C 2/C
;
_chemical_formula_sum "Si O2"
_cell_formula_units_Z 56
_cell_length_a 13.067509
_cell_length_b 14.378790
_cell_length_c 12.338957
_cell_angle_alpha 90.000000
_cell_angle_beta 92.394666
_cell_angle_gamma 90.000000
_cell_volume 2316.403300
_symmetry_space_group_name_H-M "C 2/C"
_symmetry_group_IT_number 15
_symmetry_cell_setting 'monoclinic'
loop_
_space_group_symop_operation_xyz
x,y,z
-x,y,1/2-z
-x,-y,-z
x,-y,1/2+z
1/2+x,1/2+y,z
1/2-x,1/2+y,1/2-z
1/2-x,1/2-y,-z
1/2+x,1/2-y,1/2+z
loop_
_atom_site_type_symbol
_atom_site_label
_atom_site_fract_x
_atom_site_fract_y
_atom_site_fract_z
Si Si1 0.030993 0.105916 0.130929
Si Si2 0.851655 0.934007 0.466951
Si Si3 0.934879 0.313695 0.356202
Si Si4 0.251818 0.035310 0.861332
Si Si5 0.622505 0.675152 0.748338
Si Si6 0.503880 0.095411 0.435983
Si Si7 0.163203 0.380552 0.761910
O O1 0.000000 0.076634 0.250000
O O2 0.089749 0.204120 0.142982
O O3 0.926674 0.114928 0.057079
O O4 0.093752 0.025779 0.076208
O O5 0.841182 0.866373 0.364663
O O6 0.756153 0.973683 0.530774
O O7 0.844365 0.390362 0.357450
O O8 0.998211 0.328712 0.469859
O O9 0.000000 0.331756 0.250000
O O10 0.152312 0.099830 0.840518
O O11 0.256310 0.959741 0.764637
O O12 0.500000 0.692586 0.750000
O O13 0.683206 0.771176 0.765917
O O14 0.417322 0.106533 0.341365
O O15 0.608001 0.099048 0.372123
O O16 0.500000 0.000000 0.500000
#
# Coordination Sequence:
#
# PCOD9292916 Si02
#       7
#     8   8   8   8   8   8   8
#     4  10  22  44  69  99 138 186 237 295 361 432
#     4  11  24  42  69  99 142 190 238 292 363 425
#     4  11  25  44  73 108 146 186 239 304 373 432
#     4  12  28  43  70 114 142 187 244 303 365 430
#     4  12  26  49  75 100 147 198 249 296 356 455
#     4  11  21  43  76 100 143 186 234 296 361 435
#     4  11  26  46  74 108 141 198 243 293 371 437
#
# _framework density 24.175409999999999
#
# number of rings (size 3 to 8) (size 9 to 14) (size 15 to 20)
#    0.000    0.857    2.857    4.714    4.000    5.714 
#    0.000    0.000    0.000    0.000    0.000    0.000 
#    0.000    0.000    0.000    0.000    0.000    0.000 
#
# Total GULP energy -156749.720190 kJ/mol
# GULP energy per Si atom -5598.204292 kJ/mol
# Density = 2.412039 g / cm^3
# Si number density = 24.175410 Si / 1000 Ang^3
#
#
#
# Elastic Constant Matrix: (Units=GPa)
#
#
# Indices 1 2 3 4 5 6 
#
# 1 66.1103 54.7071 21.8868 0.0000 -1.0276 0.0000
# 2 54.7071 158.3935 48.9711 0.0000 -29.0101 0.0000
# 3 21.8868 48.9711 156.5174 0.0000 -19.8493 0.0000
# 4 0.0000 0.0000 0.0000 40.1982 0.0000 6.2555
# 5 -1.0276 -29.0101 -19.8493 0.0000 35.6503 0.0000
# 6 0.0000 0.0000 0.0000 6.2555 0.0000 19.8989
#
#
#
# Elastic Compliance Matrix: (Units=1/GPa)
#
#
# Indices 1 2 3 4 5 6 
#
# 1 0.022696 -0.008741 -0.001353 0.000000 -0.007213 0.000000
# 2 -0.008741 0.011217 -0.001250 0.000000 0.008180 0.000000
# 3 -0.001353 -0.001250 0.007355 0.000000 0.003039 0.000000
# 4 0.000000 0.000000 0.000000 0.026156 0.000000 -0.008223
# 5 -0.007213 0.008180 0.003039 0.000000 0.036191 0.000000
# 6 0.000000 0.000000 0.000000 -0.008223 0.000000 0.052839
#
#
# Mechanical properties :
#
#
# Convention : Reuss Voigt Hill
#
# Bulk Modulus (GPa) = 53.82591 70.23902 62.03246
# Shear Modulus (GPa) = 26.97804 36.17989 31.57897
#
# Velocity S-wave (km/s) = 3.34418 3.87273 3.61812
# Velocity P-wave (km/s) = 6.10118 7.00817 6.57034
#
# Compressibility (1/GPa) = 0.01857841
#
# Stress axis : x y z
#
# Youngs Moduli (GPa) = 44.06094 89.14892 135.96630
#
# Poissons Ratio (x) = 0.77929 0.18401
# Poissons Ratio (y) = 0.38516 0.16994
# Poissons Ratio (z) = 0.05963 0.11143
#
# Static dielectric constant tensor:
#      x y z
#    x 1.329340 0.000000 1.098610 
#    y 0.000000 1.936910 0.000000 
#    z 1.098610 0.000000 0.302620 
# 
# From -- ./inp_files/97046.got.cif
#   From: 2010.05.17/outbox.cif.g08.bks.cpg/sg15_49_cif.got.tgz:97046.got - 2010.06.03 18:47:42.
