data_PCOD9292757
_publ_section_title
;
Structure prediction by ZEFSAII (Michael W. Deem and Ramdas Pophale) SiO2 
 PCOD9292757
Probable space group: C 2/C
;
_chemical_formula_sum "Si O2"
_cell_formula_units_Z 40
_cell_length_a 9.851200
_cell_length_b 13.441722
_cell_length_c 16.777105
_cell_angle_alpha 90.000000
_cell_angle_beta 130.031023
_cell_angle_gamma 90.000000
_cell_volume 1701.052085
_symmetry_space_group_name_H-M "C 2/C"
_symmetry_group_IT_number 15
_symmetry_cell_setting 'monoclinic'
loop_
_space_group_symop_operation_xyz
x,y,z
-x,y,1/2-z
-x,-y,-z
x,-y,1/2+z
1/2+x,1/2+y,z
1/2-x,1/2+y,1/2-z
1/2-x,1/2-y,-z
1/2+x,1/2-y,1/2+z
loop_
_atom_site_type_symbol
_atom_site_label
_atom_site_fract_x
_atom_site_fract_y
_atom_site_fract_z
Si Si1 0.256260 0.554600 0.531415
Si Si2 0.937861 0.932651 0.803542
Si Si3 0.480130 0.859166 0.050023
Si Si4 0.164875 0.564016 0.760383
Si Si5 0.477106 0.648397 0.989270
O O1 0.426402 0.525475 0.647661
O O2 0.115375 0.610840 0.531392
O O3 0.342616 0.620417 0.492797
O O4 0.157701 0.447506 0.481256
O O5 0.976887 0.890567 0.905432
O O6 0.000000 0.871032 0.750000
O O7 0.739717 0.975102 0.733007
O O8 0.595286 0.850213 0.174630
O O9 0.406966 0.758086 0.985200
O O10 0.000000 0.528661 0.750000
O O11 0.321441 0.597543 0.878817
#
# Coordination Sequence:
#
# PCOD9292757 Si02
#       5
#     8   8   8   8   8
#     4  10  22  44  67  96 140 182 226 284 352 413
#     4  11  22  43  69  96 135 180 223 282 346 413
#     4  11  23  42  71 100 138 184 232 286 349 422
#     4  11  23  43  68  98 140 180 229 283 351 417
#     4  11  25  42  70 104 137 181 233 292 347 421
#
# _framework density 23.514856999999999
#
# number of rings (size 3 to 8) (size 9 to 14) (size 15 to 20)
#    0.000    1.200    2.000    5.400    0.000    5.600 
#    0.000    0.000    4.400    0.000    0.000    0.000 
#    0.000    0.000    0.000    0.000    0.000    0.000 
#
# Total GULP energy -111489.658367 kJ/mol
# GULP energy per Si atom -5574.482918 kJ/mol
# Density = 2.346134 g / cm^3
# Si number density = 23.514857 Si / 1000 Ang^3
#
#
#
# Elastic Constant Matrix: (Units=GPa)
#
#
# Indices 1 2 3 4 5 6 
#
# 1 199.9037 20.0898 53.5131 0.0000 -19.6482 0.0000
# 2 20.0898 40.2001 11.6413 0.0000 -5.4114 0.0000
# 3 53.5131 11.6413 96.9104 0.0000 -23.6967 0.0000
# 4 0.0000 0.0000 0.0000 23.6208 0.0000 -5.9875
# 5 -19.6482 -5.4114 -23.6967 0.0000 42.7797 0.0000
# 6 0.0000 0.0000 0.0000 -5.9875 0.0000 15.2147
#
#
#
# Elastic Compliance Matrix: (Units=1/GPa)
#
#
# Indices 1 2 3 4 5 6 
#
# 1 0.006073 -0.002076 -0.002876 0.000000 0.000934 0.000000
# 2 -0.002076 0.026601 -0.001688 0.000000 0.001476 0.000000
# 3 -0.002876 -0.001688 0.013573 0.000000 0.005984 0.000000
# 4 0.000000 0.000000 0.000000 0.047027 0.000000 0.018507
# 5 0.000934 0.001476 0.005984 0.000000 0.027306 0.000000
# 6 0.000000 0.000000 0.000000 0.018507 0.000000 0.073009
#
#
# Mechanical properties :
#
#
# Convention : Reuss Voigt Hill
#
# Bulk Modulus (GPa) = 30.33392 56.38920 43.36156
# Shear Modulus (GPa) = 22.95098 33.10769 28.02933
#
# Velocity S-wave (km/s) = 3.12752 3.75633 3.45626
# Velocity P-wave (km/s) = 5.09605 6.54566 5.86581
#
# Compressibility (1/GPa) = 0.03296639
#
# Stress axis : x y z
#
# Youngs Moduli (GPa) = 164.67391 37.59297 73.67775
#
# Poissons Ratio (x) = 0.07806 0.21186
# Poissons Ratio (y) = 0.34193 0.12436
# Poissons Ratio (z) = 0.47353 0.06345
#
# Static dielectric constant tensor:
#      x y z
#    x 1.957110 0.000000 -0.026130 
#    y 0.000000 1.947210 0.000000 
#    z -0.026130 0.000000 1.930120 
# 
# From -- ./inp_files/189052.got.cif
#   From: 2010.05.17/outbox.cif.g08.bks.cpg/sg15_95_cif.got.tgz:189052.got - 2010.06.03 18:47:42.
