data_PCOD9292805
_publ_section_title
;
Structure prediction by ZEFSAII (Michael W. Deem and Ramdas Pophale) SiO2 
 PCOD9292805
Probable space group: C 2/C
;
_chemical_formula_sum "Si O2"
_cell_formula_units_Z 60
_cell_length_a 23.396789
_cell_length_b 22.426451
_cell_length_c 9.661416
_cell_angle_alpha 90.000000
_cell_angle_beta 146.433827
_cell_angle_gamma 90.000000
_cell_volume 2802.876411
_symmetry_space_group_name_H-M "C 2/C"
_symmetry_group_IT_number 15
_symmetry_cell_setting 'monoclinic'
loop_
_space_group_symop_operation_xyz
x,y,z
-x,y,1/2-z
-x,-y,-z
x,-y,1/2+z
1/2+x,1/2+y,z
1/2-x,1/2+y,1/2-z
1/2-x,1/2-y,-z
1/2+x,1/2-y,1/2+z
loop_
_atom_site_type_symbol
_atom_site_label
_atom_site_fract_x
_atom_site_fract_y
_atom_site_fract_z
Si Si1 0.813638 0.649199 0.148460
Si Si2 0.680551 0.165175 0.669030
Si Si3 0.448022 0.853157 0.335948
Si Si4 0.925079 0.483016 0.225109
Si Si5 0.356623 0.429965 0.568589
Si Si6 0.704047 0.534816 0.849857
Si Si7 0.000000 0.160236 0.250000
Si Si8 0.666683 0.757665 0.583747
O O1 0.788642 0.704110 0.198970
O O2 0.930415 0.634525 0.432129
O O3 0.826457 0.662608 0.011090
O O4 0.731647 0.595218 0.989924
O O5 0.580511 0.159261 0.562101
O O6 0.753504 0.110523 0.863814
O O7 0.742046 0.226533 0.817456
O O8 0.397102 0.913549 0.177822
O O9 0.403398 0.799030 0.156060
O O10 0.000000 0.496999 0.250000
O O11 0.000000 0.500000 0.500000
O O12 0.817554 0.516887 0.020549
O O13 0.344103 0.483456 0.651270
O O14 0.361663 0.454061 0.420924
O O15 0.449944 0.382326 0.766024
O O16 0.092862 0.203400 0.486253
#
# Coordination Sequence:
#
# PCOD9292805 Si02
#       8
#     8   8   8   8   8   8   4   8
#     4  11  22  37  62  91 124 162 202 254 315 371
#     4  10  23  39  60  88 126 165 203 256 310 370
#     4  12  22  37  59  92 123 159 202 246 309 373
#     4  12  24  35  57  87 128 162 190 238 301 378
#     4  10  23  41  64  91 122 168 210 257 312 367
#     4  11  23  39  62  93 129 161 205 250 313 381
#     4  10  22  44  68  86 120 166 218 264 306 358
#     4  11  22  42  64  87 118 163 217 257 306 362
#
# _framework density 21.406580999999999
#
# number of rings (size 3 to 8) (size 9 to 14) (size 15 to 20)
#    0.000    1.067    4.000    2.800    3.733    0.533 
#    0.000    0.000    0.000    0.000    0.000    0.000 
#    0.000    0.000    0.000    0.000    0.000    0.000 
#
# Total GULP energy -167548.171836 kJ/mol
# GULP energy per Si atom -5584.939061 kJ/mol
# Density = 2.135786 g / cm^3
# Si number density = 21.406581 Si / 1000 Ang^3
#
#
#
# Elastic Constant Matrix: (Units=GPa)
#
#
# Indices 1 2 3 4 5 6 
#
# 1 83.5208 41.2784 5.8642 0.0000 -16.1838 0.0000
# 2 41.2784 114.5029 19.9980 0.0000 -8.9832 0.0000
# 3 5.8642 19.9980 32.2879 0.0000 -13.4022 0.0000
# 4 0.0000 0.0000 0.0000 30.9128 0.0000 5.1714
# 5 -16.1838 -8.9832 -13.4022 0.0000 30.6313 0.0000
# 6 0.0000 0.0000 0.0000 5.1714 0.0000 34.6487
#
#
#
# Elastic Compliance Matrix: (Units=1/GPa)
#
#
# Indices 1 2 3 4 5 6 
#
# 1 0.016311 -0.005955 0.004372 0.000000 0.008784 0.000000
# 2 -0.005955 0.011968 -0.007552 0.000000 -0.002940 0.000000
# 3 0.004372 -0.007552 0.042638 0.000000 0.018750 0.000000
# 4 0.000000 0.000000 0.000000 0.033177 0.000000 -0.004952
# 5 0.008784 -0.002940 0.018750 0.000000 0.044629 0.000000
# 6 0.000000 0.000000 0.000000 -0.004952 0.000000 0.029600
#
#
# Mechanical properties :
#
#
# Convention : Reuss Voigt Hill
#
# Bulk Modulus (GPa) = 18.99402 40.51029 29.75215
# Shear Modulus (GPa) = 23.34901 30.11663 26.73282
#
# Velocity S-wave (km/s) = 3.30622 3.75492 3.53769
# Velocity P-wave (km/s) = 4.84428 6.14528 5.53315
#
# Compressibility (1/GPa) = 0.05264815
#
# Stress axis : x y z
#
# Youngs Moduli (GPa) = 61.30771 83.55437 23.45352
#
# Poissons Ratio (x) = 0.49753 -0.10253
# Poissons Ratio (y) = 0.36506 0.17711
# Poissons Ratio (z) = -0.26803 0.63097
#
# Static dielectric constant tensor:
#      x y z
#    x 1.784050 0.000000 0.009970 
#    y 0.000000 1.880720 0.000000 
#    z 0.009970 0.000000 1.791660 
# 
# From -- ./inp_files/63524.got.cif
#   From: 2010.05.17/outbox.cif.g08.bks.cpg/sg15_32_cif.got.tgz:63524.got - 2010.06.03 18:47:42.
