data_PCOD9292043
_publ_section_title
;
Structure prediction by ZEFSAII (Michael W. Deem and Ramdas Pophale) SiO2 
 PCOD9292043
Probable space group: C 2/C
;
_chemical_formula_sum "Si O2"
_cell_formula_units_Z 56
_cell_length_a 12.534073
_cell_length_b 14.059178
_cell_length_c 13.834622
_cell_angle_alpha 90.000000
_cell_angle_beta 84.931562
_cell_angle_gamma 90.000000
_cell_volume 2428.387427
_symmetry_space_group_name_H-M "C 2/C"
_symmetry_group_IT_number 15
_symmetry_cell_setting 'monoclinic'
loop_
_space_group_symop_operation_xyz
x,y,z
-x,y,1/2-z
-x,-y,-z
x,-y,1/2+z
1/2+x,1/2+y,z
1/2-x,1/2+y,1/2-z
1/2-x,1/2-y,-z
1/2+x,1/2-y,1/2+z
loop_
_atom_site_type_symbol
_atom_site_label
_atom_site_fract_x
_atom_site_fract_y
_atom_site_fract_z
Si Si1 0.089328 0.690666 0.079193
Si Si2 0.776888 0.485748 0.720801
Si Si3 0.000000 0.835588 0.750000
Si Si4 0.500000 0.950861 0.750000
Si Si5 0.227040 0.135674 0.569744
Si Si6 0.609074 0.540063 0.401317
Si Si7 0.390013 0.673470 0.552103
Si Si8 0.788881 0.214851 0.350956
O O1 0.178997 0.764854 0.111217
O O2 0.049498 0.615207 0.161123
O O3 0.986672 0.753190 0.058737
O O4 0.153081 0.646240 0.983087
O O5 0.721324 0.556919 0.651738
O O6 0.711401 0.479056 0.824399
O O7 0.772790 0.379621 0.677384
O O8 0.900192 0.511992 0.722784
O O9 0.974539 0.903832 0.660158
O O10 0.893177 0.775245 0.775928
O O11 0.154033 0.102297 0.485526
O O12 0.574082 0.435185 0.437763
O O13 0.295238 0.700287 0.634787
O O14 0.336965 0.691952 0.452654
#
# Coordination Sequence:
#
# PCOD9292043 Si02
#       8
#     8   8   4   4   8   8   8   8
#     4  11  26  43  72 101 136 182 228 288 342 412
#     4  11  24  45  70 100 135 184 225 292 338 413
#     4  10  24  41  67 100 134 172 218 292 333 399
#     4  12  24  47  69 104 140 182 232 284 347 413
#     4  11  25  48  71  98 141 182 234 278 350 414
#     4  11  24  44  69 101 133 174 233 281 341 408
#     4  11  23  42  69  96 130 178 222 277 338 407
#     4  10  22  43  65  95 134 172 220 274 343 397
#
# _framework density 23.060570999999999
#
# number of rings (size 3 to 8) (size 9 to 14) (size 15 to 20)
#    0.000    1.143    4.286    0.857    6.000    1.714 
#   10.286    0.000    0.000    0.000    0.000    0.000 
#    0.000    0.000    0.000    0.000    0.000    0.000 
#
# Total GULP energy -156754.590372 kJ/mol
# GULP energy per Si atom -5598.378228 kJ/mol
# Density = 2.300808 g / cm^3
# Si number density = 23.060571 Si / 1000 Ang^3
#
#
#
# Elastic Constant Matrix: (Units=GPa)
#
#
# Indices 1 2 3 4 5 6 
#
# 1 121.4142 3.8735 19.7188 0.0000 -13.7847 0.0000
# 2 3.8735 57.4456 8.5856 0.0000 -6.0390 0.0000
# 3 19.7188 8.5856 62.6299 0.0000 2.5498 0.0000
# 4 0.0000 0.0000 0.0000 18.2800 0.0000 -3.8787
# 5 -13.7847 -6.0390 2.5498 0.0000 39.3302 0.0000
# 6 0.0000 0.0000 0.0000 -3.8787 0.0000 30.1131
#
#
#
# Elastic Compliance Matrix: (Units=1/GPa)
#
#
# Indices 1 2 3 4 5 6 
#
# 1 0.009111 0.000199 -0.003035 0.000000 0.003421 0.000000
# 2 0.000199 0.018111 -0.002668 0.000000 0.003024 0.000000
# 3 -0.003035 -0.002668 0.017394 0.000000 -0.002601 0.000000
# 4 0.000000 0.000000 0.000000 0.056242 0.000000 0.007244
# 5 0.003421 0.003024 -0.002601 0.000000 0.027258 0.000000
# 6 0.000000 0.000000 0.000000 0.007244 0.000000 0.034141
#
#
# Mechanical properties :
#
#
# Convention : Reuss Voigt Hill
#
# Bulk Modulus (GPa) = 29.75580 33.98282 31.86931
# Shear Modulus (GPa) = 27.10488 31.49878 29.30183
#
# Velocity S-wave (km/s) = 3.43210 3.69984 3.56848
# Velocity P-wave (km/s) = 5.35136 5.74631 5.55235
#
# Compressibility (1/GPa) = 0.03360690
#
# Stress axis : x y z
#
# Youngs Moduli (GPa) = 109.75471 55.21495 57.49066
#
# Poissons Ratio (x) = -0.01098 0.17449
# Poissons Ratio (y) = -0.02183 0.15341
# Poissons Ratio (z) = 0.33312 0.14734
#
# Static dielectric constant tensor:
#      x y z
#    x 1.874480 0.000000 -0.023290 
#    y 0.000000 1.819750 0.000000 
#    z -0.023290 0.000000 1.875590 
# 
# From -- ./inp_files/144284.got.cif
#   From: 2010.05.17/outbox.cif.g08.bks.cpg/sg15_73_cif.got.tgz:144284.got - 2010.06.03 18:47:42.
