data_PCOD9292029
_publ_section_title
;
Structure prediction by ZEFSAII (Michael W. Deem and Ramdas Pophale) SiO2 
 PCOD9292029
Probable space group: C 2/C
;
_chemical_formula_sum "Si O2"
_cell_formula_units_Z 52
_cell_length_a 16.418446
_cell_length_b 27.377258
_cell_length_c 9.366736
_cell_angle_alpha 90.000000
_cell_angle_beta 34.226905
_cell_angle_gamma 90.000000
_cell_volume 2368.159511
_symmetry_space_group_name_H-M "C 2/C"
_symmetry_group_IT_number 15
_symmetry_cell_setting 'monoclinic'
loop_
_space_group_symop_operation_xyz
x,y,z
-x,y,1/2-z
-x,-y,-z
x,-y,1/2+z
1/2+x,1/2+y,z
1/2-x,1/2+y,1/2-z
1/2-x,1/2-y,-z
1/2+x,1/2-y,1/2+z
loop_
_atom_site_type_symbol
_atom_site_label
_atom_site_fract_x
_atom_site_fract_y
_atom_site_fract_z
Si Si1 0.667776 0.701592 0.971220
Si Si2 0.258611 0.806304 0.667595
Si Si3 0.500000 0.133288 0.750000
Si Si4 0.155745 0.901629 0.335894
Si Si5 0.608629 0.598035 0.462631
Si Si6 0.149600 0.556959 0.721987
Si Si7 0.341906 0.945701 0.812626
O O1 0.740916 0.749446 0.796350
O O2 0.669600 0.654323 0.868071
O O3 0.500000 0.713318 0.250000
O O4 0.739673 0.692324 0.022152
O O5 0.412932 0.830942 0.480246
O O6 0.147201 0.844560 0.894910
O O7 0.616595 0.098174 0.654155
O O8 0.209364 0.932961 0.390839
O O9 0.991355 0.913548 0.528479
O O10 0.266034 0.913960 0.045985
O O11 0.500000 0.590597 0.750000
O O12 0.747383 0.566237 0.307458
O O13 0.161145 0.502805 0.643545
O O14 0.009264 0.562345 0.029494
#
# Coordination Sequence:
#
# PCOD9292029 Si02
#       7
#     8   8   4   8   8   8   8
#     4  11  22  39  65  95 125 169 219 276 327 390
#     4  11  22  40  65  94 131 168 222 273 330 388
#     4  12  22  38  66 100 126 168 226 272 320 384
#     4  11  23  42  64  96 132 171 219 269 329 397
#     4  10  22  43  65  93 135 174 214 273 333 395
#     4  11  24  40  66  95 130 175 221 270 323 387
#     4  10  24  42  64  93 131 175 220 269 328 390
#
# _framework density 21.957979999999999
#
# number of rings (size 3 to 8) (size 9 to 14) (size 15 to 20)
#    0.000    1.231    5.385    0.462    4.308    0.615 
#    0.000   10.000    0.000    0.000    0.000    0.000 
#    0.000    0.000    0.000    0.000    0.000    0.000 
#
# Total GULP energy -145178.575928 kJ/mol
# GULP energy per Si atom -5583.791382 kJ/mol
# Density = 2.190800 g / cm^3
# Si number density = 21.957980 Si / 1000 Ang^3
#
#
#
# Elastic Constant Matrix: (Units=GPa)
#
#
# Indices 1 2 3 4 5 6 
#
# 1 82.6285 22.3752 16.2758 0.0000 -22.3373 0.0000
# 2 22.3752 93.1990 0.5531 0.0000 -8.3932 0.0000
# 3 16.2758 0.5531 47.8503 0.0000 -11.4219 -0.0001
# 4 0.0000 0.0000 0.0000 34.3451 0.0000 3.3635
# 5 -22.3373 -8.3932 -11.4219 0.0000 31.4717 0.0000
# 6 0.0000 0.0000 -0.0001 3.3635 0.0000 24.6361
#
#
#
# Elastic Compliance Matrix: (Units=1/GPa)
#
#
# Indices 1 2 3 4 5 6 
#
# 1 0.016101 -0.002993 -0.003180 0.000000 0.009475 0.000000
# 2 -0.002993 0.011567 0.001219 0.000000 0.001403 0.000000
# 3 -0.003180 0.001219 0.023545 0.000000 0.006613 0.000000
# 4 0.000000 0.000000 0.000000 0.029511 0.000000 -0.004029
# 5 0.009475 0.001403 0.006613 0.000000 0.041274 0.000000
# 6 0.000000 0.000000 0.000000 -0.004029 0.000000 0.041141
#
#
# Mechanical properties :
#
#
# Convention : Reuss Voigt Hill
#
# Bulk Modulus (GPa) = 24.21038 33.56511 28.88775
# Shear Modulus (GPa) = 26.76442 30.38881 28.57662
#
# Velocity S-wave (km/s) = 3.49505 3.72419 3.61144
# Velocity P-wave (km/s) = 5.22847 5.81481 5.52942
#
# Compressibility (1/GPa) = 0.04130460
#
# Stress axis : x y z
#
# Youngs Moduli (GPa) = 62.10861 86.44934 42.47250
#
# Poissons Ratio (x) = 0.25877 0.13507
# Poissons Ratio (y) = 0.18591 -0.05179
# Poissons Ratio (z) = 0.19752 -0.10541
#
# Static dielectric constant tensor:
#      x y z
#    x 1.876780 0.000000 -0.008620 
#    y 0.000000 1.768790 0.000000 
#    z -0.008620 0.000000 1.835570 
# 
# From -- ./inp_files/108325.got.cif
#   From: 2010.05.17/outbox.cif.g08.bks.cpg/sg15_55_cif.got.tgz:108325.got - 2010.06.03 18:47:42.
