data_PCOD9292181
_publ_section_title
;
Structure prediction by ZEFSAII (Michael W. Deem and Ramdas Pophale) SiO2 
 PCOD9292181
Probable space group: C 2/C
;
_chemical_formula_sum "Si O2"
_cell_formula_units_Z 24
_cell_length_a 12.972769
_cell_length_b 5.163692
_cell_length_c 13.870654
_cell_angle_alpha 90.000000
_cell_angle_beta 81.648704
_cell_angle_gamma 90.000000
_cell_volume 919.306161
_symmetry_space_group_name_H-M "C 2/C"
_symmetry_group_IT_number 15
_symmetry_cell_setting 'monoclinic'
loop_
_space_group_symop_operation_xyz
x,y,z
-x,y,1/2-z
-x,-y,-z
x,-y,1/2+z
1/2+x,1/2+y,z
1/2-x,1/2+y,1/2-z
1/2-x,1/2-y,-z
1/2+x,1/2-y,1/2+z
loop_
_atom_site_type_symbol
_atom_site_label
_atom_site_fract_x
_atom_site_fract_y
_atom_site_fract_z
Si Si1 0.165830 0.145247 0.846910
Si Si2 0.598863 0.953200 0.685363
Si Si3 0.638073 0.165246 0.972403
O O1 0.121766 0.199357 0.746946
O O2 0.152725 0.404769 0.910709
O O3 0.290524 0.098148 0.824268
O O4 0.111046 0.905454 0.907767
O O5 0.500000 0.081625 0.750000
O O6 0.573749 0.890011 0.578005
O O7 0.750000 0.250000 0.000000
#
# Coordination Sequence:
#
# PCOD9292181 Si02
#       3
#     8   8   8
#     4  11  24  45  66  96 139 174 219 279 333 396
#     4  11  24  44  73 102 133 180 229 275 335 401
#     4  10  22  43  67  94 136 178 215 275 339 391
#
# _framework density 26.106646000000001
#
# number of rings (size 3 to 8) (size 9 to 14) (size 15 to 20)
#    0.000    1.333    0.000    8.000    0.000    5.333 
#    0.000   38.333    0.000    2.000    0.000    0.000 
#    0.000    0.000    0.000    0.000    0.000    0.000 
#
# Total GULP energy -67308.681208 kJ/mol
# GULP energy per Si atom -5609.056767 kJ/mol
# Density = 2.604723 g / cm^3
# Si number density = 26.106646 Si / 1000 Ang^3
#
#
#
# Elastic Constant Matrix: (Units=GPa)
#
#
# Indices 1 2 3 4 5 6 
#
# 1 137.2473 27.8324 47.2862 0.0000 -19.2389 0.0000
# 2 27.8324 187.3667 102.1648 0.0000 -11.5632 0.0000
# 3 47.2862 102.1648 218.6070 0.0000 -25.2119 0.0000
# 4 0.0000 0.0000 0.0000 46.9570 0.0000 16.8358
# 5 -19.2389 -11.5632 -25.2119 0.0000 37.4145 0.0000
# 6 0.0000 0.0000 0.0000 16.8358 0.0000 22.8747
#
#
#
# Elastic Compliance Matrix: (Units=1/GPa)
#
#
# Indices 1 2 3 4 5 6 
#
# 1 0.008246 -0.000344 -0.001243 0.000000 0.003296 0.000000
# 2 -0.000344 0.007177 -0.003301 0.000000 -0.000183 0.000000
# 3 -0.001243 -0.003301 0.006716 0.000000 0.002867 0.000000
# 4 0.000000 0.000000 0.000000 0.028930 0.000000 -0.021293
# 5 0.003296 -0.000183 0.002867 0.000000 0.030298 0.000000
# 6 0.000000 0.000000 0.000000 -0.021293 0.000000 0.059388
#
#
# Mechanical properties :
#
#
# Convention : Reuss Voigt Hill
#
# Bulk Modulus (GPa) = 80.87648 99.75419 90.31533
# Shear Modulus (GPa) = 32.33076 45.84508 39.08792
#
# Velocity S-wave (km/s) = 3.52292 4.19509 3.87362
# Velocity P-wave (km/s) = 6.89888 7.85865 7.39435
#
# Compressibility (1/GPa) = 0.01236453
#
# Stress axis : x y z
#
# Youngs Moduli (GPa) = 121.26901 139.34033 148.88830
#
# Poissons Ratio (x) = 0.04791 0.18504
# Poissons Ratio (y) = 0.04169 0.49144
# Poissons Ratio (z) = 0.15072 0.45992
#
# Static dielectric constant tensor:
#      x y z
#    x 2.094530 0.000000 -0.030840 
#    y 0.000000 2.012600 0.000000 
#    z -0.030840 0.000000 2.091640 
# 
# From -- ./inp_files/149479.got.cif
#   From: 2010.05.17/outbox.cif.g08.bks.cpg/sg15_75_cif.got.tgz:149479.got - 2010.06.03 18:47:42.
