data_PCOD9292627
_publ_section_title
;
Structure prediction by ZEFSAII (Michael W. Deem and Ramdas Pophale) SiO2 
 PCOD9292627
Probable space group: C 2/C
;
_chemical_formula_sum "Si O2"
_cell_formula_units_Z 64
_cell_length_a 30.880430
_cell_length_b 12.790068
_cell_length_c 9.320263
_cell_angle_alpha 90.000000
_cell_angle_beta 130.765497
_cell_angle_gamma 90.000000
_cell_volume 2788.065746
_symmetry_space_group_name_H-M "C 2/C"
_symmetry_group_IT_number 15
_symmetry_cell_setting 'monoclinic'
loop_
_space_group_symop_operation_xyz
x,y,z
-x,y,1/2-z
-x,-y,-z
x,-y,1/2+z
1/2+x,1/2+y,z
1/2-x,1/2+y,1/2-z
1/2-x,1/2-y,-z
1/2+x,1/2-y,1/2+z
loop_
_atom_site_type_symbol
_atom_site_label
_atom_site_fract_x
_atom_site_fract_y
_atom_site_fract_z
Si Si1 0.552998 0.255754 0.970917
Si Si2 0.776520 0.193147 0.419959
Si Si3 0.587748 0.633046 0.086666
Si Si4 0.846566 0.377868 0.883593
Si Si5 0.983092 0.345648 0.549155
Si Si6 0.807073 0.717497 0.701798
Si Si7 0.896063 0.925459 0.205293
Si Si8 0.624595 0.974448 0.279238
O O1 0.500000 0.277013 0.750000
O O2 0.609493 0.218663 0.005826
O O3 0.532001 0.164740 0.035065
O O4 0.571814 0.349405 0.114281
O O5 0.750000 0.250000 0.500000
O O6 0.719838 0.140031 0.230436
O O7 0.798229 0.278599 0.353144
O O8 0.829016 0.113055 0.563500
O O9 0.648056 0.690857 0.229626
O O10 0.589290 0.540574 0.205319
O O11 0.543568 0.728058 0.009991
O O12 0.583509 0.589574 0.914541
O O13 0.854960 0.417432 0.741048
O O14 0.870262 0.466858 0.039627
O O15 0.936866 0.430003 0.399042
O O16 0.000000 0.367265 0.750000
O O17 0.750000 0.750000 0.500000
O O18 0.832003 0.611413 0.693193
#
# Coordination Sequence:
#
# PCOD9292627 Si02
#       8
#     8   8   8   8   8   8   8   8
#     4  12  26  46  69  98 135 177 232 277 340 396
#     4  11  24  43  70  97 140 178 219 276 331 399
#     4  10  25  41  67 101 134 172 227 269 340 398
#     4  12  27  44  68 106 134 180 228 273 341 402
#     4  11  24  47  70  94 136 181 222 286 334 394
#     4  10  22  44  65  94 134 181 218 267 331 397
#     4  11  25  43  67 104 135 177 221 279 334 408
#     4  11  27  44  68 100 138 174 228 280 335 400
#
# _framework density 22.954981
#
# number of rings (size 3 to 8) (size 9 to 14) (size 15 to 20)
#    0.000    1.000    5.000    0.000    7.000    3.000 
#    0.000    0.000    0.000    0.000    0.000    0.000 
#    0.000    0.000    0.000    0.000    0.000    0.000 
#
# Total GULP energy -178986.670877 kJ/mol
# GULP energy per Si atom -5593.333465 kJ/mol
# Density = 2.290273 g / cm^3
# Si number density = 22.954981 Si / 1000 Ang^3
#
#
#
# Elastic Constant Matrix: (Units=GPa)
#
#
# Indices 1 2 3 4 5 6 
#
# 1 55.5857 14.4204 12.6903 0.0000 0.6045 0.0000
# 2 14.4204 58.2984 21.5705 0.0000 6.7702 0.0000
# 3 12.6903 21.5705 130.6713 0.0000 9.4156 0.0000
# 4 0.0000 0.0000 0.0000 15.3052 0.0000 -16.0581
# 5 0.6045 6.7702 9.4156 0.0000 36.4254 0.0000
# 6 0.0000 0.0000 0.0000 -16.0581 0.0000 24.7243
#
#
#
# Elastic Compliance Matrix: (Units=1/GPa)
#
#
# Indices 1 2 3 4 5 6 
#
# 1 0.019412 -0.004449 -0.001210 0.000000 0.000817 0.000000
# 2 -0.004449 0.019546 -0.002586 0.000000 -0.002891 0.000000
# 3 -0.001210 -0.002586 0.008316 0.000000 -0.001649 0.000000
# 4 0.000000 0.000000 0.000000 0.205100 0.000000 0.133210
# 5 0.000817 -0.002891 -0.001649 0.000000 0.028403 0.000000
# 6 0.000000 0.000000 0.000000 0.133210 0.000000 0.126964
#
#
# Mechanical properties :
#
#
# Convention : Reuss Voigt Hill
#
# Bulk Modulus (GPa) = 32.48419 37.99085 35.23752
# Shear Modulus (GPa) = 11.50770 28.34930 19.92850
#
# Velocity S-wave (km/s) = 2.24144 3.51806 2.94964
# Velocity P-wave (km/s) = 4.56954 5.75226 5.19467
#
# Compressibility (1/GPa) = 0.03078420
#
# Stress axis : x y z
#
# Youngs Moduli (GPa) = 51.51538 51.16091 120.25019
#
# Poissons Ratio (x) = 0.22761 0.14547
# Poissons Ratio (y) = 0.22919 0.31099
# Poissons Ratio (z) = 0.06232 0.13231
#
# Static dielectric constant tensor:
#      x y z
#    x 1.921960 0.000000 -0.004780 
#    y 0.000000 1.840630 0.000000 
#    z -0.004780 0.000000 1.893630 
# 
# From -- ./inp_files/70177.got.cif
#   From: 2010.05.17/outbox.cif.g08.bks.cpg/sg15_36_cif.got.tgz:70177.got - 2010.06.03 18:47:42.
