data_PCOD9292768
_publ_section_title
;
Structure prediction by ZEFSAII (Michael W. Deem and Ramdas Pophale) SiO2 
 PCOD9292768
Probable space group: C 2/C
;
_chemical_formula_sum "Si O2"
_cell_formula_units_Z 48
_cell_length_a 27.734804
_cell_length_b 14.275492
_cell_length_c 14.322981
_cell_angle_alpha 90.000000
_cell_angle_beta 155.958210
_cell_angle_gamma 90.000000
_cell_volume 2310.328125
_symmetry_space_group_name_H-M "C 2/C"
_symmetry_group_IT_number 15
_symmetry_cell_setting 'monoclinic'
loop_
_space_group_symop_operation_xyz
x,y,z
-x,y,1/2-z
-x,-y,-z
x,-y,1/2+z
1/2+x,1/2+y,z
1/2-x,1/2+y,1/2-z
1/2-x,1/2-y,-z
1/2+x,1/2-y,1/2+z
loop_
_atom_site_type_symbol
_atom_site_label
_atom_site_fract_x
_atom_site_fract_y
_atom_site_fract_z
Si Si1 0.599745 0.205480 0.855070
Si Si2 0.645283 0.742948 0.108649
Si Si3 0.000000 0.399388 0.750000
Si Si4 0.601185 0.013474 0.754841
Si Si5 0.975792 0.159868 0.434119
Si Si6 0.360227 0.470546 0.182852
Si Si7 0.000000 0.086923 0.750000
O O1 0.500000 0.171928 0.750000
O O2 0.623650 0.120791 0.825630
O O3 0.543765 0.291873 0.699036
O O4 0.719059 0.236020 0.119508
O O5 0.567191 0.732350 0.064053
O O6 0.600849 0.833697 0.975009
O O7 0.603232 0.653889 0.973129
O O8 0.061388 0.459633 0.777858
O O9 0.500000 0.000000 0.500000
O O10 0.721235 0.972411 0.923637
O O11 0.101984 0.118149 0.687031
O O12 0.894966 0.066722 0.295989
O O13 0.439059 0.467124 0.228000
#
# Coordination Sequence:
#
# PCOD9292768 Si02
#       7
#     8   8   4   8   8   8   4
#     4  12  26  42  66 102 136 179 230 281 345 412
#     4  10  22  46  67  92 139 178 230 284 336 411
#     4  11  26  46  71 100 138 188 225 276 356 407
#     4  12  27  46  69 104 143 183 224 287 354 415
#     4  10  22  44  67  98 127 180 227 283 340 395
#     4  10  23  43  71  99 136 172 233 282 337 410
#     4   9  22  42  69 100 130 182 227 290 338 397
#
# _framework density 20.77627
#
# number of rings (size 3 to 8) (size 9 to 14) (size 15 to 20)
#    0.000    1.333    2.500    1.500    8.167    0.000 
#    0.000    3.333    0.000    0.000    0.000    0.000 
#    0.000    0.000    0.000    0.000    0.000    0.000 
#
# Total GULP energy -134076.512800 kJ/mol
# GULP energy per Si atom -5586.521367 kJ/mol
# Density = 2.072898 g / cm^3
# Si number density = 20.776270 Si / 1000 Ang^3
#
#
#
# Elastic Constant Matrix: (Units=GPa)
#
#
# Indices 1 2 3 4 5 6 
#
# 1 74.0511 37.1912 39.6178 0.0000 -10.2678 0.0000
# 2 37.1912 84.3781 50.4863 0.0000 -6.3021 0.0000
# 3 39.6178 50.4863 172.7014 0.0000 -1.9503 0.0000
# 4 0.0000 0.0000 0.0000 19.9612 0.0000 -13.0879
# 5 -10.2678 -6.3021 -1.9503 0.0000 33.2266 0.0000
# 6 0.0000 0.0000 0.0000 -13.0879 0.0000 23.7519
#
#
#
# Elastic Compliance Matrix: (Units=1/GPa)
#
#
# Indices 1 2 3 4 5 6 
#
# 1 0.018613 -0.006486 -0.002324 0.000000 0.004385 0.000000
# 2 -0.006486 0.016831 -0.003421 0.000000 0.000987 0.000000
# 3 -0.002324 -0.003421 0.007313 0.000000 -0.000938 0.000000
# 4 0.000000 0.000000 0.000000 0.078435 0.000000 0.043220
# 5 0.004385 0.000987 -0.000938 0.000000 0.031584 0.000000
# 6 0.000000 0.000000 0.000000 0.043220 0.000000 0.065917
#
#
# Mechanical properties :
#
#
# Convention : Reuss Voigt Hill
#
# Bulk Modulus (GPa) = 54.66148 65.08012 59.87080
# Shear Modulus (GPa) = 20.05989 28.97697 24.51843
#
# Velocity S-wave (km/s) = 3.11065 3.73864 3.43901
# Velocity P-wave (km/s) = 6.26644 7.07311 6.68196
#
# Compressibility (1/GPa) = 0.01829442
#
# Stress axis : x y z
#
# Youngs Moduli (GPa) = 53.72528 59.41433 136.74109
#
# Poissons Ratio (x) = 0.38535 0.31783
# Poissons Ratio (y) = 0.34845 0.46782
# Poissons Ratio (z) = 0.12488 0.20327
#
# Static dielectric constant tensor:
#      x y z
#    x 1.755150 0.000000 -0.024340 
#    y 0.000000 1.756770 0.000000 
#    z -0.024340 0.000000 1.741000 
# 
# From -- ./inp_files/144419.got.cif
#   From: 2010.05.17/outbox.cif.g08.bks.cpg/sg15_73_cif.got.tgz:144419.got - 2010.06.03 18:47:42.
