data_PCOD9292934
_publ_section_title
;
Structure prediction by ZEFSAII (Michael W. Deem and Ramdas Pophale) SiO2 
 PCOD9292934
Probable space group: C 2/C
;
_chemical_formula_sum "Si O2"
_cell_formula_units_Z 44
_cell_length_a 19.566825
_cell_length_b 15.236609
_cell_length_c 8.250486
_cell_angle_alpha 90.000000
_cell_angle_beta 56.382312
_cell_angle_gamma 90.000000
_cell_volume 2048.344713
_symmetry_space_group_name_H-M "C 2/C"
_symmetry_group_IT_number 15
_symmetry_cell_setting 'monoclinic'
loop_
_space_group_symop_operation_xyz
x,y,z
-x,y,1/2-z
-x,-y,-z
x,-y,1/2+z
1/2+x,1/2+y,z
1/2-x,1/2+y,1/2-z
1/2-x,1/2-y,-z
1/2+x,1/2-y,1/2+z
loop_
_atom_site_type_symbol
_atom_site_label
_atom_site_fract_x
_atom_site_fract_y
_atom_site_fract_z
Si Si1 0.428480 0.573008 0.736850
Si Si2 0.648048 0.950070 0.878147
Si Si3 0.904788 0.383765 0.900862
Si Si4 0.446194 0.277396 0.546684
Si Si5 0.000000 0.644201 0.750000
Si Si6 0.165030 0.077634 0.320928
O O1 0.500000 0.525835 0.750000
O O2 0.479409 0.655806 0.598805
O O3 0.383800 0.508871 0.671820
O O4 0.359583 0.595531 0.959927
O O5 0.638210 0.908366 0.712440
O O6 0.738767 0.931321 0.823984
O O7 0.577355 0.911185 0.086166
O O8 0.633067 0.054693 0.909508
O O9 0.000000 0.407647 0.750000
O O10 0.908696 0.282532 0.951126
O O11 0.477110 0.206537 0.631692
O O12 0.376002 0.339522 0.713373
#
# Coordination Sequence:
#
# PCOD9292934 Si02
#       6
#     8   8   8   8   4   8
#     4  10  22  44  70 102 137 186 219 276 351 410
#     4  12  26  44  70 101 140 184 226 289 343 406
#     4  12  22  45  69  98 133 183 236 272 337 415
#     4  11  25  43  72 100 136 183 234 280 337 419
#     4  12  26  44  68 100 136 190 230 280 348 404
#     4  11  25  44  69 106 139 180 228 285 351 398
#
# _framework density 21.480761000000001
#
# number of rings (size 3 to 8) (size 9 to 14) (size 15 to 20)
#    0.000    0.727    2.727    6.545    3.818    1.455 
#    3.273    0.000    0.000    0.000    0.000    0.000 
#    0.000    0.000    0.000    0.000    0.000    0.000 
#
# Total GULP energy -122829.992374 kJ/mol
# GULP energy per Si atom -5583.181472 kJ/mol
# Density = 2.143187 g / cm^3
# Si number density = 21.480761 Si / 1000 Ang^3
#
#
#
# Elastic Constant Matrix: (Units=GPa)
#
#
# Indices 1 2 3 4 5 6 
#
# 1 112.2825 70.7224 44.7903 0.0000 -18.3722 0.0000
# 2 70.7224 154.8273 49.5724 0.0000 -10.9214 0.0000
# 3 44.7903 49.5724 71.6271 0.0000 -10.6114 0.0000
# 4 0.0000 0.0000 0.0000 -33.4832 0.0000 8.3344
# 5 -18.3722 -10.9214 -10.6114 0.0000 42.2607 0.0000
# 6 0.0000 0.0000 0.0000 8.3344 0.0000 24.6094
#
#
#
# Elastic Compliance Matrix: (Units=1/GPa)
#
#
# Indices 1 2 3 4 5 6 
#
# 1 0.014613 -0.004704 -0.005319 0.000000 0.003801 0.000000
# 2 -0.004704 0.009833 -0.003937 0.000000 -0.000492 0.000000
# 3 -0.005319 -0.003937 0.020273 0.000000 0.001761 0.000000
# 4 0.000000 0.000000 0.000000 -0.027544 0.000000 0.009328
# 5 0.003801 -0.000492 0.001761 0.000000 0.025630 0.000000
# 6 0.000000 0.000000 0.000000 0.009328 0.000000 0.037476
#
#
# Mechanical properties :
#
#
# Convention : Reuss Voigt Hill
#
# Bulk Modulus (GPa) = 59.52681 74.32301 66.92491
# Shear Modulus (GPa) = 43.93674 18.25418 31.09546
#
# Velocity S-wave (km/s) = 4.52752 2.91828 3.80886
# Velocity P-wave (km/s) = 7.42314 6.78455 7.11102
#
# Compressibility (1/GPa) = 0.01679915
#
# Stress axis : x y z
#
# Youngs Moduli (GPa) = 68.43443 101.69680 49.32656
#
# Poissons Ratio (x) = 0.47833 0.26238
# Poissons Ratio (y) = 0.32188 0.19420
# Poissons Ratio (z) = 0.36401 0.40039
#
# Static dielectric constant tensor:
#      x y z
#    x 1.801610 0.000000 0.057050 
#    y 0.000000 1.816060 0.000000 
#    z 0.057050 0.000000 1.818260 
# 
# From -- ./inp_files/47378.got.cif
#   From: 2010.05.17/outbox.cif.g08.bks.cpg/sg15_24_cif.got.tgz:47378.got - 2010.06.03 18:47:42.
