data_PCOD9292857
_publ_section_title
;
Structure prediction by ZEFSAII (Michael W. Deem and Ramdas Pophale) SiO2 
 PCOD9292857
Probable space group: C 2/C
;
_chemical_formula_sum "Si O2"
_cell_formula_units_Z 60
_cell_length_a 16.467890
_cell_length_b 11.873801
_cell_length_c 19.692220
_cell_angle_alpha 90.000000
_cell_angle_beta 135.089605
_cell_angle_gamma 90.000000
_cell_volume 2718.486291
_symmetry_space_group_name_H-M "C 2/C"
_symmetry_group_IT_number 15
_symmetry_cell_setting 'monoclinic'
loop_
_space_group_symop_operation_xyz
x,y,z
-x,y,1/2-z
-x,-y,-z
x,-y,1/2+z
1/2+x,1/2+y,z
1/2-x,1/2+y,1/2-z
1/2-x,1/2-y,-z
1/2+x,1/2-y,1/2+z
loop_
_atom_site_type_symbol
_atom_site_label
_atom_site_fract_x
_atom_site_fract_y
_atom_site_fract_z
Si Si1 0.301593 0.533052 0.181034
Si Si2 0.361590 0.554726 0.963469
Si Si3 0.500000 0.311629 0.750000
Si Si4 0.631171 0.952961 0.830031
Si Si5 0.881320 0.726331 0.554984
Si Si6 0.879575 0.352970 0.825412
Si Si7 0.618393 0.963433 0.974061
Si Si8 0.545237 0.405888 0.124590
O O1 0.383536 0.614834 0.186143
O O2 0.225189 0.607601 0.188407
O O3 0.393666 0.458515 0.275061
O O4 0.218555 0.451357 0.088550
O O5 0.224547 0.550987 0.883632
O O6 0.396807 0.538327 0.907083
O O7 0.406353 0.674565 0.015942
O O8 0.415234 0.452942 0.040021
O O9 0.477172 0.240878 0.669433
O O10 0.500000 0.991726 0.750000
O O11 0.646514 0.879716 0.770180
O O12 0.644417 0.907739 0.915358
O O13 0.750000 0.750000 0.500000
O O14 0.885533 0.598898 0.533549
O O15 0.922422 0.224791 0.857842
O O16 0.990824 0.423402 0.915389
#
# Coordination Sequence:
#
# PCOD9292857 Si02
#       8
#     8   8   4   8   8   8   8   8
#     4  12  24  48  69 104 142 179 240 289 347 420
#     4  11  22  46  69 103 138 182 234 295 360 407
#     4  12  26  40  70 110 134 182 232 294 360 398
#     4  10  22  44  69 100 139 181 234 281 349 421
#     4  12  23  40  73 105 138 178 232 297 358 407
#     4  11  26  47  69 105 139 191 234 283 356 424
#     4  11  25  44  69 106 143 182 238 291 347 423
#     4  11  26  44  73  98 142 186 233 292 348 429
#
# _framework density 22.071107000000001
#
# number of rings (size 3 to 8) (size 9 to 14) (size 15 to 20)
#    0.000    0.800    5.333    1.200    2.800    2.133 
#    3.600    3.333    0.000    0.000    0.000    0.000 
#    0.000    0.000    0.000    0.000    0.000    0.000 
#
# Total GULP energy -167483.538793 kJ/mol
# GULP energy per Si atom -5582.784626 kJ/mol
# Density = 2.202087 g / cm^3
# Si number density = 22.071107 Si / 1000 Ang^3
#
#
#
# Elastic Constant Matrix: (Units=GPa)
#
#
# Indices 1 2 3 4 5 6 
#
# 1 73.1316 3.2279 15.7303 0.0000 10.5541 0.0000
# 2 3.2279 82.0871 22.9901 0.0000 7.0270 0.0000
# 3 15.7303 22.9901 125.0711 0.0000 -11.8062 0.0000
# 4 0.0000 0.0000 0.0000 23.7438 0.0000 -6.9719
# 5 10.5541 7.0270 -11.8062 0.0000 35.1949 0.0000
# 6 0.0000 0.0000 0.0000 -6.9719 0.0000 14.1546
#
#
#
# Elastic Compliance Matrix: (Units=1/GPa)
#
#
# Indices 1 2 3 4 5 6 
#
# 1 0.014973 0.000579 -0.002503 0.000000 -0.005445 0.000000
# 2 0.000579 0.013289 -0.002873 0.000000 -0.003791 0.000000
# 3 -0.002503 -0.002873 0.009257 0.000000 0.004430 0.000000
# 4 0.000000 0.000000 0.000000 0.049238 0.000000 0.024252
# 5 -0.005445 -0.003791 0.004430 0.000000 0.032289 0.000000
# 6 0.000000 0.000000 0.000000 0.024252 0.000000 0.082594
#
#
# Mechanical properties :
#
#
# Convention : Reuss Voigt Hill
#
# Bulk Modulus (GPa) = 35.81459 40.46514 38.13986
# Shear Modulus (GPa) = 22.67143 30.50808 26.58976
#
# Velocity S-wave (km/s) = 3.20847 3.72191 3.47469
# Velocity P-wave (km/s) = 5.47612 6.06992 5.78065
#
# Compressibility (1/GPa) = 0.02792159
#
# Stress axis : x y z
#
# Youngs Moduli (GPa) = 66.78783 75.25233 108.03101
#
# Poissons Ratio (x) = -0.04353 0.27045
# Poissons Ratio (y) = -0.03864 0.31040
# Poissons Ratio (z) = 0.16720 0.21622
#
# Static dielectric constant tensor:
#      x y z
#    x 1.883000 0.000000 -0.032330 
#    y 0.000000 1.814260 0.000000 
#    z -0.032330 0.000000 1.842120 
# 
# From -- ./inp_files/248797.got.cif
#   From: 2010.05.17/outbox.cif.g08.bks.cpg/sg15_125_cif.got.tgz:248797.got - 2010.06.03 18:47:42.
