data_PCOD9292371
_publ_section_title
;
Structure prediction by ZEFSAII (Michael W. Deem and Ramdas Pophale) SiO2 
 PCOD9292371
Probable space group: C 2/C
;
_chemical_formula_sum "Si O2"
_cell_formula_units_Z 36
_cell_length_a 25.496350
_cell_length_b 7.536866
_cell_length_c 17.090679
_cell_angle_alpha 90.000000
_cell_angle_beta 152.091509
_cell_angle_gamma 90.000000
_cell_volume 1537.199997
_symmetry_space_group_name_H-M "C 2/C"
_symmetry_group_IT_number 15
_symmetry_cell_setting 'monoclinic'
loop_
_space_group_symop_operation_xyz
x,y,z
-x,y,1/2-z
-x,-y,-z
x,-y,1/2+z
1/2+x,1/2+y,z
1/2-x,1/2+y,1/2-z
1/2-x,1/2-y,-z
1/2+x,1/2-y,1/2+z
loop_
_atom_site_type_symbol
_atom_site_label
_atom_site_fract_x
_atom_site_fract_y
_atom_site_fract_z
Si Si1 0.030874 0.149952 0.183600
Si Si2 0.699997 0.824845 0.095887
Si Si3 0.000000 0.518418 0.750000
Si Si4 0.809110 0.963520 0.480375
Si Si5 0.847526 0.171062 0.299979
O O1 0.030693 0.347161 0.220075
O O2 0.137229 0.049515 0.362687
O O3 0.040999 0.154582 0.104443
O O4 0.918698 0.061110 0.069115
O O5 0.747002 0.648854 0.116026
O O6 0.648267 0.764165 0.110732
O O7 0.786455 0.982264 0.225808
O O8 0.603114 0.900779 0.912827
O O9 0.730428 0.799441 0.356268
#
# Coordination Sequence:
#
# PCOD9292371 Si02
#       5
#     8   8   4   8   8
#     4  10  22  43  70  94 137 174 221 273 338 385
#     4  12  24  44  67  96 140 171 223 273 331 388
#     4  10  22  44  68  96 132 180 220 272 330 404
#     4  10  22  44  63  97 134 173 218 278 320 401
#     4  12  24  43  67  99 134 176 221 279 324 394
#
# _framework density 23.419203
#
# number of rings (size 3 to 8) (size 9 to 14) (size 15 to 20)
#    0.000    1.333    6.667    2.000    0.000    2.667 
#    4.000    0.000    0.000    0.000    0.000    0.000 
#    0.000    0.000    0.000    0.000    0.000    0.000 
#
# Total GULP energy -100768.936402 kJ/mol
# GULP energy per Si atom -5598.274245 kJ/mol
# Density = 2.336590 g / cm^3
# Si number density = 23.419203 Si / 1000 Ang^3
#
#
#
# Elastic Constant Matrix: (Units=GPa)
#
#
# Indices 1 2 3 4 5 6 
#
# 1 97.9739 41.1806 -5.3541 0.0000 -3.4750 0.0000
# 2 41.1806 146.1416 24.4247 0.0000 -11.3740 0.0000
# 3 -5.3541 24.4247 59.8809 0.0000 -2.3603 0.0000
# 4 0.0000 0.0000 0.0000 33.7260 0.0000 -21.2494
# 5 -3.4750 -11.3740 -2.3603 0.0000 4.7982 0.0000
# 6 0.0000 0.0000 0.0000 -21.2494 0.0000 7.6929
#
#
#
# Elastic Compliance Matrix: (Units=1/GPa)
#
#
# Indices 1 2 3 4 5 6 
#
# 1 0.011954 -0.003720 0.002631 0.000000 0.001134 0.000000
# 2 -0.003720 0.009996 -0.003653 0.000000 0.019204 0.000000
# 3 0.002631 -0.003653 0.018518 0.000000 0.002355 0.000000
# 4 0.000000 0.000000 0.000000 -0.040049 0.000000 -0.110624
# 5 0.001134 0.019204 0.002355 0.000000 0.255912 0.000000
# 6 0.000000 0.000000 0.000000 -0.110624 0.000000 -0.175577
#
#
# Mechanical properties :
#
#
# Convention : Reuss Voigt Hill
#
# Bulk Modulus (GPa) = 32.27449 47.16653 39.72051
# Shear Modulus (GPa) = 49.71835 25.49311 37.60573
#
# Velocity S-wave (km/s) = 4.61257 3.30291 4.01155
# Velocity P-wave (km/s) = 6.49453 5.89317 6.20114
#
# Compressibility (1/GPa) = 0.03098423
#
# Stress axis : x y z
#
# Youngs Moduli (GPa) = 83.65115 100.03918 54.00182
#
# Poissons Ratio (x) = 0.37215 -0.14207
# Poissons Ratio (y) = 0.31119 0.19727
# Poissons Ratio (z) = -0.22008 0.36544
#
# Static dielectric constant tensor:
#      x y z
#    x 1.910340 0.000000 -0.010740 
#    y 0.000000 1.872970 0.000000 
#    z -0.010740 0.000000 1.884620 
# 
# From -- ./inp_files/171547.got.cif
#   From: 2010.05.17/outbox.cif.g08.bks.cpg/sg15_86_cif.got.tgz:171547.got - 2010.06.03 18:47:42.
