data_PCOD9292182
_publ_section_title
;
Structure prediction by ZEFSAII (Michael W. Deem and Ramdas Pophale) SiO2 
 PCOD9292182
Probable space group: C 2/C
;
_chemical_formula_sum "Si O2"
_cell_formula_units_Z 52
_cell_length_a 19.894221
_cell_length_b 8.370973
_cell_length_c 14.794895
_cell_angle_alpha 90.000000
_cell_angle_beta 71.887590
_cell_angle_gamma 90.000000
_cell_volume 2341.765043
_symmetry_space_group_name_H-M "C 2/C"
_symmetry_group_IT_number 15
_symmetry_cell_setting 'monoclinic'
loop_
_space_group_symop_operation_xyz
x,y,z
-x,y,1/2-z
-x,-y,-z
x,-y,1/2+z
1/2+x,1/2+y,z
1/2-x,1/2+y,1/2-z
1/2-x,1/2-y,-z
1/2+x,1/2-y,1/2+z
loop_
_atom_site_type_symbol
_atom_site_label
_atom_site_fract_x
_atom_site_fract_y
_atom_site_fract_z
Si Si1 0.000000 0.405082 0.250000
Si Si2 0.062263 0.103202 0.926252
Si Si3 0.100843 0.804298 0.793709
Si Si4 0.903263 0.681917 0.243852
Si Si5 0.204865 0.127955 0.956754
Si Si6 0.664114 0.528189 0.639189
Si Si7 0.715385 0.956555 0.261467
O O1 0.026718 0.288915 0.318246
O O2 0.064467 0.529729 0.218211
O O3 0.048292 0.241634 0.856592
O O4 0.124138 0.173939 0.964000
O O5 0.098615 0.962380 0.853088
O O6 0.000000 0.000000 0.000000
O O7 0.160016 0.684570 0.803731
O O8 0.121186 0.867710 0.684969
O O9 0.885320 0.822321 0.319970
O O10 0.830524 0.617436 0.230600
O O11 0.247008 0.085411 0.848740
O O12 0.250000 0.250000 0.000000
O O13 0.192595 0.976699 0.026752
O O14 0.728917 0.529044 0.682037
#
# Coordination Sequence:
#
# PCOD9292182 Si02
#       7
#     4   8   8   8   8   8   8
#     4  10  24  40  66  94 126 190 236 262 354 422
#     4  11  26  43  69 100 144 187 238 285 355 431
#     4  10  22  43  67  94 138 188 219 291 349 417
#     4  10  23  42  66  96 140 182 224 296 344 413
#     4  12  24  40  72 108 135 184 237 293 347 424
#     4  11  22  38  70  96 136 175 231 283 350 416
#     4  11  21  45  67 103 140 172 234 290 360 400
#
# _framework density 22.205473000000001
#
# number of rings (size 3 to 8) (size 9 to 14) (size 15 to 20)
#    0.000    1.231    4.615    1.846    4.308    1.846 
#    0.000    3.077    0.000    0.000    0.000    0.000 
#    0.000    0.000    0.000    0.000    0.000    0.000 
#
# Total GULP energy -145078.744871 kJ/mol
# GULP energy per Si atom -5579.951726 kJ/mol
# Density = 2.215493 g / cm^3
# Si number density = 22.205473 Si / 1000 Ang^3
#
#
#
# Elastic Constant Matrix: (Units=GPa)
#
#
# Indices 1 2 3 4 5 6 
#
# 1 110.8662 17.9708 16.6567 0.0000 9.8130 0.0000
# 2 17.9708 76.2943 -7.0009 0.0000 8.7761 0.0000
# 3 16.6567 -7.0009 60.2612 0.0000 6.6343 0.0000
# 4 0.0000 0.0000 0.0000 19.1405 0.0000 6.9945
# 5 9.8130 8.7761 6.6343 0.0000 24.6328 0.0000
# 6 0.0000 0.0000 0.0000 6.9945 0.0000 37.5613
#
#
#
# Elastic Compliance Matrix: (Units=1/GPa)
#
#
# Indices 1 2 3 4 5 6 
#
# 1 0.010030 -0.002340 -0.002779 0.000000 -0.002414 0.000000
# 2 -0.002340 0.014499 0.002883 0.000000 -0.005010 0.000000
# 3 -0.002779 0.002883 0.018229 0.000000 -0.004830 0.000000
# 4 0.000000 0.000000 0.000000 0.056060 0.000000 -0.010439
# 5 -0.002414 -0.005010 -0.004830 0.000000 0.044644 0.000000
# 6 0.000000 0.000000 0.000000 -0.010439 0.000000 0.028567
#
#
# Mechanical properties :
#
#
# Convention : Reuss Voigt Hill
#
# Bulk Modulus (GPa) = 26.11844 33.63054 29.87449
# Shear Modulus (GPa) = 26.41829 30.91993 28.66911
#
# Velocity S-wave (km/s) = 3.45297 3.73560 3.59706
# Velocity P-wave (km/s) = 5.26166 5.81243 5.54389
#
# Compressibility (1/GPa) = 0.03828712
#
# Stress axis : x y z
#
# Youngs Moduli (GPa) = 99.69826 68.96976 54.85744
#
# Poissons Ratio (x) = 0.16138 0.15242
# Poissons Ratio (y) = 0.23328 -0.15814
# Poissons Ratio (z) = 0.27702 -0.19882
#
# Static dielectric constant tensor:
#      x y z
#    x 1.905030 0.000000 -0.003770 
#    y 0.000000 1.848750 0.000000 
#    z -0.003770 0.000000 1.858230 
# 
# From -- ./inp_files/166237.got.cif
#   From: 2010.05.17/outbox.cif.g08.bks.cpg/sg15_84_cif.got.tgz:166237.got - 2010.06.03 18:47:42.
