data_PCOD9292119
_publ_section_title
;
Structure prediction by ZEFSAII (Michael W. Deem and Ramdas Pophale) SiO2 
 PCOD9292119
Probable space group: C 2/C
;
_chemical_formula_sum "Si O2"
_cell_formula_units_Z 32
_cell_length_a 8.106847
_cell_length_b 12.473436
_cell_length_c 15.183502
_cell_angle_alpha 90.000000
_cell_angle_beta 113.963415
_cell_angle_gamma 90.000000
_cell_volume 1403.019003
_symmetry_space_group_name_H-M "C 2/C"
_symmetry_group_IT_number 15
_symmetry_cell_setting 'monoclinic'
loop_
_space_group_symop_operation_xyz
x,y,z
-x,y,1/2-z
-x,-y,-z
x,-y,1/2+z
1/2+x,1/2+y,z
1/2-x,1/2+y,1/2-z
1/2-x,1/2-y,-z
1/2+x,1/2-y,1/2+z
loop_
_atom_site_type_symbol
_atom_site_label
_atom_site_fract_x
_atom_site_fract_y
_atom_site_fract_z
Si Si1 0.468840 0.958829 0.395112
Si Si2 0.628087 0.414432 0.076850
Si Si3 0.367544 0.265506 0.937300
Si Si4 0.337552 0.434465 0.776221
O O1 0.662797 0.936309 0.394880
O O2 0.374358 0.844680 0.386457
O O3 0.500000 0.000000 0.500000
O O4 0.344566 0.042195 0.316137
O O5 0.559803 0.303503 0.020939
O O6 0.599489 0.449488 0.171258
O O7 0.500000 0.500000 0.000000
O O8 0.309416 0.354640 0.852744
O O9 0.250000 0.250000 0.000000
O O10 0.500000 0.392983 0.750000
#
# Coordination Sequence:
#
# PCOD9292119 Si02
#       4
#     8   8   8   8
#     4  12  24  42  69 101 137 181 226 285 351 416
#     4  10  22  43  66  97 136 177 227 284 341 409
#     4  11  24  45  71 102 139 184 233 292 352 412
#     4  11  24  44  68 102 140 182 233 289 349 421
#
# _framework density 22.807960000000001
#
# number of rings (size 3 to 8) (size 9 to 14) (size 15 to 20)
#    0.000    1.000    0.000    9.000    0.000    4.000 
#    0.000   10.000    0.000    0.000    0.000    0.000 
#    0.000    0.000    0.000    0.000    0.000    0.000 
#
# Total GULP energy -89375.468243 kJ/mol
# GULP energy per Si atom -5585.966765 kJ/mol
# Density = 2.275605 g / cm^3
# Si number density = 22.807960 Si / 1000 Ang^3
#
#
#
# Elastic Constant Matrix: (Units=GPa)
#
#
# Indices 1 2 3 4 5 6 
#
# 1 154.1538 35.9692 53.8747 0.0000 -4.4695 0.0000
# 2 35.9692 98.1933 51.0925 0.0000 -2.1875 0.0000
# 3 53.8747 51.0925 158.6094 0.0000 7.4804 0.0000
# 4 0.0000 0.0000 0.0000 46.1073 0.0000 -7.5731
# 5 -4.4695 -2.1875 7.4804 0.0000 41.1574 0.0000
# 6 0.0000 0.0000 0.0000 -7.5731 0.0000 23.9985
#
#
#
# Elastic Compliance Matrix: (Units=1/GPa)
#
#
# Indices 1 2 3 4 5 6 
#
# 1 0.007649 -0.001679 -0.002110 0.000000 0.001125 0.000000
# 2 -0.001679 0.012681 -0.003569 0.000000 0.001140 0.000000
# 3 -0.002110 -0.003569 0.008262 0.000000 -0.001920 0.000000
# 4 0.000000 0.000000 0.000000 0.022874 0.000000 0.007218
# 5 0.001125 0.001140 -0.001920 0.000000 0.024829 0.000000
# 6 0.000000 0.000000 0.000000 0.007218 0.000000 0.043947
#
#
# Mechanical properties :
#
#
# Convention : Reuss Voigt Hill
#
# Bulk Modulus (GPa) = 72.06430 76.98105 74.52267
# Shear Modulus (GPa) = 35.82110 40.25397 38.03753
#
# Velocity S-wave (km/s) = 3.96732 4.20564 4.08822
# Velocity P-wave (km/s) = 7.25609 7.57683 7.41819
#
# Compressibility (1/GPa) = 0.01387650
#
# Stress axis : x y z
#
# Youngs Moduli (GPa) = 130.73779 78.85739 121.04010
#
# Poissons Ratio (x) = 0.13238 0.25544
# Poissons Ratio (y) = 0.21947 0.43193
# Poissons Ratio (z) = 0.27591 0.28140
#
# Static dielectric constant tensor:
#      x y z
#    x 1.837360 0.000000 -0.030400 
#    y 0.000000 1.941350 0.000000 
#    z -0.030400 0.000000 1.866850 
# 
# From -- ./inp_files/132077.got.cif
#   From: 2010.05.17/outbox.cif.g08.bks.cpg/sg15_67_cif.got.tgz:132077.got - 2010.06.03 18:47:42.
