data_PCOD9292894
_publ_section_title
;
Structure prediction by ZEFSAII (Michael W. Deem and Ramdas Pophale) SiO2 
 PCOD9292894
Probable space group: C 2/C
;
_chemical_formula_sum "Si O2"
_cell_formula_units_Z 52
_cell_length_a 5.378829
_cell_length_b 21.941190
_cell_length_c 19.475950
_cell_angle_alpha 90.000000
_cell_angle_beta 79.916448
_cell_angle_gamma 90.000000
_cell_volume 2263.006907
_symmetry_space_group_name_H-M "C 2/C"
_symmetry_group_IT_number 15
_symmetry_cell_setting 'monoclinic'
loop_
_space_group_symop_operation_xyz
x,y,z
-x,y,1/2-z
-x,-y,-z
x,-y,1/2+z
1/2+x,1/2+y,z
1/2-x,1/2+y,1/2-z
1/2-x,1/2-y,-z
1/2+x,1/2-y,1/2+z
loop_
_atom_site_type_symbol
_atom_site_label
_atom_site_fract_x
_atom_site_fract_y
_atom_site_fract_z
Si Si1 0.016046 0.567861 0.623531
Si Si2 0.474912 0.799378 0.071281
Si Si3 0.932648 0.013121 0.925882
Si Si4 0.500000 0.987195 0.750000
Si Si5 0.639145 0.717182 0.180832
Si Si6 0.428023 0.807013 0.918582
Si Si7 0.639888 0.400040 0.855074
O O1 0.962843 0.639074 0.615730
O O2 0.842461 0.540953 0.571267
O O3 0.902929 0.533972 0.696132
O O4 0.317841 0.552678 0.609888
O O5 0.646481 0.757278 0.111287
O O6 0.228802 0.756232 0.075633
O O7 0.550687 0.813090 0.988793
O O8 0.929893 0.947924 0.888277
O O9 0.000000 0.000000 0.000000
O O10 0.315030 0.941440 0.798805
O O11 0.500000 0.750465 0.250000
O O12 0.470974 0.657753 0.178008
O O13 0.922403 0.693419 0.161806
O O14 0.262993 0.868494 0.916325
#
# Coordination Sequence:
#
# PCOD9292894 Si02
#       7
#     8   8   8   4   8   8   8
#     4  11  26  43  70  99 142 190 226 297 350 430
#     4  10  24  43  66 100 132 184 233 285 359 415
#     4  11  25  42  68 103 136 183 235 286 349 415
#     4  10  24  46  66 100 142 184 234 286 360 428
#     4  11  24  38  68  98 131 177 222 293 347 421
#     4  10  22  44  69  96 135 176 234 296 345 419
#     4  10  23  39  66  94 129 176 224 286 343 414
#
# _framework density 22.978276000000001
#
# number of rings (size 3 to 8) (size 9 to 14) (size 15 to 20)
#    0.000    1.538    0.000    2.769   11.846    3.692 
#    0.000    3.077    0.000    0.000    0.000    0.000 
#    0.000    0.000    0.000    0.000    0.000    0.000 
#
# Total GULP energy -144779.557095 kJ/mol
# GULP energy per Si atom -5568.444504 kJ/mol
# Density = 2.292598 g / cm^3
# Si number density = 22.978276 Si / 1000 Ang^3
#
#
#
# Elastic Constant Matrix: (Units=GPa)
#
#
# Indices 1 2 3 4 5 6 
#
# 1 44.4173 9.6335 1.8157 0.0000 -2.2405 0.0000
# 2 9.6335 135.3756 35.5044 0.0000 -3.1395 0.0000
# 3 1.8157 35.5044 72.7740 0.0000 -2.0379 0.0000
# 4 0.0000 0.0000 0.0000 23.1478 0.0000 -20.4456
# 5 -2.2405 -3.1395 -2.0379 0.0000 23.0297 0.0000
# 6 0.0000 0.0000 0.0000 -20.4456 0.0000 -40.7343
#
#
#
# Elastic Compliance Matrix: (Units=1/GPa)
#
#
# Indices 1 2 3 4 5 6 
#
# 1 0.022965 -0.001665 0.000296 0.000000 0.002033 0.000000
# 2 -0.001665 0.008606 -0.004139 0.000000 0.000645 0.000000
# 3 0.000296 -0.004139 0.015777 0.000000 0.000861 0.000000
# 4 0.000000 0.000000 0.000000 0.029931 0.000000 -0.015023
# 5 0.002033 0.000645 0.000861 0.000000 0.043784 0.000000
# 6 0.000000 0.000000 0.000000 -0.015023 0.000000 -0.017009
#
#
# Mechanical properties :
#
#
# Convention : Reuss Voigt Hill
#
# Bulk Modulus (GPa) = 27.52306 38.49712 33.01009
# Shear Modulus (GPa) = 39.31413 14.79620 27.05516
#
# Velocity S-wave (km/s) = 4.14082 2.54031 3.43508
# Velocity P-wave (km/s) = 5.90472 5.03928 5.48908
#
# Compressibility (1/GPa) = 0.03633317
#
# Stress axis : x y z
#
# Youngs Moduli (GPa) = 43.54397 116.20093 63.38277
#
# Poissons Ratio (x) = 0.19345 -0.01877
# Poissons Ratio (y) = 0.07249 0.26234
# Poissons Ratio (z) = -0.01290 0.48095
#
# Static dielectric constant tensor:
#      x y z
#    x 2.096630 0.000000 -0.187190 
#    y 0.000000 1.869050 0.000000 
#    z -0.187190 0.000000 2.441350 
# 
# From -- ./inp_files/227482.got.cif
#   From: 2010.05.17/outbox.cif.g08.bks.cpg/sg15_114_cif.got.tgz:227482.got - 2010.06.03 18:47:42.
