data_PCOD9292019
_publ_section_title
;
Structure prediction by ZEFSAII (Michael W. Deem and Ramdas Pophale) SiO2 
 PCOD9292019
Probable space group: C 2/C
;
_chemical_formula_sum "Si O2"
_cell_formula_units_Z 48
_cell_length_a 26.449787
_cell_length_b 6.579220
_cell_length_c 12.954521
_cell_angle_alpha 90.000000
_cell_angle_beta 116.693096
_cell_angle_gamma 90.000000
_cell_volume 2014.078079
_symmetry_space_group_name_H-M "C 2/C"
_symmetry_group_IT_number 15
_symmetry_cell_setting 'monoclinic'
loop_
_space_group_symop_operation_xyz
x,y,z
-x,y,1/2-z
-x,-y,-z
x,-y,1/2+z
1/2+x,1/2+y,z
1/2-x,1/2+y,1/2-z
1/2-x,1/2-y,-z
1/2+x,1/2-y,1/2+z
loop_
_atom_site_type_symbol
_atom_site_label
_atom_site_fract_x
_atom_site_fract_y
_atom_site_fract_z
Si Si1 0.544227 0.336375 0.383280
Si Si2 0.818342 0.097757 0.308742
Si Si3 0.073938 0.396469 0.094196
Si Si4 0.385655 0.720410 0.999270
Si Si5 0.616896 0.978018 0.829336
Si Si6 0.721602 0.732052 0.862238
O O1 0.500000 0.340923 0.250000
O O2 0.530414 0.222335 0.479195
O O3 0.565395 0.561116 0.427353
O O4 0.595750 0.203082 0.383834
O O5 0.837948 0.910349 0.399133
O O6 0.800730 0.992370 0.185787
O O7 0.872236 0.244076 0.350421
O O8 0.767349 0.211376 0.317680
O O9 0.066068 0.452251 0.206859
O O10 0.090832 0.603702 0.052900
O O11 0.365413 0.836281 0.082603
O O12 0.669124 0.887651 0.813833
O O13 0.750000 0.750000 0.000000
#
# Coordination Sequence:
#
# PCOD9292019 Si02
#       6
#     8   8   8   8   8   8
#     4  10  24  44  68  98 129 165 220 280 336 395
#     4  11  25  42  63  98 142 177 223 275 318 392
#     4  10  22  44  67  95 133 174 215 266 329 393
#     4  10  22  43  65  91 133 176 212 274 326 385
#     4  11  24  41  68  95 130 177 221 267 330 397
#     4  12  25  40  66  99 135 179 229 268 329 385
#
# _framework density 23.832243999999999
#
# number of rings (size 3 to 8) (size 9 to 14) (size 15 to 20)
#    0.000    1.333    1.667    4.000    7.000    4.000 
#    0.000    1.667    0.000    0.000    0.000    0.000 
#    0.000    0.000    0.000    0.000    0.000    0.000 
#
# Total GULP energy -134340.123077 kJ/mol
# GULP energy per Si atom -5597.505128 kJ/mol
# Density = 2.377800 g / cm^3
# Si number density = 23.832244 Si / 1000 Ang^3
#
#
#
# Elastic Constant Matrix: (Units=GPa)
#
#
# Indices 1 2 3 4 5 6 
#
# 1 37.9311 14.0349 11.0967 0.0000 2.6396 0.0000
# 2 14.0349 136.6047 53.8822 0.0000 1.2677 0.0000
# 3 11.0967 53.8822 157.5402 0.0000 4.5547 0.0000
# 4 0.0000 0.0000 0.0000 56.5801 0.0000 -18.1846
# 5 2.6396 1.2677 4.5547 0.0000 32.9714 0.0000
# 6 0.0000 0.0000 0.0000 -18.1846 0.0000 2.6066
#
#
#
# Elastic Compliance Matrix: (Units=1/GPa)
#
#
# Indices 1 2 3 4 5 6 
#
# 1 0.027705 -0.002405 -0.001072 0.000000 -0.001977 0.000000
# 2 -0.002405 0.008671 -0.002803 0.000000 0.000246 0.000000
# 3 -0.001072 -0.002803 0.007406 0.000000 -0.000829 0.000000
# 4 0.000000 0.000000 0.000000 -0.014228 0.000000 -0.099262
# 5 -0.001977 0.000246 -0.000829 0.000000 0.030593 0.000000
# 6 0.000000 0.000000 0.000000 -0.099262 0.000000 -0.308847
#
#
# Mechanical properties :
#
#
# Convention : Reuss Voigt Hill
#
# Bulk Modulus (GPa) = 32.02983 54.45597 43.24290
# Shear Modulus (GPa) = -22.15009 35.30243 6.57617
#
# Velocity S-wave (km/s) = -3.05194 3.85293 1.66293
# Velocity P-wave (km/s) = 1.02458 6.53396 4.67667
#
# Compressibility (1/GPa) = 0.03122089
#
# Stress axis : x y z
#
# Youngs Moduli (GPa) = 36.09494 115.32702 135.02819
#
# Poissons Ratio (x) = 0.27741 0.14469
# Poissons Ratio (y) = 0.08682 0.37853
# Poissons Ratio (z) = 0.03868 0.32330
#
# Static dielectric constant tensor:
#      x y z
#    x 1.895540 0.000000 0.008180 
#    y 0.000000 1.870080 0.000000 
#    z 0.008180 0.000000 1.978490 
# 
# From -- ./inp_files/179698.got.cif
#   From: 2010.05.17/outbox.cif.g08.bks.cpg/sg15_90_cif.got.tgz:179698.got - 2010.06.03 18:47:42.
