data_PCOD9292407
_publ_section_title
;
Structure prediction by ZEFSAII (Michael W. Deem and Ramdas Pophale) SiO2 
 PCOD9292407
Probable space group: C 2/C
;
_chemical_formula_sum "Si O2"
_cell_formula_units_Z 36
_cell_length_a 24.970991
_cell_length_b 5.222812
_cell_length_c 20.170655
_cell_angle_alpha 90.000000
_cell_angle_beta 146.627733
_cell_angle_gamma 90.000000
_cell_volume 1447.049306
_symmetry_space_group_name_H-M "C 2/C"
_symmetry_group_IT_number 15
_symmetry_cell_setting 'monoclinic'
loop_
_space_group_symop_operation_xyz
x,y,z
-x,y,1/2-z
-x,-y,-z
x,-y,1/2+z
1/2+x,1/2+y,z
1/2-x,1/2+y,1/2-z
1/2-x,1/2-y,-z
1/2+x,1/2-y,1/2+z
loop_
_atom_site_type_symbol
_atom_site_label
_atom_site_fract_x
_atom_site_fract_y
_atom_site_fract_z
Si Si1 0.192177 0.844419 0.191269
Si Si2 0.000000 0.152370 0.250000
Si Si3 0.488517 0.249025 0.442592
Si Si4 0.882245 0.561464 0.512274
Si Si5 0.208188 0.003280 0.920801
O O1 0.281207 0.642604 0.283320
O O2 0.126895 0.766878 0.187397
O O3 0.136180 0.762668 0.066028
O O4 0.053257 0.318557 0.362231
O O5 0.090819 0.006790 0.307748
O O6 0.500000 0.500000 0.500000
O O7 0.557778 0.183071 0.453228
O O8 0.500000 0.000000 0.500000
O O9 0.772718 0.498663 0.421050
O O10 0.250000 0.750000 0.000000
O O11 0.250000 0.250000 0.000000
#
# Coordination Sequence:
#
# PCOD9292407 Si02
#       5
#     8   4   8   8   8
#     4  11  24  43  69 106 143 190 245 307 378 444
#     4  10  24  48  80 112 158 208 254 322 388 452
#     4  10  22  43  71 102 143 190 245 305 371 443
#     4  10  24  47  76 108 153 193 259 309 382 462
#     4  10  24  46  70 109 150 197 254 304 378 457
#
# _framework density 24.878211
#
# number of rings (size 3 to 8) (size 9 to 14) (size 15 to 20)
#    0.000    1.778    0.000    2.667    3.111   14.222 
#    8.000    0.000    0.000    0.000    0.000    0.000 
#    0.000    0.000    0.000    0.000    0.000    0.000 
#
# Total GULP energy -100422.767553 kJ/mol
# GULP energy per Si atom -5579.042642 kJ/mol
# Density = 2.482159 g / cm^3
# Si number density = 24.878211 Si / 1000 Ang^3
#
#
#
# Elastic Constant Matrix: (Units=GPa)
#
#
# Indices 1 2 3 4 5 6 
#
# 1 209.6736 42.6384 60.9395 0.0014 57.9228 -0.0013
# 2 42.6384 140.6966 43.6301 0.0089 5.5463 -0.0019
# 3 60.9395 43.6301 168.6862 0.0013 12.6189 0.0005
# 4 0.0014 0.0089 0.0013 -43.1998 0.0004 148.1941
# 5 57.9228 5.5463 12.6189 0.0004 55.6815 -0.0007
# 6 -0.0013 -0.0019 0.0005 148.1941 -0.0007 -150.0105
#
#
#
# Elastic Compliance Matrix: (Units=1/GPa)
#
#
# Indices 1 2 3 4 5 6 
#
# 1 0.007637 -0.001456 -0.001830 0.000000 -0.007385 0.000000
# 2 -0.001456 0.008010 -0.001627 -0.000001 0.001085 -0.000001
# 3 -0.001830 -0.001627 0.006974 0.000000 0.000485 0.000000
# 4 0.000000 -0.000001 0.000000 0.009690 0.000000 0.009573
# 5 -0.007385 0.001085 0.000485 0.000000 0.025424 0.000000
# 6 0.000000 -0.000001 0.000000 0.009573 0.000000 0.002790
#
#
# Mechanical properties :
#
#
# Convention : Reuss Voigt Hill
#
# Bulk Modulus (GPa) = 78.15211 90.38583 84.26897
# Shear Modulus (GPa) = 67.00874 -2.71587 32.14643
#
# Velocity S-wave (km/s) = 5.19550 -1.04596 3.59855
# Velocity P-wave (km/s) = 8.21419 5.91198 7.15627
#
# Compressibility (1/GPa) = 0.01279556
#
# Stress axis : x y z
#
# Youngs Moduli (GPa) = 130.93418 124.83620 143.39307
#
# Poissons Ratio (x) = 0.18175 0.26242
# Poissons Ratio (y) = 0.19063 0.23332
# Poissons Ratio (z) = 0.23962 0.20312
#
# Static dielectric constant tensor:
#      x y z
#    x 2.181590 0.000020 0.076110 
#    y 0.000020 1.917670 0.000010 
#    z 0.076110 0.000010 2.088280 
# 
# From -- ./inp_files/256830.got.cif
#   From: 2010.05.17/outbox.cif.g08.bks.cpg/sg15_129_cif.got.tgz:256830.got - 2010.06.03 18:47:42.
