data_PCOD9292163
_publ_section_title
;
Structure prediction by ZEFSAII (Michael W. Deem and Ramdas Pophale) SiO2 
 PCOD9292163
Probable space group: C 2/C
;
_chemical_formula_sum "Si O2"
_cell_formula_units_Z 60
_cell_length_a 11.901915
_cell_length_b 27.028717
_cell_length_c 10.154103
_cell_angle_alpha 90.000000
_cell_angle_beta 90.495856
_cell_angle_gamma 90.000000
_cell_volume 3266.386530
_symmetry_space_group_name_H-M "C 2/C"
_symmetry_group_IT_number 15
_symmetry_cell_setting 'monoclinic'
loop_
_space_group_symop_operation_xyz
x,y,z
-x,y,1/2-z
-x,-y,-z
x,-y,1/2+z
1/2+x,1/2+y,z
1/2-x,1/2+y,1/2-z
1/2-x,1/2-y,-z
1/2+x,1/2-y,1/2+z
loop_
_atom_site_type_symbol
_atom_site_label
_atom_site_fract_x
_atom_site_fract_y
_atom_site_fract_z
Si Si1 0.000000 0.881744 0.250000
Si Si2 0.625932 0.145916 0.994868
Si Si3 0.255326 0.543934 0.386848
Si Si4 0.504134 0.558736 0.019705
Si Si5 0.243760 0.950656 0.915335
Si Si6 0.638713 0.140868 0.485908
Si Si7 0.768757 0.822879 0.244329
Si Si8 0.632742 0.784375 0.744216
O O1 0.986188 0.915304 0.120948
O O2 0.111247 0.849236 0.235350
O O3 0.672778 0.093089 0.043560
O O4 0.492077 0.142916 0.976980
O O5 0.650775 0.186109 0.108831
O O6 0.687971 0.161646 0.862618
O O7 0.381344 0.566840 0.399627
O O8 0.248924 0.495803 0.480580
O O9 0.234486 0.531744 0.233709
O O10 0.172362 0.586159 0.438497
O O11 0.500000 0.500000 0.000000
O O12 0.383409 0.571142 0.079769
O O13 0.714569 0.158190 0.608256
O O14 0.655589 0.178072 0.363942
O O15 0.792349 0.764389 0.243989
O O16 0.500000 0.770844 0.750000
#
# Coordination Sequence:
#
# PCOD9292163 Si02
#       8
#     4   8   8   8   8   8   8   8
#     4  12  22  38  64 100 118 168 210 268 308 380
#     4  11  24  42  65  92 131 168 208 257 314 380
#     4  11  24  40  65  94 128 168 210 260 312 372
#     4  10  23  36  62  90 130 162 210 256 322 359
#     4  11  24  40  65  94 128 168 210 260 312 372
#     4  11  24  42  65  92 131 168 208 257 314 380
#     4  12  23  42  66  95 124 163 218 261 315 369
#     4  10  22  43  67  91 124 170 209 259 320 366
#
# _framework density 18.368922999999999
#
# number of rings (size 3 to 8) (size 9 to 14) (size 15 to 20)
#    0.000    1.067    4.667    1.600    9.333    0.533 
#    0.000    0.000    2.933    0.000    0.000    0.000 
#    0.000    0.000    0.000    0.000    0.000    0.000 
#
# Total GULP energy -167605.700237 kJ/mol
# GULP energy per Si atom -5586.856675 kJ/mol
# Density = 1.832711 g / cm^3
# Si number density = 18.368923 Si / 1000 Ang^3
#
#
#
# Elastic Constant Matrix: (Units=GPa)
#
#
# Indices 1 2 3 4 5 6 
#
# 1 48.6926 11.2956 -13.0320 0.0000 -8.7930 0.0000
# 2 11.2956 76.3849 11.9464 0.0000 -9.0166 0.0000
# 3 -13.0320 11.9464 81.1298 0.0000 -10.7530 0.0000
# 4 0.0000 0.0000 0.0000 21.8635 0.0000 0.7589
# 5 -8.7930 -9.0166 -10.7530 0.0000 24.5913 0.0000
# 6 0.0000 0.0000 0.0000 0.7589 0.0000 29.9175
#
#
#
# Elastic Compliance Matrix: (Units=1/GPa)
#
#
# Indices 1 2 3 4 5 6 
#
# 1 0.024702 -0.003364 0.005807 0.000000 0.010138 0.000000
# 2 -0.003364 0.014301 -0.002241 0.000000 0.003061 0.000000
# 3 0.005807 -0.002241 0.014601 0.000000 0.007640 0.000000
# 4 0.000000 0.000000 0.000000 0.045779 0.000000 -0.001161
# 5 0.010138 0.003061 0.007640 0.000000 0.048753 0.000000
# 6 0.000000 0.000000 0.000000 -0.001161 0.000000 0.033455
#
#
# Mechanical properties :
#
#
# Convention : Reuss Voigt Hill
#
# Bulk Modulus (GPa) = 18.51545 25.18082 21.84814
# Shear Modulus (GPa) = 25.10175 28.34094 26.72135
#
# Velocity S-wave (km/s) = 3.70068 3.93221 3.81820
# Velocity P-wave (km/s) = 5.32557 5.86127 5.59983
#
# Compressibility (1/GPa) = 0.05400895
#
# Stress axis : x y z
#
# Youngs Moduli (GPa) = 40.48177 69.92603 68.48743
#
# Poissons Ratio (x) = 0.23526 -0.39772
# Poissons Ratio (y) = 0.13620 0.15345
# Poissons Ratio (z) = -0.23508 0.15667
#
# Static dielectric constant tensor:
#      x y z
#    x 1.633260 0.000000 -0.002150 
#    y 0.000000 1.593480 0.000000 
#    z -0.002150 0.000000 1.612170 
# 
# From -- ./inp_files/34294.got.cif
#   From: 2010.05.17/outbox.cif.g08.bks.cpg/sg15_18_cif.got.tgz:34294.got - 2010.06.03 18:47:42.
