data_PCOD9292467
_publ_section_title
;
Structure prediction by ZEFSAII (Michael W. Deem and Ramdas Pophale) SiO2 
 PCOD9292467
Probable space group: C 2/C
;
_chemical_formula_sum "Si O2"
_cell_formula_units_Z 40
_cell_length_a 16.265674
_cell_length_b 5.313436
_cell_length_c 21.991791
_cell_angle_alpha 90.000000
_cell_angle_beta 72.537231
_cell_angle_gamma 90.000000
_cell_volume 1813.078038
_symmetry_space_group_name_H-M "C 2/C"
_symmetry_group_IT_number 15
_symmetry_cell_setting 'monoclinic'
loop_
_space_group_symop_operation_xyz
x,y,z
-x,y,1/2-z
-x,-y,-z
x,-y,1/2+z
1/2+x,1/2+y,z
1/2-x,1/2+y,1/2-z
1/2-x,1/2-y,-z
1/2+x,1/2-y,1/2+z
loop_
_atom_site_type_symbol
_atom_site_label
_atom_site_fract_x
_atom_site_fract_y
_atom_site_fract_z
Si Si1 0.743104 0.102469 0.651629
Si Si2 0.651160 0.272574 0.792284
Si Si3 0.461663 0.225150 0.191070
Si Si4 0.631427 0.832280 0.583189
Si Si5 0.212919 0.559864 0.458000
O O1 0.710175 0.235908 0.719680
O O2 0.805215 0.277514 0.597626
O O3 0.789716 0.848963 0.663742
O O4 0.662558 0.040919 0.625609
O O5 0.593093 0.519670 0.795666
O O6 0.595063 0.021235 0.811051
O O7 0.500000 0.186867 0.250000
O O8 0.539128 0.255391 0.126035
O O9 0.707946 0.628894 0.571165
O O10 0.636768 0.924066 0.512070
O O11 0.250000 0.750000 0.500000
#
# Coordination Sequence:
#
# PCOD9292467 Si02
#       5
#     8   8   8   8   8
#     4  11  24  43  66 100 136 183 230 281 339 422
#     4  12  27  41  68 103 141 176 222 287 355 400
#     4  12  25  43  65 103 139 179 224 290 347 407
#     4  10  22  43  72  95 135 180 239 280 337 407
#     4   9  21  41  72  97 126 185 239 277 325 414
#
# _framework density 22.061928999999999
#
# number of rings (size 3 to 8) (size 9 to 14) (size 15 to 20)
#    0.000    1.200    2.000    3.000   11.200    0.000 
#    0.000    2.000    0.000    0.000    0.000    0.000 
#    0.000    0.000    0.000    0.000    0.000    0.000 
#
# Total GULP energy -111827.147685 kJ/mol
# GULP energy per Si atom -5591.357384 kJ/mol
# Density = 2.201172 g / cm^3
# Si number density = 22.061929 Si / 1000 Ang^3
#
#
#
# Elastic Constant Matrix: (Units=GPa)
#
#
# Indices 1 2 3 4 5 6 
#
# 1 65.3320 31.2563 46.0213 -0.0001 -10.9750 -0.0006
# 2 31.2563 108.7937 47.7562 -0.0019 -3.6292 -0.0007
# 3 46.0213 47.7562 136.5697 0.0002 -21.1140 0.0006
# 4 -0.0001 -0.0019 0.0002 49.5881 -0.0001 0.4089
# 5 -10.9750 -3.6292 -21.1140 -0.0001 34.4222 -0.0005
# 6 -0.0006 -0.0007 0.0006 0.4089 -0.0005 29.7738
#
#
#
# Elastic Compliance Matrix: (Units=1/GPa)
#
#
# Indices 1 2 3 4 5 6 
#
# 1 0.021422 -0.003653 -0.005463 0.000000 0.003094 0.000000
# 2 -0.003653 0.011535 -0.003087 0.000000 -0.001842 0.000000
# 3 -0.005463 -0.003087 0.010963 0.000000 0.004657 0.000000
# 4 0.000000 0.000000 0.000000 0.020168 0.000000 -0.000277
# 5 0.003094 -0.001842 0.004657 0.000000 0.032700 0.000000
# 6 0.000000 0.000000 0.000000 -0.000277 0.000000 0.033590
#
#
# Mechanical properties :
#
#
# Convention : Reuss Voigt Hill
#
# Bulk Modulus (GPa) = 51.24859 62.30702 56.77780
# Shear Modulus (GPa) = 30.99993 35.13424 33.06708
#
# Velocity S-wave (km/s) = 3.75258 3.99498 3.87567
# Velocity P-wave (km/s) = 6.48503 7.04152 6.76900
#
# Compressibility (1/GPa) = 0.01951273
#
# Stress axis : x y z
#
# Youngs Moduli (GPa) = 46.68025 86.69205 91.21752
#
# Poissons Ratio (x) = 0.31672 0.49833
# Poissons Ratio (y) = 0.17054 0.28162
# Poissons Ratio (z) = 0.25502 0.26765
#
# Static dielectric constant tensor:
#      x y z
#    x 1.795880 0.000000 0.022610 
#    y 0.000000 1.888350 0.000000 
#    z 0.022610 0.000000 1.829530 
# 
# From -- ./inp_files/246192.got.cif
#   From: 2010.05.17/outbox.cif.g08.bks.cpg/sg15_124_cif.got.tgz:246192.got - 2010.06.03 18:47:42.
