data_PCOD9292586
_publ_section_title
;
Structure prediction by ZEFSAII (Michael W. Deem and Ramdas Pophale) SiO2 
 PCOD9292586
Probable space group: C 2/C
;
_chemical_formula_sum "Si O2"
_cell_formula_units_Z 64
_cell_length_a 11.261974
_cell_length_b 8.891559
_cell_length_c 27.943475
_cell_angle_alpha 90.000000
_cell_angle_beta 81.047555
_cell_angle_gamma 90.000000
_cell_volume 2764.074302
_symmetry_space_group_name_H-M "C 2/C"
_symmetry_group_IT_number 15
_symmetry_cell_setting 'monoclinic'
loop_
_space_group_symop_operation_xyz
x,y,z
-x,y,1/2-z
-x,-y,-z
x,-y,1/2+z
1/2+x,1/2+y,z
1/2-x,1/2+y,1/2-z
1/2-x,1/2-y,-z
1/2+x,1/2-y,1/2+z
loop_
_atom_site_type_symbol
_atom_site_label
_atom_site_fract_x
_atom_site_fract_y
_atom_site_fract_z
Si Si1 0.023521 0.764662 0.935725
Si Si2 0.276444 0.424013 0.685729
Si Si3 0.216176 0.065005 0.061035
Si Si4 0.705673 0.228686 0.102251
Si Si5 0.143638 0.376429 0.513560
Si Si6 0.275251 0.248134 0.146631
Si Si7 0.995036 0.718953 0.830486
Si Si8 0.407126 0.919322 0.720793
O O1 0.157929 0.827372 0.918483
O O2 0.040653 0.666793 0.982347
O O3 0.998020 0.680754 0.887223
O O4 0.916242 0.882632 0.945869
O O5 0.193830 0.314481 0.657958
O O6 0.292100 0.575531 0.654284
O O7 0.402524 0.341348 0.685232
O O8 0.209323 0.454882 0.739477
O O9 0.205507 0.907329 0.091444
O O10 0.294038 0.026812 0.009407
O O11 0.277254 0.185375 0.092518
O O12 0.617579 0.143954 0.070965
O O13 0.250000 0.250000 0.500000
O O14 0.137104 0.219895 0.171543
O O15 0.365750 0.165551 0.176172
O O16 0.026970 0.570994 0.799628
O O17 0.500000 0.835122 0.750000
#
# Coordination Sequence:
#
# PCOD9292586 Si02
#       8
#     8   8   8   8   8   8   8   8
#     4   8  15  30  57  87 111 150 200 241 292 359
#     4  11  23  41  62  87 123 158 203 253 303 358
#     4   9  17  33  61  84 116 161 197 242 303 352
#     4   9  19  34  52  87 124 159 197 249 294 352
#     4   8  15  28  53  86 121 157 198 242 294 352
#     4  11  23  42  64  92 121 158 203 254 304 365
#     4  10  22  44  64  89 122 159 200 253 307 359
#     4  12  24  43  64  86 119 160 202 249 308 366
#
# _framework density 23.154223999999999
#
# number of rings (size 3 to 8) (size 9 to 14) (size 15 to 20)
#    0.000    2.500    1.250    3.000    0.000    4.500 
#   11.250    0.625    0.000    3.000    0.000    0.000 
#    0.000    0.000    0.000    0.000    0.000    0.000 
#
# Total GULP energy -178713.759173 kJ/mol
# GULP energy per Si atom -5584.804974 kJ/mol
# Density = 2.310152 g / cm^3
# Si number density = 23.154224 Si / 1000 Ang^3
#
#
#
# Elastic Constant Matrix: (Units=GPa)
#
#
# Indices 1 2 3 4 5 6 
#
# 1 106.0363 19.5197 22.0104 0.0000 20.1532 0.0000
# 2 19.5197 37.2039 -5.8443 0.0000 -0.4966 0.0000
# 3 22.0104 -5.8443 32.4862 0.0000 18.3184 0.0000
# 4 0.0000 0.0000 0.0000 28.9777 0.0000 -3.3606
# 5 20.1532 -0.4966 18.3184 0.0000 31.1341 0.0000
# 6 0.0000 0.0000 0.0000 -3.3606 0.0000 23.8674
#
#
#
# Elastic Compliance Matrix: (Units=1/GPa)
#
#
# Indices 1 2 3 4 5 6 
#
# 1 0.013483 -0.008456 -0.008468 0.000000 -0.003880 0.000000
# 2 -0.008456 0.033255 0.012460 0.000000 -0.001327 0.000000
# 3 -0.008468 0.012460 0.053213 0.000000 -0.025629 0.000000
# 4 0.000000 0.000000 0.000000 0.035082 0.000000 0.004940
# 5 -0.003880 -0.001327 -0.025629 0.000000 0.049688 0.000000
# 6 0.000000 0.000000 0.000000 0.004940 0.000000 0.042594
#
#
# Mechanical properties :
#
#
# Convention : Reuss Voigt Hill
#
# Bulk Modulus (GPa) = 10.98628 27.45532 19.22080
# Shear Modulus (GPa) = 18.75579 26.13187 22.44383
#
# Velocity S-wave (km/s) = 2.84920 3.36311 3.11677
# Velocity P-wave (km/s) = 3.94703 5.19269 4.61211
#
# Compressibility (1/GPa) = 0.09102264
#
# Stress axis : x y z
#
# Youngs Moduli (GPa) = 74.17010 30.07056 18.79231
#
# Poissons Ratio (x) = 0.25427 0.15914
# Poissons Ratio (y) = 0.62718 -0.23416
# Poissons Ratio (z) = 0.62811 -0.37469
#
# Static dielectric constant tensor:
#      x y z
#    x 1.887570 0.000000 0.005010 
#    y 0.000000 1.862190 0.000000 
#    z 0.005010 0.000000 1.954060 
# 
# From -- ./inp_files/310329.got.cif
#   From: 2010.05.17/outbox.cif.g08.bks.cpg/sg15_156_cif.got.tgz:310329.got - 2010.06.03 18:47:42.
