data_PCOD9292665
_publ_section_title
;
Structure prediction by ZEFSAII (Michael W. Deem and Ramdas Pophale) SiO2 
 PCOD9292665
Probable space group: C 2/C
;
_chemical_formula_sum "Si O2"
_cell_formula_units_Z 52
_cell_length_a 22.066692
_cell_length_b 5.068643
_cell_length_c 19.007285
_cell_angle_alpha 90.000000
_cell_angle_beta 108.011367
_cell_angle_gamma 90.000000
_cell_volume 2021.749501
_symmetry_space_group_name_H-M "C 2/C"
_symmetry_group_IT_number 15
_symmetry_cell_setting 'monoclinic'
loop_
_space_group_symop_operation_xyz
x,y,z
-x,y,1/2-z
-x,-y,-z
x,-y,1/2+z
1/2+x,1/2+y,z
1/2-x,1/2+y,1/2-z
1/2-x,1/2-y,-z
1/2+x,1/2-y,1/2+z
loop_
_atom_site_type_symbol
_atom_site_label
_atom_site_fract_x
_atom_site_fract_y
_atom_site_fract_z
Si Si1 0.626553 0.588992 0.122949
Si Si2 0.750000 0.250000 0.000000
Si Si3 0.382365 0.679411 0.222355
Si Si4 0.029823 0.414279 0.829286
Si Si5 0.761744 0.420842 0.133495
Si Si6 0.056611 0.578498 0.070795
Si Si7 0.343349 0.681363 0.584687
O O1 0.602741 0.585879 0.195029
O O2 0.701753 0.540881 0.148648
O O3 0.584715 0.366400 0.070588
O O4 0.612158 0.867399 0.083839
O O5 0.738499 0.172523 0.079484
O O6 0.815808 0.044487 0.025252
O O7 0.354514 0.440915 0.166345
O O8 0.435014 0.834330 0.194959
O O9 0.321003 0.873467 0.204751
O O10 0.084885 0.287834 0.898405
O O11 0.000000 0.265409 0.750000
O O12 0.971781 0.456561 0.860779
O O13 0.794436 0.566875 0.074905
O O14 0.000000 0.500000 0.000000
#
# Coordination Sequence:
#
# PCOD9292665 Si02
#       7
#     8   4   8   8   8   8   8
#     4  12  28  48  76 108 153 199 250 314 387 454
#     4  10  22  44  66 108 138 196 246 304 392 448
#     4  10  24  43  72 109 139 194 248 312 377 446
#     4  11  23  46  72 103 148 201 262 313 374 471
#     4  10  25  42  73 105 150 187 248 312 384 462
#     4  12  30  50  75 112 151 205 256 315 389 458
#     4  10  23  41  71 104 141 192 244 317 376 452
#
# _framework density 25.720296999999999
#
# number of rings (size 3 to 8) (size 9 to 14) (size 15 to 20)
#    0.000    1.231    1.538    1.846   12.923    4.308 
#    0.000    0.000    0.000    0.000    0.000    0.000 
#    0.000    0.000    0.000    0.000    0.000    0.000 
#
# Total GULP energy -144918.852877 kJ/mol
# GULP energy per Si atom -5573.802034 kJ/mol
# Density = 2.566176 g / cm^3
# Si number density = 25.720297 Si / 1000 Ang^3
#
#
#
# Elastic Constant Matrix: (Units=GPa)
#
#
# Indices 1 2 3 4 5 6 
#
# 1 125.9583 46.5340 -2.3205 0.0000 18.9687 0.0000
# 2 46.5340 64.0578 13.6405 -0.0001 2.8369 0.0001
# 3 -2.3205 13.6405 84.2233 0.0000 15.2516 0.0000
# 4 0.0000 -0.0001 0.0000 30.6917 0.0000 7.2697
# 5 18.9687 2.8369 15.2516 0.0000 37.9719 0.0000
# 6 0.0000 0.0001 0.0000 7.2697 0.0000 26.7452
#
#
#
# Elastic Compliance Matrix: (Units=1/GPa)
#
#
# Indices 1 2 3 4 5 6 
#
# 1 0.012509 -0.009447 0.003104 0.000000 -0.006790 0.000000
# 2 -0.009447 0.023305 -0.004933 0.000000 0.004960 0.000000
# 3 0.003104 -0.004933 0.013989 0.000000 -0.006801 0.000000
# 4 0.000000 0.000000 0.000000 0.034824 0.000000 -0.009466
# 5 -0.006790 0.004960 -0.006801 0.000000 0.032088 0.000000
# 6 0.000000 0.000000 0.000000 -0.009466 0.000000 0.039963
#
#
# Mechanical properties :
#
#
# Convention : Reuss Voigt Hill
#
# Bulk Modulus (GPa) = 36.69571 43.32748 40.01160
# Shear Modulus (GPa) = 26.55147 33.50745 30.02946
#
# Velocity S-wave (km/s) = 3.21645 3.61330 3.42063
# Velocity P-wave (km/s) = 5.30022 5.85577 5.58491
#
# Compressibility (1/GPa) = 0.02725114
#
# Stress axis : x y z
#
# Youngs Moduli (GPa) = 79.94189 42.90999 71.48378
#
# Poissons Ratio (x) = 0.40539 -0.22190
# Poissons Ratio (y) = 0.75524 0.35261
# Poissons Ratio (z) = -0.24816 0.21166
#
# Static dielectric constant tensor:
#      x y z
#    x 2.059600 0.000000 -0.093220 
#    y 0.000000 1.670140 0.000000 
#    z -0.093220 0.000000 1.734180 
# 
# From -- ./inp_files/254410.got.cif
#   From: 2010.05.17/outbox.cif.g08.bks.cpg/sg15_128_cif.got.tgz:254410.got - 2010.06.03 18:47:42.
