data_PCOD9292415
_publ_section_title
;
Structure prediction by ZEFSAII (Michael W. Deem and Ramdas Pophale) SiO2 
 PCOD9292415
Probable space group: C 2/C
;
_chemical_formula_sum "Si O2"
_cell_formula_units_Z 56
_cell_length_a 11.708625
_cell_length_b 26.148084
_cell_length_c 9.704936
_cell_angle_alpha 90.000000
_cell_angle_beta 116.762415
_cell_angle_gamma 90.000000
_cell_volume 2652.969256
_symmetry_space_group_name_H-M "C 2/C"
_symmetry_group_IT_number 15
_symmetry_cell_setting 'monoclinic'
loop_
_space_group_symop_operation_xyz
x,y,z
-x,y,1/2-z
-x,-y,-z
x,-y,1/2+z
1/2+x,1/2+y,z
1/2-x,1/2+y,1/2-z
1/2-x,1/2-y,-z
1/2+x,1/2-y,1/2+z
loop_
_atom_site_type_symbol
_atom_site_label
_atom_site_fract_x
_atom_site_fract_y
_atom_site_fract_z
Si Si1 0.233668 0.930683 0.643101
Si Si2 0.011179 0.869680 0.910665
Si Si3 0.426005 0.947932 0.997724
Si Si4 0.795354 0.954469 0.406578
Si Si5 0.322890 0.105980 0.900132
Si Si6 0.943946 0.225453 0.877421
Si Si7 0.804638 0.273065 0.388371
O O1 0.331733 0.935309 0.821410
O O2 0.307394 0.914899 0.545645
O O3 0.126589 0.888932 0.615124
O O4 0.168828 0.986373 0.589308
O O5 0.000000 0.848608 0.750000
O O6 0.104282 0.918931 0.959631
O O7 0.060138 0.828611 0.046976
O O8 0.338558 0.954569 0.083814
O O9 0.533126 0.904830 0.070701
O O10 0.500000 0.000000 0.000000
O O11 0.769859 0.927565 0.246545
O O12 0.293906 0.165773 0.880890
O O13 0.798491 0.245946 0.781474
O O14 0.000000 0.221025 0.750000
O O15 0.046363 0.257576 0.023262
O O16 0.750000 0.250000 0.500000
#
# Coordination Sequence:
#
# PCOD9292415 Si02
#       7
#     8   8   8   8   8   8   8
#     4  12  24  41  67  99 137 187 231 282 335 413
#     4  12  26  45  65 100 140 182 231 280 351 421
#     4  12  24  43  65  97 146 183 226 281 335 412
#     4  12  24  45  65  97 143 184 226 279 344 410
#     4  12  25  40  74 103 132 182 233 282 348 407
#     4  10  22  45  74  99 136 175 234 301 349 415
#     4  10  22  43  71 104 134 174 236 299 354 407
#
# _framework density 21.108426000000001
#
# number of rings (size 3 to 8) (size 9 to 14) (size 15 to 20)
#    0.000    0.571    5.714    3.000    0.000    4.571 
#    0.000    2.143    0.000    0.000    0.000    0.000 
#    0.000    0.000    0.000    0.000    0.000    0.000 
#
# Total GULP energy -156518.785859 kJ/mol
# GULP energy per Si atom -5589.956638 kJ/mol
# Density = 2.106038 g / cm^3
# Si number density = 21.108426 Si / 1000 Ang^3
#
#
#
# Elastic Constant Matrix: (Units=GPa)
#
#
# Indices 1 2 3 4 5 6 
#
# 1 51.4813 9.2716 22.5898 0.0000 14.7453 0.0000
# 2 9.2716 53.1897 17.2054 0.0000 10.1287 0.0000
# 3 22.5898 17.2054 99.9957 0.0000 18.8726 0.0000
# 4 0.0000 0.0000 0.0000 34.9956 0.0000 12.3402
# 5 14.7453 10.1287 18.8726 0.0000 44.4353 0.0000
# 6 0.0000 0.0000 0.0000 12.3402 0.0000 29.2478
#
#
#
# Elastic Compliance Matrix: (Units=1/GPa)
#
#
# Indices 1 2 3 4 5 6 
#
# 1 0.023029 -0.001699 -0.003850 0.000000 -0.005620 0.000000
# 2 -0.001699 0.020504 -0.002575 0.000000 -0.003016 0.000000
# 3 -0.003850 -0.002575 0.011916 0.000000 -0.003197 0.000000
# 4 0.000000 0.000000 0.000000 0.033569 0.000000 -0.014164
# 5 -0.005620 -0.003016 -0.003197 0.000000 0.026415 0.000000
# 6 0.000000 0.000000 0.000000 -0.014164 0.000000 0.040166
#
#
# Mechanical properties :
#
#
# Convention : Reuss Voigt Hill
#
# Bulk Modulus (GPa) = 25.50813 33.64448 29.57631
# Shear Modulus (GPa) = 27.03947 32.10905 29.57426
#
# Velocity S-wave (km/s) = 3.58296 3.90442 3.74714
# Velocity P-wave (km/s) = 5.40624 6.02491 5.72394
#
# Compressibility (1/GPa) = 0.03920319
#
# Stress axis : x y z
#
# Youngs Moduli (GPa) = 43.42298 48.77080 83.91756
#
# Poissons Ratio (x) = 0.08286 0.32304
# Poissons Ratio (y) = 0.07377 0.21608
# Poissons Ratio (z) = 0.16716 0.12558
#
# Static dielectric constant tensor:
#      x y z
#    x 1.784670 0.000000 0.050830 
#    y 0.000000 1.752650 0.000000 
#    z 0.050830 0.000000 1.807420 
# 
# From -- ./inp_files/34348.got.cif
#   From: 2010.05.17/outbox.cif.g08.bks.cpg/sg15_18_cif.got.tgz:34348.got - 2010.06.03 18:47:42.
