data_PCOD9292050
_publ_section_title
;
Structure prediction by ZEFSAII (Michael W. Deem and Ramdas Pophale) SiO2 
 PCOD9292050
Probable space group: C 2/C
;
_chemical_formula_sum "Si O2"
_cell_formula_units_Z 56
_cell_length_a 5.240631
_cell_length_b 28.113022
_cell_length_c 15.438581
_cell_angle_alpha 90.000000
_cell_angle_beta 79.585636
_cell_angle_gamma 90.000000
_cell_volume 2237.094969
_symmetry_space_group_name_H-M "C 2/C"
_symmetry_group_IT_number 15
_symmetry_cell_setting 'monoclinic'
loop_
_space_group_symop_operation_xyz
x,y,z
-x,y,1/2-z
-x,-y,-z
x,-y,1/2+z
1/2+x,1/2+y,z
1/2-x,1/2+y,1/2-z
1/2-x,1/2-y,-z
1/2+x,1/2-y,1/2+z
loop_
_atom_site_type_symbol
_atom_site_label
_atom_site_fract_x
_atom_site_fract_y
_atom_site_fract_z
Si Si1 0.571998 0.713007 0.459662
Si Si2 0.506622 0.832410 0.651441
Si Si3 0.709412 0.073986 0.391179
Si Si4 0.661487 0.423993 0.329286
Si Si5 0.000000 0.488665 0.750000
Si Si6 0.000000 0.653631 0.750000
Si Si7 0.855747 0.948987 0.513028
Si Si8 0.231486 0.230737 0.858705
O O1 0.750000 0.750000 0.500000
O O2 0.728134 0.667884 0.418260
O O3 0.481690 0.741316 0.380097
O O4 0.358408 0.704387 0.546866
O O5 0.500000 0.848464 0.750000
O O6 0.325063 0.869573 0.615693
O O7 0.432940 0.776862 0.656178
O O8 0.659690 0.043999 0.306784
O O9 0.996847 0.068567 0.410274
O O10 0.456402 0.055353 0.462380
O O11 0.500000 0.414269 0.250000
O O12 0.802478 0.475036 0.310257
O O13 0.464276 0.423140 0.420765
O O14 0.892522 0.385207 0.325352
O O15 0.775036 0.693149 0.780037
O O16 0.000000 0.000000 0.500000
#
# Coordination Sequence:
#
# PCOD9292050 Si02
#       8
#     8   8   8   8   4   4   8   8
#     4   9  21  40  66  92 133 182 238 307 368 436
#     4  11  24  43  66 102 140 192 247 308 376 452
#     4  12  28  46  78 113 150 199 245 311 377 461
#     4  11  27  46  73 107 148 195 251 315 373 459
#     4  11  24  50  72 110 148 188 246 307 386 442
#     4  11  26  42  68 100 138 196 250 311 374 444
#     4  12  27  50  79 110 153 200 252 308 389 455
#     4  10  22  43  65  96 139 185 245 306 373 437
#
# _framework density 25.032467
#
# number of rings (size 3 to 8) (size 9 to 14) (size 15 to 20)
#    0.000    1.143    2.143    2.143    8.000    5.143 
#    0.000    0.000    0.000    0.000    0.000    0.000 
#    0.000    0.000    0.000    0.000    0.000    0.000 
#
# Total GULP energy -156091.946460 kJ/mol
# GULP energy per Si atom -5574.712374 kJ/mol
# Density = 2.497549 g / cm^3
# Si number density = 25.032467 Si / 1000 Ang^3
#
#
#
# Elastic Constant Matrix: (Units=GPa)
#
#
# Indices 1 2 3 4 5 6 
#
# 1 56.8601 10.5337 1.3193 0.0000 9.9599 0.0000
# 2 10.5337 118.9142 15.5954 0.0000 -15.6546 0.0000
# 3 1.3193 15.5954 60.6811 0.0000 -5.3694 0.0000
# 4 0.0000 0.0000 0.0000 4.9633 0.0000 6.7956
# 5 9.9599 -15.6546 -5.3694 0.0000 36.3824 0.0000
# 6 0.0000 0.0000 0.0000 6.7956 0.0000 24.7379
#
#
#
# Elastic Compliance Matrix: (Units=1/GPa)
#
#
# Indices 1 2 3 4 5 6 
#
# 1 0.019173 -0.002493 -0.000340 0.000000 -0.006371 0.000000
# 2 -0.002493 0.009479 -0.001987 0.000000 0.004468 0.000000
# 3 -0.000340 -0.001987 0.017154 0.000000 0.001770 0.000000
# 4 0.000000 0.000000 0.000000 0.322941 0.000000 -0.088713
# 5 -0.006371 0.004468 0.001770 0.000000 0.031414 0.000000
# 6 0.000000 0.000000 0.000000 -0.088713 0.000000 0.064793
#
#
# Mechanical properties :
#
#
# Convention : Reuss Voigt Hill
#
# Bulk Modulus (GPa) = 27.64913 32.37245 30.01079
# Shear Modulus (GPa) = 10.27437 27.15053 18.71245
#
# Velocity S-wave (km/s) = 2.02813 3.29692 2.73706
# Velocity P-wave (km/s) = 4.06863 5.23958 4.69078
#
# Compressibility (1/GPa) = 0.03616750
#
# Stress axis : x y z
#
# Youngs Moduli (GPa) = 52.15750 105.49727 58.29483
#
# Poissons Ratio (x) = 0.26295 0.01982
# Poissons Ratio (y) = 0.13000 0.11581
# Poissons Ratio (z) = 0.01773 0.20958
#
# Static dielectric constant tensor:
#      x y z
#    x 2.051830 0.000000 -0.047080 
#    y 0.000000 2.565700 0.000000 
#    z -0.047080 0.000000 2.029480 
# 
# From -- ./inp_files/130808.got.cif
#   From: 2010.05.17/outbox.cif.g08.bks.cpg/sg15_66_cif.got.tgz:130808.got - 2010.06.03 18:47:42.
