data_PCOD9292141
_publ_section_title
;
Structure prediction by ZEFSAII (Michael W. Deem and Ramdas Pophale) SiO2 
 PCOD9292141
Probable space group: C 2/C
;
_chemical_formula_sum "Si O2"
_cell_formula_units_Z 64
_cell_length_a 8.873875
_cell_length_b 17.189398
_cell_length_c 19.599321
_cell_angle_alpha 90.000000
_cell_angle_beta 90.643995
_cell_angle_gamma 90.000000
_cell_volume 2989.424341
_symmetry_space_group_name_H-M "C 2/C"
_symmetry_group_IT_number 15
_symmetry_cell_setting 'monoclinic'
loop_
_space_group_symop_operation_xyz
x,y,z
-x,y,1/2-z
-x,-y,-z
x,-y,1/2+z
1/2+x,1/2+y,z
1/2-x,1/2+y,1/2-z
1/2-x,1/2-y,-z
1/2+x,1/2-y,1/2+z
loop_
_atom_site_type_symbol
_atom_site_label
_atom_site_fract_x
_atom_site_fract_y
_atom_site_fract_z
Si Si1 0.646247 0.506391 0.851016
Si Si2 0.867105 0.733539 0.940572
Si Si3 0.321667 0.740097 0.823450
Si Si4 0.814430 0.677411 0.543110
Si Si5 0.639352 0.680700 0.827539
Si Si6 0.317430 0.490085 0.497264
Si Si7 0.638039 0.601291 0.119327
Si Si8 0.321063 0.100036 0.258007
O O1 0.587884 0.592218 0.835182
O O2 0.504531 0.448692 0.856296
O O3 0.754840 0.476936 0.792055
O O4 0.728298 0.507157 0.925154
O O5 0.777057 0.694944 0.878257
O O6 0.918682 0.818435 0.914077
O O7 0.006245 0.681291 0.964702
O O8 0.750000 0.750000 0.000000
O O9 0.222583 0.697317 0.878603
O O10 0.496861 0.734068 0.846534
O O11 0.317193 0.699529 0.749610
O O12 0.281682 0.829374 0.809291
O O13 0.750000 0.750000 0.500000
O O14 0.737258 0.596214 0.522261
O O15 0.500000 0.500000 0.500000
O O16 0.274633 0.551614 0.438373
O O17 0.743063 0.616024 0.185040
O O18 0.500000 0.097599 0.250000
#
# Coordination Sequence:
#
# PCOD9292141 Si02
#       8
#     8   8   8   8   8   8   8   8
#     4  11  25  43  71  97 133 177 234 275 342 417
#     4  12  25  45  69 104 143 182 232 293 353 412
#     4  11  22  44  69  97 138 179 236 276 348 414
#     4  12  25  41  72 105 140 184 235 290 348 423
#     4  11  24  44  69 101 134 187 225 291 346 412
#     4  10  22  43  67 101 133 174 231 287 343 415
#     4  11  23  44  71  98 134 183 231 284 344 421
#     4  12  24  42  64  99 137 179 222 284 347 411
#
# _framework density 21.408804
#
# number of rings (size 3 to 8) (size 9 to 14) (size 15 to 20)
#    0.000    0.750    2.500    6.375    5.250    2.500 
#    0.000    1.875    0.000    0.000    0.000    0.000 
#    0.000    0.000    0.000    0.000    0.000    0.000 
#
# Total GULP energy -179047.922771 kJ/mol
# GULP energy per Si atom -5595.247587 kJ/mol
# Density = 2.136008 g / cm^3
# Si number density = 21.408804 Si / 1000 Ang^3
#
#
#
# Elastic Constant Matrix: (Units=GPa)
#
#
# Indices 1 2 3 4 5 6 
#
# 1 89.4265 22.2168 23.9837 0.0000 8.4025 0.0000
# 2 22.2168 100.3415 -5.8599 0.0000 11.8820 0.0000
# 3 23.9837 -5.8599 52.3728 0.0000 -1.3872 0.0000
# 4 0.0000 0.0000 0.0000 44.2865 0.0000 4.6688
# 5 8.4025 11.8820 -1.3872 0.0000 32.5530 0.0000
# 6 0.0000 0.0000 0.0000 4.6688 0.0000 27.8164
#
#
#
# Elastic Compliance Matrix: (Units=1/GPa)
#
#
# Indices 1 2 3 4 5 6 
#
# 1 0.014080 -0.003192 -0.006878 0.000000 -0.002762 0.000000
# 2 -0.003192 0.011200 0.002631 0.000000 -0.003152 0.000000
# 3 -0.006878 0.002631 0.022585 0.000000 0.001777 0.000000
# 4 0.000000 0.000000 0.000000 0.022987 0.000000 -0.003858
# 5 -0.002762 -0.003152 0.001777 0.000000 0.032658 0.000000
# 6 0.000000 0.000000 0.000000 -0.003858 0.000000 0.036598
#
#
# Mechanical properties :
#
#
# Convention : Reuss Voigt Hill
#
# Bulk Modulus (GPa) = 30.31484 35.86912 33.09198
# Shear Modulus (GPa) = 30.12414 34.38452 32.25433
#
# Velocity S-wave (km/s) = 3.75519 4.01196 3.88570
# Velocity P-wave (km/s) = 5.74393 6.18480 5.96844
#
# Compressibility (1/GPa) = 0.03298714
#
# Stress axis : x y z
#
# Youngs Moduli (GPa) = 71.02515 89.28887 44.27709
#
# Poissons Ratio (x) = 0.28501 0.30453
# Poissons Ratio (y) = 0.22671 -0.11651
# Poissons Ratio (z) = 0.48850 -0.23495
#
# Static dielectric constant tensor:
#      x y z
#    x 1.778200 0.000000 0.011080 
#    y 0.000000 1.773240 0.000000 
#    z 0.011080 0.000000 1.793790 
# 
# From -- ./inp_files/232694.got.cif
#   From: 2010.05.17/outbox.cif.g08.bks.cpg/sg15_117_cif.got.tgz:232694.got - 2010.06.03 18:47:42.
