data_PCOD9292154
_publ_section_title
;
Structure prediction by ZEFSAII (Michael W. Deem and Ramdas Pophale) SiO2 
 PCOD9292154
Probable space group: C 2/C
;
_chemical_formula_sum "Si O2"
_cell_formula_units_Z 40
_cell_length_a 4.942893
_cell_length_b 14.041104
_cell_length_c 24.456227
_cell_angle_alpha 90.000000
_cell_angle_beta 63.735880
_cell_angle_gamma 90.000000
_cell_volume 1522.123708
_symmetry_space_group_name_H-M "C 2/C"
_symmetry_group_IT_number 15
_symmetry_cell_setting 'monoclinic'
loop_
_space_group_symop_operation_xyz
x,y,z
-x,y,1/2-z
-x,-y,-z
x,-y,1/2+z
1/2+x,1/2+y,z
1/2-x,1/2+y,1/2-z
1/2-x,1/2-y,-z
1/2+x,1/2-y,1/2+z
loop_
_atom_site_type_symbol
_atom_site_label
_atom_site_fract_x
_atom_site_fract_y
_atom_site_fract_z
Si Si1 0.395505 0.966225 0.418450
Si Si2 0.592953 0.863862 0.969333
Si Si3 0.837324 0.807572 0.640423
Si Si4 0.649010 0.033336 0.288272
Si Si5 0.599994 0.696602 0.895845
O O1 0.444361 0.896143 0.465631
O O2 0.130668 0.913020 0.408664
O O3 0.391483 0.067077 0.449762
O O4 0.631447 0.980781 0.348209
O O5 0.542888 0.754708 0.957394
O O6 0.935845 0.872854 0.916065
O O7 0.584968 0.877849 0.686469
O O8 0.650405 0.730742 0.623040
O O9 0.081226 0.744679 0.652233
O O10 0.500000 0.977895 0.250000
O O11 0.000000 0.058764 0.250000
#
# Coordination Sequence:
#
# PCOD9292154 Si02
#       5
#     8   8   8   8   8
#     4  11  22  44  73 104 143 183 236 301 353 454
#     4   9  22  43  70 108 143 182 224 292 393 424
#     4  10  22  45  65  97 136 178 232 284 361 427
#     4  12  25  46  67  94 134 188 235 289 355 428
#     4  10  22  43  67 108 135 177 229 292 364 434
#
# _framework density 26.279070999999998
#
# number of rings (size 3 to 8) (size 9 to 14) (size 15 to 20)
#    1.200    0.400    2.000    3.000    0.000    4.800 
#    3.600    6.000    0.000    0.000    0.000    0.000 
#    0.000    0.000    0.000    0.000    0.000    0.000 
#
# Total GULP energy -111630.761984 kJ/mol
# GULP energy per Si atom -5581.538099 kJ/mol
# Density = 2.621926 g / cm^3
# Si number density = 26.279071 Si / 1000 Ang^3
#
#
#
# Elastic Constant Matrix: (Units=GPa)
#
#
# Indices 1 2 3 4 5 6 
#
# 1 91.4586 12.2422 13.0630 0.0000 -31.4996 0.0000
# 2 12.2422 105.5453 8.9594 0.0000 -18.7913 0.0000
# 3 13.0630 8.9594 124.7378 0.0000 -21.2441 0.0000
# 4 0.0000 0.0000 0.0000 13.3054 0.0000 7.1671
# 5 -31.4996 -18.7913 -21.2441 0.0000 51.3106 0.0000
# 6 0.0000 0.0000 0.0000 7.1671 0.0000 34.3224
#
#
#
# Elastic Compliance Matrix: (Units=1/GPa)
#
#
# Indices 1 2 3 4 5 6 
#
# 1 0.013867 -0.000099 -0.000002 0.000000 0.008476 0.000000
# 2 -0.000099 0.010137 -0.000103 0.000000 0.003609 0.000000
# 3 -0.000002 -0.000103 0.008626 0.000000 0.003533 0.000000
# 4 0.000000 0.000000 0.000000 0.084683 0.000000 -0.017683
# 5 0.008476 0.003609 0.003533 0.000000 0.027477 0.000000
# 6 0.000000 0.000000 0.000000 -0.017683 0.000000 0.032828
#
#
# Mechanical properties :
#
#
# Convention : Reuss Voigt Hill
#
# Bulk Modulus (GPa) = 31.03439 43.36344 37.19892
# Shear Modulus (GPa) = 26.48785 38.95283 32.72034
#
# Velocity S-wave (km/s) = 3.17826 3.85421 3.53244
# Velocity P-wave (km/s) = 5.03027 6.02856 5.55190
#
# Compressibility (1/GPa) = 0.03222231
#
# Stress axis : x y z
#
# Youngs Moduli (GPa) = 72.11589 98.64450 115.92802
#
# Poissons Ratio (x) = 0.00979 0.00018
# Poissons Ratio (y) = 0.00716 0.01195
# Poissons Ratio (z) = 0.00011 0.01017
#
# Static dielectric constant tensor:
#      x y z
#    x 2.159650 0.000000 -0.002660 
#    y 0.000000 2.057390 0.000000 
#    z -0.002660 0.000000 2.116210 
# 
# From -- ./inp_files/260302.got.cif
#   From: 2010.05.17/outbox.cif.g08.bks.cpg/sg15_131_cif.got.tgz:260302.got - 2010.06.03 18:47:42.
