data_PCOD9292014
_publ_section_title
;
Structure prediction by ZEFSAII (Michael W. Deem and Ramdas Pophale) SiO2 
 PCOD9292014
Probable space group: C 2/C
;
_chemical_formula_sum "Si O2"
_cell_formula_units_Z 32
_cell_length_a 22.273168
_cell_length_b 7.362662
_cell_length_c 27.473066
_cell_angle_alpha 90.000000
_cell_angle_beta 19.428058
_cell_angle_gamma 90.000000
_cell_volume 1498.567302
_symmetry_space_group_name_H-M "C 2/C"
_symmetry_group_IT_number 15
_symmetry_cell_setting 'monoclinic'
loop_
_space_group_symop_operation_xyz
x,y,z
-x,y,1/2-z
-x,-y,-z
x,-y,1/2+z
1/2+x,1/2+y,z
1/2-x,1/2+y,1/2-z
1/2-x,1/2-y,-z
1/2+x,1/2-y,1/2+z
loop_
_atom_site_type_symbol
_atom_site_label
_atom_site_fract_x
_atom_site_fract_y
_atom_site_fract_z
Si Si1 0.629087 0.281343 0.442685
Si Si2 0.732982 0.121522 0.210067
Si Si3 0.652432 0.891623 0.454543
Si Si4 0.712534 0.317223 0.582138
O O1 0.752195 0.409586 0.315341
O O2 0.421185 0.328806 0.592171
O O3 0.686153 0.306872 0.455275
O O4 0.659498 0.066502 0.413176
O O5 0.554469 0.162012 0.377057
O O6 0.739617 0.233659 0.154447
O O7 0.725696 0.979883 0.448693
O O8 0.500000 0.307400 0.750000
O O9 0.750000 0.250000 0.500000
#
# Coordination Sequence:
#
# PCOD9292014 Si02
#       4
#     8   8   8   8
#     4   9  24  39  67  91 137 166 210 271 324 387
#     4  11  22  42  65 103 125 168 213 275 334 375
#     4  10  25  39  68  97 132 165 217 267 325 387
#     4  10  22  43  65  89 128 178 214 256 317 383
#
# _framework density 21.353729999999999
#
# number of rings (size 3 to 8) (size 9 to 14) (size 15 to 20)
#    1.500    0.500    0.000    2.250    7.000    4.000 
#    0.000    6.250    0.000    0.000    0.000    0.000 
#    0.000    0.000    0.000    0.000    0.000    0.000 
#
# Total GULP energy -89271.185475 kJ/mol
# GULP energy per Si atom -5579.449092 kJ/mol
# Density = 2.130513 g / cm^3
# Si number density = 21.353730 Si / 1000 Ang^3
#
#
#
# Elastic Constant Matrix: (Units=GPa)
#
#
# Indices 1 2 3 4 5 6 
#
# 1 95.9796 2.2855 4.0904 -0.0011 -19.5992 0.0009
# 2 2.2855 75.1441 20.2279 -0.0137 16.7122 0.0078
# 3 4.0904 20.2279 79.6737 0.0037 13.2284 -0.0072
# 4 -0.0011 -0.0137 0.0037 0.6012 0.0005 34.4251
# 5 -19.5992 16.7122 13.2284 0.0005 22.1916 0.0027
# 6 0.0009 0.0078 -0.0072 34.4251 0.0027 -6.1892
#
#
#
# Elastic Compliance Matrix: (Units=1/GPa)
#
#
# Indices 1 2 3 4 5 6 
#
# 1 0.013962 -0.003380 -0.002584 -0.000002 0.016417 -0.000001
# 2 -0.003380 0.017187 -0.001715 -0.000002 -0.014906 0.000007
# 3 -0.002584 -0.001715 0.014743 0.000004 -0.009779 -0.000002
# 4 -0.000002 -0.000002 0.000004 0.005206 -0.000006 0.028958
# 5 0.016417 -0.014906 -0.009779 -0.000006 0.076616 -0.000005
# 6 -0.000001 0.000007 -0.000002 0.028958 -0.000005 -0.000506
#
#
# Mechanical properties :
#
#
# Convention : Reuss Voigt Hill
#
# Bulk Modulus (GPa) = 32.75138 33.77834 33.26486
# Shear Modulus (GPa) = 32.73405 18.26696 25.50050
#
# Velocity S-wave (km/s) = 3.91953 2.92797 3.45946
# Velocity P-wave (km/s) = 5.98786 5.22336 5.61863
#
# Compressibility (1/GPa) = 0.03053306
#
# Stress axis : x y z
#
# Youngs Moduli (GPa) = 71.62362 58.18183 67.82896
#
# Poissons Ratio (x) = 0.19666 0.17529
# Poissons Ratio (y) = 0.24210 0.11634
# Poissons Ratio (z) = 0.18510 0.09979
#
# Static dielectric constant tensor:
#      x y z
#    x 1.800160 0.000000 -0.019510 
#    y 0.000000 1.808520 0.000010 
#    z -0.019510 0.000010 1.707980 
# 
# From -- ./inp_files/59601.got.cif
#   From: 2010.05.17/outbox.cif.g08.bks.cpg/sg15_30_cif.got.tgz:59601.got - 2010.06.03 18:47:42.
