data_PCOD9292293
_publ_section_title
;
Structure prediction by ZEFSAII (Michael W. Deem and Ramdas Pophale) SiO2 
 PCOD9292293
Probable space group: C 2/C
;
_chemical_formula_sum "Si O2"
_cell_formula_units_Z 64
_cell_length_a 14.382010
_cell_length_b 23.422903
_cell_length_c 8.835410
_cell_angle_alpha 90.000000
_cell_angle_beta 88.933881
_cell_angle_gamma 90.000000
_cell_volume 2975.855411
_symmetry_space_group_name_H-M "C 2/C"
_symmetry_group_IT_number 15
_symmetry_cell_setting 'monoclinic'
loop_
_space_group_symop_operation_xyz
x,y,z
-x,y,1/2-z
-x,-y,-z
x,-y,1/2+z
1/2+x,1/2+y,z
1/2-x,1/2+y,1/2-z
1/2-x,1/2-y,-z
1/2+x,1/2-y,1/2+z
loop_
_atom_site_type_symbol
_atom_site_label
_atom_site_fract_x
_atom_site_fract_y
_atom_site_fract_z
Si Si1 0.198939 0.902844 0.485020
Si Si2 0.900833 0.993669 0.836255
Si Si3 0.079434 0.547704 0.972564
Si Si4 0.897872 0.878073 0.321526
Si Si5 0.201601 0.701676 0.404499
Si Si6 0.652629 0.256352 0.083759
Si Si7 0.499357 0.835120 0.565399
Si Si8 0.202803 0.507033 0.688468
O O1 0.114399 0.942381 0.546141
O O2 0.170726 0.878793 0.321623
O O3 0.230693 0.853384 0.596903
O O4 0.282216 0.946780 0.445986
O O5 0.000000 0.988784 0.750000
O O6 0.894351 0.059088 0.896845
O O7 0.806466 0.990431 0.738536
O O8 0.140805 0.533966 0.823084
O O9 0.033444 0.609202 0.977315
O O10 0.148038 0.544629 0.114920
O O11 0.000000 0.500000 0.000000
O O12 0.874921 0.822697 0.418074
O O13 0.000000 0.870807 0.250000
O O14 0.250000 0.750000 0.500000
O O15 0.172506 0.731516 0.249988
O O16 0.104986 0.680144 0.477210
O O17 0.568682 0.217058 0.028402
O O18 0.750000 0.250000 0.000000
O O19 0.500000 0.845079 0.750000
#
# Coordination Sequence:
#
# PCOD9292293 Si02
#       8
#     8   8   8   8   8   8   8   8
#     4  11  23  43  67 101 136 175 229 280 353 406
#     4  10  24  44  68 101 137 178 229 291 353 422
#     4  12  24  42  66 103 139 180 227 288 347 420
#     4  10  22  43  69  90 133 181 223 276 343 412
#     4  11  23  45  72  92 134 180 223 280 342 409
#     4  11  25  44  67 101 129 177 230 280 339 409
#     4  10  24  41  69  97 132 177 230 279 342 415
#     4  11  24  41  68  96 143 179 223 280 357 412
#
# _framework density 21.506419999999999
#
# number of rings (size 3 to 8) (size 9 to 14) (size 15 to 20)
#    0.000    1.250    2.500    3.000    7.000    4.500 
#    4.500    1.875    0.000    0.000    0.000    0.000 
#    0.000    0.000    0.000    0.000    0.000    0.000 
#
# Total GULP energy -178849.618180 kJ/mol
# GULP energy per Si atom -5589.050568 kJ/mol
# Density = 2.145747 g / cm^3
# Si number density = 21.506420 Si / 1000 Ang^3
#
#
#
# Elastic Constant Matrix: (Units=GPa)
#
#
# Indices 1 2 3 4 5 6 
#
# 1 127.6830 61.4976 24.2907 0.0000 -14.5660 0.0000
# 2 61.4976 143.1854 25.0156 0.0000 -15.6866 0.0000
# 3 24.2907 25.0156 31.6161 0.0000 -14.3776 0.0000
# 4 0.0000 0.0000 0.0000 24.4791 0.0000 -0.0312
# 5 -14.5660 -15.6866 -14.3776 0.0000 37.3555 0.0000
# 6 0.0000 0.0000 0.0000 -0.0312 0.0000 38.3010
#
#
#
# Elastic Compliance Matrix: (Units=1/GPa)
#
#
# Indices 1 2 3 4 5 6 
#
# 1 0.010593 -0.003605 -0.004966 0.000000 0.000706 0.000000
# 2 -0.003605 0.009371 -0.004236 0.000000 0.000899 0.000000
# 3 -0.004966 -0.004236 0.044980 0.000000 0.013597 0.000000
# 4 0.000000 0.000000 0.000000 0.040851 0.000000 0.000033
# 5 0.000706 0.000899 0.013597 0.000000 0.032656 0.000000
# 6 0.000000 0.000000 0.000000 0.000033 0.000000 0.026109
#
#
# Mechanical properties :
#
#
# Convention : Reuss Voigt Hill
#
# Bulk Modulus (GPa) = 25.42548 58.23248 41.82898
# Shear Modulus (GPa) = 24.59622 32.80581 28.70102
#
# Velocity S-wave (km/s) = 3.38549 3.90987 3.65709
# Velocity P-wave (km/s) = 5.20864 6.89335 6.10935
#
# Compressibility (1/GPa) = 0.03933063
#
# Stress axis : x y z
#
# Youngs Moduli (GPa) = 94.39849 106.71435 22.23231
#
# Poissons Ratio (x) = 0.38470 0.11040
# Poissons Ratio (y) = 0.34030 0.09417
# Poissons Ratio (z) = 0.46875 0.45203
#
# Static dielectric constant tensor:
#      x y z
#    x 1.788780 0.000000 0.018640 
#    y 0.000000 1.791520 0.000000 
#    z 0.018640 0.000000 1.844030 
# 
# From -- ./inp_files/42635.got.cif
#   From: 2010.05.17/outbox.cif.g08.bks.cpg/sg15_22_cif.got.tgz:42635.got - 2010.06.03 18:47:42.
