data_PCOD9292532
_publ_section_title
;
Structure prediction by ZEFSAII (Michael W. Deem and Ramdas Pophale) SiO2 
 PCOD9292532
Probable space group: C 2/C
;
_chemical_formula_sum "Si O2"
_cell_formula_units_Z 32
_cell_length_a 12.237996
_cell_length_b 10.465159
_cell_length_c 13.348880
_cell_angle_alpha 90.000000
_cell_angle_beta 45.367185
_cell_angle_gamma 90.000000
_cell_volume 1216.610114
_symmetry_space_group_name_H-M "C 2/C"
_symmetry_group_IT_number 15
_symmetry_cell_setting 'monoclinic'
loop_
_space_group_symop_operation_xyz
x,y,z
-x,y,1/2-z
-x,-y,-z
x,-y,1/2+z
1/2+x,1/2+y,z
1/2-x,1/2+y,1/2-z
1/2-x,1/2-y,-z
1/2+x,1/2-y,1/2+z
loop_
_atom_site_type_symbol
_atom_site_label
_atom_site_fract_x
_atom_site_fract_y
_atom_site_fract_z
Si Si1 0.666617 0.087121 0.865263
Si Si2 0.426978 0.215209 0.900309
Si Si3 0.644373 0.626624 0.585013
Si Si4 0.343360 0.627739 0.147226
O O1 0.491237 0.128117 0.952184
O O2 0.733838 0.044865 0.929510
O O3 0.736359 0.230752 0.799515
O O4 0.728481 0.983387 0.749410
O O5 0.500000 0.162538 0.750000
O O6 0.980987 0.152507 0.136424
O O7 0.250000 0.250000 0.000000
O O8 0.500000 0.642021 0.750000
O O9 0.750000 0.750000 0.500000
O O10 0.596291 0.598724 0.502765
#
# Coordination Sequence:
#
# PCOD9292532 Si02
#       4
#     8   8   8   8
#     4   9  22  46  80 117 156 211 267 336 401 482
#     4  10  24  46  80 113 162 212 264 328 407 488
#     4  10  22  43  78 114 156 209 271 334 398 479
#     4   9  22  46  82 115 163 205 277 329 413 473
#
# _framework density 26.302593000000002
#
# number of rings (size 3 to 8) (size 9 to 14) (size 15 to 20)
#    1.500    1.000    0.000    0.000    3.500    2.000 
#    4.500    7.500    0.000    0.000    0.000    7.000 
#    0.000    0.000    0.000    0.000    0.000    0.000 
#
# Total GULP energy -89239.152932 kJ/mol
# GULP energy per Si atom -5577.447058 kJ/mol
# Density = 2.624273 g / cm^3
# Si number density = 26.302593 Si / 1000 Ang^3
#
#
#
# Elastic Constant Matrix: (Units=GPa)
#
#
# Indices 1 2 3 4 5 6 
#
# 1 210.5987 28.7078 65.2260 0.0000 -14.1983 0.0000
# 2 28.7078 86.0764 21.0862 0.0000 -24.0933 0.0000
# 3 65.2260 21.0862 131.1047 0.0000 3.9983 0.0000
# 4 0.0000 0.0000 0.0000 29.6439 0.0000 -19.6867
# 5 -14.1983 -24.0933 3.9983 0.0000 52.2237 0.0000
# 6 0.0000 0.0000 0.0000 -19.6867 0.0000 37.2749
#
#
#
# Elastic Compliance Matrix: (Units=1/GPa)
#
#
# Indices 1 2 3 4 5 6 
#
# 1 0.005829 -0.000865 -0.002804 0.000000 0.001400 0.000000
# 2 -0.000865 0.014225 -0.002055 0.000000 0.006485 0.000000
# 3 -0.002804 -0.002055 0.009427 0.000000 -0.002432 0.000000
# 4 0.000000 0.000000 0.000000 0.051958 0.000000 0.027441
# 5 0.001400 0.006485 -0.002432 0.000000 0.022707 0.000000
# 6 0.000000 0.000000 0.000000 0.027441 0.000000 0.041321
#
#
# Mechanical properties :
#
#
# Convention : Reuss Voigt Hill
#
# Bulk Modulus (GPa) = 55.45447 73.09110 64.27278
# Shear Modulus (GPa) = 30.68896 44.67913 37.68404
#
# Velocity S-wave (km/s) = 3.41950 4.12595 3.78922
# Velocity P-wave (km/s) = 6.05968 7.10963 6.60555
#
# Compressibility (1/GPa) = 0.01803281
#
# Stress axis : x y z
#
# Youngs Moduli (GPa) = 171.55515 70.30010 106.07857
#
# Poissons Ratio (x) = 0.06084 0.29739
# Poissons Ratio (y) = 0.14846 0.21800
# Poissons Ratio (z) = 0.48096 0.14447
#
# Static dielectric constant tensor:
#      x y z
#    x 2.505720 0.000000 0.242850 
#    y 0.000000 2.234040 0.000000 
#    z 0.242850 0.000000 2.272940 
# 
# From -- ./inp_files/151636.got.cif
#   From: 2010.05.17/outbox.cif.g08.bks.cpg/sg15_76_cif.got.tgz:151636.got - 2010.06.03 18:47:42.
