data_PCOD9292508
_publ_section_title
;
Structure prediction by ZEFSAII (Michael W. Deem and Ramdas Pophale) SiO2 
 PCOD9292508
Probable space group: C 2/C
;
_chemical_formula_sum "Si O2"
_cell_formula_units_Z 44
_cell_length_a 20.560208
_cell_length_b 12.346286
_cell_length_c 8.366597
_cell_angle_alpha 90.000000
_cell_angle_beta 118.917876
_cell_angle_gamma 90.000000
_cell_volume 1858.987266
_symmetry_space_group_name_H-M "C 2/C"
_symmetry_group_IT_number 15
_symmetry_cell_setting 'monoclinic'
loop_
_space_group_symop_operation_xyz
x,y,z
-x,y,1/2-z
-x,-y,-z
x,-y,1/2+z
1/2+x,1/2+y,z
1/2-x,1/2+y,1/2-z
1/2-x,1/2-y,-z
1/2+x,1/2-y,1/2+z
loop_
_atom_site_type_symbol
_atom_site_label
_atom_site_fract_x
_atom_site_fract_y
_atom_site_fract_z
Si Si1 0.598867 0.422981 0.742098
Si Si2 0.082541 0.592019 0.804508
Si Si3 0.750000 0.750000 0.000000
Si Si4 0.198443 0.254812 0.284629
Si Si5 0.064835 0.860148 0.061442
Si Si6 0.879704 0.374760 0.801810
O O1 0.663993 0.364968 0.724057
O O2 0.521785 0.384554 0.569897
O O3 0.598070 0.552094 0.723950
O O4 0.599407 0.382380 0.926225
O O5 0.128272 0.667314 0.737825
O O6 0.076157 0.471849 0.728131
O O7 0.000000 0.634300 0.750000
O O8 0.128365 0.592562 0.023256
O O9 0.758228 0.713855 0.821341
O O10 0.695854 0.850922 0.879398
O O11 0.250000 0.250000 0.500000
O O12 0.078839 0.741056 0.143634
#
# Coordination Sequence:
#
# PCOD9292508 Si02
#       6
#     8   8   4   8   8   8
#     4  10  22  43  74 106 152 197 257 335 399 484
#     4  12  26  51  82 120 165 222 279 357 424 494
#     4  12  28  48  72 120 152 224 276 318 420 504
#     4  12  25  51  80 111 166 214 267 342 409 502
#     4  10  22  44  72 112 147 197 261 331 413 471
#     4  12  26  48  74 115 165 211 277 341 415 503
#
# _framework density 23.668803
#
# number of rings (size 3 to 8) (size 9 to 14) (size 15 to 20)
#    0.000    0.727    3.636    2.727    2.545    2.909 
#    6.545    0.000    0.000    0.000    0.000    0.000 
#    0.000    0.000    0.000    0.000    0.000    0.000 
#
# Total GULP energy -122676.371095 kJ/mol
# GULP energy per Si atom -5576.198686 kJ/mol
# Density = 2.361493 g / cm^3
# Si number density = 23.668803 Si / 1000 Ang^3
#
#
#
# Elastic Constant Matrix: (Units=GPa)
#
#
# Indices 1 2 3 4 5 6 
#
# 1 66.6529 26.9454 24.2820 0.0000 0.9171 0.0000
# 2 26.9454 151.2566 25.9839 0.0000 -1.9020 0.0000
# 3 24.2820 25.9839 122.9853 0.0000 -22.4795 0.0000
# 4 0.0000 0.0000 0.0000 28.4909 0.0000 7.5585
# 5 0.9171 -1.9020 -22.4795 0.0000 16.6317 0.0000
# 6 0.0000 0.0000 0.0000 7.5585 0.0000 30.5941
#
#
#
# Elastic Compliance Matrix: (Units=1/GPa)
#
#
# Indices 1 2 3 4 5 6 
#
# 1 0.017654 -0.002506 -0.004232 0.000000 -0.006980 0.000000
# 2 -0.002506 0.007247 -0.001142 0.000000 -0.000576 0.000000
# 3 -0.004232 -0.001142 0.012254 0.000000 0.016665 0.000000
# 4 0.000000 0.000000 0.000000 0.037561 0.000000 -0.009280
# 5 -0.006980 -0.000576 0.016665 0.000000 0.082970 0.000000
# 6 0.000000 0.000000 0.000000 -0.009280 0.000000 0.034979
#
#
# Mechanical properties :
#
#
# Convention : Reuss Voigt Hill
#
# Bulk Modulus (GPa) = 46.73829 55.03530 50.88679
# Shear Modulus (GPa) = 23.19604 32.72224 27.95914
#
# Velocity S-wave (km/s) = 3.13393 3.72224 3.44068
# Velocity P-wave (km/s) = 5.73455 6.46345 6.10988
#
# Compressibility (1/GPa) = 0.02139573
#
# Stress axis : x y z
#
# Youngs Moduli (GPa) = 56.64498 137.99721 81.60675
#
# Poissons Ratio (x) = 0.34578 0.34536
# Poissons Ratio (y) = 0.14193 0.09316
# Poissons Ratio (z) = 0.23972 0.15754
#
# Static dielectric constant tensor:
#      x y z
#    x 2.025780 0.000000 -0.011360 
#    y 0.000000 1.909200 0.000000 
#    z -0.011360 0.000000 1.897700 
# 
# From -- ./inp_files/60935.got.cif
#   From: 2010.05.17/outbox.cif.g08.bks.cpg/sg15_31_cif.got.tgz:60935.got - 2010.06.03 18:47:42.
