data_PCOD9292828
_publ_section_title
;
Structure prediction by ZEFSAII (Michael W. Deem and Ramdas Pophale) SiO2 
 PCOD9292828
Probable space group: C 2/C
;
_chemical_formula_sum "Si O2"
_cell_formula_units_Z 52
_cell_length_a 14.945625
_cell_length_b 11.151238
_cell_length_c 20.139724
_cell_angle_alpha 90.000000
_cell_angle_beta 138.930514
_cell_angle_gamma 90.000000
_cell_volume 2205.153111
_symmetry_space_group_name_H-M "C 2/C"
_symmetry_group_IT_number 15
_symmetry_cell_setting 'monoclinic'
loop_
_space_group_symop_operation_xyz
x,y,z
-x,y,1/2-z
-x,-y,-z
x,-y,1/2+z
1/2+x,1/2+y,z
1/2-x,1/2+y,1/2-z
1/2-x,1/2-y,-z
1/2+x,1/2-y,1/2+z
loop_
_atom_site_type_symbol
_atom_site_label
_atom_site_fract_x
_atom_site_fract_y
_atom_site_fract_z
Si Si1 0.708333 0.747371 0.855763
Si Si2 0.500000 0.166353 0.750000
Si Si3 0.147361 0.080825 0.695587
Si Si4 0.020807 0.711545 0.047262
Si Si5 0.413387 0.043188 0.295248
Si Si6 0.758395 0.680987 0.435508
Si Si7 0.596216 0.456053 0.366018
O O1 0.687443 0.649924 0.785466
O O2 0.629479 0.864623 0.787513
O O3 0.642090 0.681826 0.882638
O O4 0.869155 0.760984 0.952759
O O5 0.366167 0.251598 0.673372
O O6 0.514204 0.073790 0.695523
O O7 0.118997 0.183400 0.627386
O O8 0.000663 0.020850 0.625968
O O9 0.267339 0.995464 0.742781
O O10 0.016985 0.612422 0.104101
O O11 0.098761 0.675066 0.023647
O O12 0.750000 0.750000 0.500000
O O13 0.719931 0.544592 0.430141
O O14 0.500000 0.485393 0.250000
#
# Coordination Sequence:
#
# PCOD9292828 Si02
#       7
#     8   4   8   8   8   8   8
#     4  10  25  42  71 101 139 179 237 287 348 419
#     4  12  28  50  66 108 144 180 238 296 350 416
#     4  10  23  43  68  96 136 187 228 282 355 413
#     4  11  25  45  69 106 138 184 235 280 356 422
#     4  11  26  45  73  98 144 185 229 300 348 419
#     4  12  28  44  73 104 141 185 233 292 354 422
#     4  10  22  44  68  95 137 182 230 279 346 416
#
# _framework density 23.581128
#
# number of rings (size 3 to 8) (size 9 to 14) (size 15 to 20)
#    0.000    1.231    2.308    1.846   11.846    3.692 
#    0.000    0.000    0.000    0.000    0.000    0.000 
#    0.000    0.000    0.000    0.000    0.000    0.000 
#
# Total GULP energy -145350.128943 kJ/mol
# GULP energy per Si atom -5590.389575 kJ/mol
# Density = 2.352746 g / cm^3
# Si number density = 23.581128 Si / 1000 Ang^3
#
#
#
# Elastic Constant Matrix: (Units=GPa)
#
#
# Indices 1 2 3 4 5 6 
#
# 1 96.8327 9.3973 19.7038 0.0000 26.4695 0.0000
# 2 9.3973 76.1493 10.1339 0.0000 4.5134 0.0000
# 3 19.7038 10.1339 74.6663 0.0000 10.3982 0.0000
# 4 0.0000 0.0000 0.0000 13.2298 0.0000 15.8943
# 5 26.4695 4.5134 10.3982 0.0000 27.3998 0.0000
# 6 0.0000 0.0000 0.0000 15.8943 0.0000 34.1852
#
#
#
# Elastic Compliance Matrix: (Units=1/GPa)
#
#
# Indices 1 2 3 4 5 6 
#
# 1 0.014339 -0.000749 -0.001869 0.000000 -0.013019 0.000000
# 2 -0.000749 0.013479 -0.001503 0.000000 -0.000926 0.000000
# 3 -0.001869 -0.001503 0.014574 0.000000 -0.003478 0.000000
# 4 0.000000 0.000000 0.000000 0.171238 0.000000 -0.079616
# 5 -0.013019 -0.000926 -0.003478 0.000000 0.050546 0.000000
# 6 0.000000 0.000000 0.000000 -0.079616 0.000000 0.066270
#
#
# Mechanical properties :
#
#
# Convention : Reuss Voigt Hill
#
# Bulk Modulus (GPa) = 29.28185 36.23536 32.75861
# Shear Modulus (GPa) = 14.28276 28.85718 21.56997
#
# Velocity S-wave (km/s) = 2.46374 3.50200 3.02770
# Velocity P-wave (km/s) = 4.53186 5.63485 5.11319
#
# Compressibility (1/GPa) = 0.03415084
#
# Stress axis : x y z
#
# Youngs Moduli (GPa) = 69.73977 74.18703 68.61320
#
# Poissons Ratio (x) = 0.05557 0.12825
# Poissons Ratio (y) = 0.05224 0.10311
# Poissons Ratio (z) = 0.13036 0.11149
#
# Static dielectric constant tensor:
#      x y z
#    x 2.029540 0.000000 -0.098170 
#    y 0.000000 1.889940 0.000000 
#    z -0.098170 0.000000 1.985740 
# 
# From -- ./inp_files/273879.got.cif
#   From: 2010.05.17/outbox.cif.g08.bks.cpg/sg15_137_cif.got.tgz:273879.got - 2010.06.03 18:47:42.
