data_PCOD9292003
_publ_section_title
;
Structure prediction by ZEFSAII (Michael W. Deem and Ramdas Pophale) SiO2 
 PCOD9292003
Probable space group: C 2/C
;
_chemical_formula_sum "Si O2"
_cell_formula_units_Z 48
_cell_length_a 18.943132
_cell_length_b 13.799735
_cell_length_c 11.911457
_cell_angle_alpha 90.000000
_cell_angle_beta 48.747724
_cell_angle_gamma 90.000000
_cell_volume 2340.979475
_symmetry_space_group_name_H-M "C 2/C"
_symmetry_group_IT_number 15
_symmetry_cell_setting 'monoclinic'
loop_
_space_group_symop_operation_xyz
x,y,z
-x,y,1/2-z
-x,-y,-z
x,-y,1/2+z
1/2+x,1/2+y,z
1/2-x,1/2+y,1/2-z
1/2-x,1/2-y,-z
1/2+x,1/2-y,1/2+z
loop_
_atom_site_type_symbol
_atom_site_label
_atom_site_fract_x
_atom_site_fract_y
_atom_site_fract_z
Si Si1 0.661256 0.861009 0.449011
Si Si2 0.407311 0.665861 0.923491
Si Si3 0.696986 0.507832 0.083603
Si Si4 0.036353 0.096674 0.403383
Si Si5 0.500000 0.032453 0.250000
Si Si6 0.861823 0.378533 0.292339
Si Si7 0.000000 0.778422 0.750000
O O1 0.665300 0.754771 0.500819
O O2 0.565856 0.904804 0.600974
O O3 0.655964 0.859529 0.319937
O O4 0.742615 0.933253 0.404018
O O5 0.500000 0.679095 0.750000
O O6 0.360166 0.563737 0.939511
O O7 0.440592 0.664505 0.016885
O O8 0.625982 0.565792 0.236735
O O9 0.766844 0.582418 0.949461
O O10 0.970888 0.152937 0.384252
O O11 0.000000 0.000000 0.500000
O O12 0.435608 0.965383 0.238229
O O13 0.913754 0.287798 0.297504
#
# Coordination Sequence:
#
# PCOD9292003 Si02
#       7
#     8   8   8   8   4   8   4
#     4  11  21  41  65  99 137 170 224 274 333 398
#     4  12  23  43  67  99 134 177 226 272 334 401
#     4  11  25  43  67  99 136 177 222 274 339 396
#     4  12  24  45  68  94 133 177 219 278 332 398
#     4   9  20  36  69  94 134 180 215 278 336 395
#     4  10  22  43  65 100 135 173 225 275 331 398
#     4  11  24  44  71 100 132 176 229 268 334 401
#
# _framework density 20.504238999999998
#
# number of rings (size 3 to 8) (size 9 to 14) (size 15 to 20)
#    0.000    1.000    4.167    3.000    0.000    0.667 
#    3.000    0.000    0.000    0.000    0.000    0.000 
#    0.000    0.000    0.000    0.000    0.000    0.000 
#
# Total GULP energy -134085.722048 kJ/mol
# GULP energy per Si atom -5586.905085 kJ/mol
# Density = 2.045757 g / cm^3
# Si number density = 20.504239 Si / 1000 Ang^3
#
#
#
# Elastic Constant Matrix: (Units=GPa)
#
#
# Indices 1 2 3 4 5 6 
#
# 1 99.9974 30.7307 59.2536 0.0000 27.8389 0.0000
# 2 30.7307 102.0550 49.3871 0.0000 14.6117 0.0000
# 3 59.2536 49.3871 103.2552 0.0000 24.0051 0.0000
# 4 0.0000 0.0000 0.0000 17.8644 0.0000 -10.0549
# 5 27.8389 14.6117 24.0051 0.0000 29.9941 0.0000
# 6 0.0000 0.0000 0.0000 -10.0549 0.0000 29.0415
#
#
#
# Elastic Compliance Matrix: (Units=1/GPa)
#
#
# Indices 1 2 3 4 5 6 
#
# 1 0.017275 -0.000130 -0.007541 0.000000 -0.009935 0.000000
# 2 -0.000130 0.012816 -0.005691 0.000000 -0.001568 0.000000
# 3 -0.007541 -0.005691 0.017769 0.000000 -0.004449 0.000000
# 4 0.000000 0.000000 0.000000 0.069526 0.000000 0.024072
# 5 -0.009935 -0.001568 -0.004449 0.000000 0.046885 0.000000
# 6 0.000000 0.000000 0.000000 0.024072 0.000000 0.042768
#
#
# Mechanical properties :
#
#
# Convention : Reuss Voigt Hill
#
# Bulk Modulus (GPa) = 47.31442 64.89449 56.10446
# Shear Modulus (GPa) = 20.76348 26.44242 23.60295
#
# Velocity S-wave (km/s) = 3.18566 3.59501 3.39650
# Velocity P-wave (km/s) = 6.05448 6.99644 6.54243
#
# Compressibility (1/GPa) = 0.02113520
#
# Stress axis : x y z
#
# Youngs Moduli (GPa) = 57.88864 78.02588 56.27892
#
# Poissons Ratio (x) = 0.01013 0.42442
# Poissons Ratio (y) = 0.00752 0.32028
# Poissons Ratio (z) = 0.43656 0.44404
#
# Static dielectric constant tensor:
#      x y z
#    x 1.883500 0.000000 -0.008920 
#    y 0.000000 1.767080 0.000000 
#    z -0.008920 0.000000 1.670670 
# 
# From -- ./inp_files/96576.got.cif
#   From: 2010.05.17/outbox.cif.g08.bks.cpg/sg15_49_cif.got.tgz:96576.got - 2010.06.03 18:47:42.
