data_PCOD9292424
_publ_section_title
;
Structure prediction by ZEFSAII (Michael W. Deem and Ramdas Pophale) SiO2 
 PCOD9292424
Probable space group: C 2/C
;
_chemical_formula_sum "Si O2"
_cell_formula_units_Z 36
_cell_length_a 16.455527
_cell_length_b 20.227874
_cell_length_c 8.967611
_cell_angle_alpha 90.000000
_cell_angle_beta 148.193487
_cell_angle_gamma 90.000000
_cell_volume 1573.231354
_symmetry_space_group_name_H-M "C 2/C"
_symmetry_group_IT_number 15
_symmetry_cell_setting 'monoclinic'
loop_
_space_group_symop_operation_xyz
x,y,z
-x,y,1/2-z
-x,-y,-z
x,-y,1/2+z
1/2+x,1/2+y,z
1/2-x,1/2+y,1/2-z
1/2-x,1/2-y,-z
1/2+x,1/2-y,1/2+z
loop_
_atom_site_type_symbol
_atom_site_label
_atom_site_fract_x
_atom_site_fract_y
_atom_site_fract_z
Si Si1 0.154041 0.696598 0.199161
Si Si2 0.361871 0.414100 0.728903
Si Si3 0.500000 0.700136 0.250000
Si Si4 0.000000 0.239812 0.750000
Si Si5 0.523049 0.065030 0.627896
Si Si6 0.000000 0.031054 0.750000
O O1 0.048928 0.717484 0.179532
O O2 0.339700 0.699258 0.495810
O O3 0.118214 0.749090 0.011851
O O4 0.098666 0.622615 0.086663
O O5 0.452782 0.350396 0.808506
O O6 0.188042 0.400140 0.403682
O O7 0.396770 0.480492 0.687007
O O8 0.409849 0.430787 0.974925
O O9 0.500000 0.033346 0.750000
O O10 0.500000 0.000000 0.500000
#
# Coordination Sequence:
#
# PCOD9292424 Si02
#       6
#     8   8   4   4   8   4
#     4  11  25  50  76 110 150 194 251 314 378 450
#     4  10  22  43  71 109 148 195 247 305 376 441
#     4  11  24  44  78 108 145 192 242 314 383 444
#     4  10  26  49  76 112 147 196 246 312 378 455
#     4  12  27  46  72 103 148 199 246 307 369 453
#     4   9  20  45  70 106 152 194 246 306 367 449
#
# _framework density 22.882838
#
# number of rings (size 3 to 8) (size 9 to 14) (size 15 to 20)
#    0.000    1.333    1.111    2.667    4.667    2.667 
#   28.000    1.111    0.000    0.000    0.000    0.000 
#    0.000    0.000    0.000    0.000    0.000    0.000 
#
# Total GULP energy -100226.273014 kJ/mol
# GULP energy per Si atom -5568.126279 kJ/mol
# Density = 2.283076 g / cm^3
# Si number density = 22.882838 Si / 1000 Ang^3
#
#
#
# Elastic Constant Matrix: (Units=GPa)
#
#
# Indices 1 2 3 4 5 6 
#
# 1 124.5938 64.9794 72.9296 0.0000 -15.9687 0.0000
# 2 64.9794 180.1834 89.0570 0.0000 -21.2862 0.0000
# 3 72.9296 89.0570 158.7557 0.0000 3.6509 0.0000
# 4 0.0000 0.0000 0.0000 -781.0460 0.0000 495.5543
# 5 -15.9687 -21.2862 3.6509 0.0000 50.8471 0.0000
# 6 0.0000 0.0000 0.0000 495.5543 0.0000 -267.5124
#
#
#
# Elastic Compliance Matrix: (Units=1/GPa)
#
#
# Indices 1 2 3 4 5 6 
#
# 1 0.012073 -0.001612 -0.004721 0.000000 0.003456 0.000000
# 2 -0.001612 0.008584 -0.004152 0.000000 0.003385 0.000000
# 3 -0.004721 -0.004152 0.010889 0.000000 -0.004003 0.000000
# 4 0.000000 0.000000 0.000000 0.007302 0.000000 0.013527
# 5 0.003456 0.003385 -0.004003 0.000000 0.022457 0.000000
# 6 0.000000 0.000000 0.000000 0.013527 0.000000 0.021320
#
#
# Mechanical properties :
#
#
# Convention : Reuss Voigt Hill
#
# Bulk Modulus (GPa) = 94.56794 101.94057 98.25425
# Shear Modulus (GPa) = 46.67586 -183.77115 -68.54765
#
# Velocity S-wave (km/s) = 4.52129 -8.97128 -5.47914
# Velocity P-wave (km/s) = 8.28690 7.91620 1.73299
#
# Compressibility (1/GPa) = 0.01057441
#
# Stress axis : x y z
#
# Youngs Moduli (GPa) = 82.82652 116.50211 91.83315
#
# Poissons Ratio (x) = 0.18782 0.43358
# Poissons Ratio (y) = 0.13353 0.38132
# Poissons Ratio (z) = 0.39106 0.48376
#
# Static dielectric constant tensor:
#      x y z
#    x 1.972300 0.000000 0.035690 
#    y 0.000000 1.922390 0.000000 
#    z 0.035690 0.000000 1.897580 
# 
# From -- ./inp_files/50785.got.cif
#   From: 2010.05.17/outbox.cif.g08.bks.cpg/sg15_26_cif.got.tgz:50785.got - 2010.06.03 18:47:42.
