data_PCOD9292890
_publ_section_title
;
Structure prediction by ZEFSAII (Michael W. Deem and Ramdas Pophale) SiO2 
 PCOD9292890
Probable space group: C 2/C
;
_chemical_formula_sum "Si O2"
_cell_formula_units_Z 28
_cell_length_a 22.112354
_cell_length_b 11.955613
_cell_length_c 11.327265
_cell_angle_alpha 90.000000
_cell_angle_beta 24.558911
_cell_angle_gamma 90.000000
_cell_volume 1244.621650
_symmetry_space_group_name_H-M "C 2/C"
_symmetry_group_IT_number 15
_symmetry_cell_setting 'monoclinic'
loop_
_space_group_symop_operation_xyz
x,y,z
-x,y,1/2-z
-x,-y,-z
x,-y,1/2+z
1/2+x,1/2+y,z
1/2-x,1/2+y,1/2-z
1/2-x,1/2-y,-z
1/2+x,1/2-y,1/2+z
loop_
_atom_site_type_symbol
_atom_site_label
_atom_site_fract_x
_atom_site_fract_y
_atom_site_fract_z
Si Si1 0.073882 0.968655 0.742936
Si Si2 0.000000 0.579051 0.750000
Si Si3 0.331497 0.093082 0.393057
Si Si4 0.408222 0.260407 0.069281
O O1 0.000000 0.005041 0.750000
O O2 0.229226 0.026709 0.481824
O O3 0.050202 0.834655 0.788475
O O4 0.000000 0.000000 0.000000
O O5 0.070426 0.499009 0.720770
O O6 0.112687 0.664015 0.489397
O O7 0.416959 0.192516 0.176396
O O8 0.226074 0.154385 0.675562
#
# Coordination Sequence:
#
# PCOD9292890 Si02
#       4
#     8   4   8   8
#     4  10  22  44  69  96 130 174 221 266 323 392
#     4  12  24  40  68  98 128 168 222 268 328 390
#     4  10  25  43  64  95 134 169 216 274 323 389
#     4  10  23  44  62  97 128 172 221 262 332 382
#
# _framework density 22.496796
#
# number of rings (size 3 to 8) (size 9 to 14) (size 15 to 20)
#    0.000    1.714    1.429    0.857    8.000    3.429 
#   18.000    0.000    0.000    0.000    0.000    0.000 
#    0.000    0.000    0.000    0.000    0.000    0.000 
#
# Total GULP energy -78048.874982 kJ/mol
# GULP energy per Si atom -5574.919642 kJ/mol
# Density = 2.244559 g / cm^3
# Si number density = 22.496796 Si / 1000 Ang^3
#
#
#
# Elastic Constant Matrix: (Units=GPa)
#
#
# Indices 1 2 3 4 5 6 
#
# 1 132.2034 29.8426 24.7995 0.0000 -14.2275 0.0000
# 2 29.8426 110.3990 33.0691 0.0000 -9.0308 0.0000
# 3 24.7995 33.0691 41.1328 0.0000 5.2748 0.0000
# 4 0.0000 0.0000 0.0000 31.5463 0.0000 24.4724
# 5 -14.2275 -9.0308 5.2748 0.0000 28.4259 0.0000
# 6 0.0000 0.0000 0.0000 24.4724 0.0000 32.5877
#
#
#
# Elastic Compliance Matrix: (Units=1/GPa)
#
#
# Indices 1 2 3 4 5 6 
#
# 1 0.009407 -0.000192 -0.006263 0.000000 0.005810 0.000000
# 2 -0.000192 0.012913 -0.011042 0.000000 0.006055 0.000000
# 3 -0.006263 -0.011042 0.038739 0.000000 -0.013831 0.000000
# 4 0.000000 0.000000 0.000000 0.075940 0.000000 -0.057029
# 5 0.005810 0.006055 -0.013831 0.000000 0.042577 0.000000
# 6 0.000000 0.000000 0.000000 -0.057029 0.000000 0.073514
#
#
# Mechanical properties :
#
#
# Convention : Reuss Voigt Hill
#
# Bulk Modulus (GPa) = 38.36516 51.01750 44.69133
# Shear Modulus (GPa) = 16.84793 31.58024 24.21409
#
# Velocity S-wave (km/s) = 2.73958 3.75075 3.28431
# Velocity P-wave (km/s) = 5.20554 6.44084 5.85586
#
# Compressibility (1/GPa) = 0.02606531
#
# Stress axis : x y z
#
# Youngs Moduli (GPa) = 106.29912 77.44202 25.81400
#
# Poissons Ratio (x) = 0.01485 0.16166
# Poissons Ratio (y) = 0.02039 0.28505
# Poissons Ratio (z) = 0.66572 0.85514
#
# Static dielectric constant tensor:
#      x y z
#    x 1.869390 0.000000 0.095390 
#    y 0.000000 1.833140 0.000000 
#    z 0.095390 0.000000 1.947330 
# 
# From -- ./inp_files/83477.got.cif
#   From: 2010.05.17/outbox.cif.g08.bks.cpg/sg15_42_cif.got.tgz:83477.got - 2010.06.03 18:47:42.
