data_PCOD9292117
_publ_section_title
;
Structure prediction by ZEFSAII (Michael W. Deem and Ramdas Pophale) SiO2 
 PCOD9292117
Probable space group: C 2/C
;
_chemical_formula_sum "Si O2"
_cell_formula_units_Z 44
_cell_length_a 22.231948
_cell_length_b 10.785176
_cell_length_c 11.933140
_cell_angle_alpha 90.000000
_cell_angle_beta 43.954057
_cell_angle_gamma 90.000000
_cell_volume 1985.957083
_symmetry_space_group_name_H-M "C 2/C"
_symmetry_group_IT_number 15
_symmetry_cell_setting 'monoclinic'
loop_
_space_group_symop_operation_xyz
x,y,z
-x,y,1/2-z
-x,-y,-z
x,-y,1/2+z
1/2+x,1/2+y,z
1/2-x,1/2+y,1/2-z
1/2-x,1/2-y,-z
1/2+x,1/2-y,1/2+z
loop_
_atom_site_type_symbol
_atom_site_label
_atom_site_fract_x
_atom_site_fract_y
_atom_site_fract_z
Si Si1 0.906813 0.734245 0.696433
Si Si2 0.882418 0.550373 0.533863
Si Si3 0.062924 0.881737 0.399549
Si Si4 0.839872 0.216590 0.941773
Si Si5 0.000000 0.618673 0.750000
Si Si6 0.698311 0.440050 0.786587
O O1 0.879258 0.618496 0.657420
O O2 0.921601 0.699353 0.805043
O O3 0.843069 0.847879 0.751321
O O4 0.003729 0.773432 0.527013
O O5 0.876510 0.659154 0.449236
O O6 0.798671 0.464001 0.635870
O O7 0.965907 0.469591 0.394369
O O8 0.092909 0.844290 0.235243
O O9 0.149986 0.927171 0.343636
O O10 0.000000 0.000000 0.500000
O O11 0.750000 0.250000 0.000000
O O12 0.821274 0.123184 0.068538
#
# Coordination Sequence:
#
# PCOD9292117 Si02
#       6
#     8   8   8   8   4   8
#     4  10  25  42  63  99 132 176 224 280 346 410
#     4  11  24  43  66  99 134 179 229 280 341 422
#     4  10  22  43  66  97 135 174 225 279 340 412
#     4  11  23  41  69  98 130 183 222 276 349 409
#     4  12  26  40  66  92 140 178 214 290 352 408
#     4  10  24  42  69  97 131 174 234 284 331 416
#
# _framework density 22.155566
#
# number of rings (size 3 to 8) (size 9 to 14) (size 15 to 20)
#    0.000    1.455    1.818    1.636    5.091    9.455 
#    0.000    0.000    0.000    0.000    0.000    0.000 
#    0.000    0.000    0.000    0.000    0.000    0.000 
#
# Total GULP energy -122952.281632 kJ/mol
# GULP energy per Si atom -5588.740074 kJ/mol
# Density = 2.210514 g / cm^3
# Si number density = 22.155566 Si / 1000 Ang^3
#
#
#
# Elastic Constant Matrix: (Units=GPa)
#
#
# Indices 1 2 3 4 5 6 
#
# 1 93.6707 38.9697 -7.1731 0.0000 7.4436 0.0000
# 2 38.9697 88.5337 41.6713 0.0000 9.8328 0.0000
# 3 -7.1731 41.6713 70.9014 0.0000 -2.7698 0.0000
# 4 0.0000 0.0000 0.0000 31.3966 0.0000 -3.9995
# 5 7.4436 9.8328 -2.7698 0.0000 31.7365 0.0000
# 6 0.0000 0.0000 0.0000 -3.9995 0.0000 31.2432
#
#
#
# Elastic Compliance Matrix: (Units=1/GPa)
#
#
# Indices 1 2 3 4 5 6 
#
# 1 0.015671 -0.010621 0.007839 0.000000 0.000299 0.000000
# 2 -0.010621 0.023896 -0.015363 0.000000 -0.006253 0.000000
# 3 0.007839 -0.015363 0.024123 0.000000 0.005027 0.000000
# 4 0.000000 0.000000 0.000000 0.032379 0.000000 0.004145
# 5 0.000299 -0.006253 0.005027 0.000000 0.033815 0.000000
# 6 0.000000 0.000000 0.000000 0.004145 0.000000 0.032537
#
#
# Mechanical properties :
#
#
# Convention : Reuss Voigt Hill
#
# Bulk Modulus (GPa) = 36.49602 44.44909 40.47255
# Shear Modulus (GPa) = 24.05646 30.85112 27.45379
#
# Velocity S-wave (km/s) = 3.29872 3.73564 3.52396
# Velocity P-wave (km/s) = 5.56930 6.22194 5.90464
#
# Compressibility (1/GPa) = 0.02740025
#
# Stress axis : x y z
#
# Youngs Moduli (GPa) = 63.81278 41.84820 41.45401
#
# Poissons Ratio (x) = 0.44447 -0.32497
# Poissons Ratio (y) = 0.67775 0.63687
# Poissons Ratio (z) = -0.50025 0.64293
#
# Static dielectric constant tensor:
#      x y z
#    x 1.879190 0.000000 -0.121610 
#    y 0.000000 1.852540 0.000000 
#    z -0.121610 0.000000 2.114740 
# 
# From -- ./inp_files/117899.got.cif
#   From: 2010.05.17/outbox.cif.g08.bks.cpg/sg15_59_cif.got.tgz:117899.got - 2010.06.03 18:47:42.
