data_PCOD9292798
_publ_section_title
;
Structure prediction by ZEFSAII (Michael W. Deem and Ramdas Pophale) SiO2 
 PCOD9292798
Probable space group: C 2/C
;
_chemical_formula_sum "Si O2"
_cell_formula_units_Z 40
_cell_length_a 17.812192
_cell_length_b 13.532444
_cell_length_c 10.538503
_cell_angle_alpha 90.000000
_cell_angle_beta 136.411340
_cell_angle_gamma 90.000000
_cell_volume 1751.426072
_symmetry_space_group_name_H-M "C 2/C"
_symmetry_group_IT_number 15
_symmetry_cell_setting 'monoclinic'
loop_
_space_group_symop_operation_xyz
x,y,z
-x,y,1/2-z
-x,-y,-z
x,-y,1/2+z
1/2+x,1/2+y,z
1/2-x,1/2+y,1/2-z
1/2-x,1/2-y,-z
1/2+x,1/2-y,1/2+z
loop_
_atom_site_type_symbol
_atom_site_label
_atom_site_fract_x
_atom_site_fract_y
_atom_site_fract_z
Si Si1 0.345945 0.717581 0.914723
Si Si2 0.202783 0.578013 0.029813
Si Si3 0.990347 0.720202 0.386899
Si Si4 0.645871 0.067106 0.686451
Si Si5 0.549700 0.398564 0.612238
O O1 0.336299 0.809884 0.996239
O O2 0.372629 0.756147 0.804203
O O3 0.241528 0.649004 0.792358
O O4 0.453059 0.652894 0.071919
O O5 0.171234 0.515087 0.113876
O O6 0.334120 0.582057 0.183173
O O7 0.151112 0.534321 0.838817
O O8 0.037093 0.625818 0.518082
O O9 0.061773 0.817115 0.514272
O O10 0.000000 0.705427 0.250000
O O11 0.500000 0.500000 0.500000
#
# Coordination Sequence:
#
# PCOD9292798 Si02
#       5
#     8   8   8   8   8
#     4  10  23  46  72  98 141 184 223 294 333 420
#     4  12  26  45  72 105 140 182 237 279 352 416
#     4  10  25  45  68 105 139 181 234 284 351 407
#     4  12  27  46  72 102 140 187 229 291 346 416
#     4  10  22  44  68 106 137 181 229 281 347 407
#
# _framework density 22.838531
#
# number of rings (size 3 to 8) (size 9 to 14) (size 15 to 20)
#    1.200    0.000    4.000    0.600    2.800    8.000 
#    0.000    0.000    0.000    0.000    0.000    0.000 
#    0.000    0.000    0.000    0.000    0.000    0.000 
#
# Total GULP energy -111825.366038 kJ/mol
# GULP energy per Si atom -5591.268302 kJ/mol
# Density = 2.278655 g / cm^3
# Si number density = 22.838531 Si / 1000 Ang^3
#
#
#
# Elastic Constant Matrix: (Units=GPa)
#
#
# Indices 1 2 3 4 5 6 
#
# 1 83.9083 28.4023 34.0638 0.0000 -12.2343 0.0000
# 2 28.4023 115.1912 36.6661 0.0000 -0.1538 0.0000
# 3 34.0638 36.6661 122.1042 0.0000 -23.1680 0.0000
# 4 0.0000 0.0000 0.0000 12.5768 0.0000 4.9449
# 5 -12.2343 -0.1538 -23.1680 0.0000 36.4078 0.0000
# 6 0.0000 0.0000 0.0000 4.9449 0.0000 53.8446
#
#
#
# Elastic Compliance Matrix: (Units=1/GPa)
#
#
# Indices 1 2 3 4 5 6 
#
# 1 0.014347 -0.002709 -0.002589 0.000000 0.003162 0.000000
# 2 -0.002709 0.010245 -0.002827 0.000000 -0.002666 0.000000
# 3 -0.002589 -0.002827 0.010911 0.000000 0.006061 0.000000
# 4 0.000000 0.000000 0.000000 0.082490 0.000000 -0.007576
# 5 0.003162 -0.002666 0.006061 0.000000 0.032375 0.000000
# 6 0.000000 0.000000 0.000000 -0.007576 0.000000 0.019268
#
#
# Mechanical properties :
#
#
# Convention : Reuss Voigt Hill
#
# Bulk Modulus (GPa) = 51.93781 57.71867 54.82824
# Shear Modulus (GPa) = 26.00063 35.37059 30.68561
#
# Velocity S-wave (km/s) = 3.37776 3.93965 3.66948
# Velocity P-wave (km/s) = 6.16466 6.78394 6.48170
#
# Compressibility (1/GPa) = 0.01925379
#
# Stress axis : x y z
#
# Youngs Moduli (GPa) = 69.70169 97.60513 91.65263
#
# Poissons Ratio (x) = 0.26443 0.23728
# Poissons Ratio (y) = 0.18883 0.25906
# Poissons Ratio (z) = 0.18045 0.27589
#
# Static dielectric constant tensor:
#      x y z
#    x 1.861440 0.000000 -0.009390 
#    y 0.000000 1.837420 0.000000 
#    z -0.009390 0.000000 1.845900 
# 
# From -- ./inp_files/47274.got.cif
#   From: 2010.05.17/outbox.cif.g08.bks.cpg/sg15_24_cif.got.tgz:47274.got - 2010.06.03 18:47:42.
