data_PCOD9292638
_publ_section_title
;
Structure prediction by ZEFSAII (Michael W. Deem and Ramdas Pophale) SiO2 
 PCOD9292638
Probable space group: C 2/C
;
_chemical_formula_sum "Si O2"
_cell_formula_units_Z 56
_cell_length_a 10.851819
_cell_length_b 8.813906
_cell_length_c 29.889567
_cell_angle_alpha 90.000000
_cell_angle_beta 54.066474
_cell_angle_gamma 90.000000
_cell_volume 2314.802041
_symmetry_space_group_name_H-M "C 2/C"
_symmetry_group_IT_number 15
_symmetry_cell_setting 'monoclinic'
loop_
_space_group_symop_operation_xyz
x,y,z
-x,y,1/2-z
-x,-y,-z
x,-y,1/2+z
1/2+x,1/2+y,z
1/2-x,1/2+y,1/2-z
1/2-x,1/2-y,-z
1/2+x,1/2-y,1/2+z
loop_
_atom_site_type_symbol
_atom_site_label
_atom_site_fract_x
_atom_site_fract_y
_atom_site_fract_z
Si Si1 0.110345 0.646286 0.573447
Si Si2 0.901234 0.847284 0.314035
Si Si3 0.316839 0.654951 0.697307
Si Si4 0.855063 0.505001 0.688176
Si Si5 0.653038 0.332205 0.410783
Si Si6 0.398728 0.107259 0.489529
Si Si7 0.843674 0.180952 0.079187
O O1 0.007912 0.561486 0.632508
O O2 0.176896 0.514576 0.527240
O O3 0.994895 0.749236 0.569949
O O4 0.235926 0.734456 0.574911
O O5 0.778343 0.963828 0.319885
O O6 0.798656 0.717341 0.358182
O O7 0.000000 0.797372 0.250000
O O8 0.021484 0.921065 0.323031
O O9 0.188883 0.595343 0.757816
O O10 0.281805 0.646142 0.652726
O O11 0.351873 0.829688 0.699851
O O12 0.510949 0.219501 0.438549
O O13 0.625496 0.503872 0.433020
O O14 0.311511 0.220474 0.541384
O O15 0.500000 0.000000 0.500000
#
# Coordination Sequence:
#
# PCOD9292638 Si02
#       7
#     8   8   8   8   8   8   8
#     4  10  23  46  66  96 140 173 216 278 336 388
#     4   9  21  43  69  90 136 172 214 270 334 388
#     4  11  24  41  67  97 135 170 223 274 329 399
#     4  10  22  44  65  97 133 177 220 270 337 393
#     4  12  25  42  67 103 128 173 226 274 329 396
#     4  10  23  47  67  95 137 176 221 276 332 391
#     4  10  23  42  70  99 128 179 222 270 332 393
#
# _framework density 24.192133999999999
#
# number of rings (size 3 to 8) (size 9 to 14) (size 15 to 20)
#    0.000    1.714    1.429    1.286    6.000    4.571 
#    7.714    0.000    0.000    0.000    0.000    0.000 
#    0.000    0.000    0.000    0.000    0.000    0.000 
#
# Total GULP energy -156651.146845 kJ/mol
# GULP energy per Si atom -5594.683816 kJ/mol
# Density = 2.413707 g / cm^3
# Si number density = 24.192134 Si / 1000 Ang^3
#
#
#
# Elastic Constant Matrix: (Units=GPa)
#
#
# Indices 1 2 3 4 5 6 
#
# 1 89.1416 2.1697 16.0340 0.0000 23.2065 0.0000
# 2 2.1697 46.9217 12.8165 0.0000 -4.2810 0.0000
# 3 16.0340 12.8165 82.2732 0.0000 10.4521 0.0000
# 4 0.0000 0.0000 0.0000 20.3399 0.0000 3.9105
# 5 23.2065 -4.2810 10.4521 0.0000 29.2340 0.0000
# 6 0.0000 0.0000 0.0000 3.9105 0.0000 25.8035
#
#
#
# Elastic Compliance Matrix: (Units=1/GPa)
#
#
# Indices 1 2 3 4 5 6 
#
# 1 0.014376 -0.001368 -0.001166 0.000000 -0.011195 0.000000
# 2 -0.001368 0.023027 -0.004072 0.000000 0.005913 0.000000
# 3 -0.001166 -0.004072 0.013592 0.000000 -0.004530 0.000000
# 4 0.000000 0.000000 0.000000 0.050640 0.000000 -0.007675
# 5 -0.011195 0.005913 -0.004530 0.000000 0.045579 0.000000
# 6 0.000000 0.000000 0.000000 -0.007675 0.000000 0.039917
#
#
# Mechanical properties :
#
#
# Convention : Reuss Voigt Hill
#
# Bulk Modulus (GPa) = 26.46705 31.15298 28.81002
# Shear Modulus (GPa) = 23.48117 27.56325 25.52221
#
# Velocity S-wave (km/s) = 3.11884 3.37908 3.25157
# Velocity P-wave (km/s) = 4.89221 5.30373 5.10212
#
# Compressibility (1/GPa) = 0.03778282
#
# Stress axis : x y z
#
# Youngs Moduli (GPa) = 69.56243 43.42717 73.57406
#
# Poissons Ratio (x) = 0.05939 0.08582
# Poissons Ratio (y) = 0.09513 0.29958
# Poissons Ratio (z) = 0.08114 0.17683
#
# Static dielectric constant tensor:
#      x y z
#    x 1.981990 0.000000 0.018750 
#    y 0.000000 1.880390 0.000000 
#    z 0.018750 0.000000 1.919500 
# 
# From -- ./inp_files/310212.got.cif
#   From: 2010.05.17/outbox.cif.g08.bks.cpg/sg15_156_cif.got.tgz:310212.got - 2010.06.03 18:47:42.
