data_PCOD9292844
_publ_section_title
;
Structure prediction by ZEFSAII (Michael W. Deem and Ramdas Pophale) SiO2 
 PCOD9292844
Probable space group: C 2/C
;
_chemical_formula_sum "Si O2"
_cell_formula_units_Z 64
_cell_length_a 18.207894
_cell_length_b 15.010178
_cell_length_c 12.609772
_cell_angle_alpha 90.000000
_cell_angle_beta 52.596707
_cell_angle_gamma 90.000000
_cell_volume 2737.668988
_symmetry_space_group_name_H-M "C 2/C"
_symmetry_group_IT_number 15
_symmetry_cell_setting 'monoclinic'
loop_
_space_group_symop_operation_xyz
x,y,z
-x,y,1/2-z
-x,-y,-z
x,-y,1/2+z
1/2+x,1/2+y,z
1/2-x,1/2+y,1/2-z
1/2-x,1/2-y,-z
1/2+x,1/2-y,1/2+z
loop_
_atom_site_type_symbol
_atom_site_label
_atom_site_fract_x
_atom_site_fract_y
_atom_site_fract_z
Si Si1 0.236424 0.310957 0.907342
Si Si2 0.398543 0.964587 0.388330
Si Si3 0.400541 0.580673 0.309250
Si Si4 0.654782 0.702819 0.560921
Si Si5 0.964568 0.640406 0.402647
Si Si6 0.587568 0.450440 0.376163
Si Si7 0.779115 0.012704 0.083093
Si Si8 0.888666 0.758215 0.157911
O O1 0.335656 0.355528 0.797928
O O2 0.202020 0.261701 0.831243
O O3 0.250000 0.250000 0.000000
O O4 0.158330 0.383818 0.009258
O O5 0.500000 0.940965 0.250000
O O6 0.414597 0.045870 0.458015
O O7 0.327195 0.003136 0.360285
O O8 0.500000 0.618864 0.250000
O O9 0.415227 0.484900 0.241436
O O10 0.337425 0.559157 0.464868
O O11 0.750000 0.750000 0.500000
O O12 0.597984 0.771330 0.538532
O O13 0.678913 0.608663 0.486626
O O14 0.614565 0.709031 0.716078
O O15 0.000000 0.633698 0.250000
O O16 0.051315 0.668466 0.396850
O O17 0.500000 0.500000 0.500000
O O18 0.687524 0.485100 0.329730
O O19 0.571518 0.349060 0.423220
#
# Coordination Sequence:
#
# PCOD9292844 Si02
#       8
#     8   8   8   8   8   8   8   8
#     4  11  27  49  68  96 140 187 235 288 338 422
#     4  10  22  44  68  97 136 187 231 283 345 412
#     4  11  24  43  68  98 137 177 227 281 350 407
#     4  11  21  38  65 101 136 172 222 289 346 401
#     4   9  20  36  64  96 136 175 224 283 340 405
#     4  12  24  40  71 102 134 178 225 283 351 413
#     4  11  22  41  68  99 141 180 226 285 351 410
#     4  11  24  44  65 103 139 175 230 284 345 415
#
# _framework density 23.377552000000001
#
# number of rings (size 3 to 8) (size 9 to 14) (size 15 to 20)
#    0.000    1.250    3.750    2.250    1.750    1.000 
#    0.000    2.500    0.000    0.000    0.000    0.000 
#    0.000    0.000    0.000    0.000    0.000    0.000 
#
# Total GULP energy -178446.409773 kJ/mol
# GULP energy per Si atom -5576.450305 kJ/mol
# Density = 2.332434 g / cm^3
# Si number density = 23.377552 Si / 1000 Ang^3
#
#
#
# Elastic Constant Matrix: (Units=GPa)
#
#
# Indices 1 2 3 4 5 6 
#
# 1 129.3563 39.4074 21.9578 0.0000 -19.1116 0.0000
# 2 39.4074 121.5687 13.4097 0.0000 -13.7723 0.0000
# 3 21.9578 13.4097 41.7687 0.0000 -22.8303 0.0000
# 4 0.0000 0.0000 0.0000 27.2562 0.0000 -7.5264
# 5 -19.1116 -13.7723 -22.8303 0.0000 37.6250 0.0000
# 6 0.0000 0.0000 0.0000 -7.5264 0.0000 40.8423
#
#
#
# Elastic Compliance Matrix: (Units=1/GPa)
#
#
# Indices 1 2 3 4 5 6 
#
# 1 0.009282 -0.002452 -0.003001 0.000000 0.001996 0.000000
# 2 -0.002452 0.009297 -0.000773 0.000000 0.001689 0.000000
# 3 -0.003001 -0.000773 0.037076 0.000000 0.020690 0.000000
# 4 0.000000 0.000000 0.000000 0.038656 0.000000 0.007124
# 5 0.001996 0.001689 0.020690 0.000000 0.040765 0.000000
# 6 0.000000 0.000000 0.000000 0.007124 0.000000 0.025797
#
#
# Mechanical properties :
#
#
# Convention : Reuss Voigt Hill
#
# Bulk Modulus (GPa) = 23.14628 49.13816 36.14222
# Shear Modulus (GPa) = 26.63466 35.67261 31.15364
#
# Velocity S-wave (km/s) = 3.37905 3.91056 3.65448
# Velocity P-wave (km/s) = 5.01463 6.43855 5.77068
#
# Compressibility (1/GPa) = 0.04320349
#
# Stress axis : x y z
#
# Youngs Moduli (GPa) = 107.73749 107.56066 26.97157
#
# Poissons Ratio (x) = 0.26369 0.08095
# Poissons Ratio (y) = 0.26413 0.02085
# Poissons Ratio (z) = 0.32335 0.08313
#
# Static dielectric constant tensor:
#      x y z
#    x 1.769750 0.000000 -0.072290 
#    y 0.000000 1.968910 0.000000 
#    z -0.072290 0.000000 1.818330 
# 
# From -- ./inp_files/162537.got.cif
#   From: 2010.05.17/outbox.cif.g08.bks.cpg/sg15_82_cif.got.tgz:162537.got - 2010.06.03 18:47:42.
