data_PCOD9292569
_publ_section_title
;
Structure prediction by ZEFSAII (Michael W. Deem and Ramdas Pophale) SiO2 
 PCOD9292569
Probable space group: C 2/C
;
_chemical_formula_sum "Si O2"
_cell_formula_units_Z 44
_cell_length_a 17.826576
_cell_length_b 8.723543
_cell_length_c 14.223708
_cell_angle_alpha 90.000000
_cell_angle_beta 63.046568
_cell_angle_gamma 90.000000
_cell_volume 1971.669982
_symmetry_space_group_name_H-M "C 2/C"
_symmetry_group_IT_number 15
_symmetry_cell_setting 'monoclinic'
loop_
_space_group_symop_operation_xyz
x,y,z
-x,y,1/2-z
-x,-y,-z
x,-y,1/2+z
1/2+x,1/2+y,z
1/2-x,1/2+y,1/2-z
1/2-x,1/2-y,-z
1/2+x,1/2-y,1/2+z
loop_
_atom_site_type_symbol
_atom_site_label
_atom_site_fract_x
_atom_site_fract_y
_atom_site_fract_z
Si Si1 0.629990 0.962648 0.803143
Si Si2 0.442567 0.616568 0.428469
Si Si3 0.513522 0.295223 0.391471
Si Si4 0.772666 0.047754 0.082451
Si Si5 0.351646 0.121063 0.510121
Si Si6 0.000000 0.349235 0.250000
O O1 0.628963 0.015279 0.911842
O O2 0.561827 0.057712 0.782505
O O3 0.599418 0.786174 0.813395
O O4 0.720677 0.988332 0.705433
O O5 0.493949 0.465135 0.367109
O O6 0.487357 0.685904 0.494946
O O7 0.351915 0.558552 0.514690
O O8 0.442534 0.740921 0.347791
O O9 0.436848 0.181045 0.412382
O O10 0.806419 0.222235 0.069166
O O11 0.707916 0.042409 0.032260
#
# Coordination Sequence:
#
# PCOD9292569 Si02
#       6
#     8   8   8   8   8   4
#     4  12  25  40  72 101 132 177 234 285 346 401
#     4  10  24  45  67  99 138 177 228 283 343 419
#     4  10  22  45  69  90 135 183 221 278 346 413
#     4  10  25  42  65 100 138 177 226 282 357 404
#     4  10  22  44  63  96 137 175 224 285 338 420
#     4  12  26  42  70 106 128 182 240 278 340 422
#
# _framework density 22.316108
#
# number of rings (size 3 to 8) (size 9 to 14) (size 15 to 20)
#    0.000    1.455    1.818    1.636    5.091    7.273 
#    0.000    0.000    0.000    0.000    0.000    0.000 
#    0.000    0.000    0.000    0.000    0.000    0.000 
#
# Total GULP energy -123135.495754 kJ/mol
# GULP energy per Si atom -5597.067989 kJ/mol
# Density = 2.226532 g / cm^3
# Si number density = 22.316108 Si / 1000 Ang^3
#
#
#
# Elastic Constant Matrix: (Units=GPa)
#
#
# Indices 1 2 3 4 5 6 
#
# 1 78.2322 20.5055 -0.5809 0.0000 5.5673 0.0000
# 2 20.5055 71.1688 28.6420 0.0000 -9.4244 0.0000
# 3 -0.5809 28.6420 48.5186 0.0000 -4.3299 0.0000
# 4 0.0000 0.0000 0.0000 27.0128 0.0000 -1.7058
# 5 5.5673 -9.4244 -4.3299 0.0000 32.7961 0.0000
# 6 0.0000 0.0000 0.0000 -1.7058 0.0000 20.4169
#
#
#
# Elastic Compliance Matrix: (Units=1/GPa)
#
#
# Indices 1 2 3 4 5 6 
#
# 1 0.014683 -0.006122 0.003451 0.000000 -0.003796 0.000000
# 2 -0.006122 0.021490 -0.012260 0.000000 0.005596 0.000000
# 3 0.003451 -0.012260 0.027851 0.000000 -0.000432 0.000000
# 4 0.000000 0.000000 0.000000 0.037216 0.000000 0.003109
# 5 -0.003796 0.005596 -0.000432 0.000000 0.032687 0.000000
# 6 0.000000 0.000000 0.000000 0.003109 0.000000 0.049239
#
#
# Mechanical properties :
#
#
# Convention : Reuss Voigt Hill
#
# Bulk Modulus (GPa) = 29.27259 32.78366 31.02813
# Shear Modulus (GPa) = 22.28011 26.00202 24.14106
#
# Velocity S-wave (km/s) = 3.16315 3.41716 3.29261
# Velocity P-wave (km/s) = 5.14650 5.50380 5.32814
#
# Compressibility (1/GPa) = 0.03416165
#
# Stress axis : x y z
#
# Youngs Moduli (GPa) = 68.10652 46.53280 35.90531
#
# Poissons Ratio (x) = 0.28488 -0.12391
# Poissons Ratio (y) = 0.41695 0.44021
# Poissons Ratio (z) = -0.23504 0.57050
#
# Static dielectric constant tensor:
#      x y z
#    x 1.805890 0.000000 -0.027070 
#    y 0.000000 1.816000 0.000000 
#    z -0.027070 0.000000 1.787180 
# 
# From -- ./inp_files/159208.got.cif
#   From: 2010.05.17/outbox.cif.g08.bks.cpg/sg15_80_cif.got.tgz:159208.got - 2010.06.03 18:47:42.
