data_PCOD9292733
_publ_section_title
;
Structure prediction by ZEFSAII (Michael W. Deem and Ramdas Pophale) SiO2 
 PCOD9292733
Probable space group: C 2/C
;
_chemical_formula_sum "Si O2"
_cell_formula_units_Z 64
_cell_length_a 28.973442
_cell_length_b 14.429503
_cell_length_c 9.602392
_cell_angle_alpha 90.000000
_cell_angle_beta 46.277079
_cell_angle_gamma 90.000000
_cell_volume 2901.238042
_symmetry_space_group_name_H-M "C 2/C"
_symmetry_group_IT_number 15
_symmetry_cell_setting 'monoclinic'
loop_
_space_group_symop_operation_xyz
x,y,z
-x,y,1/2-z
-x,-y,-z
x,-y,1/2+z
1/2+x,1/2+y,z
1/2-x,1/2+y,1/2-z
1/2-x,1/2-y,-z
1/2+x,1/2-y,1/2+z
loop_
_atom_site_type_symbol
_atom_site_label
_atom_site_fract_x
_atom_site_fract_y
_atom_site_fract_z
Si Si1 0.606875 0.553976 0.527050
Si Si2 0.252747 0.362979 0.746346
Si Si3 0.607373 0.613557 0.213908
Si Si4 0.751359 0.343766 0.333372
Si Si5 0.080659 0.752774 0.187969
Si Si6 0.694880 0.853768 0.568716
Si Si7 0.447376 0.800411 0.070055
Si Si8 0.847566 0.556454 0.839747
O O1 0.682701 0.577138 0.386706
O O2 0.593991 0.565218 0.390402
O O3 0.588989 0.455830 0.628957
O O4 0.573079 0.637180 0.682898
O O5 0.262134 0.267209 0.811891
O O6 0.231647 0.338559 0.634534
O O7 0.193406 0.415387 0.939740
O O8 0.575216 0.714017 0.289154
O O9 0.682959 0.631242 0.038201
O O10 0.805216 0.399315 0.303853
O O11 0.756642 0.369745 0.159863
O O12 0.146560 0.726744 0.123664
O O13 0.022791 0.707000 0.391972
O O14 0.079563 0.715414 0.031311
O O15 0.652823 0.946711 0.671090
O O16 0.415724 0.893543 0.193413
#
# Coordination Sequence:
#
# PCOD9292733 Si02
#       8
#     8   8   8   8   8   8   8   8
#     4  11  23  40  64  96 127 164 206 259 317 378
#     4  12  24  38  63  96 131 165 201 259 318 377
#     4  11  23  39  66  96 127 163 208 259 316 378
#     4  12  22  41  63  93 130 167 204 248 317 385
#     4  10  23  43  66  88 121 167 222 258 307 374
#     4  12  25  39  63  99 131 161 206 265 316 364
#     4  10  22  44  67  87 117 175 219 254 308 378
#     4  12  22  41  66  93 126 167 210 254 313 383
#
# _framework density 22.059546999999998
#
# number of rings (size 3 to 8) (size 9 to 14) (size 15 to 20)
#    0.000    0.750    5.000    3.750    1.750    1.000 
#    0.000    0.625    0.000    0.000    0.000    0.000 
#    0.000    0.000    0.000    0.000    0.000    0.000 
#
# Total GULP energy -179125.318237 kJ/mol
# GULP energy per Si atom -5597.666195 kJ/mol
# Density = 2.200934 g / cm^3
# Si number density = 22.059547 Si / 1000 Ang^3
#
#
#
# Elastic Constant Matrix: (Units=GPa)
#
#
# Indices 1 2 3 4 5 6 
#
# 1 41.0613 -6.5596 19.3699 0.0000 7.9686 0.0000
# 2 -6.5596 102.1475 30.1116 0.0000 -3.6123 0.0000
# 3 19.3699 30.1116 81.0082 0.0000 -3.2165 0.0000
# 4 0.0000 0.0000 0.0000 24.6235 0.0000 6.6987
# 5 7.9686 -3.6123 -3.2165 0.0000 38.4061 0.0000
# 6 0.0000 0.0000 0.0000 6.6987 0.0000 20.9183
#
#
#
# Elastic Compliance Matrix: (Units=1/GPa)
#
#
# Indices 1 2 3 4 5 6 
#
# 1 0.030756 0.004474 -0.009285 0.000000 -0.006738 0.000000
# 2 0.004474 0.011664 -0.005417 0.000000 -0.000285 0.000000
# 3 -0.009285 -0.005417 0.016690 0.000000 0.002815 0.000000
# 4 0.000000 0.000000 0.000000 0.044487 0.000000 -0.014246
# 5 -0.006738 -0.000285 0.002815 0.000000 0.027645 0.000000
# 6 0.000000 0.000000 0.000000 -0.014246 0.000000 0.052367
#
#
# Mechanical properties :
#
#
# Convention : Reuss Voigt Hill
#
# Bulk Modulus (GPa) = 25.87019 34.45119 30.16069
# Shear Modulus (GPa) = 23.04706 28.87592 25.96149
#
# Velocity S-wave (km/s) = 3.23579 3.62193 3.43429
# Velocity P-wave (km/s) = 5.07083 5.75695 5.42475
#
# Compressibility (1/GPa) = 0.03865453
#
# Stress axis : x y z
#
# Youngs Moduli (GPa) = 32.51405 85.73613 59.91758
#
# Poissons Ratio (x) = -0.38356 0.55631
# Poissons Ratio (y) = -0.14546 0.32455
# Poissons Ratio (z) = 0.30188 0.46439
#
# Static dielectric constant tensor:
#      x y z
#    x 1.792690 0.000000 0.013220 
#    y 0.000000 1.824270 0.000000 
#    z 0.013220 0.000000 1.823730 
# 
# From -- ./inp_files/70112.got.cif
#   From: 2010.05.17/outbox.cif.g08.bks.cpg/sg15_36_cif.got.tgz:70112.got - 2010.06.03 18:47:42.
