data_PCOD9292465
_publ_section_title
;
Structure prediction by ZEFSAII (Michael W. Deem and Ramdas Pophale) SiO2 
 PCOD9292465
Probable space group: C 2/C
;
_chemical_formula_sum "Si O2"
_cell_formula_units_Z 44
_cell_length_a 25.437636
_cell_length_b 5.480317
_cell_length_c 14.044403
_cell_angle_alpha 90.000000
_cell_angle_beta 114.248491
_cell_angle_gamma 90.000000
_cell_volume 1785.140375
_symmetry_space_group_name_H-M "C 2/C"
_symmetry_group_IT_number 15
_symmetry_cell_setting 'monoclinic'
loop_
_space_group_symop_operation_xyz
x,y,z
-x,y,1/2-z
-x,-y,-z
x,-y,1/2+z
1/2+x,1/2+y,z
1/2-x,1/2+y,1/2-z
1/2-x,1/2-y,-z
1/2+x,1/2-y,1/2+z
loop_
_atom_site_type_symbol
_atom_site_label
_atom_site_fract_x
_atom_site_fract_y
_atom_site_fract_z
Si Si1 0.201867 0.655156 0.091330
Si Si2 0.443526 0.470792 0.393786
Si Si3 0.123752 0.540072 0.672435
Si Si4 0.887300 0.583431 0.124220
Si Si5 0.798197 0.954947 0.043838
Si Si6 0.500000 0.305865 0.250000
O O1 0.151762 0.532151 0.987036
O O2 0.193258 0.933819 0.054607
O O3 0.186937 0.537152 0.180568
O O4 0.266547 0.617398 0.099830
O O5 0.500000 0.500000 0.500000
O O6 0.413529 0.203764 0.383450
O O7 0.467033 0.464881 0.303124
O O8 0.402383 0.703753 0.382428
O O9 0.121470 0.557588 0.784364
O O10 0.857739 0.845405 0.120630
O O11 0.954412 0.633641 0.160290
O O12 0.750000 0.750000 0.000000
#
# Coordination Sequence:
#
# PCOD9292465 Si02
#       6
#     8   8   8   8   8   4
#     4  10  22  43  72  93 137 182 223 290 349 414
#     4  11  25  43  64 101 135 186 232 275 340 410
#     4  11  26  41  68 103 136 174 236 283 340 410
#     4  10  23  44  64 101 136 179 232 282 347 413
#     4   9  21  43  67  96 127 178 228 275 353 409
#     4  10  24  42  68  94 140 182 226 286 340 410
#
# _framework density 24.647922000000001
#
# number of rings (size 3 to 8) (size 9 to 14) (size 15 to 20)
#    0.000    1.818    0.000    1.636   12.727    4.364 
#    9.818    0.000    0.000    0.000    0.000    0.000 
#    0.000    0.000    0.000    0.000    0.000    0.000 
#
# Total GULP energy -122816.607901 kJ/mol
# GULP energy per Si atom -5582.573086 kJ/mol
# Density = 2.459182 g / cm^3
# Si number density = 24.647922 Si / 1000 Ang^3
#
#
#
# Elastic Constant Matrix: (Units=GPa)
#
#
# Indices 1 2 3 4 5 6 
#
# 1 86.5965 38.5928 6.6309 0.0000 -9.9379 0.0000
# 2 38.5928 116.3551 9.1954 0.0000 -4.1707 0.0000
# 3 6.6309 9.1954 37.1552 0.0000 -4.7713 0.0000
# 4 0.0000 0.0000 0.0000 29.0816 0.0000 -1.4259
# 5 -9.9379 -4.1707 -4.7713 0.0000 44.5573 0.0000
# 6 0.0000 0.0000 0.0000 -1.4259 0.0000 38.7227
#
#
#
# Elastic Compliance Matrix: (Units=1/GPa)
#
#
# Indices 1 2 3 4 5 6 
#
# 1 0.013900 -0.004435 -0.001053 0.000000 0.002572 0.000000
# 2 -0.004435 0.010197 -0.001761 0.000000 -0.000223 0.000000
# 3 -0.001053 -0.001761 0.027870 0.000000 0.002585 0.000000
# 4 0.000000 0.000000 0.000000 0.034448 0.000000 0.001268
# 5 0.002572 -0.000223 0.002585 0.000000 0.023273 0.000000
# 6 0.000000 0.000000 0.000000 0.001268 0.000000 0.025871
#
#
# Mechanical properties :
#
#
# Convention : Reuss Voigt Hill
#
# Bulk Modulus (GPa) = 26.68838 38.77167 32.73003
# Shear Modulus (GPa) = 30.76066 34.85149 32.80608
#
# Velocity S-wave (km/s) = 3.53654 3.76436 3.65223
# Velocity P-wave (km/s) = 5.24667 5.88713 5.57610
#
# Compressibility (1/GPa) = 0.03746949
#
# Stress axis : x y z
#
# Youngs Moduli (GPa) = 71.94170 98.07257 35.88127
#
# Poissons Ratio (x) = 0.43495 0.03777
# Poissons Ratio (y) = 0.31906 0.06318
# Poissons Ratio (z) = 0.07574 0.17267
#
# Static dielectric constant tensor:
#      x y z
#    x 1.981990 0.000000 -0.051750 
#    y 0.000000 2.092990 0.000000 
#    z -0.051750 0.000000 2.007940 
# 
# From -- ./inp_files/175474.got.cif
#   From: 2010.05.17/outbox.cif.g08.bks.cpg/sg15_88_cif.got.tgz:175474.got - 2010.06.03 18:47:42.
