data_PCOD9292549
_publ_section_title
;
Structure prediction by ZEFSAII (Michael W. Deem and Ramdas Pophale) SiO2 
 PCOD9292549
Probable space group: C 2/C
;
_chemical_formula_sum "Si O2"
_cell_formula_units_Z 44
_cell_length_a 9.406905
_cell_length_b 22.738615
_cell_length_c 11.743373
_cell_angle_alpha 90.000000
_cell_angle_beta 125.357032
_cell_angle_gamma 90.000000
_cell_volume 2048.616178
_symmetry_space_group_name_H-M "C 2/C"
_symmetry_group_IT_number 15
_symmetry_cell_setting 'monoclinic'
loop_
_space_group_symop_operation_xyz
x,y,z
-x,y,1/2-z
-x,-y,-z
x,-y,1/2+z
1/2+x,1/2+y,z
1/2-x,1/2+y,1/2-z
1/2-x,1/2-y,-z
1/2+x,1/2-y,1/2+z
loop_
_atom_site_type_symbol
_atom_site_label
_atom_site_fract_x
_atom_site_fract_y
_atom_site_fract_z
Si Si1 0.138067 0.621010 0.955676
Si Si2 0.798764 0.273024 0.647797
Si Si3 0.629867 0.640171 0.226122
Si Si4 0.251304 0.658049 0.776310
Si Si5 0.500000 0.575418 0.750000
Si Si6 0.896149 0.026150 0.056342
O O1 0.235973 0.661460 0.906121
O O2 0.934560 0.631315 0.848549
O O3 0.203451 0.630226 0.114925
O O4 0.210992 0.557142 0.952542
O O5 0.750000 0.250000 0.500000
O O6 0.679642 0.326229 0.635581
O O7 0.774040 0.220343 0.726421
O O8 0.000000 0.290993 0.750000
O O9 0.500000 0.675667 0.250000
O O10 0.525363 0.580070 0.151941
O O11 0.401911 0.615858 0.796328
O O12 0.627364 0.528388 0.869105
O O13 0.000000 0.000000 0.000000
#
# Coordination Sequence:
#
# PCOD9292549 Si02
#       6
#     8   8   8   8   4   8
#     4  10  22  44  62 100 130 175 230 269 341 405
#     4  12  28  46  66 101 137 181 228 288 352 407
#     4  10  24  44  69  95 134 180 227 279 338 408
#     4  11  25  40  69  97 134 176 225 283 335 416
#     4  12  22  42  68 100 132 178 220 282 346 394
#     4  11  22  42  68  96 137 178 222 281 342 403
#
# _framework density 21.477913000000001
#
# number of rings (size 3 to 8) (size 9 to 14) (size 15 to 20)
#    0.000    1.091    5.455    1.091   10.182    1.455 
#    0.000    0.000    0.000    0.000    0.000    0.000 
#    0.000    0.000    0.000    0.000    0.000    0.000 
#
# Total GULP energy -122776.305310 kJ/mol
# GULP energy per Si atom -5580.741150 kJ/mol
# Density = 2.142903 g / cm^3
# Si number density = 21.477913 Si / 1000 Ang^3
#
#
#
# Elastic Constant Matrix: (Units=GPa)
#
#
# Indices 1 2 3 4 5 6 
#
# 1 102.7810 34.7975 15.0876 0.0000 -2.3327 0.0000
# 2 34.7975 88.3520 9.8048 0.0000 -10.5716 0.0000
# 3 15.0876 9.8048 70.1697 0.0000 -10.8533 0.0000
# 4 0.0000 0.0000 0.0000 29.4720 0.0000 -5.8104
# 5 -2.3327 -10.5716 -10.8533 0.0000 39.3562 0.0000
# 6 0.0000 0.0000 0.0000 -5.8104 0.0000 22.9650
#
#
#
# Elastic Compliance Matrix: (Units=1/GPa)
#
#
# Indices 1 2 3 4 5 6 
#
# 1 0.011503 -0.004434 -0.002019 0.000000 -0.001066 0.000000
# 2 -0.004434 0.013501 -0.000431 0.000000 0.003245 0.000000
# 3 -0.002019 -0.000431 0.015364 0.000000 0.004002 0.000000
# 4 0.000000 0.000000 0.000000 0.035712 0.000000 0.009035
# 5 -0.001066 0.003245 0.004002 0.000000 0.027321 0.000000
# 6 0.000000 0.000000 0.000000 0.009035 0.000000 0.045831
#
#
# Mechanical properties :
#
#
# Convention : Reuss Voigt Hill
#
# Bulk Modulus (GPa) = 37.59337 42.29806 39.94571
# Shear Modulus (GPa) = 29.09255 31.79949 30.44602
#
# Velocity S-wave (km/s) = 3.68439 3.85199 3.76912
# Velocity P-wave (km/s) = 5.97000 6.28651 6.13030
#
# Compressibility (1/GPa) = 0.02660044
#
# Stress axis : x y z
#
# Youngs Moduli (GPa) = 86.93632 74.07003 65.08565
#
# Poissons Ratio (x) = 0.32842 0.13138
# Poissons Ratio (y) = 0.38546 0.02807
# Poissons Ratio (z) = 0.17549 0.03194
#
# Static dielectric constant tensor:
#      x y z
#    x 1.780720 0.000000 -0.017890 
#    y 0.000000 1.780750 0.000000 
#    z -0.017890 0.000000 1.882570 
# 
# From -- ./inp_files/79461.got.cif
#   From: 2010.05.17/outbox.cif.g08.bks.cpg/sg15_40_cif.got.tgz:79461.got - 2010.06.03 18:47:42.
