data_PCOD9292448
_publ_section_title
;
Structure prediction by ZEFSAII (Michael W. Deem and Ramdas Pophale) SiO2 
 PCOD9292448
Probable space group: C 2/C
;
_chemical_formula_sum "Si O2"
_cell_formula_units_Z 60
_cell_length_a 19.867044
_cell_length_b 15.160293
_cell_length_c 8.663288
_cell_angle_alpha 90.000000
_cell_angle_beta 114.682769
_cell_angle_gamma 90.000000
_cell_volume 2370.895929
_symmetry_space_group_name_H-M "C 2/C"
_symmetry_group_IT_number 15
_symmetry_cell_setting 'monoclinic'
loop_
_space_group_symop_operation_xyz
x,y,z
-x,y,1/2-z
-x,-y,-z
x,-y,1/2+z
1/2+x,1/2+y,z
1/2-x,1/2+y,1/2-z
1/2-x,1/2-y,-z
1/2+x,1/2-y,1/2+z
loop_
_atom_site_type_symbol
_atom_site_label
_atom_site_fract_x
_atom_site_fract_y
_atom_site_fract_z
Si Si1 0.500000 0.196068 0.250000
Si Si2 0.159677 0.342054 0.934452
Si Si3 0.245976 0.323443 0.334364
Si Si4 0.910396 0.897940 0.498020
Si Si5 0.176750 0.543235 0.003963
Si Si6 0.569410 0.595919 0.111880
Si Si7 0.776219 0.856134 0.781308
Si Si8 0.976768 0.405111 0.045330
O O1 0.411782 0.216208 0.173866
O O2 0.504893 0.155544 0.432538
O O3 0.144108 0.448437 0.928617
O O4 0.223408 0.335565 0.869848
O O5 0.199029 0.322684 0.131649
O O6 0.332074 0.351486 0.392562
O O7 0.203003 0.400759 0.383581
O O8 0.237879 0.218089 0.360813
O O9 0.917230 0.902799 0.690815
O O10 0.988993 0.859804 0.509777
O O11 0.920107 0.996579 0.440378
O O12 0.112027 0.595677 0.028970
O O13 0.249100 0.550019 0.183033
O O14 0.638158 0.642914 0.099857
O O15 0.000000 0.391889 0.250000
O O16 0.000000 0.500000 0.000000
#
# Coordination Sequence:
#
# PCOD9292448 Si02
#       8
#     4   8   8   8   8   8   8   8
#     4  12  24  44  68 106 152 176 252 304 348 440
#     4  12  25  45  72 100 138 190 239 295 351 434
#     4  12  27  45  67 104 143 186 236 297 371 446
#     4  10  22  43  73 101 134 177 239 298 349 416
#     4  12  23  41  72  99 132 189 243 292 350 424
#     4  10  22  43  72 103 134 176 235 300 351 418
#     4  12  26  45  66 103 147 182 231 297 375 440
#     4  12  22  38  65 101 145 181 235 306 348 415
#
# _framework density 25.306889000000002
#
# number of rings (size 3 to 8) (size 9 to 14) (size 15 to 20)
#    0.000    0.533    4.667    4.000    1.867    0.000 
#    2.400    0.000    0.000    0.000    0.000    0.000 
#    0.000    0.000    0.000    0.000    0.000    0.000 
#
# Total GULP energy -167337.754796 kJ/mol
# GULP energy per Si atom -5577.925160 kJ/mol
# Density = 2.524929 g / cm^3
# Si number density = 25.306889 Si / 1000 Ang^3
#
#
#
# Elastic Constant Matrix: (Units=GPa)
#
#
# Indices 1 2 3 4 5 6 
#
# 1 195.6983 14.2411 -3.5199 0.0000 37.6432 0.0000
# 2 14.2411 71.3752 7.3496 0.0000 12.8735 0.0000
# 3 -3.5199 7.3496 50.6940 0.0000 19.5616 0.0000
# 4 0.0000 0.0000 0.0000 28.0189 0.0000 17.2758
# 5 37.6432 12.8735 19.5616 0.0000 45.1633 0.0000
# 6 0.0000 0.0000 0.0000 17.2758 0.0000 -5.9427
#
#
#
# Elastic Compliance Matrix: (Units=1/GPa)
#
#
# Indices 1 2 3 4 5 6 
#
# 1 0.006463 -0.000415 0.003052 0.000000 -0.006590 0.000000
# 2 -0.000415 0.014813 -0.000817 0.000000 -0.003522 0.000000
# 3 0.003052 -0.000817 0.025152 0.000000 -0.013205 0.000000
# 4 0.000000 0.000000 0.000000 0.012781 0.000000 0.037155
# 5 -0.006590 -0.003522 -0.013205 0.000000 0.034358 0.000000
# 6 0.000000 0.000000 0.000000 0.037155 0.000000 -0.060261
#
#
# Mechanical properties :
#
#
# Convention : Reuss Voigt Hill
#
# Bulk Modulus (GPa) = 19.97346 39.32324 29.64835
# Shear Modulus (GPa) = 107.86217 33.42767 70.64492
#
# Velocity S-wave (km/s) = 6.53561 3.63835 5.28922
# Velocity P-wave (km/s) = 8.05369 5.76389 7.00301
#
# Compressibility (1/GPa) = 0.05006644
#
# Stress axis : x y z
#
# Youngs Moduli (GPa) = 154.73599 67.50940 39.75834
#
# Poissons Ratio (x) = 0.02802 -0.12134
# Poissons Ratio (y) = 0.06423 0.03249
# Poissons Ratio (z) = -0.47223 0.05517
#
# Static dielectric constant tensor:
#      x y z
#    x 2.005690 0.000000 -0.028670 
#    y 0.000000 2.187210 0.000000 
#    z -0.028670 0.000000 2.214770 
# 
# From -- ./inp_files/57050.got.cif
#   From: 2010.05.17/outbox.cif.g08.bks.cpg/sg15_29_cif.got.tgz:57050.got - 2010.06.03 18:47:42.
