data_PCOD9292612
_publ_section_title
;
Structure prediction by ZEFSAII (Michael W. Deem and Ramdas Pophale) SiO2 
 PCOD9292612
Probable space group: C 2/C
;
_chemical_formula_sum "Si O2"
_cell_formula_units_Z 44
_cell_length_a 22.874187
_cell_length_b 12.548427
_cell_length_c 16.509121
_cell_angle_alpha 90.000000
_cell_angle_beta 22.027460
_cell_angle_gamma 90.000000
_cell_volume 1777.252528
_symmetry_space_group_name_H-M "C 2/C"
_symmetry_group_IT_number 15
_symmetry_cell_setting 'monoclinic'
loop_
_space_group_symop_operation_xyz
x,y,z
-x,y,1/2-z
-x,-y,-z
x,-y,1/2+z
1/2+x,1/2+y,z
1/2-x,1/2+y,1/2-z
1/2-x,1/2-y,-z
1/2+x,1/2-y,1/2+z
loop_
_atom_site_type_symbol
_atom_site_label
_atom_site_fract_x
_atom_site_fract_y
_atom_site_fract_z
Si Si1 0.398966 0.415681 0.582079
Si Si2 0.584113 0.144327 0.569289
Si Si3 0.719725 0.846340 0.142778
Si Si4 0.956028 0.326202 0.980430
Si Si5 0.000000 0.750148 0.250000
Si Si6 0.285240 0.570312 0.050017
O O1 0.500000 0.500000 0.500000
O O2 0.469246 0.295782 0.495368
O O3 0.380648 0.436611 0.510694
O O4 0.225970 0.412313 0.842590
O O5 0.500000 0.081729 0.750000
O O6 0.448727 0.174924 0.680420
O O7 0.664881 0.247464 0.506710
O O8 0.683467 0.869519 0.284573
O O9 0.785704 0.951629 0.014796
O O10 0.938982 0.315296 0.905434
O O11 0.108967 0.396350 0.796243
O O12 0.860782 0.831852 0.404664
#
# Coordination Sequence:
#
# PCOD9292612 Si02
#       6
#     8   8   8   8   4   8
#     4  10  24  41  71 102 142 191 242 295 365 441
#     4  11  25  45  69 104 139 188 241 303 358 431
#     4  11  25  44  73  99 145 190 240 296 371 438
#     4  10  22  44  65 100 140 186 236 295 363 426
#     4  10  24  42  70 104 140 184 238 310 360 420
#     4  11  23  43  68 100 141 187 233 293 368 433
#
# _framework density 24.757315999999999
#
# number of rings (size 3 to 8) (size 9 to 14) (size 15 to 20)
#    0.000    1.455    1.818    1.636    6.364    2.909 
#    1.636    0.000    0.000    0.000    0.000    0.000 
#    0.000    0.000    0.000    0.000    0.000    0.000 
#
# Total GULP energy -123083.482204 kJ/mol
# GULP energy per Si atom -5594.703737 kJ/mol
# Density = 2.470097 g / cm^3
# Si number density = 24.757316 Si / 1000 Ang^3
#
#
#
# Elastic Constant Matrix: (Units=GPa)
#
#
# Indices 1 2 3 4 5 6 
#
# 1 101.6466 23.6096 34.0325 0.0000 2.9377 0.0000
# 2 23.6096 85.2506 7.2542 0.0000 -24.7048 0.0000
# 3 34.0325 7.2542 98.8925 0.0000 9.9387 0.0000
# 4 0.0000 0.0000 0.0000 23.3252 0.0000 -9.7160
# 5 2.9377 -24.7048 9.9387 0.0000 47.8539 0.0000
# 6 0.0000 0.0000 0.0000 -9.7160 0.0000 28.4971
#
#
#
# Elastic Compliance Matrix: (Units=1/GPa)
#
#
# Indices 1 2 3 4 5 6 
#
# 1 0.011933 -0.003509 -0.003670 0.000000 -0.001782 0.000000
# 2 -0.003509 0.015134 -0.000725 0.000000 0.008179 0.000000
# 3 -0.003670 -0.000725 0.011687 0.000000 -0.002576 0.000000
# 4 0.000000 0.000000 0.000000 0.049969 0.000000 0.017037
# 5 -0.001782 0.008179 -0.002576 0.000000 0.025764 0.000000
# 6 0.000000 0.000000 0.000000 0.017037 0.000000 0.040900
#
#
# Mechanical properties :
#
#
# Convention : Reuss Voigt Hill
#
# Bulk Modulus (GPa) = 43.57919 46.17583 44.87751
# Shear Modulus (GPa) = 27.95753 34.66146 31.30950
#
# Velocity S-wave (km/s) = 3.36410 3.74578 3.56006
# Velocity P-wave (km/s) = 5.72104 6.11553 5.92157
#
# Compressibility (1/GPa) = 0.02294673
#
# Stress axis : x y z
#
# Youngs Moduli (GPa) = 83.79864 66.07787 85.56449
#
# Poissons Ratio (x) = 0.23186 0.31404
# Poissons Ratio (y) = 0.29404 0.06199
# Poissons Ratio (z) = 0.30756 0.04788
#
# Static dielectric constant tensor:
#      x y z
#    x 1.983840 0.000000 0.025940 
#    y 0.000000 1.984350 0.000000 
#    z 0.025940 0.000000 1.950290 
# 
# From -- ./inp_files/219666.got.cif
#   From: 2010.05.17/outbox.cif.g08.bks.cpg/sg15_110_cif.got.tgz:219666.got - 2010.06.03 18:47:42.
