data_PCOD9292956
_publ_section_title
;
Structure prediction by ZEFSAII (Michael W. Deem and Ramdas Pophale) SiO2 
 PCOD9292956
Probable space group: C 2/C
;
_chemical_formula_sum "Si O2"
_cell_formula_units_Z 36
_cell_length_a 16.844667
_cell_length_b 8.605945
_cell_length_c 17.063903
_cell_angle_alpha 90.000000
_cell_angle_beta 148.742073
_cell_angle_gamma 90.000000
_cell_volume 1283.559346
_symmetry_space_group_name_H-M "C 2/C"
_symmetry_group_IT_number 15
_symmetry_cell_setting 'monoclinic'
loop_
_space_group_symop_operation_xyz
x,y,z
-x,y,1/2-z
-x,-y,-z
x,-y,1/2+z
1/2+x,1/2+y,z
1/2-x,1/2+y,1/2-z
1/2-x,1/2-y,-z
1/2+x,1/2-y,1/2+z
loop_
_atom_site_type_symbol
_atom_site_label
_atom_site_fract_x
_atom_site_fract_y
_atom_site_fract_z
Si Si1 0.688810 0.457234 0.630666
Si Si2 0.038406 0.529268 0.909031
Si Si3 0.788884 0.870325 0.202334
Si Si4 0.395272 0.652436 0.091282
Si Si5 0.000000 0.290007 0.750000
O O1 0.671903 0.271688 0.620518
O O2 0.627262 0.566288 0.649062
O O3 0.651311 0.530157 0.514184
O O4 0.874498 0.468648 0.797229
O O5 0.008040 0.706767 0.863432
O O6 0.087795 0.413604 0.879631
O O7 0.183925 0.513522 0.086911
O O8 0.895517 0.806681 0.222026
O O9 0.500000 0.591842 0.250000
O O10 0.250000 0.750000 0.000000
#
# Coordination Sequence:
#
# PCOD9292956 Si02
#       5
#     8   8   8   8   4
#     4  11  25  47  73 116 149 203 257 321 382 461
#     4  11  22  47  75 104 155 204 251 316 385 455
#     4  11  24  47  76 112 159 199 255 321 387 457
#     4  12  23  48  76 110 156 205 257 317 392 460
#     4  10  22  44  70 114 148 198 256 306 382 460
#
# _framework density 28.047008999999999
#
# number of rings (size 3 to 8) (size 9 to 14) (size 15 to 20)
#    0.000    0.889    3.333    4.000    0.000    1.778 
#   12.000    5.556    0.000    1.333    0.000    0.000 
#    0.000    0.000    0.000    0.000    0.000    0.000 
#
# Total GULP energy -100900.323731 kJ/mol
# GULP energy per Si atom -5605.573541 kJ/mol
# Density = 2.798317 g / cm^3
# Si number density = 28.047009 Si / 1000 Ang^3
#
#
#
# Elastic Constant Matrix: (Units=GPa)
#
#
# Indices 1 2 3 4 5 6 
#
# 1 165.4221 44.4325 46.0536 0.0000 -24.8661 0.0000
# 2 44.4325 147.5526 34.6277 0.0000 -26.5717 0.0000
# 3 46.0536 34.6277 153.0362 -0.0001 -51.8374 -0.0001
# 4 0.0000 0.0000 -0.0001 47.1757 -0.0001 -2.4877
# 5 -24.8661 -26.5717 -51.8374 -0.0001 50.8860 0.0000
# 6 0.0000 0.0000 -0.0001 -2.4877 0.0000 31.7228
#
#
#
# Elastic Compliance Matrix: (Units=1/GPa)
#
#
# Indices 1 2 3 4 5 6 
#
# 1 0.007029 -0.001578 -0.001334 0.000000 0.001251 0.000000
# 2 -0.001578 0.007867 -0.000267 0.000000 0.003065 0.000000
# 3 -0.001334 -0.000267 0.010273 0.000000 0.009674 0.000000
# 4 0.000000 0.000000 0.000000 0.021285 0.000000 0.001669
# 5 0.001251 0.003065 0.009674 0.000000 0.031718 0.000000
# 6 0.000000 0.000000 0.000000 0.001669 0.000000 0.031654
#
#
# Mechanical properties :
#
#
# Convention : Reuss Voigt Hill
#
# Bulk Modulus (GPa) = 53.16273 79.58207 66.37240
# Shear Modulus (GPa) = 40.83135 48.68336 44.75735
#
# Velocity S-wave (km/s) = 3.81966 4.17079 3.99908
# Velocity P-wave (km/s) = 6.20073 7.18541 6.71115
#
# Compressibility (1/GPa) = 0.01881017
#
# Stress axis : x y z
#
# Youngs Moduli (GPa) = 142.27681 127.11267 97.34174
#
# Poissons Ratio (x) = 0.20059 0.12987
# Poissons Ratio (y) = 0.22452 0.02600
# Poissons Ratio (z) = 0.18982 0.03395
#
# Static dielectric constant tensor:
#      x y z
#    x 2.362710 0.000000 -0.003330 
#    y 0.000000 2.202150 0.000000 
#    z -0.003330 0.000000 2.232180 
# 
# From -- ./inp_files/214380.got.cif
#   From: 2010.05.17/outbox.cif.g08.bks.cpg/sg15_108_cif.got.tgz:214380.got - 2010.06.03 18:47:42.
