data_PCOD9292400
_publ_section_title
;
Structure prediction by ZEFSAII (Michael W. Deem and Ramdas Pophale) SiO2 
 PCOD9292400
Probable space group: C 2/C
;
_chemical_formula_sum "Si O2"
_cell_formula_units_Z 44
_cell_length_a 8.389695
_cell_length_b 14.812823
_cell_length_c 16.833079
_cell_angle_alpha 90.000000
_cell_angle_beta 111.919255
_cell_angle_gamma 90.000000
_cell_volume 1940.708042
_symmetry_space_group_name_H-M "C 2/C"
_symmetry_group_IT_number 15
_symmetry_cell_setting 'monoclinic'
loop_
_space_group_symop_operation_xyz
x,y,z
-x,y,1/2-z
-x,-y,-z
x,-y,1/2+z
1/2+x,1/2+y,z
1/2-x,1/2+y,1/2-z
1/2-x,1/2-y,-z
1/2+x,1/2-y,1/2+z
loop_
_atom_site_type_symbol
_atom_site_label
_atom_site_fract_x
_atom_site_fract_y
_atom_site_fract_z
Si Si1 0.105444 0.402242 0.186492
Si Si2 0.535306 0.732680 0.600574
Si Si3 0.500000 0.627752 0.750000
Si Si4 0.447484 0.407899 0.947214
Si Si5 0.879319 0.239190 0.099010
Si Si6 0.444613 0.916022 0.648561
O O1 0.311487 0.415112 0.231376
O O2 0.000000 0.403078 0.250000
O O3 0.035615 0.310641 0.131421
O O4 0.032460 0.493084 0.133468
O O5 0.466083 0.687435 0.666697
O O6 0.464599 0.672186 0.515644
O O7 0.744000 0.736027 0.642763
O O8 0.480771 0.835865 0.593884
O O9 0.555086 0.363575 0.894797
O O10 0.257692 0.425975 0.883826
O O11 0.500000 0.500000 0.000000
O O12 0.750000 0.250000 0.000000
O O13 0.500000 0.894918 0.750000
#
# Coordination Sequence:
#
# PCOD9292400 Si02
#       6
#     8   8   4   8   8   8
#     4  11  24  45  72 102 150 188 239 295 364 437
#     4  11  23  44  70 106 143 188 243 296 370 433
#     4  12  24  44  74 106 144 196 244 304 362 436
#     4  11  25  45  73 102 147 192 242 303 365 435
#     4  10  22  43  71 101 141 189 234 297 367 424
#     4  11  24  43  68 105 145 184 241 298 359 438
#
# _framework density 22.672138
#
# number of rings (size 3 to 8) (size 9 to 14) (size 15 to 20)
#    0.000    1.091    2.727    3.818    2.545    2.909 
#    0.000    5.455    2.000    0.000    0.000    0.000 
#    0.000    0.000    0.000    0.000    0.000    0.000 
#
# Total GULP energy -122711.248528 kJ/mol
# GULP energy per Si atom -5577.784024 kJ/mol
# Density = 2.262053 g / cm^3
# Si number density = 22.672138 Si / 1000 Ang^3
#
#
#
# Elastic Constant Matrix: (Units=GPa)
#
#
# Indices 1 2 3 4 5 6 
#
# 1 134.3004 34.7611 27.8774 0.0000 37.0928 0.0000
# 2 34.7611 127.4153 29.9343 0.0000 16.2469 0.0000
# 3 27.8774 29.9343 69.9024 0.0000 21.3675 0.0000
# 4 0.0000 0.0000 0.0000 24.7204 0.0000 -2.8916
# 5 37.0928 16.2469 21.3675 0.0000 51.5532 0.0000
# 6 0.0000 0.0000 0.0000 -2.8916 0.0000 26.9420
#
#
#
# Elastic Compliance Matrix: (Units=1/GPa)
#
#
# Indices 1 2 3 4 5 6 
#
# 1 0.009795 -0.001581 -0.001405 0.000000 -0.005967 0.000000
# 2 -0.001581 0.009068 -0.003122 0.000000 -0.000426 0.000000
# 3 -0.001405 -0.003122 0.017855 0.000000 -0.005406 0.000000
# 4 0.000000 0.000000 0.000000 0.040967 0.000000 0.004397
# 5 -0.005967 -0.000426 -0.005406 0.000000 0.026065 0.000000
# 6 0.000000 0.000000 0.000000 0.004397 0.000000 0.037589
#
#
# Mechanical properties :
#
#
# Convention : Reuss Voigt Hill
#
# Bulk Modulus (GPa) = 40.81546 57.41820 49.11683
# Shear Modulus (GPa) = 30.91708 36.57948 33.74828
#
# Velocity S-wave (km/s) = 3.69678 4.02109 3.86234
# Velocity P-wave (km/s) = 6.02189 6.85122 6.44990
#
# Compressibility (1/GPa) = 0.02450052
#
# Stress axis : x y z
#
# Youngs Moduli (GPa) = 102.09350 110.28322 56.00523
#
# Poissons Ratio (x) = 0.17439 0.07870
# Poissons Ratio (y) = 0.16144 0.17486
# Poissons Ratio (z) = 0.14346 0.34433
#
# Static dielectric constant tensor:
#      x y z
#    x 1.922160 0.000000 -0.021410 
#    y 0.000000 1.869630 0.000000 
#    z -0.021410 0.000000 1.807110 
# 
# From -- ./inp_files/231429.got.cif
#   From: 2010.05.17/outbox.cif.g08.bks.cpg/sg15_116_cif.got.tgz:231429.got - 2010.06.03 18:47:42.
