data_PCOD9292323
_publ_section_title
;
Structure prediction by ZEFSAII (Michael W. Deem and Ramdas Pophale) SiO2 
 PCOD9292323
Probable space group: C 2/C
;
_chemical_formula_sum "Si O2"
_cell_formula_units_Z 64
_cell_length_a 11.929310
_cell_length_b 14.784773
_cell_length_c 16.029206
_cell_angle_alpha 90.000000
_cell_angle_beta 96.847522
_cell_angle_gamma 90.000000
_cell_volume 2806.939517
_symmetry_space_group_name_H-M "C 2/C"
_symmetry_group_IT_number 15
_symmetry_cell_setting 'monoclinic'
loop_
_space_group_symop_operation_xyz
x,y,z
-x,y,1/2-z
-x,-y,-z
x,-y,1/2+z
1/2+x,1/2+y,z
1/2-x,1/2+y,1/2-z
1/2-x,1/2-y,-z
1/2+x,1/2-y,1/2+z
loop_
_atom_site_type_symbol
_atom_site_label
_atom_site_fract_x
_atom_site_fract_y
_atom_site_fract_z
Si Si1 0.178920 0.736671 0.247046
Si Si2 0.529939 0.734020 0.896671
Si Si3 0.050624 0.422728 0.946048
Si Si4 0.795198 0.848665 0.529204
Si Si5 0.263237 0.499092 0.893640
Si Si6 0.865999 0.614468 0.755298
Si Si7 0.531905 0.403537 0.540992
Si Si8 0.656383 0.056810 0.163446
O O1 0.121369 0.753530 0.331432
O O2 0.293141 0.794320 0.248374
O O3 0.195612 0.629280 0.235985
O O4 0.088791 0.768074 0.166178
O O5 0.528289 0.818293 0.961416
O O6 0.560736 0.652405 0.960065
O O7 0.179933 0.441300 0.943629
O O8 0.978778 0.431536 0.854305
O O9 0.000000 0.500000 0.000000
O O10 0.750000 0.750000 0.500000
O O11 0.798738 0.912087 0.448650
O O12 0.715030 0.899669 0.587482
O O13 0.924692 0.852642 0.572040
O O14 0.187833 0.544991 0.816213
O O15 0.368591 0.432886 0.887433
O O16 0.834321 0.551649 0.832438
O O17 0.000000 0.626481 0.750000
O O18 0.500000 0.500000 0.500000
#
# Coordination Sequence:
#
# PCOD9292323 Si02
#       8
#     8   8   8   8   8   8   8   8
#     4  10  23  42  71 100 136 181 235 281 355 422
#     4  10  22  43  69  97 136 185 230 284 349 423
#     4  11  21  39  67 101 131 176 232 284 347 411
#     4  11  22  42  71  98 139 185 236 287 355 418
#     4  11  23  41  63 100 139 179 233 287 344 419
#     4  12  25  44  71 100 141 184 237 293 357 426
#     4  10  23  40  65  95 142 180 230 286 345 415
#     4  11  23  43  69 101 139 181 230 290 352 423
#
# _framework density 22.800633999999999
#
# number of rings (size 3 to 8) (size 9 to 14) (size 15 to 20)
#    0.000    1.250    2.500    4.500    5.250    0.500 
#    0.000    6.250    0.000    0.000    0.000    0.000 
#    0.000    0.000    0.000    0.000    0.000    0.000 
#
# Total GULP energy -178369.220830 kJ/mol
# GULP energy per Si atom -5574.038151 kJ/mol
# Density = 2.274874 g / cm^3
# Si number density = 22.800634 Si / 1000 Ang^3
#
#
#
# Elastic Constant Matrix: (Units=GPa)
#
#
# Indices 1 2 3 4 5 6 
#
# 1 158.8759 60.9208 23.4877 0.0000 3.2801 0.0000
# 2 60.9208 156.3899 27.2446 0.0000 2.9107 0.0000
# 3 23.4877 27.2446 42.0569 0.0000 -4.1161 0.0000
# 4 0.0000 0.0000 0.0000 38.1251 0.0000 3.2037
# 5 3.2801 2.9107 -4.1161 0.0000 31.6492 0.0000
# 6 0.0000 0.0000 0.0000 3.2037 0.0000 40.2009
#
#
#
# Elastic Compliance Matrix: (Units=1/GPa)
#
#
# Indices 1 2 3 4 5 6 
#
# 1 0.007678 -0.002492 -0.002764 0.000000 -0.000926 0.000000
# 2 -0.002492 0.008069 -0.003933 0.000000 -0.000995 0.000000
# 3 -0.002764 -0.003933 0.028292 0.000000 0.004328 0.000000
# 4 0.000000 0.000000 0.000000 0.026406 0.000000 -0.002104
# 5 -0.000926 -0.000995 0.004328 0.000000 0.032347 0.000000
# 6 0.000000 0.000000 0.000000 -0.002104 0.000000 0.025043
#
#
# Mechanical properties :
#
#
# Convention : Reuss Voigt Hill
#
# Bulk Modulus (GPa) = 38.96961 64.51433 51.74197
# Shear Modulus (GPa) = 32.30710 38.37300 35.34005
#
# Velocity S-wave (km/s) = 3.76831 4.10686 3.94122
# Velocity P-wave (km/s) = 6.00517 7.13056 6.59192
#
# Compressibility (1/GPa) = 0.02566102
#
# Stress axis : x y z
#
# Youngs Moduli (GPa) = 130.25064 123.93683 35.34566
#
# Poissons Ratio (x) = 0.30885 0.09770
# Poissons Ratio (y) = 0.32458 0.13900
# Poissons Ratio (z) = 0.36001 0.48739
#
# Static dielectric constant tensor:
#      x y z
#    x 1.927940 0.000000 0.108030 
#    y 0.000000 1.884060 0.000000 
#    z 0.108030 0.000000 2.072760 
# 
# From -- ./inp_files/198355.got.cif
#   From: 2010.05.17/outbox.cif.g08.bks.cpg/sg15_100_cif.got.tgz:198355.got - 2010.06.03 18:47:42.
