data_PCOD9292550
_publ_section_title
;
Structure prediction by ZEFSAII (Michael W. Deem and Ramdas Pophale) SiO2 
 PCOD9292550
Probable space group: C 2/C
;
_chemical_formula_sum "Si O2"
_cell_formula_units_Z 48
_cell_length_a 11.642734
_cell_length_b 8.609786
_cell_length_c 24.457128
_cell_angle_alpha 90.000000
_cell_angle_beta 60.031518
_cell_angle_gamma 90.000000
_cell_volume 2123.837395
_symmetry_space_group_name_H-M "C 2/C"
_symmetry_group_IT_number 15
_symmetry_cell_setting 'monoclinic'
loop_
_space_group_symop_operation_xyz
x,y,z
-x,y,1/2-z
-x,-y,-z
x,-y,1/2+z
1/2+x,1/2+y,z
1/2-x,1/2+y,1/2-z
1/2-x,1/2-y,-z
1/2+x,1/2-y,1/2+z
loop_
_atom_site_type_symbol
_atom_site_label
_atom_site_fract_x
_atom_site_fract_y
_atom_site_fract_z
Si Si1 0.500458 0.075704 0.831509
Si Si2 0.069969 0.909321 0.409730
Si Si3 0.500000 0.178200 0.250000
Si Si4 0.500000 0.330441 0.750000
Si Si5 0.685409 0.583928 0.000101
Si Si6 0.058070 0.430603 0.541705
Si Si7 0.685766 0.423821 0.261311
O O1 0.447737 0.226329 0.812715
O O2 0.657834 0.077449 0.782493
O O3 0.445239 0.929155 0.811246
O O4 0.479892 0.045621 0.899525
O O5 0.998582 0.740696 0.433148
O O6 0.165380 0.924235 0.439481
O O7 0.142047 0.920577 0.334716
O O8 0.958681 0.044356 0.440932
O O9 0.616779 0.279365 0.247603
O O10 0.381612 0.431705 0.753583
O O11 0.783778 0.449196 0.997367
O O12 0.750000 0.750000 0.000000
O O13 0.000000 0.500000 0.500000
#
# Coordination Sequence:
#
# PCOD9292550 Si02
#       7
#     8   8   4   4   8   8   8
#     4  11  25  43  68 103 142 177 230 286 357 414
#     4  11  26  46  71 104 142 192 242 291 363 419
#     4  10  22  44  62 100 132 182 218 290 344 410
#     4  10  26  40  68 104 138 186 228 288 352 406
#     4  11  26  47  70 102 145 187 241 296 350 434
#     4  12  26  47  74 104 145 192 237 296 360 427
#     4  11  24  43  70 101 138 181 233 291 349 421
#
# _framework density 22.600598999999999
#
# number of rings (size 3 to 8) (size 9 to 14) (size 15 to 20)
#    0.000    1.000    3.333    1.500    7.000    2.667 
#    3.000    0.000    0.000    0.000    0.000    0.000 
#    0.000    0.000    0.000    0.000    0.000    0.000 
#
# Total GULP energy -134398.873723 kJ/mol
# GULP energy per Si atom -5599.953072 kJ/mol
# Density = 2.254916 g / cm^3
# Si number density = 22.600599 Si / 1000 Ang^3
#
#
#
# Elastic Constant Matrix: (Units=GPa)
#
#
# Indices 1 2 3 4 5 6 
#
# 1 129.6547 29.7965 51.7938 0.0000 26.7132 0.0000
# 2 29.7965 107.9664 22.6673 0.0000 16.3315 0.0000
# 3 51.7938 22.6673 139.8679 0.0000 27.7735 0.0000
# 4 0.0000 0.0000 0.0000 173.5306 0.0000 142.3640
# 5 26.7132 16.3315 27.7735 0.0000 36.4217 0.0000
# 6 0.0000 0.0000 0.0000 142.3640 0.0000 146.9258
#
#
#
# Elastic Compliance Matrix: (Units=1/GPa)
#
#
# Indices 1 2 3 4 5 6 
#
# 1 0.010055 -0.001523 -0.002531 0.000000 -0.004762 0.000000
# 2 -0.001523 0.010254 -0.000479 0.000000 -0.003115 0.000000
# 3 -0.002531 -0.000479 0.009137 0.000000 -0.004896 0.000000
# 4 0.000000 0.000000 0.000000 0.028100 0.000000 -0.027228
# 5 -0.004762 -0.003115 -0.004896 0.000000 0.036079 0.000000
# 6 0.000000 0.000000 0.000000 -0.027228 0.000000 0.033189
#
#
# Mechanical properties :
#
#
# Convention : Reuss Voigt Hill
#
# Bulk Modulus (GPa) = 49.06970 65.11158 57.09064
# Shear Modulus (GPa) = 35.04492 89.59105 62.31798
#
# Velocity S-wave (km/s) = 3.94206 6.30294 5.25675
# Velocity P-wave (km/s) = 6.51756 9.04664 7.88417
#
# Compressibility (1/GPa) = 0.02037918
#
# Stress axis : x y z
#
# Youngs Moduli (GPa) = 99.45272 97.51916 109.44866
#
# Poissons Ratio (x) = 0.14855 0.27702
# Poissons Ratio (y) = 0.15150 0.05244
# Poissons Ratio (z) = 0.25172 0.04672
#
# Static dielectric constant tensor:
#      x y z
#    x 1.828990 0.000000 -0.022070 
#    y 0.000000 1.882880 0.000000 
#    z -0.022070 0.000000 1.804190 
# 
# From -- ./inp_files/268050.got.cif
#   From: 2010.05.17/outbox.cif.g08.bks.cpg/sg15_135_cif.got.tgz:268050.got - 2010.06.03 18:47:42.
