data_PCOD9292896
_publ_section_title
;
Structure prediction by ZEFSAII (Michael W. Deem and Ramdas Pophale) SiO2 
 PCOD9292896
Probable space group: C 2/C
;
_chemical_formula_sum "Si O2"
_cell_formula_units_Z 56
_cell_length_a 10.140815
_cell_length_b 16.154890
_cell_length_c 14.957969
_cell_angle_alpha 90.000000
_cell_angle_beta 89.925089
_cell_angle_gamma 90.000000
_cell_volume 2450.468492
_symmetry_space_group_name_H-M "C 2/C"
_symmetry_group_IT_number 15
_symmetry_cell_setting 'monoclinic'
loop_
_space_group_symop_operation_xyz
x,y,z
-x,y,1/2-z
-x,-y,-z
x,-y,1/2+z
1/2+x,1/2+y,z
1/2-x,1/2+y,1/2-z
1/2-x,1/2-y,-z
1/2+x,1/2-y,1/2+z
loop_
_atom_site_type_symbol
_atom_site_label
_atom_site_fract_x
_atom_site_fract_y
_atom_site_fract_z
Si Si1 0.251561 0.983653 0.375853
Si Si2 0.906477 0.123236 0.166107
Si Si3 0.565398 0.291648 0.007199
Si Si4 0.846011 0.673098 0.223990
Si Si5 0.630998 0.991995 0.310231
Si Si6 0.155629 0.613748 0.987717
Si Si7 0.796664 0.195061 0.582603
O O1 0.264479 0.973794 0.268519
O O2 0.270969 0.893224 0.414064
O O3 0.114925 0.035070 0.382825
O O4 0.344693 0.044825 0.434045
O O5 0.964691 0.187304 0.095753
O O6 0.759883 0.153946 0.197050
O O7 0.000000 0.115787 0.250000
O O8 0.568639 0.192536 0.014991
O O9 0.702307 0.339544 0.024073
O O10 0.451041 0.324434 0.069387
O O11 0.846219 0.588355 0.165732
O O12 0.788319 0.750348 0.171171
O O13 0.000000 0.686473 0.250000
O O14 0.500000 0.987627 0.250000
O O15 0.627540 0.932071 0.394385
O O16 0.750000 0.250000 0.500000
#
# Coordination Sequence:
#
# PCOD9292896 Si02
#       7
#     8   8   8   8   8   8   8
#     4  10  25  43  65 103 135 181 232 280 354 408
#     4  10  22  44  69  96 136 175 233 283 340 418
#     4  10  25  40  69  96 130 187 221 278 361 407
#     4  10  24  41  65  96 139 169 222 288 346 407
#     4  10  23  40  68  99 129 185 229 277 345 414
#     4  10  23  44  68  93 140 174 234 277 339 423
#     4  12  26  41  64  99 134 174 224 289 344 404
#
# _framework density 22.852774
#
# number of rings (size 3 to 8) (size 9 to 14) (size 15 to 20)
#    0.000    1.714    0.000    1.714   14.000    7.429 
#    0.000    0.000    0.000    0.000    0.000    0.000 
#    0.000    0.000    0.000    0.000    0.000    0.000 
#
# Total GULP energy -156312.197030 kJ/mol
# GULP energy per Si atom -5582.578465 kJ/mol
# Density = 2.280076 g / cm^3
# Si number density = 22.852774 Si / 1000 Ang^3
#
#
#
# Elastic Constant Matrix: (Units=GPa)
#
#
# Indices 1 2 3 4 5 6 
#
# 1 25.3444 10.4353 -4.8922 0.0000 -2.9669 0.0000
# 2 10.4353 164.5551 49.6193 0.0000 15.9497 0.0000
# 3 -4.8922 49.6193 85.5436 0.0000 12.1924 0.0000
# 4 0.0000 0.0000 0.0000 34.1289 0.0000 6.9884
# 5 -2.9669 15.9497 12.1924 0.0000 30.4648 0.0000
# 6 0.0000 0.0000 0.0000 6.9884 0.0000 15.3318
#
#
#
# Elastic Compliance Matrix: (Units=1/GPa)
#
#
# Indices 1 2 3 4 5 6 
#
# 1 0.042703 -0.004486 0.004366 0.000000 0.004760 0.000000
# 2 -0.004486 0.007988 -0.004488 0.000000 -0.002823 0.000000
# 3 0.004366 -0.004488 0.015003 0.000000 -0.003230 0.000000
# 4 0.000000 0.000000 0.000000 0.032317 0.000000 -0.014731
# 5 0.004760 -0.002823 -0.003230 0.000000 0.036059 0.000000
# 6 0.000000 0.000000 0.000000 -0.014731 0.000000 0.071938
#
#
# Mechanical properties :
#
#
# Convention : Reuss Voigt Hill
#
# Bulk Modulus (GPa) = 17.70572 42.86311 30.28442
# Shear Modulus (GPa) = 21.36286 30.67048 26.01667
#
# Velocity S-wave (km/s) = 3.06077 3.66743 3.37775
# Velocity P-wave (km/s) = 4.50063 6.06055 5.33788
#
# Compressibility (1/GPa) = 0.05647892
#
# Stress axis : x y z
#
# Youngs Moduli (GPa) = 23.41737 125.18268 66.65300
#
# Poissons Ratio (x) = 0.56155 -0.29099
# Poissons Ratio (y) = 0.10505 0.29912
# Poissons Ratio (z) = -0.10223 0.56179
#
# Static dielectric constant tensor:
#      x y z
#    x 1.948700 0.000000 -0.042540 
#    y 0.000000 1.854960 0.000000 
#    z -0.042540 0.000000 1.866500 
# 
# From -- ./inp_files/144243.got.cif
#   From: 2010.05.17/outbox.cif.g08.bks.cpg/sg15_73_cif.got.tgz:144243.got - 2010.06.03 18:47:42.
