data_PCOD9292975
_publ_section_title
;
Structure prediction by ZEFSAII (Michael W. Deem and Ramdas Pophale) SiO2 
 PCOD9292975
Probable space group: C 2/C
;
_chemical_formula_sum "Si O2"
_cell_formula_units_Z 52
_cell_length_a 13.272449
_cell_length_b 19.884394
_cell_length_c 9.482212
_cell_angle_alpha 90.000000
_cell_angle_beta 77.203327
_cell_angle_gamma 90.000000
_cell_volume 2440.337829
_symmetry_space_group_name_H-M "C 2/C"
_symmetry_group_IT_number 15
_symmetry_cell_setting 'monoclinic'
loop_
_space_group_symop_operation_xyz
x,y,z
-x,y,1/2-z
-x,-y,-z
x,-y,1/2+z
1/2+x,1/2+y,z
1/2-x,1/2+y,1/2-z
1/2-x,1/2-y,-z
1/2+x,1/2-y,1/2+z
loop_
_atom_site_type_symbol
_atom_site_label
_atom_site_fract_x
_atom_site_fract_y
_atom_site_fract_z
Si Si1 0.718740 0.763670 0.171228
Si Si2 0.613444 0.355171 0.222271
Si Si3 0.926280 0.006000 0.156324
Si Si4 0.237965 0.177923 0.425030
Si Si5 0.414729 0.949985 0.469005
Si Si6 0.305199 0.946878 0.798531
Si Si7 0.000000 0.663155 0.750000
O O1 0.804725 0.814450 0.208942
O O2 0.718983 0.697765 0.269424
O O3 0.604800 0.794293 0.229991
O O4 0.750000 0.750000 0.000000
O O5 0.500000 0.322775 0.250000
O O6 0.602243 0.430619 0.282756
O O7 0.652487 0.355633 0.050087
O O8 0.000000 0.039501 0.250000
O O9 0.817634 0.041676 0.167226
O O10 0.000000 0.000000 0.000000
O O11 0.250000 0.250000 0.500000
O O12 0.325882 0.120544 0.384831
O O13 0.343240 0.937424 0.626906
O O14 0.472150 0.885177 0.389566
O O15 0.500000 0.000000 0.500000
O O16 0.355489 0.988808 0.360693
#
# Coordination Sequence:
#
# PCOD9292975 Si02
#       7
#     8   8   8   8   8   8   4
#     4  11  26  46  71 103 141 191 233 291 354 415
#     4  10  22  44  70  96 138 180 238 283 343 416
#     4  11  23  41  68 105 132 178 224 291 357 412
#     4  10  24  44  67  98 135 192 232 275 340 425
#     4  12  25  43  70 108 131 185 227 302 366 412
#     4  12  23  44  71  98 147 174 236 294 358 416
#     4  12  26  46  72 106 150 172 250 298 362 428
#
# _framework density 21.308524999999999
#
# number of rings (size 3 to 8) (size 9 to 14) (size 15 to 20)
#    0.000    0.923    1.538    5.538    6.462    1.231 
#    1.385    0.000    0.000    0.000    0.000    0.000 
#    0.000    0.000    0.000    0.000    0.000    0.000 
#
# Total GULP energy -145132.346312 kJ/mol
# GULP energy per Si atom -5582.013320 kJ/mol
# Density = 2.126003 g / cm^3
# Si number density = 21.308525 Si / 1000 Ang^3
#
#
#
# Elastic Constant Matrix: (Units=GPa)
#
#
# Indices 1 2 3 4 5 6 
#
# 1 134.6079 36.8231 46.4897 0.0000 -7.6220 0.0000
# 2 36.8231 87.0587 38.4698 0.0000 -16.8474 0.0000
# 3 46.4897 38.4698 189.5034 0.0000 -36.3007 0.0000
# 4 0.0000 0.0000 0.0000 48.9642 0.0000 -8.5721
# 5 -7.6220 -16.8474 -36.3007 0.0000 40.6745 0.0000
# 6 0.0000 0.0000 0.0000 -8.5721 0.0000 33.8331
#
#
#
# Elastic Compliance Matrix: (Units=1/GPa)
#
#
# Indices 1 2 3 4 5 6 
#
# 1 0.008842 -0.003203 -0.001756 0.000000 -0.001237 0.000000
# 2 -0.003203 0.014218 -0.001312 0.000000 0.004118 0.000000
# 3 -0.001756 -0.001312 0.007004 0.000000 0.005379 0.000000
# 4 0.000000 0.000000 0.000000 0.021371 0.000000 0.005415
# 5 -0.001237 0.004118 0.005379 0.000000 0.030860 0.000000
# 6 0.000000 0.000000 0.000000 0.005415 0.000000 0.030929
#
#
# Mechanical properties :
#
#
# Convention : Reuss Voigt Hill
#
# Bulk Modulus (GPa) = 57.06882 72.74836 64.90859
# Shear Modulus (GPa) = 37.99237 43.98687 40.98962
#
# Velocity S-wave (km/s) = 4.22710 4.54837 4.39067
# Velocity P-wave (km/s) = 7.11792 7.86118 7.49876
#
# Compressibility (1/GPa) = 0.01752270
#
# Stress axis : x y z
#
# Youngs Moduli (GPa) = 113.10176 70.33397 142.76986
#
# Poissons Ratio (x) = 0.22530 0.25066
# Poissons Ratio (y) = 0.36229 0.18725
# Poissons Ratio (z) = 0.19858 0.09225
#
# Static dielectric constant tensor:
#      x y z
#    x 1.758750 0.000000 0.064530 
#    y 0.000000 1.855420 0.000000 
#    z 0.064530 0.000000 1.730280 
# 
# From -- ./inp_files/40746.got.cif
#   From: 2010.05.17/outbox.cif.g08.bks.cpg/sg15_21_cif.got.tgz:40746.got - 2010.06.03 18:47:42.
