data_PCOD9292547
_publ_section_title
;
Structure prediction by ZEFSAII (Michael W. Deem and Ramdas Pophale) SiO2 
 PCOD9292547
Probable space group: C 2/C
;
_chemical_formula_sum "Si O2"
_cell_formula_units_Z 48
_cell_length_a 25.950437
_cell_length_b 6.768341
_cell_length_c 19.819277
_cell_angle_alpha 90.000000
_cell_angle_beta 133.890595
_cell_angle_gamma 90.000000
_cell_volume 2508.696351
_symmetry_space_group_name_H-M "C 2/C"
_symmetry_group_IT_number 15
_symmetry_cell_setting 'monoclinic'
loop_
_space_group_symop_operation_xyz
x,y,z
-x,y,1/2-z
-x,-y,-z
x,-y,1/2+z
1/2+x,1/2+y,z
1/2-x,1/2+y,1/2-z
1/2-x,1/2-y,-z
1/2+x,1/2-y,1/2+z
loop_
_atom_site_type_symbol
_atom_site_label
_atom_site_fract_x
_atom_site_fract_y
_atom_site_fract_z
Si Si1 0.230422 0.281628 0.094985
Si Si2 0.563274 0.189150 0.758249
Si Si3 0.101473 0.710064 0.581099
Si Si4 0.453742 0.895891 0.875376
Si Si5 0.790121 0.545501 0.555793
Si Si6 0.369310 0.485745 0.273281
O O1 0.159698 0.273128 0.075702
O O2 0.289677 0.403253 0.191173
O O3 0.257354 0.068151 0.091591
O O4 0.217594 0.406070 0.015764
O O5 0.500000 0.252366 0.750000
O O6 0.625949 0.074172 0.853820
O O7 0.606240 0.367716 0.763299
O O8 0.530038 0.054673 0.668283
O O9 0.102694 0.509886 0.627288
O O10 0.114384 0.894095 0.643167
O O11 0.022507 0.685561 0.477695
O O12 0.417362 0.706693 0.811331
O O13 0.750000 0.750000 0.500000
#
# Coordination Sequence:
#
# PCOD9292547 Si02
#       6
#     8   8   8   8   8   8
#     4  11  24  40  63  95 125 166 204 255 314 365
#     4  11  23  40  64  90 123 169 208 257 314 363
#     4  10  24  40  66  91 124 167 202 255 315 367
#     4  10  22  44  61  91 128 157 213 260 303 374
#     4  11  23  42  62  89 130 161 209 258 301 374
#     4  11  23  39  63  94 125 158 211 256 303 375
#
# _framework density 19.133443
#
# number of rings (size 3 to 8) (size 9 to 14) (size 15 to 20)
#    0.000    1.333    3.333    1.500    2.333    3.333 
#    0.000    0.000    0.000    0.000    0.000    0.000 
#    0.000    0.000    0.000    0.000    0.000    0.000 
#
# Total GULP energy -133888.175990 kJ/mol
# GULP energy per Si atom -5578.674000 kJ/mol
# Density = 1.908989 g / cm^3
# Si number density = 19.133443 Si / 1000 Ang^3
#
#
#
# Elastic Constant Matrix: (Units=GPa)
#
#
# Indices 1 2 3 4 5 6 
#
# 1 98.1465 11.5711 -0.0191 0.0000 9.8592 0.0000
# 2 11.5711 64.9038 2.3085 -0.0001 2.8956 -0.0001
# 3 -0.0191 2.3085 51.6762 0.0000 -0.9439 -0.0001
# 4 0.0000 -0.0001 0.0000 30.2844 0.0000 6.9818
# 5 9.8592 2.8956 -0.9439 0.0000 17.7866 0.0000
# 6 0.0000 -0.0001 -0.0001 6.9818 0.0000 1.7476
#
#
#
# Elastic Compliance Matrix: (Units=1/GPa)
#
#
# Indices 1 2 3 4 5 6 
#
# 1 0.010972 -0.001696 -0.000026 0.000000 -0.005807 -0.000002
# 2 -0.001696 0.015811 -0.000737 -0.000002 -0.001673 0.000007
# 3 -0.000026 -0.000737 0.019405 -0.000002 0.001164 0.000008
# 4 0.000000 -0.000002 -0.000002 0.418285 -0.000002 -1.671123
# 5 -0.005807 -0.001673 0.001164 -0.000002 0.059775 0.000008
# 6 -0.000002 0.000007 0.000008 -1.671123 0.000008 7.248654
#
#
# Mechanical properties :
#
#
# Convention : Reuss Voigt Hill
#
# Bulk Modulus (GPa) = 24.23149 26.93860 25.58504
# Shear Modulus (GPa) = 0.64172 23.35477 11.99824
#
# Velocity S-wave (km/s) = 0.57976 3.49754 2.50688
# Velocity P-wave (km/s) = 3.62493 5.51545 4.66692
#
# Compressibility (1/GPa) = 0.04126862
#
# Stress axis : x y z
#
# Youngs Moduli (GPa) = 91.13962 63.24843 51.53183
#
# Poissons Ratio (x) = 0.10728 0.00135
# Poissons Ratio (y) = 0.15458 0.03800
# Poissons Ratio (z) = 0.00239 0.04665
#
# Static dielectric constant tensor:
#      x y z
#    x 1.625950 0.000000 -0.024750 
#    y 0.000000 1.663060 0.000000 
#    z -0.024750 0.000000 1.686540 
# 
# From -- ./inp_files/254481.got.cif
#   From: 2010.05.17/outbox.cif.g08.bks.cpg/sg15_128_cif.got.tgz:254481.got - 2010.06.03 18:47:42.
