data_PCOD9292808
_publ_section_title
;
Structure prediction by ZEFSAII (Michael W. Deem and Ramdas Pophale) SiO2 
 PCOD9292808
Probable space group: C 2/C
;
_chemical_formula_sum "Si O2"
_cell_formula_units_Z 56
_cell_length_a 15.509846
_cell_length_b 8.172757
_cell_length_c 30.443528
_cell_angle_alpha 90.000000
_cell_angle_beta 44.352728
_cell_angle_gamma 90.000000
_cell_volume 2697.701971
_symmetry_space_group_name_H-M "C 2/C"
_symmetry_group_IT_number 15
_symmetry_cell_setting 'monoclinic'
loop_
_space_group_symop_operation_xyz
x,y,z
-x,y,1/2-z
-x,-y,-z
x,-y,1/2+z
1/2+x,1/2+y,z
1/2-x,1/2+y,1/2-z
1/2-x,1/2-y,-z
1/2+x,1/2-y,1/2+z
loop_
_atom_site_type_symbol
_atom_site_label
_atom_site_fract_x
_atom_site_fract_y
_atom_site_fract_z
Si Si1 0.049935 0.531215 0.333447
Si Si2 0.917862 0.115332 0.000199
Si Si3 0.360592 0.936791 0.289330
Si Si4 0.633730 0.795411 0.886100
Si Si5 0.685918 0.055232 0.938588
Si Si6 0.412038 0.271983 0.319499
Si Si7 0.802583 0.426916 0.467646
O O1 0.988626 0.686016 0.330567
O O2 0.932517 0.427563 0.394187
O O3 0.134230 0.450810 0.265270
O O4 0.129652 0.588522 0.345487
O O5 0.010514 0.185558 0.929685
O O6 0.878128 0.269966 0.043641
O O7 0.799146 0.025034 0.023622
O O8 0.000000 0.000000 0.000000
O O9 0.500000 0.881146 0.250000
O O10 0.253270 0.818532 0.343852
O O11 0.349270 0.114878 0.317222
O O12 0.630954 0.909299 0.930117
O O13 0.822777 0.092923 0.871581
O O14 0.679572 0.017801 0.992442
O O15 0.500000 0.344021 0.250000
O O16 0.750000 0.250000 0.500000
#
# Coordination Sequence:
#
# PCOD9292808 Si02
#       7
#     8   8   8   8   8   8   8
#     4  10  22  44  68  89 138 171 223 271 329 387
#     4  12  25  42  69  99 138 171 220 278 339 395
#     4   9  23  45  69  88 132 182 224 275 332 398
#     4  12  25  41  66 105 132 171 228 276 334 397
#     4  12  24  41  67  99 141 171 219 275 334 398
#     4   9  20  42  68  90 127 182 220 271 337 391
#     4  12  26  44  69  99 133 181 219 272 340 403
#
# _framework density 20.758407999999999
#
# number of rings (size 3 to 8) (size 9 to 14) (size 15 to 20)
#    0.000    1.429    2.857    3.429    8.000    2.857 
#    2.571    0.000    0.000    0.000    0.000    0.000 
#    0.000    0.000    0.000    0.000    0.000    0.000 
#
# Total GULP energy -156448.705549 kJ/mol
# GULP energy per Si atom -5587.453770 kJ/mol
# Density = 2.071116 g / cm^3
# Si number density = 20.758408 Si / 1000 Ang^3
#
#
#
# Elastic Constant Matrix: (Units=GPa)
#
#
# Indices 1 2 3 4 5 6 
#
# 1 59.9706 14.1429 7.9698 0.0000 16.2049 -0.0003
# 2 14.1429 58.3527 15.3829 -0.0005 -5.3984 0.0000
# 3 7.9698 15.3829 73.8614 -0.0001 10.5012 -0.0002
# 4 0.0000 -0.0005 -0.0001 36.5569 -0.0001 -4.0900
# 5 16.2049 -5.3984 10.5012 -0.0001 33.4911 -0.0001
# 6 -0.0003 0.0000 -0.0002 -4.0900 -0.0001 23.7639
#
#
#
# Elastic Compliance Matrix: (Units=1/GPa)
#
#
# Indices 1 2 3 4 5 6 
#
# 1 0.021196 -0.006379 0.000676 0.000000 -0.011496 0.000000
# 2 -0.006379 0.020664 -0.004739 0.000000 0.007903 0.000000
# 3 0.000676 -0.004739 0.015290 0.000000 -0.005885 0.000000
# 4 0.000000 0.000000 0.000000 0.027892 0.000000 0.004800
# 5 -0.011496 0.007903 -0.005885 0.000000 0.038540 0.000000
# 6 0.000000 0.000000 0.000000 0.004800 0.000000 0.042907
#
#
# Mechanical properties :
#
#
# Convention : Reuss Voigt Hill
#
# Bulk Modulus (GPa) = 27.57470 29.68619 28.63045
# Shear Modulus (GPa) = 25.06773 29.07499 27.07136
#
# Velocity S-wave (km/s) = 3.47882 3.74657 3.61517
# Velocity P-wave (km/s) = 5.42666 5.74870 5.59000
#
# Compressibility (1/GPa) = 0.03626513
#
# Stress axis : x y z
#
# Youngs Moduli (GPa) = 47.17944 48.39424 65.40405
#
# Poissons Ratio (x) = 0.30870 -0.04420
# Poissons Ratio (y) = 0.30095 0.30994
# Poissons Ratio (z) = -0.03189 0.22933
#
# Static dielectric constant tensor:
#      x y z
#    x 1.738110 0.000000 -0.008620 
#    y 0.000000 1.791170 0.000000 
#    z -0.008620 0.000000 1.803210 
# 
# From -- ./inp_files/312868.got.cif
#   From: 2010.05.17/outbox.cif.g08.bks.cpg/sg15_157_cif.got.tgz:312868.got - 2010.06.03 18:47:42.
