data_PCOD9292509
_publ_section_title
;
Structure prediction by ZEFSAII (Michael W. Deem and Ramdas Pophale) SiO2 
 PCOD9292509
Probable space group: C 2/C
;
_chemical_formula_sum "Si O2"
_cell_formula_units_Z 36
_cell_length_a 12.441344
_cell_length_b 20.681883
_cell_length_c 8.551402
_cell_angle_alpha 90.000000
_cell_angle_beta 143.565777
_cell_angle_gamma 90.000000
_cell_volume 1306.795687
_symmetry_space_group_name_H-M "C 2/C"
_symmetry_group_IT_number 15
_symmetry_cell_setting 'monoclinic'
loop_
_space_group_symop_operation_xyz
x,y,z
-x,y,1/2-z
-x,-y,-z
x,-y,1/2+z
1/2+x,1/2+y,z
1/2-x,1/2+y,1/2-z
1/2-x,1/2-y,-z
1/2+x,1/2-y,1/2+z
loop_
_atom_site_type_symbol
_atom_site_label
_atom_site_fract_x
_atom_site_fract_y
_atom_site_fract_z
Si Si1 0.719823 0.903898 0.701443
Si Si2 0.000000 0.203049 0.250000
Si Si3 0.400752 0.265699 0.970708
Si Si4 0.779559 0.525644 0.982018
Si Si5 0.695047 0.130750 0.730552
O O1 0.797134 0.832542 0.817776
O O2 0.501663 0.893791 0.447139
O O3 0.768810 0.952742 0.618565
O O4 0.779090 0.945309 0.922731
O O5 0.983694 0.243152 0.391251
O O6 0.174808 0.159241 0.484942
O O7 0.322902 0.193518 0.903938
O O8 0.500000 0.277241 0.250000
O O9 0.721132 0.573830 0.774997
O O10 0.000000 0.528768 0.250000
#
# Coordination Sequence:
#
# PCOD9292509 Si02
#       5
#     8   4   8   8   8
#     4  11  25  45  80 102 144 197 243 297 364 436
#     4  12  28  44  70 116 148 184 238 304 378 416
#     4  12  27  49  74 110 150 191 243 305 366 431
#     4  10  22  43  74 108 133 193 248 294 356 428
#     4  11  24  47  76 109 146 190 247 301 361 438
#
# _framework density 27.548300000000001
#
# number of rings (size 3 to 8) (size 9 to 14) (size 15 to 20)
#    0.000    0.889    0.000    8.000    6.222    2.667 
#    2.000    2.222    0.000    0.000    0.000    0.000 
#    0.000    0.000    0.000    0.000    0.000    0.000 
#
# Total GULP energy -100789.791243 kJ/mol
# GULP energy per Si atom -5599.432847 kJ/mol
# Density = 2.748560 g / cm^3
# Si number density = 27.548300 Si / 1000 Ang^3
#
#
#
# Elastic Constant Matrix: (Units=GPa)
#
#
# Indices 1 2 3 4 5 6 
#
# 1 70.7552 51.8822 34.4229 0.0000 -26.7577 0.0000
# 2 51.8822 228.2337 53.1577 0.0000 -7.7481 0.0000
# 3 34.4229 53.1577 166.5995 0.0000 -25.9715 0.0000
# 4 0.0000 0.0000 0.0000 25.2817 0.0000 -18.0278
# 5 -26.7577 -7.7481 -25.9715 0.0000 28.0949 0.0000
# 6 0.0000 0.0000 0.0000 -18.0278 0.0000 47.0351
#
#
#
# Elastic Compliance Matrix: (Units=1/GPa)
#
#
# Indices 1 2 3 4 5 6 
#
# 1 0.027391 -0.005365 -0.000130 0.000000 0.024487 0.000000
# 2 -0.005365 0.005784 -0.001501 0.000000 -0.004902 0.000000
# 3 -0.000130 -0.001501 0.007506 0.000000 0.006401 0.000000
# 4 0.000000 0.000000 0.000000 0.054431 0.000000 0.020863
# 5 0.024487 -0.004902 0.006401 0.000000 0.063480 0.000000
# 6 0.000000 0.000000 0.000000 0.020863 0.000000 0.029257
#
#
# Mechanical properties :
#
#
# Convention : Reuss Voigt Hill
#
# Bulk Modulus (GPa) = 37.46966 82.72377 60.09671
# Shear Modulus (GPa) = 23.72603 41.82404 32.77503
#
# Velocity S-wave (km/s) = 2.93789 3.90065 3.45299
# Velocity P-wave (km/s) = 5.01391 7.09792 6.14491
#
# Compressibility (1/GPa) = 0.02668826
#
# Stress axis : x y z
#
# Youngs Moduli (GPa) = 36.50845 172.88260 133.22299
#
# Poissons Ratio (x) = 0.92749 0.01737
# Poissons Ratio (y) = 0.19586 0.20001
# Poissons Ratio (z) = 0.00476 0.25955
#
# Static dielectric constant tensor:
#      x y z
#    x 2.353180 0.000000 0.102670 
#    y 0.000000 2.049620 0.000000 
#    z 0.102670 0.000000 2.179910 
# 
# From -- ./inp_files/41333.got.cif
#   From: 2010.05.17/outbox.cif.g08.bks.cpg/sg15_21_cif.got.tgz:41333.got - 2010.06.03 18:47:42.
