data_PCOD9292498
_publ_section_title
;
Structure prediction by ZEFSAII (Michael W. Deem and Ramdas Pophale) SiO2 
 PCOD9292498
Probable space group: C 2/C
;
_chemical_formula_sum "Si O2"
_cell_formula_units_Z 64
_cell_length_a 20.339236
_cell_length_b 13.434013
_cell_length_c 9.358691
_cell_angle_alpha 90.000000
_cell_angle_beta 95.788507
_cell_angle_gamma 90.000000
_cell_volume 2544.106912
_symmetry_space_group_name_H-M "C 2/C"
_symmetry_group_IT_number 15
_symmetry_cell_setting 'monoclinic'
loop_
_space_group_symop_operation_xyz
x,y,z
-x,y,1/2-z
-x,-y,-z
x,-y,1/2+z
1/2+x,1/2+y,z
1/2-x,1/2+y,1/2-z
1/2-x,1/2-y,-z
1/2+x,1/2-y,1/2+z
loop_
_atom_site_type_symbol
_atom_site_label
_atom_site_fract_x
_atom_site_fract_y
_atom_site_fract_z
Si Si1 0.919540 0.234876 0.030663
Si Si2 0.297078 0.804209 0.183328
Si Si3 0.959401 0.447343 0.364781
Si Si4 0.151505 0.690003 0.521991
Si Si5 0.754889 0.916983 0.578562
Si Si6 0.438872 0.368342 0.940967
Si Si7 0.868655 0.615443 0.284578
Si Si8 0.105563 0.030615 0.365246
O O1 0.003017 0.203720 0.441177
O O2 0.902874 0.298501 0.887090
O O3 0.873584 0.290035 0.141532
O O4 0.890807 0.123371 0.022939
O O5 0.291908 0.820883 0.349593
O O6 0.267756 0.695807 0.140476
O O7 0.262549 0.892799 0.089378
O O8 0.907405 0.379133 0.432821
O O9 0.923830 0.533926 0.266844
O O10 0.000000 0.391470 0.250000
O O11 0.000000 0.500000 0.500000
O O12 0.123692 0.800690 0.534578
O O13 0.163133 0.659738 0.363613
O O14 0.685897 0.942646 0.635891
O O15 0.815963 0.987638 0.629688
O O16 0.439537 0.447271 0.071443
O O17 0.423925 0.425543 0.788673
#
# Coordination Sequence:
#
# PCOD9292498 Si02
#       8
#     8   8   8   8   8   8   8   8
#     4  10  22  43  74 100 150 190 237 298 368 435
#     4   9  20  42  73 106 133 196 240 296 367 428
#     4  12  27  47  70 106 148 180 236 303 371 442
#     4  12  26  45  72 110 142 184 249 296 372 431
#     4   9  20  47  72  96 147 187 247 293 360 434
#     4  12  26  45  71 110 147 197 245 300 373 437
#     4  11  26  46  73 112 138 194 240 308 369 427
#     4  11  25  48  68 107 146 199 247 297 362 441
#
# _framework density 25.156174
#
# number of rings (size 3 to 8) (size 9 to 14) (size 15 to 20)
#    0.000    1.250    3.750    2.250    7.000    0.500 
#    4.500    0.000    0.000    0.000    0.000    0.000 
#    0.000    0.000    0.000    0.000    0.000    0.000 
#
# Total GULP energy -178904.093165 kJ/mol
# GULP energy per Si atom -5590.752911 kJ/mol
# Density = 2.509892 g / cm^3
# Si number density = 25.156174 Si / 1000 Ang^3
#
#
#
# Elastic Constant Matrix: (Units=GPa)
#
#
# Indices 1 2 3 4 5 6 
#
# 1 102.1156 6.6940 24.5719 0.0000 9.3789 0.0000
# 2 6.6940 55.9597 46.0536 0.0000 -2.7310 0.0000
# 3 24.5719 46.0536 113.2669 0.0000 11.6491 0.0000
# 4 0.0000 0.0000 0.0000 30.1296 0.0000 -4.0177
# 5 9.3789 -2.7310 11.6491 0.0000 30.8090 0.0000
# 6 0.0000 0.0000 0.0000 -4.0177 0.0000 37.3780
#
#
#
# Elastic Compliance Matrix: (Units=1/GPa)
#
#
# Indices 1 2 3 4 5 6 
#
# 1 0.010512 0.000467 -0.002232 0.000000 -0.002315 0.000000
# 2 0.000467 0.028308 -0.012334 0.000000 0.007031 0.000000
# 3 -0.002232 -0.012334 0.014952 0.000000 -0.006067 0.000000
# 4 0.000000 0.000000 0.000000 0.033673 0.000000 0.003619
# 5 -0.002315 0.007031 -0.006067 0.000000 0.036080 0.000000
# 6 0.000000 0.000000 0.000000 0.003619 0.000000 0.027143
#
#
# Mechanical properties :
#
#
# Convention : Reuss Voigt Hill
#
# Bulk Modulus (GPa) = 39.10457 47.33124 43.21791
# Shear Modulus (GPa) = 26.68218 32.59818 29.64018
#
# Velocity S-wave (km/s) = 3.26031 3.60367 3.43628
# Velocity P-wave (km/s) = 5.45448 6.01424 5.74118
#
# Compressibility (1/GPa) = 0.02557246
#
# Stress axis : x y z
#
# Youngs Moduli (GPa) = 95.12998 35.32556 66.88098
#
# Poissons Ratio (x) = -0.01648 0.14928
# Poissons Ratio (y) = -0.04438 0.82492
# Poissons Ratio (z) = 0.21234 0.43571
#
# Static dielectric constant tensor:
#      x y z
#    x 2.139760 0.000000 0.057300 
#    y 0.000000 1.978470 0.000000 
#    z 0.057300 0.000000 2.016880 
# 
# From -- ./inp_files/66241.got.cif
#   From: 2010.05.17/outbox.cif.g08.bks.cpg/sg15_34_cif.got.tgz:66241.got - 2010.06.03 18:47:42.
