data_PCOD9292229
_publ_section_title
;
Structure prediction by ZEFSAII (Michael W. Deem and Ramdas Pophale) SiO2 
 PCOD9292229
Probable space group: C 2/C
;
_chemical_formula_sum "Si O2"
_cell_formula_units_Z 44
_cell_length_a 31.812239
_cell_length_b 7.873469
_cell_length_c 23.231880
_cell_angle_alpha 90.000000
_cell_angle_beta 159.065248
_cell_angle_gamma 90.000000
_cell_volume 2079.137812
_symmetry_space_group_name_H-M "C 2/C"
_symmetry_group_IT_number 15
_symmetry_cell_setting 'monoclinic'
loop_
_space_group_symop_operation_xyz
x,y,z
-x,y,1/2-z
-x,-y,-z
x,-y,1/2+z
1/2+x,1/2+y,z
1/2-x,1/2+y,1/2-z
1/2-x,1/2-y,-z
1/2+x,1/2-y,1/2+z
loop_
_atom_site_type_symbol
_atom_site_label
_atom_site_fract_x
_atom_site_fract_y
_atom_site_fract_z
Si Si1 0.205399 0.349140 0.583053
Si Si2 0.664698 0.996196 0.250755
Si Si3 0.628927 0.799155 0.814049
Si Si4 0.500000 0.997764 0.250000
Si Si5 0.412545 0.170299 0.454761
Si Si6 0.456748 0.499650 0.377431
O O1 0.246967 0.156825 0.647297
O O2 0.156117 0.417106 0.580859
O O3 0.321993 0.441636 0.710081
O O4 0.104358 0.380387 0.407498
O O5 0.535080 0.914418 0.092665
O O6 0.681104 0.073923 0.333584
O O7 0.664298 0.140845 0.200965
O O8 0.547049 0.887061 0.757405
O O9 0.553919 0.662020 0.679197
O O10 0.750000 0.750000 0.000000
O O11 0.455425 0.353623 0.532191
O O12 0.500000 0.500000 0.500000
#
# Coordination Sequence:
#
# PCOD9292229 Si02
#       6
#     8   8   8   4   8   8
#     4  11  25  43  72 100 141 192 235 303 368 441
#     4  10  23  42  71  98 137 182 237 296 361 425
#     4  12  25  46  71 103 146 188 239 297 366 442
#     4  12  26  46  70 102 148 196 250 296 372 452
#     4  10  22  43  68 106 134 178 237 299 357 429
#     4  11  24  45  71 105 144 185 239 309 368 424
#
# _framework density 21.162618999999999
#
# number of rings (size 3 to 8) (size 9 to 14) (size 15 to 20)
#    0.000    1.091    5.455    0.000    2.545    3.636 
#    0.000    0.000    0.000    0.000    0.000    0.000 
#    0.000    0.000    0.000    0.000    0.000    0.000 
#
# Total GULP energy -122551.400018 kJ/mol
# GULP energy per Si atom -5570.518183 kJ/mol
# Density = 2.111445 g / cm^3
# Si number density = 21.162619 Si / 1000 Ang^3
#
#
#
# Elastic Constant Matrix: (Units=GPa)
#
#
# Indices 1 2 3 4 5 6 
#
# 1 119.8893 14.2820 47.6701 0.0000 3.5827 0.0000
# 2 14.2820 23.5265 21.0595 0.0000 7.7105 0.0000
# 3 47.6701 21.0595 110.6913 0.0000 -8.5166 0.0000
# 4 0.0000 0.0000 0.0000 74.4773 0.0000 -19.9543
# 5 3.5827 7.7105 -8.5166 0.0000 36.3736 0.0000
# 6 0.0000 0.0000 0.0000 -19.9543 0.0000 35.3846
#
#
#
# Elastic Compliance Matrix: (Units=1/GPa)
#
#
# Indices 1 2 3 4 5 6 
#
# 1 0.010283 -0.001998 -0.004169 0.000000 -0.001566 0.000000
# 2 -0.001998 0.058928 -0.011504 0.000000 -0.014989 0.000000
# 3 -0.004169 -0.011504 0.013480 0.000000 0.006006 0.000000
# 4 0.000000 0.000000 0.000000 0.015817 0.000000 0.008919
# 5 -0.001566 -0.014989 0.006006 0.000000 0.032230 0.000000
# 6 0.000000 0.000000 0.000000 0.008919 0.000000 0.033291
#
#
# Mechanical properties :
#
#
# Convention : Reuss Voigt Hill
#
# Bulk Modulus (GPa) = 21.11927 46.68113 33.90020
# Shear Modulus (GPa) = 23.23905 40.65347 31.94626
#
# Velocity S-wave (km/s) = 3.31738 4.38768 3.88952
# Velocity P-wave (km/s) = 4.96735 6.91196 6.01871
#
# Compressibility (1/GPa) = 0.04735012
#
# Stress axis : x y z
#
# Youngs Moduli (GPa) = 97.24336 16.96977 74.18194
#
# Poissons Ratio (x) = 0.03390 0.30927
# Poissons Ratio (y) = 0.19427 0.85341
# Poissons Ratio (z) = 0.40541 0.19522
#
# Static dielectric constant tensor:
#      x y z
#    x 1.698640 0.000000 0.042720 
#    y 0.000000 1.805260 0.000000 
#    z 0.042720 0.000000 1.754580 
# 
# From -- ./inp_files/284483.got.cif
#   From: 2010.05.17/outbox.cif.g08.bks.cpg/sg15_143_cif.got.tgz:284483.got - 2010.06.03 18:47:42.
