data_PCOD9292021
_publ_section_title
;
Structure prediction by ZEFSAII (Michael W. Deem and Ramdas Pophale) SiO2 
 PCOD9292021
Probable space group: C 2/C
;
_chemical_formula_sum "Si O2"
_cell_formula_units_Z 48
_cell_length_a 15.094398
_cell_length_b 9.690693
_cell_length_c 13.576989
_cell_angle_alpha 90.000000
_cell_angle_beta 68.743322
_cell_angle_gamma 90.000000
_cell_volume 1850.861791
_symmetry_space_group_name_H-M "C 2/C"
_symmetry_group_IT_number 15
_symmetry_cell_setting 'monoclinic'
loop_
_space_group_symop_operation_xyz
x,y,z
-x,y,1/2-z
-x,-y,-z
x,-y,1/2+z
1/2+x,1/2+y,z
1/2-x,1/2+y,1/2-z
1/2-x,1/2-y,-z
1/2+x,1/2-y,1/2+z
loop_
_atom_site_type_symbol
_atom_site_label
_atom_site_fract_x
_atom_site_fract_y
_atom_site_fract_z
Si Si1 0.096391 0.076644 0.997843
Si Si2 0.597092 0.263609 0.306924
Si Si3 0.839219 0.544104 0.559159
Si Si4 0.135454 0.939398 0.702993
Si Si5 0.710131 0.664299 0.366415
Si Si6 0.010247 0.499055 0.139798
O O1 0.091369 0.106029 0.116491
O O2 0.114064 0.202281 0.915731
O O3 0.182181 0.970199 0.939500
O O4 0.000000 0.000000 0.000000
O O5 0.593904 0.413371 0.256883
O O6 0.683181 0.183056 0.218109
O O7 0.505797 0.165348 0.345565
O O8 0.745557 0.471544 0.634774
O O9 0.813863 0.703807 0.558811
O O10 0.924750 0.543255 0.603697
O O11 0.886961 0.476004 0.445865
O O12 0.143057 0.841905 0.795338
O O13 0.000000 0.435107 0.250000
#
# Coordination Sequence:
#
# PCOD9292021 Si02
#       6
#     8   8   8   8   8   8
#     4  11  25  42  63  95 127 166 217 264 313 378
#     4  10  23  40  65  93 126 166 213 264 309 383
#     4  10  23  43  63  98 125 166 211 261 315 380
#     4  10  23  42  67  90 128 169 211 260 322 368
#     4  10  22  43  65  92 128 162 216 258 315 383
#     4  11  24  41  67  93 130 163 211 261 317 377
#
# _framework density 25.933865999999998
#
# number of rings (size 3 to 8) (size 9 to 14) (size 15 to 20)
#    0.000    1.667    1.667    1.000    7.000    4.000 
#    9.000    0.000    0.000    0.000    0.000    0.000 
#    0.000    0.000    0.000    0.000    0.000    0.000 
#
# Total GULP energy -134398.313144 kJ/mol
# GULP energy per Si atom -5599.929714 kJ/mol
# Density = 2.587484 g / cm^3
# Si number density = 25.933866 Si / 1000 Ang^3
#
#
#
# Elastic Constant Matrix: (Units=GPa)
#
#
# Indices 1 2 3 4 5 6 
#
# 1 112.2073 2.2294 27.8027 0.0000 -6.7662 0.0000
# 2 2.2294 50.2451 13.3458 0.0000 -9.1422 0.0000
# 3 27.8027 13.3458 128.2878 0.0000 13.0181 0.0000
# 4 0.0000 0.0000 0.0000 31.3268 0.0000 -5.5797
# 5 -6.7662 -9.1422 13.0181 0.0000 56.9874 0.0000
# 6 0.0000 0.0000 0.0000 -5.5797 0.0000 17.1799
#
#
#
# Elastic Compliance Matrix: (Units=1/GPa)
#
#
# Indices 1 2 3 4 5 6 
#
# 1 0.009579 0.000505 -0.002305 0.000000 0.001745 0.000000
# 2 0.000505 0.021359 -0.002749 0.000000 0.004114 0.000000
# 3 -0.002305 -0.002749 0.008858 0.000000 -0.002738 0.000000
# 4 0.000000 0.000000 0.000000 0.033882 0.000000 0.011004
# 5 0.001745 0.004114 -0.002738 0.000000 0.019040 0.000000
# 6 0.000000 0.000000 0.000000 0.011004 0.000000 0.061781
#
#
# Mechanical properties :
#
#
# Convention : Reuss Voigt Hill
#
# Bulk Modulus (GPa) = 32.57671 41.94401 37.26036
# Shear Modulus (GPa) = 28.76367 37.58965 33.17666
#
# Velocity S-wave (km/s) = 3.33395 3.81128 3.58058
# Velocity P-wave (km/s) = 5.23536 5.96460 5.61184
#
# Compressibility (1/GPa) = 0.03069677
#
# Stress axis : x y z
#
# Youngs Moduli (GPa) = 104.40043 46.81916 112.88653
#
# Poissons Ratio (x) = -0.02364 0.26025
# Poissons Ratio (y) = -0.05271 0.31031
# Poissons Ratio (z) = 0.24069 0.12870
#
# Static dielectric constant tensor:
#      x y z
#    x 2.066970 0.000000 0.079700 
#    y 0.000000 1.984030 0.000000 
#    z 0.079700 0.000000 2.040750 
# 
# From -- ./inp_files/151825.got.cif
#   From: 2010.05.17/outbox.cif.g08.bks.cpg/sg15_76_cif.got.tgz:151825.got - 2010.06.03 18:47:42.
