data_PCOD9292321
_publ_section_title
;
Structure prediction by ZEFSAII (Michael W. Deem and Ramdas Pophale) SiO2 
 PCOD9292321
Probable space group: C 2/C
;
_chemical_formula_sum "Si O2"
_cell_formula_units_Z 52
_cell_length_a 29.445233
_cell_length_b 7.217092
_cell_length_c 14.850249
_cell_angle_alpha 90.000000
_cell_angle_beta 132.855600
_cell_angle_gamma 90.000000
_cell_volume 2313.430890
_symmetry_space_group_name_H-M "C 2/C"
_symmetry_group_IT_number 15
_symmetry_cell_setting 'monoclinic'
loop_
_space_group_symop_operation_xyz
x,y,z
-x,y,1/2-z
-x,-y,-z
x,-y,1/2+z
1/2+x,1/2+y,z
1/2-x,1/2+y,1/2-z
1/2-x,1/2-y,-z
1/2+x,1/2-y,1/2+z
loop_
_atom_site_type_symbol
_atom_site_label
_atom_site_fract_x
_atom_site_fract_y
_atom_site_fract_z
Si Si1 0.567037 0.644242 0.141235
Si Si2 0.827426 0.360690 0.667231
Si Si3 0.464330 0.767980 0.878626
Si Si4 0.731933 0.361915 0.128838
Si Si5 0.809585 0.995257 0.235548
Si Si6 0.000000 0.492885 0.750000
Si Si7 0.624611 0.839036 0.389290
O O1 0.539408 0.454103 0.143797
O O2 0.620784 0.565757 0.148430
O O3 0.602607 0.755087 0.265248
O O4 0.515406 0.771553 0.025772
O O5 0.895623 0.347020 0.807360
O O6 0.774355 0.474551 0.646757
O O7 0.840561 0.468379 0.591371
O O8 0.809372 0.144541 0.650216
O O9 0.485208 0.869813 0.816788
O O10 0.770961 0.177119 0.165114
O O11 0.718839 0.395347 0.216083
O O12 0.832661 0.188390 0.005613
O O13 0.938889 0.612260 0.645998
#
# Coordination Sequence:
#
# PCOD9292321 Si02
#       7
#     8   8   8   8   8   4   8
#     4  10  22  43  69  97 132 183 222 278 340 413
#     4  10  22  44  67  99 131 179 218 274 345 403
#     4   9  22  43  69  98 136 174 229 278 341 406
#     4  12  24  44  66 101 134 175 227 286 336 409
#     4  11  24  41  67  99 133 175 231 274 347 401
#     4  10  24  42  62 102 132 180 228 284 344 394
#     4  11  25  42  67  95 137 179 224 283 342 404
#
# _framework density 22.477440000000001
#
# number of rings (size 3 to 8) (size 9 to 14) (size 15 to 20)
#    0.000    1.538    3.077    0.462    0.000   11.077 
#    5.538    0.000    0.000    0.000    0.000    0.000 
#    0.000    0.000    0.000    0.000    0.000    0.000 
#
# Total GULP energy -145244.167883 kJ/mol
# GULP energy per Si atom -5586.314149 kJ/mol
# Density = 2.242628 g / cm^3
# Si number density = 22.477440 Si / 1000 Ang^3
#
#
#
# Elastic Constant Matrix: (Units=GPa)
#
#
# Indices 1 2 3 4 5 6 
#
# 1 108.3181 27.0212 22.8911 0.0000 24.0495 0.0000
# 2 27.0212 87.9050 36.9629 0.0000 17.2424 0.0000
# 3 22.8911 36.9629 79.2273 0.0000 23.4420 0.0000
# 4 0.0000 0.0000 0.0000 35.4618 0.0000 12.0841
# 5 24.0495 17.2424 23.4420 0.0000 25.9783 0.0000
# 6 0.0000 0.0000 0.0000 12.0841 0.0000 41.1538
#
#
#
# Elastic Compliance Matrix: (Units=1/GPa)
#
#
# Indices 1 2 3 4 5 6 
#
# 1 0.011850 -0.001835 0.000434 0.000000 -0.010144 0.000000
# 2 -0.001835 0.014867 -0.005442 0.000000 -0.003258 0.000000
# 3 0.000434 -0.005442 0.019216 0.000000 -0.014130 0.000000
# 4 0.000000 0.000000 0.000000 0.031335 0.000000 -0.009201
# 5 -0.010144 -0.003258 -0.014130 0.000000 0.062797 0.000000
# 6 0.000000 0.000000 0.000000 -0.009201 0.000000 0.027001
#
#
# Mechanical properties :
#
#
# Convention : Reuss Voigt Hill
#
# Bulk Modulus (GPa) = 31.01089 49.91121 40.46105
# Shear Modulus (GPa) = 26.10929 33.09047 29.59988
#
# Velocity S-wave (km/s) = 3.41189 3.84104 3.63281
# Velocity P-wave (km/s) = 5.41735 6.47493 5.96961
#
# Compressibility (1/GPa) = 0.03224674
#
# Stress axis : x y z
#
# Youngs Moduli (GPa) = 84.38505 67.26100 52.03925
#
# Poissons Ratio (x) = 0.12345 -0.02257
# Poissons Ratio (y) = 0.15488 0.28320
# Poissons Ratio (z) = -0.03660 0.36604
#
# Static dielectric constant tensor:
#      x y z
#    x 1.969430 0.000000 0.077480 
#    y 0.000000 1.847390 0.000000 
#    z 0.077480 0.000000 1.852870 
# 
# From -- ./inp_files/176267.got.cif
#   From: 2010.05.17/outbox.cif.g08.bks.cpg/sg15_89_cif.got.tgz:176267.got - 2010.06.03 18:47:42.
