data_PCOD9292618
_publ_section_title
;
Structure prediction by ZEFSAII (Michael W. Deem and Ramdas Pophale) SiO2 
 PCOD9292618
Probable space group: C 2/C
;
_chemical_formula_sum "Si O2"
_cell_formula_units_Z 56
_cell_length_a 11.712921
_cell_length_b 8.002062
_cell_length_c 23.667216
_cell_angle_alpha 90.000000
_cell_angle_beta 104.007630
_cell_angle_gamma 90.000000
_cell_volume 2152.305895
_symmetry_space_group_name_H-M "C 2/C"
_symmetry_group_IT_number 15
_symmetry_cell_setting 'monoclinic'
loop_
_space_group_symop_operation_xyz
x,y,z
-x,y,1/2-z
-x,-y,-z
x,-y,1/2+z
1/2+x,1/2+y,z
1/2-x,1/2+y,1/2-z
1/2-x,1/2-y,-z
1/2+x,1/2-y,1/2+z
loop_
_atom_site_type_symbol
_atom_site_label
_atom_site_fract_x
_atom_site_fract_y
_atom_site_fract_z
Si Si1 0.303723 0.101478 0.542673
Si Si2 0.023902 0.711110 0.520567
Si Si3 0.580502 0.457871 0.077424
Si Si4 0.047359 0.607908 0.828618
Si Si5 0.888884 0.253671 0.714558
Si Si6 0.815391 0.585703 0.872664
Si Si7 0.231407 0.236139 0.681634
O O1 0.250000 0.250000 0.500000
O O2 0.426076 0.070807 0.525266
O O3 0.187973 0.000445 0.546273
O O4 0.358429 0.135209 0.610219
O O5 0.145977 0.643900 0.560849
O O6 0.992674 0.799766 0.457062
O O7 0.004464 0.874664 0.561325
O O8 0.646422 0.410478 0.144129
O O9 0.057690 0.417471 0.808654
O O10 0.127866 0.705209 0.792690
O O11 0.920227 0.633708 0.841016
O O12 0.805315 0.168688 0.659874
O O13 0.814039 0.286588 0.761826
O O14 0.000000 0.148598 0.750000
O O15 0.795681 0.389740 0.863235
#
# Coordination Sequence:
#
# PCOD9292618 Si02
#       7
#     8   8   8   8   8   8   8
#     4   8  15  31  59  92 118 152 200 248 306 373
#     4   9  18  35  65  89 126 167 202 256 321 381
#     4   9  18  36  59  95 126 163 207 254 317 380
#     4  10  22  44  65  90 128 169 207 264 321 378
#     4  12  25  45  63  87 130 174 215 264 321 377
#     4  11  23  42  64  95 124 166 215 263 321 377
#     4  11  23  40  65  93 126 166 215 264 312 378
#
# _framework density 26.018604
#
# number of rings (size 3 to 8) (size 9 to 14) (size 15 to 20)
#    0.000    2.000    1.429    2.571    0.000    0.571 
#   12.857    0.000    0.000    0.857    0.000    0.000 
#    0.000    0.000    0.000    0.000    0.000    0.000 
#
# Total GULP energy -155998.200596 kJ/mol
# GULP energy per Si atom -5571.364307 kJ/mol
# Density = 2.595938 g / cm^3
# Si number density = 26.018604 Si / 1000 Ang^3
#
#
#
# Elastic Constant Matrix: (Units=GPa)
#
#
# Indices 1 2 3 4 5 6 
#
# 1 126.0966 6.6010 6.4254 0.0000 22.5892 0.0000
# 2 6.6010 31.7963 29.4295 0.0000 4.6450 0.0000
# 3 6.4254 29.4295 88.8842 0.0000 23.7392 0.0000
# 4 0.0000 0.0000 0.0000 11.8995 0.0000 -15.6918
# 5 22.5892 4.6450 23.7392 0.0000 47.5709 0.0000
# 6 0.0000 0.0000 0.0000 -15.6918 0.0000 22.8527
#
#
#
# Elastic Compliance Matrix: (Units=1/GPa)
#
#
# Indices 1 2 3 4 5 6 
#
# 1 0.008822 -0.002469 0.001424 0.000000 -0.004658 0.000000
# 2 -0.002469 0.046559 -0.016541 0.000000 0.004880 0.000000
# 3 0.001424 -0.016541 0.018891 0.000000 -0.008488 0.000000
# 4 0.000000 0.000000 0.000000 0.889097 0.000000 0.610498
# 5 -0.004658 0.004880 -0.008488 0.000000 0.026993 0.000000
# 6 0.000000 0.000000 0.000000 0.610498 0.000000 0.462956
#
#
# Mechanical properties :
#
#
# Convention : Reuss Voigt Hill
#
# Bulk Modulus (GPa) = 25.57473 36.85432 31.21453
# Shear Modulus (GPa) = 3.32995 30.08601 16.70798
#
# Velocity S-wave (km/s) = 1.13253 3.40417 2.53683
# Velocity P-wave (km/s) = 3.40013 5.44486 4.53913
#
# Compressibility (1/GPa) = 0.03910110
#
# Stress axis : x y z
#
# Youngs Moduli (GPa) = 113.35768 21.47797 52.93422
#
# Poissons Ratio (x) = 0.05302 -0.07537
# Poissons Ratio (y) = 0.27985 0.87557
# Poissons Ratio (z) = -0.16141 0.35526
#
# Static dielectric constant tensor:
#      x y z
#    x 2.239630 0.000000 -0.087420 
#    y 0.000000 2.138710 0.000000 
#    z -0.087420 0.000000 2.068400 
# 
# From -- ./inp_files/291642.got.cif
#   From: 2010.05.17/outbox.cif.g08.bks.cpg/sg15_146_cif.got.tgz:291642.got - 2010.06.03 18:47:42.
