data_PCOD9292629
_publ_section_title
;
Structure prediction by ZEFSAII (Michael W. Deem and Ramdas Pophale) SiO2 
 PCOD9292629
Probable space group: C 2/C
;
_chemical_formula_sum "Si O2"
_cell_formula_units_Z 52
_cell_length_a 8.515125
_cell_length_b 12.291453
_cell_length_c 25.079307
_cell_angle_alpha 90.000000
_cell_angle_beta 102.200586
_cell_angle_gamma 90.000000
_cell_volume 2565.595711
_symmetry_space_group_name_H-M "C 2/C"
_symmetry_group_IT_number 15
_symmetry_cell_setting 'monoclinic'
loop_
_space_group_symop_operation_xyz
x,y,z
-x,y,1/2-z
-x,-y,-z
x,-y,1/2+z
1/2+x,1/2+y,z
1/2-x,1/2+y,1/2-z
1/2-x,1/2-y,-z
1/2+x,1/2-y,1/2+z
loop_
_atom_site_type_symbol
_atom_site_label
_atom_site_fract_x
_atom_site_fract_y
_atom_site_fract_z
Si Si1 0.136813 0.258297 0.439967
Si Si2 0.500000 0.319092 0.250000
Si Si3 0.041635 0.007194 0.661368
Si Si4 0.061141 0.506746 0.444015
Si Si5 0.598019 0.562201 0.052617
Si Si6 0.323218 0.307615 0.758958
Si Si7 0.779370 0.387428 0.861964
O O1 0.250000 0.250000 0.500000
O O2 0.086085 0.381901 0.429067
O O3 0.230566 0.213790 0.395413
O O4 0.990488 0.174083 0.438759
O O5 0.454589 0.392544 0.298138
O O6 0.327396 0.259011 0.226510
O O7 0.112299 0.010895 0.607266
O O8 0.120714 0.904074 0.697674
O O9 0.855668 0.978601 0.638288
O O10 0.224414 0.574583 0.456263
O O11 0.000000 0.500000 0.500000
O O12 0.943906 0.565575 0.394797
O O13 0.500000 0.500000 0.000000
O O14 0.500000 0.260391 0.750000
O O15 0.237547 0.356415 0.700469
#
# Coordination Sequence:
#
# PCOD9292629 Si02
#       7
#     8   4   8   8   8   8   8
#     4  11  22  43  65  94 136 177 219 277 341 395
#     4  12  24  44  78  98 134 196 226 272 358 404
#     4  10  23  49  65  99 145 170 229 294 325 411
#     4  12  24  42  66  99 133 181 227 274 346 408
#     4  11  24  43  70  99 137 178 221 283 342 402
#     4  10  24  47  67 102 139 175 234 287 336 409
#     4  10  22  44  65  94 140 169 224 291 325 406
#
# _framework density 20.268198999999999
#
# number of rings (size 3 to 8) (size 9 to 14) (size 15 to 20)
#    0.000    1.231    5.385    0.923    4.308    4.308 
#    1.385    0.000    0.000    0.000    0.000    0.000 
#    0.000    0.000    0.000    0.000    0.000    0.000 
#
# Total GULP energy -145055.541039 kJ/mol
# GULP energy per Si atom -5579.059271 kJ/mol
# Density = 2.022207 g / cm^3
# Si number density = 20.268199 Si / 1000 Ang^3
#
#
#
# Elastic Constant Matrix: (Units=GPa)
#
#
# Indices 1 2 3 4 5 6 
#
# 1 121.7966 47.4763 38.0538 0.0000 20.6341 0.0000
# 2 47.4763 83.7289 9.9170 0.0000 8.4822 0.0000
# 3 38.0538 9.9170 123.2868 0.0000 4.7608 0.0000
# 4 0.0000 0.0000 0.0000 22.1397 0.0000 4.8933
# 5 20.6341 8.4822 4.7608 0.0000 41.6149 0.0000
# 6 0.0000 0.0000 0.0000 4.8933 0.0000 24.7738
#
#
#
# Elastic Compliance Matrix: (Units=1/GPa)
#
#
# Indices 1 2 3 4 5 6 
#
# 1 0.012368 -0.006183 -0.003146 0.000000 -0.004512 0.000000
# 2 -0.006183 0.015384 0.000677 0.000000 -0.000147 0.000000
# 3 -0.003146 0.000677 0.009013 0.000000 0.000391 0.000000
# 4 0.000000 0.000000 0.000000 0.047229 0.000000 -0.009329
# 5 -0.004512 -0.000147 0.000391 0.000000 0.026253 0.000000
# 6 0.000000 0.000000 0.000000 -0.009329 0.000000 0.042208
#
#
# Mechanical properties :
#
#
# Convention : Reuss Voigt Hill
#
# Bulk Modulus (GPa) = 51.38756 57.74517 54.56637
# Shear Modulus (GPa) = 28.36946 33.26337 30.81642
#
# Velocity S-wave (km/s) = 3.74532 4.05552 3.90350
# Velocity P-wave (km/s) = 6.64169 7.10507 6.87728
#
# Compressibility (1/GPa) = 0.01945996
#
# Stress axis : x y z
#
# Youngs Moduli (GPa) = 80.85413 65.00222 110.95509
#
# Poissons Ratio (x) = 0.40192 0.34905
# Poissons Ratio (y) = 0.49994 -0.07509
# Poissons Ratio (z) = 0.25436 -0.04399
#
# Static dielectric constant tensor:
#      x y z
#    x 1.750270 0.000000 -0.087680 
#    y 0.000000 1.746750 0.000000 
#    z -0.087680 0.000000 1.728700 
# 
# From -- ./inp_files/287751.got.cif
#   From: 2010.05.17/outbox.cif.g08.bks.cpg/sg15_144_cif.got.tgz:287751.got - 2010.06.03 18:47:42.
