data_PCOD9292200
_publ_section_title
;
Structure prediction by ZEFSAII (Michael W. Deem and Ramdas Pophale) SiO2 
 PCOD9292200
Probable space group: C 2/C
;
_chemical_formula_sum "Si O2"
_cell_formula_units_Z 40
_cell_length_a 13.369177
_cell_length_b 24.819822
_cell_length_c 5.597165
_cell_angle_alpha 90.000000
_cell_angle_beta 85.809269
_cell_angle_gamma 90.000000
_cell_volume 1852.288893
_symmetry_space_group_name_H-M "C 2/C"
_symmetry_group_IT_number 15
_symmetry_cell_setting 'monoclinic'
loop_
_space_group_symop_operation_xyz
x,y,z
-x,y,1/2-z
-x,-y,-z
x,-y,1/2+z
1/2+x,1/2+y,z
1/2-x,1/2+y,1/2-z
1/2-x,1/2-y,-z
1/2+x,1/2-y,1/2+z
loop_
_atom_site_type_symbol
_atom_site_label
_atom_site_fract_x
_atom_site_fract_y
_atom_site_fract_z
Si Si1 0.747732 0.294880 0.795159
Si Si2 0.961178 0.438333 0.005567
Si Si3 0.619172 0.529637 0.756995
Si Si4 0.763184 0.383889 0.124756
Si Si5 0.111402 0.290565 0.121967
O O1 0.858326 0.300607 0.659017
O O2 0.662590 0.268566 0.644844
O O3 0.750000 0.250000 0.000000
O O4 0.720342 0.352364 0.905226
O O5 0.843186 0.429360 0.035893
O O6 0.000000 0.414731 0.250000
O O7 0.000000 0.413938 0.750000
O O8 0.000000 0.500000 0.000000
O O9 0.500000 0.536300 0.750000
O O10 0.646212 0.503810 0.492250
O O11 0.675620 0.586238 0.776173
O O12 0.824039 0.337688 0.257869
O O13 0.000000 0.290253 0.250000
#
# Coordination Sequence:
#
# PCOD9292200 Si02
#       5
#     8   8   8   8   8
#     4   9  22  43  62  97 128 177 220 276 347 404
#     4  10  24  39  58  97 135 178 218 263 332 395
#     4  10  25  47  68  95 134 181 230 285 336 392
#     4  11  24  38  69  94 135 174 229 272 339 409
#     4  10  22  43  67  97 137 172 221 283 349 413
#
# _framework density 21.594905000000001
#
# number of rings (size 3 to 8) (size 9 to 14) (size 15 to 20)
#    0.000    2.000    0.000    0.600   14.000    2.400 
#   10.800    0.000    0.000    0.000    0.000    0.000 
#    0.000    0.000    0.000    0.000    0.000    0.000 
#
# Total GULP energy -111367.758043 kJ/mol
# GULP energy per Si atom -5568.387902 kJ/mol
# Density = 2.154575 g / cm^3
# Si number density = 21.594905 Si / 1000 Ang^3
#
#
#
# Elastic Constant Matrix: (Units=GPa)
#
#
# Indices 1 2 3 4 5 6 
#
# 1 81.4953 53.2538 35.2362 0.0000 -11.9640 0.0000
# 2 53.2538 104.0713 19.1258 0.0000 -6.0747 0.0000
# 3 35.2362 19.1258 130.6685 0.0000 -14.6882 0.0000
# 4 0.0000 0.0000 0.0000 4.9933 0.0000 7.5641
# 5 -11.9640 -6.0747 -14.6882 0.0000 21.0380 0.0000
# 6 0.0000 0.0000 0.0000 7.5641 0.0000 22.4271
#
#
#
# Elastic Compliance Matrix: (Units=1/GPa)
#
#
# Indices 1 2 3 4 5 6 
#
# 1 0.021190 -0.009802 -0.003519 0.000000 0.006763 0.000000
# 2 -0.009802 0.014486 0.000398 0.000000 -0.001114 0.000000
# 3 -0.003519 0.000398 0.009041 0.000000 0.004426 0.000000
# 4 0.000000 0.000000 0.000000 0.409483 0.000000 -0.138109
# 5 0.006763 -0.001114 0.004426 0.000000 0.054148 0.000000
# 6 0.000000 0.000000 0.000000 -0.138109 0.000000 0.091170
#
#
# Mechanical properties :
#
#
# Convention : Reuss Voigt Hill
#
# Bulk Modulus (GPa) = 52.99092 59.05187 56.02139
# Shear Modulus (GPa) = 7.91572 23.59964 15.75768
#
# Velocity S-wave (km/s) = 1.91664 3.30939 2.70422
# Velocity P-wave (km/s) = 5.43046 6.48131 5.97902
#
# Compressibility (1/GPa) = 0.01887116
#
# Stress axis : x y z
#
# Youngs Moduli (GPa) = 47.19190 69.03108 110.60403
#
# Poissons Ratio (x) = 0.67661 0.38924
# Poissons Ratio (y) = 0.46255 -0.04398
# Poissons Ratio (z) = 0.16608 -0.02745
#
# Static dielectric constant tensor:
#      x y z
#    x 1.790800 0.000000 0.043790 
#    y 0.000000 2.686800 0.000000 
#    z 0.043790 0.000000 2.000530 
# 
# From -- ./inp_files/4927.got.cif
#   From: 2010.05.17/outbox.cif.g08.bks.cpg/sg15_3_cif.got.tgz:4927.got - 2010.06.03 18:47:42.
