data_PCOD9292672
_publ_section_title
;
Structure prediction by ZEFSAII (Michael W. Deem and Ramdas Pophale) SiO2 
 PCOD9292672
Probable space group: C 2/C
;
_chemical_formula_sum "Si O2"
_cell_formula_units_Z 44
_cell_length_a 25.407297
_cell_length_b 11.844410
_cell_length_c 24.533043
_cell_angle_alpha 90.000000
_cell_angle_beta 162.365750
_cell_angle_gamma 90.000000
_cell_volume 2236.554101
_symmetry_space_group_name_H-M "C 2/C"
_symmetry_group_IT_number 15
_symmetry_cell_setting 'monoclinic'
loop_
_space_group_symop_operation_xyz
x,y,z
-x,y,1/2-z
-x,-y,-z
x,-y,1/2+z
1/2+x,1/2+y,z
1/2-x,1/2+y,1/2-z
1/2-x,1/2-y,-z
1/2+x,1/2-y,1/2+z
loop_
_atom_site_type_symbol
_atom_site_label
_atom_site_fract_x
_atom_site_fract_y
_atom_site_fract_z
Si Si1 0.832083 0.357157 0.049760
Si Si2 0.169562 0.032577 0.738393
Si Si3 0.500000 0.779888 0.750000
Si Si4 0.238359 0.902318 0.426121
Si Si5 0.452198 0.846110 0.045146
Si Si6 0.164297 0.110558 0.612002
O O1 0.897934 0.325687 0.054281
O O2 0.000000 0.390894 0.250000
O O3 0.750000 0.250000 0.000000
O O4 0.714533 0.469093 0.924416
O O5 0.202306 0.099333 0.826459
O O6 0.195070 0.096318 0.706790
O O7 0.973445 0.983459 0.543580
O O8 0.312331 0.932841 0.882522
O O9 0.428789 0.861675 0.632292
O O10 0.373194 0.691894 0.654129
O O11 0.649157 0.889801 0.233656
O O12 0.430523 0.728382 0.993152
#
# Coordination Sequence:
#
# PCOD9292672 Si02
#       6
#     8   8   4   8   8   8
#     4  11  24  39  64  98 131 169 219 274 341 402
#     4  10  24  42  63  96 126 171 223 270 330 401
#     4  10  22  44  66  88 128 176 212 274 324 398
#     4  10  23  44  64  94 130 168 224 269 331 399
#     4  11  22  41  64  91 135 168 214 276 337 395
#     4  11  22  41  65  92 129 171 214 270 332 395
#
# _framework density 19.673120999999998
#
# number of rings (size 3 to 8) (size 9 to 14) (size 15 to 20)
#    0.000    1.455    2.727    1.636    3.818    2.909 
#    3.273    0.000    0.000    0.000    0.000    0.000 
#    0.000    0.000    0.000    0.000    0.000    0.000 
#
# Total GULP energy -122733.461753 kJ/mol
# GULP energy per Si atom -5578.793716 kJ/mol
# Density = 1.962834 g / cm^3
# Si number density = 19.673121 Si / 1000 Ang^3
#
#
#
# Elastic Constant Matrix: (Units=GPa)
#
#
# Indices 1 2 3 4 5 6 
#
# 1 133.5301 66.0929 55.4091 0.0002 -20.7567 0.0003
# 2 66.0929 85.1545 22.9945 0.0002 -1.0616 -0.0004
# 3 55.4091 22.9945 86.2376 0.0001 -3.2146 -0.0002
# 4 0.0002 0.0002 0.0001 20.6148 0.0007 -9.5344
# 5 -20.7567 -1.0616 -3.2146 0.0007 42.0592 -0.0005
# 6 0.0003 -0.0004 -0.0002 -9.5344 -0.0005 27.7106
#
#
#
# Elastic Compliance Matrix: (Units=1/GPa)
#
#
# Indices 1 2 3 4 5 6 
#
# 1 0.017734 -0.011496 -0.008036 -0.000001 0.007847 0.000000
# 2 -0.011496 0.020107 0.001838 0.000000 -0.005026 0.000000
# 3 -0.008036 0.001838 0.016169 0.000000 -0.002684 0.000000
# 4 -0.000001 0.000000 0.000000 0.057689 -0.000001 0.019849
# 5 0.007847 -0.005026 -0.002684 -0.000001 0.027317 0.000000
# 6 0.000000 0.000000 0.000000 0.019849 0.000000 0.042917
#
#
# Mechanical properties :
#
#
# Convention : Reuss Voigt Hill
#
# Bulk Modulus (GPa) = 53.70365 65.99057 59.84711
# Shear Modulus (GPa) = 22.36839 28.77196 25.57018
#
# Velocity S-wave (km/s) = 3.37561 3.82842 3.60912
# Velocity P-wave (km/s) = 6.52305 7.29100 6.91769
#
# Compressibility (1/GPa) = 0.01862071
#
# Stress axis : x y z
#
# Youngs Moduli (GPa) = 56.38957 49.73327 61.84552
#
# Poissons Ratio (x) = 0.57174 0.49701
# Poissons Ratio (y) = 0.64827 -0.11366
# Poissons Ratio (z) = 0.45317 -0.09140
#
# Static dielectric constant tensor:
#      x y z
#    x 1.670690 0.000000 0.002980 
#    y 0.000000 1.687720 0.000000 
#    z 0.002980 0.000000 1.781820 
# 
# From -- ./inp_files/281922.got.cif
#   From: 2010.05.17/outbox.cif.g08.bks.cpg/sg15_141_cif.got.tgz:281922.got - 2010.06.03 18:47:42.
