data_PCOD9292018
_publ_section_title
;
Structure prediction by ZEFSAII (Michael W. Deem and Ramdas Pophale) SiO2 
 PCOD9292018
Probable space group: C 2/C
;
_chemical_formula_sum "Si O2"
_cell_formula_units_Z 52
_cell_length_a 18.037122
_cell_length_b 20.446574
_cell_length_c 9.125865
_cell_angle_alpha 90.000000
_cell_angle_beta 129.715994
_cell_angle_gamma 90.000000
_cell_volume 2588.886939
_symmetry_space_group_name_H-M "C 2/C"
_symmetry_group_IT_number 15
_symmetry_cell_setting 'monoclinic'
loop_
_space_group_symop_operation_xyz
x,y,z
-x,y,1/2-z
-x,-y,-z
x,-y,1/2+z
1/2+x,1/2+y,z
1/2-x,1/2+y,1/2-z
1/2-x,1/2-y,-z
1/2+x,1/2-y,1/2+z
loop_
_atom_site_type_symbol
_atom_site_label
_atom_site_fract_x
_atom_site_fract_y
_atom_site_fract_z
Si Si1 0.583372 0.453925 0.041765
Si Si2 0.508398 0.310656 0.597735
Si Si3 0.104192 0.429995 0.664153
Si Si4 0.000000 0.470337 0.250000
Si Si5 0.836691 0.196624 0.434719
Si Si6 0.615906 0.212649 0.249571
Si Si7 0.676813 0.557608 0.957766
O O1 0.666579 0.446071 0.269990
O O2 0.500000 0.500000 0.000000
O O3 0.536311 0.383494 0.955444
O O4 0.624404 0.493923 0.956447
O O5 0.500000 0.283961 0.750000
O O6 0.615524 0.307953 0.664324
O O7 0.444006 0.265870 0.413038
O O8 0.056788 0.484970 0.706081
O O9 0.073130 0.359373 0.685586
O O10 0.072831 0.433343 0.453507
O O11 0.217527 0.439441 0.838209
O O12 0.721829 0.204691 0.308373
O O13 0.874661 0.258391 0.575559
O O14 0.867581 0.127777 0.550036
#
# Coordination Sequence:
#
# PCOD9292018 Si02
#       7
#     8   8   8   4   8   8   8
#     4  12  23  37  62  93 130 174 212 260 319 388
#     4  12  25  40  62  97 132 169 216 269 328 384
#     4  10  23  42  68  93 126 164 213 268 327 377
#     4  10  22  44  64  98 122 158 218 272 314 390
#     4  10  22  43  65  91 126 169 224 262 314 398
#     4  10  23  42  67  93 123 175 216 265 323 385
#     4  11  22  40  62  92 130 170 212 265 320 384
#
# _framework density 20.085851000000002
#
# number of rings (size 3 to 8) (size 9 to 14) (size 15 to 20)
#    0.000    1.231    3.077    2.769    3.231    0.615 
#    0.000    0.000    0.000    0.000    0.000    0.000 
#    0.000    0.000    0.000    0.000    0.000    0.000 
#
# Total GULP energy -145081.833698 kJ/mol
# GULP energy per Si atom -5580.070527 kJ/mol
# Density = 2.004013 g / cm^3
# Si number density = 20.085851 Si / 1000 Ang^3
#
#
#
# Elastic Constant Matrix: (Units=GPa)
#
#
# Indices 1 2 3 4 5 6 
#
# 1 74.3980 13.5045 16.7433 0.0000 -14.8163 0.0000
# 2 13.5045 73.1893 -1.7360 0.0000 11.0585 0.0000
# 3 16.7433 -1.7360 94.5367 0.0000 -5.2475 0.0000
# 4 0.0000 0.0000 0.0000 22.9684 0.0000 -4.1627
# 5 -14.8163 11.0585 -5.2475 0.0000 25.5547 0.0000
# 6 0.0000 0.0000 0.0000 -4.1627 0.0000 18.0369
#
#
#
# Elastic Compliance Matrix: (Units=1/GPa)
#
#
# Indices 1 2 3 4 5 6 
#
# 1 0.017228 -0.004996 -0.002497 0.000000 0.011638 0.000000
# 2 -0.004996 0.016069 0.000641 0.000000 -0.009719 0.000000
# 3 -0.002497 0.000641 0.011062 0.000000 0.000547 0.000000
# 4 0.000000 0.000000 0.000000 0.045439 0.000000 0.010487
# 5 0.011638 -0.009719 0.000547 0.000000 0.050197 0.000000
# 6 0.000000 0.000000 0.000000 0.010487 0.000000 0.057862
#
#
# Mechanical properties :
#
#
# Convention : Reuss Voigt Hill
#
# Bulk Modulus (GPa) = 32.62314 33.23861 32.93088
# Shear Modulus (GPa) = 22.54486 27.55281 25.04884
#
# Velocity S-wave (km/s) = 3.35390 3.70774 3.53525
# Velocity P-wave (km/s) = 5.59243 5.90880 5.75279
#
# Compressibility (1/GPa) = 0.03065309
#
# Stress axis : x y z
#
# Youngs Moduli (GPa) = 58.04582 62.23250 90.39754
#
# Poissons Ratio (x) = 0.31094 0.22572
# Poissons Ratio (y) = 0.29002 -0.05790
# Poissons Ratio (z) = 0.14494 -0.03986
#
# Static dielectric constant tensor:
#      x y z
#    x 1.724200 0.000000 0.032100 
#    y 0.000000 1.726690 0.000000 
#    z 0.032100 0.000000 1.732730 
# 
# From -- ./inp_files/48954.got.cif
#   From: 2010.05.17/outbox.cif.g08.bks.cpg/sg15_25_cif.got.tgz:48954.got - 2010.06.03 18:47:42.
