data_PCOD9292063
_publ_section_title
;
Structure prediction by ZEFSAII (Michael W. Deem and Ramdas Pophale) SiO2 
 PCOD9292063
Probable space group: C 2/C
;
_chemical_formula_sum "Si O2"
_cell_formula_units_Z 56
_cell_length_a 11.222828
_cell_length_b 25.690533
_cell_length_c 9.688378
_cell_angle_alpha 90.000000
_cell_angle_beta 107.865826
_cell_angle_gamma 90.000000
_cell_volume 2658.654826
_symmetry_space_group_name_H-M "C 2/C"
_symmetry_group_IT_number 15
_symmetry_cell_setting 'monoclinic'
loop_
_space_group_symop_operation_xyz
x,y,z
-x,y,1/2-z
-x,-y,-z
x,-y,1/2+z
1/2+x,1/2+y,z
1/2-x,1/2+y,1/2-z
1/2-x,1/2-y,-z
1/2+x,1/2-y,1/2+z
loop_
_atom_site_type_symbol
_atom_site_label
_atom_site_fract_x
_atom_site_fract_y
_atom_site_fract_z
Si Si1 0.000000 0.152791 0.750000
Si Si2 0.676650 0.437947 0.402910
Si Si3 0.727744 0.692891 0.657609
Si Si4 0.466560 0.051660 0.400021
Si Si5 0.651385 0.305645 0.814019
Si Si6 0.782047 0.911813 0.790013
Si Si7 0.605255 0.901167 0.178689
Si Si8 0.500000 0.526213 0.250000
O O1 0.912716 0.112658 0.634318
O O2 0.901554 0.185431 0.804291
O O3 0.752141 0.430538 0.569468
O O4 0.772595 0.436916 0.307971
O O5 0.591166 0.488360 0.366718
O O6 0.693296 0.681676 0.485973
O O7 0.786052 0.750027 0.694409
O O8 0.831833 0.652180 0.748725
O O9 0.500000 0.047359 0.250000
O O10 0.319229 0.064299 0.349750
O O11 0.532746 0.098714 0.507240
O O12 0.500000 0.000000 0.500000
O O13 0.500000 0.303331 0.750000
O O14 0.703868 0.350707 0.732925
O O15 0.916574 0.937112 0.813535
O O16 0.500000 0.918536 0.250000
#
# Coordination Sequence:
#
# PCOD9292063 Si02
#       8
#     4   8   8   8   8   8   8   4
#     4   9  20  40  70  96 138 182 226 279 348 418
#     4  10  22  43  66 100 137 177 232 287 339 424
#     4  10  23  44  70 100 139 187 230 287 359 422
#     4  12  26  45  68 100 144 185 236 291 350 425
#     4  11  23  43  68 103 137 177 236 296 346 421
#     4  12  24  42  67  99 136 176 231 291 346 410
#     4  11  22  45  71  99 136 189 234 284 356 422
#     4  11  24  42  68  94 134 184 226 279 360 412
#
# _framework density 21.063282999999998
#
# number of rings (size 3 to 8) (size 9 to 14) (size 15 to 20)
#    0.000    1.143    2.143    3.857    0.000    1.143 
#    6.429    7.857    0.000    0.000    0.000    0.000 
#    0.000    0.000    0.000    0.000    0.000    0.000 
#
# Total GULP energy -156361.257039 kJ/mol
# GULP energy per Si atom -5584.330609 kJ/mol
# Density = 2.101534 g / cm^3
# Si number density = 21.063283 Si / 1000 Ang^3
#
#
#
# Elastic Constant Matrix: (Units=GPa)
#
#
# Indices 1 2 3 4 5 6 
#
# 1 127.4400 32.0120 39.4348 0.0000 3.3966 0.0000
# 2 32.0120 84.2245 46.7487 0.0000 11.8159 0.0000
# 3 39.4348 46.7487 117.6680 0.0000 10.8846 0.0000
# 4 0.0000 0.0000 0.0000 19.0842 0.0000 17.1211
# 5 3.3966 11.8159 10.8846 0.0000 38.5014 0.0000
# 6 0.0000 0.0000 0.0000 17.1211 0.0000 19.5957
#
#
#
# Elastic Compliance Matrix: (Units=1/GPa)
#
#
# Indices 1 2 3 4 5 6 
#
# 1 0.009088 -0.002323 -0.002172 0.000000 0.000525 0.000000
# 2 -0.002323 0.016181 -0.005350 0.000000 -0.003249 0.000000
# 3 -0.002172 -0.005350 0.011482 0.000000 -0.001413 0.000000
# 4 0.000000 0.000000 0.000000 0.242405 0.000000 -0.211793
# 5 0.000525 -0.003249 -0.001413 0.000000 0.027323 0.000000
# 6 0.000000 0.000000 0.000000 -0.211793 0.000000 0.236078
#
#
# Mechanical properties :
#
#
# Convention : Reuss Voigt Hill
#
# Bulk Modulus (GPa) = 58.60376 62.85817 60.73097
# Shear Modulus (GPa) = 8.80385 29.51207 19.15796
#
# Velocity S-wave (km/s) = 2.04665 3.74721 3.01913
# Velocity P-wave (km/s) = 5.78517 6.97348 6.40693
#
# Compressibility (1/GPa) = 0.01706375
#
# Stress axis : x y z
#
# Youngs Moduli (GPa) = 110.03245 61.80142 87.09015
#
# Poissons Ratio (x) = 0.14354 0.18913
# Poissons Ratio (y) = 0.25556 0.46590
# Poissons Ratio (z) = 0.23895 0.33062
#
# Static dielectric constant tensor:
#      x y z
#    x 1.775820 0.000000 0.005950 
#    y 0.000000 1.734860 0.000000 
#    z 0.005950 0.000000 1.748710 
# 
# From -- ./inp_files/34388.got.cif
#   From: 2010.05.17/outbox.cif.g08.bks.cpg/sg15_18_cif.got.tgz:34388.got - 2010.06.03 18:47:42.
