data_PCOD9292312
_publ_section_title
;
Structure prediction by ZEFSAII (Michael W. Deem and Ramdas Pophale) SiO2 
 PCOD9292312
Probable space group: C 2/C
;
_chemical_formula_sum "Si O2"
_cell_formula_units_Z 48
_cell_length_a 8.652278
_cell_length_b 12.138172
_cell_length_c 24.209885
_cell_angle_alpha 90.000000
_cell_angle_beta 120.412969
_cell_angle_gamma 90.000000
_cell_volume 2192.728069
_symmetry_space_group_name_H-M "C 2/C"
_symmetry_group_IT_number 15
_symmetry_cell_setting 'monoclinic'
loop_
_space_group_symop_operation_xyz
x,y,z
-x,y,1/2-z
-x,-y,-z
x,-y,1/2+z
1/2+x,1/2+y,z
1/2-x,1/2+y,1/2-z
1/2-x,1/2-y,-z
1/2+x,1/2-y,1/2+z
loop_
_atom_site_type_symbol
_atom_site_label
_atom_site_fract_x
_atom_site_fract_y
_atom_site_fract_z
Si Si1 0.855213 0.989679 0.426201
Si Si2 0.171507 0.550175 0.244907
Si Si3 0.184918 0.173197 0.317470
Si Si4 0.422260 0.373512 0.329057
Si Si5 0.855472 0.723048 0.575446
Si Si6 0.745668 0.215891 0.354371
O O1 0.958212 0.944837 0.390500
O O2 0.715028 0.894783 0.416632
O O3 0.763937 0.106722 0.396028
O O4 0.000000 0.000000 0.500000
O O5 0.167325 0.589272 0.180926
O O6 0.329119 0.461284 0.272800
O O7 0.221207 0.659647 0.289752
O O8 0.000000 0.509307 0.250000
O O9 0.262750 0.291031 0.315044
O O10 0.170435 0.184105 0.380950
O O11 0.000000 0.156377 0.250000
O O12 0.586473 0.300179 0.338370
O O13 0.750000 0.750000 0.500000
O O14 0.067588 0.721859 0.605756
#
# Coordination Sequence:
#
# PCOD9292312 Si02
#       6
#     8   8   8   8   8   8
#     4  10  22  43  69  95 137 190 233 284 353 418
#     4  11  22  45  70 100 142 179 233 298 362 426
#     4  11  22  43  68 104 137 184 235 291 361 431
#     4  10  24  42  67 102 135 183 230 291 361 420
#     4  11  23  44  73 102 145 190 239 299 352 421
#     4  11  22  45  69  98 142 180 235 290 354 425
#
# _framework density 21.890540000000001
#
# number of rings (size 3 to 8) (size 9 to 14) (size 15 to 20)
#    0.000    1.333    5.000    0.500    0.000    0.667 
#    6.000    0.833    0.000    0.000    0.000    0.000 
#    0.000    0.000    0.000    0.000    0.000    0.000 
#
# Total GULP energy -133961.072680 kJ/mol
# GULP energy per Si atom -5581.711362 kJ/mol
# Density = 2.184072 g / cm^3
# Si number density = 21.890540 Si / 1000 Ang^3
#
#
#
# Elastic Constant Matrix: (Units=GPa)
#
#
# Indices 1 2 3 4 5 6 
#
# 1 145.1735 79.3183 53.1899 0.0000 19.2963 0.0000
# 2 79.3183 124.8698 37.5111 0.0000 0.0009 0.0000
# 3 53.1899 37.5111 94.0798 0.0000 -6.0367 0.0000
# 4 0.0000 0.0000 0.0000 28.3017 0.0000 7.8180
# 5 19.2963 0.0009 -6.0367 0.0000 30.9534 0.0000
# 6 0.0000 0.0000 0.0000 7.8180 0.0000 47.1124
#
#
#
# Elastic Compliance Matrix: (Units=1/GPa)
#
#
# Indices 1 2 3 4 5 6 
#
# 1 0.014426 -0.007405 -0.005854 0.000000 -0.010135 0.000000
# 2 -0.007405 0.012915 -0.000675 0.000000 0.004484 0.000000
# 3 -0.005854 -0.000675 0.014625 0.000000 0.006502 0.000000
# 4 0.000000 0.000000 0.000000 0.037031 0.000000 -0.006145
# 5 -0.010135 0.004484 0.006502 0.000000 0.039892 0.000000
# 6 0.000000 0.000000 0.000000 -0.006145 0.000000 0.022246
#
#
# Mechanical properties :
#
#
# Convention : Reuss Voigt Hill
#
# Bulk Modulus (GPa) = 70.93070 78.24019 74.58545
# Shear Modulus (GPa) = 28.78493 34.21376 31.49934
#
# Velocity S-wave (km/s) = 3.63016 3.95770 3.79746
# Velocity P-wave (km/s) = 7.07414 7.53018 7.30572
#
# Compressibility (1/GPa) = 0.01409827
#
# Stress axis : x y z
#
# Youngs Moduli (GPa) = 69.31945 77.43072 68.37519
#
# Poissons Ratio (x) = 0.57337 0.40026
# Poissons Ratio (y) = 0.51330 0.04616
# Poissons Ratio (z) = 0.40578 0.05227
#
# Static dielectric constant tensor:
#      x y z
#    x 1.865970 0.000000 -0.029080 
#    y 0.000000 1.808200 0.000000 
#    z -0.029080 0.000000 1.826670 
# 
# From -- ./inp_files/287780.got.cif
#   From: 2010.05.17/outbox.cif.g08.bks.cpg/sg15_144_cif.got.tgz:287780.got - 2010.06.03 18:47:42.
