data_PCOD9292841
_publ_section_title
;
Structure prediction by ZEFSAII (Michael W. Deem and Ramdas Pophale) SiO2 
 PCOD9292841
Probable space group: C 2/C
;
_chemical_formula_sum "Si O2"
_cell_formula_units_Z 56
_cell_length_a 8.074147
_cell_length_b 27.499328
_cell_length_c 11.823471
_cell_angle_alpha 90.000000
_cell_angle_beta 104.972270
_cell_angle_gamma 90.000000
_cell_volume 2536.084778
_symmetry_space_group_name_H-M "C 2/C"
_symmetry_group_IT_number 15
_symmetry_cell_setting 'monoclinic'
loop_
_space_group_symop_operation_xyz
x,y,z
-x,y,1/2-z
-x,-y,-z
x,-y,1/2+z
1/2+x,1/2+y,z
1/2-x,1/2+y,1/2-z
1/2-x,1/2-y,-z
1/2+x,1/2-y,1/2+z
loop_
_atom_site_type_symbol
_atom_site_label
_atom_site_fract_x
_atom_site_fract_y
_atom_site_fract_z
Si Si1 0.791672 0.205194 0.087626
Si Si2 0.500000 0.500000 0.500000
Si Si3 0.000000 0.862993 0.250000
Si Si4 0.817245 0.774312 0.841428
Si Si5 0.257787 0.062874 0.689986
Si Si6 0.272324 0.823474 0.446847
Si Si7 0.332304 0.012404 0.396384
Si Si8 0.915083 0.609627 0.502478
O O1 0.733248 0.216955 0.205367
O O2 0.703245 0.156761 0.028464
O O3 0.996462 0.201058 0.126710
O O4 0.750000 0.250000 0.000000
O O5 0.605354 0.539930 0.589853
O O6 0.660114 0.499542 0.433563
O O7 0.163140 0.894834 0.242117
O O8 0.078723 0.833418 0.369563
O O9 0.840739 0.716919 0.870353
O O10 0.720680 0.797923 0.929960
O O11 0.387276 0.085717 0.621038
O O12 0.324192 0.018640 0.780202
O O13 0.391602 0.870955 0.475006
O O14 0.353550 0.070948 0.396546
O O15 0.500000 0.000000 0.500000
#
# Coordination Sequence:
#
# PCOD9292841 Si02
#       8
#     8   4   4   8   8   8   8   8
#     4  11  23  48  72 108 146 198 248 309 382 457
#     4  10  22  44  68  96 142 192 244 310 384 444
#     4  12  24  38  72 102 142 186 254 302 368 456
#     4  10  25  45  70 102 159 187 244 316 377 455
#     4  11  24  47  70 103 145 196 250 322 370 457
#     4  11  25  44  69 114 142 199 246 309 384 457
#     4  11  24  47  70 106 147 194 255 324 382 449
#     4  11  26  45  76 106 148 200 257 307 390 460
#
# _framework density 22.081282000000002
#
# number of rings (size 3 to 8) (size 9 to 14) (size 15 to 20)
#    0.000    1.143    2.857    1.714    4.000    5.714 
#   12.857    2.857    0.000    0.000    0.000    0.000 
#    0.000    0.000    0.000    0.000    0.000    0.000 
#
# Total GULP energy -155975.035753 kJ/mol
# GULP energy per Si atom -5570.536991 kJ/mol
# Density = 2.203102 g / cm^3
# Si number density = 22.081282 Si / 1000 Ang^3
#
#
#
# Elastic Constant Matrix: (Units=GPa)
#
#
# Indices 1 2 3 4 5 6 
#
# 1 68.1597 23.8153 11.5360 0.0000 -4.2403 0.0000
# 2 23.8153 114.5036 50.2554 0.0000 -0.6333 0.0000
# 3 11.5360 50.2554 100.7330 0.0000 -16.7859 0.0000
# 4 0.0000 0.0000 0.0000 38.4768 0.0000 4.8634
# 5 -4.2403 -0.6333 -16.7859 0.0000 26.4487 0.0000
# 6 0.0000 0.0000 0.0000 4.8634 0.0000 42.2517
#
#
#
# Elastic Compliance Matrix: (Units=1/GPa)
#
#
# Indices 1 2 3 4 5 6 
#
# 1 0.015991 -0.003463 0.000346 0.000000 0.002701 0.000000
# 2 -0.003463 0.012258 -0.006444 0.000000 -0.004351 0.000000
# 3 0.000346 -0.006444 0.014634 0.000000 0.009189 0.000000
# 4 0.000000 0.000000 0.000000 0.026373 0.000000 -0.003036
# 5 0.002701 -0.004351 0.009189 0.000000 0.043969 0.000000
# 6 0.000000 0.000000 0.000000 -0.003036 0.000000 0.024017
#
#
# Mechanical properties :
#
#
# Convention : Reuss Voigt Hill
#
# Bulk Modulus (GPa) = 42.08540 50.51220 46.29880
# Shear Modulus (GPa) = 30.43524 34.62142 32.52833
#
# Velocity S-wave (km/s) = 3.71661 3.96398 3.84229
# Velocity P-wave (km/s) = 6.12522 6.62390 6.37943
#
# Compressibility (1/GPa) = 0.02376121
#
# Stress axis : x y z
#
# Youngs Moduli (GPa) = 62.53604 81.58104 68.33608
#
# Poissons Ratio (x) = 0.28251 -0.02367
# Poissons Ratio (y) = 0.21656 0.44035
# Poissons Ratio (z) = -0.02166 0.52570
#
# Static dielectric constant tensor:
#      x y z
#    x 1.837130 0.000000 -0.009580 
#    y 0.000000 1.853410 0.000000 
#    z -0.009580 0.000000 1.924550 
# 
# From -- ./inp_files/81464.got.cif
#   From: 2010.05.17/outbox.cif.g08.bks.cpg/sg15_41_cif.got.tgz:81464.got - 2010.06.03 18:47:42.
