data_PCOD9292543
_publ_section_title
;
Structure prediction by ZEFSAII (Michael W. Deem and Ramdas Pophale) SiO2 
 PCOD9292543
Probable space group: C 2/C
;
_chemical_formula_sum "Si O2"
_cell_formula_units_Z 44
_cell_length_a 5.430190
_cell_length_b 23.666604
_cell_length_c 14.178747
_cell_angle_alpha 90.000000
_cell_angle_beta 88.681921
_cell_angle_gamma 90.000000
_cell_volume 1821.687565
_symmetry_space_group_name_H-M "C 2/C"
_symmetry_group_IT_number 15
_symmetry_cell_setting 'monoclinic'
loop_
_space_group_symop_operation_xyz
x,y,z
-x,y,1/2-z
-x,-y,-z
x,-y,1/2+z
1/2+x,1/2+y,z
1/2-x,1/2+y,1/2-z
1/2-x,1/2-y,-z
1/2+x,1/2-y,1/2+z
loop_
_atom_site_type_symbol
_atom_site_label
_atom_site_fract_x
_atom_site_fract_y
_atom_site_fract_z
Si Si1 0.317062 0.288317 0.089807
Si Si2 0.206367 0.120782 0.512528
Si Si3 0.543464 0.024556 0.895697
Si Si4 0.113365 0.686130 0.160847
Si Si5 0.000000 0.261477 0.250000
Si Si6 0.949412 0.036821 0.151089
O O1 0.448790 0.241301 0.152595
O O2 0.107268 0.302707 0.167415
O O3 0.250000 0.250000 0.000000
O O4 0.500810 0.338363 0.058887
O O5 0.380490 0.089190 0.585535
O O6 0.377229 0.154760 0.437733
O O7 0.077696 0.076382 0.440761
O O8 0.295990 0.003297 0.844887
O O9 0.800674 0.998263 0.860170
O O10 0.500000 0.000000 0.000000
O O11 0.369844 0.714701 0.183178
O O12 0.000000 0.651857 0.250000
O O13 0.000000 0.068762 0.250000
#
# Coordination Sequence:
#
# PCOD9292543 Si02
#       6
#     8   8   8   8   4   8
#     4  11  23  40  69 101 148 191 238 295 361 434
#     4  11  23  40  72 105 135 193 248 292 366 450
#     4  10  23  46  69 104 141 183 236 308 375 437
#     4  10  23  41  64 102 141 184 231 293 350 426
#     4  10  22  44  60  96 156 182 230 300 350 422
#     4  11  25  46  74 104 143 184 242 318 374 435
#
# _framework density 24.153428999999999
#
# number of rings (size 3 to 8) (size 9 to 14) (size 15 to 20)
#    0.000    1.455    1.818    3.273    1.273    7.273 
#    0.000    2.727    0.000    0.000    0.000    0.000 
#    0.000    0.000    0.000    0.000    0.000    0.000 
#
# Total GULP energy -122628.239882 kJ/mol
# GULP energy per Si atom -5574.010904 kJ/mol
# Density = 2.409845 g / cm^3
# Si number density = 24.153429 Si / 1000 Ang^3
#
#
#
# Elastic Constant Matrix: (Units=GPa)
#
#
# Indices 1 2 3 4 5 6 
#
# 1 99.4999 39.2003 27.5204 0.0000 -7.6046 0.0000
# 2 39.2003 95.4206 46.3037 0.0000 -21.7328 0.0000
# 3 27.5204 46.3037 99.0224 0.0000 -9.9540 0.0000
# 4 0.0000 0.0000 0.0000 116.5681 0.0000 -25.3979
# 5 -7.6046 -21.7328 -9.9540 0.0000 44.8801 0.0000
# 6 0.0000 0.0000 0.0000 -25.3979 0.0000 -13.0097
#
#
#
# Elastic Compliance Matrix: (Units=1/GPa)
#
#
# Indices 1 2 3 4 5 6 
#
# 1 0.012134 -0.004420 -0.001344 0.000000 -0.000382 0.000000
# 2 -0.004420 0.016508 -0.005894 0.000000 0.005938 0.000000
# 3 -0.001344 -0.005894 0.013213 0.000000 -0.000151 0.000000
# 4 0.000000 0.000000 0.000000 0.006019 0.000000 -0.011750
# 5 -0.000382 0.005938 -0.000151 0.000000 0.025059 0.000000
# 6 0.000000 0.000000 0.000000 -0.011750 0.000000 -0.053928
#
#
# Mechanical properties :
#
#
# Convention : Reuss Voigt Hill
#
# Bulk Modulus (GPa) = 53.93855 57.77686 55.85771
# Shear Modulus (GPa) = 103.09156 41.74895 72.42026
#
# Velocity S-wave (km/s) = 6.54023 4.16202 5.48165
# Velocity P-wave (km/s) = 8.91139 6.86070 7.95243
#
# Compressibility (1/GPa) = 0.01853962
#
# Stress axis : x y z
#
# Youngs Moduli (GPa) = 82.41278 60.57611 75.68196
#
# Poissons Ratio (x) = 0.26773 0.10172
# Poissons Ratio (y) = 0.36424 0.44608
# Poissons Ratio (z) = 0.11077 0.35704
#
# Static dielectric constant tensor:
#      x y z
#    x 2.989530 0.000000 0.090360 
#    y 0.000000 1.941300 0.000000 
#    z 0.090360 0.000000 2.053900 
# 
# From -- ./inp_files/129376.got.cif
#   From: 2010.05.17/outbox.cif.g08.bks.cpg/sg15_65_cif.got.tgz:129376.got - 2010.06.03 18:47:42.
