data_PCOD9292375
_publ_section_title
;
Structure prediction by ZEFSAII (Michael W. Deem and Ramdas Pophale) SiO2 
 PCOD9292375
Probable space group: C 2/C
;
_chemical_formula_sum "Si O2"
_cell_formula_units_Z 52
_cell_length_a 32.936588
_cell_length_b 5.578145
_cell_length_c 14.313086
_cell_angle_alpha 90.000000
_cell_angle_beta 115.757606
_cell_angle_gamma 90.000000
_cell_volume 2368.389833
_symmetry_space_group_name_H-M "C 2/C"
_symmetry_group_IT_number 15
_symmetry_cell_setting 'monoclinic'
loop_
_space_group_symop_operation_xyz
x,y,z
-x,y,1/2-z
-x,-y,-z
x,-y,1/2+z
1/2+x,1/2+y,z
1/2-x,1/2+y,1/2-z
1/2-x,1/2-y,-z
1/2+x,1/2-y,1/2+z
loop_
_atom_site_type_symbol
_atom_site_label
_atom_site_fract_x
_atom_site_fract_y
_atom_site_fract_z
Si Si1 0.584791 1.000000 0.834791
Si Si2 0.347418 0.626440 0.005569
Si Si3 0.936362 0.883562 0.043595
Si Si4 0.500000 0.499999 0.750000
Si Si5 0.847418 0.873561 0.189268
Si Si6 0.277509 0.253032 0.277509
Si Si7 0.436362 0.616438 0.329129
O O1 0.557085 0.149894 0.729570
O O2 0.557085 0.850105 0.884601
O O3 0.619436 0.832902 0.812796
O O4 0.619436 0.167097 0.926075
O O5 0.309843 0.720674 0.899272
O O6 0.383149 0.443172 0.993993
O O7 0.327601 0.500000 0.077601
O O8 0.963700 0.079562 0.132757
O O9 0.950400 0.863964 0.950400
O O10 0.536300 0.579561 0.705358
O O11 0.809844 0.779327 0.220415
O O12 0.883149 0.056829 0.272306
O O13 0.246175 0.492435 0.246175
#
# Coordination Sequence:
#
# PCOD9292375 Si02
#       7
#     8   8   8   4   8   8   8
#     4  10  22  43  70  97 132 192 239 282 362 451
#     4  10  23  45  71  98 141 189 230 286 377 426
#     4  11  23  42  70  98 142 191 231 300 354 433
#     4  12  22  46  60 112 138 172 260 290 344 434
#     4  10  23  45  71  98 141 189 230 286 377 426
#     4  12  30  46  74 113 143 179 251 308 354 450
#     4  11  23  42  70  98 142 191 231 300 354 433
#
# _framework density 21.955845
#
# number of rings (size 3 to 8) (size 9 to 14) (size 15 to 20)
#    0.000    1.231    6.154    0.462   10.769    1.846 
#    0.000    1.538    0.000    0.000    0.000    0.000 
#    0.000    0.000    0.000    0.000    0.000    0.000 
#
# Total GULP energy -144756.539203 kJ/mol
# GULP energy per Si atom -5567.559200 kJ/mol
# Density = 2.190587 g / cm^3
# Si number density = 21.955845 Si / 1000 Ang^3
#
#
#
# Elastic Constant Matrix: (Units=GPa)
#
#
# Indices 1 2 3 4 5 6 
#
# 1 104.8428 18.1359 44.6549 0.0000 -23.9566 0.0000
# 2 18.1359 83.3225 34.2554 0.0000 -9.3182 0.0000
# 3 44.6549 34.2554 195.1944 0.0000 -28.2736 0.0000
# 4 0.0000 0.0000 0.0000 19.0699 0.0000 -3.5082
# 5 -23.9566 -9.3182 -28.2736 0.0000 53.3107 0.0000
# 6 0.0000 0.0000 0.0000 -3.5082 0.0000 13.0012
#
#
#
# Elastic Compliance Matrix: (Units=1/GPa)
#
#
# Indices 1 2 3 4 5 6 
#
# 1 0.011439 -0.001301 -0.001817 0.000000 0.003950 0.000000
# 2 -0.001301 0.013148 -0.001908 0.000000 0.000701 0.000000
# 3 -0.001817 -0.001908 0.006182 0.000000 0.002129 0.000000
# 4 0.000000 0.000000 0.000000 0.055178 0.000000 0.014889
# 5 0.003950 0.000701 0.002129 0.000000 0.021784 0.000000
# 6 0.000000 0.000000 0.000000 0.014889 0.000000 0.080933
#
#
# Mechanical properties :
#
#
# Convention : Reuss Voigt Hill
#
# Bulk Modulus (GPa) = 48.26930 64.16134 56.21532
# Shear Modulus (GPa) = 24.31646 36.16393 30.24020
#
# Velocity S-wave (km/s) = 3.33155 4.06288 3.71525
# Velocity P-wave (km/s) = 6.06889 7.16210 6.63803
#
# Compressibility (1/GPa) = 0.02071710
#
# Stress axis : x y z
#
# Youngs Moduli (GPa) = 87.41708 76.05906 161.76363
#
# Poissons Ratio (x) = 0.09898 0.29385
# Poissons Ratio (y) = 0.11376 0.30865
# Poissons Ratio (z) = 0.15879 0.14512
#
# Static dielectric constant tensor:
#      x y z
#    x 1.807260 0.000000 0.012670 
#    y 0.000000 2.025980 0.000000 
#    z 0.012670 0.000000 1.785350 
# 
# From -- ./inp_files/180041.got.cif
#   From: 2010.05.17/outbox.cif.g08.bks.cpg/sg15_91_cif.got.tgz:180041.got - 2010.06.03 18:47:42.
