data_PCOD9292521
_publ_section_title
;
Structure prediction by ZEFSAII (Michael W. Deem and Ramdas Pophale) SiO2 
 PCOD9292521
Probable space group: C 2/C
;
_chemical_formula_sum "Si O2"
_cell_formula_units_Z 32
_cell_length_a 6.994575
_cell_length_b 23.417919
_cell_length_c 7.444178
_cell_angle_alpha 90.000000
_cell_angle_beta 116.218476
_cell_angle_gamma 90.000000
_cell_volume 1093.893292
_symmetry_space_group_name_H-M "C 2/C"
_symmetry_group_IT_number 15
_symmetry_cell_setting 'monoclinic'
loop_
_space_group_symop_operation_xyz
x,y,z
-x,y,1/2-z
-x,-y,-z
x,-y,1/2+z
1/2+x,1/2+y,z
1/2-x,1/2+y,1/2-z
1/2-x,1/2-y,-z
1/2+x,1/2-y,1/2+z
loop_
_atom_site_type_symbol
_atom_site_label
_atom_site_fract_x
_atom_site_fract_y
_atom_site_fract_z
Si Si1 0.733381 0.068617 0.506209
Si Si2 0.697362 0.323807 0.960348
Si Si3 0.806954 0.694758 0.907195
Si Si4 0.218824 0.554778 0.074538
O O1 0.790734 0.134374 0.567425
O O2 0.710243 0.067830 0.282334
O O3 0.534941 0.058414 0.563935
O O4 0.824299 0.004845 0.570808
O O5 0.500000 0.305947 0.750000
O O6 0.777177 0.202403 0.831326
O O7 0.672439 0.391993 0.975384
O O8 0.936311 0.315420 0.979785
O O9 0.750000 0.750000 0.000000
#
# Coordination Sequence:
#
# PCOD9292521 Si02
#       4
#     8   8   8   8
#     4   9  17  34  67 108 150 206 266 331 408 479
#     4  10  22  43  75 115 157 206 276 346 409 482
#     4  10  22  43  75 113 160 222 275 329 411 496
#     4   9  17  34  67 108 152 201 261 341 409 473
#
# _framework density 29.253309999999999
#
# number of rings (size 3 to 8) (size 9 to 14) (size 15 to 20)
#    0.000    2.500    0.000    1.500    0.000    7.000 
#    0.000    7.500   27.500    0.000    6.500    0.000 
#    0.000    0.000    0.000    2.250    0.000    0.000 
#
# Total GULP energy -89546.705726 kJ/mol
# GULP energy per Si atom -5596.669108 kJ/mol
# Density = 2.918673 g / cm^3
# Si number density = 29.253310 Si / 1000 Ang^3
#
#
#
# Elastic Constant Matrix: (Units=GPa)
#
#
# Indices 1 2 3 4 5 6 
#
# 1 148.6164 80.1916 81.4315 0.0000 1.4962 0.0000
# 2 80.1916 337.3177 90.7061 0.0000 -4.6236 0.0000
# 3 81.4315 90.7061 199.2892 0.0000 -1.1174 0.0000
# 4 0.0000 0.0000 0.0000 18.7605 0.0000 -26.4629
# 5 1.4962 -4.6236 -1.1174 0.0000 57.5232 0.0000
# 6 0.0000 0.0000 0.0000 -26.4629 0.0000 39.6851
#
#
#
# Elastic Compliance Matrix: (Units=1/GPa)
#
#
# Indices 1 2 3 4 5 6 
#
# 1 0.009179 -0.001343 -0.003142 0.000000 -0.000408 0.000000
# 2 -0.001343 0.003578 -0.001078 0.000000 0.000302 0.000000
# 3 -0.003142 -0.001078 0.006793 0.000000 0.000127 0.000000
# 4 0.000000 0.000000 0.000000 0.897257 0.000000 0.598311
# 5 -0.000408 0.000302 0.000127 0.000000 0.017422 0.000000
# 6 0.000000 0.000000 0.000000 0.598311 0.000000 0.424165
#
#
# Mechanical properties :
#
#
# Convention : Reuss Voigt Hill
#
# Bulk Modulus (GPa) = 118.70197 132.20907 125.45552
# Shear Modulus (GPa) = 3.64345 52.05338 27.84841
#
# Velocity S-wave (km/s) = 1.11722 4.22287 3.08876
# Velocity P-wave (km/s) = 6.50612 8.31081 7.46321
#
# Compressibility (1/GPa) = 0.00842446
#
# Stress axis : x y z
#
# Youngs Moduli (GPa) = 108.94612 279.49840 147.21237
#
# Poissons Ratio (x) = 0.37534 0.46249
# Poissons Ratio (y) = 0.14630 0.15870
# Poissons Ratio (z) = 0.34227 0.30131
#
# Static dielectric constant tensor:
#      x y z
#    x 2.543090 0.000000 0.244190 
#    y 0.000000 2.279170 0.000000 
#    z 0.244190 0.000000 2.392190 
# 
# From -- ./inp_files/22065.got.cif
#   From: 2010.05.17/outbox.cif.g08.bks.cpg/sg15_12_cif.got.tgz:22065.got - 2010.06.03 18:47:42.
