data_PCOD9292816
_publ_section_title
;
Structure prediction by ZEFSAII (Michael W. Deem and Ramdas Pophale) SiO2 
 PCOD9292816
Probable space group: C 2/C
;
_chemical_formula_sum "Si O2"
_cell_formula_units_Z 56
_cell_length_a 19.335524
_cell_length_b 7.991752
_cell_length_c 19.270555
_cell_angle_alpha 90.000000
_cell_angle_beta 124.685004
_cell_angle_gamma 90.000000
_cell_volume 2448.605191
_symmetry_space_group_name_H-M "C 2/C"
_symmetry_group_IT_number 15
_symmetry_cell_setting 'monoclinic'
loop_
_space_group_symop_operation_xyz
x,y,z
-x,y,1/2-z
-x,-y,-z
x,-y,1/2+z
1/2+x,1/2+y,z
1/2-x,1/2+y,1/2-z
1/2-x,1/2-y,-z
1/2+x,1/2-y,1/2+z
loop_
_atom_site_type_symbol
_atom_site_label
_atom_site_fract_x
_atom_site_fract_y
_atom_site_fract_z
Si Si1 0.413521 0.188926 0.664553
Si Si2 0.038319 0.858748 0.071962
Si Si3 0.293660 0.876106 0.624684
Si Si4 0.780757 0.842660 0.663039
Si Si5 0.789655 0.161956 0.753187
Si Si6 0.871193 0.238900 0.534155
Si Si7 0.888790 0.625050 0.498525
O O1 0.500000 0.142382 0.750000
O O2 0.370048 0.346084 0.676756
O O3 0.425568 0.203217 0.589731
O O4 0.342585 0.047244 0.637644
O O5 0.125615 0.897959 0.160060
O O6 0.058969 0.693507 0.037155
O O7 0.965183 0.827774 0.085467
O O8 0.000000 0.000000 0.000000
O O9 0.307028 0.814741 0.710538
O O10 0.194629 0.868964 0.549138
O O11 0.334118 0.751886 0.590279
O O12 0.774708 0.715167 0.723873
O O13 0.705776 0.807676 0.566823
O O14 0.757476 0.017287 0.685207
O O15 0.879354 0.426620 0.506545
#
# Coordination Sequence:
#
# PCOD9292816 Si02
#       7
#     8   8   8   8   8   8   8
#     4  11  26  42  68  97 133 171 215 270 325 389
#     4  11  27  40  66  97 134 169 217 274 325 381
#     4  10  23  43  68  94 126 173 219 263 324 386
#     4  11  24  45  66  96 132 170 220 264 329 385
#     4  11  25  42  68  98 127 173 217 273 318 388
#     4  10  22  44  68  94 128 175 215 265 326 390
#     4  10  23  45  66  97 129 176 214 265 333 385
#
# _framework density 22.870163999999999
#
# number of rings (size 3 to 8) (size 9 to 14) (size 15 to 20)
#    0.000    1.429    1.429    1.714   12.000    1.143 
#    0.000    0.000    0.000    0.000    0.000    0.000 
#    0.000    0.000    0.000    0.000    0.000    0.000 
#
# Total GULP energy -156537.475268 kJ/mol
# GULP energy per Si atom -5590.624117 kJ/mol
# Density = 2.281811 g / cm^3
# Si number density = 22.870164 Si / 1000 Ang^3
#
#
#
# Elastic Constant Matrix: (Units=GPa)
#
#
# Indices 1 2 3 4 5 6 
#
# 1 78.3272 -19.1690 7.1492 0.0000 7.4035 0.0000
# 2 -19.1690 34.3406 -11.1966 0.0000 6.2867 0.0000
# 3 7.1492 -11.1966 97.3222 0.0000 -4.5513 0.0000
# 4 0.0000 0.0000 0.0000 15.5840 0.0000 -0.3879
# 5 7.4035 6.2867 -4.5513 0.0000 16.4656 0.0000
# 6 0.0000 0.0000 0.0000 -0.3879 0.0000 24.4548
#
#
#
# Elastic Compliance Matrix: (Units=1/GPa)
#
#
# Indices 1 2 3 4 5 6 
#
# 1 0.016730 0.011378 -0.000481 0.000000 -0.012000 0.000000
# 2 0.011378 0.039988 0.002848 0.000000 -0.019597 0.000000
# 3 -0.000481 0.002848 0.010736 0.000000 0.002097 0.000000
# 4 0.000000 0.000000 0.000000 0.064194 0.000000 0.001018
# 5 -0.012000 -0.019597 0.002097 0.000000 0.074190 0.000000
# 6 0.000000 0.000000 0.000000 0.001018 0.000000 0.040908
#
#
# Mechanical properties :
#
#
# Convention : Reuss Voigt Hill
#
# Bulk Modulus (GPa) = 10.53245 18.17304 14.35274
# Shear Modulus (GPa) = 19.92807 26.84796 23.38802
#
# Velocity S-wave (km/s) = 2.95508 3.42998 3.20135
# Velocity P-wave (km/s) = 4.03220 4.86311 4.46701
#
# Compressibility (1/GPa) = 0.09494471
#
# Stress axis : x y z
#
# Youngs Moduli (GPa) = 59.77386 25.00769 93.14280
#
# Poissons Ratio (x) = -0.28455 0.04481
# Poissons Ratio (y) = -0.68014 -0.26528
# Poissons Ratio (z) = 0.02876 -0.07123
#
# Static dielectric constant tensor:
#      x y z
#    x 1.819570 0.000000 -0.012740 
#    y 0.000000 1.963220 0.000000 
#    z -0.012740 0.000000 1.809890 
# 
# From -- ./inp_files/209642.got.cif
#   From: 2010.05.17/outbox.cif.g08.bks.cpg/sg15_105_cif.got.tgz:209642.got - 2010.06.03 18:47:42.
