data_PCOD9292099
_publ_section_title
;
Structure prediction by ZEFSAII (Michael W. Deem and Ramdas Pophale) SiO2 
 PCOD9292099
Probable space group: C 2/C
;
_chemical_formula_sum "Si O2"
_cell_formula_units_Z 48
_cell_length_a 11.550662
_cell_length_b 14.616175
_cell_length_c 25.574159
_cell_angle_alpha 90.000000
_cell_angle_beta 147.616049
_cell_angle_gamma 90.000000
_cell_volume 2312.462241
_symmetry_space_group_name_H-M "C 2/C"
_symmetry_group_IT_number 15
_symmetry_cell_setting 'monoclinic'
loop_
_space_group_symop_operation_xyz
x,y,z
-x,y,1/2-z
-x,-y,-z
x,-y,1/2+z
1/2+x,1/2+y,z
1/2-x,1/2+y,1/2-z
1/2-x,1/2-y,-z
1/2+x,1/2-y,1/2+z
loop_
_atom_site_type_symbol
_atom_site_label
_atom_site_fract_x
_atom_site_fract_y
_atom_site_fract_z
Si Si1 0.501266 0.044712 0.312545
Si Si2 0.697659 0.875793 0.285539
Si Si3 0.649508 0.463291 0.472377
Si Si4 0.232875 0.835962 0.955067
Si Si5 0.503829 0.902045 0.972755
Si Si6 0.776272 0.828038 0.727691
O O1 0.500000 0.041398 0.250000
O O2 0.729402 0.054506 0.427177
O O3 0.346390 0.124881 0.271482
O O4 0.405881 0.946455 0.295316
O O5 0.500000 0.855985 0.250000
O O6 0.780486 0.778166 0.299162
O O7 0.903460 0.932602 0.384116
O O8 0.689576 0.568315 0.469345
O O9 0.774485 0.402298 0.475818
O O10 0.444986 0.836796 0.998757
O O11 0.028918 0.830088 0.837727
O O12 0.250000 0.750000 0.000000
O O13 0.317694 0.883229 0.858171
O O14 0.500000 0.000000 0.000000
#
# Coordination Sequence:
#
# PCOD9292099 Si02
#       6
#     8   8   8   8   8   8
#     4  10  23  43  66  94 135 177 226 283 346 403
#     4  11  23  41  66  97 131 183 221 274 349 405
#     4  10  22  43  66  94 136 177 224 280 343 406
#     4  11  21  40  68 102 135 174 229 281 339 412
#     4   9  21  40  67  96 129 176 224 283 344 396
#     4  11  22  43  66  97 137 179 233 280 341 412
#
# _framework density 20.757096000000001
#
# number of rings (size 3 to 8) (size 9 to 14) (size 15 to 20)
#    0.000    1.667    1.667    2.500    0.000    6.667 
#    9.000    0.000    0.000    0.000    0.000    0.000 
#    0.000    0.000    0.000    0.000    0.000    0.000 
#
# Total GULP energy -133768.252090 kJ/mol
# GULP energy per Si atom -5573.677170 kJ/mol
# Density = 2.070985 g / cm^3
# Si number density = 20.757096 Si / 1000 Ang^3
#
#
#
# Elastic Constant Matrix: (Units=GPa)
#
#
# Indices 1 2 3 4 5 6 
#
# 1 107.8813 51.7909 37.0619 0.0000 -5.4803 0.0000
# 2 51.7909 120.3075 29.9995 0.0000 0.9737 0.0000
# 3 37.0619 29.9995 93.3844 0.0002 16.7366 0.0000
# 4 0.0000 0.0000 0.0002 22.0087 -0.0001 -2.2460
# 5 -5.4803 0.9737 16.7366 -0.0001 21.2912 0.0000
# 6 0.0000 0.0000 0.0000 -2.2460 0.0000 37.5709
#
#
#
# Elastic Compliance Matrix: (Units=1/GPa)
#
#
# Indices 1 2 3 4 5 6 
#
# 1 0.013761 -0.004641 -0.005405 0.000000 0.008003 0.000000
# 2 -0.004641 0.010688 -0.001502 0.000000 -0.000503 0.000000
# 3 -0.005405 -0.001502 0.015799 0.000000 -0.013741 0.000000
# 4 0.000000 0.000000 0.000000 0.045715 0.000000 0.002733
# 5 0.008003 -0.000503 -0.013741 0.000000 0.059853 0.000000
# 6 0.000000 0.000000 0.000000 0.002733 0.000000 0.026780
#
#
# Mechanical properties :
#
#
# Convention : Reuss Voigt Hill
#
# Bulk Modulus (GPa) = 58.29783 62.14199 60.21991
# Shear Modulus (GPa) = 24.82530 29.68890 27.25710
#
# Velocity S-wave (km/s) = 3.46206 3.78603 3.62767
# Velocity P-wave (km/s) = 6.64288 7.00819 6.82798
#
# Compressibility (1/GPa) = 0.01715330
#
# Stress axis : x y z
#
# Youngs Moduli (GPa) = 72.67080 93.55948 63.29682
#
# Poissons Ratio (x) = 0.43420 0.34210
# Poissons Ratio (y) = 0.33726 0.09505
# Poissons Ratio (z) = 0.39276 0.14049
#
# Static dielectric constant tensor:
#      x y z
#    x 1.870590 0.000000 0.052030 
#    y 0.000000 1.776330 0.000000 
#    z 0.052030 0.000000 1.783840 
# 
# From -- ./inp_files/123430.got.cif
#   From: 2010.05.17/outbox.cif.g08.bks.cpg/sg15_62_cif.got.tgz:123430.got - 2010.06.03 18:47:42.
