data_PCOD9292373
_publ_section_title
;
Structure prediction by ZEFSAII (Michael W. Deem and Ramdas Pophale) SiO2 
 PCOD9292373
Probable space group: C 2/C
;
_chemical_formula_sum "Si O2"
_cell_formula_units_Z 36
_cell_length_a 17.571637
_cell_length_b 13.913075
_cell_length_c 8.990989
_cell_angle_alpha 90.000000
_cell_angle_beta 48.832278
_cell_angle_gamma 90.000000
_cell_volume 1654.680971
_symmetry_space_group_name_H-M "C 2/C"
_symmetry_group_IT_number 15
_symmetry_cell_setting 'monoclinic'
loop_
_space_group_symop_operation_xyz
x,y,z
-x,y,1/2-z
-x,-y,-z
x,-y,1/2+z
1/2+x,1/2+y,z
1/2-x,1/2+y,1/2-z
1/2-x,1/2-y,-z
1/2+x,1/2-y,1/2+z
loop_
_atom_site_type_symbol
_atom_site_label
_atom_site_fract_x
_atom_site_fract_y
_atom_site_fract_z
Si Si1 0.586114 0.078038 0.355902
Si Si2 0.861053 0.223309 0.786987
Si Si3 0.844171 0.914234 0.057984
Si Si4 0.282692 0.960817 0.549271
Si Si5 0.000000 0.059990 0.750000
O O1 0.568107 0.182474 0.308186
O O2 0.643001 0.097399 0.439121
O O3 0.500000 0.000000 0.500000
O O4 0.655595 0.025270 0.145503
O O5 0.855901 0.186572 0.623761
O O6 0.913765 0.132825 0.801199
O O7 0.750000 0.250000 0.000000
O O8 0.769416 0.969314 0.265688
O O9 0.798290 0.907450 0.951123
O O10 0.940971 0.984144 0.929584
#
# Coordination Sequence:
#
# PCOD9292373 Si02
#       5
#     8   8   8   8   4
#     4  11  24  43  68 104 142 188 240 289 348 425
#     4  12  25  46  73 102 140 191 235 284 366 430
#     4  11  22  46  71 101 141 179 241 293 357 415
#     4  10  22  43  70  95 147 186 224 306 350 403
#     4  12  26  44  76 106 138 188 238 304 358 428
#
# _framework density 21.756460000000001
#
# number of rings (size 3 to 8) (size 9 to 14) (size 15 to 20)
#    0.000    0.889    4.444    2.667    3.111    0.889 
#    4.000    0.000    0.000    0.000    0.000    0.000 
#    0.000    0.000    0.000    0.000    0.000    0.000 
#
# Total GULP energy -100332.964357 kJ/mol
# GULP energy per Si atom -5574.053575 kJ/mol
# Density = 2.170694 g / cm^3
# Si number density = 21.756460 Si / 1000 Ang^3
#
#
#
# Elastic Constant Matrix: (Units=GPa)
#
#
# Indices 1 2 3 4 5 6 
#
# 1 116.8423 39.7032 34.6556 0.0000 17.6216 0.0000
# 2 39.7032 145.4430 52.4067 0.0000 -9.7366 0.0000
# 3 34.6556 52.4067 115.6551 0.0000 -3.8926 0.0000
# 4 0.0000 0.0000 0.0000 34.0094 0.0000 7.8034
# 5 17.6216 -9.7366 -3.8926 0.0000 35.7899 0.0000
# 6 0.0000 0.0000 0.0000 7.8034 0.0000 -0.1770
#
#
#
# Elastic Compliance Matrix: (Units=1/GPa)
#
#
# Indices 1 2 3 4 5 6 
#
# 1 0.011120 -0.002615 -0.002364 0.000000 -0.006444 0.000000
# 2 -0.002615 0.008954 -0.003160 0.000000 0.003380 0.000000
# 3 -0.002364 -0.003160 0.010837 0.000000 0.001483 0.000000
# 4 0.000000 0.000000 0.000000 0.002645 0.000000 0.116620
# 5 -0.006444 0.003380 0.001483 0.000000 0.032194 0.000000
# 6 0.000000 0.000000 0.000000 0.116620 0.000000 -0.508266
#
#
# Mechanical properties :
#
#
# Convention : Reuss Voigt Hill
#
# Bulk Modulus (GPa) = 68.34045 70.16350 69.25198
# Shear Modulus (GPa) = -11.86638 30.66945 9.40154
#
# Velocity S-wave (km/s) = -2.33795 3.75863 2.08102
# Velocity P-wave (km/s) = 4.91851 7.15234 6.13790
#
# Compressibility (1/GPa) = 0.01463262
#
# Stress axis : x y z
#
# Youngs Moduli (GPa) = 89.92684 111.67739 92.27990
#
# Poissons Ratio (x) = 0.29205 0.21815
# Poissons Ratio (y) = 0.23517 0.29161
# Poissons Ratio (z) = 0.21259 0.35291
#
# Static dielectric constant tensor:
#      x y z
#    x 1.535840 0.000000 -1.255220 
#    y 0.000000 1.873050 0.000000 
#    z -1.255220 0.000000 -1.863840 
# 
# From -- ./inp_files/46868.got.cif
#   From: 2010.05.17/outbox.cif.g08.bks.cpg/sg15_24_cif.got.tgz:46868.got - 2010.06.03 18:47:42.
