data_PCOD9292280
_publ_section_title
;
Structure prediction by ZEFSAII (Michael W. Deem and Ramdas Pophale) SiO2 
 PCOD9292280
Probable space group: C 2/C
;
_chemical_formula_sum "Si O2"
_cell_formula_units_Z 36
_cell_length_a 17.572311
_cell_length_b 11.923802
_cell_length_c 24.502156
_cell_angle_alpha 90.000000
_cell_angle_beta 162.564581
_cell_angle_gamma 90.000000
_cell_volume 1538.275554
_symmetry_space_group_name_H-M "C 2/C"
_symmetry_group_IT_number 15
_symmetry_cell_setting 'monoclinic'
loop_
_space_group_symop_operation_xyz
x,y,z
-x,y,1/2-z
-x,-y,-z
x,-y,1/2+z
1/2+x,1/2+y,z
1/2-x,1/2+y,1/2-z
1/2-x,1/2-y,-z
1/2+x,1/2-y,1/2+z
loop_
_atom_site_type_symbol
_atom_site_label
_atom_site_fract_x
_atom_site_fract_y
_atom_site_fract_z
Si Si1 0.500000 0.961461 0.250000
Si Si2 0.769853 0.409559 0.489606
Si Si3 0.604918 0.991125 0.132537
Si Si4 0.848406 0.792174 0.253555
Si Si5 0.515464 0.387603 0.974904
O O1 0.706626 0.885901 0.360249
O O2 0.639533 0.041993 0.389503
O O3 0.478011 0.372851 0.296942
O O4 0.877992 0.498879 0.520646
O O5 0.927962 0.297008 0.583519
O O6 0.755737 0.873916 0.237816
O O7 0.811965 0.086719 0.287530
O O8 0.500000 0.000000 0.000000
O O9 0.601668 0.716814 0.072628
O O10 0.500000 0.500000 0.000000
#
# Coordination Sequence:
#
# PCOD9292280 Si02
#       5
#     4   8   8   8   8
#     4  12  20  44  72 102 140 178 242 294 328 404
#     4  10  23  40  72 102 132 183 236 283 343 420
#     4  11  24  42  63 102 146 177 229 292 349 413
#     4  10  22  43  69 101 135 186 229 284 356 406
#     4  11  23  43  69 102 140 181 241 291 331 418
#
# _framework density 23.402830000000002
#
# number of rings (size 3 to 8) (size 9 to 14) (size 15 to 20)
#    0.000    1.333    6.667    0.000    0.000    9.778 
#    0.000    3.333    0.000    0.000    0.000    0.000 
#    0.000    0.000    0.000    0.000    0.000    0.000 
#
# Total GULP energy -100496.266878 kJ/mol
# GULP energy per Si atom -5583.125938 kJ/mol
# Density = 2.334956 g / cm^3
# Si number density = 23.402830 Si / 1000 Ang^3
#
#
#
# Elastic Constant Matrix: (Units=GPa)
#
#
# Indices 1 2 3 4 5 6 
#
# 1 141.8928 49.2574 67.7706 0.0176 34.7357 -0.0103
# 2 49.2574 85.4572 46.0694 0.0141 37.1823 -0.0310
# 3 67.7706 46.0694 129.5726 0.1003 44.9212 -0.0562
# 4 0.0176 0.0141 0.1003 52.9102 -0.0272 22.3895
# 5 34.7357 37.1823 44.9212 -0.0272 74.0220 0.0121
# 6 -0.0103 -0.0310 -0.0562 22.3895 0.0121 44.9312
#
#
#
# Elastic Compliance Matrix: (Units=1/GPa)
#
#
# Indices 1 2 3 4 5 6 
#
# 1 0.010305 -0.003539 -0.003889 0.000008 -0.000697 -0.000009
# 2 -0.003539 0.017508 -0.002407 -0.000008 -0.005673 0.000014
# 3 -0.003889 -0.002407 0.012102 -0.000037 -0.004310 0.000032
# 4 0.000008 -0.000008 -0.000037 0.023950 0.000033 -0.011935
# 5 -0.000697 -0.005673 -0.004310 0.000033 0.019302 -0.000031
# 6 -0.000009 0.000014 0.000032 -0.011935 -0.000031 0.028203
#
#
# Mechanical properties :
#
#
# Convention : Reuss Voigt Hill
#
# Bulk Modulus (GPa) = 49.40042 75.90194 62.65118
# Shear Modulus (GPa) = 36.28731 47.29436 41.79084
#
# Velocity S-wave (km/s) = 3.94198 4.50030 4.23036
# Velocity P-wave (km/s) = 6.47097 7.71407 7.11970
#
# Compressibility (1/GPa) = 0.02024274
#
# Stress axis : x y z
#
# Youngs Moduli (GPa) = 97.04354 57.11793 82.63038
#
# Poissons Ratio (x) = 0.20216 0.32139
# Poissons Ratio (y) = 0.34348 0.19888
# Poissons Ratio (z) = 0.37745 0.13748
#
# Static dielectric constant tensor:
#      x y z
#    x 1.936090 0.000000 -0.037730 
#    y 0.000000 1.925040 -0.000080 
#    z -0.037730 -0.000080 1.921940 
# 
# From -- ./inp_files/298919.got.cif
#   From: 2010.05.17/outbox.cif.g08.bks.cpg/sg15_150_cif.got.tgz:298919.got - 2010.06.03 18:47:42.
