data_PCOD9292194
_publ_section_title
;
Structure prediction by ZEFSAII (Michael W. Deem and Ramdas Pophale) SiO2 
 PCOD9292194
Probable space group: C 2/C
;
_chemical_formula_sum "Si O2"
_cell_formula_units_Z 48
_cell_length_a 10.169972
_cell_length_b 25.434291
_cell_length_c 14.083269
_cell_angle_alpha 90.000000
_cell_angle_beta 142.472680
_cell_angle_gamma 90.000000
_cell_volume 2219.012440
_symmetry_space_group_name_H-M "C 2/C"
_symmetry_group_IT_number 15
_symmetry_cell_setting 'monoclinic'
loop_
_space_group_symop_operation_xyz
x,y,z
-x,y,1/2-z
-x,-y,-z
x,-y,1/2+z
1/2+x,1/2+y,z
1/2-x,1/2+y,1/2-z
1/2-x,1/2-y,-z
1/2+x,1/2-y,1/2+z
loop_
_atom_site_type_symbol
_atom_site_label
_atom_site_fract_x
_atom_site_fract_y
_atom_site_fract_z
Si Si1 0.443612 0.452165 0.533949
Si Si2 0.350676 0.346472 0.418158
Si Si3 0.500000 0.244420 0.250000
Si Si4 0.000000 0.496554 0.750000
Si Si5 0.866572 0.547112 0.374826
Si Si6 0.475434 0.768108 0.533233
Si Si7 0.080425 0.645575 0.953398
O O1 0.500000 0.500000 0.500000
O O2 0.490116 0.399131 0.501599
O O3 0.606033 0.456088 0.714923
O O4 0.187044 0.463538 0.396806
O O5 0.467116 0.293001 0.452928
O O6 0.261009 0.348233 0.475289
O O7 0.147472 0.355252 0.232450
O O8 0.458066 0.214523 0.323468
O O9 0.718499 0.277039 0.386202
O O10 0.061398 0.459881 0.694996
O O11 0.907384 0.598516 0.463041
O O12 0.000000 0.500000 0.500000
O O13 0.589096 0.801428 0.519008
#
# Coordination Sequence:
#
# PCOD9292194 Si02
#       7
#     8   8   4   4   8   8   8
#     4  10  22  43  67  96 131 175 219 273 330 393
#     4  11  23  43  68  95 134 172 222 277 332 394
#     4  10  24  45  68  88 144 168 227 264 330 402
#     4  10  22  45  66  94 138 176 221 276 340 402
#     4  11  24  42  66 100 134 175 227 276 336 394
#     4  11  23  46  66  99 130 180 214 276 332 399
#     4  11  24  42  68  98 133 171 223 278 330 397
#
# _framework density 21.631245
#
# number of rings (size 3 to 8) (size 9 to 14) (size 15 to 20)
#    0.000    1.333    1.667    4.500    2.333    3.333 
#    9.000    0.000    0.000    0.000    0.000    0.000 
#    0.000    0.000    0.000    0.000    0.000    0.000 
#
# Total GULP energy -133747.441912 kJ/mol
# GULP energy per Si atom -5572.810080 kJ/mol
# Density = 2.158201 g / cm^3
# Si number density = 21.631245 Si / 1000 Ang^3
#
#
#
# Elastic Constant Matrix: (Units=GPa)
#
#
# Indices 1 2 3 4 5 6 
#
# 1 106.2828 44.3061 35.3080 0.0000 -34.2053 0.0000
# 2 44.3061 141.8678 44.7109 0.0000 -8.1268 0.0000
# 3 35.3080 44.7109 126.7651 0.0000 -7.3713 0.0000
# 4 0.0000 0.0000 0.0000 22.6597 0.0000 -11.4498
# 5 -34.2053 -8.1268 -7.3713 0.0000 43.0066 0.0000
# 6 0.0000 0.0000 0.0000 -11.4498 0.0000 28.8138
#
#
#
# Elastic Compliance Matrix: (Units=1/GPa)
#
#
# Indices 1 2 3 4 5 6 
#
# 1 0.015138 -0.003342 -0.002398 0.000000 0.010997 0.000000
# 2 -0.003342 0.008713 -0.002223 0.000000 -0.001393 0.000000
# 3 -0.002398 -0.002223 0.009298 0.000000 -0.000734 0.000000
# 4 0.000000 0.000000 0.000000 0.055218 0.000000 0.021942
# 5 0.010997 -0.001393 -0.000734 0.000000 0.031610 0.000000
# 6 0.000000 0.000000 0.000000 0.021942 0.000000 0.043425
#
#
# Mechanical properties :
#
#
# Convention : Reuss Voigt Hill
#
# Bulk Modulus (GPa) = 58.06345 69.28508 63.67427
# Shear Modulus (GPa) = 27.01667 35.60207 31.30937
#
# Velocity S-wave (km/s) = 3.53790 4.06133 3.80862
# Velocity P-wave (km/s) = 6.60225 7.35473 6.98863
#
# Compressibility (1/GPa) = 0.01722254
#
# Stress axis : x y z
#
# Youngs Moduli (GPa) = 66.05870 114.76468 107.54839
#
# Poissons Ratio (x) = 0.38353 0.25792
# Poissons Ratio (y) = 0.22076 0.23913
# Poissons Ratio (z) = 0.15842 0.25517
#
# Static dielectric constant tensor:
#      x y z
#    x 1.854990 0.000000 0.030730 
#    y 0.000000 1.792060 0.000000 
#    z 0.030730 0.000000 1.861870 
# 
# From -- ./inp_files/148868.got.cif
#   From: 2010.05.17/outbox.cif.g08.bks.cpg/sg15_75_cif.got.tgz:148868.got - 2010.06.03 18:47:42.
