data_PCOD9292056
_publ_section_title
;
Structure prediction by ZEFSAII (Michael W. Deem and Ramdas Pophale) SiO2 
 PCOD9292056
Probable space group: C 2/C
;
_chemical_formula_sum "Si O2"
_cell_formula_units_Z 36
_cell_length_a 12.271479
_cell_length_b 7.043326
_cell_length_c 16.080441
_cell_angle_alpha 90.000000
_cell_angle_beta 106.286239
_cell_angle_gamma 90.000000
_cell_volume 1334.093541
_symmetry_space_group_name_H-M "C 2/C"
_symmetry_group_IT_number 15
_symmetry_cell_setting 'monoclinic'
loop_
_space_group_symop_operation_xyz
x,y,z
-x,y,1/2-z
-x,-y,-z
x,-y,1/2+z
1/2+x,1/2+y,z
1/2-x,1/2+y,1/2-z
1/2-x,1/2-y,-z
1/2+x,1/2-y,1/2+z
loop_
_atom_site_type_symbol
_atom_site_label
_atom_site_fract_x
_atom_site_fract_y
_atom_site_fract_z
Si Si1 0.280973 0.488956 0.065092
Si Si2 0.562866 0.947894 0.100360
Si Si3 0.000000 0.597859 0.750000
Si Si4 0.473112 0.629915 0.840948
Si Si5 0.762367 0.575711 0.626349
O O1 0.190492 0.388536 0.105785
O O2 0.410721 0.428194 0.089405
O O3 0.269843 0.703467 0.098417
O O4 0.234856 0.473364 0.961799
O O5 0.544107 0.145324 0.145696
O O6 0.516125 0.805892 0.161257
O O7 0.500000 0.000000 0.000000
O O8 0.870557 0.526297 0.704832
O O9 0.500000 0.597040 0.750000
O O10 0.355523 0.548524 0.850923
#
# Coordination Sequence:
#
# PCOD9292056 Si02
#       5
#     8   8   4   8   8
#     4  10  22  43  65  98 132 176 228 283 340 407
#     4  11  23  43  65  95 138 173 225 284 341 411
#     4  12  22  44  64  94 130 182 216 276 354 404
#     4  11  23  42  66  99 135 176 233 284 335 417
#     4  10  23  41  66  95 138 173 225 285 339 414
#
# _framework density 26.984615999999999
#
# number of rings (size 3 to 8) (size 9 to 14) (size 15 to 20)
#    0.000    1.333    3.333    2.000    1.556    0.889 
#    0.000    0.000    0.000    0.000    0.000    0.000 
#    0.000    0.000    0.000    0.000    0.000    0.000 
#
# Total GULP energy -100610.645922 kJ/mol
# GULP energy per Si atom -5589.480329 kJ/mol
# Density = 2.692320 g / cm^3
# Si number density = 26.984616 Si / 1000 Ang^3
#
#
#
# Elastic Constant Matrix: (Units=GPa)
#
#
# Indices 1 2 3 4 5 6 
#
# 1 302.3738 38.2881 96.0017 0.0000 -21.8148 0.0000
# 2 38.2881 66.9234 13.7931 0.0000 -12.1019 0.0000
# 3 96.0017 13.7931 220.9816 0.0000 -1.9338 0.0000
# 4 0.0000 0.0000 0.0000 27.9635 0.0000 -2.9679
# 5 -21.8148 -12.1019 -1.9338 0.0000 63.5773 0.0000
# 6 0.0000 0.0000 0.0000 -2.9679 0.0000 41.5495
#
#
#
# Elastic Compliance Matrix: (Units=1/GPa)
#
#
# Indices 1 2 3 4 5 6 
#
# 1 0.004147 -0.001842 -0.001678 0.000000 0.001021 0.000000
# 2 -0.001842 0.016491 -0.000207 0.000000 0.002501 0.000000
# 3 -0.001678 -0.000207 0.005263 0.000000 -0.000455 0.000000
# 4 0.000000 0.000000 0.000000 0.036034 0.000000 0.002574
# 5 0.001021 0.002501 -0.000455 0.000000 0.016541 0.000000
# 6 0.000000 0.000000 0.000000 0.002574 0.000000 0.024252
#
#
# Mechanical properties :
#
#
# Convention : Reuss Voigt Hill
#
# Bulk Modulus (GPa) = 54.20830 98.49384 76.35107
# Shear Modulus (GPa) = 42.98092 56.09778 49.53935
#
# Velocity S-wave (km/s) = 3.99531 4.56442 4.28931
# Velocity P-wave (km/s) = 6.43549 8.02233 7.27232
#
# Compressibility (1/GPa) = 0.01844736
#
# Stress axis : x y z
#
# Youngs Moduli (GPa) = 241.15615 60.63835 190.00565
#
# Poissons Ratio (x) = 0.11170 0.31874
# Poissons Ratio (y) = 0.44421 0.03938
# Poissons Ratio (z) = 0.40455 0.01257
#
# Static dielectric constant tensor:
#      x y z
#    x 2.060630 0.000000 -0.065800 
#    y 0.000000 2.642090 0.000000 
#    z -0.065800 0.000000 2.273330 
# 
# From -- ./inp_files/141274.got.cif
#   From: 2010.05.17/outbox.cif.g08.bks.cpg/sg15_71_cif.got.tgz:141274.got - 2010.06.03 18:47:42.
