data_PCOD9292226
_publ_section_title
;
Structure prediction by ZEFSAII (Michael W. Deem and Ramdas Pophale) SiO2 
 PCOD9292226
Probable space group: C 2/C
;
_chemical_formula_sum "Si O2"
_cell_formula_units_Z 64
_cell_length_a 14.089102
_cell_length_b 21.866534
_cell_length_c 10.598429
_cell_angle_alpha 90.000000
_cell_angle_beta 57.223382
_cell_angle_gamma 90.000000
_cell_volume 2745.307877
_symmetry_space_group_name_H-M "C 2/C"
_symmetry_group_IT_number 15
_symmetry_cell_setting 'monoclinic'
loop_
_space_group_symop_operation_xyz
x,y,z
-x,y,1/2-z
-x,-y,-z
x,-y,1/2+z
1/2+x,1/2+y,z
1/2-x,1/2+y,1/2-z
1/2-x,1/2-y,-z
1/2+x,1/2-y,1/2+z
loop_
_atom_site_type_symbol
_atom_site_label
_atom_site_fract_x
_atom_site_fract_y
_atom_site_fract_z
Si Si1 0.324013 0.611816 0.666835
Si Si2 0.473802 0.538712 0.895966
Si Si3 0.735888 0.987142 0.621526
Si Si4 0.071377 0.329558 0.971333
Si Si5 0.837507 0.669881 0.522279
Si Si6 0.982155 0.196268 0.406153
Si Si7 0.219820 0.192099 0.352285
Si Si8 0.109142 0.533944 0.473348
O O1 0.500000 0.500000 0.500000
O O2 0.432943 0.591730 0.671086
O O3 0.284811 0.555223 0.610835
O O4 0.221688 0.627400 0.832003
O O5 0.500000 0.501648 0.750000
O O6 0.371352 0.333645 0.047302
O O7 0.342789 0.552296 0.000508
O O8 0.714446 0.838572 0.578154
O O9 0.690566 0.965314 0.790580
O O10 0.192570 0.313796 0.825052
O O11 0.082343 0.395665 0.028513
O O12 0.031182 0.269885 0.076968
O O13 0.972291 0.336129 0.937025
O O14 0.799626 0.737690 0.592501
O O15 0.847030 0.503566 0.436890
O O16 0.000000 0.177360 0.250000
O O17 0.093615 0.173850 0.401596
O O18 0.000000 0.500000 0.500000
#
# Coordination Sequence:
#
# PCOD9292226 Si02
#       8
#     8   8   8   8   8   8   8   8
#     4  11  24  43  73 105 145 184 231 295 369 430
#     4  10  23  42  67 100 140 185 235 297 363 422
#     4  11  26  47  72 104 142 188 245 307 356 437
#     4  11  25  46  72 104 142 194 238 298 354 441
#     4  10  22  43  68 104 144 180 234 287 357 427
#     4  11  27  44  69 109 148 189 239 291 366 441
#     4  10  23  42  68 101 143 186 229 288 352 428
#     4  12  28  48  74 102 142 194 251 301 366 423
#
# _framework density 23.312503
#
# number of rings (size 3 to 8) (size 9 to 14) (size 15 to 20)
#    0.000    1.250    1.250    3.000    5.250    8.500 
#    0.000    0.000    0.000    0.000    0.000    0.000 
#    0.000    0.000    0.000    0.000    0.000    0.000 
#
# Total GULP energy -178906.070092 kJ/mol
# GULP energy per Si atom -5590.814690 kJ/mol
# Density = 2.325944 g / cm^3
# Si number density = 23.312503 Si / 1000 Ang^3
#
#
#
# Elastic Constant Matrix: (Units=GPa)
#
#
# Indices 1 2 3 4 5 6 
#
# 1 77.8024 19.7701 3.5782 0.0000 2.3072 0.0000
# 2 19.7701 63.7971 1.2106 0.0000 -3.6492 0.0000
# 3 3.5782 1.2106 88.1639 0.0000 -1.6558 0.0000
# 4 0.0000 0.0000 0.0000 25.9293 0.0000 -8.2078
# 5 2.3072 -3.6492 -1.6558 0.0000 43.9908 0.0000
# 6 0.0000 0.0000 0.0000 -8.2078 0.0000 32.5060
#
#
#
# Elastic Compliance Matrix: (Units=1/GPa)
#
#
# Indices 1 2 3 4 5 6 
#
# 1 0.014029 -0.004402 -0.000530 0.000000 -0.001121 0.000000
# 2 -0.004402 0.017134 -0.000026 0.000000 0.001651 0.000000
# 3 -0.000530 -0.000026 0.011373 0.000000 0.000454 0.000000
# 4 0.000000 0.000000 0.000000 0.041917 0.000000 0.010584
# 5 -0.001121 0.001651 0.000454 0.000000 0.022945 0.000000
# 6 0.000000 0.000000 0.000000 0.010584 0.000000 0.033436
#
#
# Mechanical properties :
#
#
# Convention : Reuss Voigt Hill
#
# Bulk Modulus (GPa) = 30.65478 30.98680 30.82079
# Shear Modulus (GPa) = 30.93650 34.16553 32.55101
#
# Velocity S-wave (km/s) = 3.64680 3.83240 3.74075
# Velocity P-wave (km/s) = 5.55970 5.73618 5.64863
#
# Compressibility (1/GPa) = 0.03262134
#
# Stress axis : x y z
#
# Youngs Moduli (GPa) = 71.28010 58.36479 87.92835
#
# Poissons Ratio (x) = 0.25690 0.04660
# Poissons Ratio (y) = 0.31374 0.00225
# Poissons Ratio (z) = 0.03778 0.00149
#
# Static dielectric constant tensor:
#      x y z
#    x 1.885820 0.000000 0.014650 
#    y 0.000000 1.915450 0.000000 
#    z 0.014650 0.000000 1.873300 
# 
# From -- ./inp_files/215920.got.cif
#   From: 2010.05.17/outbox.cif.g08.bks.cpg/sg15_108_cif.got.tgz:215920.got - 2010.06.03 18:47:42.
