data_PCOD9292685
_publ_section_title
;
Structure prediction by ZEFSAII (Michael W. Deem and Ramdas Pophale) SiO2 
 PCOD9292685
Probable space group: C 2/C
;
_chemical_formula_sum "Si O2"
_cell_formula_units_Z 56
_cell_length_a 11.284076
_cell_length_b 8.821733
_cell_length_c 29.003917
_cell_angle_alpha 90.000000
_cell_angle_beta 68.369451
_cell_angle_gamma 90.000000
_cell_volume 2683.881721
_symmetry_space_group_name_H-M "C 2/C"
_symmetry_group_IT_number 15
_symmetry_cell_setting 'monoclinic'
loop_
_space_group_symop_operation_xyz
x,y,z
-x,y,1/2-z
-x,-y,-z
x,-y,1/2+z
1/2+x,1/2+y,z
1/2-x,1/2+y,1/2-z
1/2-x,1/2-y,-z
1/2+x,1/2-y,1/2+z
loop_
_atom_site_type_symbol
_atom_site_label
_atom_site_fract_x
_atom_site_fract_y
_atom_site_fract_z
Si Si1 0.513897 0.508242 0.325979
Si Si2 0.309752 0.030065 0.902348
Si Si3 0.685709 0.994319 0.701504
Si Si4 0.845149 0.137924 0.429598
Si Si5 0.500000 0.739170 0.750000
Si Si6 0.934218 0.860210 0.534712
Si Si7 0.123645 0.438473 0.508127
Si Si8 0.500000 0.756236 0.250000
O O1 0.662075 0.504491 0.319240
O O2 0.417549 0.532135 0.382197
O O3 0.489825 0.363914 0.296917
O O4 0.492223 0.651298 0.295730
O O5 0.287318 0.209604 0.915090
O O6 0.366087 0.007366 0.843663
O O7 0.180094 0.934157 0.920742
O O8 0.383632 0.962240 0.935922
O O9 0.623755 0.846424 0.733072
O O10 0.623896 0.137960 0.735600
O O11 0.955164 0.200415 0.447895
O O12 0.742893 0.037644 0.472103
O O13 0.876964 0.736126 0.508313
O O14 0.000000 0.000000 0.500000
O O15 0.000000 0.500000 0.500000
#
# Coordination Sequence:
#
# PCOD9292685 Si02
#       8
#     8   8   8   8   4   8   8   4
#     4  11  23  43  69  96 131 172 220 274 338 392
#     4  12  24  44  67 100 134 177 228 271 334 400
#     4  11  23  43  69  96 131 172 221 275 333 394
#     4  12  25  44  68 101 137 176 228 278 330 403
#     4  10  26  44  66 100 134 166 224 282 326 412
#     4  12  25  44  70  94 138 180 218 281 330 399
#     4  12  26  45  68 100 141 180 222 275 332 397
#     4  10  22  44  66  94 128 172 214 274 342 390
#
# _framework density 20.865300999999999
#
# number of rings (size 3 to 8) (size 9 to 14) (size 15 to 20)
#    0.000    0.571    5.714    2.571    2.000    0.000 
#    2.571    1.429    0.000    0.000    0.000    0.000 
#    0.000    0.000    0.000    0.000    0.000    0.000 
#
# Total GULP energy -156483.485463 kJ/mol
# GULP energy per Si atom -5588.695909 kJ/mol
# Density = 2.081781 g / cm^3
# Si number density = 20.865301 Si / 1000 Ang^3
#
#
#
# Elastic Constant Matrix: (Units=GPa)
#
#
# Indices 1 2 3 4 5 6 
#
# 1 90.4469 11.9810 -2.1991 0.0000 4.0121 0.0000
# 2 11.9810 109.0130 5.1303 0.0000 3.0977 0.0000
# 3 -2.1991 5.1303 54.5759 0.0000 8.7502 0.0000
# 4 0.0000 0.0000 0.0000 23.4548 0.0000 3.7664
# 5 4.0121 3.0977 8.7502 0.0000 24.6635 0.0000
# 6 0.0000 0.0000 0.0000 3.7664 0.0000 22.0828
#
#
#
# Elastic Compliance Matrix: (Units=1/GPa)
#
#
# Indices 1 2 3 4 5 6 
#
# 1 0.011330 -0.001230 0.000894 0.000000 -0.002006 0.000000
# 2 -0.001230 0.009366 -0.000820 0.000000 -0.000685 0.000000
# 3 0.000894 -0.000820 0.019555 0.000000 -0.006980 0.000000
# 4 0.000000 0.000000 0.000000 0.043836 0.000000 -0.007476
# 5 -0.002006 -0.000685 -0.006980 0.000000 0.043435 0.000000
# 6 0.000000 0.000000 0.000000 -0.007476 0.000000 0.046559
#
#
# Mechanical properties :
#
#
# Convention : Reuss Voigt Hill
#
# Bulk Modulus (GPa) = 26.35858 31.54005 28.94932
# Shear Modulus (GPa) = 26.44929 29.98179 28.21554
#
# Velocity S-wave (km/s) = 3.56423 3.79479 3.68131
# Velocity P-wave (km/s) = 5.44045 5.86083 5.65455
#
# Compressibility (1/GPa) = 0.03793831
#
# Stress axis : x y z
#
# Youngs Moduli (GPa) = 88.26228 106.76347 51.13682
#
# Poissons Ratio (x) = 0.13135 -0.04570
# Poissons Ratio (y) = 0.10859 0.04194
# Poissons Ratio (z) = -0.07888 0.08757
#
# Static dielectric constant tensor:
#      x y z
#    x 1.761540 0.000000 0.001290 
#    y 0.000000 1.773790 0.000000 
#    z 0.001290 0.000000 1.773890 
# 
# From -- ./inp_files/291547.got.cif
#   From: 2010.05.17/outbox.cif.g08.bks.cpg/sg15_146_cif.got.tgz:291547.got - 2010.06.03 18:47:42.
