data_PCOD9292539
_publ_section_title
;
Structure prediction by ZEFSAII (Michael W. Deem and Ramdas Pophale) SiO2 
 PCOD9292539
Probable space group: C 2/C
;
_chemical_formula_sum "Si O2"
_cell_formula_units_Z 48
_cell_length_a 10.153023
_cell_length_b 9.037881
_cell_length_c 25.928755
_cell_angle_alpha 90.000000
_cell_angle_beta 101.112810
_cell_angle_gamma 90.000000
_cell_volume 2334.657319
_symmetry_space_group_name_H-M "C 2/C"
_symmetry_group_IT_number 15
_symmetry_cell_setting 'monoclinic'
loop_
_space_group_symop_operation_xyz
x,y,z
-x,y,1/2-z
-x,-y,-z
x,-y,1/2+z
1/2+x,1/2+y,z
1/2-x,1/2+y,1/2-z
1/2-x,1/2-y,-z
1/2+x,1/2-y,1/2+z
loop_
_atom_site_type_symbol
_atom_site_label
_atom_site_fract_x
_atom_site_fract_y
_atom_site_fract_z
Si Si1 0.579947 0.503201 0.905195
Si Si2 0.142762 0.359799 0.233395
Si Si3 0.361716 0.997057 0.878016
Si Si4 0.895401 0.331752 0.052365
Si Si5 0.898586 0.014871 0.289809
Si Si6 0.108615 0.781979 0.058954
O O1 0.726982 0.548824 0.896995
O O2 0.588389 0.337935 0.927981
O O3 0.480871 0.500824 0.848683
O O4 0.517165 0.613574 0.941846
O O5 0.149150 0.456217 0.181884
O O6 0.147272 0.185769 0.220106
O O7 0.268887 0.410526 0.276925
O O8 0.000000 0.385405 0.250000
O O9 0.492986 0.071417 0.912053
O O10 0.371112 0.822350 0.889915
O O11 0.744274 0.373421 0.057631
O O12 0.907075 0.325369 0.991565
O O13 0.000000 0.982051 0.250000
#
# Coordination Sequence:
#
# PCOD9292539 Si02
#       6
#     8   8   8   8   8   8
#     4  11  23  39  65  91 123 162 203 254 309 364
#     4  11  26  41  65  91 122 163 204 252 308 370
#     4  11  23  41  62  94 125 159 206 255 303 365
#     4  10  22  44  60  92 128 163 207 254 308 362
#     4  11  24  43  61  88 125 157 201 257 305 364
#     4  10  24  39  67  90 125 166 205 256 308 365
#
# _framework density 20.559761999999999
#
# number of rings (size 3 to 8) (size 9 to 14) (size 15 to 20)
#    0.000    1.333    3.333    1.000    4.667    4.000 
#    0.000    0.000    0.000    0.000    0.000    0.000 
#    0.000    0.000    0.000    0.000    0.000    0.000 
#
# Total GULP energy -134224.823721 kJ/mol
# GULP energy per Si atom -5592.700988 kJ/mol
# Density = 2.051297 g / cm^3
# Si number density = 20.559762 Si / 1000 Ang^3
#
#
#
# Elastic Constant Matrix: (Units=GPa)
#
#
# Indices 1 2 3 4 5 6 
#
# 1 78.2344 13.7355 11.1447 0.0000 0.8148 0.0000
# 2 13.7355 24.5102 0.0886 0.0000 -14.6001 0.0000
# 3 11.1447 0.0886 51.3661 0.0000 7.0572 0.0000
# 4 0.0000 0.0000 0.0000 25.8675 0.0000 9.8810
# 5 0.8148 -14.6001 7.0572 0.0000 39.0149 0.0000
# 6 0.0000 0.0000 0.0000 9.8810 0.0000 22.6429
#
#
#
# Elastic Compliance Matrix: (Units=1/GPa)
#
#
# Indices 1 2 3 4 5 6 
#
# 1 0.015096 -0.010737 -0.002729 0.000000 -0.003840 0.000000
# 2 -0.010737 0.060553 -0.000942 0.000000 0.023055 0.000000
# 3 -0.002729 -0.000942 0.020615 0.000000 -0.004025 0.000000
# 4 0.000000 0.000000 0.000000 0.046392 0.000000 -0.020245
# 5 -0.003840 0.023055 -0.004025 0.000000 0.035067 0.000000
# 6 0.000000 0.000000 0.000000 -0.020245 0.000000 0.052998
#
#
# Mechanical properties :
#
#
# Convention : Reuss Voigt Hill
#
# Bulk Modulus (GPa) = 14.82663 22.67203 18.74933
# Shear Modulus (GPa) = 17.72924 26.11451 21.92188
#
# Velocity S-wave (km/s) = 2.93973 3.56782 3.26889
# Velocity P-wave (km/s) = 4.33010 5.29375 4.83599
#
# Compressibility (1/GPa) = 0.06744620
#
# Stress axis : x y z
#
# Youngs Moduli (GPa) = 66.24284 16.51452 48.50875
#
# Poissons Ratio (x) = 0.17732 0.13239
# Poissons Ratio (y) = 0.71125 0.04571
# Poissons Ratio (z) = 0.18079 0.01556
#
# Static dielectric constant tensor:
#      x y z
#    x 1.711930 0.000000 -0.004490 
#    y 0.000000 1.701960 0.000000 
#    z -0.004490 0.000000 1.736470 
# 
# From -- ./inp_files/263068.got.cif
#   From: 2010.05.17/outbox.cif.g08.bks.cpg/sg15_132_cif.got.tgz:263068.got - 2010.06.03 18:47:42.
