data_PCOD9292701
_publ_section_title
;
Structure prediction by ZEFSAII (Michael W. Deem and Ramdas Pophale) SiO2 
 PCOD9292701
Probable space group: C 2/C
;
_chemical_formula_sum "Si O2"
_cell_formula_units_Z 36
_cell_length_a 28.002200
_cell_length_b 5.574599
_cell_length_c 24.598692
_cell_angle_alpha 90.000000
_cell_angle_beta 159.814635
_cell_angle_gamma 90.000000
_cell_volume 1324.983567
_symmetry_space_group_name_H-M "C 2/C"
_symmetry_group_IT_number 15
_symmetry_cell_setting 'monoclinic'
loop_
_space_group_symop_operation_xyz
x,y,z
-x,y,1/2-z
-x,-y,-z
x,-y,1/2+z
1/2+x,1/2+y,z
1/2-x,1/2+y,1/2-z
1/2-x,1/2-y,-z
1/2+x,1/2-y,1/2+z
loop_
_atom_site_type_symbol
_atom_site_label
_atom_site_fract_x
_atom_site_fract_y
_atom_site_fract_z
Si Si1 0.000000 0.512167 0.250000
Si Si2 0.332569 0.757688 0.145848
Si Si3 0.382870 0.697703 0.880953
Si Si4 0.714809 0.236481 0.548773
Si Si5 0.583854 0.082794 0.515888
O O1 0.018084 0.335777 0.217763
O O2 0.124002 0.690440 0.397549
O O3 0.313354 0.502869 0.154656
O O4 0.281293 0.001073 0.120184
O O5 0.250000 0.750000 0.000000
O O6 0.222446 0.651793 0.698644
O O7 0.402270 0.797399 0.962693
O O8 0.500000 0.500000 0.000000
O O9 0.440954 0.864642 0.893995
O O10 0.610508 0.204683 0.487644
#
# Coordination Sequence:
#
# PCOD9292701 Si02
#       5
#     4   8   8   8   8
#     4  10  22  44  66  96 138 182 224 294 350 422
#     4  10  23  43  63  96 137 179 232 288 349 414
#     4  11  24  47  72  99 148 184 237 302 363 429
#     4  11  26  41  71 101 137 183 238 288 353 429
#     4  11  26  44  72 107 138 192 238 297 364 433
#
# _framework density 27.17015
#
# number of rings (size 3 to 8) (size 9 to 14) (size 15 to 20)
#    0.000    1.333    2.222    2.667    6.222    9.778 
#    0.000    0.000    0.000    0.000    0.000    0.000 
#    0.000    0.000    0.000    0.000    0.000    0.000 
#
# Total GULP energy -100493.663256 kJ/mol
# GULP energy per Si atom -5582.981292 kJ/mol
# Density = 2.710831 g / cm^3
# Si number density = 27.170150 Si / 1000 Ang^3
#
#
#
# Elastic Constant Matrix: (Units=GPa)
#
#
# Indices 1 2 3 4 5 6 
#
# 1 105.5733 51.5521 21.4331 0.0001 31.8225 0.0000
# 2 51.5521 147.9738 33.2224 0.0014 16.5509 -0.0011
# 3 21.4331 33.2224 92.5579 0.0004 26.7688 0.0002
# 4 0.0001 0.0014 0.0004 49.1827 0.0001 17.2491
# 5 31.8225 16.5509 26.7688 0.0001 47.9306 0.0000
# 6 0.0000 -0.0011 0.0002 17.2491 0.0000 47.8698
#
#
#
# Elastic Compliance Matrix: (Units=1/GPa)
#
#
# Indices 1 2 3 4 5 6 
#
# 1 0.013747 -0.004020 0.000594 0.000000 -0.008071 0.000000
# 2 -0.004020 0.008591 -0.002465 0.000000 0.001079 0.000000
# 3 0.000594 -0.002465 0.013619 0.000000 -0.007149 0.000000
# 4 0.000000 0.000000 0.000000 0.023274 0.000000 -0.008386
# 5 -0.008071 0.001079 -0.007149 0.000000 0.029842 0.000000
# 6 0.000000 0.000000 0.000000 -0.008386 0.000000 0.023912
#
#
# Mechanical properties :
#
#
# Convention : Reuss Voigt Hill
#
# Bulk Modulus (GPa) = 41.36507 62.05782 51.71144
# Shear Modulus (GPa) = 37.64350 44.98979 41.31665
#
# Velocity S-wave (km/s) = 3.72623 4.07363 3.90380
# Velocity P-wave (km/s) = 5.81125 6.70940 6.27641
#
# Compressibility (1/GPa) = 0.02417499
#
# Stress axis : x y z
#
# Youngs Moduli (GPa) = 72.74201 116.39866 73.42748
#
# Poissons Ratio (x) = 0.46791 -0.04359
# Poissons Ratio (y) = 0.29242 0.18099
# Poissons Ratio (z) = -0.04318 0.28691
#
# Static dielectric constant tensor:
#      x y z
#    x 2.181540 0.000000 0.057640 
#    y 0.000000 2.547220 0.000000 
#    z 0.057640 0.000000 2.397670 
# 
# From -- ./inp_files/319893.got.cif
#   From: 2010.05.17/outbox.cif.g08.bks.cpg/sg15_160_cif.got.tgz:319893.got - 2010.06.03 18:47:42.
