data_PCOD9292674
_publ_section_title
;
Structure prediction by ZEFSAII (Michael W. Deem and Ramdas Pophale) SiO2 
 PCOD9292674
Probable space group: C 2/C
;
_chemical_formula_sum "Si O2"
_cell_formula_units_Z 44
_cell_length_a 24.674076
_cell_length_b 6.423757
_cell_length_c 13.717954
_cell_angle_alpha 90.000000
_cell_angle_beta 77.415349
_cell_angle_gamma 90.000000
_cell_volume 2122.062208
_symmetry_space_group_name_H-M "C 2/C"
_symmetry_group_IT_number 15
_symmetry_cell_setting 'monoclinic'
loop_
_space_group_symop_operation_xyz
x,y,z
-x,y,1/2-z
-x,-y,-z
x,-y,1/2+z
1/2+x,1/2+y,z
1/2-x,1/2+y,1/2-z
1/2-x,1/2-y,-z
1/2+x,1/2-y,1/2+z
loop_
_atom_site_type_symbol
_atom_site_label
_atom_site_fract_x
_atom_site_fract_y
_atom_site_fract_z
Si Si1 0.138042 0.890192 0.343223
Si Si2 0.892940 0.949780 0.855143
Si Si3 0.500000 0.193018 0.750000
Si Si4 0.191803 0.668207 0.485184
Si Si5 0.136710 0.270367 0.481942
Si Si6 0.049633 0.555203 0.407869
O O1 0.180923 0.725534 0.375021
O O2 0.076738 0.785475 0.387348
O O3 0.135504 0.970559 0.233727
O O4 0.152724 0.088855 0.402642
O O5 0.951936 0.839901 0.813569
O O6 0.896897 0.156034 0.919538
O O7 0.855044 0.786174 0.930844
O O8 0.469088 0.042290 0.686475
O O9 0.250000 0.750000 0.500000
O O10 0.184594 0.421130 0.501974
O O11 0.098316 0.420184 0.434931
O O12 0.000000 0.500000 0.500000
#
# Coordination Sequence:
#
# PCOD9292674 Si02
#       6
#     8   8   4   8   8   8
#     4  10  23  42  63  99 133 171 229 280 342 414
#     4  11  25  41  65 104 132 180 230 281 348 412
#     4  12  24  40  66 100 140 180 238 284 342 418
#     4  10  24  48  69  97 133 178 224 285 350 409
#     4  10  22  44  66  89 141 168 219 283 338 407
#     4  11  24  38  61  95 135 184 225 280 340 400
#
# _framework density 20.734548
#
# number of rings (size 3 to 8) (size 9 to 14) (size 15 to 20)
#    0.000    1.455    1.818    3.273    7.636    4.364 
#    6.545    0.000    0.000    0.000    0.000    0.000 
#    0.000    0.000    0.000    0.000    0.000    0.000 
#
# Total GULP energy -122626.026856 kJ/mol
# GULP energy per Si atom -5573.910312 kJ/mol
# Density = 2.068736 g / cm^3
# Si number density = 20.734548 Si / 1000 Ang^3
#
#
#
# Elastic Constant Matrix: (Units=GPa)
#
#
# Indices 1 2 3 4 5 6 
#
# 1 93.9160 34.6323 21.2634 0.0000 12.2414 0.0000
# 2 34.6323 123.1066 31.9697 0.0000 4.1995 0.0000
# 3 21.2634 31.9697 88.9743 0.0000 23.4938 0.0000
# 4 0.0000 0.0000 0.0000 37.9132 0.0000 4.2829
# 5 12.2414 4.1995 23.4938 0.0000 26.5236 0.0000
# 6 0.0000 0.0000 0.0000 4.2829 0.0000 37.1340
#
#
#
# Elastic Compliance Matrix: (Units=1/GPa)
#
#
# Indices 1 2 3 4 5 6 
#
# 1 0.012594 -0.003227 -0.000588 0.000000 -0.004781 0.000000
# 2 -0.003227 0.009858 -0.003592 0.000000 0.003110 0.000000
# 3 -0.000588 -0.003592 0.016249 0.000000 -0.013553 0.000000
# 4 0.000000 0.000000 0.000000 0.026724 0.000000 -0.003082
# 5 -0.004781 0.003110 -0.013553 0.000000 0.051421 0.000000
# 6 0.000000 0.000000 0.000000 -0.003082 0.000000 0.027285
#
#
# Mechanical properties :
#
#
# Convention : Reuss Voigt Hill
#
# Bulk Modulus (GPa) = 41.86439 53.52529 47.69484
# Shear Modulus (GPa) = 29.95675 34.85628 32.40651
#
# Velocity S-wave (km/s) = 3.80514 4.10454 3.95767
# Velocity P-wave (km/s) = 6.28808 6.95223 6.62848
#
# Compressibility (1/GPa) = 0.02388665
#
# Stress axis : x y z
#
# Youngs Moduli (GPa) = 79.40204 101.44416 61.54227
#
# Poissons Ratio (x) = 0.32738 0.03617
# Poissons Ratio (y) = 0.25625 0.22106
# Poissons Ratio (z) = 0.04667 0.36439
#
# Static dielectric constant tensor:
#      x y z
#    x 1.759450 0.000000 0.009420 
#    y 0.000000 1.766700 0.000000 
#    z 0.009420 0.000000 1.774240 
# 
# From -- ./inp_files/175382.got.cif
#   From: 2010.05.17/outbox.cif.g08.bks.cpg/sg15_88_cif.got.tgz:175382.got - 2010.06.03 18:47:42.
