data_PCOD9292320
_publ_section_title
;
Structure prediction by ZEFSAII (Michael W. Deem and Ramdas Pophale) SiO2 
 PCOD9292320
Probable space group: C 2/C
;
_chemical_formula_sum "Si O2"
_cell_formula_units_Z 60
_cell_length_a 22.363554
_cell_length_b 9.755110
_cell_length_c 16.462166
_cell_angle_alpha 90.000000
_cell_angle_beta 43.784180
_cell_angle_gamma 90.000000
_cell_volume 2485.025393
_symmetry_space_group_name_H-M "C 2/C"
_symmetry_group_IT_number 15
_symmetry_cell_setting 'monoclinic'
loop_
_space_group_symop_operation_xyz
x,y,z
-x,y,1/2-z
-x,-y,-z
x,-y,1/2+z
1/2+x,1/2+y,z
1/2-x,1/2+y,1/2-z
1/2-x,1/2-y,-z
1/2+x,1/2-y,1/2+z
loop_
_atom_site_type_symbol
_atom_site_label
_atom_site_fract_x
_atom_site_fract_y
_atom_site_fract_z
Si Si1 0.614525 0.973365 0.472255
Si Si2 0.049309 0.491542 0.787676
Si Si3 0.296176 0.894697 0.948536
Si Si4 0.219204 0.249874 0.295984
Si Si5 0.500000 0.505500 0.250000
Si Si6 0.649734 0.459477 0.998221
Si Si7 0.403293 0.714750 0.557855
Si Si8 0.081672 0.801205 0.810550
O O1 0.607080 0.134715 0.469389
O O2 0.514726 0.929798 0.582139
O O3 0.663844 0.938257 0.506235
O O4 0.667329 0.893916 0.352389
O O5 0.130274 0.397112 0.691319
O O6 0.075897 0.646046 0.783127
O O7 0.000000 0.499704 0.750000
O O8 0.223605 0.998253 0.989446
O O9 0.250000 0.750000 0.000000
O O10 0.186425 0.155096 0.401902
O O11 0.321484 0.280462 0.200078
O O12 0.176454 0.179069 0.257596
O O13 0.433384 0.416293 0.367900
O O14 0.448022 0.599474 0.234602
O O15 0.625711 0.593314 0.972634
O O16 0.507719 0.687739 0.455263
#
# Coordination Sequence:
#
# PCOD9292320 Si02
#       8
#     8   8   8   8   4   8   8   8
#     4  10  23  42  64  96 127 170 225 265 333 392
#     4   9  19  38  68  94 125 167 228 275 317 394
#     4  11  22  40  64  96 132 172 215 278 334 384
#     4  12  24  42  65  99 137 174 218 277 350 400
#     4  10  24  44  64  98 136 174 228 272 336 408
#     4  11  25  43  65 100 134 178 224 273 338 399
#     4  10  24  43  67  96 131 171 229 277 320 406
#     4  10  22  43  69  97 131 179 225 279 330 392
#
# _framework density 24.144621999999998
#
# number of rings (size 3 to 8) (size 9 to 14) (size 15 to 20)
#    0.000    1.600    2.000    1.600    3.733    6.933 
#    2.400    0.000    0.000    0.000    0.000    0.000 
#    0.000    0.000    0.000    0.000    0.000    0.000 
#
# Total GULP energy -167546.372675 kJ/mol
# GULP energy per Si atom -5584.879089 kJ/mol
# Density = 2.408967 g / cm^3
# Si number density = 24.144622 Si / 1000 Ang^3
#
#
#
# Elastic Constant Matrix: (Units=GPa)
#
#
# Indices 1 2 3 4 5 6 
#
# 1 54.3300 -18.6695 -7.8530 0.0001 0.9179 0.0000
# 2 -18.6695 41.7844 13.4592 0.0002 -1.7757 0.0000
# 3 -7.8530 13.4592 137.2989 0.0001 -15.4109 0.0000
# 4 0.0001 0.0002 0.0001 34.0272 -0.0001 -2.8176
# 5 0.9179 -1.7757 -15.4109 -0.0001 27.0811 0.0000
# 6 0.0000 0.0000 0.0000 -2.8176 0.0000 18.9074
#
#
#
# Elastic Compliance Matrix: (Units=1/GPa)
#
#
# Indices 1 2 3 4 5 6 
#
# 1 0.021757 0.009625 0.000309 0.000000 0.000069 0.000000
# 2 0.009625 0.028972 -0.002257 0.000000 0.000289 0.000000
# 3 0.000309 -0.002257 0.008017 0.000000 0.004403 0.000000
# 4 0.000000 0.000000 0.000000 0.029755 0.000000 0.004434
# 5 0.000069 0.000289 0.004403 0.000000 0.039449 0.000000
# 6 0.000000 0.000000 0.000000 0.004434 0.000000 0.053550
#
#
# Mechanical properties :
#
#
# Convention : Reuss Voigt Hill
#
# Bulk Modulus (GPa) = 13.49572 23.03186 18.26379
# Shear Modulus (GPa) = 26.19909 32.43493 29.31701
#
# Velocity S-wave (km/s) = 3.29764 3.66916 3.48835
# Velocity P-wave (km/s) = 4.48341 5.24502 4.87910
#
# Compressibility (1/GPa) = 0.07409754
#
# Stress axis : x y z
#
# Youngs Moduli (GPa) = 45.96272 34.51609 124.74171
#
# Poissons Ratio (x) = -0.33220 -0.03851
# Poissons Ratio (y) = -0.44237 0.28156
# Poissons Ratio (z) = -0.01419 0.07791
#
# Static dielectric constant tensor:
#      x y z
#    x 1.953070 0.000000 -0.019360 
#    y 0.000000 1.879920 0.000000 
#    z -0.019360 0.000000 2.050020 
# 
# From -- ./inp_files/219305.got.cif
#   From: 2010.05.17/outbox.cif.g08.bks.cpg/sg15_110_cif.got.tgz:219305.got - 2010.06.03 18:47:42.
