data_PCOD9292054
_publ_section_title
;
Structure prediction by ZEFSAII (Michael W. Deem and Ramdas Pophale) SiO2 
 PCOD9292054
Probable space group: C 2/C
;
_chemical_formula_sum "Si O2"
_cell_formula_units_Z 56
_cell_length_a 17.510558
_cell_length_b 16.295722
_cell_length_c 14.275381
_cell_angle_alpha 90.000000
_cell_angle_beta 34.858671
_cell_angle_gamma 90.000000
_cell_volume 2328.191320
_symmetry_space_group_name_H-M "C 2/C"
_symmetry_group_IT_number 15
_symmetry_cell_setting 'monoclinic'
loop_
_space_group_symop_operation_xyz
x,y,z
-x,y,1/2-z
-x,-y,-z
x,-y,1/2+z
1/2+x,1/2+y,z
1/2-x,1/2+y,1/2-z
1/2-x,1/2-y,-z
1/2+x,1/2-y,1/2+z
loop_
_atom_site_type_symbol
_atom_site_label
_atom_site_fract_x
_atom_site_fract_y
_atom_site_fract_z
Si Si1 0.310215 0.880997 0.873964
Si Si2 0.349845 0.548127 0.735258
Si Si3 0.045470 0.505398 0.062153
Si Si4 0.218578 0.800200 0.436441
Si Si5 0.377480 0.289461 0.297540
Si Si6 0.007057 0.317438 0.133283
Si Si7 0.608886 0.476308 0.526436
O O1 0.438020 0.939468 0.726270
O O2 0.348166 0.798071 0.779190
O O3 0.254929 0.829270 0.019420
O O4 0.188878 0.943524 0.978994
O O5 0.408247 0.638727 0.693427
O O6 0.449877 0.489527 0.692953
O O7 0.359878 0.528214 0.615943
O O8 0.195985 0.537459 0.917844
O O9 0.048601 0.411512 0.091030
O O10 0.000000 0.500000 0.000000
O O11 0.250000 0.750000 0.500000
O O12 0.112832 0.745910 0.486694
O O13 0.358792 0.810286 0.242105
O O14 0.162102 0.890710 0.513666
O O15 0.500000 0.281833 0.250000
O O16 0.000000 0.294347 0.250000
#
# Coordination Sequence:
#
# PCOD9292054 Si02
#       7
#     8   8   8   8   8   8   8
#     4  11  25  46  72 100 148 182 245 304 351 442
#     4  11  26  43  74 105 140 188 238 296 368 428
#     4  12  25  44  69 104 139 188 235 288 367 430
#     4  10  22  43  65  97 137 178 228 284 348 418
#     4  11  26  46  72 110 140 191 245 301 366 421
#     4  10  23  40  64  98 135 175 224 280 342 409
#     4  11  23  50  70 102 146 187 238 300 360 443
#
# _framework density 24.053007999999998
#
# number of rings (size 3 to 8) (size 9 to 14) (size 15 to 20)
#    0.000    1.143    4.286    0.000    8.000    1.143 
#    5.143    1.429    0.000    0.000    0.000    0.000 
#    0.000    0.000    0.000    0.000    0.000    0.000 
#
# Total GULP energy -156313.862546 kJ/mol
# GULP energy per Si atom -5582.637948 kJ/mol
# Density = 2.399826 g / cm^3
# Si number density = 24.053008 Si / 1000 Ang^3
#
#
#
# Elastic Constant Matrix: (Units=GPa)
#
#
# Indices 1 2 3 4 5 6 
#
# 1 70.6586 52.1948 46.7005 0.0000 -24.2591 0.0000
# 2 52.1948 211.0248 56.7186 0.0000 -35.6681 0.0000
# 3 46.7005 56.7186 118.2805 0.0001 -47.5630 -0.0001
# 4 0.0000 0.0000 0.0001 29.6351 -0.0001 -16.7283
# 5 -24.2591 -35.6681 -47.5630 -0.0001 41.9603 0.0001
# 6 0.0000 0.0000 -0.0001 -16.7283 0.0001 26.2180
#
#
#
# Elastic Compliance Matrix: (Units=1/GPa)
#
#
# Indices 1 2 3 4 5 6 
#
# 1 0.021339 -0.003228 -0.005549 0.000000 0.003303 0.000000
# 2 -0.003228 0.006151 -0.000594 0.000000 0.002690 0.000000
# 3 -0.005549 -0.000594 0.017342 0.000000 0.015944 0.000000
# 4 0.000000 0.000000 0.000000 0.052738 0.000000 0.033649
# 5 0.003303 0.002690 0.015944 0.000000 0.046101 0.000000
# 6 0.000000 0.000000 0.000000 0.033649 0.000000 0.059612
#
#
# Mechanical properties :
#
#
# Convention : Reuss Voigt Hill
#
# Bulk Modulus (GPa) = 38.32857 79.02128 58.67493
# Shear Modulus (GPa) = 21.67122 35.85269 28.76195
#
# Velocity S-wave (km/s) = 3.00489 3.86498 3.46175
# Velocity P-wave (km/s) = 5.29233 7.26923 6.35808
#
# Compressibility (1/GPa) = 0.02609020
#
# Stress axis : x y z
#
# Youngs Moduli (GPa) = 46.86333 162.56422 57.66482
#
# Poissons Ratio (x) = 0.52479 0.31998
# Poissons Ratio (y) = 0.15128 0.03423
# Poissons Ratio (z) = 0.26004 0.09649
#
# Static dielectric constant tensor:
#      x y z
#    x 1.630020 0.000000 0.198190 
#    y 0.000000 1.860050 0.000000 
#    z 0.198190 0.000000 1.974780 
# 
# From -- ./inp_files/215701.got.cif
#   From: 2010.05.17/outbox.cif.g08.bks.cpg/sg15_108_cif.got.tgz:215701.got - 2010.06.03 18:47:42.
