data_PCOD9292176
_publ_section_title
;
Structure prediction by ZEFSAII (Michael W. Deem and Ramdas Pophale) SiO2 
 PCOD9292176
Probable space group: C 2/C
;
_chemical_formula_sum "Si O2"
_cell_formula_units_Z 44
_cell_length_a 25.398700
_cell_length_b 11.993252
_cell_length_c 12.456843
_cell_angle_alpha 90.000000
_cell_angle_beta 144.444680
_cell_angle_gamma 90.000000
_cell_volume 2206.468530
_symmetry_space_group_name_H-M "C 2/C"
_symmetry_group_IT_number 15
_symmetry_cell_setting 'monoclinic'
loop_
_space_group_symop_operation_xyz
x,y,z
-x,y,1/2-z
-x,-y,-z
x,-y,1/2+z
1/2+x,1/2+y,z
1/2-x,1/2+y,1/2-z
1/2-x,1/2-y,-z
1/2+x,1/2-y,1/2+z
loop_
_atom_site_type_symbol
_atom_site_label
_atom_site_fract_x
_atom_site_fract_y
_atom_site_fract_z
Si Si1 0.873802 0.982682 0.199374
Si Si2 0.753574 0.851197 0.637102
Si Si3 0.303154 0.914057 0.721171
Si Si4 0.132537 0.652218 0.729158
Si Si5 0.500000 0.622644 0.250000
Si Si6 0.556456 0.274369 0.058677
O O1 0.931074 0.888716 0.355380
O O2 0.830880 0.071656 0.210956
O O3 0.787810 0.927891 0.998172
O O4 0.932241 0.047328 0.207616
O O5 0.722620 0.900883 0.697460
O O6 0.797026 0.728733 0.720377
O O7 0.672147 0.844457 0.416147
O O8 0.359967 0.806776 0.781191
O O9 0.361920 0.025804 0.800889
O O10 0.035045 0.708903 0.563698
O O11 0.551719 0.695926 0.424435
#
# Coordination Sequence:
#
# PCOD9292176 Si02
#       6
#     8   8   8   8   4   8
#     4  11  25  42  64 100 129 167 217 271 314 378
#     4  10  22  43  67  94 129 170 219 261 315 391
#     4  11  25  41  69  92 135 172 206 263 337 373
#     4  10  23  43  65  97 130 169 217 266 312 386
#     4  12  24  42  70  94 124 180 218 260 320 378
#     4  12  24  43  67  98 130 167 218 269 315 387
#
# _framework density 19.941369000000002
#
# number of rings (size 3 to 8) (size 9 to 14) (size 15 to 20)
#    0.000    1.091    1.818    3.818   10.182    0.000 
#    0.000    0.000    0.000    0.000    0.000    0.000 
#    0.000    0.000    0.000    0.000    0.000    0.000 
#
# Total GULP energy -123099.608853 kJ/mol
# GULP energy per Si atom -5595.436766 kJ/mol
# Density = 1.989598 g / cm^3
# Si number density = 19.941369 Si / 1000 Ang^3
#
#
#
# Elastic Constant Matrix: (Units=GPa)
#
#
# Indices 1 2 3 4 5 6 
#
# 1 52.3539 7.5177 2.3984 0.0000 4.5100 0.0000
# 2 7.5177 87.3941 19.2914 0.0000 -0.9600 0.0000
# 3 2.3984 19.2914 57.0952 0.0000 7.0095 0.0000
# 4 0.0000 0.0000 0.0000 42.2807 0.0000 1.7544
# 5 4.5100 -0.9600 7.0095 0.0000 22.2568 0.0000
# 6 0.0000 0.0000 0.0000 1.7544 0.0000 27.7245
#
#
#
# Elastic Compliance Matrix: (Units=1/GPa)
#
#
# Indices 1 2 3 4 5 6 
#
# 1 0.019705 -0.001806 0.000293 0.000000 -0.004163 0.000000
# 2 -0.001806 0.012610 -0.004469 0.000000 0.002317 0.000000
# 3 0.000293 -0.004469 0.019809 0.000000 -0.006491 0.000000
# 4 0.000000 0.000000 0.000000 0.023714 0.000000 -0.001501
# 5 -0.004163 0.002317 -0.006491 0.000000 0.047918 0.000000
# 6 0.000000 0.000000 0.000000 -0.001501 0.000000 0.036164
#
#
# Mechanical properties :
#
#
# Convention : Reuss Voigt Hill
#
# Bulk Modulus (GPa) = 24.89951 28.36202 26.63076
# Shear Modulus (GPa) = 26.98767 29.62811 28.30789
#
# Velocity S-wave (km/s) = 3.68278 3.85874 3.77179
# Velocity P-wave (km/s) = 5.53148 5.84010 5.68788
#
# Compressibility (1/GPa) = 0.04016143
#
# Stress axis : x y z
#
# Youngs Moduli (GPa) = 50.74793 79.30380 50.48157
#
# Poissons Ratio (x) = 0.14319 -0.01481
# Poissons Ratio (y) = 0.09163 0.22561
# Poissons Ratio (z) = -0.01489 0.35443
#
# Static dielectric constant tensor:
#      x y z
#    x 1.672750 0.000000 0.018210 
#    y 0.000000 1.700220 0.000000 
#    z 0.018210 0.000000 1.696250 
# 
# From -- ./inp_files/95076.got.cif
#   From: 2010.05.17/outbox.cif.g08.bks.cpg/sg15_48_cif.got.tgz:95076.got - 2010.06.03 18:47:42.
