data_PCOD9292606
_publ_section_title
;
Structure prediction by ZEFSAII (Michael W. Deem and Ramdas Pophale) SiO2 
 PCOD9292606
Probable space group: C 2/C
;
_chemical_formula_sum "Si O2"
_cell_formula_units_Z 60
_cell_length_a 5.639724
_cell_length_b 21.630747
_cell_length_c 25.221410
_cell_angle_alpha 90.000000
_cell_angle_beta 118.450494
_cell_angle_gamma 90.000000
_cell_volume 2705.208662
_symmetry_space_group_name_H-M "C 2/C"
_symmetry_group_IT_number 15
_symmetry_cell_setting 'monoclinic'
loop_
_space_group_symop_operation_xyz
x,y,z
-x,y,1/2-z
-x,-y,-z
x,-y,1/2+z
1/2+x,1/2+y,z
1/2-x,1/2+y,1/2-z
1/2-x,1/2-y,-z
1/2+x,1/2-y,1/2+z
loop_
_atom_site_type_symbol
_atom_site_label
_atom_site_fract_x
_atom_site_fract_y
_atom_site_fract_z
Si Si1 0.494170 0.665867 0.502762
Si Si2 0.567129 0.353539 0.383502
Si Si3 0.983343 0.353286 0.805214
Si Si4 0.736525 0.493155 0.380157
Si Si5 0.681608 0.556726 0.086904
Si Si6 0.825222 0.746416 0.678071
Si Si7 0.970099 0.262747 0.410676
Si Si8 0.500000 0.551609 0.250000
O O1 0.371916 0.662942 0.548500
O O2 0.441677 0.598512 0.472987
O O3 0.798309 0.690618 0.543348
O O4 0.393135 0.716109 0.449453
O O5 0.674527 0.420906 0.381974
O O6 0.270389 0.324837 0.342151
O O7 0.735964 0.306889 0.366414
O O8 0.894481 0.299591 0.834841
O O9 0.750145 0.403194 0.768196
O O10 0.000000 0.321623 0.750000
O O11 0.208673 0.395046 0.857096
O O12 0.570102 0.522615 0.411796
O O13 0.578699 0.512638 0.309858
O O14 0.051343 0.516670 0.404666
O O15 0.938740 0.769558 0.633508
O O16 0.000000 0.747567 0.750000
#
# Coordination Sequence:
#
# PCOD9292606 Si02
#       8
#     8   8   8   8   8   8   8   4
#     4  10  24  44  73 100 142 182 242 297 364 414
#     4  11  26  47  67  99 144 193 236 289 354 433
#     4  11  22  41  68 100 141 172 235 293 360 411
#     4  11  27  45  71 104 143 192 243 286 360 423
#     4  11  26  44  74 106 136 190 238 297 350 425
#     4  11  26  40  70 106 139 181 235 299 362 425
#     4  10  24  45  69 103 141 185 235 299 365 426
#     4  10  22  44  64  98 138 186 226 296 346 428
#
# _framework density 22.179437
#
# number of rings (size 3 to 8) (size 9 to 14) (size 15 to 20)
#    0.000    1.333    2.000    1.200   13.067    3.200 
#    2.400    0.000    0.000    0.000    0.000    0.000 
#    0.000    0.000    0.000    0.000    0.000    0.000 
#
# Total GULP energy -167131.440532 kJ/mol
# GULP energy per Si atom -5571.048018 kJ/mol
# Density = 2.212896 g / cm^3
# Si number density = 22.179437 Si / 1000 Ang^3
#
#
#
# Elastic Constant Matrix: (Units=GPa)
#
#
# Indices 1 2 3 4 5 6 
#
# 1 84.8800 47.7500 21.8015 0.0000 -15.9174 0.0000
# 2 47.7500 128.5733 22.6083 0.0000 -16.6530 0.0000
# 3 21.8015 22.6083 80.7446 0.0000 -4.7673 0.0000
# 4 0.0000 0.0000 0.0000 -73.0796 0.0000 103.1429
# 5 -15.9174 -16.6530 -4.7673 0.0000 25.0298 0.0000
# 6 0.0000 0.0000 0.0000 103.1429 0.0000 -93.9219
#
#
#
# Elastic Compliance Matrix: (Units=1/GPa)
#
#
# Indices 1 2 3 4 5 6 
#
# 1 0.016413 -0.004744 -0.002704 0.000000 0.006767 0.000000
# 2 -0.004744 0.010239 -0.001378 0.000000 0.003533 0.000000
# 3 -0.002704 -0.001378 0.013497 0.000000 -0.000065 0.000000
# 4 0.000000 0.000000 0.000000 0.024882 0.000000 0.027325
# 5 0.006767 0.003533 -0.000065 0.000000 0.046594 0.000000
# 6 0.000000 0.000000 0.000000 0.027325 0.000000 0.019360
#
#
# Mechanical properties :
#
#
# Convention : Reuss Voigt Hill
#
# Bulk Modulus (GPa) = 44.44662 53.16862 48.80762
# Shear Modulus (GPa) = 32.02334 -14.92515 8.54909
#
# Velocity S-wave (km/s) = 3.80390 -2.59690 1.96542
# Velocity P-wave (km/s) = 6.27502 3.87714 5.21575
#
# Compressibility (1/GPa) = 0.02249890
#
# Stress axis : x y z
#
# Youngs Moduli (GPa) = 60.92551 97.66289 74.09239
#
# Poissons Ratio (x) = 0.46329 0.20034
# Poissons Ratio (y) = 0.28902 0.10206
# Poissons Ratio (z) = 0.16474 0.13453
#
# Static dielectric constant tensor:
#      x y z
#    x 2.201710 0.000000 0.159760 
#    y 0.000000 1.815390 0.000000 
#    z 0.159760 0.000000 1.909470 
# 
# From -- ./inp_files/286505.got.cif
#   From: 2010.05.17/outbox.cif.g08.bks.cpg/sg15_144_cif.got.tgz:286505.got - 2010.06.03 18:47:42.
