data_PCOD9292224
_publ_section_title
;
Structure prediction by ZEFSAII (Michael W. Deem and Ramdas Pophale) SiO2 
 PCOD9292224
Probable space group: C 2/C
;
_chemical_formula_sum "Si O2"
_cell_formula_units_Z 56
_cell_length_a 18.800614
_cell_length_b 10.908806
_cell_length_c 24.907271
_cell_angle_alpha 90.000000
_cell_angle_beta 152.340774
_cell_angle_gamma 90.000000
_cell_volume 2371.327928
_symmetry_space_group_name_H-M "C 2/C"
_symmetry_group_IT_number 15
_symmetry_cell_setting 'monoclinic'
loop_
_space_group_symop_operation_xyz
x,y,z
-x,y,1/2-z
-x,-y,-z
x,-y,1/2+z
1/2+x,1/2+y,z
1/2-x,1/2+y,1/2-z
1/2-x,1/2-y,-z
1/2+x,1/2-y,1/2+z
loop_
_atom_site_type_symbol
_atom_site_label
_atom_site_fract_x
_atom_site_fract_y
_atom_site_fract_z
Si Si1 0.140430 0.829460 0.968219
Si Si2 0.438952 0.155544 0.492580
Si Si3 0.606247 0.760216 0.652044
Si Si4 0.158367 0.492985 0.824208
Si Si5 0.106727 0.957637 0.769274
Si Si6 0.184944 0.475769 0.219652
Si Si7 0.607220 0.734684 0.769868
O O1 0.050094 0.743686 0.948856
O O2 0.239017 0.918539 0.071981
O O3 0.250000 0.750000 0.000000
O O4 0.551530 0.951604 0.087077
O O5 0.475284 0.215781 0.459368
O O6 0.259014 0.122424 0.372346
O O7 0.688137 0.628643 0.703095
O O8 0.718563 0.879591 0.733890
O O9 0.526535 0.761557 0.657880
O O10 0.133920 0.540081 0.747393
O O11 0.213305 0.352103 0.853363
O O12 0.000000 0.486778 0.750000
O O13 0.166585 0.096902 0.804472
O O14 0.000000 0.946678 0.750000
O O15 0.985926 0.912761 0.644867
O O16 0.500000 0.727876 0.750000
#
# Coordination Sequence:
#
# PCOD9292224 Si02
#       7
#     8   8   8   8   8   8   8
#     4  12  24  39  69 106 144 186 234 293 346 419
#     4  12  24  41  69 104 143 187 235 291 357 420
#     4  11  23  45  70 101 141 181 242 290 359 430
#     4  10  22  43  68 103 140 184 237 288 355 420
#     4  11  24  45  68 106 142 185 242 289 355 422
#     4  11  24  45  70 102 141 190 235 298 358 429
#     4   9  22  47  70  95 141 181 230 295 348 430
#
# _framework density 23.615459000000001
#
# number of rings (size 3 to 8) (size 9 to 14) (size 15 to 20)
#    0.000    1.143    2.857    3.000    2.000    0.000 
#   10.286    3.571    0.000    0.000    0.000    0.000 
#    0.000    0.000    0.000    0.000    0.000    0.000 
#
# Total GULP energy -156289.084618 kJ/mol
# GULP energy per Si atom -5581.753022 kJ/mol
# Density = 2.356171 g / cm^3
# Si number density = 23.615459 Si / 1000 Ang^3
#
#
#
# Elastic Constant Matrix: (Units=GPa)
#
#
# Indices 1 2 3 4 5 6 
#
# 1 143.6873 23.8711 48.2536 -0.0006 -44.0253 -0.0005
# 2 23.8711 99.3997 13.4566 -0.0004 -12.4301 -0.0003
# 3 48.2536 13.4566 88.1563 -0.0011 -31.0531 -0.0011
# 4 -0.0006 -0.0004 -0.0011 35.7008 -0.0006 -0.6883
# 5 -44.0253 -12.4301 -31.0531 -0.0006 51.7168 -0.0006
# 6 -0.0005 -0.0003 -0.0011 -0.6883 -0.0006 22.5669
#
#
#
# Elastic Compliance Matrix: (Units=1/GPa)
#
#
# Indices 1 2 3 4 5 6 
#
# 1 0.010204 -0.001214 -0.003098 0.000000 0.006534 0.000000
# 2 -0.001214 0.010572 -0.000530 0.000000 0.001189 0.000000
# 3 -0.003098 -0.000530 0.015405 0.000001 0.006485 0.000001
# 4 0.000000 0.000000 0.000001 0.028027 0.000001 0.000855
# 5 0.006534 0.001189 0.006485 0.000001 0.029078 0.000001
# 6 0.000000 0.000000 0.000001 0.000855 0.000001 0.044339
#
#
# Mechanical properties :
#
#
# Convention : Reuss Voigt Hill
#
# Bulk Modulus (GPa) = 37.74231 55.82290 46.78260
# Shear Modulus (GPa) = 32.02226 38.37437 35.19832
#
# Velocity S-wave (km/s) = 3.68637 4.03546 3.86486
# Velocity P-wave (km/s) = 5.84259 6.73817 6.30629
#
# Compressibility (1/GPa) = 0.02649547
#
# Stress axis : x y z
#
# Youngs Moduli (GPa) = 98.00356 94.58555 64.91599
#
# Poissons Ratio (x) = 0.11482 0.20112
# Poissons Ratio (y) = 0.11897 0.03444
# Poissons Ratio (z) = 0.30363 0.05018
#
# Static dielectric constant tensor:
#      x y z
#    x 1.931200 0.000000 -0.037880 
#    y 0.000000 2.051670 0.000000 
#    z -0.037880 0.000000 1.915040 
# 
# From -- ./inp_files/276835.got.cif
#   From: 2010.05.17/outbox.cif.g08.bks.cpg/sg15_139_cif.got.tgz:276835.got - 2010.06.03 18:47:42.
