data_PCOD9292268
_publ_section_title
;
Structure prediction by ZEFSAII (Michael W. Deem and Ramdas Pophale) SiO2 
 PCOD9292268
Probable space group: C 2/C
;
_chemical_formula_sum "Si O2"
_cell_formula_units_Z 44
_cell_length_a 7.479168
_cell_length_b 11.834293
_cell_length_c 24.130473
_cell_angle_alpha 90.000000
_cell_angle_beta 59.447589
_cell_angle_gamma 90.000000
_cell_volume 1839.278845
_symmetry_space_group_name_H-M "C 2/C"
_symmetry_group_IT_number 15
_symmetry_cell_setting 'monoclinic'
loop_
_space_group_symop_operation_xyz
x,y,z
-x,y,1/2-z
-x,-y,-z
x,-y,1/2+z
1/2+x,1/2+y,z
1/2-x,1/2+y,1/2-z
1/2-x,1/2-y,-z
1/2+x,1/2-y,1/2+z
loop_
_atom_site_type_symbol
_atom_site_label
_atom_site_fract_x
_atom_site_fract_y
_atom_site_fract_z
Si Si1 0.659456 0.448092 0.100744
Si Si2 0.797605 0.306075 0.613016
Si Si3 0.302180 0.779607 0.871293
Si Si4 0.224332 0.525144 0.210609
Si Si5 0.032050 0.870286 0.009475
Si Si6 0.500000 0.641814 0.250000
O O1 0.765436 0.569501 0.091047
O O2 0.720273 0.353527 0.135868
O O3 0.410737 0.463972 0.148419
O O4 0.691229 0.385904 0.036527
O O5 0.596574 0.290687 0.683595
O O6 0.992561 0.302974 0.624183
O O7 0.846169 0.207715 0.561502
O O8 0.311632 0.858630 0.817099
O O9 0.116071 0.816830 0.940299
O O10 0.321558 0.560558 0.253847
O O11 0.000000 0.467970 0.250000
O O12 0.000000 0.000000 0.000000
#
# Coordination Sequence:
#
# PCOD9292268 Si02
#       6
#     8   8   8   8   8   4
#     4  10  23  44  67 103 135 179 234 282 344 421
#     4  10  22  43  68  98 139 179 230 286 342 413
#     4  11  23  45  69 100 141 181 229 296 344 409
#     4  11  22  46  71  99 145 183 231 290 350 413
#     4  11  23  43  68 101 141 181 234 287 353 415
#     4  10  22  44  70 104 138 176 246 276 342 436
#
# _framework density 23.922419999999999
#
# number of rings (size 3 to 8) (size 9 to 14) (size 15 to 20)
#    0.000    1.455    3.636    2.182    0.000    3.636 
#   19.636    0.000    0.000    0.000    0.000    0.000 
#    0.000    0.000    0.000    0.000    0.000    0.000 
#
# Total GULP energy -122913.421527 kJ/mol
# GULP energy per Si atom -5586.973706 kJ/mol
# Density = 2.386797 g / cm^3
# Si number density = 23.922420 Si / 1000 Ang^3
#
#
#
# Elastic Constant Matrix: (Units=GPa)
#
#
# Indices 1 2 3 4 5 6 
#
# 1 73.8169 18.0829 6.5743 0.0000 -7.0911 0.0000
# 2 18.0829 161.2205 35.4816 0.0000 -3.1075 0.0000
# 3 6.5743 35.4816 103.8002 0.0000 -10.7683 0.0000
# 4 0.0000 0.0000 0.0000 17.9215 0.0000 14.2675
# 5 -7.0911 -3.1075 -10.7683 0.0000 30.9544 0.0000
# 6 0.0000 0.0000 0.0000 14.2675 0.0000 31.1549
#
#
#
# Elastic Compliance Matrix: (Units=1/GPa)
#
#
# Indices 1 2 3 4 5 6 
#
# 1 0.014222 -0.001522 -0.000060 0.000000 0.003084 0.000000
# 2 -0.001522 0.006871 -0.002300 0.000000 -0.000459 0.000000
# 3 -0.000060 -0.002300 0.010788 0.000000 0.003508 0.000000
# 4 0.000000 0.000000 0.000000 0.087814 0.000000 -0.040215
# 5 0.003084 -0.000459 0.003508 0.000000 0.034186 0.000000
# 6 0.000000 0.000000 0.000000 -0.040215 0.000000 0.050514
#
#
# Mechanical properties :
#
#
# Convention : Reuss Voigt Hill
#
# Bulk Modulus (GPa) = 41.46808 51.01282 46.24045
# Shear Modulus (GPa) = 22.70681 34.58609 28.64645
#
# Velocity S-wave (km/s) = 3.08423 3.80644 3.46421
# Velocity P-wave (km/s) = 5.48227 6.37881 5.94746
#
# Compressibility (1/GPa) = 0.02411494
#
# Stress axis : x y z
#
# Youngs Moduli (GPa) = 70.31550 145.54489 92.69747
#
# Poissons Ratio (x) = 0.22158 0.00560
# Poissons Ratio (y) = 0.10705 0.21318
# Poissons Ratio (z) = 0.00425 0.33472
#
# Static dielectric constant tensor:
#      x y z
#    x 1.971040 0.000000 0.002140 
#    y 0.000000 1.945410 0.000000 
#    z 0.002140 0.000000 1.971540 
# 
# From -- ./inp_files/230121.got.cif
#   From: 2010.05.17/outbox.cif.g08.bks.cpg/sg15_116_cif.got.tgz:230121.got - 2010.06.03 18:47:42.
