data_PCOD9292678
_publ_section_title
;
Structure prediction by ZEFSAII (Michael W. Deem and Ramdas Pophale) SiO2 
 PCOD9292678
Probable space group: C 2/C
;
_chemical_formula_sum "Si O2"
_cell_formula_units_Z 52
_cell_length_a 9.750910
_cell_length_b 11.115210
_cell_length_c 23.775199
_cell_angle_alpha 90.000000
_cell_angle_beta 99.827815
_cell_angle_gamma 90.000000
_cell_volume 2539.022502
_symmetry_space_group_name_H-M "C 2/C"
_symmetry_group_IT_number 15
_symmetry_cell_setting 'monoclinic'
loop_
_space_group_symop_operation_xyz
x,y,z
-x,y,1/2-z
-x,-y,-z
x,-y,1/2+z
1/2+x,1/2+y,z
1/2-x,1/2+y,1/2-z
1/2-x,1/2-y,-z
1/2+x,1/2-y,1/2+z
loop_
_atom_site_type_symbol
_atom_site_label
_atom_site_fract_x
_atom_site_fract_y
_atom_site_fract_z
Si Si1 0.573026 0.845279 0.159876
Si Si2 0.500000 0.306715 0.750000
Si Si3 0.665538 0.250162 0.051992
Si Si4 0.708569 0.018752 0.881090
Si Si5 0.249138 0.499953 0.592788
Si Si6 0.478454 0.589564 0.361433
Si Si7 0.361642 0.852754 0.518092
O O1 0.601316 0.782835 0.222244
O O2 0.432845 0.924487 0.153326
O O3 0.695003 0.920794 0.140618
O O4 0.536510 0.727900 0.118565
O O5 0.453866 0.391119 0.695604
O O6 0.704124 0.374970 0.083353
O O7 0.507653 0.215504 0.028138
O O8 0.714206 0.140515 0.095022
O O9 0.750000 0.250000 0.000000
O O10 0.663529 0.922125 0.925136
O O11 0.821823 0.959560 0.847731
O O12 0.416081 0.495568 0.597466
O O13 0.164269 0.550634 0.533356
O O14 0.250000 0.750000 0.500000
#
# Coordination Sequence:
#
# PCOD9292678 Si02
#       7
#     8   4   8   8   8   8   8
#     4  10  22  44  66  92 122 169 212 271 321 375
#     4   8  22  48  68  90 124 160 216 282 330 370
#     4  12  23  38  60  91 133 183 209 245 315 370
#     4  12  23  41  67  92 136 171 213 260 319 391
#     4  12  22  40  65  91 134 169 212 258 313 390
#     4  10  24  42  67  96 123 166 214 274 323 375
#     4  12  26  37  59  97 133 177 214 254 308 391
#
# _framework density 20.480321
#
# number of rings (size 3 to 8) (size 9 to 14) (size 15 to 20)
#    0.923    0.000    4.615    3.231    2.154    2.462 
#    0.000    0.000    0.000    2.769    0.000    0.000 
#    0.000    0.000    0.000    0.000    0.000    0.000 
#
# Total GULP energy -144901.745606 kJ/mol
# GULP energy per Si atom -5573.144062 kJ/mol
# Density = 2.043371 g / cm^3
# Si number density = 20.480321 Si / 1000 Ang^3
#
#
#
# Elastic Constant Matrix: (Units=GPa)
#
#
# Indices 1 2 3 4 5 6 
#
# 1 106.7389 42.0459 -2.1779 0.0000 -12.6492 0.0000
# 2 42.0459 89.8551 18.2472 0.0000 -10.4586 0.0000
# 3 -2.1779 18.2472 57.8542 0.0000 -12.6901 0.0000
# 4 0.0000 0.0000 0.0000 36.8702 0.0000 -5.1715
# 5 -12.6492 -10.4586 -12.6901 0.0000 19.4549 0.0000
# 6 0.0000 0.0000 0.0000 -5.1715 0.0000 39.1250
#
#
#
# Elastic Compliance Matrix: (Units=1/GPa)
#
#
# Indices 1 2 3 4 5 6 
#
# 1 0.012666 -0.005844 0.004011 0.000000 0.007710 0.000000
# 2 -0.005844 0.014951 -0.004675 0.000000 0.001188 0.000000
# 3 0.004011 -0.004675 0.022092 0.000000 0.014505 0.000000
# 4 0.000000 0.000000 0.000000 0.027635 0.000000 0.003653
# 5 0.007710 0.001188 0.014505 0.000000 0.066514 0.000000
# 6 0.000000 0.000000 0.000000 0.003653 0.000000 0.026042
#
#
# Mechanical properties :
#
#
# Convention : Reuss Voigt Hill
#
# Bulk Modulus (GPa) = 27.25251 41.18652 34.21951
# Shear Modulus (GPa) = 25.62172 32.17889 28.90031
#
# Velocity S-wave (km/s) = 3.54084 3.96815 3.76057
# Velocity P-wave (km/s) = 5.48200 6.41474 5.96662
#
# Compressibility (1/GPa) = 0.03669387
#
# Stress axis : x y z
#
# Youngs Moduli (GPa) = 78.94987 66.88365 45.26540
#
# Poissons Ratio (x) = 0.39087 -0.18157
# Poissons Ratio (y) = 0.46139 0.21161
# Poissons Ratio (z) = -0.31669 0.31268
#
# Static dielectric constant tensor:
#      x y z
#    x 1.825340 0.000000 -0.019780 
#    y 0.000000 1.807360 0.000000 
#    z -0.019780 0.000000 1.916750 
# 
# From -- ./inp_files/287633.got.cif
#   From: 2010.05.17/outbox.cif.g08.bks.cpg/sg15_144_cif.got.tgz:287633.got - 2010.06.03 18:47:42.
