data_PCOD9292846
_publ_section_title
;
Structure prediction by ZEFSAII (Michael W. Deem and Ramdas Pophale) SiO2 
 PCOD9292846
Probable space group: C 2/C
;
_chemical_formula_sum "Si O2"
_cell_formula_units_Z 56
_cell_length_a 29.533859
_cell_length_b 8.452966
_cell_length_c 10.122981
_cell_angle_alpha 90.000000
_cell_angle_beta 108.550994
_cell_angle_gamma 90.000000
_cell_volume 2395.878571
_symmetry_space_group_name_H-M "C 2/C"
_symmetry_group_IT_number 15
_symmetry_cell_setting 'monoclinic'
loop_
_space_group_symop_operation_xyz
x,y,z
-x,y,1/2-z
-x,-y,-z
x,-y,1/2+z
1/2+x,1/2+y,z
1/2-x,1/2+y,1/2-z
1/2-x,1/2-y,-z
1/2+x,1/2-y,1/2+z
loop_
_atom_site_type_symbol
_atom_site_label
_atom_site_fract_x
_atom_site_fract_y
_atom_site_fract_z
Si Si1 0.500000 0.443911 0.750000
Si Si2 0.500000 0.964477 0.750000
Si Si3 0.723001 0.119326 0.143767
Si Si4 0.922070 0.287637 0.252776
Si Si5 0.672149 0.988356 0.346714
Si Si6 0.955505 0.192571 0.562032
Si Si7 0.815841 0.972125 0.345108
Si Si8 0.362937 0.345575 0.134005
O O1 0.547668 0.336996 0.806272
O O2 0.495418 0.560502 0.621891
O O3 0.480422 0.857571 0.614466
O O4 0.543444 0.062827 0.731594
O O5 0.708040 0.301890 0.144733
O O6 0.689977 0.015412 0.213642
O O7 0.776304 0.085405 0.242075
O O8 0.713540 0.061805 0.986522
O O9 0.869354 0.355509 0.178649
O O10 0.926972 0.211078 0.401163
O O11 0.655059 0.163980 0.374314
O O12 0.917504 0.163685 0.642536
O O13 0.853809 0.929364 0.265710
O O14 0.663665 0.555474 0.005692
#
# Coordination Sequence:
#
# PCOD9292846 Si02
#       8
#     4   4   8   8   8   8   8   8
#     4  10  26  42  64 102 138 180 232 282 344 410
#     4  10  22  44  68  98 130 182 236 278 338 406
#     4  11  25  45  70 104 137 183 230 285 349 410
#     4  11  23  43  69 100 137 186 232 277 343 410
#     4  11  24  44  72 102 140 182 233 288 336 414
#     4  11  23  43  67  99 143 180 225 290 339 404
#     4  11  26  45  72 102 141 181 231 284 348 417
#     4  11  25  45  70 104 140 183 229 288 344 409
#
# _framework density 23.373473000000001
#
# number of rings (size 3 to 8) (size 9 to 14) (size 15 to 20)
#    0.000    1.143    1.429    3.429    4.000    5.714 
#    0.000    0.000    0.000    0.000    0.000    0.000 
#    0.000    0.000    0.000    0.000    0.000    0.000 
#
# Total GULP energy -156589.844957 kJ/mol
# GULP energy per Si atom -5592.494463 kJ/mol
# Density = 2.332027 g / cm^3
# Si number density = 23.373473 Si / 1000 Ang^3
#
#
#
# Elastic Constant Matrix: (Units=GPa)
#
#
# Indices 1 2 3 4 5 6 
#
# 1 43.2698 3.5871 1.0403 0.0000 -8.3877 0.0000
# 2 3.5871 105.8422 38.0136 0.0000 1.9261 0.0000
# 3 1.0403 38.0136 85.8822 0.0000 -14.0268 0.0000
# 4 0.0000 0.0000 0.0000 46.2989 0.0000 3.5448
# 5 -8.3877 1.9261 -14.0268 0.0000 23.6158 0.0000
# 6 0.0000 0.0000 0.0000 3.5448 0.0000 49.0947
#
#
#
# Elastic Compliance Matrix: (Units=1/GPa)
#
#
# Indices 1 2 3 4 5 6 
#
# 1 0.025231 -0.001839 0.002211 0.000000 0.010424 0.000000
# 2 -0.001839 0.011774 -0.006038 0.000000 -0.005200 0.000000
# 3 0.002211 -0.006038 0.016056 0.000000 0.010814 0.000000
# 4 0.000000 0.000000 0.000000 0.021719 0.000000 -0.001568
# 5 0.010424 -0.005200 0.010814 0.000000 0.052894 0.000000
# 6 0.000000 0.000000 0.000000 -0.001568 0.000000 0.020482
#
#
# Mechanical properties :
#
#
# Convention : Reuss Voigt Hill
#
# Bulk Modulus (GPa) = 23.96475 35.58625 29.77550
# Shear Modulus (GPa) = 28.83547 36.62544 32.73045
#
# Velocity S-wave (km/s) = 3.51619 3.96279 3.74615
# Velocity P-wave (km/s) = 5.17301 6.01634 5.61054
#
# Compressibility (1/GPa) = 0.04172795
#
# Stress axis : x y z
#
# Youngs Moduli (GPa) = 39.63406 84.93541 62.28185
#
# Poissons Ratio (x) = 0.15618 -0.13770
# Poissons Ratio (y) = 0.07288 0.37608
# Poissons Ratio (z) = -0.08763 0.51287
#
# Static dielectric constant tensor:
#      x y z
#    x 1.902260 0.000000 -0.033760 
#    y 0.000000 1.908100 0.000000 
#    z -0.033760 0.000000 1.856620 
# 
# From -- ./inp_files/125641.got.cif
#   From: 2010.05.17/outbox.cif.g08.bks.cpg/sg15_63_cif.got.tgz:125641.got - 2010.06.03 18:47:42.
