data_PCOD9292313
_publ_section_title
;
Structure prediction by ZEFSAII (Michael W. Deem and Ramdas Pophale) SiO2 
 PCOD9292313
Probable space group: C 2/C
;
_chemical_formula_sum "Si O2"
_cell_formula_units_Z 52
_cell_length_a 13.830461
_cell_length_b 24.497749
_cell_length_c 12.277749
_cell_angle_alpha 90.000000
_cell_angle_beta 40.138273
_cell_angle_gamma 90.000000
_cell_volume 2681.606785
_symmetry_space_group_name_H-M "C 2/C"
_symmetry_group_IT_number 15
_symmetry_cell_setting 'monoclinic'
loop_
_space_group_symop_operation_xyz
x,y,z
-x,y,1/2-z
-x,-y,-z
x,-y,1/2+z
1/2+x,1/2+y,z
1/2-x,1/2+y,1/2-z
1/2-x,1/2-y,-z
1/2+x,1/2-y,1/2+z
loop_
_atom_site_type_symbol
_atom_site_label
_atom_site_fract_x
_atom_site_fract_y
_atom_site_fract_z
Si Si1 0.000000 0.105256 0.750000
Si Si2 0.724331 0.814501 0.517357
Si Si3 0.064282 0.332807 0.881401
Si Si4 0.616563 0.951830 0.894245
Si Si5 0.125800 0.985695 0.978484
Si Si6 0.648692 0.199814 0.549431
Si Si7 0.317649 0.075277 0.932656
O O1 0.140845 0.146904 0.640689
O O2 0.051776 0.061547 0.614967
O O3 0.750000 0.750000 0.500000
O O4 0.681252 0.831063 0.679370
O O5 0.588381 0.818469 0.548703
O O6 0.039995 0.393586 0.948042
O O7 0.113905 0.300460 0.948473
O O8 0.728708 0.958630 0.699755
O O9 0.705379 0.951612 0.929918
O O10 0.500000 0.000000 0.000000
O O11 0.199970 0.041734 0.961450
O O12 0.000000 0.000000 0.000000
O O13 0.500000 0.204366 0.750000
O O14 0.750000 0.250000 0.500000
O O15 0.712637 0.139829 0.527505
O O16 0.500000 0.069048 0.750000
#
# Coordination Sequence:
#
# PCOD9292313 Si02
#       7
#     4   8   8   8   8   8   8
#     4  12  26  44  70 104 144 184 226 290 372 402
#     4  11  25  47  70 103 138 182 235 293 347 420
#     4  10  24  45  71 100 132 179 239 276 342 425
#     4  11  22  40  71  95 128 180 222 276 330 415
#     4  12  26  42  64 105 143 174 221 287 355 410
#     4  10  24  47  70  99 133 183 234 288 348 415
#     4  10  22  43  69  96 129 178 234 271 331 421
#
# _framework density 19.391358
#
# number of rings (size 3 to 8) (size 9 to 14) (size 15 to 20)
#    0.000    1.231    3.077    1.846    6.462    0.000 
#    9.692    0.000    0.000    0.000    0.000    0.000 
#    0.000    0.000    0.000    0.000    0.000    0.000 
#
# Total GULP energy -144817.671406 kJ/mol
# GULP energy per Si atom -5569.910439 kJ/mol
# Density = 1.934722 g / cm^3
# Si number density = 19.391358 Si / 1000 Ang^3
#
#
#
# Elastic Constant Matrix: (Units=GPa)
#
#
# Indices 1 2 3 4 5 6 
#
# 1 143.4133 83.3759 46.6377 -0.0001 7.8517 0.0000
# 2 83.3759 134.4485 51.0733 0.0000 -6.0154 0.0000
# 3 46.6377 51.0733 108.1935 0.0000 4.6714 0.0000
# 4 -0.0001 0.0000 0.0000 8.2306 0.0000 2.7825
# 5 7.8517 -6.0154 4.6714 0.0000 27.0426 0.0000
# 6 0.0000 0.0000 0.0000 2.7825 0.0000 34.5253
#
#
#
# Elastic Compliance Matrix: (Units=1/GPa)
#
#
# Indices 1 2 3 4 5 6 
#
# 1 0.011757 -0.006886 -0.001616 0.000000 -0.004666 0.000000
# 2 -0.006886 0.013307 -0.003554 0.000000 0.005573 0.000000
# 3 -0.001616 -0.003554 0.011718 0.000000 -0.002346 0.000000
# 4 0.000000 0.000000 0.000000 0.124901 0.000000 -0.010066
# 5 -0.004666 0.005573 -0.002346 0.000000 0.039978 0.000000
# 6 0.000000 0.000000 0.000000 -0.010066 0.000000 0.029776
#
#
# Mechanical properties :
#
#
# Convention : Reuss Voigt Hill
#
# Bulk Modulus (GPa) = 78.92271 83.13656 81.02963
# Shear Modulus (GPa) = 19.24755 27.62426 23.43591
#
# Velocity S-wave (km/s) = 3.15395 3.77844 3.48023
# Velocity P-wave (km/s) = 7.35197 7.87410 7.61751
#
# Compressibility (1/GPa) = 0.01267062
#
# Stress axis : x y z
#
# Youngs Moduli (GPa) = 85.05550 75.14590 85.33588
#
# Poissons Ratio (x) = 0.51744 0.13790
# Poissons Ratio (y) = 0.58568 0.30331
# Poissons Ratio (z) = 0.13745 0.26709
#
# Static dielectric constant tensor:
#      x y z
#    x 1.750150 0.000000 0.034120 
#    y 0.000000 1.730780 0.000000 
#    z 0.034120 0.000000 1.721230 
# 
# From -- ./inp_files/100628.got.cif
#   From: 2010.05.17/outbox.cif.g08.bks.cpg/sg15_51_cif.got.tgz:100628.got - 2010.06.03 18:47:42.
