data_PCOD9292332
_publ_section_title
;
Structure prediction by ZEFSAII (Michael W. Deem and Ramdas Pophale) SiO2 
 PCOD9292332
Probable space group: C 2/C
;
_chemical_formula_sum "Si O2"
_cell_formula_units_Z 40
_cell_length_a 18.427165
_cell_length_b 14.421974
_cell_length_c 15.559385
_cell_angle_alpha 90.000000
_cell_angle_beta 26.354149
_cell_angle_gamma 90.000000
_cell_volume 1835.602551
_symmetry_space_group_name_H-M "C 2/C"
_symmetry_group_IT_number 15
_symmetry_cell_setting 'monoclinic'
loop_
_space_group_symop_operation_xyz
x,y,z
-x,y,1/2-z
-x,-y,-z
x,-y,1/2+z
1/2+x,1/2+y,z
1/2-x,1/2+y,1/2-z
1/2-x,1/2-y,-z
1/2+x,1/2-y,1/2+z
loop_
_atom_site_type_symbol
_atom_site_label
_atom_site_fract_x
_atom_site_fract_y
_atom_site_fract_z
Si Si1 0.000000 0.775250 0.250000
Si Si2 0.725702 0.913221 0.240729
Si Si3 0.720580 0.698824 0.654469
Si Si4 0.891865 0.407314 0.691256
Si Si5 0.000000 0.517557 0.750000
Si Si6 0.196998 0.853400 0.530549
O O1 0.116067 0.835732 0.185100
O O2 0.897113 0.712333 0.424284
O O3 0.809092 0.866118 0.233834
O O4 0.535958 0.899351 0.468467
O O5 0.742355 0.022485 0.205583
O O6 0.769532 0.864032 0.106377
O O7 0.678969 0.805612 0.719341
O O8 0.962900 0.459126 0.701717
O O9 0.168404 0.578826 0.565302
O O10 0.250000 0.750000 0.500000
O O11 0.000000 0.869584 0.750000
#
# Coordination Sequence:
#
# PCOD9292332 Si02
#       6
#     4   8   8   8   4   8
#     4  10  23  36  68 101 130 178 217 278 350 411
#     4  10  24  41  68 102 129 183 233 280 346 421
#     4  11  21  43  67  98 136 174 227 281 345 425
#     4  10  22  43  69  98 138 184 225 286 361 405
#     4  10  23  46  68 101 144 184 233 296 350 429
#     4  11  24  43  71 102 139 190 240 289 355 416
#
# _framework density 21.791208999999998
#
# number of rings (size 3 to 8) (size 9 to 14) (size 15 to 20)
#    0.000    1.600    3.000    0.600    5.600    1.600 
#    7.200    2.000    0.000    0.000    0.000    0.000 
#    0.000    0.000    0.000    0.000    0.000    0.000 
#
# Total GULP energy -111475.984196 kJ/mol
# GULP energy per Si atom -5573.799210 kJ/mol
# Density = 2.174161 g / cm^3
# Si number density = 21.791209 Si / 1000 Ang^3
#
#
#
# Elastic Constant Matrix: (Units=GPa)
#
#
# Indices 1 2 3 4 5 6 
#
# 1 92.4857 65.2842 39.2296 -0.0002 7.4251 0.0000
# 2 65.2842 115.6025 43.1367 -0.0003 -3.3588 0.0000
# 3 39.2296 43.1367 127.1629 0.0001 7.4800 0.0000
# 4 -0.0002 -0.0003 0.0001 17.6521 0.0000 -14.6290
# 5 7.4251 -3.3588 7.4800 0.0000 41.4655 0.0001
# 6 0.0000 0.0000 0.0000 -14.6290 0.0001 5.5453
#
#
#
# Elastic Compliance Matrix: (Units=1/GPa)
#
#
# Indices 1 2 3 4 5 6 
#
# 1 0.019233 -0.010126 -0.002272 0.000000 -0.003854 0.000000
# 2 -0.010126 0.015319 -0.002277 0.000000 0.003465 0.000000
# 3 -0.002272 -0.002277 0.009424 0.000000 -0.001478 0.000000
# 4 0.000000 0.000000 0.000000 -0.047754 0.000000 -0.125980
# 5 -0.003854 0.003465 -0.001478 0.000000 0.025354 0.000000
# 6 0.000000 0.000000 0.000000 -0.125980 0.000000 -0.152013
#
#
# Mechanical properties :
#
#
# Convention : Reuss Voigt Hill
#
# Bulk Modulus (GPa) = 68.36329 70.06133 69.21231
# Shear Modulus (GPa) = -51.96766 25.43930 -13.26418
#
# Velocity S-wave (km/s) = -4.88874 3.42045 -2.46985
# Velocity P-wave (km/s) = 0.65291 6.91522 4.86796
#
# Compressibility (1/GPa) = 0.01462773
#
# Stress axis : x y z
#
# Youngs Moduli (GPa) = 51.99334 65.27908 106.11291
#
# Poissons Ratio (x) = 0.66101 0.24106
# Poissons Ratio (y) = 0.52648 0.24157
# Poissons Ratio (z) = 0.11812 0.14861
#
# Static dielectric constant tensor:
#      x y z
#    x 1.911630 0.000000 -0.120010 
#    y 0.000000 1.861060 0.000000 
#    z -0.120010 0.000000 1.884630 
# 
# From -- ./inp_files/162452.got.cif
#   From: 2010.05.17/outbox.cif.g08.bks.cpg/sg15_82_cif.got.tgz:162452.got - 2010.06.03 18:47:42.
