data_PCOD9292694
_publ_section_title
;
Structure prediction by ZEFSAII (Michael W. Deem and Ramdas Pophale) SiO2 
 PCOD9292694
Probable space group: C 2/C
;
_chemical_formula_sum "Si O2"
_cell_formula_units_Z 52
_cell_length_a 9.487159
_cell_length_b 27.168870
_cell_length_c 10.627725
_cell_angle_alpha 90.000000
_cell_angle_beta 61.953919
_cell_angle_gamma 90.000000
_cell_volume 2417.670382
_symmetry_space_group_name_H-M "C 2/C"
_symmetry_group_IT_number 15
_symmetry_cell_setting 'monoclinic'
loop_
_space_group_symop_operation_xyz
x,y,z
-x,y,1/2-z
-x,-y,-z
x,-y,1/2+z
1/2+x,1/2+y,z
1/2-x,1/2+y,1/2-z
1/2-x,1/2-y,-z
1/2+x,1/2-y,1/2+z
loop_
_atom_site_type_symbol
_atom_site_label
_atom_site_fract_x
_atom_site_fract_y
_atom_site_fract_z
Si Si1 0.724032 0.261214 0.732145
Si Si2 0.500000 0.816826 0.750000
Si Si3 0.619307 0.096636 0.040613
Si Si4 0.264953 0.447710 0.254734
Si Si5 0.088516 0.201714 0.039862
Si Si6 0.000000 0.488376 0.750000
Si Si7 0.000000 0.977493 0.750000
Si Si8 0.038704 0.905042 0.967802
O O1 0.850182 0.283707 0.775626
O O2 0.804566 0.215280 0.625952
O O3 0.553566 0.258388 0.874539
O O4 0.690448 0.296670 0.625493
O O5 0.465021 0.853552 0.880720
O O6 0.518637 0.049016 0.125511
O O7 0.783999 0.094704 0.050738
O O8 0.662108 0.090620 0.877823
O O9 0.152997 0.477489 0.206632
O O10 0.345465 0.487219 0.315780
O O11 0.410725 0.421453 0.125126
O O12 0.004935 0.149560 0.058357
O O13 0.019894 0.943548 0.862871
#
# Coordination Sequence:
#
# PCOD9292694 Si02
#       8
#     8   4   8   8   8   4   4   8
#     4  10  22  44  66  96 129 165 219 263 338 394
#     4  11  24  40  67  96 128 168 207 268 330 393
#     4  11  23  41  62  96 132 166 218 270 317 386
#     4  12  24  41  62  94 132 170 219 271 317 377
#     4  10  23  43  69  94 128 173 213 272 324 399
#     4  11  24  40  60  92 132 176 212 268 334 367
#     4  12  22  38  67  86 124 172 217 258 312 388
#     4  12  23  41  68  95 124 174 226 262 318 389
#
# _framework density 21.508309000000001
#
# number of rings (size 3 to 8) (size 9 to 14) (size 15 to 20)
#    0.000    0.923    4.615    2.769    0.000    3.077 
#    2.769    1.538    0.000    0.000    0.000    0.000 
#    0.000    0.000    0.000    0.000    0.000    0.000 
#
# Total GULP energy -145354.168217 kJ/mol
# GULP energy per Si atom -5590.544931 kJ/mol
# Density = 2.145936 g / cm^3
# Si number density = 21.508309 Si / 1000 Ang^3
#
#
#
# Elastic Constant Matrix: (Units=GPa)
#
#
# Indices 1 2 3 4 5 6 
#
# 1 62.5468 1.7018 -19.3322 0.0000 -11.5127 0.0000
# 2 1.7018 42.0919 -0.0046 0.0000 -0.4698 0.0000
# 3 -19.3322 -0.0046 64.5922 0.0000 -8.6230 0.0000
# 4 0.0000 0.0000 0.0000 19.9998 0.0000 -5.4831
# 5 -11.5127 -0.4698 -8.6230 0.0000 26.5799 0.0000
# 6 0.0000 0.0000 0.0000 -5.4831 0.0000 -18.8185
#
#
#
# Elastic Compliance Matrix: (Units=1/GPa)
#
#
# Indices 1 2 3 4 5 6 
#
# 1 0.020450 -0.000700 0.007632 0.000000 0.011321 0.000000
# 2 -0.000700 0.023786 -0.000201 0.000000 0.000052 0.000000
# 3 0.007632 -0.000201 0.019031 0.000000 0.009476 0.000000
# 4 0.000000 0.000000 0.000000 0.046302 0.000000 -0.013491
# 5 0.011321 0.000052 0.009476 0.000000 0.045601 0.000000
# 6 0.000000 0.000000 0.000000 -0.013491 0.000000 -0.049208
#
#
# Mechanical properties :
#
#
# Convention : Reuss Voigt Hill
#
# Bulk Modulus (GPa) = 13.03267 14.88453 13.95860
# Shear Modulus (GPa) = 42.34585 18.00996 30.17790
#
# Velocity S-wave (km/s) = 4.44194 2.89684 3.74984
# Velocity P-wave (km/s) = 5.69037 4.25726 5.02517
#
# Compressibility (1/GPa) = 0.07673024
#
# Stress axis : x y z
#
# Youngs Moduli (GPa) = 48.90035 42.04084 52.54598
#
# Poissons Ratio (x) = 0.02941 -0.40102
# Poissons Ratio (y) = 0.03421 0.01055
# Poissons Ratio (z) = -0.37320 0.00844
#
# Static dielectric constant tensor:
#      x y z
#    x 1.772500 0.000000 -0.005970 
#    y 0.000000 1.752800 0.000000 
#    z -0.005970 0.000000 1.818630 
# 
# From -- ./inp_files/81214.got.cif
#   From: 2010.05.17/outbox.cif.g08.bks.cpg/sg15_41_cif.got.tgz:81214.got - 2010.06.03 18:47:42.
