data_PCOD9292205
_publ_section_title
;
Structure prediction by ZEFSAII (Michael W. Deem and Ramdas Pophale) SiO2 
 PCOD9292205
Probable space group: C 2/C
;
_chemical_formula_sum "Si O2"
_cell_formula_units_Z 40
_cell_length_a 5.648115
_cell_length_b 13.916200
_cell_length_c 26.418824
_cell_angle_alpha 90.000000
_cell_angle_beta 124.331236
_cell_angle_gamma 90.000000
_cell_volume 1714.777574
_symmetry_space_group_name_H-M "C 2/C"
_symmetry_group_IT_number 15
_symmetry_cell_setting 'monoclinic'
loop_
_space_group_symop_operation_xyz
x,y,z
-x,y,1/2-z
-x,-y,-z
x,-y,1/2+z
1/2+x,1/2+y,z
1/2-x,1/2+y,1/2-z
1/2-x,1/2-y,-z
1/2+x,1/2-y,1/2+z
loop_
_atom_site_type_symbol
_atom_site_label
_atom_site_fract_x
_atom_site_fract_y
_atom_site_fract_z
Si Si1 0.348075 0.737742 0.434182
Si Si2 0.150335 0.499630 0.214424
Si Si3 0.714418 0.852608 0.641606
Si Si4 0.309620 0.905047 0.970274
Si Si5 0.319609 0.213494 0.811276
O O1 0.486257 0.817909 0.486316
O O2 0.515513 0.635344 0.460915
O O3 0.356555 0.769770 0.375989
O O4 0.014692 0.725401 0.404185
O O5 0.500000 0.500328 0.250000
O O6 0.065586 0.582882 0.165650
O O7 0.064785 0.392362 0.187648
O O8 0.000000 0.517429 0.250000
O O9 0.778173 0.912240 0.599165
O O10 0.994701 0.796692 0.692022
O O11 0.500000 0.000000 0.000000
O O12 0.000000 0.219054 0.750000
#
# Coordination Sequence:
#
# PCOD9292205 Si02
#       5
#     8   8   8   8   8
#     4  10  23  40  68 102 136 183 246 288 373 435
#     4  11  28  45  68 105 145 189 248 300 366 446
#     4  11  25  41  72 102 140 189 241 304 365 440
#     4  10  22  43  67  98 141 184 234 306 363 433
#     4  10  25  45  68 102 144 193 238 304 367 441
#
# _framework density 23.326642
#
# number of rings (size 3 to 8) (size 9 to 14) (size 15 to 20)
#    0.000    1.600    0.000    1.800   14.000    2.400 
#    0.000    0.000    0.000    0.000    0.000    0.000 
#    0.000    0.000    0.000    0.000    0.000    0.000 
#
# Total GULP energy -111626.643772 kJ/mol
# GULP energy per Si atom -5581.332189 kJ/mol
# Density = 2.327355 g / cm^3
# Si number density = 23.326642 Si / 1000 Ang^3
#
#
#
# Elastic Constant Matrix: (Units=GPa)
#
#
# Indices 1 2 3 4 5 6 
#
# 1 84.3703 43.5846 37.4667 0.0000 -4.8339 0.0001
# 2 43.5846 125.6102 45.2186 0.0000 -3.5844 0.0000
# 3 37.4667 45.2186 100.7361 0.0000 -11.1978 0.0000
# 4 0.0000 0.0000 0.0000 46.8817 0.0000 9.4199
# 5 -4.8339 -3.5844 -11.1978 0.0000 47.5466 0.0000
# 6 0.0001 0.0000 0.0000 9.4199 0.0000 28.0266
#
#
#
# Elastic Compliance Matrix: (Units=1/GPa)
#
#
# Indices 1 2 3 4 5 6 
#
# 1 0.015721 -0.004001 -0.004012 0.000000 0.000352 0.000000
# 2 -0.004001 0.010518 -0.003276 0.000000 -0.000385 0.000000
# 3 -0.004012 -0.003276 0.013162 0.000000 0.002445 0.000000
# 4 0.000000 0.000000 0.000000 0.022875 0.000000 -0.007688
# 5 0.000352 -0.000385 0.002445 0.000000 0.021615 0.000000
# 6 0.000000 0.000000 0.000000 -0.007688 0.000000 0.038264
#
#
# Mechanical properties :
#
#
# Convention : Reuss Voigt Hill
#
# Bulk Modulus (GPa) = 59.44433 62.58405 61.01419
# Shear Modulus (GPa) = 33.25804 36.78741 35.02272
#
# Velocity S-wave (km/s) = 3.78001 3.97552 3.87900
# Velocity P-wave (km/s) = 6.67758 6.92537 6.80260
#
# Compressibility (1/GPa) = 0.01682246
#
# Stress axis : x y z
#
# Youngs Moduli (GPa) = 63.60905 95.07850 75.97887
#
# Poissons Ratio (x) = 0.38036 0.30485
# Poissons Ratio (y) = 0.25447 0.24891
# Poissons Ratio (z) = 0.25522 0.31149
#
# Static dielectric constant tensor:
#      x y z
#    x 1.951770 0.000000 0.010170 
#    y 0.000000 1.884020 0.000000 
#    z 0.010170 0.000000 1.919230 
# 
# From -- ./inp_files/285508.got.cif
#   From: 2010.05.17/outbox.cif.g08.bks.cpg/sg15_143_cif.got.tgz:285508.got - 2010.06.03 18:47:42.
