data_PCOD9292103
_publ_section_title
;
Structure prediction by ZEFSAII (Michael W. Deem and Ramdas Pophale) SiO2 
 PCOD9292103
Probable space group: C 2/C
;
_chemical_formula_sum "Si O2"
_cell_formula_units_Z 52
_cell_length_a 23.483767
_cell_length_b 10.360561
_cell_length_c 23.042936
_cell_angle_alpha 90.000000
_cell_angle_beta 154.277271
_cell_angle_gamma 90.000000
_cell_volume 2433.296844
_symmetry_space_group_name_H-M "C 2/C"
_symmetry_group_IT_number 15
_symmetry_cell_setting 'monoclinic'
loop_
_space_group_symop_operation_xyz
x,y,z
-x,y,1/2-z
-x,-y,-z
x,-y,1/2+z
1/2+x,1/2+y,z
1/2-x,1/2+y,1/2-z
1/2-x,1/2-y,-z
1/2+x,1/2-y,1/2+z
loop_
_atom_site_type_symbol
_atom_site_label
_atom_site_fract_x
_atom_site_fract_y
_atom_site_fract_z
Si Si1 0.000000 0.751808 0.750000
Si Si2 0.722395 0.332480 0.279244
Si Si3 0.820965 0.971103 0.561602
Si Si4 0.583775 0.035742 0.750877
Si Si5 0.547847 0.598627 0.912909
Si Si6 0.731083 0.528966 0.181240
Si Si7 0.845411 0.636184 0.007476
O O1 0.867571 0.835603 0.629733
O O2 0.997509 0.661762 0.804959
O O3 0.587439 0.338484 0.191901
O O4 0.713836 0.433069 0.218941
O O5 0.747458 0.182295 0.285217
O O6 0.830250 0.384387 0.424351
O O7 0.700713 0.966621 0.405289
O O8 0.947431 0.008535 0.638453
O O9 0.771560 0.070175 0.564796
O O10 0.650072 0.025381 0.749024
O O11 0.479509 0.919931 0.656654
O O12 0.606920 0.529320 0.023661
O O13 0.649169 0.709982 0.985605
#
# Coordination Sequence:
#
# PCOD9292103 Si02
#       7
#     4   8   8   8   8   8   8
#     4  12  24  42  66  96 136 166 212 258 328 394
#     4  11  23  43  65  95 129 172 227 268 321 385
#     4  11  23  41  66 100 129 169 211 265 319 387
#     4  11  23  43  65  92 134 171 208 262 326 383
#     4  10  22  43  66  95 130 168 219 269 319 384
#     4  10  24  43  66  94 129 175 220 274 323 377
#     4  11  22  41  68  94 129 170 215 262 322 384
#
# _framework density 21.370183000000001
#
# number of rings (size 3 to 8) (size 9 to 14) (size 15 to 20)
#    0.000    1.231    3.077    2.308    0.000    3.077 
#    8.308    0.000    0.000    0.000    0.000    0.000 
#    0.000    0.000    0.000    0.000    0.000    0.000 
#
# Total GULP energy -145076.318601 kJ/mol
# GULP energy per Si atom -5579.858408 kJ/mol
# Density = 2.132154 g / cm^3
# Si number density = 21.370183 Si / 1000 Ang^3
#
#
#
# Elastic Constant Matrix: (Units=GPa)
#
#
# Indices 1 2 3 4 5 6 
#
# 1 99.7884 65.9748 19.4861 0.0000 -6.3169 0.0000
# 2 65.9748 98.4114 30.2135 0.0000 -23.7361 0.0000
# 3 19.4861 30.2135 71.6360 -0.0001 -5.3884 0.0000
# 4 0.0000 0.0000 -0.0001 34.6825 0.0000 -1.4559
# 5 -6.3169 -23.7361 -5.3884 0.0000 32.5773 0.0000
# 6 0.0000 0.0000 0.0000 -1.4559 0.0000 49.7847
#
#
#
# Elastic Compliance Matrix: (Units=1/GPa)
#
#
# Indices 1 2 3 4 5 6 
#
# 1 0.019195 -0.014668 0.000447 0.000000 -0.006891 0.000000
# 2 -0.014668 0.025223 -0.005549 0.000000 0.014616 0.000000
# 3 0.000447 -0.005549 0.016081 0.000000 -0.001297 0.000000
# 4 0.000000 0.000000 0.000000 0.028868 0.000000 0.000844
# 5 -0.006891 0.014616 -0.001297 0.000000 0.039795 0.000000
# 6 0.000000 0.000000 0.000000 0.000844 0.000000 0.020111
#
#
# Mechanical properties :
#
#
# Convention : Reuss Voigt Hill
#
# Bulk Modulus (GPa) = 47.71176 55.68720 51.69948
# Shear Modulus (GPa) = 25.53615 33.68632 29.61124
#
# Velocity S-wave (km/s) = 3.46054 3.97460 3.72645
# Velocity P-wave (km/s) = 6.19209 6.86864 6.53912
#
# Compressibility (1/GPa) = 0.02095919
#
# Stress axis : x y z
#
# Youngs Moduli (GPa) = 52.09637 39.64563 62.18562
#
# Poissons Ratio (x) = 0.58150 -0.02777
# Poissons Ratio (y) = 0.76413 0.34508
# Poissons Ratio (z) = -0.02326 0.22000
#
# Static dielectric constant tensor:
#      x y z
#    x 1.784410 0.000000 0.014960 
#    y 0.000000 1.781400 0.000000 
#    z 0.014960 0.000000 1.836790 
# 
# From -- ./inp_files/252743.got.cif
#   From: 2010.05.17/outbox.cif.g08.bks.cpg/sg15_127_cif.got.tgz:252743.got - 2010.06.03 18:47:42.
