data_PCOD9292169
_publ_section_title
;
Structure prediction by ZEFSAII (Michael W. Deem and Ramdas Pophale) SiO2 
 PCOD9292169
Probable space group: C 2/C
;
_chemical_formula_sum "Si O2"
_cell_formula_units_Z 40
_cell_length_a 10.370311
_cell_length_b 12.655485
_cell_length_c 11.273248
_cell_angle_alpha 90.000000
_cell_angle_beta 95.167372
_cell_angle_gamma 90.000000
_cell_volume 1473.502920
_symmetry_space_group_name_H-M "C 2/C"
_symmetry_group_IT_number 15
_symmetry_cell_setting 'monoclinic'
loop_
_space_group_symop_operation_xyz
x,y,z
-x,y,1/2-z
-x,-y,-z
x,-y,1/2+z
1/2+x,1/2+y,z
1/2-x,1/2+y,1/2-z
1/2-x,1/2-y,-z
1/2+x,1/2-y,1/2+z
loop_
_atom_site_type_symbol
_atom_site_label
_atom_site_fract_x
_atom_site_fract_y
_atom_site_fract_z
Si Si1 0.301017 0.833784 0.226341
Si Si2 0.224434 0.911885 0.469252
Si Si3 0.961047 0.813814 0.382369
Si Si4 0.800276 0.625204 0.368233
Si Si5 0.053813 0.478782 0.866779
O O1 0.291528 0.850694 0.365324
O O2 0.295897 0.709105 0.199731
O O3 0.164486 0.882141 0.162689
O O4 0.403454 0.903111 0.166616
O O5 0.079277 0.866166 0.459623
O O6 0.321080 0.905929 0.587733
O O7 0.410018 0.060535 0.301274
O O8 0.000000 0.779796 0.250000
O O9 0.896060 0.711712 0.437627
O O10 0.722761 0.534937 0.428526
O O11 0.000000 0.500000 0.000000
#
# Coordination Sequence:
#
# PCOD9292169 Si02
#       5
#     8   8   8   8   8
#     4   9  23  42  66  98 130 164 225 265 314 402
#     4  11  22  40  73  94 130 178 209 267 333 374
#     4   8  19  41  64  95 129 161 219 264 310 399
#     4  10  22  43  67  92 135 165 214 277 311 387
#     4  12  24  41  69  97 131 175 219 263 322 387
#
# _framework density 27.146196
#
# number of rings (size 3 to 8) (size 9 to 14) (size 15 to 20)
#    1.200    0.800    2.000    1.200    0.000    2.400 
#    0.000    3.000   13.200    0.000    0.000    0.000 
#    0.000    0.000    0.000    0.000    0.000    0.000 
#
# Total GULP energy -111537.348391 kJ/mol
# GULP energy per Si atom -5576.867420 kJ/mol
# Density = 2.708441 g / cm^3
# Si number density = 27.146196 Si / 1000 Ang^3
#
#
#
# Elastic Constant Matrix: (Units=GPa)
#
#
# Indices 1 2 3 4 5 6 
#
# 1 108.8746 52.6132 50.1209 0.0000 28.2506 0.0000
# 2 52.6132 154.3406 74.8042 0.0000 14.3048 0.0000
# 3 50.1209 74.8042 152.4543 0.0000 48.1787 0.0000
# 4 0.0000 0.0000 0.0000 29.4587 0.0000 1.9172
# 5 28.2506 14.3048 48.1787 0.0000 56.6035 0.0000
# 6 0.0000 0.0000 0.0000 1.9172 0.0000 61.6020
#
#
#
# Elastic Compliance Matrix: (Units=1/GPa)
#
#
# Indices 1 2 3 4 5 6 
#
# 1 0.012430 -0.003316 -0.001045 0.000000 -0.004476 0.000000
# 2 -0.003316 0.009540 -0.004585 0.000000 0.003147 0.000000
# 3 -0.001045 -0.004585 0.011794 0.000000 -0.008358 0.000000
# 4 0.000000 0.000000 0.000000 0.034015 0.000000 -0.001059
# 5 -0.004476 0.003147 -0.008358 0.000000 0.026220 0.000000
# 6 0.000000 0.000000 0.000000 -0.001059 0.000000 0.016266
#
#
# Mechanical properties :
#
#
# Convention : Reuss Voigt Hill
#
# Bulk Modulus (GPa) = 63.00405 85.63845 74.32125
# Shear Modulus (GPa) = 37.46774 45.40827 41.43800
#
# Velocity S-wave (km/s) = 3.71916 4.09434 3.91125
# Velocity P-wave (km/s) = 6.45774 7.34623 6.91627
#
# Compressibility (1/GPa) = 0.01587200
#
# Stress axis : x y z
#
# Youngs Moduli (GPa) = 80.45195 104.81841 84.78747
#
# Poissons Ratio (x) = 0.34757 0.08858
# Poissons Ratio (y) = 0.26677 0.38879
# Poissons Ratio (z) = 0.08405 0.48064
#
# Static dielectric constant tensor:
#      x y z
#    x 2.240350 0.000000 -0.127030 
#    y 0.000000 2.265030 0.000000 
#    z -0.127030 0.000000 2.544220 
# 
# From -- ./inp_files/195707.got.cif
#   From: 2010.05.17/outbox.cif.g08.bks.cpg/sg15_98_cif.got.tgz:195707.got - 2010.06.03 18:47:42.
