data_PCOD9292578
_publ_section_title
;
Structure prediction by ZEFSAII (Michael W. Deem and Ramdas Pophale) SiO2 
 PCOD9292578
Probable space group: C 2/C
;
_chemical_formula_sum "Si O2"
_cell_formula_units_Z 44
_cell_length_a 14.672916
_cell_length_b 11.013059
_cell_length_c 15.590358
_cell_angle_alpha 90.000000
_cell_angle_beta 134.687443
_cell_angle_gamma 90.000000
_cell_volume 1791.107907
_symmetry_space_group_name_H-M "C 2/C"
_symmetry_group_IT_number 15
_symmetry_cell_setting 'monoclinic'
loop_
_space_group_symop_operation_xyz
x,y,z
-x,y,1/2-z
-x,-y,-z
x,-y,1/2+z
1/2+x,1/2+y,z
1/2-x,1/2+y,1/2-z
1/2-x,1/2-y,-z
1/2+x,1/2-y,1/2+z
loop_
_atom_site_type_symbol
_atom_site_label
_atom_site_fract_x
_atom_site_fract_y
_atom_site_fract_z
Si Si1 0.267008 0.359847 0.415644
Si Si2 0.065909 0.443735 0.956263
Si Si3 0.653796 0.517527 0.354945
Si Si4 0.658375 0.545369 0.168638
Si Si5 0.987702 0.802617 0.453717
Si Si6 0.000000 0.389225 0.250000
O O1 0.319581 0.407954 0.540416
O O2 0.252419 0.474654 0.339764
O O3 0.374209 0.276088 0.445349
O O4 0.125763 0.308725 0.324957
O O5 0.221503 0.426164 0.060810
O O6 0.031806 0.529183 0.853933
O O7 0.000000 0.500000 0.000000
O O8 0.006689 0.309625 0.905524
O O9 0.500000 0.486408 0.250000
O O10 0.688333 0.573890 0.285224
O O11 0.551173 0.435955 0.107007
O O12 0.611669 0.666579 0.091724
#
# Coordination Sequence:
#
# PCOD9292578 Si02
#       6
#     8   8   8   8   8   4
#     4   9  19  39  69  91 138 172 224 274 334 403
#     4  11  25  45  66  99 141 177 226 276 347 397
#     4  11  19  39  70 100 134 173 224 286 329 406
#     4   9  18  40  66  91 133 172 225 265 341 399
#     4   9  19  42  65  89 129 182 216 271 330 402
#     4  10  22  44  64 104 142 172 226 288 326 408
#
# _framework density 24.565801
#
# number of rings (size 3 to 8) (size 9 to 14) (size 15 to 20)
#    1.091    1.091    1.818    1.091    0.000    0.000 
#   11.455   10.000    2.000    0.000    0.000    0.000 
#    0.000    0.000    0.000    0.000    0.000    0.000 
#
# Total GULP energy -122507.152361 kJ/mol
# GULP energy per Si atom -5568.506926 kJ/mol
# Density = 2.450989 g / cm^3
# Si number density = 24.565801 Si / 1000 Ang^3
#
#
#
# Elastic Constant Matrix: (Units=GPa)
#
#
# Indices 1 2 3 4 5 6 
#
# 1 111.3399 29.3768 70.3166 0.0000 3.4978 0.0000
# 2 29.3768 85.1237 16.8914 0.0000 -5.5692 0.0000
# 3 70.3166 16.8914 78.5371 0.0000 1.7134 0.0000
# 4 0.0000 0.0000 0.0000 10.9204 0.0000 0.1691
# 5 3.4978 -5.5692 1.7134 0.0000 68.7321 0.0000
# 6 0.0000 0.0000 0.0000 0.1691 0.0000 38.0140
#
#
#
# Elastic Compliance Matrix: (Units=1/GPa)
#
#
# Indices 1 2 3 4 5 6 
#
# 1 0.021854 -0.003892 -0.018708 0.000000 -0.000961 0.000000
# 2 -0.003892 0.013042 0.000653 0.000000 0.001239 0.000000
# 3 -0.018708 0.000653 0.029337 0.000000 0.000274 0.000000
# 4 0.000000 0.000000 0.000000 0.091578 0.000000 -0.000407
# 5 -0.000961 0.001239 0.000274 0.000000 0.014692 0.000000
# 6 0.000000 0.000000 0.000000 -0.000407 0.000000 0.026308
#
#
# Mechanical properties :
#
#
# Convention : Reuss Voigt Hill
#
# Bulk Modulus (GPa) = 49.17113 56.46337 52.81725
# Shear Modulus (GPa) = 20.20321 34.09436 27.14879
#
# Velocity S-wave (km/s) = 2.87088 3.72947 3.32798
# Velocity P-wave (km/s) = 5.57215 6.44823 6.02613
#
# Compressibility (1/GPa) = 0.02033714
#
# Stress axis : x y z
#
# Youngs Moduli (GPa) = 45.75825 76.67302 34.08711
#
# Poissons Ratio (x) = 0.29845 0.63771
# Poissons Ratio (y) = 0.17811 -0.02226
# Poissons Ratio (z) = 0.85606 -0.05006
#
# Static dielectric constant tensor:
#      x y z
#    x 2.021030 0.000000 0.062160 
#    y 0.000000 1.939770 0.000000 
#    z 0.062160 0.000000 2.068040 
# 
# From -- ./inp_files/210734.got.cif
#   From: 2010.05.17/outbox.cif.g08.bks.cpg/sg15_106_cif.got.tgz:210734.got - 2010.06.03 18:47:42.
