data_PCOD9292256
_publ_section_title
;
Structure prediction by ZEFSAII (Michael W. Deem and Ramdas Pophale) SiO2 
 PCOD9292256
Probable space group: C 2/C
;
_chemical_formula_sum "Si O2"
_cell_formula_units_Z 64
_cell_length_a 11.841363
_cell_length_b 24.781889
_cell_length_c 11.456336
_cell_angle_alpha 90.000000
_cell_angle_beta 110.021964
_cell_angle_gamma 90.000000
_cell_volume 3158.690175
_symmetry_space_group_name_H-M "C 2/C"
_symmetry_group_IT_number 15
_symmetry_cell_setting 'monoclinic'
loop_
_space_group_symop_operation_xyz
x,y,z
-x,y,1/2-z
-x,-y,-z
x,-y,1/2+z
1/2+x,1/2+y,z
1/2-x,1/2+y,1/2-z
1/2-x,1/2-y,-z
1/2+x,1/2-y,1/2+z
loop_
_atom_site_type_symbol
_atom_site_label
_atom_site_fract_x
_atom_site_fract_y
_atom_site_fract_z
Si Si1 0.026096 0.323023 0.397542
Si Si2 0.199922 0.375396 0.099358
Si Si3 0.878336 0.079712 0.818254
Si Si4 0.308245 0.537016 0.241395
Si Si5 0.383295 0.385002 0.971102
Si Si6 0.435165 0.018112 0.853978
Si Si7 0.537013 0.300433 0.898879
Si Si8 0.737447 0.389422 0.993194
O O1 0.065205 0.261729 0.434602
O O2 0.126780 0.367377 0.466193
O O3 0.000000 0.328957 0.250000
O O4 0.900419 0.330698 0.419901
O O5 0.318035 0.372402 0.222422
O O6 0.132147 0.427960 0.126098
O O7 0.256619 0.381038 0.992311
O O8 0.868949 0.021701 0.753559
O O9 0.791912 0.077257 0.900934
O O10 0.011279 0.093677 0.906773
O O11 0.369852 0.571388 0.364113
O O12 0.167531 0.525373 0.212625
O O13 0.307693 0.572756 0.125999
O O14 0.430354 0.328508 0.935115
O O15 0.500000 0.027051 0.750000
O O16 0.500000 0.000000 0.000000
O O17 0.500000 0.304136 0.750000
O O18 0.652489 0.337142 0.964419
#
# Coordination Sequence:
#
# PCOD9292256 Si02
#       8
#     8   8   8   8   8   8   8   8
#     4  11  22  41  71  95 126 172 224 273 329 389
#     4  11  23  39  64  91 130 169 217 267 322 398
#     4  10  24  39  63  92 130 178 217 261 326 390
#     4  11  24  37  64  93 129 172 216 267 331 381
#     4  11  23  44  60  93 137 166 221 272 333 396
#     4  11  24  40  62  91 134 176 223 267 329 404
#     4  10  22  43  68  97 128 169 216 283 331 384
#     4  11  22  42  67  99 132 166 223 273 320 396
#
# _framework density 20.261562999999999
#
# number of rings (size 3 to 8) (size 9 to 14) (size 15 to 20)
#    0.000    1.250    2.500    3.000    8.750    0.500 
#    9.000    0.000    0.000    1.500    0.000    0.000 
#    0.000    0.000    0.000    0.000    0.000    0.000 
#
# Total GULP energy -178611.907683 kJ/mol
# GULP energy per Si atom -5581.622115 kJ/mol
# Density = 2.021545 g / cm^3
# Si number density = 20.261563 Si / 1000 Ang^3
#
#
#
# Elastic Constant Matrix: (Units=GPa)
#
#
# Indices 1 2 3 4 5 6 
#
# 1 112.6257 34.8893 38.2119 0.0000 -12.9430 0.0000
# 2 34.8893 90.3402 30.6022 0.0000 -0.8584 0.0000
# 3 38.2119 30.6022 74.2092 0.0000 4.9935 0.0000
# 4 0.0000 0.0000 0.0000 -21.3841 0.0000 18.2994
# 5 -12.9430 -0.8584 4.9935 0.0000 34.5163 0.0000
# 6 0.0000 0.0000 0.0000 18.2994 0.0000 28.5020
#
#
#
# Elastic Compliance Matrix: (Units=1/GPa)
#
#
# Indices 1 2 3 4 5 6 
#
# 1 0.012223 -0.002809 -0.005492 0.000000 0.005308 0.000000
# 2 -0.002809 0.013554 -0.004135 0.000000 -0.000118 0.000000
# 3 -0.005492 -0.004135 0.018333 0.000000 -0.004815 0.000000
# 4 0.000000 0.000000 0.000000 -0.030181 0.000000 0.019378
# 5 0.005308 -0.000118 -0.004815 0.000000 0.031656 0.000000
# 6 0.000000 0.000000 0.000000 0.019378 0.000000 0.022644
#
#
# Mechanical properties :
#
#
# Convention : Reuss Voigt Hill
#
# Bulk Modulus (GPa) = 51.98562 53.84244 52.91403
# Shear Modulus (GPa) = 50.24492 19.89162 35.06827
#
# Velocity S-wave (km/s) = 4.98518 3.13667 4.16478
# Velocity P-wave (km/s) = 7.67131 6.30473 7.02135
#
# Compressibility (1/GPa) = 0.01923609
#
# Stress axis : x y z
#
# Youngs Moduli (GPa) = 81.81461 73.78033 54.54777
#
# Poissons Ratio (x) = 0.20728 0.29960
# Poissons Ratio (y) = 0.22986 0.22554
# Poissons Ratio (z) = 0.44936 0.30506
#
# Static dielectric constant tensor:
#      x y z
#    x 1.799990 0.000000 -0.044510 
#    y 0.000000 1.708600 0.000000 
#    z -0.044510 0.000000 1.812410 
# 
# From -- ./inp_files/91285.got.cif
#   From: 2010.05.17/outbox.cif.g08.bks.cpg/sg15_46_cif.got.tgz:91285.got - 2010.06.03 18:47:42.
