data_PCOD9292404
_publ_section_title
;
Structure prediction by ZEFSAII (Michael W. Deem and Ramdas Pophale) SiO2 
 PCOD9292404
Probable space group: C 2/C
;
_chemical_formula_sum "Si O2"
_cell_formula_units_Z 64
_cell_length_a 30.336957
_cell_length_b 11.046864
_cell_length_c 18.310232
_cell_angle_alpha 90.000000
_cell_angle_beta 151.376617
_cell_angle_gamma 90.000000
_cell_volume 2939.583727
_symmetry_space_group_name_H-M "C 2/C"
_symmetry_group_IT_number 15
_symmetry_cell_setting 'monoclinic'
loop_
_space_group_symop_operation_xyz
x,y,z
-x,y,1/2-z
-x,-y,-z
x,-y,1/2+z
1/2+x,1/2+y,z
1/2-x,1/2+y,1/2-z
1/2-x,1/2-y,-z
1/2+x,1/2-y,1/2+z
loop_
_atom_site_type_symbol
_atom_site_label
_atom_site_fract_x
_atom_site_fract_y
_atom_site_fract_z
Si Si1 0.396822 0.471195 0.632184
Si Si2 0.910249 0.423093 0.445657
Si Si3 0.110594 0.552459 0.307430
Si Si4 0.936114 0.293176 0.226799
Si Si5 0.122166 0.047563 0.732442
Si Si6 0.777286 0.405920 0.669437
Si Si7 0.975014 0.206314 0.439899
Si Si8 0.195805 0.645703 0.564866
O O1 0.500000 0.484638 0.750000
O O2 0.383133 0.329546 0.629858
O O3 0.388952 0.545884 0.696228
O O4 0.314141 0.511599 0.460017
O O5 0.862171 0.536115 0.336294
O O6 0.923296 0.311647 0.408780
O O7 0.844812 0.392146 0.417619
O O8 0.010842 0.446394 0.624862
O O9 0.124648 0.410800 0.346446
O O10 0.185993 0.597553 0.359986
O O11 0.117005 0.635112 0.388501
O O12 0.990497 0.255840 0.380109
O O13 0.000000 0.322130 0.250000
O O14 0.224780 0.060747 0.852405
O O15 0.064288 0.158159 0.612934
O O16 0.083628 0.917185 0.651676
O O17 0.741896 0.275644 0.640219
#
# Coordination Sequence:
#
# PCOD9292404 Si02
#       8
#     8   8   8   8   8   8   8   8
#     4  10  24  44  72 105 142 190 239 298 360 435
#     4  12  28  45  72 107 144 193 238 302 364 433
#     4  12  25  50  71 103 146 194 243 291 372 431
#     4  10  22  43  71 102 137 191 238 297 354 437
#     4  10  23  44  70 103 141 186 238 297 363 424
#     4  12  27  47  73 108 142 190 245 302 362 439
#     4  10  23  43  71 101 140 188 236 301 363 425
#     4  12  28  44  71 104 145 189 240 297 359 434
#
# _framework density 21.771791
#
# number of rings (size 3 to 8) (size 9 to 14) (size 15 to 20)
#    0.000    1.000    2.500    2.625    7.000    4.500 
#    0.000    0.000    0.000    0.000    0.000    0.000 
#    0.000    0.000    0.000    0.000    0.000    0.000 
#
# Total GULP energy -178974.313978 kJ/mol
# GULP energy per Si atom -5592.947312 kJ/mol
# Density = 2.172224 g / cm^3
# Si number density = 21.771791 Si / 1000 Ang^3
#
#
#
# Elastic Constant Matrix: (Units=GPa)
#
#
# Indices 1 2 3 4 5 6 
#
# 1 131.7875 30.2445 16.6983 0.0000 -5.7237 0.0000
# 2 30.2445 79.3317 27.3561 0.0000 -6.0409 0.0000
# 3 16.6983 27.3561 97.1976 0.0000 -1.3010 0.0000
# 4 0.0000 0.0000 0.0000 32.1240 0.0000 1.4129
# 5 -5.7237 -6.0409 -1.3010 0.0000 28.6119 0.0000
# 6 0.0000 0.0000 0.0000 1.4129 0.0000 25.2173
#
#
#
# Elastic Compliance Matrix: (Units=1/GPa)
#
#
# Indices 1 2 3 4 5 6 
#
# 1 0.008377 -0.002905 -0.000608 0.000000 0.001035 0.000000
# 2 -0.002905 0.015191 -0.003743 0.000000 0.002456 0.000000
# 3 -0.000608 -0.003743 0.011441 0.000000 -0.000392 0.000000
# 4 0.000000 0.000000 0.000000 0.031206 0.000000 -0.001748
# 5 0.001035 0.002456 -0.000392 0.000000 0.035658 0.000000
# 6 0.000000 0.000000 0.000000 -0.001748 0.000000 0.039753
#
#
# Mechanical properties :
#
#
# Convention : Reuss Voigt Hill
#
# Bulk Modulus (GPa) = 48.79003 50.76829 49.77916
# Shear Modulus (GPa) = 30.68040 32.79185 31.73613
#
# Velocity S-wave (km/s) = 3.75798 3.88514 3.82209
# Velocity P-wave (km/s) = 6.42559 6.59506 6.51088
#
# Compressibility (1/GPa) = 0.02049599
#
# Stress axis : x y z
#
# Youngs Moduli (GPa) = 119.37989 65.82950 87.40461
#
# Poissons Ratio (x) = 0.19125 0.05310
# Poissons Ratio (y) = 0.34682 0.32719
# Poissons Ratio (z) = 0.07253 0.24643
#
# Static dielectric constant tensor:
#      x y z
#    x 1.735690 0.000000 -0.012820 
#    y 0.000000 1.778510 0.000000 
#    z -0.012820 0.000000 1.812560 
# 
# From -- ./inp_files/225202.got.cif
#   From: 2010.05.17/outbox.cif.g08.bks.cpg/sg15_113_cif.got.tgz:225202.got - 2010.06.03 18:47:42.
