data_PCOD9292680
_publ_section_title
;
Structure prediction by ZEFSAII (Michael W. Deem and Ramdas Pophale) SiO2 
 PCOD9292680
Probable space group: C 2/C
;
_chemical_formula_sum "Si O2"
_cell_formula_units_Z 56
_cell_length_a 20.773496
_cell_length_b 16.521168
_cell_length_c 8.865572
_cell_angle_alpha 90.000000
_cell_angle_beta 127.460937
_cell_angle_gamma 90.000000
_cell_volume 2415.187172
_symmetry_space_group_name_H-M "C 2/C"
_symmetry_group_IT_number 15
_symmetry_cell_setting 'monoclinic'
loop_
_space_group_symop_operation_xyz
x,y,z
-x,y,1/2-z
-x,-y,-z
x,-y,1/2+z
1/2+x,1/2+y,z
1/2-x,1/2+y,1/2-z
1/2-x,1/2-y,-z
1/2+x,1/2-y,1/2+z
loop_
_atom_site_type_symbol
_atom_site_label
_atom_site_fract_x
_atom_site_fract_y
_atom_site_fract_z
Si Si1 0.806289 0.480284 0.449607
Si Si2 0.940026 0.965236 0.038522
Si Si3 0.558641 0.174516 0.699909
Si Si4 0.656684 0.314885 0.727613
Si Si5 0.944863 0.620888 0.304794
Si Si6 0.324854 0.849175 0.866997
Si Si7 0.797034 0.922354 0.449096
O O1 0.888909 0.446590 0.641891
O O2 0.818640 0.553364 0.347998
O O3 0.760411 0.414590 0.279493
O O4 0.745626 0.519310 0.486544
O O5 0.000000 0.932077 0.250000
O O6 0.885729 0.894615 0.895341
O O7 0.879870 0.034130 0.015789
O O8 0.000000 0.000000 0.000000
O O9 0.500000 0.206086 0.750000
O O10 0.593266 0.242748 0.640567
O O11 0.510484 0.106673 0.535209
O O12 0.635112 0.151290 0.909805
O O13 0.739137 0.305820 0.751471
O O14 0.682701 0.339187 0.935776
O O15 0.881334 0.676124 0.308190
O O16 0.000000 0.655554 0.250000
#
# Coordination Sequence:
#
# PCOD9292680 Si02
#       7
#     8   8   8   8   8   8   8
#     4  11  21  40  68  96 131 165 213 271 330 372
#     4  12  22  36  62  97 130 159 208 275 327 378
#     4  10  25  44  64  92 129 178 224 260 321 394
#     4  11  23  41  72  87 131 176 218 264 321 399
#     4  11  25  41  66  98 137 162 217 277 326 381
#     4  10  22  44  66  93 128 174 223 262 321 396
#     4  11  21  40  65  99 127 167 214 266 324 398
#
# _framework density 23.186609000000001
#
# number of rings (size 3 to 8) (size 9 to 14) (size 15 to 20)
#    0.000    1.143    5.714    0.429    6.000    3.429 
#    0.000    0.714    3.143    0.000    0.000    0.000 
#    0.000    0.000    0.000    0.000    0.000    0.000 
#
# Total GULP energy -156198.984061 kJ/mol
# GULP energy per Si atom -5578.535145 kJ/mol
# Density = 2.313384 g / cm^3
# Si number density = 23.186609 Si / 1000 Ang^3
#
#
#
# Elastic Constant Matrix: (Units=GPa)
#
#
# Indices 1 2 3 4 5 6 
#
# 1 173.3257 20.5956 42.0850 0.0000 -0.5910 0.0000
# 2 20.5956 38.5055 20.0052 0.0000 7.5404 0.0000
# 3 42.0850 20.0052 114.3359 0.0000 10.2322 0.0000
# 4 0.0000 0.0000 0.0000 30.6981 0.0000 6.9240
# 5 -0.5910 7.5404 10.2322 0.0000 34.2583 0.0000
# 6 0.0000 0.0000 0.0000 6.9240 0.0000 11.1003
#
#
#
# Elastic Compliance Matrix: (Units=1/GPa)
#
#
# Indices 1 2 3 4 5 6 
#
# 1 0.006600 -0.002713 -0.002074 0.000000 0.001330 0.000000
# 2 -0.002713 0.030516 -0.003838 0.000000 -0.005617 0.000000
# 3 -0.002074 -0.003838 0.010386 0.000000 -0.002293 0.000000
# 4 0.000000 0.000000 0.000000 0.037909 0.000000 -0.023646
# 5 0.001330 -0.005617 -0.002293 0.000000 0.031134 0.000000
# 6 0.000000 0.000000 0.000000 -0.023646 0.000000 0.104838
#
#
# Mechanical properties :
#
#
# Convention : Reuss Voigt Hill
#
# Bulk Modulus (GPa) = 33.05569 54.61543 43.83556
# Shear Modulus (GPa) = 20.10324 31.44342 25.77333
#
# Velocity S-wave (km/s) = 2.94771 3.68652 3.33762
# Velocity P-wave (km/s) = 5.08652 6.45960 5.81374
#
# Compressibility (1/GPa) = 0.03025198
#
# Stress axis : x y z
#
# Youngs Moduli (GPa) = 151.51674 32.77022 96.28204
#
# Poissons Ratio (x) = 0.08892 0.19965
# Poissons Ratio (y) = 0.41111 0.36952
# Poissons Ratio (z) = 0.31419 0.12577
#
# Static dielectric constant tensor:
#      x y z
#    x 1.873020 0.000000 0.039580 
#    y 0.000000 1.938990 0.000000 
#    z 0.039580 0.000000 1.890020 
# 
# From -- ./inp_files/57927.got.cif
#   From: 2010.05.17/outbox.cif.g08.bks.cpg/sg15_29_cif.got.tgz:57927.got - 2010.06.03 18:47:42.
