data_PCOD9292823
_publ_section_title
;
Structure prediction by ZEFSAII (Michael W. Deem and Ramdas Pophale) SiO2 
 PCOD9292823
Probable space group: C 2/C
;
_chemical_formula_sum "Si O2"
_cell_formula_units_Z 52
_cell_length_a 11.195418
_cell_length_b 8.805576
_cell_length_c 25.845726
_cell_angle_alpha 90.000000
_cell_angle_beta 96.214445
_cell_angle_gamma 90.000000
_cell_volume 2532.953683
_symmetry_space_group_name_H-M "C 2/C"
_symmetry_group_IT_number 15
_symmetry_cell_setting 'monoclinic'
loop_
_space_group_symop_operation_xyz
x,y,z
-x,y,1/2-z
-x,-y,-z
x,-y,1/2+z
1/2+x,1/2+y,z
1/2-x,1/2+y,1/2-z
1/2-x,1/2-y,-z
1/2+x,1/2-y,1/2+z
loop_
_atom_site_type_symbol
_atom_site_label
_atom_site_fract_x
_atom_site_fract_y
_atom_site_fract_z
Si Si1 0.901614 0.170966 0.288124
Si Si2 0.992390 0.217230 0.097123
Si Si3 0.500000 0.875393 0.750000
Si Si4 0.748219 0.178803 0.432826
Si Si5 0.790139 0.152004 0.769426
Si Si6 0.125285 0.029651 0.974573
Si Si7 0.637618 0.038335 0.848075
O O1 0.804597 0.304790 0.279584
O O2 0.000000 0.205437 0.250000
O O3 0.961811 0.147477 0.346275
O O4 0.835896 0.018634 0.266915
O O5 0.936011 0.375735 0.111516
O O6 0.114829 0.238607 0.069541
O O7 0.891873 0.108261 0.066620
O O8 0.398446 0.767610 0.769170
O O9 0.555511 0.973671 0.798587
O O10 0.770081 0.046518 0.477128
O O11 0.655323 0.310826 0.446060
O O12 0.705948 0.099646 0.378459
O O13 0.726636 0.153897 0.822597
O O14 0.000000 0.000000 0.000000
#
# Coordination Sequence:
#
# PCOD9292823 Si02
#       7
#     8   8   4   8   8   8   8
#     4  12  24  40  64  92 132 175 220 260 322 384
#     4  11  23  40  66  94 128 167 214 268 322 385
#     4  12  26  38  60  92 132 174 222 260 318 378
#     4  10  22  44  68  95 128 165 212 272 332 388
#     4  12  24  40  60  90 128 175 213 268 309 381
#     4   9  22  44  70  95 127 165 213 272 333 392
#     4  12  25  40  63  95 130 171 219 267 317 386
#
# _framework density 20.529392000000001
#
# number of rings (size 3 to 8) (size 9 to 14) (size 15 to 20)
#    0.000    0.923    5.385    0.923    2.154    3.077 
#    0.000    6.923    0.000    0.000    0.000    0.000 
#    0.000    0.000    0.000    0.000    0.000    0.000 
#
# Total GULP energy -144961.837823 kJ/mol
# GULP energy per Si atom -5575.455301 kJ/mol
# Density = 2.048267 g / cm^3
# Si number density = 20.529392 Si / 1000 Ang^3
#
#
#
# Elastic Constant Matrix: (Units=GPa)
#
#
# Indices 1 2 3 4 5 6 
#
# 1 94.1571 36.5773 17.9888 0.0000 -13.8835 0.0000
# 2 36.5773 59.5539 11.2039 0.0000 -7.0069 0.0000
# 3 17.9888 11.2039 81.9759 0.0000 -2.8363 0.0000
# 4 0.0000 0.0000 0.0000 38.9612 0.0000 -6.6613
# 5 -13.8835 -7.0069 -2.8363 0.0000 21.2879 0.0000
# 6 0.0000 0.0000 0.0000 -6.6613 0.0000 38.2071
#
#
#
# Elastic Compliance Matrix: (Units=1/GPa)
#
#
# Indices 1 2 3 4 5 6 
#
# 1 0.015186 -0.008135 -0.001980 0.000000 0.006962 0.000000
# 2 -0.008135 0.022230 -0.001189 0.000000 0.001853 0.000000
# 3 -0.001980 -0.001189 0.012796 0.000000 0.000023 0.000000
# 4 0.000000 0.000000 0.000000 0.026455 0.000000 0.004612
# 5 0.006962 0.001853 0.000023 0.000000 0.052129 0.000000
# 6 0.000000 0.000000 0.000000 0.004612 0.000000 0.026977
#
#
# Mechanical properties :
#
#
# Convention : Reuss Voigt Hill
#
# Bulk Modulus (GPa) = 36.22624 40.80299 38.51461
# Shear Modulus (GPa) = 26.65502 31.01903 28.83703
#
# Velocity S-wave (km/s) = 3.60722 3.89132 3.75196
# Velocity P-wave (km/s) = 5.91893 6.33312 6.12952
#
# Compressibility (1/GPa) = 0.02760430
#
# Stress axis : x y z
#
# Youngs Moduli (GPa) = 65.85162 44.98469 78.14712
#
# Poissons Ratio (x) = 0.36596 0.15470
# Poissons Ratio (y) = 0.53572 0.09291
# Poissons Ratio (z) = 0.13036 0.05348
#
# Static dielectric constant tensor:
#      x y z
#    x 1.788270 0.000000 -0.023310 
#    y 0.000000 1.724660 0.000000 
#    z -0.023310 0.000000 1.762540 
# 
# From -- ./inp_files/291218.got.cif
#   From: 2010.05.17/outbox.cif.g08.bks.cpg/sg15_146_cif.got.tgz:291218.got - 2010.06.03 18:47:42.
