data_PCOD9292370
_publ_section_title
;
Structure prediction by ZEFSAII (Michael W. Deem and Ramdas Pophale) SiO2 
 PCOD9292370
Probable space group: C 2/C
;
_chemical_formula_sum "Si O2"
_cell_formula_units_Z 48
_cell_length_a 13.916929
_cell_length_b 14.817449
_cell_length_c 28.268789
_cell_angle_alpha 90.000000
_cell_angle_beta 159.885386
_cell_angle_gamma 90.000000
_cell_volume 2004.726986
_symmetry_space_group_name_H-M "C 2/C"
_symmetry_group_IT_number 15
_symmetry_cell_setting 'monoclinic'
loop_
_space_group_symop_operation_xyz
x,y,z
-x,y,1/2-z
-x,-y,-z
x,-y,1/2+z
1/2+x,1/2+y,z
1/2-x,1/2+y,1/2-z
1/2-x,1/2-y,-z
1/2+x,1/2-y,1/2+z
loop_
_atom_site_type_symbol
_atom_site_label
_atom_site_fract_x
_atom_site_fract_y
_atom_site_fract_z
Si Si1 0.284505 0.369277 0.909687
Si Si2 0.351499 0.706855 0.596000
Si Si3 0.580606 0.014576 0.482462
Si Si4 0.656598 0.057708 0.873505
Si Si5 0.544842 0.215497 0.656857
Si Si6 0.953065 0.890944 0.784845
O O1 0.310964 0.270489 0.942655
O O2 0.230998 0.453815 0.920927
O O3 0.000000 0.366396 0.750000
O O4 0.545981 0.395632 0.998761
O O5 0.250000 0.750000 0.500000
O O6 0.263020 0.604510 0.561711
O O7 0.688603 0.714035 0.754710
O O8 0.298102 0.037763 0.324235
O O9 0.500000 0.000000 0.500000
O O10 0.775838 0.929288 0.562673
O O11 0.500000 0.056999 0.750000
O O12 0.489480 0.119685 0.832582
O O13 0.619040 0.292792 0.729556
O O14 0.250000 0.250000 0.500000
O O15 0.000000 0.886097 0.750000
#
# Coordination Sequence:
#
# PCOD9292370 Si02
#       6
#     8   8   8   8   8   8
#     4  10  23  42  68  96 128 172 232 275 335 420
#     4  12  25  43  68 101 141 182 225 297 353 407
#     4  10  24  43  68  99 135 186 238 284 352 429
#     4  10  22  43  70  93 124 178 226 279 334 411
#     4  12  26  40  67 103 143 177 226 292 360 411
#     4  10  23  44  68  98 135 188 240 288 347 437
#
# _framework density 23.943411000000001
#
# number of rings (size 3 to 8) (size 9 to 14) (size 15 to 20)
#    0.000    1.333    1.667    2.500    7.000    4.667 
#    0.000    0.000    0.000    0.000    0.000    0.000 
#    0.000    0.000    0.000    0.000    0.000    0.000 
#
# Total GULP energy -134244.717502 kJ/mol
# GULP energy per Si atom -5593.529896 kJ/mol
# Density = 2.388892 g / cm^3
# Si number density = 23.943411 Si / 1000 Ang^3
#
#
#
# Elastic Constant Matrix: (Units=GPa)
#
#
# Indices 1 2 3 4 5 6 
#
# 1 39.2845 39.5381 11.1397 -0.0015 9.6360 -0.0004
# 2 39.5381 98.4096 -23.1539 0.0014 6.8182 0.0059
# 3 11.1397 -23.1539 99.0454 -0.0196 12.3326 0.0065
# 4 -0.0015 0.0014 -0.0196 36.6278 0.0003 11.5125
# 5 9.6360 6.8182 12.3326 0.0003 28.1370 -0.0001
# 6 -0.0004 0.0059 0.0065 11.5125 -0.0001 40.5801
#
#
#
# Elastic Compliance Matrix: (Units=1/GPa)
#
#
# Indices 1 2 3 4 5 6 
#
# 1 0.054483 -0.023834 -0.010678 -0.000005 -0.008203 0.000007
# 2 -0.023834 0.021604 0.007792 0.000004 -0.000488 -0.000006
# 3 -0.010678 0.007792 0.013643 0.000008 -0.004211 -0.000006
# 4 -0.000005 0.000004 0.000008 0.029974 -0.000003 -0.008504
# 5 -0.008203 -0.000488 -0.004211 -0.000003 0.040314 0.000002
# 6 0.000007 -0.000006 -0.000006 -0.008504 0.000002 0.027055
#
#
# Mechanical properties :
#
#
# Convention : Reuss Voigt Hill
#
# Bulk Modulus (GPa) = 27.55506 32.42081 29.98793
# Shear Modulus (GPa) = 19.79336 35.01669 27.40503
#
# Velocity S-wave (km/s) = 2.87831 3.82838 3.38683
# Velocity P-wave (km/s) = 4.75180 5.75430 5.27691
#
# Compressibility (1/GPa) = 0.03629097
#
# Stress axis : x y z
#
# Youngs Moduli (GPa) = 18.35442 46.28693 73.29666
#
# Poissons Ratio (x) = 1.10318 0.78266
# Poissons Ratio (y) = 0.43745 -0.57112
# Poissons Ratio (z) = 0.19599 -0.36066
#
# Static dielectric constant tensor:
#      x y z
#    x 1.841620 0.000000 -0.033490 
#    y 0.000000 1.899150 0.000000 
#    z -0.033490 0.000000 1.937410 
# 
# From -- ./inp_files/66388.got.cif
#   From: 2010.05.17/outbox.cif.g08.bks.cpg/sg15_34_cif.got.tgz:66388.got - 2010.06.03 18:47:42.
