data_PCOD9292064
_publ_section_title
;
Structure prediction by ZEFSAII (Michael W. Deem and Ramdas Pophale) SiO2 
 PCOD9292064
Probable space group: C 2/C
;
_chemical_formula_sum "Si O2"
_cell_formula_units_Z 48
_cell_length_a 13.474019
_cell_length_b 5.003663
_cell_length_c 31.139582
_cell_angle_alpha 90.000000
_cell_angle_beta 68.282369
_cell_angle_gamma 90.000000
_cell_volume 1950.394506
_symmetry_space_group_name_H-M "C 2/C"
_symmetry_group_IT_number 15
_symmetry_cell_setting 'monoclinic'
loop_
_space_group_symop_operation_xyz
x,y,z
-x,y,1/2-z
-x,-y,-z
x,-y,1/2+z
1/2+x,1/2+y,z
1/2-x,1/2+y,1/2-z
1/2-x,1/2-y,-z
1/2+x,1/2-y,1/2+z
loop_
_atom_site_type_symbol
_atom_site_label
_atom_site_fract_x
_atom_site_fract_y
_atom_site_fract_z
Si Si1 0.540626 0.236106 0.857804
Si Si2 0.852458 0.119795 0.594209
Si Si3 0.844248 0.949369 0.000894
Si Si4 0.043569 0.530382 0.053732
Si Si5 0.923678 0.029619 0.728186
Si Si6 0.770706 0.342182 0.687360
O O1 0.563627 0.466401 0.888742
O O2 0.455427 0.048874 0.895685
O O3 0.511668 0.346671 0.815856
O O4 0.658766 0.105648 0.833393
O O5 0.822359 0.988161 0.554258
O O6 0.762270 0.198465 0.642679
O O7 0.920974 0.376858 0.568850
O O8 0.622780 0.273562 0.027871
O O9 0.750000 0.750000 0.000000
O O10 0.939804 0.737673 0.976755
O O11 0.849682 0.199749 0.708535
O O12 0.840179 0.872869 0.771154
O O13 0.000000 0.175606 0.750000
#
# Coordination Sequence:
#
# PCOD9292064 Si02
#       6
#     8   8   8   8   8   8
#     4  10  22  43  70  98 134 184 240 301 361 433
#     4  10  23  42  71  97 135 190 233 289 364 417
#     4  12  26  42  66 105 144 184 235 297 349 428
#     4  11  23  44  70  95 136 188 233 279 355 430
#     4  11  23  43  72 102 138 192 241 302 378 440
#     4  10  22  43  66 100 145 177 243 306 358 443
#
# _framework density 24.610403000000002
#
# number of rings (size 3 to 8) (size 9 to 14) (size 15 to 20)
#    0.000    1.333    3.333    1.500    4.667    2.000 
#    0.000    0.000    0.000    0.000    0.000    0.000 
#    0.000    0.000    0.000    0.000    0.000    0.000 
#
# Total GULP energy -133889.489506 kJ/mol
# GULP energy per Si atom -5578.728729 kJ/mol
# Density = 2.455439 g / cm^3
# Si number density = 24.610403 Si / 1000 Ang^3
#
#
#
# Elastic Constant Matrix: (Units=GPa)
#
#
# Indices 1 2 3 4 5 6 
#
# 1 58.5623 5.7358 39.6654 0.0008 17.3879 0.0007
# 2 5.7358 97.7353 47.2564 0.0038 5.1773 0.0047
# 3 39.6654 47.2564 200.9457 0.0005 14.4607 -0.0004
# 4 0.0008 0.0038 0.0005 36.6777 0.0003 -6.2470
# 5 17.3879 5.1773 14.4607 0.0003 21.3294 0.0007
# 6 0.0007 0.0047 -0.0004 -6.2470 0.0007 19.4254
#
#
#
# Elastic Compliance Matrix: (Units=1/GPa)
#
#
# Indices 1 2 3 4 5 6 
#
# 1 0.024970 0.001405 -0.003963 -0.000001 -0.018010 -0.000001
# 2 0.001405 0.011644 -0.002870 -0.000002 -0.002026 -0.000003
# 3 -0.003963 -0.002870 0.006467 0.000000 -0.000457 0.000001
# 4 -0.000001 -0.000002 0.000000 0.028844 0.000000 0.009276
# 5 -0.018010 -0.002026 -0.000457 0.000000 0.062367 -0.000001
# 6 -0.000001 -0.000003 0.000001 0.009276 -0.000001 0.054462
#
#
# Mechanical properties :
#
#
# Convention : Reuss Voigt Hill
#
# Bulk Modulus (GPa) = 31.03256 60.28427 45.65842
# Shear Modulus (GPa) = 23.76972 33.12556 28.44764
#
# Velocity S-wave (km/s) = 3.11117 3.67276 3.40357
# Velocity P-wave (km/s) = 5.05398 6.52183 5.83425
#
# Compressibility (1/GPa) = 0.03222422
#
# Stress axis : x y z
#
# Youngs Moduli (GPa) = 40.04817 85.87949 154.64164
#
# Poissons Ratio (x) = -0.12065 0.61288
# Poissons Ratio (y) = -0.05626 0.44380
# Poissons Ratio (z) = 0.15872 0.24646
#
# Static dielectric constant tensor:
#      x y z
#    x 1.987180 0.000000 -0.003510 
#    y 0.000000 2.105950 0.000000 
#    z -0.003510 0.000000 2.073900 
# 
# From -- ./inp_files/312261.got.cif
#   From: 2010.05.17/outbox.cif.g08.bks.cpg/sg15_157_cif.got.tgz:312261.got - 2010.06.03 18:47:42.
