data_PCOD9292361
_publ_section_title
;
Structure prediction by ZEFSAII (Michael W. Deem and Ramdas Pophale) SiO2 
 PCOD9292361
Probable space group: C 2/C
;
_chemical_formula_sum "Si O2"
_cell_formula_units_Z 44
_cell_length_a 8.386318
_cell_length_b 17.134755
_cell_length_c 13.485936
_cell_angle_alpha 90.000000
_cell_angle_beta 83.649036
_cell_angle_gamma 90.000000
_cell_volume 1926.002395
_symmetry_space_group_name_H-M "C 2/C"
_symmetry_group_IT_number 15
_symmetry_cell_setting 'monoclinic'
loop_
_space_group_symop_operation_xyz
x,y,z
-x,y,1/2-z
-x,-y,-z
x,-y,1/2+z
1/2+x,1/2+y,z
1/2-x,1/2+y,1/2-z
1/2-x,1/2-y,-z
1/2+x,1/2-y,1/2+z
loop_
_atom_site_type_symbol
_atom_site_label
_atom_site_fract_x
_atom_site_fract_y
_atom_site_fract_z
Si Si1 0.279959 0.758009 0.114103
Si Si2 0.528182 0.398637 0.862702
Si Si3 0.686951 0.946470 0.881835
Si Si4 0.000000 0.156917 0.750000
Si Si5 0.739077 0.528630 0.829162
Si Si6 0.976005 0.596625 0.557574
O O1 0.366984 0.679066 0.141893
O O2 0.410001 0.826583 0.112260
O O3 0.117611 0.787359 0.177953
O O4 0.250000 0.750000 0.000000
O O5 0.500000 0.419839 0.750000
O O6 0.344145 0.400513 0.909174
O O7 0.628128 0.469880 0.898992
O O8 0.693012 0.973262 0.765942
O O9 0.662693 0.031797 0.931495
O O10 0.540094 0.897801 0.940088
O O11 0.122915 0.097987 0.798034
O O12 0.882485 0.564040 0.882578
#
# Coordination Sequence:
#
# PCOD9292361 Si02
#       6
#     8   8   8   4   8   8
#     4  12  30  48  67 108 150 193 241 302 369 439
#     4  10  24  45  69 101 144 183 238 299 372 420
#     4  10  22  43  70 106 136 182 246 295 354 432
#     4  12  26  50  74 102 146 196 246 298 364 430
#     4  11  22  46  76 101 135 192 249 299 353 431
#     4  11  25  42  74 105 143 190 244 294 365 437
#
# _framework density 22.845247000000001
#
# number of rings (size 3 to 8) (size 9 to 14) (size 15 to 20)
#    0.000    1.091    4.545    0.545   10.182    4.364 
#    0.000    0.000    0.000    0.000    0.000    0.000 
#    0.000    0.000    0.000    0.000    0.000    0.000 
#
# Total GULP energy -122748.631612 kJ/mol
# GULP energy per Si atom -5579.483255 kJ/mol
# Density = 2.279325 g / cm^3
# Si number density = 22.845247 Si / 1000 Ang^3
#
#
#
# Elastic Constant Matrix: (Units=GPa)
#
#
# Indices 1 2 3 4 5 6 
#
# 1 98.1610 53.8038 33.9081 0.0000 1.3336 0.0000
# 2 53.8038 107.6811 10.3167 0.0000 -7.9846 0.0000
# 3 33.9081 10.3167 58.1724 0.0000 -10.5651 0.0000
# 4 0.0000 0.0000 0.0000 29.3729 0.0000 0.1792
# 5 1.3336 -7.9846 -10.5651 0.0000 53.4345 0.0000
# 6 0.0000 0.0000 0.0000 0.1792 0.0000 43.0454
#
#
#
# Elastic Compliance Matrix: (Units=1/GPa)
#
#
# Indices 1 2 3 4 5 6 
#
# 1 0.018260 -0.008455 -0.009808 0.000000 -0.003658 0.000000
# 2 -0.008455 0.013427 0.003060 0.000000 0.002822 0.000000
# 3 -0.009808 0.003060 0.023330 0.000000 0.005315 0.000000
# 4 0.000000 0.000000 0.000000 0.034046 0.000000 -0.000142
# 5 -0.003658 0.002822 0.005315 0.000000 0.020278 0.000000
# 6 0.000000 0.000000 0.000000 -0.000142 0.000000 0.023232
#
#
# Mechanical properties :
#
#
# Convention : Reuss Voigt Hill
#
# Bulk Modulus (GPa) = 40.63435 51.11906 45.87670
# Shear Modulus (GPa) = 29.20839 36.23631 32.72235
#
# Velocity S-wave (km/s) = 3.57954 3.98699 3.78874
# Velocity P-wave (km/s) = 5.90843 6.60451 6.26614
#
# Compressibility (1/GPa) = 0.02460972
#
# Stress axis : x y z
#
# Youngs Moduli (GPa) = 54.76597 74.47412 42.86321
#
# Poissons Ratio (x) = 0.62969 0.42041
# Poissons Ratio (y) = 0.46305 -0.13115
# Poissons Ratio (z) = 0.53716 -0.22787
#
# Static dielectric constant tensor:
#      x y z
#    x 1.954970 0.000000 -0.058020 
#    y 0.000000 1.724560 0.000000 
#    z -0.058020 0.000000 1.951100 
# 
# From -- ./inp_files/134393.got.cif
#   From: 2010.05.17/outbox.cif.g08.bks.cpg/sg15_68_cif.got.tgz:134393.got - 2010.06.03 18:47:42.
