data_PCOD9292812
_publ_section_title
;
Structure prediction by ZEFSAII (Michael W. Deem and Ramdas Pophale) SiO2 
 PCOD9292812
Probable space group: C 2/C
;
_chemical_formula_sum "Si O2"
_cell_formula_units_Z 56
_cell_length_a 8.769217
_cell_length_b 11.521961
_cell_length_c 32.188749
_cell_angle_alpha 90.000000
_cell_angle_beta 59.690543
_cell_angle_gamma 90.000000
_cell_volume 2807.755112
_symmetry_space_group_name_H-M "C 2/C"
_symmetry_group_IT_number 15
_symmetry_cell_setting 'monoclinic'
loop_
_space_group_symop_operation_xyz
x,y,z
-x,y,1/2-z
-x,-y,-z
x,-y,1/2+z
1/2+x,1/2+y,z
1/2-x,1/2+y,1/2-z
1/2-x,1/2-y,-z
1/2+x,1/2-y,1/2+z
loop_
_atom_site_type_symbol
_atom_site_label
_atom_site_fract_x
_atom_site_fract_y
_atom_site_fract_z
Si Si1 0.960497 0.516950 0.590520
Si Si2 0.500000 0.560249 0.750000
Si Si3 0.675307 0.139574 0.487872
Si Si4 0.925417 0.725147 0.448388
Si Si5 0.000000 0.495089 0.750000
Si Si6 0.602991 0.856895 0.315625
Si Si7 0.118578 0.090196 0.311958
Si Si8 0.403801 0.530816 0.906665
O O1 0.969289 0.587121 0.631968
O O2 0.754136 0.520017 0.605635
O O3 0.048757 0.575571 0.537892
O O4 0.057646 0.391981 0.581566
O O5 0.682928 0.628878 0.716822
O O6 0.464982 0.479853 0.714844
O O7 0.750000 0.250000 0.500000
O O8 0.573864 0.191142 0.461930
O O9 0.826746 0.049355 0.453927
O O10 0.750000 0.750000 0.500000
O O11 0.943511 0.840458 0.417994
O O12 0.975603 0.575984 0.713052
O O13 0.827434 0.417199 0.777518
O O14 0.555369 0.721943 0.321209
O O15 0.068987 0.026527 0.361489
#
# Coordination Sequence:
#
# PCOD9292812 Si02
#       8
#     8   4   8   8   4   8   8   8
#     4  11  22  40  66  95 128 173 221 260 325 389
#     4  10  22  44  68  92 124 176 212 264 344 380
#     4  11  23  39  62  95 133 167 215 271 318 384
#     4  11  21  42  65  88 133 176 218 261 311 389
#     4  10  26  44  64 104 126 162 222 274 326 394
#     4  11  23  44  68  96 132 167 216 275 327 388
#     4  11  23  43  68  95 129 167 218 268 330 387
#     4  11  22  41  65  95 127 177 216 260 323 392
#
# _framework density 19.944759000000001
#
# number of rings (size 3 to 8) (size 9 to 14) (size 15 to 20)
#    0.000    1.143    4.286    2.571    0.000    5.143 
#   12.857    0.000    0.000    0.000    0.000    0.000 
#    0.000    0.000    0.000    0.000    0.000    0.000 
#
# Total GULP energy -156308.175448 kJ/mol
# GULP energy per Si atom -5582.434837 kJ/mol
# Density = 1.989936 g / cm^3
# Si number density = 19.944759 Si / 1000 Ang^3
#
#
#
# Elastic Constant Matrix: (Units=GPa)
#
#
# Indices 1 2 3 4 5 6 
#
# 1 32.0316 5.4184 1.5354 0.0000 4.6480 0.0000
# 2 5.4184 125.7538 27.0008 0.0000 2.5666 0.0000
# 3 1.5354 27.0008 100.9799 0.0000 3.3636 0.0000
# 4 0.0000 0.0000 0.0000 226.8202 0.0000 84.4191
# 5 4.6480 2.5666 3.3636 0.0000 21.6357 0.0000
# 6 0.0000 0.0000 0.0000 84.4191 0.0000 53.0636
#
#
#
# Elastic Compliance Matrix: (Units=1/GPa)
#
#
# Indices 1 2 3 4 5 6 
#
# 1 0.032422 -0.001274 0.000075 0.000000 -0.006826 0.000000
# 2 -0.001274 0.008496 -0.002239 0.000000 -0.000386 0.000000
# 3 0.000075 -0.002239 0.010547 0.000000 -0.001390 0.000000
# 4 0.000000 0.000000 0.000000 0.010809 0.000000 -0.017196
# 5 -0.006826 -0.000386 -0.001390 0.000000 0.047948 0.000000
# 6 0.000000 0.000000 0.000000 -0.017196 0.000000 0.046202
#
#
# Mechanical properties :
#
#
# Convention : Reuss Voigt Hill
#
# Bulk Modulus (GPa) = 22.42771 36.29717 29.36244
# Shear Modulus (GPa) = 28.06433 75.29127 51.67780
#
# Velocity S-wave (km/s) = 3.75521 6.15076 5.09575
# Velocity P-wave (km/s) = 5.48374 8.28739 7.02681
#
# Compressibility (1/GPa) = 0.04458770
#
# Stress axis : x y z
#
# Youngs Moduli (GPa) = 30.84371 117.70757 94.81450
#
# Poissons Ratio (x) = 0.14993 -0.00711
# Poissons Ratio (y) = 0.03929 0.21233
# Poissons Ratio (z) = -0.00231 0.26359
#
# Static dielectric constant tensor:
#      x y z
#    x 1.707640 0.000000 0.043290 
#    y 0.000000 1.615100 0.000000 
#    z 0.043290 0.000000 1.527930 
# 
# From -- ./inp_files/288106.got.cif
#   From: 2010.05.17/outbox.cif.g08.bks.cpg/sg15_145_cif.got.tgz:288106.got - 2010.06.03 18:47:42.
