data_PCOD9292363
_publ_section_title
;
Structure prediction by ZEFSAII (Michael W. Deem and Ramdas Pophale) SiO2 
 PCOD9292363
Probable space group: C 2/C
;
_chemical_formula_sum "Si O2"
_cell_formula_units_Z 56
_cell_length_a 13.118131
_cell_length_b 13.950365
_cell_length_c 21.503851
_cell_angle_alpha 90.000000
_cell_angle_beta 37.800928
_cell_angle_gamma 90.000000
_cell_volume 2412.000892
_symmetry_space_group_name_H-M "C 2/C"
_symmetry_group_IT_number 15
_symmetry_cell_setting 'monoclinic'
loop_
_space_group_symop_operation_xyz
x,y,z
-x,y,1/2-z
-x,-y,-z
x,-y,1/2+z
1/2+x,1/2+y,z
1/2-x,1/2+y,1/2-z
1/2-x,1/2-y,-z
1/2+x,1/2-y,1/2+z
loop_
_atom_site_type_symbol
_atom_site_label
_atom_site_fract_x
_atom_site_fract_y
_atom_site_fract_z
Si Si1 0.987153 0.802514 0.117675
Si Si2 0.459453 0.499927 0.700980
Si Si3 0.073229 0.488051 0.394527
Si Si4 0.279004 0.795951 0.893413
Si Si5 0.357112 0.653641 0.459817
Si Si6 0.171063 0.727053 0.825192
Si Si7 0.378992 0.992934 0.362624
O O1 0.099430 0.745340 0.113249
O O2 0.986009 0.914112 0.138902
O O3 0.795960 0.770672 0.207104
O O4 0.088845 0.785181 0.006566
O O5 0.500000 0.536878 0.750000
O O6 0.262872 0.474025 0.796458
O O7 0.590459 0.415295 0.622939
O O8 0.084445 0.374699 0.374370
O O9 0.000000 0.500000 0.500000
O O10 0.963534 0.522305 0.388468
O O11 0.295369 0.737729 0.822821
O O12 0.310364 0.907808 0.868774
O O13 0.250000 0.750000 0.500000
O O14 0.537663 0.690297 0.392770
O O15 0.258651 0.585842 0.554616
O O16 0.500000 0.954745 0.250000
#
# Coordination Sequence:
#
# PCOD9292363 Si02
#       7
#     8   8   8   8   8   8   8
#     4  10  22  43  70 108 135 178 236 309 373 426
#     4  11  24  44  75 101 143 190 250 307 366 443
#     4  11  26  47  76 106 144 192 254 305 376 449
#     4  11  24  42  76 104 150 178 241 309 385 430
#     4  12  27  49  65 102 153 196 252 300 372 452
#     4  11  25  44  69 101 143 189 248 304 359 458
#     4  12  27  48  74 110 153 198 247 316 384 452
#
# _framework density 23.217238999999999
#
# number of rings (size 3 to 8) (size 9 to 14) (size 15 to 20)
#    0.000    0.857    2.857    3.857    8.000    3.429 
#    0.000    0.000    0.000    0.000    0.000    0.000 
#    0.000    0.000    0.000    0.000    0.000    0.000 
#
# Total GULP energy -156488.051067 kJ/mol
# GULP energy per Si atom -5588.858967 kJ/mol
# Density = 2.316440 g / cm^3
# Si number density = 23.217239 Si / 1000 Ang^3
#
#
#
# Elastic Constant Matrix: (Units=GPa)
#
#
# Indices 1 2 3 4 5 6 
#
# 1 38.1543 -3.5348 7.8516 0.0000 -2.5625 0.0000
# 2 -3.5348 73.7469 14.6735 -0.0001 -11.8253 0.0000
# 3 7.8516 14.6735 176.5487 -0.0004 -4.3092 0.0001
# 4 0.0000 -0.0001 -0.0004 13.0176 0.0000 -12.6130
# 5 -2.5625 -11.8253 -4.3092 0.0000 28.8062 0.0000
# 6 0.0000 0.0000 0.0001 -12.6130 0.0000 26.6367
#
#
#
# Elastic Compliance Matrix: (Units=1/GPa)
#
#
# Indices 1 2 3 4 5 6 
#
# 1 0.026866 0.002030 -0.001290 0.000000 0.003031 0.000000
# 2 0.002030 0.014871 -0.001177 0.000000 0.006109 0.000000
# 3 -0.001290 -0.001177 0.005826 0.000000 0.000274 0.000000
# 4 0.000000 0.000000 0.000000 0.141943 0.000000 0.067213
# 5 0.003031 0.006109 0.000274 0.000000 0.037533 0.000000
# 6 0.000000 0.000000 0.000000 0.067213 0.000000 0.069369
#
#
# Mechanical properties :
#
#
# Convention : Reuss Voigt Hill
#
# Bulk Modulus (GPa) = 21.41762 36.27005 28.84384
# Shear Modulus (GPa) = 15.98234 31.65608 23.81921
#
# Velocity S-wave (km/s) = 2.62655 3.69653 3.20649
# Velocity P-wave (km/s) = 4.29456 5.82023 5.11460
#
# Compressibility (1/GPa) = 0.04669052
#
# Stress axis : x y z
#
# Youngs Moduli (GPa) = 37.22120 67.24483 171.64363
#
# Poissons Ratio (x) = -0.13653 0.22135
# Poissons Ratio (y) = -0.07557 0.20205
# Poissons Ratio (z) = 0.04800 0.07916
#
# Static dielectric constant tensor:
#      x y z
#    x 1.900210 0.000000 -1.218180 
#    y 0.000000 1.837160 -0.000010 
#    z -1.218180 -0.000010 42.827610 
# 
# From -- ./inp_files/274463.got.cif
#   From: 2010.05.17/outbox.cif.g08.bks.cpg/sg15_138_cif.got.tgz:274463.got - 2010.06.03 18:47:42.
