data_PCOD9292024
_publ_section_title
;
Structure prediction by ZEFSAII (Michael W. Deem and Ramdas Pophale) SiO2 
 PCOD9292024
Probable space group: C 2/C
;
_chemical_formula_sum "Si O2"
_cell_formula_units_Z 56
_cell_length_a 23.512454
_cell_length_b 19.082544
_cell_length_c 20.104615
_cell_angle_alpha 90.000000
_cell_angle_beta 162.290801
_cell_angle_gamma 90.000000
_cell_volume 2743.905990
_symmetry_space_group_name_H-M "C 2/C"
_symmetry_group_IT_number 15
_symmetry_cell_setting 'monoclinic'
loop_
_space_group_symop_operation_xyz
x,y,z
-x,y,1/2-z
-x,-y,-z
x,-y,1/2+z
1/2+x,1/2+y,z
1/2-x,1/2+y,1/2-z
1/2-x,1/2-y,-z
1/2+x,1/2-y,1/2+z
loop_
_atom_site_type_symbol
_atom_site_label
_atom_site_fract_x
_atom_site_fract_y
_atom_site_fract_z
Si Si1 0.372567 0.172464 0.000173
Si Si2 0.227766 0.674120 0.760597
Si Si3 0.827479 0.964708 0.608669
Si Si4 0.611288 0.825474 0.520876
Si Si5 0.091752 0.801350 0.290194
Si Si6 0.940420 0.937291 0.882903
Si Si7 0.000000 0.352341 0.250000
Si Si8 0.500000 0.925656 0.750000
O O1 0.435654 0.251015 0.085847
O O2 0.502998 0.121829 0.187598
O O3 0.370370 0.164740 0.919972
O O4 0.179237 0.160414 0.824598
O O5 0.302418 0.753379 0.854207
O O6 0.080117 0.659104 0.653775
O O7 0.397059 0.619953 0.945011
O O8 0.904724 0.966314 0.769561
O O9 0.684618 0.899069 0.439437
O O10 0.000000 0.964271 0.750000
O O11 0.683284 0.028434 0.445847
O O12 0.754489 0.890462 0.691400
O O13 0.561419 0.814771 0.386992
O O14 0.250000 0.750000 0.500000
O O15 0.000000 0.841710 0.250000
O O16 0.000000 0.000000 0.000000
#
# Coordination Sequence:
#
# PCOD9292024 Si02
#       8
#     8   8   8   8   8   8   4   4
#     4  11  21  37  54  88 128 171 209 274 314 384
#     4  12  24  42  66 101 143 172 223 278 340 408
#     4  10  22  43  65  93 122 168 222 272 328 400
#     4  11  24  44  68 105 134 178 223 281 349 401
#     4   9  17  33  52  75 116 161 213 254 315 365
#     4  11  25  46  68  98 138 179 222 276 341 410
#     4   9  22  44  70  92 134 159 218 288 332 405
#     4  11  22  38  60  92 124 165 228 268 316 385
#
# _framework density 20.408861999999999
#
# number of rings (size 3 to 8) (size 9 to 14) (size 15 to 20)
#    0.000    1.429    3.571    2.571    0.000    2.857 
#    1.286    0.000    0.000    0.000    0.000    0.000 
#    0.000    0.000    0.000    0.000    0.000    0.000 
#
# Total GULP energy -156147.124939 kJ/mol
# GULP energy per Si atom -5576.683034 kJ/mol
# Density = 2.036241 g / cm^3
# Si number density = 20.408862 Si / 1000 Ang^3
#
#
#
# Elastic Constant Matrix: (Units=GPa)
#
#
# Indices 1 2 3 4 5 6 
#
# 1 112.8386 30.5414 32.6214 0.0185 -10.6098 0.0101
# 2 30.5414 63.6087 16.0949 0.0476 -13.5403 0.0305
# 3 32.6214 16.0949 58.8059 0.0299 -13.4941 0.0303
# 4 0.0185 0.0476 0.0299 29.5218 0.0170 1.1218
# 5 -10.6098 -13.5403 -13.4941 0.0170 48.8984 0.0168
# 6 0.0101 0.0305 0.0303 1.1218 0.0168 22.5355
#
#
#
# Elastic Compliance Matrix: (Units=1/GPa)
#
#
# Indices 1 2 3 4 5 6 
#
# 1 0.011514 -0.004224 -0.005260 0.000005 -0.000123 0.000007
# 2 -0.004224 0.019067 -0.002001 -0.000027 0.003811 -0.000023
# 3 -0.005260 -0.002001 0.021439 -0.000017 0.004221 -0.000026
# 4 0.000005 -0.000027 -0.000017 0.033938 -0.000022 -0.001689
# 5 -0.000123 0.003811 0.004221 -0.000022 0.022644 -0.000027
# 6 0.000007 -0.000023 -0.000026 -0.001689 -0.000027 0.044459
#
#
# Mechanical properties :
#
#
# Convention : Reuss Voigt Hill
#
# Bulk Modulus (GPa) = 34.42138 43.75207 39.08672
# Shear Modulus (GPa) = 26.92328 30.59085 28.75706
#
# Velocity S-wave (km/s) = 3.63601 3.87576 3.75780
# Velocity P-wave (km/s) = 5.87622 6.44306 6.16616
#
# Compressibility (1/GPa) = 0.02905171
#
# Stress axis : x y z
#
# Youngs Moduli (GPa) = 86.84739 52.44730 46.64410
#
# Poissons Ratio (x) = 0.22153 0.24533
# Poissons Ratio (y) = 0.36684 0.09333
# Poissons Ratio (z) = 0.45678 0.10494
#
# Static dielectric constant tensor:
#      x y z
#    x 1.720590 -0.000010 0.026150 
#    y -0.000010 1.774100 -0.000010 
#    z 0.026150 -0.000010 1.732430 
# 
# From -- ./inp_files/216691.got.cif
#   From: 2010.05.17/outbox.cif.g08.bks.cpg/sg15_109_cif.got.tgz:216691.got - 2010.06.03 18:47:42.
