data_PCOD9292883
_publ_section_title
;
Structure prediction by ZEFSAII (Michael W. Deem and Ramdas Pophale) SiO2 
 PCOD9292883
Probable space group: C 2/C
;
_chemical_formula_sum "Si O2"
_cell_formula_units_Z 40
_cell_length_a 13.502692
_cell_length_b 13.903802
_cell_length_c 9.199831
_cell_angle_alpha 90.000000
_cell_angle_beta 110.028039
_cell_angle_gamma 90.000000
_cell_volume 1622.714764
_symmetry_space_group_name_H-M "C 2/C"
_symmetry_group_IT_number 15
_symmetry_cell_setting 'monoclinic'
loop_
_space_group_symop_operation_xyz
x,y,z
-x,y,1/2-z
-x,-y,-z
x,-y,1/2+z
1/2+x,1/2+y,z
1/2-x,1/2+y,1/2-z
1/2-x,1/2-y,-z
1/2+x,1/2-y,1/2+z
loop_
_atom_site_type_symbol
_atom_site_label
_atom_site_fract_x
_atom_site_fract_y
_atom_site_fract_z
Si Si1 0.856192 0.758573 0.426887
Si Si2 0.737549 0.570747 0.343463
Si Si3 0.323465 0.397235 0.004157
Si Si4 0.820896 0.624089 0.828255
Si Si5 0.500000 0.725463 0.750000
Si Si6 0.500000 0.236799 0.750000
O O1 0.791789 0.663579 0.438292
O O2 0.780303 0.835011 0.310741
O O3 0.932214 0.721156 0.336168
O O4 0.925677 0.791831 0.598547
O O5 0.675995 0.504652 0.427603
O O6 0.820836 0.491483 0.322553
O O7 0.676691 0.604312 0.168817
O O8 0.214805 0.355463 0.022338
O O9 0.421845 0.341346 0.117527
O O10 0.923084 0.672322 0.812312
#
# Coordination Sequence:
#
# PCOD9292883 Si02
#       6
#     8   8   8   8   4   4
#     4  11  25  43  70 100 138 175 235 274 345 396
#     4  10  22  44  69  93 141 179 214 293 326 404
#     4   9  22  43  65  96 139 174 226 278 336 397
#     4   9  24  44  62 102 133 175 228 277 337 404
#     4  10  24  43  65 106 130 184 228 273 341 414
#     4  12  24  41  71  98 136 180 222 283 343 408
#
# _framework density 24.65005
#
# number of rings (size 3 to 8) (size 9 to 14) (size 15 to 20)
#    1.200    0.800    0.000    1.800    5.600    4.000 
#    0.000    1.000    0.000    0.000    0.000    0.000 
#    0.000    0.000    0.000    0.000    0.000    0.000 
#
# Total GULP energy -111784.455839 kJ/mol
# GULP energy per Si atom -5589.222792 kJ/mol
# Density = 2.459395 g / cm^3
# Si number density = 24.650050 Si / 1000 Ang^3
#
#
#
# Elastic Constant Matrix: (Units=GPa)
#
#
# Indices 1 2 3 4 5 6 
#
# 1 73.5441 6.4756 19.8510 0.0000 4.5062 0.0000
# 2 6.4756 91.0818 21.9900 0.0000 4.2934 0.0000
# 3 19.8510 21.9900 156.4597 0.0000 -6.5273 0.0000
# 4 0.0000 0.0000 0.0000 33.9312 0.0000 -11.3179
# 5 4.5062 4.2934 -6.5273 0.0000 29.8537 0.0000
# 6 0.0000 0.0000 0.0000 -11.3179 0.0000 21.5478
#
#
#
# Elastic Compliance Matrix: (Units=1/GPa)
#
#
# Indices 1 2 3 4 5 6 
#
# 1 0.014290 -0.000451 -0.001854 0.000000 -0.002498 0.000000
# 2 -0.000451 0.011499 -0.001640 0.000000 -0.001944 0.000000
# 3 -0.001854 -0.001640 0.006942 0.000000 0.002034 0.000000
# 4 0.000000 0.000000 0.000000 0.035731 0.000000 0.018768
# 5 -0.002498 -0.001944 0.002034 0.000000 0.034598 0.000000
# 6 0.000000 0.000000 0.000000 0.018768 0.000000 0.056266
#
#
# Mechanical properties :
#
#
# Convention : Reuss Voigt Hill
#
# Bulk Modulus (GPa) = 40.25471 46.41319 43.33395
# Shear Modulus (GPa) = 28.49059 35.25116 31.87087
#
# Velocity S-wave (km/s) = 3.40340 3.78572 3.59964
# Velocity P-wave (km/s) = 5.64004 6.16268 5.90714
#
# Compressibility (1/GPa) = 0.02484181
#
# Stress axis : x y z
#
# Youngs Moduli (GPa) = 69.97700 86.96569 144.05098
#
# Poissons Ratio (x) = 0.03919 0.26707
# Poissons Ratio (y) = 0.03154 0.23625
# Poissons Ratio (z) = 0.12973 0.14263
#
# Static dielectric constant tensor:
#      x y z
#    x 2.007760 0.000000 -0.020140 
#    y 0.000000 1.943130 0.000000 
#    z -0.020140 0.000000 1.971260 
# 
# From -- ./inp_files/39444.got.cif
#   From: 2010.05.17/outbox.cif.g08.bks.cpg/sg15_20_cif.got.tgz:39444.got - 2010.06.03 18:47:42.
