data_PCOD9292931
_publ_section_title
;
Structure prediction by ZEFSAII (Michael W. Deem and Ramdas Pophale) SiO2 
 PCOD9292931
Probable space group: C 2/C
;
_chemical_formula_sum "Si O2"
_cell_formula_units_Z 40
_cell_length_a 28.976163
_cell_length_b 9.402137
_cell_length_c 15.010731
_cell_angle_alpha 90.000000
_cell_angle_beta 29.309021
_cell_angle_gamma 90.000000
_cell_volume 2001.886779
_symmetry_space_group_name_H-M "C 2/C"
_symmetry_group_IT_number 15
_symmetry_cell_setting 'monoclinic'
loop_
_space_group_symop_operation_xyz
x,y,z
-x,y,1/2-z
-x,-y,-z
x,-y,1/2+z
1/2+x,1/2+y,z
1/2-x,1/2+y,1/2-z
1/2-x,1/2-y,-z
1/2+x,1/2-y,1/2+z
loop_
_atom_site_type_symbol
_atom_site_label
_atom_site_fract_x
_atom_site_fract_y
_atom_site_fract_z
Si Si1 0.521267 0.665607 0.945731
Si Si2 0.165763 0.390398 0.790887
Si Si3 0.848507 0.669472 0.811514
Si Si4 0.170200 0.760676 0.057581
Si Si5 0.605438 0.025744 0.588221
O O1 0.596213 0.758916 0.879543
O O2 0.572830 0.684848 0.763332
O O3 0.500000 0.500000 0.000000
O O4 0.420623 0.738524 0.131520
O O5 0.154965 0.520596 0.738242
O O6 0.277226 0.358533 0.601165
O O7 0.141146 0.425935 0.932979
O O8 0.892182 0.638769 0.835587
O O9 0.750000 0.750000 0.000000
O O10 0.162489 0.606664 0.028957
O O11 0.250000 0.750000 0.000000
O O12 0.500000 0.975205 0.750000
#
# Coordination Sequence:
#
# PCOD9292931 Si02
#       5
#     8   8   8   8   8
#     4  11  22  42  72  99 140 186 234 295 361 426
#     4  11  24  45  70 103 144 186 244 292 357 436
#     4  12  25  44  71 103 141 195 239 290 364 428
#     4  10  22  44  70 101 140 187 230 296 357 421
#     4  12  24  44  72 102 142 185 241 294 352 419
#
# _framework density 19.981151000000001
#
# number of rings (size 3 to 8) (size 9 to 14) (size 15 to 20)
#    0.000    0.800    6.000    3.000    5.600    0.000 
#    0.000    0.000    4.400    0.000    0.000    0.000 
#    0.000    0.000    0.000    0.000    0.000    0.000 
#
# Total GULP energy -111428.532731 kJ/mol
# GULP energy per Si atom -5571.426637 kJ/mol
# Density = 1.993567 g / cm^3
# Si number density = 19.981151 Si / 1000 Ang^3
#
#
#
# Elastic Constant Matrix: (Units=GPa)
#
#
# Indices 1 2 3 4 5 6 
#
# 1 61.3566 21.9598 17.4530 0.0000 5.7679 0.0000
# 2 21.9598 123.7059 52.8669 0.0000 0.5999 0.0000
# 3 17.4530 52.8669 177.7168 0.0000 13.2241 0.0000
# 4 0.0000 0.0000 0.0000 37.9256 0.0000 -11.3603
# 5 5.7679 0.5999 13.2241 0.0000 35.6735 0.0000
# 6 0.0000 0.0000 0.0000 -11.3603 0.0000 29.9111
#
#
#
# Elastic Compliance Matrix: (Units=1/GPa)
#
#
# Indices 1 2 3 4 5 6 
#
# 1 0.017756 -0.002836 -0.000709 0.000000 -0.002560 0.000000
# 2 -0.002836 0.009742 -0.002716 0.000000 0.001302 0.000000
# 3 -0.000709 -0.002716 0.006677 0.000000 -0.002315 0.000000
# 4 0.000000 0.000000 0.000000 0.029752 0.000000 0.011300
# 5 -0.002560 0.001302 -0.002315 0.000000 0.029282 0.000000
# 6 0.000000 0.000000 0.000000 0.011300 0.000000 0.037724
#
#
# Mechanical properties :
#
#
# Convention : Reuss Voigt Hill
#
# Bulk Modulus (GPa) = 46.18890 60.81540 53.50215
# Shear Modulus (GPa) = 33.18427 38.73532 35.95980
#
# Velocity S-wave (km/s) = 4.07969 4.40772 4.24687
# Velocity P-wave (km/s) = 6.73485 7.51043 7.13319
#
# Compressibility (1/GPa) = 0.02165023
#
# Stress axis : x y z
#
# Youngs Moduli (GPa) = 56.31961 102.65158 149.77062
#
# Poissons Ratio (x) = 0.29115 0.10626
# Poissons Ratio (y) = 0.15974 0.40682
# Poissons Ratio (z) = 0.03996 0.27883
#
# Static dielectric constant tensor:
#      x y z
#    x 1.795680 0.000000 0.005110 
#    y 0.000000 1.752470 0.000000 
#    z 0.005110 0.000000 1.755180 
# 
# From -- ./inp_files/181009.got.cif
#   From: 2010.05.17/outbox.cif.g08.bks.cpg/sg15_91_cif.got.tgz:181009.got - 2010.06.03 18:47:42.
