data_PCOD9292813
_publ_section_title
;
Structure prediction by ZEFSAII (Michael W. Deem and Ramdas Pophale) SiO2 
 PCOD9292813
Probable space group: C 2/C
;
_chemical_formula_sum "Si O2"
_cell_formula_units_Z 44
_cell_length_a 16.509861
_cell_length_b 22.418001
_cell_length_c 13.668697
_cell_angle_alpha 90.000000
_cell_angle_beta 156.984432
_cell_angle_gamma 90.000000
_cell_volume 1977.986498
_symmetry_space_group_name_H-M "C 2/C"
_symmetry_group_IT_number 15
_symmetry_cell_setting 'monoclinic'
loop_
_space_group_symop_operation_xyz
x,y,z
-x,y,1/2-z
-x,-y,-z
x,-y,1/2+z
1/2+x,1/2+y,z
1/2-x,1/2+y,1/2-z
1/2-x,1/2-y,-z
1/2+x,1/2-y,1/2+z
loop_
_atom_site_type_symbol
_atom_site_label
_atom_site_fract_x
_atom_site_fract_y
_atom_site_fract_z
Si Si1 0.123309 0.098132 0.475345
Si Si2 0.033955 0.311728 0.175221
Si Si3 0.596634 0.690869 0.136767
Si Si4 0.500000 0.939948 0.750000
Si Si5 0.287492 0.984154 0.707456
Si Si6 0.436391 0.617090 0.790972
O O1 0.327432 0.130005 0.663970
O O2 0.000000 0.070081 0.250000
O O3 0.000067 0.152184 0.384473
O O4 0.163049 0.044670 0.591231
O O5 0.118139 0.258065 0.201232
O O6 0.000000 0.290680 0.250000
O O7 0.830561 0.330726 0.890786
O O8 0.468443 0.673926 0.898253
O O9 0.376877 0.976697 0.696077
O O10 0.306074 0.903941 0.483082
O O11 0.114295 0.931313 0.523505
O O12 0.500000 0.000000 0.000000
O O13 0.500000 0.631259 0.750000
#
# Coordination Sequence:
#
# PCOD9292813 Si02
#       6
#     8   8   8   4   8   8
#     4  12  24  38  65  99 133 173 213 263 338 409
#     4  12  24  42  65  96 138 174 217 274 340 407
#     4  12  24  42  67  92 132 179 221 275 333 390
#     4  10  22  44  68  92 138 174 220 280 332 398
#     4  11  24  41  66 104 133 171 223 272 340 407
#     4  10  24  46  68  94 134 179 228 283 330 390
#
# _framework density 22.244844000000001
#
# number of rings (size 3 to 8) (size 9 to 14) (size 15 to 20)
#    0.000    0.727    3.636    4.909    1.273    7.273 
#    0.000    0.909    0.000    0.000    0.000    0.000 
#    0.000    0.000    0.000    0.000    0.000    0.000 
#
# Total GULP energy -122572.670682 kJ/mol
# GULP energy per Si atom -5571.485031 kJ/mol
# Density = 2.219421 g / cm^3
# Si number density = 22.244844 Si / 1000 Ang^3
#
#
#
# Elastic Constant Matrix: (Units=GPa)
#
#
# Indices 1 2 3 4 5 6 
#
# 1 50.6675 4.6730 4.3868 0.0000 -3.9363 0.0000
# 2 4.6730 64.9118 22.7527 0.0000 -10.4401 0.0000
# 3 4.3868 22.7527 135.8840 -0.0001 -14.8250 0.0000
# 4 0.0000 0.0000 -0.0001 38.7889 0.0000 -13.7873
# 5 -3.9363 -10.4401 -14.8250 0.0000 38.6548 0.0000
# 6 0.0000 0.0000 0.0000 -13.7873 0.0000 25.5086
#
#
#
# Elastic Compliance Matrix: (Units=1/GPa)
#
#
# Indices 1 2 3 4 5 6 
#
# 1 0.019988 -0.001075 -0.000287 0.000000 0.001635 0.000000
# 2 -0.001075 0.016895 -0.002409 0.000000 0.003530 0.000000
# 3 -0.000287 -0.002409 0.008034 0.000000 0.002401 0.000000
# 4 0.000000 0.000000 0.000000 0.031911 0.000000 0.017248
# 5 0.001635 0.003530 0.002401 0.000000 0.027911 0.000000
# 6 0.000000 0.000000 0.000000 0.017248 0.000000 0.048525
#
#
# Mechanical properties :
#
#
# Convention : Reuss Voigt Hill
#
# Bulk Modulus (GPa) = 26.75677 35.00981 30.88329
# Shear Modulus (GPa) = 28.85772 35.23385 32.04579
#
# Velocity S-wave (km/s) = 3.60568 3.98416 3.79963
# Velocity P-wave (km/s) = 5.42116 6.07760 5.75874
#
# Compressibility (1/GPa) = 0.03737372
#
# Stress axis : x y z
#
# Youngs Moduli (GPa) = 50.03115 59.18879 124.47334
#
# Poissons Ratio (x) = 0.06365 0.03570
# Poissons Ratio (y) = 0.05380 0.29987
# Poissons Ratio (z) = 0.01435 0.14259
#
# Static dielectric constant tensor:
#      x y z
#    x 1.828310 0.000000 -0.017890 
#    y 0.000000 1.806630 0.000000 
#    z -0.017890 0.000000 1.931900 
# 
# From -- ./inp_files/164290.got.cif
#   From: 2010.05.17/outbox.cif.g08.bks.cpg/sg15_83_cif.got.tgz:164290.got - 2010.06.03 18:47:42.
