data_PCOD9292133
_publ_section_title
;
Structure prediction by ZEFSAII (Michael W. Deem and Ramdas Pophale) SiO2 
 PCOD9292133
Probable space group: C 2/C
;
_chemical_formula_sum "Si O2"
_cell_formula_units_Z 28
_cell_length_a 13.789039
_cell_length_b 13.790148
_cell_length_c 7.840603
_cell_angle_alpha 90.000000
_cell_angle_beta 47.625753
_cell_angle_gamma 90.000000
_cell_volume 1101.424653
_symmetry_space_group_name_H-M "C 2/C"
_symmetry_group_IT_number 15
_symmetry_cell_setting 'monoclinic'
loop_
_space_group_symop_operation_xyz
x,y,z
-x,y,1/2-z
-x,-y,-z
x,-y,1/2+z
1/2+x,1/2+y,z
1/2-x,1/2+y,1/2-z
1/2-x,1/2-y,-z
1/2+x,1/2-y,1/2+z
loop_
_atom_site_type_symbol
_atom_site_label
_atom_site_fract_x
_atom_site_fract_y
_atom_site_fract_z
Si Si1 0.814632 0.630069 0.070766
Si Si2 0.000000 0.480910 0.750000
Si Si3 0.766510 0.134620 0.986192
Si Si4 0.128121 0.140139 0.992305
O O1 0.706743 0.613273 0.346927
O O2 0.860160 0.741801 0.021186
O O3 0.751871 0.607815 0.961163
O O4 0.937912 0.560676 0.953785
O O5 0.124576 0.411671 0.622989
O O6 0.859120 0.107298 0.718557
O O7 0.750000 0.250000 0.000000
O O8 0.000000 0.112540 0.250000
#
# Coordination Sequence:
#
# PCOD9292133 Si02
#       4
#     8   4   8   8
#     4  10  23  40  69 103 132 178 229 282 326 401
#     4  12  24  44  76 102 132 174 246 282 322 408
#     4  10  25  40  65 104 135 177 222 284 343 394
#     4  10  22  43  66  99 143 180 215 273 354 399
#
# _framework density 25.421620000000001
#
# number of rings (size 3 to 8) (size 9 to 14) (size 15 to 20)
#    0.000    1.714    1.429    0.857    8.000    8.000 
#    0.000    1.429    3.143    0.000    0.000    0.000 
#    0.000    0.000    0.000    0.000    0.000    0.000 
#
# Total GULP energy -78207.710426 kJ/mol
# GULP energy per Si atom -5586.265030 kJ/mol
# Density = 2.536376 g / cm^3
# Si number density = 25.421620 Si / 1000 Ang^3
#
#
#
# Elastic Constant Matrix: (Units=GPa)
#
#
# Indices 1 2 3 4 5 6 
#
# 1 36.7696 31.7013 37.0823 0.0000 4.0426 0.0000
# 2 31.7013 121.4580 27.0498 0.0000 -12.3475 0.0000
# 3 37.0823 27.0498 225.6552 0.0000 30.2468 0.0000
# 4 0.0000 0.0000 0.0000 31.6137 0.0000 -8.6219
# 5 4.0426 -12.3475 30.2468 0.0000 52.9330 0.0000
# 6 0.0000 0.0000 0.0000 -8.6219 0.0000 28.0140
#
#
#
# Elastic Compliance Matrix: (Units=1/GPa)
#
#
# Indices 1 2 3 4 5 6 
#
# 1 0.041273 -0.009845 -0.005276 0.000000 -0.002434 0.000000
# 2 -0.009845 0.011198 -0.000190 0.000000 0.003473 0.000000
# 3 -0.005276 -0.000190 0.005711 0.000000 -0.002905 0.000000
# 4 0.000000 0.000000 0.000000 0.034530 0.000000 0.010627
# 5 -0.002434 0.003473 -0.002905 0.000000 0.021547 0.000000
# 6 0.000000 0.000000 0.000000 0.010627 0.000000 0.038967
#
#
# Mechanical properties :
#
#
# Convention : Reuss Voigt Hill
#
# Bulk Modulus (GPa) = 36.28473 63.94995 50.11734
# Shear Modulus (GPa) = 25.90203 41.71543 33.80873
#
# Velocity S-wave (km/s) = 3.19548 4.05525 3.65076
# Velocity P-wave (km/s) = 5.28384 6.86565 6.12601
#
# Compressibility (1/GPa) = 0.02755981
#
# Stress axis : x y z
#
# Youngs Moduli (GPa) = 24.22902 89.29989 175.11087
#
# Poissons Ratio (x) = 0.87915 0.92390
# Poissons Ratio (y) = 0.23853 0.03327
# Poissons Ratio (z) = 0.12783 0.01697
#
# Static dielectric constant tensor:
#      x y z
#    x 2.109390 0.000000 0.100180 
#    y 0.000000 1.993950 0.000000 
#    z 0.100180 0.000000 2.031240 
# 
# From -- ./inp_files/27775.got.cif
#   From: 2010.05.17/outbox.cif.g08.bks.cpg/sg15_14_cif.got.tgz:27775.got - 2010.06.03 18:47:42.
