data_PCOD9292483
_publ_section_title
;
Structure prediction by ZEFSAII (Michael W. Deem and Ramdas Pophale) SiO2 
 PCOD9292483
Probable space group: C 2/C
;
_chemical_formula_sum "Si O2"
_cell_formula_units_Z 48
_cell_length_a 24.629770
_cell_length_b 5.147361
_cell_length_c 14.551058
_cell_angle_alpha 90.000000
_cell_angle_beta 98.854395
_cell_angle_gamma 90.000000
_cell_volume 1822.774101
_symmetry_space_group_name_H-M "C 2/C"
_symmetry_group_IT_number 15
_symmetry_cell_setting 'monoclinic'
loop_
_space_group_symop_operation_xyz
x,y,z
-x,y,1/2-z
-x,-y,-z
x,-y,1/2+z
1/2+x,1/2+y,z
1/2-x,1/2+y,1/2-z
1/2-x,1/2-y,-z
1/2+x,1/2-y,1/2+z
loop_
_atom_site_type_symbol
_atom_site_label
_atom_site_fract_x
_atom_site_fract_y
_atom_site_fract_z
Si Si1 0.375401 0.379506 0.768866
Si Si2 0.949572 0.803868 0.495276
Si Si3 0.193336 0.637138 0.209660
Si Si4 0.519393 0.058427 0.659645
Si Si5 0.339983 0.596775 0.051125
Si Si6 0.241689 0.484609 0.407632
O O1 0.337514 0.138263 0.793198
O O2 0.352401 0.640186 0.806631
O O3 0.437830 0.289510 0.804214
O O4 0.363872 0.441460 0.658818
O O5 0.964879 0.645083 0.591319
O O6 0.891769 0.932926 0.498882
O O7 0.048530 0.378983 0.592401
O O8 0.000000 0.000000 0.500000
O O9 0.225511 0.658011 0.315971
O O10 0.234474 0.724133 0.139569
O O11 0.500000 0.932756 0.750000
O O12 0.312765 0.884027 0.054982
O O13 0.289831 0.440615 0.990930
#
# Coordination Sequence:
#
# PCOD9292483 Si02
#       6
#     8   8   8   8   8   8
#     4  11  25  45  75 109 151 201 257 320 391 472
#     4  11  26  47  76 114 153 203 271 333 399 477
#     4  11  24  44  72 109 147 203 257 309 398 468
#     4  11  25  48  75 108 154 206 265 330 402 473
#     4  10  22  44  69 110 151 194 258 318 393 464
#     4  10  22  43  73 105 155 197 252 321 384 477
#
# _framework density 26.333487999999999
#
# number of rings (size 3 to 8) (size 9 to 14) (size 15 to 20)
#    0.000    1.333    1.667    3.000    4.667    2.667 
#    3.000    5.000    0.000    0.000    0.000    0.000 
#    0.000    0.000    0.000    0.000    0.000    0.000 
#
# Total GULP energy -134342.134014 kJ/mol
# GULP energy per Si atom -5597.588917 kJ/mol
# Density = 2.627355 g / cm^3
# Si number density = 26.333488 Si / 1000 Ang^3
#
#
#
# Elastic Constant Matrix: (Units=GPa)
#
#
# Indices 1 2 3 4 5 6 
#
# 1 142.6452 15.7790 32.5842 0.0000 13.7952 0.0000
# 2 15.7790 70.8102 37.4038 0.0000 5.7282 0.0000
# 3 32.5842 37.4038 166.2499 0.0000 23.5183 0.0000
# 4 0.0000 0.0000 0.0000 18.8009 0.0000 9.9076
# 5 13.7952 5.7282 23.5183 0.0000 44.3561 0.0000
# 6 0.0000 0.0000 0.0000 9.9076 0.0000 33.7534
#
#
#
# Elastic Compliance Matrix: (Units=1/GPa)
#
#
# Indices 1 2 3 4 5 6 
#
# 1 0.007514 -0.001006 -0.001010 0.000000 -0.001672 0.000000
# 2 -0.001006 0.016163 -0.003447 0.000000 0.000053 0.000000
# 3 -0.001010 -0.003447 0.007439 0.000000 -0.003185 0.000000
# 4 0.000000 0.000000 0.000000 0.062922 0.000000 -0.018469
# 5 -0.001672 0.000053 -0.003185 0.000000 0.024747 0.000000
# 6 0.000000 0.000000 0.000000 -0.018469 0.000000 0.035048
#
#
# Mechanical properties :
#
#
# Convention : Reuss Voigt Hill
#
# Bulk Modulus (GPa) = 49.52716 61.24881 55.38799
# Shear Modulus (GPa) = 29.15667 38.97796 34.06732
#
# Velocity S-wave (km/s) = 3.33108 3.85147 3.60069
# Velocity P-wave (km/s) = 5.80029 6.56413 6.19399
#
# Compressibility (1/GPa) = 0.02019094
#
# Stress axis : x y z
#
# Youngs Moduli (GPa) = 133.08469 61.87071 134.42603
#
# Poissons Ratio (x) = 0.06222 0.13577
# Poissons Ratio (y) = 0.13384 0.46334
# Poissons Ratio (z) = 0.13441 0.21325
#
# Static dielectric constant tensor:
#      x y z
#    x 2.096450 0.000000 -0.021560 
#    y 0.000000 2.101420 0.000000 
#    z -0.021560 0.000000 2.109030 
# 
# From -- ./inp_files/213128.got.cif
#   From: 2010.05.17/outbox.cif.g08.bks.cpg/sg15_107_cif.got.tgz:213128.got - 2010.06.03 18:47:42.
