data_PCOD9292853
_publ_section_title
;
Structure prediction by ZEFSAII (Michael W. Deem and Ramdas Pophale) SiO2 
 PCOD9292853
Probable space group: C 2/C
;
_chemical_formula_sum "Si O2"
_cell_formula_units_Z 56
_cell_length_a 20.777435
_cell_length_b 18.410845
_cell_length_c 8.253078
_cell_angle_alpha 90.000000
_cell_angle_beta 45.586787
_cell_angle_gamma 90.000000
_cell_volume 2255.117270
_symmetry_space_group_name_H-M "C 2/C"
_symmetry_group_IT_number 15
_symmetry_cell_setting 'monoclinic'
loop_
_space_group_symop_operation_xyz
x,y,z
-x,y,1/2-z
-x,-y,-z
x,-y,1/2+z
1/2+x,1/2+y,z
1/2-x,1/2+y,1/2-z
1/2-x,1/2-y,-z
1/2+x,1/2-y,1/2+z
loop_
_atom_site_type_symbol
_atom_site_label
_atom_site_fract_x
_atom_site_fract_y
_atom_site_fract_z
Si Si1 0.000000 0.236243 0.750000
Si Si2 0.938007 0.108334 0.073436
Si Si3 0.000000 0.007041 0.250000
Si Si4 0.172042 0.693518 0.335018
Si Si5 0.740645 0.889766 0.025978
Si Si6 0.544314 0.905572 0.957982
Si Si7 0.120079 0.489537 0.115246
Si Si8 0.307680 0.823914 0.058983
O O1 0.012626 0.180269 0.577669
O O2 0.094512 0.281832 0.594764
O O3 0.987242 0.060851 0.122336
O O4 0.844239 0.128215 0.320114
O O5 0.925697 0.052115 0.942796
O O6 0.193883 0.660386 0.471035
O O7 0.067249 0.674575 0.480053
O O8 0.223916 0.768627 0.238010
O O9 0.207530 0.655709 0.104046
O O10 0.718643 0.971281 0.003496
O O11 0.706445 0.879062 0.268181
O O12 0.577377 0.932128 0.724430
O O13 0.604699 0.959409 0.963830
O O14 0.445400 0.933102 0.170204
#
# Coordination Sequence:
#
# PCOD9292853 Si02
#       8
#     4   8   4   8   8   8   8   8
#     4  11  24  44  66  98 134 176 231 284 324 414
#     4  10  22  44  68  99 136 172 222 283 337 406
#     4   9  22  44  70 100 132 176 223 274 350 414
#     4  10  23  42  64  91 133 168 219 276 321 401
#     4  11  23  43  66  95 133 170 219 277 334 401
#     4   9  19  38  57  88 125 160 207 265 321 391
#     4   9  20  35  59  90 121 161 208 258 326 397
#     4  11  25  43  65  97 131 177 225 273 335 394
#
# _framework density 24.832411
#
# number of rings (size 3 to 8) (size 9 to 14) (size 15 to 20)
#    0.000    2.000    1.429    0.429    4.000    4.571 
#    5.143    0.000    0.000    0.000    0.000    0.000 
#    0.000    0.000    0.000    0.000    0.000    0.000 
#
# Total GULP energy -155881.335922 kJ/mol
# GULP energy per Si atom -5567.190569 kJ/mol
# Density = 2.477589 g / cm^3
# Si number density = 24.832411 Si / 1000 Ang^3
#
#
#
# Elastic Constant Matrix: (Units=GPa)
#
#
# Indices 1 2 3 4 5 6 
#
# 1 47.6045 30.7496 11.7062 0.0000 12.4788 0.0000
# 2 30.7496 79.0986 20.9441 0.0000 -1.0108 0.0000
# 3 11.7062 20.9441 134.8819 0.0000 19.5390 0.0000
# 4 0.0000 0.0000 0.0000 32.2039 0.0000 20.2658
# 5 12.4788 -1.0108 19.5390 0.0000 47.2472 0.0000
# 6 0.0000 0.0000 0.0000 20.2658 0.0000 16.4121
#
#
#
# Elastic Compliance Matrix: (Units=1/GPa)
#
#
# Indices 1 2 3 4 5 6 
#
# 1 0.031138 -0.012341 0.000472 0.000000 -0.008683 0.000000
# 2 -0.012341 0.018140 -0.002419 0.000000 0.004648 0.000000
# 3 0.000472 -0.002419 0.008270 0.000000 -0.003596 0.000000
# 4 0.000000 0.000000 0.000000 0.139284 0.000000 -0.171988
# 5 -0.008683 0.004648 -0.003596 0.000000 0.025045 0.000000
# 6 0.000000 0.000000 0.000000 -0.171988 0.000000 0.273302
#
#
# Mechanical properties :
#
#
# Convention : Reuss Voigt Hill
#
# Bulk Modulus (GPa) = 34.51704 43.15388 38.83546
# Shear Modulus (GPa) = 9.37362 32.38499 20.87931
#
# Velocity S-wave (km/s) = 1.94498 3.61521 2.90282
# Velocity P-wave (km/s) = 4.35593 5.90272 5.18730
#
# Compressibility (1/GPa) = 0.02897120
#
# Stress axis : x y z
#
# Youngs Moduli (GPa) = 32.11515 55.12734 120.92617
#
# Poissons Ratio (x) = 0.68031 -0.05704
# Poissons Ratio (y) = 0.39632 0.29252
# Poissons Ratio (z) = -0.01515 0.13335
#
# Static dielectric constant tensor:
#      x y z
#    x 2.009000 0.000000 0.002270 
#    y 0.000000 2.084920 0.000000 
#    z 0.002270 0.000000 2.057060 
# 
# From -- ./inp_files/57813.got.cif
#   From: 2010.05.17/outbox.cif.g08.bks.cpg/sg15_29_cif.got.tgz:57813.got - 2010.06.03 18:47:42.
