data_PCOD9292911
_publ_section_title
;
Structure prediction by ZEFSAII (Michael W. Deem and Ramdas Pophale) SiO2 
 PCOD9292911
Probable space group: C 2/C
;
_chemical_formula_sum "Si O2"
_cell_formula_units_Z 52
_cell_length_a 17.029227
_cell_length_b 7.445222
_cell_length_c 18.948343
_cell_angle_alpha 90.000000
_cell_angle_beta 86.599976
_cell_angle_gamma 90.000000
_cell_volume 2398.163048
_symmetry_space_group_name_H-M "C 2/C"
_symmetry_group_IT_number 15
_symmetry_cell_setting 'monoclinic'
loop_
_space_group_symop_operation_xyz
x,y,z
-x,y,1/2-z
-x,-y,-z
x,-y,1/2+z
1/2+x,1/2+y,z
1/2-x,1/2+y,1/2-z
1/2-x,1/2-y,-z
1/2+x,1/2-y,1/2+z
loop_
_atom_site_type_symbol
_atom_site_label
_atom_site_fract_x
_atom_site_fract_y
_atom_site_fract_z
Si Si1 0.422950 0.881083 0.000007
Si Si2 0.793257 0.057785 0.648909
Si Si3 0.500000 0.717164 0.250000
Si Si4 0.045514 0.056099 0.397084
Si Si5 0.381431 0.402016 0.404902
Si Si6 0.168429 0.836113 0.715022
Si Si7 0.738802 0.962602 0.003823
O O1 0.409483 0.798982 0.921934
O O2 0.346015 0.993714 0.020878
O O3 0.427214 0.723218 0.057660
O O4 0.500000 0.000000 0.000000
O O5 0.740988 0.226042 0.677557
O O6 0.747573 0.979401 0.584428
O O7 0.882546 0.085215 0.613844
O O8 0.803487 0.916215 0.711790
O O9 0.525747 0.608456 0.317624
O O10 0.411483 0.788172 0.275454
O O11 0.959406 0.003526 0.428748
O O12 0.357774 0.491519 0.331556
O O13 0.306591 0.440927 0.456955
O O14 0.750000 0.750000 0.000000
#
# Coordination Sequence:
#
# PCOD9292911 Si02
#       7
#     8   8   4   8   8   8   8
#     4  12  27  39  67 100 132 175 233 283 336 402
#     4  11  24  42  72  99 138 178 229 274 346 405
#     4   8  20  42  62  90 130 172 220 264 338 398
#     4  10  22  44  69  99 134 181 220 284 344 409
#     4  11  23  43  71  98 140 175 223 280 350 402
#     4  10  23  42  70  96 136 183 221 278 343 410
#     4  12  25  44  67 101 133 180 229 286 340 410
#
# _framework density 21.683264000000001
#
# number of rings (size 3 to 8) (size 9 to 14) (size 15 to 20)
#    0.000    1.231    3.077    1.846    6.462    1.231 
#    0.000    0.000    0.000    0.000    0.000    0.000 
#    0.000    0.000    0.000    0.000    0.000    0.000 
#
# Total GULP energy -144857.493852 kJ/mol
# GULP energy per Si atom -5571.442071 kJ/mol
# Density = 2.163391 g / cm^3
# Si number density = 21.683264 Si / 1000 Ang^3
#
#
#
# Elastic Constant Matrix: (Units=GPa)
#
#
# Indices 1 2 3 4 5 6 
#
# 1 214.2906 64.5499 42.1987 0.0000 -3.2665 0.0000
# 2 64.5499 56.1987 16.2223 0.0000 -7.6069 0.0000
# 3 42.1987 16.2223 104.4307 0.0000 6.5587 0.0000
# 4 0.0000 0.0000 0.0000 18.4447 0.0000 -2.2915
# 5 -3.2665 -7.6069 6.5587 0.0000 25.3452 0.0000
# 6 0.0000 0.0000 0.0000 -2.2915 0.0000 38.9005
#
#
#
# Elastic Compliance Matrix: (Units=1/GPa)
#
#
# Indices 1 2 3 4 5 6 
#
# 1 0.007458 -0.008231 -0.001667 0.000000 -0.001078 0.000000
# 2 -0.008231 0.028809 -0.001653 0.000000 0.008014 0.000000
# 3 -0.001667 -0.001653 0.010725 0.000000 -0.003486 0.000000
# 4 0.000000 0.000000 0.000000 0.054616 0.000000 0.003217
# 5 -0.001078 0.008014 -0.003486 0.000000 0.042624 0.000000
# 6 0.000000 0.000000 0.000000 0.003217 0.000000 0.025896
#
#
# Mechanical properties :
#
#
# Convention : Reuss Voigt Hill
#
# Bulk Modulus (GPa) = 41.85660 68.98465 55.42062
# Shear Modulus (GPa) = 24.85180 33.33469 29.09325
#
# Velocity S-wave (km/s) = 3.38912 3.92515 3.66695
# Velocity P-wave (km/s) = 5.88731 7.24060 6.59874
#
# Compressibility (1/GPa) = 0.02389110
#
# Stress axis : x y z
#
# Youngs Moduli (GPa) = 134.08932 34.71091 93.23872
#
# Poissons Ratio (x) = 0.28569 0.15546
# Poissons Ratio (y) = 1.10363 0.15410
# Poissons Ratio (z) = 0.22357 0.05737
#
# Static dielectric constant tensor:
#      x y z
#    x 1.837070 0.000000 -0.050340 
#    y 0.000000 1.829250 0.000000 
#    z -0.050340 0.000000 1.831820 
# 
# From -- ./inp_files/242452.got.cif
#   From: 2010.05.17/outbox.cif.g08.bks.cpg/sg15_122_cif.got.tgz:242452.got - 2010.06.03 18:47:42.
