data_PCOD9292283
_publ_section_title
;
Structure prediction by ZEFSAII (Michael W. Deem and Ramdas Pophale) SiO2 
 PCOD9292283
Probable space group: C 2/C
;
_chemical_formula_sum "Si O2"
_cell_formula_units_Z 48
_cell_length_a 14.767770
_cell_length_b 25.806855
_cell_length_c 8.559870
_cell_angle_alpha 90.000000
_cell_angle_beta 134.542116
_cell_angle_gamma 90.000000
_cell_volume 2325.119527
_symmetry_space_group_name_H-M "C 2/C"
_symmetry_group_IT_number 15
_symmetry_cell_setting 'monoclinic'
loop_
_space_group_symop_operation_xyz
x,y,z
-x,y,1/2-z
-x,-y,-z
x,-y,1/2+z
1/2+x,1/2+y,z
1/2-x,1/2+y,1/2-z
1/2-x,1/2-y,-z
1/2+x,1/2-y,1/2+z
loop_
_atom_site_type_symbol
_atom_site_label
_atom_site_fract_x
_atom_site_fract_y
_atom_site_fract_z
Si Si1 0.000000 0.266673 0.750000
Si Si2 0.396890 0.677214 0.410854
Si Si3 0.500000 0.881301 0.250000
Si Si4 0.364804 0.154948 0.298297
Si Si5 0.000000 0.910880 0.250000
Si Si6 0.270632 0.942102 0.119867
Si Si7 0.500000 0.382653 0.750000
Si Si8 0.762850 0.556787 0.976771
O O1 0.947270 0.228789 0.552470
O O2 0.896113 0.303655 0.702447
O O3 0.245947 0.677989 0.225372
O O4 0.420620 0.627917 0.549628
O O5 0.472469 0.657763 0.354490
O O6 0.522345 0.852545 0.441528
O O7 0.371732 0.913295 0.130851
O O8 0.327851 0.101815 0.161226
O O9 0.107847 0.940423 0.286676
O O10 0.303484 0.938565 0.344729
O O11 0.128133 0.917748 0.924234
O O12 0.283740 0.001631 0.083032
#
# Coordination Sequence:
#
# PCOD9292283 Si02
#       8
#     4   8   4   8   4   8   4   8
#     4  11  24  45  73 100 136 179 231 282 365 406
#     4  10  22  43  69 102 132 179 229 288 339 412
#     4  12  26  46  66 101 139 186 224 286 348 408
#     4  11  24  46  69  99 139 179 229 292 340 419
#     4   9  19  38  66  93 139 170 228 285 335 394
#     4  12  26  41  70 101 145 187 232 280 345 413
#     4  12  23  45  71 106 144 179 231 297 336 402
#     4  11  24  41  67 102 138 189 233 278 346 414
#
# _framework density 20.644100999999999
#
# number of rings (size 3 to 8) (size 9 to 14) (size 15 to 20)
#    0.000    1.000    3.333    3.000    2.333    5.333 
#    3.000    1.667    0.000    0.000    0.000    0.000 
#    0.000    0.000    0.000    0.000    0.000    0.000 
#
# Total GULP energy -133760.990444 kJ/mol
# GULP energy per Si atom -5573.374602 kJ/mol
# Density = 2.059711 g / cm^3
# Si number density = 20.644101 Si / 1000 Ang^3
#
#
#
# Elastic Constant Matrix: (Units=GPa)
#
#
# Indices 1 2 3 4 5 6 
#
# 1 92.8335 37.4916 8.2184 0.0000 -6.0214 0.0000
# 2 37.4916 112.6275 38.4966 0.0000 -9.9364 0.0000
# 3 8.2184 38.4966 66.5206 0.0000 -7.1460 0.0000
# 4 0.0000 0.0000 0.0000 73.0707 0.0000 -1.5203
# 5 -6.0214 -9.9364 -7.1460 0.0000 32.8430 0.0000
# 6 0.0000 0.0000 0.0000 -1.5203 0.0000 37.7535
#
#
#
# Elastic Compliance Matrix: (Units=1/GPa)
#
#
# Indices 1 2 3 4 5 6 
#
# 1 0.012552 -0.004471 0.001166 0.000000 0.001202 0.000000
# 2 -0.004471 0.012791 -0.006678 0.000000 0.001597 0.000000
# 3 0.001166 -0.006678 0.019004 0.000000 0.002328 0.000000
# 4 0.000000 0.000000 0.000000 0.013697 0.000000 0.000552
# 5 0.001202 0.001597 0.002328 0.000000 0.031658 0.000000
# 6 0.000000 0.000000 0.000000 0.000552 0.000000 0.026510
#
#
# Mechanical properties :
#
#
# Convention : Reuss Voigt Hill
#
# Bulk Modulus (GPa) = 41.01710 48.93277 44.97493
# Shear Modulus (GPa) = 34.64885 41.25176 37.95030
#
# Velocity S-wave (km/s) = 4.10126 4.47501 4.29221
# Velocity P-wave (km/s) = 6.50684 7.10320 6.81155
#
# Compressibility (1/GPa) = 0.02438008
#
# Stress axis : x y z
#
# Youngs Moduli (GPa) = 79.66641 78.18227 52.62099
#
# Poissons Ratio (x) = 0.34954 -0.06134
# Poissons Ratio (y) = 0.35617 0.35142
# Poissons Ratio (z) = -0.09287 0.52212
#
# Static dielectric constant tensor:
#      x y z
#    x 1.882650 0.000000 0.053760 
#    y 0.000000 1.709620 0.000000 
#    z 0.053760 0.000000 1.776080 
# 
# From -- ./inp_files/33860.got.cif
#   From: 2010.05.17/outbox.cif.g08.bks.cpg/sg15_17_cif.got.tgz:33860.got - 2010.06.03 18:47:42.
