data_PCOD9292002
_publ_section_title
;
Structure prediction by ZEFSAII (Michael W. Deem and Ramdas Pophale) SiO2 
 PCOD9292002
Probable space group: C 2/C
;
_chemical_formula_sum "Si O2"
_cell_formula_units_Z 60
_cell_length_a 27.598976
_cell_length_b 10.357601
_cell_length_c 11.802987
_cell_angle_alpha 90.000000
_cell_angle_beta 54.468587
_cell_angle_gamma 90.000000
_cell_volume 2745.744798
_symmetry_space_group_name_H-M "C 2/C"
_symmetry_group_IT_number 15
_symmetry_cell_setting 'monoclinic'
loop_
_space_group_symop_operation_xyz
x,y,z
-x,y,1/2-z
-x,-y,-z
x,-y,1/2+z
1/2+x,1/2+y,z
1/2-x,1/2+y,1/2-z
1/2-x,1/2-y,-z
1/2+x,1/2-y,1/2+z
loop_
_atom_site_type_symbol
_atom_site_label
_atom_site_fract_x
_atom_site_fract_y
_atom_site_fract_z
Si Si1 0.350263 0.671912 0.384102
Si Si2 0.698610 0.584999 0.478350
Si Si3 0.674267 0.802464 0.697964
Si Si4 0.923873 0.796898 0.001288
Si Si5 0.000000 0.508734 0.250000
Si Si6 0.902611 0.082766 0.074274
Si Si7 0.472299 0.174316 0.505148
Si Si8 0.383692 0.938694 0.302588
O O1 0.302009 0.567134 0.489324
O O2 0.405479 0.673989 0.397534
O O3 0.374709 0.619933 0.232524
O O4 0.336886 0.824106 0.390789
O O5 0.681308 0.676471 0.608560
O O6 0.761575 0.642261 0.353600
O O7 0.648987 0.592595 0.449015
O O8 0.633269 0.765858 0.859314
O O9 0.644187 0.920304 0.670016
O O10 0.930293 0.941143 0.042370
O O11 0.980160 0.712269 0.962610
O O12 0.063766 0.439506 0.175210
O O13 0.998133 0.591001 0.368244
O O14 0.950348 0.192053 0.982470
O O15 0.417427 0.101880 0.640450
#
# Coordination Sequence:
#
# PCOD9292002 Si02
#       8
#     8   8   8   8   4   8   8   8
#     4  10  23  44  66  94 135 167 222 272 329 388
#     4  10  23  47  68  92 129 174 225 276 321 404
#     4  11  23  44  69  94 130 177 220 271 343 380
#     4  11  22  42  67  98 134 179 213 274 337 396
#     4  12  22  38  64  94 136 178 216 276 326 412
#     4  10  22  43  65 100 128 177 224 274 325 399
#     4  11  24  39  64  98 138 169 224 269 335 396
#     4  11  24  40  62  98 132 172 215 275 332 396
#
# _framework density 21.851993
#
# number of rings (size 3 to 8) (size 9 to 14) (size 15 to 20)
#    0.000    1.333    2.667    2.400    1.867    2.133 
#   12.000    0.000    0.000    0.000    0.000    0.000 
#    0.000    0.000    0.000    0.000    0.000    0.000 
#
# Total GULP energy -167596.505130 kJ/mol
# GULP energy per Si atom -5586.550171 kJ/mol
# Density = 2.180226 g / cm^3
# Si number density = 21.851993 Si / 1000 Ang^3
#
#
#
# Elastic Constant Matrix: (Units=GPa)
#
#
# Indices 1 2 3 4 5 6 
#
# 1 81.6470 35.0541 18.6132 0.0000 2.6568 0.0000
# 2 35.0541 128.9332 2.6755 0.0000 -10.8879 0.0000
# 3 18.6132 2.6755 26.1537 0.0000 1.0153 0.0000
# 4 0.0000 0.0000 0.0000 22.3075 0.0000 -3.2906
# 5 2.6568 -10.8879 1.0153 0.0000 29.8931 0.0000
# 6 0.0000 0.0000 0.0000 -3.2906 0.0000 36.8264
#
#
#
# Elastic Compliance Matrix: (Units=1/GPa)
#
#
# Indices 1 2 3 4 5 6 
#
# 1 0.016928 -0.004600 -0.011469 0.000000 -0.002790 0.000000
# 2 -0.004600 0.009275 0.002181 0.000000 0.003713 0.000000
# 3 -0.011469 0.002181 0.046165 0.000000 0.000246 0.000000
# 4 0.000000 0.000000 0.000000 0.045427 0.000000 0.004059
# 5 -0.002790 0.003713 0.000246 0.000000 0.035045 0.000000
# 6 0.000000 0.000000 0.000000 0.004059 0.000000 0.027517
#
#
# Mechanical properties :
#
#
# Convention : Reuss Voigt Hill
#
# Bulk Modulus (GPa) = 22.42539 38.82438 30.62489
# Shear Modulus (GPa) = 22.42194 29.83149 26.12671
#
# Velocity S-wave (km/s) = 3.20673 3.69882 3.46153
# Velocity P-wave (km/s) = 4.89852 6.00393 5.47917
#
# Compressibility (1/GPa) = 0.04459231
#
# Stress axis : x y z
#
# Youngs Moduli (GPa) = 59.07334 107.81799 21.66151
#
# Poissons Ratio (x) = 0.49597 0.24843
# Poissons Ratio (y) = 0.27174 -0.04724
# Poissons Ratio (z) = 0.67749 -0.23513
#
# Static dielectric constant tensor:
#      x y z
#    x 1.776900 0.000000 0.008050 
#    y 0.000000 1.625260 0.000000 
#    z 0.008050 0.000000 1.803600 
# 
# From -- ./inp_files/122653.got.cif
#   From: 2010.05.17/outbox.cif.g08.bks.cpg/sg15_62_cif.got.tgz:122653.got - 2010.06.03 18:47:42.
