data_PCOD9292867
_publ_section_title
;
Structure prediction by ZEFSAII (Michael W. Deem and Ramdas Pophale) SiO2 
 PCOD9292867
Probable space group: C 2/C
;
_chemical_formula_sum "Si O2"
_cell_formula_units_Z 36
_cell_length_a 15.908228
_cell_length_b 19.217533
_cell_length_c 8.183624
_cell_angle_alpha 90.000000
_cell_angle_beta 140.402599
_cell_angle_gamma 90.000000
_cell_volume 1594.665871
_symmetry_space_group_name_H-M "C 2/C"
_symmetry_group_IT_number 15
_symmetry_cell_setting 'monoclinic'
loop_
_space_group_symop_operation_xyz
x,y,z
-x,y,1/2-z
-x,-y,-z
x,-y,1/2+z
1/2+x,1/2+y,z
1/2-x,1/2+y,1/2-z
1/2-x,1/2-y,-z
1/2+x,1/2-y,1/2+z
loop_
_atom_site_type_symbol
_atom_site_label
_atom_site_fract_x
_atom_site_fract_y
_atom_site_fract_z
Si Si1 0.679934 0.230819 0.641100
Si Si2 0.355339 0.026593 0.451120
Si Si3 0.765820 0.599714 0.991633
Si Si4 0.000000 0.845447 0.250000
Si Si5 0.652321 0.835872 0.449062
O O1 0.683912 0.174617 0.501563
O O2 0.567329 0.289515 0.471573
O O3 0.673648 0.190956 0.801072
O O4 0.806322 0.280543 0.851383
O O5 0.281743 0.088733 0.437108
O O6 0.279009 0.954651 0.361926
O O7 0.500000 0.015935 0.750000
O O8 0.350280 0.061434 0.262602
O O9 0.618271 0.612273 0.841004
O O10 0.500000 0.848140 0.250000
#
# Coordination Sequence:
#
# PCOD9292867 Si02
#       5
#     8   8   8   4   8
#     4  11  24  42  71 102 138 179 225 285 344 406
#     4  11  25  44  69  99 134 181 233 285 338 402
#     4  12  26  46  69 103 137 184 229 281 346 404
#     4  12  26  42  70 102 140 182 224 284 342 408
#     4  10  22  44  69 103 134 175 231 284 340 404
#
# _framework density 22.575263
#
# number of rings (size 3 to 8) (size 9 to 14) (size 15 to 20)
#    0.000    0.889    2.222    4.000    7.778    0.889 
#    0.000    0.000    2.444    0.000    0.000    0.000 
#    0.000    0.000    0.000    0.000    0.000    0.000 
#
# Total GULP energy -100325.317355 kJ/mol
# GULP energy per Si atom -5573.628742 kJ/mol
# Density = 2.252388 g / cm^3
# Si number density = 22.575263 Si / 1000 Ang^3
#
#
#
# Elastic Constant Matrix: (Units=GPa)
#
#
# Indices 1 2 3 4 5 6 
#
# 1 74.4150 67.5992 45.0113 0.0000 -10.0611 0.0000
# 2 67.5992 161.0505 42.9883 0.0000 -0.1232 0.0000
# 3 45.0113 42.9883 77.2680 0.0000 -13.0580 0.0000
# 4 0.0000 0.0000 0.0000 21.1452 0.0000 -5.4625
# 5 -10.0611 -0.1232 -13.0580 0.0000 33.9312 0.0000
# 6 0.0000 0.0000 0.0000 -5.4625 0.0000 41.2817
#
#
#
# Elastic Compliance Matrix: (Units=1/GPa)
#
#
# Indices 1 2 3 4 5 6 
#
# 1 0.029161 -0.009276 -0.011093 0.000000 0.004344 0.000000
# 2 -0.009276 0.010329 -0.000857 0.000000 -0.003043 0.000000
# 3 -0.011093 -0.000857 0.020669 0.000000 0.004662 0.000000
# 4 0.000000 0.000000 0.000000 0.048966 0.000000 0.006479
# 5 0.004344 -0.003043 0.004662 0.000000 0.032543 0.000000
# 6 0.000000 0.000000 0.000000 0.006479 0.000000 0.025081
#
#
# Mechanical properties :
#
#
# Convention : Reuss Voigt Hill
#
# Bulk Modulus (GPa) = 56.47382 69.32567 62.89975
# Shear Modulus (GPa) = 23.24463 29.74727 26.49595
#
# Velocity S-wave (km/s) = 3.21230 3.63394 3.42961
# Velocity P-wave (km/s) = 6.23126 6.95577 6.60346
#
# Compressibility (1/GPa) = 0.01770732
#
# Stress axis : x y z
#
# Youngs Moduli (GPa) = 34.29182 96.81239 48.38242
#
# Poissons Ratio (x) = 0.89803 0.53669
# Poissons Ratio (y) = 0.31809 0.04148
# Poissons Ratio (z) = 0.38039 0.08300
#
# Static dielectric constant tensor:
#      x y z
#    x 1.876150 0.000000 0.002470 
#    y 0.000000 1.922380 0.000000 
#    z 0.002470 0.000000 2.013840 
# 
# From -- ./inp_files/48839.got.cif
#   From: 2010.05.17/outbox.cif.g08.bks.cpg/sg15_25_cif.got.tgz:48839.got - 2010.06.03 18:47:42.
