data_PCOD9292779
_publ_section_title
;
Structure prediction by ZEFSAII (Michael W. Deem and Ramdas Pophale) SiO2 
 PCOD9292779
Probable space group: C 2/C
;
_chemical_formula_sum "Si O2"
_cell_formula_units_Z 44
_cell_length_a 21.145611
_cell_length_b 4.884276
_cell_length_c 18.047881
_cell_angle_alpha 90.000000
_cell_angle_beta 112.769631
_cell_angle_gamma 90.000000
_cell_volume 1718.738489
_symmetry_space_group_name_H-M "C 2/C"
_symmetry_group_IT_number 15
_symmetry_cell_setting 'monoclinic'
loop_
_space_group_symop_operation_xyz
x,y,z
-x,y,1/2-z
-x,-y,-z
x,-y,1/2+z
1/2+x,1/2+y,z
1/2-x,1/2+y,1/2-z
1/2-x,1/2-y,-z
1/2+x,1/2-y,1/2+z
loop_
_atom_site_type_symbol
_atom_site_label
_atom_site_fract_x
_atom_site_fract_y
_atom_site_fract_z
Si Si1 0.500000 0.704501 0.250000
Si Si2 0.495042 0.757795 0.553976
Si Si3 0.278248 0.636103 0.634414
Si Si4 0.686474 0.366254 0.093717
Si Si5 0.389718 0.624424 0.799008
Si Si6 0.106870 0.879675 0.915764
O O1 0.558633 0.551872 0.227913
O O2 0.446972 0.795012 0.158963
O O3 0.500000 0.500000 0.500000
O O4 0.557522 0.825020 0.637886
O O5 0.432751 0.655171 0.576599
O O6 0.500000 0.000000 0.500000
O O7 0.227843 0.398102 0.640224
O O8 0.330184 0.740764 0.721043
O O9 0.327404 0.476404 0.600291
O O10 0.236387 0.895827 0.586403
O O11 0.646805 0.502358 0.145124
O O12 0.636906 0.260590 0.005808
#
# Coordination Sequence:
#
# PCOD9292779 Si02
#       6
#     4   8   8   8   8   8
#     4   8  20  42  70  98 134 182 218 300 340 404
#     4  11  24  41  68  98 127 176 225 285 335 398
#     4  11  26  43  66 103 137 186 221 283 339 406
#     4  12  24  41  72  97 138 181 230 277 338 412
#     4  10  22  44  68  99 139 173 236 276 349 400
#     4  10  22  44  68 100 140 175 235 280 346 406
#
# _framework density 25.600169999999999
#
# number of rings (size 3 to 8) (size 9 to 14) (size 15 to 20)
#    0.000    1.455    1.818    2.182    2.545    2.909 
#    0.000    0.000    0.000   19.636    0.000    0.000 
#    0.000    0.000    0.000    0.000    0.000    0.000 
#
# Total GULP energy -122739.992271 kJ/mol
# GULP energy per Si atom -5579.090558 kJ/mol
# Density = 2.554190 g / cm^3
# Si number density = 25.600170 Si / 1000 Ang^3
#
#
#
# Elastic Constant Matrix: (Units=GPa)
#
#
# Indices 1 2 3 4 5 6 
#
# 1 122.5592 22.7786 43.6793 -0.0002 -0.6791 0.0001
# 2 22.7786 99.7165 3.3527 -0.0004 2.2052 -0.0002
# 3 43.6793 3.3527 144.7458 0.0001 12.7233 0.0000
# 4 -0.0002 -0.0004 0.0001 9.6178 0.0001 2.0648
# 5 -0.6791 2.2052 12.7233 0.0001 46.1340 0.0000
# 6 0.0001 -0.0002 0.0000 2.0648 0.0000 19.0532
#
#
#
# Elastic Compliance Matrix: (Units=1/GPa)
#
#
# Indices 1 2 3 4 5 6 
#
# 1 0.009608 -0.002119 -0.002943 0.000000 0.001054 0.000000
# 2 -0.002119 0.010512 0.000454 0.000000 -0.000659 0.000000
# 3 -0.002943 0.000454 0.007986 0.000000 -0.002267 0.000000
# 4 0.000000 0.000000 0.000000 0.106451 0.000000 -0.011536
# 5 0.001054 -0.000659 -0.002267 0.000000 0.022348 0.000000
# 6 0.000000 0.000000 0.000000 -0.011536 0.000000 0.053735
#
#
# Mechanical properties :
#
#
# Convention : Reuss Voigt Hill
#
# Bulk Modulus (GPa) = 52.94103 56.29362 54.61733
# Shear Modulus (GPa) = 22.10906 34.77505 28.44205
#
# Velocity S-wave (km/s) = 2.94195 3.68963 3.33680
# Velocity P-wave (km/s) = 5.68022 6.33944 6.01886
#
# Compressibility (1/GPa) = 0.01888894
#
# Stress axis : x y z
#
# Youngs Moduli (GPa) = 104.08148 95.13099 125.22667
#
# Poissons Ratio (x) = 0.20159 0.36853
# Poissons Ratio (y) = 0.22056 -0.05684
# Poissons Ratio (z) = 0.30630 -0.04318
#
# Static dielectric constant tensor:
#      x y z
#    x 2.170380 0.000000 -0.169700 
#    y 0.000000 1.981560 0.000000 
#    z -0.169700 0.000000 2.284420 
# 
# From -- ./inp_files/217856.got.cif
#   From: 2010.05.17/outbox.cif.g08.bks.cpg/sg15_109_cif.got.tgz:217856.got - 2010.06.03 18:47:42.
