data_PCOD9292211
_publ_section_title
;
Structure prediction by ZEFSAII (Michael W. Deem and Ramdas Pophale) SiO2 
 PCOD9292211
Probable space group: C 2/C
;
_chemical_formula_sum "Si O2"
_cell_formula_units_Z 32
_cell_length_a 6.477308
_cell_length_b 17.350564
_cell_length_c 11.988843
_cell_angle_alpha 90.000000
_cell_angle_beta 73.345876
_cell_angle_gamma 90.000000
_cell_volume 1290.846567
_symmetry_space_group_name_H-M "C 2/C"
_symmetry_group_IT_number 15
_symmetry_cell_setting 'monoclinic'
loop_
_space_group_symop_operation_xyz
x,y,z
-x,y,1/2-z
-x,-y,-z
x,-y,1/2+z
1/2+x,1/2+y,z
1/2-x,1/2+y,1/2-z
1/2-x,1/2-y,-z
1/2+x,1/2-y,1/2+z
loop_
_atom_site_type_symbol
_atom_site_label
_atom_site_fract_x
_atom_site_fract_y
_atom_site_fract_z
Si Si1 0.508792 0.287461 0.527415
Si Si2 0.674026 0.414267 0.345898
Si Si3 0.111688 0.617756 0.916206
Si Si4 0.223680 0.418963 0.643922
O O1 0.750000 0.250000 0.500000
O O2 0.886834 0.404256 0.391250
O O3 0.379299 0.344084 0.633350
O O4 0.116438 0.292478 0.448414
O O5 0.728579 0.399382 0.209465
O O6 0.531276 0.346687 0.421002
O O7 0.631086 0.505391 0.358739
O O8 0.144385 0.575916 0.028036
O O9 0.000000 0.416813 0.750000
#
# Coordination Sequence:
#
# PCOD9292211 Si02
#       4
#     8   8   8   8
#     4  10  24  45  68  97 141 187 234 286 360 417
#     4  10  22  44  68  99 144 187 233 291 344 422
#     4  10  22  43  67  99 140 184 238 290 341 422
#     4  12  24  41  70 104 140 184 240 291 352 418
#
# _framework density 24.789933000000001
#
# number of rings (size 3 to 8) (size 9 to 14) (size 15 to 20)
#    0.000    1.500    2.500    2.250    3.500    1.000 
#    4.500    0.000    0.000    0.000    0.000    0.000 
#    0.000    0.000    0.000    0.000    0.000    0.000 
#
# Total GULP energy -89253.208145 kJ/mol
# GULP energy per Si atom -5578.325509 kJ/mol
# Density = 2.473351 g / cm^3
# Si number density = 24.789933 Si / 1000 Ang^3
#
#
#
# Elastic Constant Matrix: (Units=GPa)
#
#
# Indices 1 2 3 4 5 6 
#
# 1 107.4771 41.7339 57.9854 0.0000 -8.4843 0.0000
# 2 41.7339 223.2621 65.4344 0.0000 -4.9545 0.0000
# 3 57.9854 65.4344 182.2860 0.0000 2.6183 0.0000
# 4 0.0000 0.0000 0.0000 635.4998 0.0000 -573.7545
# 5 -8.4843 -4.9545 2.6183 0.0000 57.1501 0.0000
# 6 0.0000 0.0000 0.0000 -573.7545 0.0000 575.2158
#
#
#
# Elastic Compliance Matrix: (Units=1/GPa)
#
#
# Indices 1 2 3 4 5 6 
#
# 1 0.011694 -0.001172 -0.003325 0.000000 0.001787 0.000000
# 2 -0.001172 0.005138 -0.001477 0.000000 0.000339 0.000000
# 3 -0.003325 -0.001477 0.007087 0.000000 -0.000946 0.000000
# 4 0.000000 0.000000 0.000000 0.015822 0.000000 0.015782
# 5 0.001787 0.000339 -0.000946 0.000000 0.017836 0.000000
# 6 0.000000 0.000000 0.000000 0.015782 0.000000 0.017480
#
#
# Mechanical properties :
#
#
# Convention : Reuss Voigt Hill
#
# Bulk Modulus (GPa) = 83.52118 93.70362 88.61240
# Shear Modulus (GPa) = 54.94757 276.76458 165.85608
#
# Velocity S-wave (km/s) = 4.71311 10.57763 8.18840
# Velocity P-wave (km/s) = 7.96132 13.67709 11.19030
#
# Compressibility (1/GPa) = 0.01197301
#
# Stress axis : x y z
#
# Youngs Moduli (GPa) = 85.51196 194.61363 141.09916
#
# Poissons Ratio (x) = 0.22805 0.46915
# Poissons Ratio (y) = 0.10021 0.20835
# Poissons Ratio (z) = 0.28433 0.28737
#
# Static dielectric constant tensor:
#      x y z
#    x 2.267000 0.000000 -0.091390 
#    y 0.000000 1.905000 0.000000 
#    z -0.091390 0.000000 1.990030 
# 
# From -- ./inp_files/133693.got.cif
#   From: 2010.05.17/outbox.cif.g08.bks.cpg/sg15_67_cif.got.tgz:133693.got - 2010.06.03 18:47:42.
