data_PCOD9292431
_publ_section_title
;
Structure prediction by ZEFSAII (Michael W. Deem and Ramdas Pophale) SiO2 
 PCOD9292431
Probable space group: C 2/C
;
_chemical_formula_sum "Si O2"
_cell_formula_units_Z 48
_cell_length_a 13.507837
_cell_length_b 8.914913
_cell_length_c 19.546909
_cell_angle_alpha 90.000000
_cell_angle_beta 93.575489
_cell_angle_gamma 90.000000
_cell_volume 2349.280280
_symmetry_space_group_name_H-M "C 2/C"
_symmetry_group_IT_number 15
_symmetry_cell_setting 'monoclinic'
loop_
_space_group_symop_operation_xyz
x,y,z
-x,y,1/2-z
-x,-y,-z
x,-y,1/2+z
1/2+x,1/2+y,z
1/2-x,1/2+y,1/2-z
1/2-x,1/2-y,-z
1/2+x,1/2-y,1/2+z
loop_
_atom_site_type_symbol
_atom_site_label
_atom_site_fract_x
_atom_site_fract_y
_atom_site_fract_z
Si Si1 0.994067 0.135313 0.445253
Si Si2 0.667806 0.862829 0.024339
Si Si3 0.290634 0.274477 0.311190
Si Si4 0.316931 0.164307 0.558151
Si Si5 0.491480 0.429436 0.328029
Si Si6 0.721098 0.437217 0.332842
O O1 0.930669 0.266758 0.474907
O O2 0.094464 0.218099 0.427951
O O3 0.950373 0.058156 0.375670
O O4 0.000000 0.000000 0.500000
O O5 0.705095 0.905192 0.101671
O O6 0.750000 0.750000 0.000000
O O7 0.655848 0.007240 0.975771
O O8 0.239806 0.359103 0.372964
O O9 0.410566 0.295090 0.325901
O O10 0.266282 0.342194 0.235942
O O11 0.246228 0.108197 0.313946
O O12 0.250000 0.250000 0.500000
O O13 0.500000 0.480081 0.250000
O O14 0.607149 0.405264 0.352836
#
# Coordination Sequence:
#
# PCOD9292431 Si02
#       6
#     8   8   8   8   8   8
#     4  12  25  43  69  99 138 183 233 288 347 416
#     4  12  26  42  68 101 138 182 236 285 352 417
#     4  11  24  44  73  99 141 181 232 286 347 423
#     4  12  23  45  68 100 138 180 228 291 349 413
#     4  10  22  43  71  94 133 182 226 277 348 408
#     4  11  25  46  71 102 136 184 231 283 352 413
#
# _framework density 20.431788999999998
#
# number of rings (size 3 to 8) (size 9 to 14) (size 15 to 20)
#    0.000    0.667    3.333    4.500    7.000    0.000 
#    3.000    1.667    0.000    0.000    0.000    0.000 
#    0.000    0.000    0.000    0.000    0.000    0.000 
#
# Total GULP energy -134019.701238 kJ/mol
# GULP energy per Si atom -5584.154218 kJ/mol
# Density = 2.038529 g / cm^3
# Si number density = 20.431789 Si / 1000 Ang^3
#
#
#
# Elastic Constant Matrix: (Units=GPa)
#
#
# Indices 1 2 3 4 5 6 
#
# 1 77.1188 42.9928 24.7320 0.0000 -13.9952 0.0000
# 2 42.9928 106.7661 44.9221 0.0000 -9.2089 0.0000
# 3 24.7320 44.9221 112.3294 0.0000 -22.2430 0.0000
# 4 0.0000 0.0000 0.0000 46.1790 0.0000 -2.6109
# 5 -13.9952 -9.2089 -22.2430 0.0000 30.8341 0.0000
# 6 0.0000 0.0000 0.0000 -2.6109 0.0000 36.6062
#
#
#
# Elastic Compliance Matrix: (Units=1/GPa)
#
#
# Indices 1 2 3 4 5 6 
#
# 1 0.017768 -0.006602 -0.000076 0.000000 0.006038 0.000000
# 2 -0.006602 0.013715 -0.004449 0.000000 -0.002110 0.000000
# 3 -0.000076 -0.004449 0.012166 0.000000 0.007413 0.000000
# 4 0.000000 0.000000 0.000000 0.021743 0.000000 0.001551
# 5 0.006038 -0.002110 0.007413 0.000000 0.039890 0.000000
# 6 0.000000 0.000000 0.000000 0.001551 0.000000 0.027428
#
#
# Mechanical properties :
#
#
# Convention : Reuss Voigt Hill
#
# Bulk Modulus (GPa) = 46.74083 57.94536 52.34310
# Shear Modulus (GPa) = 30.84621 34.96169 32.90395
#
# Velocity S-wave (km/s) = 3.88972 4.14108 4.01737
# Velocity P-wave (km/s) = 6.56502 7.16147 6.86972
#
# Compressibility (1/GPa) = 0.02139457
#
# Stress axis : x y z
#
# Youngs Moduli (GPa) = 56.28222 72.91494 82.19449
#
# Poissons Ratio (x) = 0.48137 0.00627
# Poissons Ratio (y) = 0.37157 0.36567
# Poissons Ratio (z) = 0.00429 0.32439
#
# Static dielectric constant tensor:
#      x y z
#    x 1.831520 0.000000 -0.064050 
#    y 0.000000 1.703940 0.000000 
#    z -0.064050 0.000000 1.767550 
# 
# From -- ./inp_files/202986.got.cif
#   From: 2010.05.17/outbox.cif.g08.bks.cpg/sg15_102_cif.got.tgz:202986.got - 2010.06.03 18:47:42.
