data_PCOD9292331
_publ_section_title
;
Structure prediction by ZEFSAII (Michael W. Deem and Ramdas Pophale) SiO2 
 PCOD9292331
Probable space group: C 2/C
;
_chemical_formula_sum "Si O2"
_cell_formula_units_Z 36
_cell_length_a 10.514587
_cell_length_b 13.607210
_cell_length_c 10.908625
_cell_angle_alpha 90.000000
_cell_angle_beta 100.811760
_cell_angle_gamma 90.000000
_cell_volume 1533.037619
_symmetry_space_group_name_H-M "C 2/C"
_symmetry_group_IT_number 15
_symmetry_cell_setting 'monoclinic'
loop_
_space_group_symop_operation_xyz
x,y,z
-x,y,1/2-z
-x,-y,-z
x,-y,1/2+z
1/2+x,1/2+y,z
1/2-x,1/2+y,1/2-z
1/2-x,1/2-y,-z
1/2+x,1/2-y,1/2+z
loop_
_atom_site_type_symbol
_atom_site_label
_atom_site_fract_x
_atom_site_fract_y
_atom_site_fract_z
Si Si1 0.074993 0.280970 0.637202
Si Si2 0.388860 0.582783 0.992064
Si Si3 0.158396 0.698469 0.587110
Si Si4 0.147671 0.482315 0.568817
Si Si5 0.000000 0.188023 0.250000
O O1 0.122140 0.172849 0.605894
O O2 0.152627 0.384391 0.653604
O O3 0.000000 0.270790 0.750000
O O4 0.975916 0.302965 0.509930
O O5 0.246197 0.537709 0.975888
O O6 0.430831 0.628128 0.130273
O O7 0.500000 0.500000 0.000000
O O8 0.250000 0.750000 0.500000
O O9 0.197033 0.587395 0.627190
O O10 0.116830 0.753395 0.703407
O O11 0.000000 0.500000 0.500000
#
# Coordination Sequence:
#
# PCOD9292331 Si02
#       5
#     8   8   8   8   4
#     4  10  23  41  65 103 136 175 230 289 349 421
#     4  11  24  46  68 101 137 186 236 287 351 427
#     4  10  22  44  65  99 139 181 232 286 353 425
#     4  10  22  43  69  98 138 178 229 289 349 413
#     4  10  24  42  68  96 138 190 224 288 354 420
#
# _framework density 23.482787999999999
#
# number of rings (size 3 to 8) (size 9 to 14) (size 15 to 20)
#    0.000    1.778    0.000    3.333    6.222    0.000 
#    0.000    0.000    0.000    0.000    0.000    0.000 
#    0.000    0.000    0.000    0.000    0.000    0.000 
#
# Total GULP energy -100286.008387 kJ/mol
# GULP energy per Si atom -5571.444910 kJ/mol
# Density = 2.342934 g / cm^3
# Si number density = 23.482788 Si / 1000 Ang^3
#
#
#
# Elastic Constant Matrix: (Units=GPa)
#
#
# Indices 1 2 3 4 5 6 
#
# 1 111.7879 87.3368 26.8196 0.0000 -43.2448 0.0000
# 2 87.3368 210.5554 88.5754 0.0000 -42.7949 0.0000
# 3 26.8196 88.5754 125.7851 0.0000 -31.8324 0.0000
# 4 0.0000 0.0000 0.0000 28.8996 0.0000 -16.4666
# 5 -43.2448 -42.7949 -31.8324 0.0000 46.0529 0.0000
# 6 0.0000 0.0000 0.0000 -16.4666 0.0000 34.3112
#
#
#
# Elastic Compliance Matrix: (Units=1/GPa)
#
#
# Indices 1 2 3 4 5 6 
#
# 1 0.018633 -0.006638 0.004325 0.000000 0.014318 0.000000
# 2 -0.006638 0.009651 -0.005682 0.000000 -0.001193 0.000000
# 3 0.004325 -0.005682 0.012994 0.000000 0.007762 0.000000
# 4 0.000000 0.000000 0.000000 0.047626 0.000000 0.022857
# 5 0.014318 -0.001193 0.007762 0.000000 0.039415 0.000000
# 6 0.000000 0.000000 0.000000 0.022857 0.000000 0.040114
#
#
# Mechanical properties :
#
#
# Convention : Reuss Voigt Hill
#
# Bulk Modulus (GPa) = 39.54743 94.84356 67.19549
# Shear Modulus (GPa) = 25.92650 38.21252 32.06951
#
# Velocity S-wave (km/s) = 3.32635 4.03830 3.69949
# Velocity P-wave (km/s) = 5.62409 7.88797 6.85020
#
# Compressibility (1/GPa) = 0.02528610
#
# Stress axis : x y z
#
# Youngs Moduli (GPa) = 53.66877 103.61890 76.95988
#
# Poissons Ratio (x) = 0.68784 -0.33285
# Poissons Ratio (y) = 0.35626 0.43732
# Poissons Ratio (z) = -0.23211 0.58881
#
# Static dielectric constant tensor:
#      x y z
#    x 1.974960 0.000000 0.009920 
#    y 0.000000 2.034660 0.000000 
#    z 0.009920 0.000000 1.941670 
# 
# From -- ./inp_files/84360.got.cif
#   From: 2010.05.17/outbox.cif.g08.bks.cpg/sg15_43_cif.got.tgz:84360.got - 2010.06.03 18:47:42.
