data_PCOD9292767
_publ_section_title
;
Structure prediction by ZEFSAII (Michael W. Deem and Ramdas Pophale) SiO2 
 PCOD9292767
Probable space group: C 2/C
;
_chemical_formula_sum "Si O2"
_cell_formula_units_Z 28
_cell_length_a 9.443223
_cell_length_b 9.790462
_cell_length_c 10.905620
_cell_angle_alpha 90.000000
_cell_angle_beta 92.302850
_cell_angle_gamma 90.000000
_cell_volume 1007.448637
_symmetry_space_group_name_H-M "C 2/C"
_symmetry_group_IT_number 15
_symmetry_cell_setting 'monoclinic'
loop_
_space_group_symop_operation_xyz
x,y,z
-x,y,1/2-z
-x,-y,-z
x,-y,1/2+z
1/2+x,1/2+y,z
1/2-x,1/2+y,1/2-z
1/2-x,1/2-y,-z
1/2+x,1/2-y,1/2+z
loop_
_atom_site_type_symbol
_atom_site_label
_atom_site_fract_x
_atom_site_fract_y
_atom_site_fract_z
Si Si1 0.366367 0.948635 0.577354
Si Si2 0.641632 0.761313 0.383822
Si Si3 0.000000 0.049293 0.250000
Si Si4 0.587161 0.660739 0.940453
O O1 0.393802 0.800241 0.635647
O O2 0.231971 0.913519 0.485209
O O3 0.500000 0.000000 0.500000
O O4 0.346046 0.083101 0.660547
O O5 0.750000 0.750000 0.500000
O O6 0.636568 0.645058 0.280890
O O7 0.493192 0.720487 0.444038
O O8 0.007189 0.946419 0.135942
#
# Coordination Sequence:
#
# PCOD9292767 Si02
#       4
#     8   8   4   8
#     4   9  20  43  67  93 140 180 225 301 344 413
#     4  11  23  44  67 100 140 177 237 295 351 425
#     4  12  24  40  68 100 132 194 226 286 374 418
#     4  10  22  44  67  97 139 181 237 294 345 428
#
# _framework density 27.792981999999999
#
# number of rings (size 3 to 8) (size 9 to 14) (size 15 to 20)
#    0.000    1.714    2.857    0.857    0.000    1.143 
#   15.429    0.000    0.000    0.000    0.000    0.000 
#    0.000    0.000    0.000    0.000    0.000    0.000 
#
# Total GULP energy -78264.773962 kJ/mol
# GULP energy per Si atom -5590.340997 kJ/mol
# Density = 2.772972 g / cm^3
# Si number density = 27.792982 Si / 1000 Ang^3
#
#
#
# Elastic Constant Matrix: (Units=GPa)
#
#
# Indices 1 2 3 4 5 6 
#
# 1 132.4997 23.0862 27.5403 0.0000 27.7823 0.0000
# 2 23.0862 343.6635 75.8778 0.0000 21.8959 0.0000
# 3 27.5403 75.8778 151.0206 0.0000 34.7139 0.0000
# 4 0.0000 0.0000 0.0000 63.8523 0.0000 11.3362
# 5 27.7823 21.8959 34.7139 0.0000 33.1577 0.0000
# 6 0.0000 0.0000 0.0000 11.3362 0.0000 38.0525
#
#
#
# Elastic Compliance Matrix: (Units=1/GPa)
#
#
# Indices 1 2 3 4 5 6 
#
# 1 0.009166 -0.000164 0.000199 0.000000 -0.007780 0.000000
# 2 -0.000164 0.003284 -0.001519 0.000000 -0.000441 0.000000
# 3 0.000199 -0.001519 0.009424 0.000000 -0.009030 0.000000
# 4 0.000000 0.000000 0.000000 0.016536 0.000000 -0.004926
# 5 -0.007780 -0.000441 -0.009030 0.000000 0.046423 0.000000
# 6 0.000000 0.000000 0.000000 -0.004926 0.000000 0.027747
#
#
# Mechanical properties :
#
#
# Convention : Reuss Voigt Hill
#
# Bulk Modulus (GPa) = 52.89038 97.79917 75.34477
# Shear Modulus (GPa) = 41.03419 60.39114 50.71267
#
# Velocity S-wave (km/s) = 3.84659 4.66649 4.27623
# Velocity P-wave (km/s) = 6.22895 8.01870 7.17981
#
# Compressibility (1/GPa) = 0.01890703
#
# Stress axis : x y z
#
# Youngs Moduli (GPa) = 109.10296 304.47946 106.11072
#
# Poissons Ratio (x) = 0.04994 -0.02115
# Poissons Ratio (y) = 0.01790 0.16116
# Poissons Ratio (z) = -0.02174 0.46244
#
# Static dielectric constant tensor:
#      x y z
#    x 2.449070 0.000000 -0.215750 
#    y 0.000000 2.320670 0.000000 
#    z -0.215750 0.000000 2.314530 
# 
# From -- ./inp_files/125397.got.cif
#   From: 2010.05.17/outbox.cif.g08.bks.cpg/sg15_63_cif.got.tgz:125397.got - 2010.06.03 18:47:42.
