data_PCOD9292668
_publ_section_title
;
Structure prediction by ZEFSAII (Michael W. Deem and Ramdas Pophale) SiO2 
 PCOD9292668
Probable space group: C 2/C
;
_chemical_formula_sum "Si O2"
_cell_formula_units_Z 52
_cell_length_a 13.779099
_cell_length_b 26.652766
_cell_length_c 6.691146
_cell_angle_alpha 90.000000
_cell_angle_beta 94.084369
_cell_angle_gamma 90.000000
_cell_volume 2451.089735
_symmetry_space_group_name_H-M "C 2/C"
_symmetry_group_IT_number 15
_symmetry_cell_setting 'monoclinic'
loop_
_space_group_symop_operation_xyz
x,y,z
-x,y,1/2-z
-x,-y,-z
x,-y,1/2+z
1/2+x,1/2+y,z
1/2-x,1/2+y,1/2-z
1/2-x,1/2-y,-z
1/2+x,1/2-y,1/2+z
loop_
_atom_site_type_symbol
_atom_site_label
_atom_site_fract_x
_atom_site_fract_y
_atom_site_fract_z
Si Si1 0.596237 0.860293 0.385496
Si Si2 0.847324 0.270106 0.402630
Si Si3 0.720804 0.593612 0.450262
Si Si4 0.082600 0.002893 0.889307
Si Si5 0.893453 0.833229 0.807784
Si Si6 0.500000 0.805856 0.750000
Si Si7 0.889170 0.111741 0.685541
O O1 0.500000 0.876213 0.250000
O O2 0.647846 0.819674 0.240188
O O3 0.668895 0.904940 0.460805
O O4 0.562552 0.836191 0.592129
O O5 0.750000 0.250000 0.500000
O O6 0.879772 0.224659 0.261288
O O7 0.925195 0.277220 0.592959
O O8 0.661444 0.542697 0.405567
O O9 0.695668 0.631849 0.270660
O O10 0.665820 0.621339 0.622487
O O11 0.049628 0.999702 0.633470
O O12 0.138491 0.056984 0.902672
O O13 0.000000 0.851955 0.750000
O O14 0.890333 0.841528 0.042698
O O15 0.000000 0.101132 0.750000
#
# Coordination Sequence:
#
# PCOD9292668 Si02
#       7
#     8   8   8   8   8   4   8
#     4  10  24  45  65  88 120 175 231 271 315 368
#     4  11  24  40  61  93 129 163 215 268 322 382
#     4  12  23  38  64  89 124 170 209 260 315 383
#     4  11  19  36  57  89 130 160 195 241 319 407
#     4  12  23  34  56  95 126 161 206 243 310 392
#     4  10  22  44  66  84 128 176 212 280 320 356
#     4  11  22  36  57  90 134 166 193 246 317 398
#
# _framework density 21.215053999999999
#
# number of rings (size 3 to 8) (size 9 to 14) (size 15 to 20)
#    0.000    0.923    4.615    4.615    1.077    6.154 
#    0.000    0.000    0.000    0.923    0.000    0.000 
#    0.000    0.000    0.000    0.000    0.000    0.000 
#
# Total GULP energy -144750.236949 kJ/mol
# GULP energy per Si atom -5567.316806 kJ/mol
# Density = 2.116677 g / cm^3
# Si number density = 21.215054 Si / 1000 Ang^3
#
#
#
# Elastic Constant Matrix: (Units=GPa)
#
#
# Indices 1 2 3 4 5 6 
#
# 1 103.3894 24.0430 29.6694 0.0000 25.5941 0.0000
# 2 24.0430 78.9397 28.4040 0.0000 35.4981 0.0000
# 3 29.6694 28.4040 87.1250 0.0000 4.8744 0.0000
# 4 0.0000 0.0000 0.0000 31.4528 0.0000 12.2931
# 5 25.5941 35.4981 4.8744 0.0000 38.1463 0.0000
# 6 0.0000 0.0000 0.0000 12.2931 0.0000 23.8471
#
#
#
# Elastic Compliance Matrix: (Units=1/GPa)
#
#
# Indices 1 2 3 4 5 6 
#
# 1 0.013005 0.002334 -0.004613 0.000000 -0.010309 0.000000
# 2 0.002334 0.025851 -0.007845 0.000000 -0.024620 0.000000
# 3 -0.004613 -0.007845 0.015133 0.000000 0.008462 0.000000
# 4 0.000000 0.000000 0.000000 0.039816 0.000000 -0.020525
# 5 -0.010309 -0.024620 0.008462 0.000000 0.054961 0.000000
# 6 0.000000 0.000000 0.000000 -0.020525 0.000000 0.052514
#
#
# Mechanical properties :
#
#
# Convention : Reuss Voigt Hill
#
# Bulk Modulus (GPa) = 29.63730 48.18742 38.91236
# Shear Modulus (GPa) = 21.47996 31.17841 26.32918
#
# Velocity S-wave (km/s) = 3.18541 3.83774 3.52669
# Velocity P-wave (km/s) = 5.24685 6.51159 5.91313
#
# Compressibility (1/GPa) = 0.03374127
#
# Stress axis : x y z
#
# Youngs Moduli (GPa) = 76.89368 38.68293 66.08098
#
# Poissons Ratio (x) = -0.09030 0.30483
# Poissons Ratio (y) = -0.17951 0.51843
# Poissons Ratio (z) = 0.35471 0.30348
#
# Static dielectric constant tensor:
#      x y z
#    x 1.840630 0.000000 0.035060 
#    y 0.000000 1.798550 0.000000 
#    z 0.035060 0.000000 1.873620 
# 
# From -- ./inp_files/9127.got.cif
#   From: 2010.05.17/outbox.cif.g08.bks.cpg/sg15_5_cif.got.tgz:9127.got - 2010.06.03 18:47:42.
