data_PCOD9292630
_publ_section_title
;
Structure prediction by ZEFSAII (Michael W. Deem and Ramdas Pophale) SiO2 
 PCOD9292630
Probable space group: C 2/C
;
_chemical_formula_sum "Si O2"
_cell_formula_units_Z 56
_cell_length_a 14.407605
_cell_length_b 14.454869
_cell_length_c 25.852700
_cell_angle_alpha 90.000000
_cell_angle_beta 148.676912
_cell_angle_gamma 90.000000
_cell_volume 2798.988340
_symmetry_space_group_name_H-M "C 2/C"
_symmetry_group_IT_number 15
_symmetry_cell_setting 'monoclinic'
loop_
_space_group_symop_operation_xyz
x,y,z
-x,y,1/2-z
-x,-y,-z
x,-y,1/2+z
1/2+x,1/2+y,z
1/2-x,1/2+y,1/2-z
1/2-x,1/2-y,-z
1/2+x,1/2-y,1/2+z
loop_
_atom_site_type_symbol
_atom_site_label
_atom_site_fract_x
_atom_site_fract_y
_atom_site_fract_z
Si Si1 0.840462 0.616997 0.642086
Si Si2 0.535054 0.721078 0.044046
Si Si3 0.500000 0.375033 0.250000
Si Si4 0.593515 0.202740 0.458525
Si Si5 0.174686 0.515684 0.546926
Si Si6 0.350812 0.154338 0.532026
Si Si7 0.618656 0.206966 0.235401
Si Si8 0.000000 0.441731 0.750000
O O1 0.648437 0.664986 0.550237
O O2 0.901432 0.611290 0.611261
O O3 0.000000 0.667357 0.750000
O O4 0.839289 0.515602 0.667505
O O5 0.592746 0.752913 0.014921
O O6 0.501558 0.809313 0.065078
O O7 0.693280 0.674054 0.151384
O O8 0.663738 0.439273 0.344394
O O9 0.562486 0.303850 0.234900
O O10 0.750000 0.250000 0.500000
O O11 0.623259 0.094282 0.481047
O O12 0.410797 0.215792 0.339416
O O13 0.238228 0.424383 0.545957
O O14 0.000000 0.500000 0.500000
O O15 0.250000 0.250000 0.500000
O O16 0.492166 0.126316 0.197558
#
# Coordination Sequence:
#
# PCOD9292630 Si02
#       8
#     8   8   4   8   8   8   8   4
#     4   9  22  43  65  92 137 182 224 286 350 425
#     4  11  23  42  67 100 134 181 236 287 344 434
#     4  11  22  44  67 102 140 180 235 302 339 426
#     4  12  23  41  72 102 138 185 227 293 354 410
#     4  12  23  46  71 101 141 186 240 288 353 426
#     4  10  22  44  65  94 140 178 224 292 345 413
#     4  11  21  39  67  96 139 180 232 295 354 400
#     4   9  20  40  61  94 134 180 231 282 353 424
#
# _framework density 20.007228999999999
#
# number of rings (size 3 to 8) (size 9 to 14) (size 15 to 20)
#    0.429    0.857    4.286    1.714    2.000    0.571 
#   10.286    1.429    0.000    0.000    0.000    0.000 
#    0.000    0.000    0.000    0.000    0.000    0.000 
#
# Total GULP energy -155902.654357 kJ/mol
# GULP energy per Si atom -5567.951941 kJ/mol
# Density = 1.996169 g / cm^3
# Si number density = 20.007229 Si / 1000 Ang^3
#
#
#
# Elastic Constant Matrix: (Units=GPa)
#
#
# Indices 1 2 3 4 5 6 
#
# 1 103.2165 29.0870 33.9059 0.0000 -13.2461 0.0000
# 2 29.0870 103.0546 32.7756 0.0000 1.2423 0.0000
# 3 33.9059 32.7756 137.0727 0.0000 -5.5011 0.0000
# 4 0.0000 0.0000 0.0000 28.6502 0.0000 -2.5824
# 5 -13.2461 1.2423 -5.5011 0.0000 31.7740 0.0000
# 6 0.0000 0.0000 0.0000 -2.5824 0.0000 23.0745
#
#
#
# Elastic Compliance Matrix: (Units=1/GPa)
#
#
# Indices 1 2 3 4 5 6 
#
# 1 0.011725 -0.002708 -0.002067 0.000000 0.004636 0.000000
# 2 -0.002708 0.011151 -0.002074 0.000000 -0.001924 0.000000
# 3 -0.002067 -0.002074 0.008329 0.000000 0.000661 0.000000
# 4 0.000000 0.000000 0.000000 0.035259 0.000000 0.003946
# 5 0.004636 -0.001924 0.000661 0.000000 0.033595 0.000000
# 6 0.000000 0.000000 0.000000 0.003946 0.000000 0.043780
#
#
# Mechanical properties :
#
#
# Convention : Reuss Voigt Hill
#
# Bulk Modulus (GPa) = 57.11611 59.43120 58.27366
# Shear Modulus (GPa) = 30.60508 33.20478 31.90493
#
# Velocity S-wave (km/s) = 3.91538 4.07829 3.99766
# Velocity P-wave (km/s) = 7.00357 7.20735 7.10619
#
# Compressibility (1/GPa) = 0.01750820
#
# Stress axis : x y z
#
# Youngs Moduli (GPa) = 85.28482 89.68111 120.06252
#
# Poissons Ratio (x) = 0.24286 0.24814
# Poissons Ratio (y) = 0.23096 0.24896
# Poissons Ratio (z) = 0.17626 0.18596
#
# Static dielectric constant tensor:
#      x y z
#    x 1.748690 0.000000 0.030450 
#    y 0.000000 1.742630 0.000000 
#    z 0.030450 0.000000 1.788280 
# 
# From -- ./inp_files/296618.got.cif
#   From: 2010.05.17/outbox.cif.g08.bks.cpg/sg15_149_cif.got.tgz:296618.got - 2010.06.03 18:47:42.
