data_PCOD9292474
_publ_section_title
;
Structure prediction by ZEFSAII (Michael W. Deem and Ramdas Pophale) SiO2 
 PCOD9292474
Probable space group: C 2/C
;
_chemical_formula_sum "Si O2"
_cell_formula_units_Z 48
_cell_length_a 27.502441
_cell_length_b 6.558497
_cell_length_c 14.140094
_cell_angle_alpha 90.000000
_cell_angle_beta 122.071027
_cell_angle_gamma 90.000000
_cell_volume 2161.282154
_symmetry_space_group_name_H-M "C 2/C"
_symmetry_group_IT_number 15
_symmetry_cell_setting 'monoclinic'
loop_
_space_group_symop_operation_xyz
x,y,z
-x,y,1/2-z
-x,-y,-z
x,-y,1/2+z
1/2+x,1/2+y,z
1/2-x,1/2+y,1/2-z
1/2-x,1/2-y,-z
1/2+x,1/2-y,1/2+z
loop_
_atom_site_type_symbol
_atom_site_label
_atom_site_fract_x
_atom_site_fract_y
_atom_site_fract_z
Si Si1 0.192839 0.636668 0.178075
Si Si2 0.436590 0.093043 0.647331
Si Si3 0.582813 0.031877 0.175061
Si Si4 0.219486 0.274990 0.070683
Si Si5 0.970794 0.266195 0.523608
Si Si6 0.878874 0.968674 0.496169
O O1 0.141955 0.523262 0.180954
O O2 0.209554 0.503858 0.102645
O O3 0.242573 0.675674 0.305363
O O4 0.162732 0.848497 0.118429
O O5 0.500000 0.146374 0.750000
O O6 0.400232 0.291864 0.587605
O O7 0.407731 0.975170 0.704319
O O8 0.445769 0.942347 0.568357
O O9 0.539174 0.218385 0.107719
O O10 0.547035 0.838639 0.098739
O O11 0.160042 0.150383 0.003958
O O12 0.250000 0.250000 0.000000
O O13 0.937010 0.064400 0.514333
#
# Coordination Sequence:
#
# PCOD9292474 Si02
#       6
#     8   8   8   8   8   8
#     4  12  26  48  70 104 139 185 252 301 352 439
#     4  10  23  43  66 106 143 182 230 284 354 434
#     4  10  22  43  72  97 143 180 230 294 348 421
#     4  12  29  49  72 101 141 194 243 301 364 420
#     4  10  22  44  65 102 143 180 220 290 356 427
#     4  12  24  45  71  99 148 177 237 295 356 434
#
# _framework density 22.209039000000001
#
# number of rings (size 3 to 8) (size 9 to 14) (size 15 to 20)
#    0.000    1.000    5.000    0.000    4.667    6.000 
#    0.000    0.000    0.000    0.000    0.000    0.000 
#    0.000    0.000    0.000    0.000    0.000    0.000 
#
# Total GULP energy -134049.839270 kJ/mol
# GULP energy per Si atom -5585.409970 kJ/mol
# Density = 2.215849 g / cm^3
# Si number density = 22.209039 Si / 1000 Ang^3
#
#
#
# Elastic Constant Matrix: (Units=GPa)
#
#
# Indices 1 2 3 4 5 6 
#
# 1 78.8899 26.1752 19.8661 0.0000 -9.0815 0.0000
# 2 26.1752 79.5288 38.9113 0.0000 6.6204 0.0000
# 3 19.8661 38.9113 83.1039 0.0000 1.4714 0.0000
# 4 0.0000 0.0000 0.0000 21.1682 0.0000 11.4126
# 5 -9.0815 6.6204 1.4714 0.0000 43.8776 0.0000
# 6 0.0000 0.0000 0.0000 11.4126 0.0000 34.4164
#
#
#
# Elastic Compliance Matrix: (Units=1/GPa)
#
#
# Indices 1 2 3 4 5 6 
#
# 1 0.015000 -0.004499 -0.001547 0.000000 0.003835 0.000000
# 2 -0.004499 0.017877 -0.007235 0.000000 -0.003386 0.000000
# 3 -0.001547 -0.007235 0.015786 0.000000 0.000242 0.000000
# 4 0.000000 0.000000 0.000000 0.057525 0.000000 -0.019075
# 5 0.003835 -0.003386 0.000242 0.000000 0.024087 0.000000
# 6 0.000000 0.000000 0.000000 -0.019075 0.000000 0.035381
#
#
# Mechanical properties :
#
#
# Convention : Reuss Voigt Hill
#
# Bulk Modulus (GPa) = 45.24773 45.71419 45.48096
# Shear Modulus (GPa) = 25.05204 30.33045 27.69125
#
# Velocity S-wave (km/s) = 3.36223 3.69952 3.53490
# Velocity P-wave (km/s) = 5.95740 6.23513 6.09785
#
# Compressibility (1/GPa) = 0.02210056
#
# Stress axis : x y z
#
# Youngs Moduli (GPa) = 66.66769 55.93935 63.34677
#
# Poissons Ratio (x) = 0.25168 0.09800
# Poissons Ratio (y) = 0.29995 0.45830
# Poissons Ratio (z) = 0.10313 0.40471
#
# Static dielectric constant tensor:
#      x y z
#    x 1.861610 0.000000 0.011950 
#    y 0.000000 1.846420 0.000000 
#    z 0.011950 0.000000 1.819270 
# 
# From -- ./inp_files/180217.got.cif
#   From: 2010.05.17/outbox.cif.g08.bks.cpg/sg15_91_cif.got.tgz:180217.got - 2010.06.03 18:47:42.
