data_PCOD9292206
_publ_section_title
;
Structure prediction by ZEFSAII (Michael W. Deem and Ramdas Pophale) SiO2 
 PCOD9292206
Probable space group: C 2/C
;
_chemical_formula_sum "Si O2"
_cell_formula_units_Z 52
_cell_length_a 21.966491
_cell_length_b 17.094561
_cell_length_c 5.714647
_cell_angle_alpha 90.000000
_cell_angle_beta 103.665568
_cell_angle_gamma 90.000000
_cell_volume 2085.145427
_symmetry_space_group_name_H-M "C 2/C"
_symmetry_group_IT_number 15
_symmetry_cell_setting 'monoclinic'
loop_
_space_group_symop_operation_xyz
x,y,z
-x,y,1/2-z
-x,-y,-z
x,-y,1/2+z
1/2+x,1/2+y,z
1/2-x,1/2+y,1/2-z
1/2-x,1/2-y,-z
1/2+x,1/2-y,1/2+z
loop_
_atom_site_type_symbol
_atom_site_label
_atom_site_fract_x
_atom_site_fract_y
_atom_site_fract_z
Si Si1 0.751014 0.040203 0.019524
Si Si2 0.072280 0.969934 0.601043
Si Si3 0.268182 0.311735 0.319199
Si Si4 0.000000 0.543563 0.750000
Si Si5 0.067560 0.784901 0.698010
Si Si6 0.854342 0.709756 0.084366
Si Si7 0.877215 0.366416 0.044758
O O1 0.925295 0.121889 0.329304
O O2 0.681501 0.078418 0.952413
O O3 0.759660 0.014164 0.296809
O O4 0.098614 0.985663 0.359399
O O5 0.000000 0.000000 0.500000
O O6 0.250000 0.250000 0.500000
O O7 0.292783 0.385611 0.483793
O O8 0.202774 0.325122 0.121639
O O9 0.316703 0.279211 0.177685
O O10 0.000000 0.500000 0.500000
O O11 0.938251 0.595794 0.702645
O O12 0.083195 0.747769 0.461734
O O13 0.000000 0.772637 0.750000
O O14 0.115649 0.726900 0.882103
O O15 0.875814 0.639257 0.265275
#
# Coordination Sequence:
#
# PCOD9292206 Si02
#       7
#     8   8   8   4   8   8   8
#     4  12  26  46  78 115 157 202 257 326 415 479
#     4  10  22  43  67  98 141 195 246 315 394 450
#     4  11  23  49  79 110 150 202 269 330 406 492
#     4  12  30  48  70 106 168 216 264 334 392 468
#     4  12  25  43  74 110 149 208 271 321 390 484
#     4  11  25  44  81 109 153 202 273 333 401 470
#     4  12  26  47  72 116 152 216 271 323 394 487
#
# _framework density 24.938309
#
# number of rings (size 3 to 8) (size 9 to 14) (size 15 to 20)
#    0.000    0.615    5.385    1.846    6.462    0.615 
#    0.000    1.538    0.000    0.000    0.000    0.000 
#    0.000    0.000    0.000    0.000    0.000    0.000 
#
# Total GULP energy -144985.831035 kJ/mol
# GULP energy per Si atom -5576.378117 kJ/mol
# Density = 2.488155 g / cm^3
# Si number density = 24.938309 Si / 1000 Ang^3
#
#
#
# Elastic Constant Matrix: (Units=GPa)
#
#
# Indices 1 2 3 4 5 6 
#
# 1 92.2671 10.0318 47.6621 0.0000 -12.9260 0.0000
# 2 10.0318 98.5057 59.5430 0.0000 -3.5898 0.0000
# 3 47.6621 59.5430 146.0767 0.0000 -3.9366 0.0000
# 4 0.0000 0.0000 0.0000 57.7017 0.0000 -18.8136
# 5 -12.9260 -3.5898 -3.9366 0.0000 49.9233 0.0000
# 6 0.0000 0.0000 0.0000 -18.8136 0.0000 18.3913
#
#
#
# Elastic Compliance Matrix: (Units=1/GPa)
#
#
# Indices 1 2 3 4 5 6 
#
# 1 0.013758 0.001829 -0.005146 0.000000 0.003288 0.000000
# 2 0.001829 0.013728 -0.006166 0.000000 0.000975 0.000000
# 3 -0.005146 -0.006166 0.011014 0.000000 -0.000907 0.000000
# 4 0.000000 0.000000 0.000000 0.026004 0.000000 0.026601
# 5 0.003288 0.000975 -0.000907 0.000000 0.020881 0.000000
# 6 0.000000 0.000000 0.000000 0.026601 0.000000 0.081585
#
#
# Mechanical properties :
#
#
# Convention : Reuss Voigt Hill
#
# Bulk Modulus (GPa) = 51.19318 63.48036 57.33677
# Shear Modulus (GPa) = 25.98107 39.84409 32.91258
#
# Velocity S-wave (km/s) = 3.23122 4.00147 3.63679
# Velocity P-wave (km/s) = 5.87312 6.84538 6.37780
#
# Compressibility (1/GPa) = 0.01953385
#
# Stress axis : x y z
#
# Youngs Moduli (GPa) = 72.68438 72.84220 90.79460
#
# Poissons Ratio (x) = -0.13325 0.46723
# Poissons Ratio (y) = -0.13296 0.55988
# Poissons Ratio (z) = 0.37404 0.44918
#
# Static dielectric constant tensor:
#      x y z
#    x 2.032280 0.000000 -0.067540 
#    y 0.000000 1.731950 0.000000 
#    z -0.067540 0.000000 2.217250 
# 
# From -- ./inp_files/14184.got.cif
#   From: 2010.05.17/outbox.cif.g08.bks.cpg/sg15_8_cif.got.tgz:14184.got - 2010.06.03 18:47:42.
