data_PCOD9292786
_publ_section_title
;
Structure prediction by ZEFSAII (Michael W. Deem and Ramdas Pophale) SiO2 
 PCOD9292786
Probable space group: C 2/C
;
_chemical_formula_sum "Si O2"
_cell_formula_units_Z 60
_cell_length_a 11.406906
_cell_length_b 16.261055
_cell_length_c 14.182917
_cell_angle_alpha 90.000000
_cell_angle_beta 99.230169
_cell_angle_gamma 90.000000
_cell_volume 2596.702228
_symmetry_space_group_name_H-M "C 2/C"
_symmetry_group_IT_number 15
_symmetry_cell_setting 'monoclinic'
loop_
_space_group_symop_operation_xyz
x,y,z
-x,y,1/2-z
-x,-y,-z
x,-y,1/2+z
1/2+x,1/2+y,z
1/2-x,1/2+y,1/2-z
1/2-x,1/2-y,-z
1/2+x,1/2-y,1/2+z
loop_
_atom_site_type_symbol
_atom_site_label
_atom_site_fract_x
_atom_site_fract_y
_atom_site_fract_z
Si Si1 0.747727 0.166478 0.101250
Si Si2 0.271310 0.111956 0.001919
Si Si3 0.603876 0.534511 0.448429
Si Si4 0.025332 0.593896 0.968405
Si Si5 0.117577 0.320153 0.306045
Si Si6 0.320377 0.331797 0.195791
Si Si7 0.138605 0.357449 0.777413
Si Si8 0.000000 0.033849 0.750000
O O1 0.847419 0.126085 0.047045
O O2 0.620994 0.146989 0.038887
O O3 0.795803 0.257310 0.128178
O O4 0.724408 0.121797 0.200087
O O5 0.397988 0.132500 0.973557
O O6 0.293709 0.122747 0.116015
O O7 0.181553 0.159495 0.918801
O O8 0.221771 0.019940 0.980704
O O9 0.500000 0.500000 0.500000
O O10 0.548223 0.520078 0.339538
O O11 0.071233 0.606647 0.867459
O O12 0.000000 0.500000 0.000000
O O13 0.192211 0.345860 0.225069
O O14 0.000000 0.276129 0.250000
O O15 0.366241 0.241717 0.225476
O O16 0.395721 0.401751 0.257334
O O17 0.000000 0.387572 0.750000
#
# Coordination Sequence:
#
# PCOD9292786 Si02
#       8
#     8   8   8   8   8   8   8   4
#     4  11  26  46  71 106 145 188 244 299 363 446
#     4  11  23  44  67 101 137 187 238 292 357 433
#     4  11  27  46  68 101 140 192 237 300 368 431
#     4  12  24  47  69 104 144 185 247 296 362 431
#     4  11  25  45  76 104 142 191 237 303 366 435
#     4  10  22  44  68 102 139 184 237 292 360 437
#     4  11  22  41  70 102 138 182 233 294 360 424
#     4  10  24  42  68  96 142 178 238 292 354 442
#
# _framework density 23.10623
#
# number of rings (size 3 to 8) (size 9 to 14) (size 15 to 20)
#    0.000    1.067    4.667    0.800    4.667    1.067 
#    9.600    0.000    0.000    0.000    0.000    0.000 
#    0.000    0.000    0.000    0.000    0.000    0.000 
#
# Total GULP energy -167205.786273 kJ/mol
# GULP energy per Si atom -5573.526209 kJ/mol
# Density = 2.305364 g / cm^3
# Si number density = 23.106230 Si / 1000 Ang^3
#
#
#
# Elastic Constant Matrix: (Units=GPa)
#
#
# Indices 1 2 3 4 5 6 
#
# 1 90.1442 13.9474 39.6695 0.0000 6.6611 0.0000
# 2 13.9474 39.3813 23.0538 0.0000 11.4881 0.0000
# 3 39.6695 23.0538 97.1945 0.0000 -5.9437 0.0000
# 4 0.0000 0.0000 0.0000 13.6338 0.0000 -4.1574
# 5 6.6611 11.4881 -5.9437 0.0000 40.1297 0.0000
# 6 0.0000 0.0000 0.0000 -4.1574 0.0000 22.7083
#
#
#
# Elastic Compliance Matrix: (Units=1/GPa)
#
#
# Indices 1 2 3 4 5 6 
#
# 1 0.013929 -0.000745 -0.005688 0.000000 -0.002941 0.000000
# 2 -0.000745 0.033676 -0.008341 0.000000 -0.010752 0.000000
# 3 -0.005688 -0.008341 0.014928 0.000000 0.005543 0.000000
# 4 0.000000 0.000000 0.000000 0.077684 0.000000 0.014222
# 5 -0.002941 -0.010752 0.005543 0.000000 0.029307 0.000000
# 6 0.000000 0.000000 0.000000 0.014222 0.000000 0.046640
#
#
# Mechanical properties :
#
#
# Convention : Reuss Voigt Hill
#
# Bulk Modulus (GPa) = 30.31790 42.22905 36.27348
# Shear Modulus (GPa) = 19.47739 25.29765 22.38752
#
# Velocity S-wave (km/s) = 2.90651 3.31243 3.11609
# Velocity P-wave (km/s) = 4.94098 5.73980 5.35531
#
# Compressibility (1/GPa) = 0.03298382
#
# Stress axis : x y z
#
# Youngs Moduli (GPa) = 71.79168 29.69463 66.98977
#
# Poissons Ratio (x) = 0.02213 0.38105
# Poissons Ratio (y) = 0.05351 0.55876
# Poissons Ratio (z) = 0.40837 0.24768
#
# Static dielectric constant tensor:
#      x y z
#    x 1.681590 0.000000 -0.200520 
#    y 0.000000 1.876350 0.000000 
#    z -0.200520 0.000000 1.763880 
# 
# From -- ./inp_files/146121.got.cif
#   From: 2010.05.17/outbox.cif.g08.bks.cpg/sg15_74_cif.got.tgz:146121.got - 2010.06.03 18:47:42.
