data_PCOD9292523
_publ_section_title
;
Structure prediction by ZEFSAII (Michael W. Deem and Ramdas Pophale) SiO2 
 PCOD9292523
Probable space group: C 2/C
;
_chemical_formula_sum "Si O2"
_cell_formula_units_Z 44
_cell_length_a 8.432048
_cell_length_b 16.273707
_cell_length_c 17.276868
_cell_angle_alpha 90.000000
_cell_angle_beta 125.044772
_cell_angle_gamma 90.000000
_cell_volume 1940.936258
_symmetry_space_group_name_H-M "C 2/C"
_symmetry_group_IT_number 15
_symmetry_cell_setting 'monoclinic'
loop_
_space_group_symop_operation_xyz
x,y,z
-x,y,1/2-z
-x,-y,-z
x,-y,1/2+z
1/2+x,1/2+y,z
1/2-x,1/2+y,1/2-z
1/2-x,1/2-y,-z
1/2+x,1/2-y,1/2+z
loop_
_atom_site_type_symbol
_atom_site_label
_atom_site_fract_x
_atom_site_fract_y
_atom_site_fract_z
Si Si1 0.735596 0.645556 0.582742
Si Si2 0.804128 0.362305 0.800672
Si Si3 0.648994 0.667645 0.936495
Si Si4 0.500000 0.273343 0.250000
Si Si5 0.414100 0.306791 0.621556
Si Si6 0.585037 0.982206 0.938184
O O1 0.576859 0.649555 0.605650
O O2 0.614255 0.681957 0.476311
O O3 0.910876 0.710510 0.641996
O O4 0.813435 0.558658 0.575281
O O5 0.915583 0.289262 0.789736
O O6 0.597324 0.358215 0.701242
O O7 0.767110 0.340715 0.880187
O O8 0.919878 0.446330 0.835044
O O9 0.651305 0.674778 0.843437
O O10 0.750000 0.750000 0.000000
O O11 0.765560 0.591897 0.005055
O O12 0.500000 0.000000 0.000000
#
# Coordination Sequence:
#
# PCOD9292523 Si02
#       6
#     8   8   8   4   8   8
#     4  11  23  46  76 106 147 191 243 312 371 438
#     4  11  23  44  70 108 142 191 245 303 361 447
#     4  12  25  48  77 107 146 199 252 298 375 450
#     4  12  24  44  74 106 138 190 252 296 358 450
#     4  10  22  43  76 104 138 196 252 290 367 447
#     4  12  26  47  71 112 151 191 242 314 377 432
#
# _framework density 22.669471999999999
#
# number of rings (size 3 to 8) (size 9 to 14) (size 15 to 20)
#    0.000    0.727    5.455    1.636    5.091    0.000 
#    3.273    1.818    0.000    0.000    0.000    0.000 
#    0.000    0.000    0.000    0.000    0.000    0.000 
#
# Total GULP energy -122881.081211 kJ/mol
# GULP energy per Si atom -5585.503691 kJ/mol
# Density = 2.261788 g / cm^3
# Si number density = 22.669472 Si / 1000 Ang^3
#
#
#
# Elastic Constant Matrix: (Units=GPa)
#
#
# Indices 1 2 3 4 5 6 
#
# 1 87.0590 48.6453 8.0205 0.0000 5.1879 0.0000
# 2 48.6453 165.8254 29.0309 0.0000 20.9672 0.0000
# 3 8.0205 29.0309 102.8483 0.0000 8.0349 0.0000
# 4 0.0000 0.0000 0.0000 19.0849 0.0000 -13.4972
# 5 5.1879 20.9672 8.0349 0.0000 27.8176 0.0000
# 6 0.0000 0.0000 0.0000 -13.4972 0.0000 23.1894
#
#
#
# Elastic Compliance Matrix: (Units=1/GPa)
#
#
# Indices 1 2 3 4 5 6 
#
# 1 0.013746 -0.004106 0.000047 0.000000 0.000518 0.000000
# 2 -0.004106 0.008134 -0.001593 0.000000 -0.004905 0.000000
# 3 0.000047 -0.001593 0.010308 0.000000 -0.001786 0.000000
# 4 0.000000 0.000000 0.000000 0.089055 0.000000 0.051834
# 5 0.000518 -0.004905 -0.001786 0.000000 0.040065 0.000000
# 6 0.000000 0.000000 0.000000 0.051834 0.000000 0.073293
#
#
# Mechanical properties :
#
#
# Convention : Reuss Voigt Hill
#
# Bulk Modulus (GPa) = 47.88313 58.56958 53.22636
# Shear Modulus (GPa) = 19.77333 32.02078 25.89706
#
# Velocity S-wave (km/s) = 2.95658 3.76241 3.38357
# Velocity P-wave (km/s) = 5.72917 6.69079 6.22857
#
# Compressibility (1/GPa) = 0.02088418
#
# Stress axis : x y z
#
# Youngs Moduli (GPa) = 72.75087 122.94170 97.00759
#
# Poissons Ratio (x) = 0.50479 -0.00452
# Poissons Ratio (y) = 0.29871 0.15449
# Poissons Ratio (z) = -0.00339 0.19579
#
# Static dielectric constant tensor:
#      x y z
#    x 1.896730 0.000000 0.062630 
#    y 0.000000 1.842490 0.000000 
#    z 0.062630 0.000000 1.904860 
# 
# From -- ./inp_files/189346.got.cif
#   From: 2010.05.17/outbox.cif.g08.bks.cpg/sg15_95_cif.got.tgz:189346.got - 2010.06.03 18:47:42.
