data_PCOD9292506
_publ_section_title
;
Structure prediction by ZEFSAII (Michael W. Deem and Ramdas Pophale) SiO2 
 PCOD9292506
Probable space group: C 2/C
;
_chemical_formula_sum "Si O2"
_cell_formula_units_Z 32
_cell_length_a 7.750775
_cell_length_b 17.663534
_cell_length_c 11.553968
_cell_angle_alpha 90.000000
_cell_angle_beta 125.599534
_cell_angle_gamma 90.000000
_cell_volume 1286.177136
_symmetry_space_group_name_H-M "C 2/C"
_symmetry_group_IT_number 15
_symmetry_cell_setting 'monoclinic'
loop_
_space_group_symop_operation_xyz
x,y,z
-x,y,1/2-z
-x,-y,-z
x,-y,1/2+z
1/2+x,1/2+y,z
1/2-x,1/2+y,1/2-z
1/2-x,1/2-y,-z
1/2+x,1/2-y,1/2+z
loop_
_atom_site_type_symbol
_atom_site_label
_atom_site_fract_x
_atom_site_fract_y
_atom_site_fract_z
Si Si1 0.238314 0.481120 0.455414
Si Si2 0.754921 0.540944 0.286293
Si Si3 0.676068 0.308637 0.068817
Si Si4 0.763679 0.703727 0.207125
O O1 0.328035 0.520716 0.374723
O O2 0.321220 0.490285 0.619427
O O3 0.243360 0.392099 0.428124
O O4 0.999062 0.513599 0.373083
O O5 0.738274 0.631809 0.282408
O O6 0.754820 0.279121 0.223497
O O7 0.750000 0.250000 0.000000
O O8 0.419265 0.304162 0.960032
O O9 0.000000 0.699367 0.250000
#
# Coordination Sequence:
#
# PCOD9292506 Si02
#       4
#     8   8   8   8
#     4  10  22  43  74 107 143 203 244 312 380 451
#     4  10  22  43  74 104 156 189 252 310 382 448
#     4  12  27  45  80 109 152 202 262 309 388 458
#     4  12  26  50  72 113 157 202 251 327 379 458
#
# _framework density 24.879933999999999
#
# number of rings (size 3 to 8) (size 9 to 14) (size 15 to 20)
#    0.000    1.000    5.000    1.500    7.000    1.000 
#    4.500    0.000    0.000    0.000    0.000    0.000 
#    0.000    0.000    0.000    0.000    0.000    0.000 
#
# Total GULP energy -89533.439284 kJ/mol
# GULP energy per Si atom -5595.839955 kJ/mol
# Density = 2.482331 g / cm^3
# Si number density = 24.879934 Si / 1000 Ang^3
#
#
#
# Elastic Constant Matrix: (Units=GPa)
#
#
# Indices 1 2 3 4 5 6 
#
# 1 129.5620 5.9381 28.3486 0.0000 -29.9154 0.0000
# 2 5.9381 115.0999 26.0725 0.0000 -0.0020 0.0000
# 3 28.3486 26.0725 180.8510 0.0000 -13.2437 0.0000
# 4 0.0000 0.0000 0.0000 51.1862 0.0000 4.9592
# 5 -29.9154 -0.0020 -13.2437 0.0000 59.1317 0.0000
# 6 0.0000 0.0000 0.0000 4.9592 0.0000 46.7857
#
#
#
# Elastic Compliance Matrix: (Units=1/GPa)
#
#
# Indices 1 2 3 4 5 6 
#
# 1 0.008951 -0.000222 -0.001057 0.000000 0.004292 0.000000
# 2 -0.000222 0.008992 -0.001291 0.000000 -0.000401 0.000000
# 3 -0.001057 -0.001291 0.005939 0.000000 0.000796 0.000000
# 4 0.000000 0.000000 0.000000 0.019739 0.000000 -0.002092
# 5 0.004292 -0.000401 0.000796 0.000000 0.019261 0.000000
# 6 0.000000 0.000000 0.000000 -0.002092 0.000000 0.021596
#
#
# Mechanical properties :
#
#
# Convention : Reuss Voigt Hill
#
# Bulk Modulus (GPa) = 53.35553 60.69238 57.02395
# Shear Modulus (GPa) = 52.15669 55.76431 53.96050
#
# Velocity S-wave (km/s) = 4.58354 4.73941 4.66213
# Velocity P-wave (km/s) = 7.03588 7.37539 7.20764
#
# Compressibility (1/GPa) = 0.01874220
#
# Stress axis : x y z
#
# Youngs Moduli (GPa) = 111.72422 111.21022 168.36676
#
# Poissons Ratio (x) = 0.02473 0.17791
# Poissons Ratio (y) = 0.02484 0.21734
# Poissons Ratio (z) = 0.11806 0.14356
#
# Static dielectric constant tensor:
#      x y z
#    x 1.974170 0.000000 0.018900 
#    y 0.000000 1.890500 0.000000 
#    z 0.018900 0.000000 1.912590 
# 
# From -- ./inp_files/76513.got.cif
#   From: 2010.05.17/outbox.cif.g08.bks.cpg/sg15_39_cif.got.tgz:76513.got - 2010.06.03 18:47:42.
