data_PCOD9292329
_publ_section_title
;
Structure prediction by ZEFSAII (Michael W. Deem and Ramdas Pophale) SiO2 
 PCOD9292329
Probable space group: C 2/C
;
_chemical_formula_sum "Si O2"
_cell_formula_units_Z 36
_cell_length_a 11.273715
_cell_length_b 22.186408
_cell_length_c 14.271597
_cell_angle_alpha 90.000000
_cell_angle_beta 28.501165
_cell_angle_gamma 90.000000
_cell_volume 1703.357415
_symmetry_space_group_name_H-M "C 2/C"
_symmetry_group_IT_number 15
_symmetry_cell_setting 'monoclinic'
loop_
_space_group_symop_operation_xyz
x,y,z
-x,y,1/2-z
-x,-y,-z
x,-y,1/2+z
1/2+x,1/2+y,z
1/2-x,1/2+y,1/2-z
1/2-x,1/2-y,-z
1/2+x,1/2-y,1/2+z
loop_
_atom_site_type_symbol
_atom_site_label
_atom_site_fract_x
_atom_site_fract_y
_atom_site_fract_z
Si Si1 0.000000 0.397479 0.250000
Si Si2 0.666121 0.657873 0.715219
Si Si3 0.571606 0.062862 0.495539
Si Si4 0.025992 0.846554 0.837333
Si Si5 0.746733 0.795484 0.638294
O O1 0.033163 0.437411 0.133974
O O2 0.748578 0.357215 0.429320
O O3 0.500000 0.628659 0.750000
O O4 0.758102 0.723423 0.616797
O O5 0.882629 0.614533 0.593906
O O6 0.476985 0.672781 0.928869
O O7 0.836802 0.089281 0.277853
O O8 0.500000 0.000000 0.500000
O O9 0.000000 0.818971 0.750000
O O10 0.200465 0.810733 0.789331
O O11 0.500000 0.814564 0.750000
#
# Coordination Sequence:
#
# PCOD9292329 Si02
#       5
#     4   8   8   8   8
#     4  10  22  46  64  94 132 178 218 274 334 398
#     4  11  22  40  67 100 134 174 222 278 341 398
#     4  11  24  44  67  95 134 174 230 277 330 400
#     4  10  22  43  69  98 137 176 223 271 336 401
#     4  11  21  41  68 102 139 171 224 280 335 407
#
# _framework density 21.134730000000001
#
# number of rings (size 3 to 8) (size 9 to 14) (size 15 to 20)
#    0.000    1.333    2.222    5.333    0.000    3.556 
#    8.000    3.333    0.000    0.000    0.000    0.000 
#    0.000    0.000    0.000    0.000    0.000    0.000 
#
# Total GULP energy -100459.070647 kJ/mol
# GULP energy per Si atom -5581.059480 kJ/mol
# Density = 2.108663 g / cm^3
# Si number density = 21.134730 Si / 1000 Ang^3
#
#
#
# Elastic Constant Matrix: (Units=GPa)
#
#
# Indices 1 2 3 4 5 6 
#
# 1 163.4195 33.2794 46.9760 -0.0055 -1.9258 0.0090
# 2 33.2794 57.8059 26.9361 0.0175 -17.6770 0.0072
# 3 46.9760 26.9361 138.7403 0.0087 -25.6767 0.0092
# 4 -0.0055 0.0175 0.0087 24.1958 -0.0134 -15.6329
# 5 -1.9258 -17.6770 -25.6767 -0.0134 34.9735 0.0262
# 6 0.0090 0.0072 0.0092 -15.6329 0.0262 36.8899
#
#
#
# Elastic Compliance Matrix: (Units=1/GPa)
#
#
# Indices 1 2 3 4 5 6 
#
# 1 0.007659 -0.004377 -0.002401 0.000007 -0.003553 0.000005
# 2 -0.004377 0.023667 -0.001092 -0.000026 0.010920 -0.000022
# 3 -0.002401 -0.001092 0.009381 -0.000005 0.006203 -0.000008
# 4 0.000007 -0.000026 -0.000005 0.056912 -0.000013 0.024118
# 5 -0.003553 0.010920 0.006203 -0.000013 0.038471 -0.000036
# 6 0.000005 -0.000022 -0.000008 0.024118 -0.000036 0.037328
#
#
# Mechanical properties :
#
#
# Convention : Reuss Voigt Hill
#
# Bulk Modulus (GPa) = 40.05363 63.81652 51.93507
# Shear Modulus (GPa) = 25.31901 36.06346 30.69124
#
# Velocity S-wave (km/s) = 3.46494 4.13529 3.81487
# Velocity P-wave (km/s) = 5.91612 7.28433 6.63558
#
# Compressibility (1/GPa) = 0.02496653
#
# Stress axis : x y z
#
# Youngs Moduli (GPa) = 130.56678 42.25240 106.60229
#
# Poissons Ratio (x) = 0.18494 0.25596
# Poissons Ratio (y) = 0.57151 0.11641
# Poissons Ratio (z) = 0.31350 0.04614
#
# Static dielectric constant tensor:
#      x y z
#    x 1.815670 0.000000 0.031100 
#    y 0.000000 1.700440 0.000000 
#    z 0.031100 0.000000 1.813900 
# 
# From -- ./inp_files/146976.got.cif
#   From: 2010.05.17/outbox.cif.g08.bks.cpg/sg15_74_cif.got.tgz:146976.got - 2010.06.03 18:47:42.
