data_PCOD9292746
_publ_section_title
;
Structure prediction by ZEFSAII (Michael W. Deem and Ramdas Pophale) SiO2 
 PCOD9292746
Probable space group: C 2/C
;
_chemical_formula_sum "Si O2"
_cell_formula_units_Z 36
_cell_length_a 7.044466
_cell_length_b 21.332523
_cell_length_c 11.795165
_cell_angle_alpha 90.000000
_cell_angle_beta 125.658371
_cell_angle_gamma 90.000000
_cell_volume 1440.195958
_symmetry_space_group_name_H-M "C 2/C"
_symmetry_group_IT_number 15
_symmetry_cell_setting 'monoclinic'
loop_
_space_group_symop_operation_xyz
x,y,z
-x,y,1/2-z
-x,-y,-z
x,-y,1/2+z
1/2+x,1/2+y,z
1/2-x,1/2+y,1/2-z
1/2-x,1/2-y,-z
1/2+x,1/2-y,1/2+z
loop_
_atom_site_type_symbol
_atom_site_label
_atom_site_fract_x
_atom_site_fract_y
_atom_site_fract_z
Si Si1 0.179532 0.593588 0.590956
Si Si2 0.171041 0.540513 0.203132
Si Si3 0.538321 0.649119 0.137184
Si Si4 0.619625 0.336793 0.144628
Si Si5 0.000000 0.722885 0.250000
O O1 0.210162 0.524545 0.653848
O O2 0.182041 0.640985 0.698634
O O3 0.405773 0.615229 0.598283
O O4 0.958853 0.587722 0.430485
O O5 0.399768 0.575756 0.327655
O O6 0.000000 0.529752 0.250000
O O7 0.500000 0.674624 0.250000
O O8 0.770246 0.681206 0.167543
O O9 0.342245 0.660355 0.975434
O O10 0.531072 0.269124 0.154255
#
# Coordination Sequence:
#
# PCOD9292746 Si02
#       5
#     8   8   8   8   4
#     4   9  21  38  63  92 124 178 211 259 328 383
#     4  11  21  39  62  94 137 168 215 268 326 388
#     4  12  25  40  67 101 127 175 221 271 322 390
#     4  10  22  44  67  93 132 176 217 271 327 390
#     4  10  22  46  70  92 134 172 218 274 332 380
#
# _framework density 24.996599
#
# number of rings (size 3 to 8) (size 9 to 14) (size 15 to 20)
#    0.000    1.778    3.333    0.667    3.111    7.111 
#    0.000    4.444    0.000    0.000    0.000    0.000 
#    0.000    0.000    0.000    0.000    0.000    0.000 
#
# Total GULP energy -100758.909600 kJ/mol
# GULP energy per Si atom -5597.717200 kJ/mol
# Density = 2.493971 g / cm^3
# Si number density = 24.996599 Si / 1000 Ang^3
#
#
#
# Elastic Constant Matrix: (Units=GPa)
#
#
# Indices 1 2 3 4 5 6 
#
# 1 85.9574 24.3449 43.7791 0.0000 -4.1006 0.0000
# 2 24.3449 80.7954 19.4027 0.0000 -12.1035 0.0000
# 3 43.7791 19.4027 169.2961 0.0000 -31.3741 0.0000
# 4 0.0000 0.0000 0.0000 14.2495 0.0000 3.7012
# 5 -4.1006 -12.1035 -31.3741 0.0000 39.2137 0.0000
# 6 0.0000 0.0000 0.0000 3.7012 0.0000 8.8087
#
#
#
# Elastic Compliance Matrix: (Units=1/GPa)
#
#
# Indices 1 2 3 4 5 6 
#
# 1 0.014549 -0.003875 -0.003825 0.000000 -0.002735 0.000000
# 2 -0.003875 0.014120 0.000137 0.000000 0.004062 0.000000
# 3 -0.003825 0.000137 0.008000 0.000000 0.006043 0.000000
# 4 0.000000 0.000000 0.000000 0.078775 0.000000 -0.033099
# 5 -0.002735 0.004062 0.006043 0.000000 0.031304 0.000000
# 6 0.000000 0.000000 0.000000 -0.033099 0.000000 0.127432
#
#
# Mechanical properties :
#
#
# Convention : Reuss Voigt Hill
#
# Bulk Modulus (GPa) = 46.41972 56.78914 51.60443
# Shear Modulus (GPa) = 16.86408 29.02253 22.94331
#
# Velocity S-wave (km/s) = 2.60023 3.41113 3.03290
# Velocity P-wave (km/s) = 5.25601 6.18728 5.74056
#
# Compressibility (1/GPa) = 0.02154257
#
# Stress axis : x y z
#
# Youngs Moduli (GPa) = 68.73444 70.82019 124.99753
#
# Poissons Ratio (x) = 0.27442 0.47811
# Poissons Ratio (y) = 0.26634 -0.01707
# Poissons Ratio (z) = 0.26291 -0.00967
#
# Static dielectric constant tensor:
#      x y z
#    x 1.989250 0.000000 -0.013750 
#    y 0.000000 1.916270 0.000000 
#    z -0.013750 0.000000 2.031390 
# 
# From -- ./inp_files/77994.got.cif
#   From: 2010.05.17/outbox.cif.g08.bks.cpg/sg15_39_cif.got.tgz:77994.got - 2010.06.03 18:47:42.
