data_PCOD9292966
_publ_section_title
;
Structure prediction by ZEFSAII (Michael W. Deem and Ramdas Pophale) SiO2 
 PCOD9292966
Probable space group: C 2/C
;
_chemical_formula_sum "Si O2"
_cell_formula_units_Z 36
_cell_length_a 7.945125
_cell_length_b 22.860079
_cell_length_c 8.718988
_cell_angle_alpha 90.000000
_cell_angle_beta 61.885714
_cell_angle_gamma 90.000000
_cell_volume 1396.747020
_symmetry_space_group_name_H-M "C 2/C"
_symmetry_group_IT_number 15
_symmetry_cell_setting 'monoclinic'
loop_
_space_group_symop_operation_xyz
x,y,z
-x,y,1/2-z
-x,-y,-z
x,-y,1/2+z
1/2+x,1/2+y,z
1/2-x,1/2+y,1/2-z
1/2-x,1/2-y,-z
1/2+x,1/2-y,1/2+z
loop_
_atom_site_type_symbol
_atom_site_label
_atom_site_fract_x
_atom_site_fract_y
_atom_site_fract_z
Si Si1 0.500000 0.977516 0.250000
Si Si2 0.040948 0.684189 0.911399
Si Si3 0.668669 0.392764 0.066691
Si Si4 0.820022 0.805462 0.716318
Si Si5 0.212376 0.973601 0.615632
O O1 0.661195 0.945319 0.075555
O O2 0.635933 0.014917 0.310251
O O3 0.143635 0.626994 0.926833
O O4 0.168807 0.742694 0.871082
O O5 0.000000 0.679601 0.750000
O O6 0.500000 0.372191 0.250000
O O7 0.661797 0.462429 0.066696
O O8 0.672498 0.358315 0.906480
O O9 0.639718 0.807009 0.903737
O O10 0.000000 0.808872 0.750000
O O11 0.000000 0.949619 0.750000
#
# Coordination Sequence:
#
# PCOD9292966 Si02
#       5
#     4   8   8   8   8
#     4  10  22  44  70  94 130 166 210 260 328 392
#     4  11  22  37  61  84 123 164 207 257 309 369
#     4  11  23  39  59  90 124 159 208 256 308 372
#     4  11  22  39  58  87 122 166 209 254 312 364
#     4  10  23  42  68  97 130 165 212 260 327 382
#
# _framework density 25.774173000000001
#
# number of rings (size 3 to 8) (size 9 to 14) (size 15 to 20)
#    0.000    1.333    0.000    7.333    4.667    0.000 
#    0.000    1.111    0.000    0.000    0.000    0.000 
#    0.000    0.000    0.000    0.000    0.000    0.000 
#
# Total GULP energy -100847.443775 kJ/mol
# GULP energy per Si atom -5602.635765 kJ/mol
# Density = 2.571551 g / cm^3
# Si number density = 25.774173 Si / 1000 Ang^3
#
#
#
# Elastic Constant Matrix: (Units=GPa)
#
#
# Indices 1 2 3 4 5 6 
#
# 1 113.6787 -3.1596 68.6114 0.0000 -47.5134 0.0000
# 2 -3.1596 91.7927 21.5288 0.0000 -12.5657 0.0000
# 3 68.6114 21.5288 205.0046 0.0000 -45.0096 0.0000
# 4 0.0000 0.0000 0.0000 24.9222 0.0000 -18.4467
# 5 -47.5134 -12.5657 -45.0096 0.0000 80.2877 0.0000
# 6 0.0000 0.0000 0.0000 -18.4467 0.0000 -9.1015
#
#
#
# Elastic Compliance Matrix: (Units=1/GPa)
#
#
# Indices 1 2 3 4 5 6 
#
# 1 0.013595 0.002143 -0.003347 0.000000 0.006505 0.000000
# 2 0.002143 0.011617 -0.001436 0.000000 0.002281 0.000000
# 3 -0.003347 -0.001436 0.006460 0.000000 0.001416 0.000000
# 4 0.000000 0.000000 0.000000 0.016049 0.000000 -0.032527
# 5 0.006505 0.002281 0.001416 0.000000 0.017455 0.000000
# 6 0.000000 0.000000 0.000000 -0.032527 0.000000 -0.043946
#
#
# Mechanical properties :
#
#
# Convention : Reuss Voigt Hill
#
# Bulk Modulus (GPa) = 37.89063 64.93747 51.41405
# Shear Modulus (GPa) = 141.61183 40.78804 91.19994
#
# Velocity S-wave (km/s) = 7.42042 3.98240 5.95492
# Velocity P-wave (km/s) = 9.38881 6.81142 8.20199
#
# Compressibility (1/GPa) = 0.02639175
#
# Stress axis : x y z
#
# Youngs Moduli (GPa) = 73.55618 86.08008 154.80269
#
# Poissons Ratio (x) = -0.18450 0.51813
# Poissons Ratio (y) = -0.15766 0.22237
# Poissons Ratio (z) = 0.24619 0.12365
#
# Static dielectric constant tensor:
#      x y z
#    x 2.013210 0.000000 0.032670 
#    y 0.000000 2.010200 0.000000 
#    z 0.032670 0.000000 1.984990 
# 
# From -- ./inp_files/77342.got.cif
#   From: 2010.05.17/outbox.cif.g08.bks.cpg/sg15_39_cif.got.tgz:77342.got - 2010.06.03 18:47:42.
