data_PCOD9292921
_publ_section_title
;
Structure prediction by ZEFSAII (Michael W. Deem and Ramdas Pophale) SiO2 
 PCOD9292921
Probable space group: C 2/C
;
_chemical_formula_sum "Si O2"
_cell_formula_units_Z 28
_cell_length_a 20.730340
_cell_length_b 5.045867
_cell_length_c 11.050471
_cell_angle_alpha 90.000000
_cell_angle_beta 112.883717
_cell_angle_gamma 90.000000
_cell_volume 1064.932736
_symmetry_space_group_name_H-M "C 2/C"
_symmetry_group_IT_number 15
_symmetry_cell_setting 'monoclinic'
loop_
_space_group_symop_operation_xyz
x,y,z
-x,y,1/2-z
-x,-y,-z
x,-y,1/2+z
1/2+x,1/2+y,z
1/2-x,1/2+y,1/2-z
1/2-x,1/2-y,-z
1/2+x,1/2-y,1/2+z
loop_
_atom_site_type_symbol
_atom_site_label
_atom_site_fract_x
_atom_site_fract_y
_atom_site_fract_z
Si Si1 0.256183 0.028119 0.668038
Si Si2 0.452052 0.238259 0.934095
Si Si3 0.857905 0.240109 0.559703
Si Si4 0.000000 0.020066 0.250000
O O1 0.245133 0.816697 0.770927
O O2 0.193362 0.997650 0.521419
O O3 0.320618 0.915082 0.633680
O O4 0.450992 0.284019 0.791733
O O5 0.500000 0.500000 0.000000
O O6 0.378816 0.158786 0.940651
O O7 0.500000 0.000000 0.000000
O O8 0.936917 0.162140 0.654537
#
# Coordination Sequence:
#
# PCOD9292921 Si02
#       4
#     8   8   8   4
#     4  11  26  46  68  96 135 179 224 272 327 395
#     4  10  23  40  64  98 133 170 213 266 329 391
#     4  10  24  44  70 100 133 176 223 273 333 393
#     4  10  22  44  70 100 136 170 218 278 334 394
#
# _framework density 26.292740999999999
#
# number of rings (size 3 to 8) (size 9 to 14) (size 15 to 20)
#    0.000    1.714    0.000    1.714    0.000   25.143 
#    0.000    0.000    0.000    0.000    0.000    0.000 
#    0.000    0.000    0.000    0.000    0.000    0.000 
#
# Total GULP energy -77940.215937 kJ/mol
# GULP energy per Si atom -5567.158281 kJ/mol
# Density = 2.623290 g / cm^3
# Si number density = 26.292741 Si / 1000 Ang^3
#
#
#
# Elastic Constant Matrix: (Units=GPa)
#
#
# Indices 1 2 3 4 5 6 
#
# 1 168.6059 -2.5551 43.3281 0.0000 -13.6795 0.0000
# 2 -2.5551 118.5626 15.6047 0.0000 5.6665 0.0000
# 3 43.3281 15.6047 52.7005 0.0000 10.8339 0.0000
# 4 0.0000 0.0000 0.0000 29.7028 0.0000 4.1016
# 5 -13.6795 5.6665 10.8339 0.0000 80.0632 0.0000
# 6 0.0000 0.0000 0.0000 4.1016 0.0000 23.7728
#
#
#
# Elastic Compliance Matrix: (Units=1/GPa)
#
#
# Indices 1 2 3 4 5 6 
#
# 1 0.008030 0.001035 -0.007380 0.000000 0.002297 0.000000
# 2 0.001035 0.008916 -0.003494 0.000000 0.000019 0.000000
# 3 -0.007380 -0.003494 0.027038 0.000000 -0.004672 0.000000
# 4 0.000000 0.000000 0.000000 0.034489 0.000000 -0.005950
# 5 0.002297 0.000019 -0.004672 0.000000 0.013514 0.000000
# 6 0.000000 0.000000 0.000000 -0.005950 0.000000 0.043092
#
#
# Mechanical properties :
#
#
# Convention : Reuss Voigt Hill
#
# Bulk Modulus (GPa) = 41.14660 50.29161 45.71911
# Shear Modulus (GPa) = 30.70155 45.60718 38.15436
#
# Velocity S-wave (km/s) = 3.42084 4.16936 3.81351
# Velocity P-wave (km/s) = 5.59341 6.50747 6.06768
#
# Compressibility (1/GPa) = 0.02430335
#
# Stress axis : x y z
#
# Youngs Moduli (GPa) = 124.53871 112.16188 36.98487
#
# Poissons Ratio (x) = -0.11604 0.27296
# Poissons Ratio (y) = -0.12885 0.12924
# Poissons Ratio (z) = 0.91913 0.39194
#
# Static dielectric constant tensor:
#      x y z
#    x 2.020520 0.000000 -0.133290 
#    y 0.000000 2.158510 0.000000 
#    z -0.133290 0.000000 2.744220 
# 
# From -- ./inp_files/108812.got.cif
#   From: 2010.05.17/outbox.cif.g08.bks.cpg/sg15_55_cif.got.tgz:108812.got - 2010.06.03 18:47:42.
