data_PCOD9292359
_publ_section_title
;
Structure prediction by ZEFSAII (Michael W. Deem and Ramdas Pophale) SiO2 
 PCOD9292359
Probable space group: C 2/C
;
_chemical_formula_sum "Si O2"
_cell_formula_units_Z 64
_cell_length_a 18.122736
_cell_length_b 29.516135
_cell_length_c 8.479501
_cell_angle_alpha 90.000000
_cell_angle_beta 36.559873
_cell_angle_gamma 90.000000
_cell_volume 2701.803692
_symmetry_space_group_name_H-M "C 2/C"
_symmetry_group_IT_number 15
_symmetry_cell_setting 'monoclinic'
loop_
_space_group_symop_operation_xyz
x,y,z
-x,y,1/2-z
-x,-y,-z
x,-y,1/2+z
1/2+x,1/2+y,z
1/2-x,1/2+y,1/2-z
1/2-x,1/2-y,-z
1/2+x,1/2-y,1/2+z
loop_
_atom_site_type_symbol
_atom_site_label
_atom_site_fract_x
_atom_site_fract_y
_atom_site_fract_z
Si Si1 0.629223 0.299980 0.609413
Si Si2 0.753530 0.539166 0.737428
Si Si3 0.755643 0.192334 0.912377
Si Si4 0.827903 0.102597 0.341022
Si Si5 0.965565 0.752090 0.132129
Si Si6 0.456577 0.547731 0.643991
Si Si7 0.106389 0.607333 0.156179
Si Si8 0.868456 0.559007 0.056802
O O1 0.500000 0.315010 0.750000
O O2 0.719258 0.287831 0.307995
O O3 0.683462 0.344708 0.597652
O O4 0.578025 0.260732 0.816346
O O5 0.679198 0.547280 0.701356
O O6 0.877159 0.567104 0.496834
O O7 0.790934 0.487858 0.710341
O O8 0.686969 0.566426 0.990487
O O9 0.885747 0.201645 0.772002
O O10 0.644390 0.215048 0.205461
O O11 0.723638 0.140321 0.951529
O O12 0.722596 0.088875 0.396067
O O13 0.965715 0.090913 0.046756
O O14 0.000000 0.742172 0.250000
O O15 0.500000 0.544565 0.750000
O O16 0.500000 0.500000 0.500000
O O17 0.096653 0.586807 0.346141
O O18 0.000000 0.635929 0.250000
O O19 0.000000 0.548048 0.750000
#
# Coordination Sequence:
#
# PCOD9292359 Si02
#       8
#     8   8   8   8   8   8   8   8
#     4  10  22  43  70 105 144 185 229 286 367 434
#     4  12  24  45  69  98 139 195 240 296 355 416
#     4  10  23  47  72 105 145 183 239 283 369 446
#     4  12  24  42  70 101 139 187 238 301 357 428
#     4  10  23  43  74 110 139 182 228 299 362 440
#     4  12  25  41  62  98 138 184 240 300 361 420
#     4  12  26  46  71  96 138 193 237 295 354 427
#     4  12  28  45  64 100 141 187 253 300 348 418
#
# _framework density 23.687881000000001
#
# number of rings (size 3 to 8) (size 9 to 14) (size 15 to 20)
#    0.000    0.750    2.500    4.875    3.500    2.500 
#    0.000    3.125    0.000    0.000    0.000    0.000 
#    0.000    0.000    0.000    0.000    0.000    0.000 
#
# Total GULP energy -178488.654617 kJ/mol
# GULP energy per Si atom -5577.770457 kJ/mol
# Density = 2.363397 g / cm^3
# Si number density = 23.687881 Si / 1000 Ang^3
#
#
#
# Elastic Constant Matrix: (Units=GPa)
#
#
# Indices 1 2 3 4 5 6 
#
# 1 118.8532 28.5480 23.5157 0.0000 7.2946 0.0000
# 2 28.5480 83.3998 38.6693 0.0000 10.7648 0.0000
# 3 23.5157 38.6693 105.8418 0.0000 20.6753 0.0000
# 4 0.0000 0.0000 0.0000 28.5154 0.0000 2.2667
# 5 7.2946 10.7648 20.6753 0.0000 39.0120 0.0000
# 6 0.0000 0.0000 0.0000 2.2667 0.0000 22.9098
#
#
#
# Elastic Compliance Matrix: (Units=1/GPa)
#
#
# Indices 1 2 3 4 5 6 
#
# 1 0.009277 -0.002651 -0.001000 0.000000 -0.000473 0.000000
# 2 -0.002651 0.015255 -0.004751 0.000000 -0.001196 0.000000
# 3 -0.001000 -0.004751 0.012397 0.000000 -0.005072 0.000000
# 4 0.000000 0.000000 0.000000 0.035347 0.000000 -0.003497
# 5 -0.000473 -0.001196 -0.005072 0.000000 0.028740 0.000000
# 6 0.000000 0.000000 0.000000 -0.003497 0.000000 0.043996
#
#
# Mechanical properties :
#
#
# Convention : Reuss Voigt Hill
#
# Bulk Modulus (GPa) = 49.68889 54.39564 52.04227
# Shear Modulus (GPa) = 29.66946 32.57823 31.12384
#
# Velocity S-wave (km/s) = 3.54293 3.71254 3.62873
# Velocity P-wave (km/s) = 6.14480 6.43356 6.29083
#
# Compressibility (1/GPa) = 0.02012522
#
# Stress axis : x y z
#
# Youngs Moduli (GPa) = 107.78873 65.55240 80.66587
#
# Poissons Ratio (x) = 0.17377 0.08069
# Poissons Ratio (y) = 0.28573 0.38323
# Poissons Ratio (z) = 0.10783 0.31143
#
# Static dielectric constant tensor:
#      x y z
#    x 1.773260 0.000000 0.066940 
#    y 0.000000 1.885170 0.000000 
#    z 0.066940 0.000000 1.968730 
# 
# From -- ./inp_files/52798.got.cif
#   From: 2010.05.17/outbox.cif.g08.bks.cpg/sg15_27_cif.got.tgz:52798.got - 2010.06.03 18:47:42.
