data_PCOD9292530
_publ_section_title
;
Structure prediction by ZEFSAII (Michael W. Deem and Ramdas Pophale) SiO2 
 PCOD9292530
Probable space group: C 2/C
;
_chemical_formula_sum "Si O2"
_cell_formula_units_Z 56
_cell_length_a 10.445556
_cell_length_b 11.997220
_cell_length_c 15.999627
_cell_angle_alpha 90.000000
_cell_angle_beta 92.003672
_cell_angle_gamma 90.000000
_cell_volume 2003.809488
_symmetry_space_group_name_H-M "C 2/C"
_symmetry_group_IT_number 15
_symmetry_cell_setting 'monoclinic'
loop_
_space_group_symop_operation_xyz
x,y,z
-x,y,1/2-z
-x,-y,-z
x,-y,1/2+z
1/2+x,1/2+y,z
1/2-x,1/2+y,1/2-z
1/2-x,1/2-y,-z
1/2+x,1/2-y,1/2+z
loop_
_atom_site_type_symbol
_atom_site_label
_atom_site_fract_x
_atom_site_fract_y
_atom_site_fract_z
Si Si1 0.458892 0.582848 0.909902
Si Si2 0.910353 0.244938 0.055187
Si Si3 0.237776 0.922956 0.427161
Si Si4 0.276567 0.136194 0.321775
Si Si5 0.167558 0.489380 0.407144
Si Si6 0.000000 0.560161 0.750000
Si Si7 0.849946 0.758353 0.827254
Si Si8 0.500000 0.711957 0.750000
O O1 0.594680 0.532587 0.948385
O O2 0.317711 0.532523 0.888230
O O3 0.520350 0.625766 0.825169
O O4 0.430948 0.688153 0.968060
O O5 0.789670 0.200112 0.103406
O O6 0.893315 0.377010 0.055376
O O7 0.031100 0.209423 0.113668
O O8 0.320941 0.926586 0.514580
O O9 0.249623 0.799133 0.388500
O O10 0.292786 0.014490 0.362408
O O11 0.392794 0.207982 0.287213
O O12 0.425142 0.007968 0.175201
O O13 0.314695 0.645864 0.261532
O O14 0.106706 0.652028 0.726454
#
# Coordination Sequence:
#
# PCOD9292530 Si02
#       8
#     8   8   8   8   8   4   8   4
#     4  12  24  46  77 121 155 209 264 341 399 479
#     4  11  23  45  83 100 162 214 262 322 408 486
#     4  12  28  44  77 119 164 205 271 338 404 484
#     4  12  23  50  75 114 153 218 264 329 409 475
#     4  11  22  45  76 112 152 212 270 324 410 472
#     4  10  22  43  77 100 152 218 252 327 385 486
#     4  11  23  49  70 114 158 210 265 327 399 480
#     4  12  24  45  79 104 162 206 264 331 393 486
#
# _framework density 27.946767999999999
#
# number of rings (size 3 to 8) (size 9 to 14) (size 15 to 20)
#    0.000    0.571    7.143    1.714    0.000    3.429 
#    5.143    0.000    0.000    0.000    0.000    0.000 
#    0.000    0.000    0.000    0.000    0.000    0.000 
#
# Total GULP energy -156665.911542 kJ/mol
# GULP energy per Si atom -5595.211127 kJ/mol
# Density = 2.788316 g / cm^3
# Si number density = 27.946768 Si / 1000 Ang^3
#
#
#
# Elastic Constant Matrix: (Units=GPa)
#
#
# Indices 1 2 3 4 5 6 
#
# 1 126.3423 -13.7735 23.9400 0.0000 12.8035 0.0000
# 2 -13.7735 43.8959 23.1480 0.0000 10.3005 0.0000
# 3 23.9400 23.1480 125.6375 0.0000 30.4358 0.0000
# 4 0.0000 0.0000 0.0000 -7.7282 0.0000 -21.1492
# 5 12.8035 10.3005 30.4358 0.0000 62.5576 0.0000
# 6 0.0000 0.0000 0.0000 -21.1492 0.0000 27.9797
#
#
#
# Elastic Compliance Matrix: (Units=1/GPa)
#
#
# Indices 1 2 3 4 5 6 
#
# 1 0.008936 0.004278 -0.002128 0.000000 -0.001498 0.000000
# 2 0.004278 0.027537 -0.005190 0.000000 -0.002885 0.000000
# 3 -0.002128 -0.005190 0.010212 0.000000 -0.003678 0.000000
# 4 0.000000 0.000000 0.000000 -0.042168 0.000000 -0.031874
# 5 -0.001498 -0.002885 -0.003678 0.000000 0.018556 0.000000
# 6 0.000000 0.000000 0.000000 -0.031874 0.000000 0.011647
#
#
# Mechanical properties :
#
#
# Convention : Reuss Voigt Hill
#
# Bulk Modulus (GPa) = 24.62725 40.27830 32.45278
# Shear Modulus (GPa) = 92.01889 34.06589 63.04239
#
# Velocity S-wave (km/s) = 5.74439 3.49514 4.75468
# Velocity P-wave (km/s) = 7.26833 5.54363 6.46376
#
# Compressibility (1/GPa) = 0.04060543
#
# Stress axis : x y z
#
# Youngs Moduli (GPa) = 111.90187 36.31452 97.92198
#
# Poissons Ratio (x) = -0.15535 0.20839
# Poissons Ratio (y) = -0.47869 0.50820
# Poissons Ratio (z) = 0.23814 0.18847
#
# Static dielectric constant tensor:
#      x y z
#    x 2.309860 0.000000 0.022270 
#    y 0.000000 2.129630 0.000000 
#    z 0.022270 0.000000 2.212050 
# 
# From -- ./inp_files/237575.got.cif
#   From: 2010.05.17/outbox.cif.g08.bks.cpg/sg15_119_cif.got.tgz:237575.got - 2010.06.03 18:47:42.
