data_PCOD9292094
_publ_section_title
;
Structure prediction by ZEFSAII (Michael W. Deem and Ramdas Pophale) SiO2 
 PCOD9292094
Probable space group: C 2/C
;
_chemical_formula_sum "Si O2"
_cell_formula_units_Z 56
_cell_length_a 18.475308
_cell_length_b 12.846689
_cell_length_c 13.869468
_cell_angle_alpha 90.000000
_cell_angle_beta 120.870926
_cell_angle_gamma 90.000000
_cell_volume 2825.495746
_symmetry_space_group_name_H-M "C 2/C"
_symmetry_group_IT_number 15
_symmetry_cell_setting 'monoclinic'
loop_
_space_group_symop_operation_xyz
x,y,z
-x,y,1/2-z
-x,-y,-z
x,-y,1/2+z
1/2+x,1/2+y,z
1/2-x,1/2+y,1/2-z
1/2-x,1/2-y,-z
1/2+x,1/2-y,1/2+z
loop_
_atom_site_type_symbol
_atom_site_label
_atom_site_fract_x
_atom_site_fract_y
_atom_site_fract_z
Si Si1 0.331314 0.509936 0.699321
Si Si2 0.185697 0.226880 0.368869
Si Si3 0.738301 0.893803 0.956975
Si Si4 0.000000 0.889491 0.250000
Si Si5 0.000000 0.312167 0.250000
Si Si6 0.443972 0.913229 0.411554
Si Si7 0.274031 0.067626 0.705843
Si Si8 0.109671 0.251088 0.964043
O O1 0.309600 0.390312 0.665030
O O2 0.276101 0.578211 0.587193
O O3 0.426837 0.537847 0.741224
O O4 0.309018 0.543483 0.791578
O O5 0.250000 0.250000 0.500000
O O6 0.087226 0.249348 0.325762
O O7 0.212569 0.311736 0.307947
O O8 0.652610 0.831207 0.917329
O O9 0.724137 0.998977 0.888745
O O10 0.810209 0.823019 0.955204
O O11 0.959251 0.817553 0.138836
O O12 0.016946 0.377780 0.164138
O O13 0.353211 0.962947 0.325848
O O14 0.427743 0.815591 0.472100
O O15 0.500000 0.000000 0.500000
#
# Coordination Sequence:
#
# PCOD9292094 Si02
#       8
#     8   8   8   4   4   8   8   8
#     4  11  23  45  67  99 134 170 231 269 334 412
#     4  11  24  44  70  96 138 182 221 281 344 395
#     4  10  22  43  66  94 132 171 225 281 311 408
#     4  10  25  43  70  96 132 182 211 287 336 382
#     4  10  27  43  60 100 136 170 227 279 334 398
#     4  11  26  41  64  97 134 174 223 281 333 403
#     4  11  25  40  71  96 128 181 220 273 344 395
#     4  10  23  43  66  96 132 172 223 271 335 385
#
# _framework density 19.819531999999999
#
# number of rings (size 3 to 8) (size 9 to 14) (size 15 to 20)
#    0.000    1.429    2.857    0.429   12.000    1.143 
#    0.000    1.429    0.000    0.000    0.000    0.000 
#    0.000    0.000    0.000    0.000    0.000    0.000 
#
# Total GULP energy -156393.545760 kJ/mol
# GULP energy per Si atom -5585.483777 kJ/mol
# Density = 1.977442 g / cm^3
# Si number density = 19.819532 Si / 1000 Ang^3
#
#
#
# Elastic Constant Matrix: (Units=GPa)
#
#
# Indices 1 2 3 4 5 6 
#
# 1 98.8647 45.4783 28.4238 0.0000 -7.4642 0.0000
# 2 45.4783 113.3744 21.1100 0.0000 -6.7411 0.0000
# 3 28.4238 21.1100 69.3840 0.0000 4.3855 0.0000
# 4 0.0000 0.0000 0.0000 25.4586 0.0000 -3.0307
# 5 -7.4642 -6.7411 4.3855 0.0000 27.2518 0.0000
# 6 0.0000 0.0000 0.0000 -3.0307 0.0000 15.0564
#
#
#
# Elastic Compliance Matrix: (Units=1/GPa)
#
#
# Indices 1 2 3 4 5 6 
#
# 1 0.013709 -0.004466 -0.004470 0.000000 0.003369 0.000000
# 2 -0.004466 0.011021 -0.001635 0.000000 0.001766 0.000000
# 3 -0.004470 -0.001635 0.017017 0.000000 -0.004367 0.000000
# 4 0.000000 0.000000 0.000000 0.040244 0.000000 0.008101
# 5 0.003369 0.001766 -0.004367 0.000000 0.038757 0.000000
# 6 0.000000 0.000000 0.000000 0.008101 0.000000 0.068047
#
#
# Mechanical properties :
#
#
# Convention : Reuss Voigt Hill
#
# Bulk Modulus (GPa) = 48.53348 52.40525 50.46937
# Shear Modulus (GPa) = 23.06191 25.99411 24.52801
#
# Velocity S-wave (km/s) = 3.41485 3.62545 3.52172
# Velocity P-wave (km/s) = 6.33160 6.63504 6.48510
#
# Compressibility (1/GPa) = 0.02060433
#
# Stress axis : x y z
#
# Youngs Moduli (GPa) = 72.94501 90.73209 58.76387
#
# Poissons Ratio (x) = 0.40525 0.26268
# Poissons Ratio (y) = 0.32581 0.09609
# Poissons Ratio (z) = 0.32607 0.14836
#
# Static dielectric constant tensor:
#      x y z
#    x 1.739870 0.000000 0.010120 
#    y 0.000000 1.688420 0.000000 
#    z 0.010120 0.000000 1.700540 
# 
# From -- ./inp_files/161462.got.cif
#   From: 2010.05.17/outbox.cif.g08.bks.cpg/sg15_81_cif.got.tgz:161462.got - 2010.06.03 18:47:42.
