data_PCOD9292705
_publ_section_title
;
Structure prediction by ZEFSAII (Michael W. Deem and Ramdas Pophale) SiO2 
 PCOD9292705
Probable space group: C 2/C
;
_chemical_formula_sum "Si O2"
_cell_formula_units_Z 44
_cell_length_a 10.565465
_cell_length_b 21.156950
_cell_length_c 10.925541
_cell_angle_alpha 90.000000
_cell_angle_beta 48.611882
_cell_angle_gamma 90.000000
_cell_volume 1832.270488
_symmetry_space_group_name_H-M "C 2/C"
_symmetry_group_IT_number 15
_symmetry_cell_setting 'monoclinic'
loop_
_space_group_symop_operation_xyz
x,y,z
-x,y,1/2-z
-x,-y,-z
x,-y,1/2+z
1/2+x,1/2+y,z
1/2-x,1/2+y,1/2-z
1/2-x,1/2-y,-z
1/2+x,1/2-y,1/2+z
loop_
_atom_site_type_symbol
_atom_site_label
_atom_site_fract_x
_atom_site_fract_y
_atom_site_fract_z
Si Si1 0.396154 0.333887 0.691694
Si Si2 0.069660 0.451567 0.360228
Si Si3 0.811392 0.124053 0.880700
Si Si4 0.316910 0.719154 0.674840
Si Si5 0.330665 0.544268 0.103832
Si Si6 0.500000 0.152665 0.750000
O O1 0.500000 0.323970 0.750000
O O2 0.517773 0.306118 0.503358
O O3 0.223207 0.293325 0.802372
O O4 0.359552 0.407749 0.697587
O O5 0.203625 0.411633 0.350224
O O6 0.178386 0.494513 0.199070
O O7 0.945438 0.398399 0.387220
O O8 0.000000 0.500000 0.500000
O O9 0.814004 0.194044 0.817661
O O10 0.000000 0.099758 0.750000
O O11 0.774016 0.097478 0.038543
O O12 0.155471 0.691425 0.703251
O O13 0.500000 0.500000 0.000000
#
# Coordination Sequence:
#
# PCOD9292705 Si02
#       6
#     8   8   8   8   8   4
#     4  12  27  43  74 104 137 189 242 299 358 427
#     4  11  24  39  70 102 143 183 235 295 351 429
#     4  11  22  46  69  97 142 188 231 289 361 417
#     4  11  25  47  71 100 139 182 242 299 359 425
#     4  12  25  44  70 106 141 190 236 287 360 438
#     4  10  22  44  66  96 144 178 224 304 356 398
#
# _framework density 24.013921
#
# number of rings (size 3 to 8) (size 9 to 14) (size 15 to 20)
#    0.000    0.727    4.545    2.727    5.091    2.182 
#    0.000    0.000    0.000    0.000    0.000    0.000 
#    0.000    0.000    0.000    0.000    0.000    0.000 
#
# Total GULP energy -122598.579773 kJ/mol
# GULP energy per Si atom -5572.662717 kJ/mol
# Density = 2.395926 g / cm^3
# Si number density = 24.013921 Si / 1000 Ang^3
#
#
#
# Elastic Constant Matrix: (Units=GPa)
#
#
# Indices 1 2 3 4 5 6 
#
# 1 63.5164 23.5521 3.5089 0.0000 16.3987 0.0000
# 2 23.5521 118.6887 14.6743 0.0000 4.9411 0.0000
# 3 3.5089 14.6743 37.2871 0.0000 9.6538 0.0000
# 4 0.0000 0.0000 0.0000 39.6582 0.0000 3.4176
# 5 16.3987 4.9411 9.6538 0.0000 35.9966 0.0000
# 6 0.0000 0.0000 0.0000 3.4176 0.0000 26.4063
#
#
#
# Elastic Compliance Matrix: (Units=1/GPa)
#
#
# Indices 1 2 3 4 5 6 
#
# 1 0.019278 -0.003696 0.001916 0.000000 -0.008789 0.000000
# 2 -0.003696 0.009568 -0.003776 0.000000 0.001383 0.000000
# 3 0.001916 -0.003776 0.030322 0.000000 -0.008487 0.000000
# 4 0.000000 0.000000 0.000000 0.025500 0.000000 -0.003300
# 5 -0.008789 0.001383 -0.008487 0.000000 0.033870 0.000000
# 6 0.000000 0.000000 0.000000 -0.003300 0.000000 0.038297
#
#
# Mechanical properties :
#
#
# Convention : Reuss Voigt Hill
#
# Bulk Modulus (GPa) = 20.80932 33.66255 27.23594
# Shear Modulus (GPa) = 27.17898 32.26268 29.72083
#
# Velocity S-wave (km/s) = 3.36787 3.66935 3.52184
# Velocity P-wave (km/s) = 4.87932 5.65690 5.28244
#
# Compressibility (1/GPa) = 0.04805538
#
# Stress axis : x y z
#
# Youngs Moduli (GPa) = 51.87307 104.51343 32.97958
#
# Poissons Ratio (x) = 0.38633 -0.06319
# Poissons Ratio (y) = 0.19174 0.12452
# Poissons Ratio (z) = -0.09939 0.39462
#
# Static dielectric constant tensor:
#      x y z
#    x 1.990800 0.000000 0.225980 
#    y 0.000000 1.865410 0.000000 
#    z 0.225980 0.000000 2.341940 
# 
# From -- ./inp_files/88313.got.cif
#   From: 2010.05.17/outbox.cif.g08.bks.cpg/sg15_45_cif.got.tgz:88313.got - 2010.06.03 18:47:42.
