data_PCOD9292441
_publ_section_title
;
Structure prediction by ZEFSAII (Michael W. Deem and Ramdas Pophale) SiO2 
 PCOD9292441
Probable space group: C 2/C
;
_chemical_formula_sum "Si O2"
_cell_formula_units_Z 44
_cell_length_a 15.166162
_cell_length_b 14.691881
_cell_length_c 16.159440
_cell_angle_alpha 90.000000
_cell_angle_beta 30.486245
_cell_angle_gamma 90.000000
_cell_volume 1826.716808
_symmetry_space_group_name_H-M "C 2/C"
_symmetry_group_IT_number 15
_symmetry_cell_setting 'monoclinic'
loop_
_space_group_symop_operation_xyz
x,y,z
-x,y,1/2-z
-x,-y,-z
x,-y,1/2+z
1/2+x,1/2+y,z
1/2-x,1/2+y,1/2-z
1/2-x,1/2-y,-z
1/2+x,1/2-y,1/2+z
loop_
_atom_site_type_symbol
_atom_site_label
_atom_site_fract_x
_atom_site_fract_y
_atom_site_fract_z
Si Si1 0.500000 0.583550 0.250000
Si Si2 0.156782 0.329373 0.522140
Si Si3 0.679619 0.540599 0.484310
Si Si4 0.622978 0.873066 0.230404
Si Si5 0.305063 0.807072 0.585330
Si Si6 0.744085 0.802530 0.682440
O O1 0.468615 0.520052 0.355109
O O2 0.335057 0.644946 0.360703
O O3 0.250000 0.250000 0.500000
O O4 0.222238 0.420599 0.512951
O O5 0.212013 0.298985 0.385127
O O6 0.950255 0.323828 0.692458
O O7 0.800555 0.473988 0.332818
O O8 0.631328 0.626541 0.466643
O O9 0.500000 0.864135 0.250000
O O10 0.493697 0.844110 0.408418
O O11 0.779746 0.801124 0.095342
O O12 0.258011 0.820968 0.719179
#
# Coordination Sequence:
#
# PCOD9292441 Si02
#       6
#     4   8   8   8   8   8
#     4  12  26  44  68 102 134 196 234 280 352 412
#     4  10  22  43  71  99 139 184 220 280 351 416
#     4  11  25  43  72  99 138 182 239 284 337 429
#     4  12  22  45  69  99 134 183 237 276 337 422
#     4  12  26  44  71 101 141 185 228 290 352 409
#     4  11  25  45  69 107 140 181 229 291 355 404
#
# _framework density 24.086931
#
# number of rings (size 3 to 8) (size 9 to 14) (size 15 to 20)
#    0.000    0.727    2.727    6.000    5.091    1.455 
#    3.273    0.000    0.000    0.000    0.000    0.000 
#    0.000    0.000    0.000    0.000    0.000    0.000 
#
# Total GULP energy -123096.990867 kJ/mol
# GULP energy per Si atom -5595.317767 kJ/mol
# Density = 2.403211 g / cm^3
# Si number density = 24.086931 Si / 1000 Ang^3
#
#
#
# Elastic Constant Matrix: (Units=GPa)
#
#
# Indices 1 2 3 4 5 6 
#
# 1 72.2889 4.4016 10.0205 0.0010 23.5442 0.0002
# 2 4.4016 103.2040 30.1788 0.0031 1.8959 -0.0005
# 3 10.0205 30.1788 106.7992 0.0043 20.1613 -0.0008
# 4 0.0010 0.0031 0.0043 45.2143 -0.0019 8.6011
# 5 23.5442 1.8959 20.1613 -0.0019 44.9807 0.0003
# 6 0.0002 -0.0005 -0.0008 8.6011 0.0003 10.2499
#
#
#
# Elastic Compliance Matrix: (Units=1/GPa)
#
#
# Indices 1 2 3 4 5 6 
#
# 1 0.016715 -0.000632 0.000281 -0.000001 -0.008848 0.000001
# 2 -0.000632 0.010626 -0.003191 0.000000 0.001314 0.000001
# 3 0.000281 -0.003191 0.011188 -0.000001 -0.005027 0.000002
# 4 -0.000001 0.000000 -0.000001 0.026318 0.000002 -0.022085
# 5 -0.008848 0.001314 -0.005027 0.000002 0.029061 -0.000003
# 6 0.000001 0.000001 0.000002 -0.022085 -0.000003 0.116094
#
#
# Mechanical properties :
#
#
# Convention : Reuss Voigt Hill
#
# Bulk Modulus (GPa) = 31.80412 41.27711 36.54062
# Shear Modulus (GPa) = 21.97148 35.93506 28.95327
#
# Velocity S-wave (km/s) = 3.02350 3.86669 3.47080
# Velocity P-wave (km/s) = 5.04195 6.09171 5.59152
#
# Compressibility (1/GPa) = 0.03144246
#
# Stress axis : x y z
#
# Youngs Moduli (GPa) = 59.82725 94.11288 89.38343
#
# Poissons Ratio (x) = 0.05952 -0.02510
# Poissons Ratio (y) = 0.03784 0.28524
# Poissons Ratio (z) = -0.01680 0.30033
#
# Static dielectric constant tensor:
#      x y z
#    x 1.944110 0.000000 0.032660 
#    y 0.000000 1.926770 0.000000 
#    z 0.032660 0.000000 1.972770 
# 
# From -- ./inp_files/211179.got.cif
#   From: 2010.05.17/outbox.cif.g08.bks.cpg/sg15_106_cif.got.tgz:211179.got - 2010.06.03 18:47:42.
