data_PCOD9292592
_publ_section_title
;
Structure prediction by ZEFSAII (Michael W. Deem and Ramdas Pophale) SiO2 
 PCOD9292592
Probable space group: C 2/C
;
_chemical_formula_sum "Si O2"
_cell_formula_units_Z 44
_cell_length_a 19.359573
_cell_length_b 11.475152
_cell_length_c 11.005540
_cell_angle_alpha 90.000000
_cell_angle_beta 129.815848
_cell_angle_gamma 90.000000
_cell_volume 1877.962795
_symmetry_space_group_name_H-M "C 2/C"
_symmetry_group_IT_number 15
_symmetry_cell_setting 'monoclinic'
loop_
_space_group_symop_operation_xyz
x,y,z
-x,y,1/2-z
-x,-y,-z
x,-y,1/2+z
1/2+x,1/2+y,z
1/2-x,1/2+y,1/2-z
1/2-x,1/2-y,-z
1/2+x,1/2-y,1/2+z
loop_
_atom_site_type_symbol
_atom_site_label
_atom_site_fract_x
_atom_site_fract_y
_atom_site_fract_z
Si Si1 0.079172 0.704194 0.626549
Si Si2 0.500000 0.932634 0.250000
Si Si3 0.768949 0.844105 0.418579
Si Si4 0.368410 0.141272 0.071034
Si Si5 0.912421 0.952356 0.734779
Si Si6 0.662934 0.319978 0.257369
O O1 0.170681 0.630517 0.756368
O O2 0.075119 0.698600 0.476747
O O3 0.089153 0.836879 0.683617
O O4 0.008507 0.644545 0.637760
O O5 0.413545 0.016214 0.140070
O O6 0.750000 0.750000 0.500000
O O7 0.827568 0.943666 0.546714
O O8 0.825421 0.791271 0.370779
O O9 0.371253 0.216601 0.196734
O O10 0.263361 0.144466 0.915583
O O11 0.000000 0.952966 0.750000
O O12 0.900474 0.068329 0.798890
#
# Coordination Sequence:
#
# PCOD9292592 Si02
#       6
#     8   4   8   8   8   8
#     4  10  22  44  64  94 130 168 218 265 315 384
#     4  12  22  42  66  94 128 174 214 268 324 376
#     4   9  21  43  65  89 124 171 210 255 318 382
#     4  10  24  43  66  95 130 166 221 265 318 387
#     4  11  23  39  66  96 131 166 212 265 320 383
#     4  10  23  44  65  95 130 170 210 269 321 384
#
# _framework density 23.429642999999999
#
# number of rings (size 3 to 8) (size 9 to 14) (size 15 to 20)
#    0.000    1.818    0.909    1.636    3.818    2.182 
#   22.909    0.000    0.000    0.000    0.000    0.000 
#    0.000    0.000    0.000    0.000    0.000    0.000 
#
# Total GULP energy -123012.003083 kJ/mol
# GULP energy per Si atom -5591.454686 kJ/mol
# Density = 2.337632 g / cm^3
# Si number density = 23.429643 Si / 1000 Ang^3
#
#
#
# Elastic Constant Matrix: (Units=GPa)
#
#
# Indices 1 2 3 4 5 6 
#
# 1 159.7572 52.2096 43.8510 0.0000 -45.4823 0.0000
# 2 52.2096 70.6059 4.9658 0.0000 -23.5737 0.0000
# 3 43.8510 4.9658 48.4116 0.0000 -14.6588 0.0000
# 4 0.0000 0.0000 0.0000 21.6344 0.0000 1.2769
# 5 -45.4823 -23.5737 -14.6588 0.0000 70.9435 0.0000
# 6 0.0000 0.0000 0.0000 1.2769 0.0000 38.5093
#
#
#
# Elastic Compliance Matrix: (Units=1/GPa)
#
#
# Indices 1 2 3 4 5 6 
#
# 1 0.012106 -0.007140 -0.009175 0.000000 0.003493 0.000000
# 2 -0.007140 0.020142 0.005379 0.000000 0.003227 0.000000
# 3 -0.009175 0.005379 0.028989 0.000000 0.001895 0.000000
# 4 0.000000 0.000000 0.000000 0.046313 0.000000 -0.001536
# 5 0.003493 0.003227 0.001895 0.000000 0.017799 0.000000
# 6 0.000000 0.000000 0.000000 -0.001536 0.000000 0.026019
#
#
# Mechanical properties :
#
#
# Convention : Reuss Voigt Hill
#
# Bulk Modulus (GPa) = 25.40465 53.42529 39.41497
# Shear Modulus (GPa) = 26.82935 38.06731 32.44833
#
# Velocity S-wave (km/s) = 3.38761 4.03519 3.72550
# Velocity P-wave (km/s) = 5.11543 6.67550 5.94685
#
# Compressibility (1/GPa) = 0.03936288
#
# Stress axis : x y z
#
# Youngs Moduli (GPa) = 82.60481 49.64743 34.49545
#
# Poissons Ratio (x) = 0.35450 0.31651
# Poissons Ratio (y) = 0.58982 -0.18554
# Poissons Ratio (z) = 0.75794 -0.26703
#
# Static dielectric constant tensor:
#      x y z
#    x 1.877980 0.000000 0.036220 
#    y 0.000000 1.811110 0.000000 
#    z 0.036220 0.000000 2.015480 
# 
# From -- ./inp_files/104368.got.cif
#   From: 2010.05.17/outbox.cif.g08.bks.cpg/sg15_53_cif.got.tgz:104368.got - 2010.06.03 18:47:42.
