data_PCOD9292545
_publ_section_title
;
Structure prediction by ZEFSAII (Michael W. Deem and Ramdas Pophale) SiO2 
 PCOD9292545
Probable space group: C 2/C
;
_chemical_formula_sum "Si O2"
_cell_formula_units_Z 44
_cell_length_a 11.845871
_cell_length_b 7.961613
_cell_length_c 23.656030
_cell_angle_alpha 90.000000
_cell_angle_beta 132.564416
_cell_angle_gamma 90.000000
_cell_volume 1643.209327
_symmetry_space_group_name_H-M "C 2/C"
_symmetry_group_IT_number 15
_symmetry_cell_setting 'monoclinic'
loop_
_space_group_symop_operation_xyz
x,y,z
-x,y,1/2-z
-x,-y,-z
x,-y,1/2+z
1/2+x,1/2+y,z
1/2-x,1/2+y,1/2-z
1/2-x,1/2-y,-z
1/2+x,1/2-y,1/2+z
loop_
_atom_site_type_symbol
_atom_site_label
_atom_site_fract_x
_atom_site_fract_y
_atom_site_fract_z
Si Si1 0.887243 0.983282 0.801563
Si Si2 0.500000 0.244910 0.250000
Si Si3 0.317535 0.325921 0.607243
Si Si4 0.239787 0.476262 0.973692
Si Si5 0.169798 0.159343 0.105047
Si Si6 0.891485 0.530309 0.368160
O O1 0.710979 0.966470 0.722957
O O2 0.946241 0.137101 0.783874
O O3 0.895948 0.973808 0.872269
O O4 0.000854 0.833311 0.819701
O O5 0.351676 0.150888 0.177936
O O6 0.292418 0.480249 0.554670
O O7 0.270298 0.155674 0.561345
O O8 0.209638 0.361174 0.623144
O O9 0.343727 0.369336 0.966142
O O10 0.064812 0.414107 0.918622
O O11 0.109042 0.341221 0.105074
#
# Coordination Sequence:
#
# PCOD9292545 Si02
#       6
#     8   4   8   8   8   8
#     4  11  21  42  69  91 131 166 212 269 321 373
#     4  10  22  44  60  98 130 166 214 276 312 378
#     4  11  23  46  65  96 134 174 209 268 327 380
#     4  11  26  43  66  96 135 169 218 261 322 395
#     4  11  23  40  66  98 124 169 219 261 319 386
#     4  11  23  45  67  91 132 171 216 269 318 380
#
# _framework density 26.776869999999999
#
# number of rings (size 3 to 8) (size 9 to 14) (size 15 to 20)
#    0.000    1.091    5.455    1.636    0.000    5.818 
#    6.545    0.000    0.000    0.000    0.000    0.000 
#    0.000    0.000    0.000    0.000    0.000    0.000 
#
# Total GULP energy -123287.932729 kJ/mol
# GULP energy per Si atom -5603.996942 kJ/mol
# Density = 2.671592 g / cm^3
# Si number density = 26.776870 Si / 1000 Ang^3
#
#
#
# Elastic Constant Matrix: (Units=GPa)
#
#
# Indices 1 2 3 4 5 6 
#
# 1 148.4591 27.5633 27.2826 0.0000 -12.9744 0.0000
# 2 27.5633 72.3662 19.9226 0.0000 -18.7485 0.0000
# 3 27.2826 19.9226 70.8935 0.0000 -7.3299 0.0000
# 4 0.0000 0.0000 0.0000 27.5403 0.0000 -6.8808
# 5 -12.9744 -18.7485 -7.3299 0.0000 36.1240 0.0000
# 6 0.0000 0.0000 0.0000 -6.8808 0.0000 39.7880
#
#
#
# Elastic Compliance Matrix: (Units=1/GPa)
#
#
# Indices 1 2 3 4 5 6 
#
# 1 0.007624 -0.001955 -0.002253 0.000000 0.001266 0.000000
# 2 -0.001955 0.017482 -0.003365 0.000000 0.007688 0.000000
# 3 -0.002253 -0.003365 0.015990 0.000000 0.000689 0.000000
# 4 0.000000 0.000000 0.000000 0.037950 0.000000 0.006563
# 5 0.001266 0.007688 0.000689 0.000000 0.032267 0.000000
# 6 0.000000 0.000000 0.000000 0.006563 0.000000 0.026268
#
#
# Mechanical properties :
#
#
# Convention : Reuss Voigt Hill
#
# Bulk Modulus (GPa) = 38.54045 49.02843 43.78444
# Shear Modulus (GPa) = 30.98323 35.15381 33.06852
#
# Velocity S-wave (km/s) = 3.40529 3.62725 3.51802
# Velocity P-wave (km/s) = 5.46679 5.99102 5.73490
#
# Compressibility (1/GPa) = 0.02594676
#
# Stress axis : x y z
#
# Youngs Moduli (GPa) = 131.17036 57.20289 62.53981
#
# Poissons Ratio (x) = 0.11185 0.14093
# Poissons Ratio (y) = 0.25649 0.21047
# Poissons Ratio (z) = 0.29559 0.19251
#
# Static dielectric constant tensor:
#      x y z
#    x 2.043390 0.000000 0.010730 
#    y 0.000000 2.116590 0.000000 
#    z 0.010730 0.000000 2.107040 
# 
# From -- ./inp_files/291730.got.cif
#   From: 2010.05.17/outbox.cif.g08.bks.cpg/sg15_146_cif.got.tgz:291730.got - 2010.06.03 18:47:42.
