data_PCOD9292620
_publ_section_title
;
Structure prediction by ZEFSAII (Michael W. Deem and Ramdas Pophale) SiO2 
 PCOD9292620
Probable space group: C 2/C
;
_chemical_formula_sum "Si O2"
_cell_formula_units_Z 52
_cell_length_a 25.640771
_cell_length_b 8.239875
_cell_length_c 12.282912
_cell_angle_alpha 90.000000
_cell_angle_beta 60.906226
_cell_angle_gamma 90.000000
_cell_volume 2267.657924
_symmetry_space_group_name_H-M "C 2/C"
_symmetry_group_IT_number 15
_symmetry_cell_setting 'monoclinic'
loop_
_space_group_symop_operation_xyz
x,y,z
-x,y,1/2-z
-x,-y,-z
x,-y,1/2+z
1/2+x,1/2+y,z
1/2-x,1/2+y,1/2-z
1/2-x,1/2-y,-z
1/2+x,1/2-y,1/2+z
loop_
_atom_site_type_symbol
_atom_site_label
_atom_site_fract_x
_atom_site_fract_y
_atom_site_fract_z
Si Si1 0.000000 0.656115 0.250000
Si Si2 0.836344 0.275940 0.605734
Si Si3 0.616730 0.943491 0.147407
Si Si4 0.382661 0.705263 0.158656
Si Si5 0.732069 0.552609 0.303353
Si Si6 0.341692 0.264457 0.463243
Si Si7 0.922388 0.878971 0.192753
O O1 0.055604 0.535362 0.180353
O O2 0.020446 0.778301 0.325493
O O3 0.864045 0.313616 0.461586
O O4 0.797707 0.425858 0.690545
O O5 0.888406 0.221752 0.633996
O O6 0.788890 0.128880 0.651493
O O7 0.611664 0.856137 0.267658
O O8 0.663549 0.091000 0.088713
O O9 0.316840 0.620909 0.233759
O O10 0.382360 0.749221 0.031629
O O11 0.428564 0.562690 0.145037
O O12 0.717660 0.659450 0.425163
O O13 0.377387 0.376602 0.342486
#
# Coordination Sequence:
#
# PCOD9292620 Si02
#       7
#     4   8   8   8   8   8   8
#     4  10  26  44  64  98 120 178 228 268 340 380
#     4  11  22  38  70  96 134 176 210 275 325 395
#     4  11  23  41  67  94 134 169 222 277 323 381
#     4   9  22  42  66  96 134 169 219 268 324 400
#     4   9  21  40  63 106 129 172 220 248 344 399
#     4   9  21  40  63  98 131 167 221 259 322 402
#     4  10  22  44  65  91 133 173 223 275 321 383
#
# _framework density 22.931149000000001
#
# number of rings (size 3 to 8) (size 9 to 14) (size 15 to 20)
#    0.923    1.231    0.000    1.846    4.308    2.462 
#    2.769    4.615    0.000    0.000    0.000    0.000 
#    0.000    0.000    0.000    0.000    0.000    0.000 
#
# Total GULP energy -145188.178034 kJ/mol
# GULP energy per Si atom -5584.160694 kJ/mol
# Density = 2.287896 g / cm^3
# Si number density = 22.931149 Si / 1000 Ang^3
#
#
#
# Elastic Constant Matrix: (Units=GPa)
#
#
# Indices 1 2 3 4 5 6 
#
# 1 64.8257 40.4541 2.9435 0.0000 -2.6845 0.0000
# 2 40.4541 112.7807 14.3835 0.0000 15.2011 0.0000
# 3 2.9435 14.3835 61.4558 0.0000 16.7166 0.0000
# 4 0.0000 0.0000 0.0000 28.2210 0.0000 3.4502
# 5 -2.6845 15.2011 16.7166 0.0000 22.4878 0.0000
# 6 0.0000 0.0000 0.0000 3.4502 0.0000 37.6097
#
#
#
# Elastic Compliance Matrix: (Units=1/GPa)
#
#
# Indices 1 2 3 4 5 6 
#
# 1 0.021367 -0.008763 -0.001601 0.000000 0.009665 0.000000
# 2 -0.008763 0.013368 0.000042 0.000000 -0.010113 0.000000
# 3 -0.001601 0.000042 0.020555 0.000000 -0.015499 0.000000
# 4 0.000000 0.000000 0.000000 0.035836 0.000000 -0.003288
# 5 0.009665 -0.010113 -0.015499 0.000000 0.063980 0.000000
# 6 0.000000 0.000000 0.000000 -0.003288 0.000000 0.026890
#
#
# Mechanical properties :
#
#
# Convention : Reuss Voigt Hill
#
# Bulk Modulus (GPa) = 28.86388 39.40272 34.13330
# Shear Modulus (GPa) = 23.34380 29.74909 26.54645
#
# Velocity S-wave (km/s) = 3.19407 3.60574 3.40613
# Velocity P-wave (km/s) = 5.12028 5.87840 5.51239
#
# Compressibility (1/GPa) = 0.03464537
#
# Stress axis : x y z
#
# Youngs Moduli (GPa) = 46.80049 74.80695 48.65080
#
# Poissons Ratio (x) = 0.65552 0.07791
# Poissons Ratio (y) = 0.41010 -0.00204
# Poissons Ratio (z) = 0.07495 -0.00314
#
# Static dielectric constant tensor:
#      x y z
#    x 1.889410 0.000000 -0.003460 
#    y 0.000000 1.886730 0.000000 
#    z -0.003460 0.000000 1.816770 
# 
# From -- ./inp_files/121413.got.cif
#   From: 2010.05.17/outbox.cif.g08.bks.cpg/sg15_61_cif.got.tgz:121413.got - 2010.06.03 18:47:42.
