data_PCOD9292009
_publ_section_title
;
Structure prediction by ZEFSAII (Michael W. Deem and Ramdas Pophale) SiO2 
 PCOD9292009
Probable space group: C 2/C
;
_chemical_formula_sum "Si O2"
_cell_formula_units_Z 28
_cell_length_a 21.221636
_cell_length_b 5.487287
_cell_length_c 9.359891
_cell_angle_alpha 90.000000
_cell_angle_beta 109.349977
_cell_angle_gamma 90.000000
_cell_volume 1028.383009
_symmetry_space_group_name_H-M "C 2/C"
_symmetry_group_IT_number 15
_symmetry_cell_setting 'monoclinic'
loop_
_space_group_symop_operation_xyz
x,y,z
-x,y,1/2-z
-x,-y,-z
x,-y,1/2+z
1/2+x,1/2+y,z
1/2-x,1/2+y,1/2-z
1/2-x,1/2-y,-z
1/2+x,1/2-y,1/2+z
loop_
_atom_site_type_symbol
_atom_site_label
_atom_site_fract_x
_atom_site_fract_y
_atom_site_fract_z
Si Si1 0.178978 0.392918 0.948539
Si Si2 0.000000 0.946583 0.750000
Si Si3 0.709681 0.778594 0.691024
Si Si4 0.945048 0.285032 0.457831
O O1 0.153409 0.321027 0.771441
O O2 0.128437 0.316364 0.034049
O O3 0.250000 0.250000 0.000000
O O4 0.188458 0.670979 0.011430
O O5 0.971847 0.098605 0.598078
O O6 0.055641 0.791117 0.708660
O O7 0.743062 0.515582 0.737980
O O8 0.000000 0.500000 0.500000
#
# Coordination Sequence:
#
# PCOD9292009 Si02
#       4
#     8   4   8   8
#     4  10  24  43  68 103 137 185 234 304 364 436
#     4  10  26  48  72 100 138 202 228 302 364 450
#     4  10  22  43  65 102 144 184 232 296 368 443
#     4  11  25  47  72 103 143 185 249 296 366 444
#
# _framework density 27.227212000000002
#
# number of rings (size 3 to 8) (size 9 to 14) (size 15 to 20)
#    0.000    1.714    0.000    1.714    8.000    9.143 
#   20.571    0.000    0.000    0.000    0.000    0.000 
#    0.000    0.000    0.000    0.000    0.000    0.000 
#
# Total GULP energy -78065.582522 kJ/mol
# GULP energy per Si atom -5576.113037 kJ/mol
# Density = 2.716524 g / cm^3
# Si number density = 27.227212 Si / 1000 Ang^3
#
#
#
# Elastic Constant Matrix: (Units=GPa)
#
#
# Indices 1 2 3 4 5 6 
#
# 1 175.8548 46.9471 56.3328 0.0000 -54.7076 0.0000
# 2 46.9471 107.5431 47.4015 0.0000 -18.1884 0.0000
# 3 56.3328 47.4015 156.8388 0.0000 -54.9262 0.0000
# 4 0.0000 0.0000 0.0000 63.2282 0.0000 -13.7621
# 5 -54.7076 -18.1884 -54.9262 0.0000 68.4458 0.0000
# 6 0.0000 0.0000 0.0000 -13.7621 0.0000 30.9770
#
#
#
# Elastic Compliance Matrix: (Units=1/GPa)
#
#
# Indices 1 2 3 4 5 6 
#
# 1 0.008206 -0.002536 -0.000167 0.000000 0.005751 0.000000
# 2 -0.002536 0.011517 -0.003071 0.000000 -0.001431 0.000000
# 3 -0.000167 -0.003071 0.009780 0.000000 0.006899 0.000000
# 4 0.000000 0.000000 0.000000 0.017509 0.000000 0.007779
# 5 0.005751 -0.001431 0.006899 0.000000 0.024363 0.000000
# 6 0.000000 0.000000 0.000000 0.007779 0.000000 0.035738
#
#
# Mechanical properties :
#
#
# Convention : Reuss Voigt Hill
#
# Bulk Modulus (GPa) = 55.69335 82.39994 69.04665
# Shear Modulus (GPa) = 40.11342 51.83388 45.97365
#
# Velocity S-wave (km/s) = 3.84250 4.36793 4.11362
# Velocity P-wave (km/s) = 6.33923 7.46780 6.92654
#
# Compressibility (1/GPa) = 0.01795546
#
# Stress axis : x y z
#
# Youngs Moduli (GPa) = 121.85918 86.82551 102.24808
#
# Poissons Ratio (x) = 0.22020 0.01706
# Poissons Ratio (y) = 0.30905 0.31402
# Poissons Ratio (z) = 0.02033 0.26665
#
# Static dielectric constant tensor:
#      x y z
#    x 2.360530 0.000000 0.093780 
#    y 0.000000 2.373490 0.000000 
#    z 0.093780 0.000000 2.516480 
# 
# From -- ./inp_files/115223.got.cif
#   From: 2010.05.17/outbox.cif.g08.bks.cpg/sg15_58_cif.got.tgz:115223.got - 2010.06.03 18:47:42.
