data_PCOD9292305
_publ_section_title
;
Structure prediction by ZEFSAII (Michael W. Deem and Ramdas Pophale) SiO2 
 PCOD9292305
Probable space group: C 2/C
;
_chemical_formula_sum "Si O2"
_cell_formula_units_Z 56
_cell_length_a 9.529887
_cell_length_b 20.525134
_cell_length_c 17.025396
_cell_angle_alpha 90.000000
_cell_angle_beta 44.853352
_cell_angle_gamma 90.000000
_cell_volume 2348.775748
_symmetry_space_group_name_H-M "C 2/C"
_symmetry_group_IT_number 15
_symmetry_cell_setting 'monoclinic'
loop_
_space_group_symop_operation_xyz
x,y,z
-x,y,1/2-z
-x,-y,-z
x,-y,1/2+z
1/2+x,1/2+y,z
1/2-x,1/2+y,1/2-z
1/2-x,1/2-y,-z
1/2+x,1/2-y,1/2+z
loop_
_atom_site_type_symbol
_atom_site_label
_atom_site_fract_x
_atom_site_fract_y
_atom_site_fract_z
Si Si1 0.854650 0.642043 0.877968
Si Si2 0.322412 0.125125 0.256584
Si Si3 0.113022 0.340407 0.504185
Si Si4 0.032726 0.140656 0.883491
Si Si5 0.398626 0.496798 0.703324
Si Si6 0.844882 0.269498 0.160899
Si Si7 0.464737 0.947402 0.078927
O O1 0.645999 0.648365 0.920045
O O2 0.000000 0.617586 0.750000
O O3 0.963840 0.707500 0.864364
O O4 0.860234 0.590791 0.947280
O O5 0.500000 0.112329 0.250000
O O6 0.230490 0.196594 0.303537
O O7 0.145080 0.071479 0.323066
O O8 0.434860 0.133073 0.127526
O O9 0.311348 0.332624 0.474299
O O10 0.087241 0.280859 0.455809
O O11 0.158184 0.393882 0.419317
O O12 0.015150 0.062654 0.870736
O O13 0.165325 0.183467 0.768049
O O14 0.500000 0.487594 0.750000
O O15 0.170717 0.519248 0.803936
O O16 0.500000 0.000000 0.000000
#
# Coordination Sequence:
#
# PCOD9292305 Si02
#       7
#     8   8   8   8   8   8   8
#     4   9  19  36  69  96 122 168 226 279 318 396
#     4  12  29  44  65 101 143 176 221 292 338 387
#     4  11  22  43  73  94 131 184 229 266 336 414
#     4  11  20  39  74 103 124 173 236 274 326 405
#     4  12  23  40  67 101 139 176 220 279 337 397
#     4  10  22  43  69  94 126 181 229 268 337 407
#     4  11  20  38  65  95 130 177 222 262 335 408
#
# _framework density 23.842210000000001
#
# number of rings (size 3 to 8) (size 9 to 14) (size 15 to 20)
#    0.000    1.143    7.143    1.286    2.000    4.000 
#    2.571    1.429    0.000   12.857    0.000    0.000 
#    0.000    0.000    0.000    0.000    0.000    0.000 
#
# Total GULP energy -156203.918952 kJ/mol
# GULP energy per Si atom -5578.711391 kJ/mol
# Density = 2.378794 g / cm^3
# Si number density = 23.842210 Si / 1000 Ang^3
#
#
#
# Elastic Constant Matrix: (Units=GPa)
#
#
# Indices 1 2 3 4 5 6 
#
# 1 169.9078 56.5670 1.1155 0.0000 11.9215 0.0000
# 2 56.5670 148.3152 10.3646 0.0000 13.5384 0.0000
# 3 1.1155 10.3646 35.1352 0.0001 -0.0200 0.0000
# 4 0.0000 0.0000 0.0001 29.7475 -0.0001 8.7577
# 5 11.9215 13.5384 -0.0200 -0.0001 16.3729 0.0000
# 6 0.0000 0.0000 0.0000 8.7577 0.0000 12.1902
#
#
#
# Elastic Compliance Matrix: (Units=1/GPa)
#
#
# Indices 1 2 3 4 5 6 
#
# 1 0.006890 -0.002383 0.000483 0.000000 -0.003045 0.000000
# 2 -0.002383 0.008284 -0.002371 0.000000 -0.005118 0.000000
# 3 0.000483 -0.002371 0.029146 0.000000 0.001645 0.000000
# 4 0.000000 0.000000 0.000000 0.042634 0.000000 -0.030629
# 5 -0.003045 -0.005118 0.001645 0.000000 0.067527 0.000000
# 6 0.000000 0.000000 0.000000 -0.030629 0.000000 0.104038
#
#
# Mechanical properties :
#
#
# Convention : Reuss Voigt Hill
#
# Bulk Modulus (GPa) = 27.95122 54.38361 41.16741
# Shear Modulus (GPa) = 17.92191 30.68285 24.30238
#
# Velocity S-wave (km/s) = 2.74467 3.59125 3.19611
# Velocity P-wave (km/s) = 4.66831 6.32893 5.56096
#
# Compressibility (1/GPa) = 0.03577662
#
# Stress axis : x y z
#
# Youngs Moduli (GPa) = 145.14755 120.71094 34.30944
#
# Poissons Ratio (x) = 0.28771 -0.01656
# Poissons Ratio (y) = 0.34595 0.08135
# Poissons Ratio (z) = -0.07005 0.28621
#
# Static dielectric constant tensor:
#      x y z
#    x 1.960520 0.000000 0.036550 
#    y 0.000000 2.665020 0.000000 
#    z 0.036550 0.000000 2.069010 
# 
# From -- ./inp_files/192012.got.cif
#   From: 2010.05.17/outbox.cif.g08.bks.cpg/sg15_97_cif.got.tgz:192012.got - 2010.06.03 18:47:42.
