data_PCOD9292481
_publ_section_title
;
Structure prediction by ZEFSAII (Michael W. Deem and Ramdas Pophale) SiO2 
 PCOD9292481
Probable space group: C 2/C
;
_chemical_formula_sum "Si O2"
_cell_formula_units_Z 44
_cell_length_a 16.517367
_cell_length_b 11.824688
_cell_length_c 29.052587
_cell_angle_alpha 90.000000
_cell_angle_beta 21.155303
_cell_angle_gamma 90.000000
_cell_volume 2047.852940
_symmetry_space_group_name_H-M "C 2/C"
_symmetry_group_IT_number 15
_symmetry_cell_setting 'monoclinic'
loop_
_space_group_symop_operation_xyz
x,y,z
-x,y,1/2-z
-x,-y,-z
x,-y,1/2+z
1/2+x,1/2+y,z
1/2-x,1/2+y,1/2-z
1/2-x,1/2-y,-z
1/2+x,1/2-y,1/2+z
loop_
_atom_site_type_symbol
_atom_site_label
_atom_site_fract_x
_atom_site_fract_y
_atom_site_fract_z
Si Si1 0.134523 0.486976 0.131956
Si Si2 0.859547 0.781351 0.991054
Si Si3 0.328157 0.101130 0.710052
Si Si4 0.892842 0.422759 0.596841
Si Si5 0.866228 0.789817 0.485657
Si Si6 0.000000 0.824076 0.750000
O O1 0.362186 0.413472 0.001892
O O2 0.000000 0.463796 0.250000
O O3 0.978339 0.437940 0.173889
O O4 0.198293 0.618463 0.096666
O O5 0.691922 0.737960 0.119286
O O6 0.750000 0.750000 0.000000
O O7 0.082228 0.708032 0.868007
O O8 0.089785 0.141258 0.854236
O O9 0.349192 0.995914 0.665089
O O10 0.647384 0.388893 0.709171
O O11 0.000000 0.500000 0.500000
O O12 0.049814 0.315702 0.527449
O O13 0.750000 0.750000 0.500000
#
# Coordination Sequence:
#
# PCOD9292481 Si02
#       6
#     8   8   8   8   8   4
#     4  11  25  48  76 108 150 195 256 321 391 462
#     4  10  22  43  73 104 144 199 249 312 377 462
#     4  11  26  46  74 110 151 201 253 322 388 447
#     4  12  27  48  75 110 148 201 250 315 380 464
#     4  12  29  49  76 111 152 198 260 317 394 456
#     4  12  24  46  74 110 146 196 270 294 394 468
#
# _framework density 21.485918000000002
#
# number of rings (size 3 to 8) (size 9 to 14) (size 15 to 20)
#    0.000    0.727    4.545    2.182   10.182    2.182 
#    0.000    0.000    0.000    0.000    0.000    0.000 
#    0.000    0.000    0.000    0.000    0.000    0.000 
#
# Total GULP energy -122778.989503 kJ/mol
# GULP energy per Si atom -5580.863159 kJ/mol
# Density = 2.143702 g / cm^3
# Si number density = 21.485918 Si / 1000 Ang^3
#
#
#
# Elastic Constant Matrix: (Units=GPa)
#
#
# Indices 1 2 3 4 5 6 
#
# 1 117.2122 67.2380 40.9724 0.0240 11.9855 -0.0153
# 2 67.2380 144.8472 47.1799 -0.0006 6.0867 -0.0072
# 3 40.9724 47.1799 94.1075 0.0522 12.4917 -0.0789
# 4 0.0240 -0.0006 0.0522 17.3892 -0.0039 1.5321
# 5 11.9855 6.0867 12.4917 -0.0039 43.2284 -0.0024
# 6 -0.0153 -0.0072 -0.0789 1.5321 -0.0024 5.6436
#
#
#
# Elastic Compliance Matrix: (Units=1/GPa)
#
#
# Indices 1 2 3 4 5 6 
#
# 1 0.012449 -0.004800 -0.002751 -0.000009 -0.001981 -0.000009
# 2 -0.004800 0.010102 -0.003081 0.000021 0.000799 -0.000048
# 3 -0.002751 -0.003081 0.013737 -0.000055 -0.002773 0.000195
# 4 -0.000009 0.000021 -0.000055 0.058916 0.000020 -0.015995
# 5 -0.001981 0.000799 -0.002773 0.000020 0.024371 -0.000038
# 6 -0.000009 -0.000048 0.000195 -0.015995 -0.000038 0.181537
#
#
# Mechanical properties :
#
#
# Convention : Reuss Voigt Hill
#
# Bulk Modulus (GPa) = 66.55668 74.10530 70.33099
# Shear Modulus (GPa) = 15.27268 26.63736 20.95502
#
# Velocity S-wave (km/s) = 2.66902 3.52484 3.12635
# Velocity P-wave (km/s) = 6.36729 7.15060 6.77028
#
# Compressibility (1/GPa) = 0.01502479
#
# Stress axis : x y z
#
# Youngs Moduli (GPa) = 80.32857 98.99326 72.79805
#
# Poissons Ratio (x) = 0.47512 0.20026
# Poissons Ratio (y) = 0.38554 0.22428
# Poissons Ratio (z) = 0.22097 0.30498
#
# Static dielectric constant tensor:
#      x y z
#    x 1.761340 -0.000010 -0.014910 
#    y -0.000010 1.916750 0.000060 
#    z -0.014910 0.000060 1.619220 
# 
# From -- ./inp_files/104071.got.cif
#   From: 2010.05.17/outbox.cif.g08.bks.cpg/sg15_53_cif.got.tgz:104071.got - 2010.06.03 18:47:42.
