data_PCOD9292769
_publ_section_title
;
Structure prediction by ZEFSAII (Michael W. Deem and Ramdas Pophale) SiO2 
 PCOD9292769
Probable space group: C 2/C
;
_chemical_formula_sum "Si O2"
_cell_formula_units_Z 52
_cell_length_a 28.072163
_cell_length_b 9.022242
_cell_length_c 10.075444
_cell_angle_alpha 90.000000
_cell_angle_beta 62.313268
_cell_angle_gamma 90.000000
_cell_volume 2259.663230
_symmetry_space_group_name_H-M "C 2/C"
_symmetry_group_IT_number 15
_symmetry_cell_setting 'monoclinic'
loop_
_space_group_symop_operation_xyz
x,y,z
-x,y,1/2-z
-x,-y,-z
x,-y,1/2+z
1/2+x,1/2+y,z
1/2-x,1/2+y,1/2-z
1/2-x,1/2-y,-z
1/2+x,1/2-y,1/2+z
loop_
_atom_site_type_symbol
_atom_site_label
_atom_site_fract_x
_atom_site_fract_y
_atom_site_fract_z
Si Si1 0.168139 0.873522 0.194814
Si Si2 0.864153 0.626586 0.974841
Si Si3 0.026165 0.346843 0.997749
Si Si4 0.823800 0.517986 0.284707
Si Si5 0.547436 0.429652 0.343913
Si Si6 0.500000 0.355305 0.750000
Si Si7 0.294147 0.572975 0.580761
O O1 0.176387 0.695556 0.185367
O O2 0.108214 0.924894 0.315853
O O3 0.205352 0.943592 0.260718
O O4 0.179276 0.940771 0.036841
O O5 0.835318 0.512233 0.113101
O O6 0.828687 0.776952 0.012814
O O7 0.919879 0.650253 0.981995
O O8 0.867448 0.556221 0.825039
O O9 0.988868 0.252577 0.143552
O O10 0.034436 0.244880 0.857841
O O11 0.000000 0.500000 0.000000
O O12 0.767799 0.434912 0.384226
O O13 0.500000 0.500000 0.500000
O O14 0.547079 0.523077 0.208720
#
# Coordination Sequence:
#
# PCOD9292769 Si02
#       7
#     8   8   8   8   8   4   8
#     4  11  24  43  69 102 139 177 235 287 353 419
#     4  11  25  45  67 102 142 180 232 284 360 423
#     4  11  24  44  67 102 141 181 236 299 359 426
#     4  11  24  43  70 101 140 181 232 290 353 413
#     4  10  22  44  67  98 137 184 235 290 346 439
#     4  10  24  40  72  94 138 184 242 278 364 416
#     4  11  23  44  71  99 140 182 233 289 346 424
#
# _framework density 23.012277999999998
#
# number of rings (size 3 to 8) (size 9 to 14) (size 15 to 20)
#    0.000    1.231    3.077    2.769    4.308    5.538 
#    2.769    0.000    0.000    0.000    0.000    0.000 
#    0.000    0.000    0.000    0.000    0.000    0.000 
#
# Total GULP energy -144816.094434 kJ/mol
# GULP energy per Si atom -5569.849786 kJ/mol
# Density = 2.295990 g / cm^3
# Si number density = 23.012278 Si / 1000 Ang^3
#
#
#
# Elastic Constant Matrix: (Units=GPa)
#
#
# Indices 1 2 3 4 5 6 
#
# 1 116.2504 60.9712 7.8551 0.0000 -0.7659 0.0000
# 2 60.9712 112.8099 24.8495 0.0000 17.6159 0.0000
# 3 7.8551 24.8495 27.5545 0.0000 9.7260 0.0000
# 4 0.0000 0.0000 0.0000 29.3764 0.0000 14.3949
# 5 -0.7659 17.6159 9.7260 0.0000 37.6364 0.0000
# 6 0.0000 0.0000 0.0000 14.3949 0.0000 47.5858
#
#
#
# Elastic Compliance Matrix: (Units=1/GPa)
#
#
# Indices 1 2 3 4 5 6 
#
# 1 0.012569 -0.007817 0.002294 0.000000 0.003322 0.000000
# 2 -0.007817 0.016211 -0.010626 0.000000 -0.005001 0.000000
# 3 0.002294 -0.010626 0.047809 0.000000 -0.007335 0.000000
# 4 0.000000 0.000000 0.000000 0.039965 0.000000 -0.012090
# 5 0.003322 -0.005001 -0.007335 0.000000 0.030874 0.000000
# 6 0.000000 0.000000 0.000000 -0.012090 0.000000 0.024672
#
#
# Mechanical properties :
#
#
# Convention : Reuss Voigt Hill
#
# Bulk Modulus (GPa) = 22.57775 49.32960 35.95368
# Shear Modulus (GPa) = 22.81415 33.78232 28.29824
#
# Velocity S-wave (km/s) = 3.15205 3.83562 3.51051
# Velocity P-wave (km/s) = 4.80413 6.41083 5.66474
#
# Compressibility (1/GPa) = 0.04429140
#
# Stress axis : x y z
#
# Youngs Moduli (GPa) = 79.56045 61.68579 20.91639
#
# Poissons Ratio (x) = 0.48222 -0.04799
# Poissons Ratio (y) = 0.62196 0.22226
# Poissons Ratio (z) = -0.18254 0.65547
#
# Static dielectric constant tensor:
#      x y z
#    x 2.031090 0.000000 0.048960 
#    y 0.000000 1.846470 0.000000 
#    z 0.048960 0.000000 2.204100 
# 
# From -- ./inp_files/121819.got.cif
#   From: 2010.05.17/outbox.cif.g08.bks.cpg/sg15_61_cif.got.tgz:121819.got - 2010.06.03 18:47:42.
