data_PCOD9292078
_publ_section_title
;
Structure prediction by ZEFSAII (Michael W. Deem and Ramdas Pophale) SiO2 
 PCOD9292078
Probable space group: C 2/C
;
_chemical_formula_sum "Si O2"
_cell_formula_units_Z 40
_cell_length_a 11.225000
_cell_length_b 24.772426
_cell_length_c 14.369569
_cell_angle_alpha 90.000000
_cell_angle_beta 150.625763
_cell_angle_gamma 90.000000
_cell_volume 1959.964638
_symmetry_space_group_name_H-M "C 2/C"
_symmetry_group_IT_number 15
_symmetry_cell_setting 'monoclinic'
loop_
_space_group_symop_operation_xyz
x,y,z
-x,y,1/2-z
-x,-y,-z
x,-y,1/2+z
1/2+x,1/2+y,z
1/2-x,1/2+y,1/2-z
1/2-x,1/2-y,-z
1/2+x,1/2-y,1/2+z
loop_
_atom_site_type_symbol
_atom_site_label
_atom_site_fract_x
_atom_site_fract_y
_atom_site_fract_z
Si Si1 0.376196 0.681121 0.855005
Si Si2 0.890986 0.059077 0.078222
Si Si3 0.000000 0.640132 0.750000
Si Si4 0.716630 0.114839 0.284302
Si Si5 0.128623 0.714298 0.501253
Si Si6 0.500000 0.024852 0.250000
O O1 0.295477 0.687095 0.693183
O O2 0.484843 0.738876 0.957068
O O3 0.166691 0.669567 0.787486
O O4 0.583843 0.635508 0.005004
O O5 0.000000 0.040559 0.250000
O O6 0.112584 0.089599 0.178680
O O7 0.678584 0.103796 0.935076
O O8 0.744074 0.010750 0.927582
O O9 0.552985 0.167628 0.155627
O O10 0.544376 0.065984 0.196354
O O11 0.250000 0.750000 0.500000
#
# Coordination Sequence:
#
# PCOD9292078 Si02
#       6
#     8   8   4   8   8   4
#     4  11  23  40  62  91 131 172 209 259 310 383
#     4  10  22  43  66  91 125 162 213 269 320 378
#     4   9  22  42  62  94 128 166 214 259 316 380
#     4  11  24  42  63  95 128 168 210 262 319 376
#     4  12  24  39  62  92 131 174 212 255 314 383
#     4  11  24  40  66  92 122 164 214 269 318 376
#
# _framework density 20.408531
#
# number of rings (size 3 to 8) (size 9 to 14) (size 15 to 20)
#    0.000    1.200    2.000    3.600    0.000    3.200 
#    1.800    0.000    0.000    0.000    0.000    0.000 
#    0.000    0.000    0.000    0.000    0.000    0.000 
#
# Total GULP energy -111448.573905 kJ/mol
# GULP energy per Si atom -5572.428695 kJ/mol
# Density = 2.036208 g / cm^3
# Si number density = 20.408531 Si / 1000 Ang^3
#
#
#
# Elastic Constant Matrix: (Units=GPa)
#
#
# Indices 1 2 3 4 5 6 
#
# 1 52.7307 39.5845 30.3802 0.0009 13.4651 0.0029
# 2 39.5845 110.7455 23.1537 0.0000 13.0964 0.0011
# 3 30.3802 23.1537 90.8391 0.0000 -10.9651 0.0049
# 4 0.0009 0.0000 0.0000 30.1224 0.0004 14.4933
# 5 13.4651 13.0964 -10.9651 0.0004 35.2172 0.0028
# 6 0.0029 0.0011 0.0049 14.4933 0.0028 15.7892
#
#
#
# Elastic Compliance Matrix: (Units=1/GPa)
#
#
# Indices 1 2 3 4 5 6 
#
# 1 0.035599 -0.008703 -0.011367 -0.000002 -0.013914 0.000001
# 2 -0.008703 0.012395 -0.000419 0.000000 -0.001413 0.000002
# 3 -0.011367 -0.000419 0.016064 0.000004 0.009504 -0.000008
# 4 -0.000002 0.000000 0.000004 0.059458 0.000006 -0.054578
# 5 -0.013914 -0.001413 0.009504 0.000006 0.037200 -0.000012
# 6 0.000001 0.000002 -0.000008 -0.054578 -0.000012 0.113433
#
#
# Mechanical properties :
#
#
# Convention : Reuss Voigt Hill
#
# Bulk Modulus (GPa) = 43.32686 48.95022 46.13854
# Shear Modulus (GPa) = 15.48849 26.97221 21.23035
#
# Velocity S-wave (km/s) = 2.75784 3.63935 3.22882
# Velocity P-wave (km/s) = 5.60507 6.45732 6.04623
#
# Compressibility (1/GPa) = 0.02308037
#
# Stress axis : x y z
#
# Youngs Moduli (GPa) = 28.09036 80.67735 62.25007
#
# Poissons Ratio (x) = 0.70210 0.70761
# Poissons Ratio (y) = 0.24446 0.02611
# Poissons Ratio (z) = 0.31931 0.03384
#
# Static dielectric constant tensor:
#      x y z
#    x 1.768510 0.000000 0.035720 
#    y 0.000000 1.721820 0.000000 
#    z 0.035720 0.000000 1.794670 
# 
# From -- ./inp_files/148019.got.cif
#   From: 2010.05.17/outbox.cif.g08.bks.cpg/sg15_75_cif.got.tgz:148019.got - 2010.06.03 18:47:42.
