data_PCOD9292962
_publ_section_title
;
Structure prediction by ZEFSAII (Michael W. Deem and Ramdas Pophale) SiO2 
 PCOD9292962
Probable space group: C 2/C
;
_chemical_formula_sum "Si O2"
_cell_formula_units_Z 44
_cell_length_a 25.859008
_cell_length_b 6.412483
_cell_length_c 13.837028
_cell_angle_alpha 90.000000
_cell_angle_beta 60.942080
_cell_angle_gamma 90.000000
_cell_volume 2005.656335
_symmetry_space_group_name_H-M "C 2/C"
_symmetry_group_IT_number 15
_symmetry_cell_setting 'monoclinic'
loop_
_space_group_symop_operation_xyz
x,y,z
-x,y,1/2-z
-x,-y,-z
x,-y,1/2+z
1/2+x,1/2+y,z
1/2-x,1/2+y,1/2-z
1/2-x,1/2-y,-z
1/2+x,1/2-y,1/2+z
loop_
_atom_site_type_symbol
_atom_site_label
_atom_site_fract_x
_atom_site_fract_y
_atom_site_fract_z
Si Si1 0.500000 0.059870 0.750000
Si Si2 0.676410 0.663677 0.478634
Si Si3 0.021173 0.688993 0.416975
Si Si4 0.209845 0.445146 0.069136
Si Si5 0.895411 0.834714 0.820285
Si Si6 0.915531 0.954221 0.586589
O O1 0.446981 0.213368 0.830844
O O2 0.473518 0.906444 0.693446
O O3 0.743683 0.580601 0.412620
O O4 0.637489 0.519211 0.589657
O O5 0.643674 0.631620 0.407311
O O6 0.683596 0.898256 0.511678
O O7 0.000000 0.500000 0.500000
O O8 0.967857 0.855519 0.474660
O O9 0.077937 0.796739 0.413438
O O10 0.153591 0.335080 0.165359
O O11 0.250000 0.250000 0.000000
O O12 0.922681 0.902763 0.693398
#
# Coordination Sequence:
#
# PCOD9292962 Si02
#       6
#     4   8   8   8   8   8
#     4  12  24  42  70  92 142 186 216 286 338 408
#     4  10  22  44  70  92 135 174 216 285 331 400
#     4  11  24  43  60  96 137 175 226 273 337 400
#     4   9  21  46  67  94 127 174 221 267 341 398
#     4  11  24  41  64 101 130 175 227 268 346 401
#     4  11  25  40  64 101 131 173 226 278 333 405
#
# _framework density 21.937956
#
# number of rings (size 3 to 8) (size 9 to 14) (size 15 to 20)
#    0.000    1.455    1.818    2.182    7.636    1.455 
#    9.818    0.000    0.000    0.000    0.000    0.000 
#    0.000    0.000    0.000    0.000    0.000    0.000 
#
# Total GULP energy -122691.425659 kJ/mol
# GULP energy per Si atom -5576.882984 kJ/mol
# Density = 2.188802 g / cm^3
# Si number density = 21.937956 Si / 1000 Ang^3
#
#
#
# Elastic Constant Matrix: (Units=GPa)
#
#
# Indices 1 2 3 4 5 6 
#
# 1 94.0733 32.6319 8.2482 0.0000 0.6215 0.0000
# 2 32.6319 121.0784 19.7160 0.0000 3.7279 -0.0005
# 3 8.2482 19.7160 48.5542 0.0000 -1.4089 0.0000
# 4 0.0000 0.0000 0.0000 35.6897 0.0000 -0.9925
# 5 0.6215 3.7279 -1.4089 0.0000 37.7513 0.0000
# 6 0.0000 -0.0005 0.0000 -0.9925 0.0000 40.0343
#
#
#
# Elastic Compliance Matrix: (Units=1/GPa)
#
#
# Indices 1 2 3 4 5 6 
#
# 1 0.011753 -0.003047 -0.000757 0.000000 0.000079 0.000000
# 2 -0.003047 0.009672 -0.003440 0.000000 -0.001033 0.000000
# 3 -0.000757 -0.003440 0.022155 0.000000 0.001179 0.000000
# 4 0.000000 0.000000 0.000000 0.028039 0.000000 0.000695
# 5 0.000079 -0.001033 0.001179 0.000000 0.026634 0.000000
# 6 0.000000 0.000000 0.000000 0.000695 0.000000 0.024996
#
#
# Mechanical properties :
#
#
# Convention : Reuss Voigt Hill
#
# Bulk Modulus (GPa) = 34.37283 42.76647 38.56965
# Shear Modulus (GPa) = 33.91363 36.23569 35.07466
#
# Velocity S-wave (km/s) = 3.93604 4.06856 4.00285
# Velocity P-wave (km/s) = 6.02983 6.45039 6.24365
#
# Compressibility (1/GPa) = 0.02909275
#
# Stress axis : x y z
#
# Youngs Moduli (GPa) = 85.08705 103.38933 45.13611
#
# Poissons Ratio (x) = 0.31499 0.03417
# Poissons Ratio (y) = 0.25923 0.15527
# Poissons Ratio (z) = 0.06442 0.35565
#
# Static dielectric constant tensor:
#      x y z
#    x 1.837500 0.000000 -0.044850 
#    y 0.000000 3.421290 0.000000 
#    z -0.044850 0.000000 1.755440 
# 
# From -- ./inp_files/175522.got.cif
#   From: 2010.05.17/outbox.cif.g08.bks.cpg/sg15_88_cif.got.tgz:175522.got - 2010.06.03 18:47:42.
