data_PCOD9292613
_publ_section_title
;
Structure prediction by ZEFSAII (Michael W. Deem and Ramdas Pophale) SiO2 
 PCOD9292613
Probable space group: C 2/C
;
_chemical_formula_sum "Si O2"
_cell_formula_units_Z 44
_cell_length_a 12.174808
_cell_length_b 19.467938
_cell_length_c 10.066285
_cell_angle_alpha 90.000000
_cell_angle_beta 67.037875
_cell_angle_gamma 90.000000
_cell_volume 2196.843552
_symmetry_space_group_name_H-M "C 2/C"
_symmetry_group_IT_number 15
_symmetry_cell_setting 'monoclinic'
loop_
_space_group_symop_operation_xyz
x,y,z
-x,y,1/2-z
-x,-y,-z
x,-y,1/2+z
1/2+x,1/2+y,z
1/2-x,1/2+y,1/2-z
1/2-x,1/2-y,-z
1/2+x,1/2-y,1/2+z
loop_
_atom_site_type_symbol
_atom_site_label
_atom_site_fract_x
_atom_site_fract_y
_atom_site_fract_z
Si Si1 0.834030 0.070279 0.402266
Si Si2 0.634494 0.171203 0.141821
Si Si3 0.639699 0.902011 0.177433
Si Si4 0.500000 0.315738 0.750000
Si Si5 0.686898 0.224500 0.824440
Si Si6 0.773942 0.033417 0.141710
O O1 0.699294 0.094867 0.503335
O O2 0.921716 0.133878 0.379278
O O3 0.840655 0.048889 0.246543
O O4 0.850945 0.006483 0.494052
O O5 0.500000 0.157764 0.250000
O O6 0.697680 0.228841 0.203419
O O7 0.714015 0.102436 0.115781
O O8 0.639379 0.199424 0.989581
O O9 0.500000 0.889000 0.250000
O O10 0.706843 0.843084 0.227166
O O11 0.671518 0.976716 0.221267
O O12 0.589012 0.269958 0.794374
#
# Coordination Sequence:
#
# PCOD9292613 Si02
#       6
#     8   8   8   4   8   8
#     4  10  25  41  69  97 136 181 224 287 330 414
#     4  11  25  42  71  96 142 175 231 283 343 402
#     4  10  23  40  69  96 135 171 225 282 337 391
#     4  12  24  46  68  96 138 184 238 262 350 410
#     4  11  25  43  65 105 133 185 222 280 344 411
#     4  10  22  44  65 103 131 176 231 274 353 382
#
# _framework density 20.028735999999999
#
# number of rings (size 3 to 8) (size 9 to 14) (size 15 to 20)
#    1.091    0.364    2.727    1.636    5.091    2.182 
#    0.000    0.000    4.000    0.000    0.000    0.000 
#    0.000    0.000    0.000    0.000    0.000    0.000 
#
# Total GULP energy -122723.521765 kJ/mol
# GULP energy per Si atom -5578.341898 kJ/mol
# Density = 1.998315 g / cm^3
# Si number density = 20.028736 Si / 1000 Ang^3
#
#
#
# Elastic Constant Matrix: (Units=GPa)
#
#
# Indices 1 2 3 4 5 6 
#
# 1 34.9288 13.7694 26.8401 0.0000 16.4324 0.0000
# 2 13.7694 105.0964 20.8136 0.0000 13.1668 0.0000
# 3 26.8401 20.8136 63.7164 0.0000 12.1570 0.0000
# 4 0.0000 0.0000 0.0000 19.1763 0.0000 6.2921
# 5 16.4324 13.1668 12.1570 0.0000 31.9641 0.0000
# 6 0.0000 0.0000 0.0000 6.2921 0.0000 35.8632
#
#
#
# Elastic Compliance Matrix: (Units=1/GPa)
#
#
# Indices 1 2 3 4 5 6 
#
# 1 0.051859 -0.000811 -0.017853 0.000000 -0.019536 0.000000
# 2 -0.000811 0.010490 -0.002523 0.000000 -0.002944 0.000000
# 3 -0.017853 -0.002523 0.023818 0.000000 0.001158 0.000000
# 4 0.000000 0.000000 0.000000 0.055333 0.000000 -0.009708
# 5 -0.019536 -0.002944 0.001158 0.000000 0.042101 0.000000
# 6 0.000000 0.000000 0.000000 -0.009708 0.000000 0.029587
#
#
# Mechanical properties :
#
#
# Convention : Reuss Voigt Hill
#
# Bulk Modulus (GPa) = 22.83497 36.28756 29.56126
# Shear Modulus (GPa) = 18.50764 26.88863 22.69813
#
# Velocity S-wave (km/s) = 3.04312 3.66799 3.37007
# Velocity P-wave (km/s) = 4.87579 6.00799 5.47126
#
# Compressibility (1/GPa) = 0.04379249
#
# Stress axis : x y z
#
# Youngs Moduli (GPa) = 19.28321 95.32956 41.98496
#
# Poissons Ratio (x) = 0.07733 0.74954
# Poissons Ratio (y) = 0.01564 0.10593
# Poissons Ratio (z) = 0.34426 0.24053
#
# Static dielectric constant tensor:
#      x y z
#    x 1.706960 0.000000 -0.008920 
#    y 0.000000 1.711330 0.000000 
#    z -0.008920 0.000000 1.706770 
# 
# From -- ./inp_files/87191.got.cif
#   From: 2010.05.17/outbox.cif.g08.bks.cpg/sg15_44_cif.got.tgz:87191.got - 2010.06.03 18:47:42.
