data_PCOD9292172
_publ_section_title
;
Structure prediction by ZEFSAII (Michael W. Deem and Ramdas Pophale) SiO2 
 PCOD9292172
Probable space group: C 2/C
;
_chemical_formula_sum "Si O2"
_cell_formula_units_Z 64
_cell_length_a 28.607630
_cell_length_b 8.235355
_cell_length_c 22.684154
_cell_angle_alpha 90.000000
_cell_angle_beta 31.869378
_cell_angle_gamma 90.000000
_cell_volume 2821.681454
_symmetry_space_group_name_H-M "C 2/C"
_symmetry_group_IT_number 15
_symmetry_cell_setting 'monoclinic'
loop_
_space_group_symop_operation_xyz
x,y,z
-x,y,1/2-z
-x,-y,-z
x,-y,1/2+z
1/2+x,1/2+y,z
1/2-x,1/2+y,1/2-z
1/2-x,1/2-y,-z
1/2+x,1/2-y,1/2+z
loop_
_atom_site_type_symbol
_atom_site_label
_atom_site_fract_x
_atom_site_fract_y
_atom_site_fract_z
Si Si1 0.820786 0.281105 0.370920
Si Si2 0.179177 0.177481 0.668577
Si Si3 0.280163 0.401659 0.791877
Si Si4 0.079979 0.320433 0.968265
Si Si5 0.406656 0.536660 0.338943
Si Si6 0.885170 0.057979 0.063648
Si Si7 0.779154 0.954704 0.568283
Si Si8 0.017018 0.646682 0.401218
O O1 0.750000 0.250000 0.500000
O O2 0.798430 0.199003 0.332023
O O3 0.806947 0.463620 0.367429
O O4 0.910266 0.210360 0.302374
O O5 0.151987 0.063918 0.643920
O O6 0.268733 0.272719 0.558009
O O7 0.094704 0.286215 0.776271
O O8 0.206234 0.082622 0.698783
O O9 0.182539 0.359717 0.873364
O O10 0.352698 0.387243 0.662940
O O11 0.057479 0.349778 0.923936
O O12 0.069236 0.122410 0.987980
O O13 0.022742 0.462705 0.063393
O O14 0.500000 0.459293 0.250000
O O15 0.360510 0.545206 0.451250
O O16 0.796662 0.040368 0.118470
O O17 0.943581 0.208073 0.977315
#
# Coordination Sequence:
#
# PCOD9292172 Si02
#       8
#     8   8   8   8   8   8   8   8
#     4   9  21  42  65  93 131 174 228 279 332 408
#     4  11  23  42  65  95 131 175 226 284 340 408
#     4  11  23  41  65  96 131 180 232 272 336 422
#     4  11  24  41  62  98 139 180 225 280 341 413
#     4  10  22  43  67  93 128 171 225 283 349 408
#     4  12  24  41  69  98 139 180 223 281 352 408
#     4  11  22  41  67  98 129 173 228 274 342 420
#     4  11  25  43  61 100 142 176 227 280 345 413
#
# _framework density 22.681512000000001
#
# number of rings (size 3 to 8) (size 9 to 14) (size 15 to 20)
#    0.000    1.250    2.500    3.000    1.750    2.000 
#    4.500    0.625    0.000    0.000    0.000    0.000 
#    0.000    0.000    0.000    0.000    0.000    0.000 
#
# Total GULP energy -178235.675595 kJ/mol
# GULP energy per Si atom -5569.864862 kJ/mol
# Density = 2.262989 g / cm^3
# Si number density = 22.681512 Si / 1000 Ang^3
#
#
#
# Elastic Constant Matrix: (Units=GPa)
#
#
# Indices 1 2 3 4 5 6 
#
# 1 82.2948 12.4188 7.7783 0.0050 6.5463 -0.0036
# 2 12.4188 75.4631 39.8602 0.0150 5.3576 -0.0057
# 3 7.7783 39.8602 38.4290 0.0074 13.3724 0.0002
# 4 0.0050 0.0150 0.0074 31.9698 -0.0036 3.4954
# 5 6.5463 5.3576 13.3724 -0.0036 28.6693 0.0019
# 6 -0.0036 -0.0057 0.0002 3.4954 0.0019 -10.5139
#
#
#
# Elastic Compliance Matrix: (Units=1/GPa)
#
#
# Indices 1 2 3 4 5 6 
#
# 1 0.012649 -0.002323 0.000840 -0.000001 -0.002846 -0.000004
# 2 -0.002323 0.032580 -0.037471 -0.000003 0.011920 -0.000016
# 3 0.000840 -0.037471 0.074429 -0.000005 -0.027906 0.000015
# 4 -0.000001 -0.000003 -0.000005 0.030182 0.000006 0.010034
# 5 -0.002846 0.011920 -0.027906 0.000006 0.046319 0.000004
# 6 -0.000004 -0.000016 0.000015 0.010034 0.000004 -0.091776
#
#
# Mechanical properties :
#
#
# Convention : Reuss Voigt Hill
#
# Bulk Modulus (GPa) = 23.95259 35.14463 29.54861
# Shear Modulus (GPa) = 25.48303 19.10034 22.29168
#
# Velocity S-wave (km/s) = 3.35552 2.90506 3.13839
# Velocity P-wave (km/s) = 5.05925 5.17504 5.11747
#
# Compressibility (1/GPa) = 0.04174914
#
# Stress axis : x y z
#
# Youngs Moduli (GPa) = 79.05754 30.69363 13.43560
#
# Poissons Ratio (x) = 0.07130 -0.01128
# Poissons Ratio (y) = 0.18365 0.50345
# Poissons Ratio (z) = -0.06637 1.15012
#
# Static dielectric constant tensor:
#      x y z
#    x 1.827040 0.000000 -0.004040 
#    y 0.000000 1.979190 0.000000 
#    z -0.004040 0.000000 1.860070 
# 
# From -- ./inp_files/284430.got.cif
#   From: 2010.05.17/outbox.cif.g08.bks.cpg/sg15_143_cif.got.tgz:284430.got - 2010.06.03 18:47:42.
