data_PCOD9292560
_publ_section_title
;
Structure prediction by ZEFSAII (Michael W. Deem and Ramdas Pophale) SiO2 
 PCOD9292560
Probable space group: C 2/C
;
_chemical_formula_sum "Si O2"
_cell_formula_units_Z 36
_cell_length_a 21.507298
_cell_length_b 12.776557
_cell_length_c 13.552056
_cell_angle_alpha 90.000000
_cell_angle_beta 155.664078
_cell_angle_gamma 90.000000
_cell_volume 1534.590160
_symmetry_space_group_name_H-M "C 2/C"
_symmetry_group_IT_number 15
_symmetry_cell_setting 'monoclinic'
loop_
_space_group_symop_operation_xyz
x,y,z
-x,y,1/2-z
-x,-y,-z
x,-y,1/2+z
1/2+x,1/2+y,z
1/2-x,1/2+y,1/2-z
1/2-x,1/2-y,-z
1/2+x,1/2-y,1/2+z
loop_
_atom_site_type_symbol
_atom_site_label
_atom_site_fract_x
_atom_site_fract_y
_atom_site_fract_z
Si Si1 0.430066 0.275687 0.758289
Si Si2 0.116343 0.409346 0.185139
Si Si3 0.659067 0.868608 0.022700
Si Si4 0.000000 0.167860 0.750000
Si Si5 0.624739 0.500064 0.796242
O O1 0.500000 0.272813 0.750000
O O2 0.250000 0.250000 0.500000
O O3 0.479526 0.179731 0.896746
O O4 0.453941 0.389594 0.839729
O O5 0.256172 0.459867 0.447403
O O6 0.167485 0.367025 0.152724
O O7 0.000000 0.500000 0.000000
O O8 0.500000 0.913170 0.750000
O O9 0.642114 0.747614 0.962146
O O10 0.780955 0.944438 0.152058
O O11 0.982698 0.089115 0.815617
#
# Coordination Sequence:
#
# PCOD9292560 Si02
#       5
#     8   8   8   4   8
#     4  10  24  43  69 101 137 177 231 286 340 408
#     4  11  23  41  69  98 130 181 229 274 354 410
#     4  10  23  41  65  94 132 179 222 281 340 408
#     4  10  22  44  62  96 140 176 222 278 360 386
#     4  11  22  45  67  96 138 175 229 288 335 415
#
# _framework density 23.459032000000001
#
# number of rings (size 3 to 8) (size 9 to 14) (size 15 to 20)
#    0.667    0.889    3.333    0.667    6.222    1.778 
#   12.000    2.222    0.000    0.000    0.000    0.000 
#    0.000    0.000    0.000    0.000    0.000    0.000 
#
# Total GULP energy -100516.281004 kJ/mol
# GULP energy per Si atom -5584.237834 kJ/mol
# Density = 2.340564 g / cm^3
# Si number density = 23.459032 Si / 1000 Ang^3
#
#
#
# Elastic Constant Matrix: (Units=GPa)
#
#
# Indices 1 2 3 4 5 6 
#
# 1 146.7578 90.7403 19.8394 0.0000 23.2410 0.0000
# 2 90.7403 233.7301 16.9395 0.0000 9.7509 0.0000
# 3 19.8394 16.9395 71.6607 0.0000 -14.4054 0.0000
# 4 0.0000 0.0000 0.0000 12.7784 0.0000 4.6617
# 5 23.2410 9.7509 -14.4054 0.0000 33.4144 0.0000
# 6 0.0000 0.0000 0.0000 4.6617 0.0000 52.9998
#
#
#
# Elastic Compliance Matrix: (Units=1/GPa)
#
#
# Indices 1 2 3 4 5 6 
#
# 1 0.010831 -0.003592 -0.003781 0.000000 -0.008115 0.000000
# 2 -0.003592 0.005655 -0.000188 0.000000 0.000768 0.000000
# 3 -0.003781 -0.000188 0.017064 0.000000 0.010041 0.000000
# 4 0.000000 0.000000 0.000000 0.080851 0.000000 -0.007111
# 5 -0.008115 0.000768 0.010041 0.000000 0.039677 0.000000
# 6 0.000000 0.000000 0.000000 -0.007111 0.000000 0.019494
#
#
# Mechanical properties :
#
#
# Convention : Reuss Voigt Hill
#
# Bulk Modulus (GPa) = 54.26474 78.57632 66.42053
# Shear Modulus (GPa) = 25.66248 41.48047 33.57147
#
# Velocity S-wave (km/s) = 3.31105 4.20957 3.78705
# Velocity P-wave (km/s) = 6.14811 7.56275 6.89182
#
# Compressibility (1/GPa) = 0.01842817
#
# Stress axis : x y z
#
# Youngs Moduli (GPa) = 92.32358 176.84320 58.60190
#
# Poissons Ratio (x) = 0.63531 0.22157
# Poissons Ratio (y) = 0.33167 0.01101
# Poissons Ratio (z) = 0.34906 0.03321
#
# Static dielectric constant tensor:
#      x y z
#    x 1.832240 0.000000 0.056610 
#    y 0.000000 1.912000 0.000000 
#    z 0.056610 0.000000 2.022120 
# 
# From -- ./inp_files/94734.got.cif
#   From: 2010.05.17/outbox.cif.g08.bks.cpg/sg15_48_cif.got.tgz:94734.got - 2010.06.03 18:47:42.
