data_PCOD9292553
_publ_section_title
;
Structure prediction by ZEFSAII (Michael W. Deem and Ramdas Pophale) SiO2 
 PCOD9292553
Probable space group: C 2/C
;
_chemical_formula_sum "Si O2"
_cell_formula_units_Z 56
_cell_length_a 11.293123
_cell_length_b 8.575935
_cell_length_c 30.263452
_cell_angle_alpha 90.000000
_cell_angle_beta 64.738229
_cell_angle_gamma 90.000000
_cell_volume 2650.690037
_symmetry_space_group_name_H-M "C 2/C"
_symmetry_group_IT_number 15
_symmetry_cell_setting 'monoclinic'
loop_
_space_group_symop_operation_xyz
x,y,z
-x,y,1/2-z
-x,-y,-z
x,-y,1/2+z
1/2+x,1/2+y,z
1/2-x,1/2+y,1/2-z
1/2-x,1/2-y,-z
1/2+x,1/2-y,1/2+z
loop_
_atom_site_type_symbol
_atom_site_label
_atom_site_fract_x
_atom_site_fract_y
_atom_site_fract_z
Si Si1 0.500000 0.234327 0.250000
Si Si2 0.301102 0.992084 0.906826
Si Si3 0.491029 0.481169 0.174051
Si Si4 0.305104 0.982994 0.306621
Si Si5 0.852834 0.607369 0.990382
Si Si6 0.500000 0.728612 0.250000
Si Si7 0.034295 0.155185 0.967291
Si Si8 0.183628 0.860012 0.071346
O O1 0.493708 0.336906 0.207217
O O2 0.370441 0.129719 0.272381
O O3 0.356657 0.008113 0.848979
O O4 0.385170 0.045694 0.936133
O O5 0.177178 0.109013 0.926525
O O6 0.265192 0.809107 0.920444
O O7 0.351563 0.485667 0.171249
O O8 0.500695 0.627067 0.205401
O O9 0.612062 0.456903 0.121561
O O10 0.370643 0.834612 0.273088
O O11 0.750000 0.750000 0.000000
O O12 0.960899 0.693664 0.002342
O O13 0.782446 0.471966 0.029450
O O14 0.930873 0.177434 0.945362
O O15 0.000000 0.000000 0.000000
#
# Coordination Sequence:
#
# PCOD9292553 Si02
#       8
#     4   8   8   8   8   4   8   8
#     4  10  22  44  62  92 122 156 206 264 312 358
#     4  11  23  41  63  94 126 164 209 255 310 373
#     4  11  23  40  67  89 123 163 206 253 319 369
#     4  11  22  42  65  90 123 163 206 257 313 368
#     4  10  23  40  63  92 128 164 207 254 302 376
#     4  10  26  40  64  92 124 158 212 264 306 374
#     4  11  23  42  65  88 128 172 203 254 311 363
#     4  12  23  41  64  94 128 165 207 259 310 372
#
# _framework density 21.126574999999999
#
# number of rings (size 3 to 8) (size 9 to 14) (size 15 to 20)
#    0.000    1.143    5.714    1.286    4.000    0.571 
#    0.000    0.000    0.000    0.000    0.000    0.000 
#    0.000    0.000    0.000    0.000    0.000    0.000 
#
# Total GULP energy -156420.542005 kJ/mol
# GULP energy per Si atom -5586.447929 kJ/mol
# Density = 2.107849 g / cm^3
# Si number density = 21.126575 Si / 1000 Ang^3
#
#
#
# Elastic Constant Matrix: (Units=GPa)
#
#
# Indices 1 2 3 4 5 6 
#
# 1 62.9937 26.3953 19.2750 0.0000 7.1793 0.0000
# 2 26.3953 102.5356 22.9286 0.0000 10.3074 0.0000
# 3 19.2750 22.9286 95.4754 0.0000 22.5095 0.0000
# 4 0.0000 0.0000 0.0000 18.7515 0.0000 4.6611
# 5 7.1793 10.3074 22.5095 0.0000 26.3973 0.0000
# 6 0.0000 0.0000 0.0000 4.6611 0.0000 29.7640
#
#
#
# Elastic Compliance Matrix: (Units=1/GPa)
#
#
# Indices 1 2 3 4 5 6 
#
# 1 0.018482 -0.004077 -0.002431 0.000000 -0.001362 0.000000
# 2 -0.004077 0.011328 -0.001397 0.000000 -0.002123 0.000000
# 3 -0.002431 -0.001397 0.013787 0.000000 -0.010550 0.000000
# 4 0.000000 0.000000 0.000000 0.055489 0.000000 -0.008690
# 5 -0.001362 -0.002123 -0.010550 0.000000 0.048078 0.000000
# 6 0.000000 0.000000 0.000000 -0.008690 0.000000 0.034958
#
#
# Mechanical properties :
#
#
# Convention : Reuss Voigt Hill
#
# Bulk Modulus (GPa) = 35.98741 44.24472 40.11607
# Shear Modulus (GPa) = 24.13170 27.80961 25.97066
#
# Velocity S-wave (km/s) = 3.38338 3.63207 3.50993
# Velocity P-wave (km/s) = 5.68631 6.21107 5.95447
#
# Compressibility (1/GPa) = 0.02778749
#
# Stress axis : x y z
#
# Youngs Moduli (GPa) = 54.10648 88.27613 72.52958
#
# Poissons Ratio (x) = 0.35993 0.17633
# Poissons Ratio (y) = 0.22061 0.10130
# Poissons Ratio (z) = 0.13154 0.12330
#
# Static dielectric constant tensor:
#      x y z
#    x 1.792220 0.000000 0.030850 
#    y 0.000000 1.770210 0.000000 
#    z 0.030850 0.000000 1.805320 
# 
# From -- ./inp_files/291563.got.cif
#   From: 2010.05.17/outbox.cif.g08.bks.cpg/sg15_146_cif.got.tgz:291563.got - 2010.06.03 18:47:42.
