data_PCOD9292156
_publ_section_title
;
Structure prediction by ZEFSAII (Michael W. Deem and Ramdas Pophale) SiO2 
 PCOD9292156
Probable space group: C 2/C
;
_chemical_formula_sum "Si O2"
_cell_formula_units_Z 40
_cell_length_a 14.396041
_cell_length_b 5.107213
_cell_length_c 24.735976
_cell_angle_alpha 90.000000
_cell_angle_beta 62.333151
_cell_angle_gamma 90.000000
_cell_volume 1610.735832
_symmetry_space_group_name_H-M "C 2/C"
_symmetry_group_IT_number 15
_symmetry_cell_setting 'monoclinic'
loop_
_space_group_symop_operation_xyz
x,y,z
-x,y,1/2-z
-x,-y,-z
x,-y,1/2+z
1/2+x,1/2+y,z
1/2-x,1/2+y,1/2-z
1/2-x,1/2-y,-z
1/2+x,1/2-y,1/2+z
loop_
_atom_site_type_symbol
_atom_site_label
_atom_site_fract_x
_atom_site_fract_y
_atom_site_fract_z
Si Si1 0.808404 0.612583 0.875859
Si Si2 0.002723 0.200204 0.119336
Si Si3 0.633076 0.559440 0.492298
Si Si4 0.219893 0.073459 0.291605
Si Si5 0.381373 0.935141 0.569982
O O1 0.739128 0.873190 0.882950
O O2 0.778046 0.433756 0.833576
O O3 0.756243 0.498411 0.945510
O O4 0.928769 0.672608 0.852021
O O5 0.904095 0.029820 0.164824
O O6 0.087019 0.036311 0.061089
O O7 0.947782 0.427956 0.098469
O O8 0.616515 0.856851 0.479276
O O9 0.414130 0.648075 0.539537
O O10 0.265742 0.844894 0.242597
#
# Coordination Sequence:
#
# PCOD9292156 Si02
#       5
#     8   8   8   8   8
#     4  10  26  48  76 112 144 184 243 297 368 441
#     4  12  23  50  78 109 146 199 225 307 374 423
#     4  10  23  44  73 115 154 176 230 293 373 455
#     4  12  29  53  72 100 145 195 259 307 339 421
#     4  10  22  43  67 113 154 178 225 285 357 455
#
# _framework density 24.833372000000001
#
# number of rings (size 3 to 8) (size 9 to 14) (size 15 to 20)
#    1.200    0.000    2.000    3.000    0.000    3.200 
#   10.800    6.000    0.000    0.000    0.000    0.000 
#    0.000    0.000    0.000    0.000    0.000    0.000 
#
# Total GULP energy -111905.478423 kJ/mol
# GULP energy per Si atom -5595.273921 kJ/mol
# Density = 2.477685 g / cm^3
# Si number density = 24.833372 Si / 1000 Ang^3
#
#
#
# Elastic Constant Matrix: (Units=GPa)
#
#
# Indices 1 2 3 4 5 6 
#
# 1 136.0007 9.7013 27.1343 -0.0091 22.3242 -0.0007
# 2 9.7013 115.1188 18.2019 -0.0230 2.9894 0.0046
# 3 27.1343 18.2019 94.3784 -0.0070 -8.2452 -0.0011
# 4 -0.0091 -0.0230 -0.0070 32.3718 -0.0026 -4.3483
# 5 22.3242 2.9894 -8.2452 -0.0026 14.7037 -0.0023
# 6 -0.0007 0.0046 -0.0011 -4.3483 -0.0023 35.8496
#
#
#
# Elastic Compliance Matrix: (Units=1/GPa)
#
#
# Indices 1 2 3 4 5 6 
#
# 1 0.011839 0.000389 -0.005316 0.000001 -0.021035 -0.000001
# 2 0.000389 0.009095 -0.002186 0.000006 -0.003666 -0.000001
# 3 -0.005316 -0.002186 0.013974 0.000002 0.016352 0.000002
# 4 0.000001 0.000006 0.000002 0.031403 0.000005 0.003809
# 5 -0.021035 -0.003666 0.016352 0.000005 0.109862 0.000008
# 6 -0.000001 -0.000001 0.000002 0.003809 0.000008 0.028356
#
#
# Mechanical properties :
#
#
# Convention : Reuss Voigt Hill
#
# Bulk Modulus (GPa) = 48.35360 50.61920 49.48640
# Shear Modulus (GPa) = 22.15832 35.94903 29.05368
#
# Velocity S-wave (km/s) = 2.99035 3.80887 3.42416
# Velocity P-wave (km/s) = 5.60682 6.30644 5.96689
#
# Compressibility (1/GPa) = 0.02068098
#
# Stress axis : x y z
#
# Youngs Moduli (GPa) = 84.46921 109.95362 71.55975
#
# Poissons Ratio (x) = -0.04279 0.38044
# Poissons Ratio (y) = -0.03287 0.15644
# Poissons Ratio (z) = 0.44907 0.24038
#
# Static dielectric constant tensor:
#      x y z
#    x 2.059350 0.000000 -0.057360 
#    y 0.000000 1.973170 0.000000 
#    z -0.057360 0.000000 2.016660 
# 
# From -- ./inp_files/290530.got.cif
#   From: 2010.05.17/outbox.cif.g08.bks.cpg/sg15_146_cif.got.tgz:290530.got - 2010.06.03 18:47:42.
