data_PCOD9292473
_publ_section_title
;
Structure prediction by ZEFSAII (Michael W. Deem and Ramdas Pophale) SiO2 
 PCOD9292473
Probable space group: C 2/C
;
_chemical_formula_sum "Si O2"
_cell_formula_units_Z 56
_cell_length_a 12.062821
_cell_length_b 8.503678
_cell_length_c 20.696685
_cell_angle_alpha 90.000000
_cell_angle_beta 91.015605
_cell_angle_gamma 90.000000
_cell_volume 2122.698188
_symmetry_space_group_name_H-M "C 2/C"
_symmetry_group_IT_number 15
_symmetry_cell_setting 'monoclinic'
loop_
_space_group_symop_operation_xyz
x,y,z
-x,y,1/2-z
-x,-y,-z
x,-y,1/2+z
1/2+x,1/2+y,z
1/2-x,1/2+y,1/2-z
1/2-x,1/2-y,-z
1/2+x,1/2-y,1/2+z
loop_
_atom_site_type_symbol
_atom_site_label
_atom_site_fract_x
_atom_site_fract_y
_atom_site_fract_z
Si Si1 0.629648 0.456108 0.010633
Si Si2 0.244364 0.207291 0.803882
Si Si3 0.862207 0.281553 0.883324
Si Si4 0.055658 0.442095 0.817829
Si Si5 0.047431 0.742173 0.908256
Si Si6 0.649349 0.379905 0.796117
Si Si7 0.325496 0.104102 0.945241
O O1 0.645316 0.383202 0.080993
O O2 0.724850 0.582860 0.994691
O O3 0.500000 0.500000 0.000000
O O4 0.637547 0.314738 0.957727
O O5 0.171260 0.362244 0.804864
O O6 0.350417 0.258705 0.763177
O O7 0.274355 0.157932 0.876480
O O8 0.174223 0.058962 0.776966
O O9 0.759202 0.318386 0.835770
O O10 0.866751 0.425212 0.934775
O O11 0.975273 0.307191 0.845496
O O12 0.068344 0.579348 0.870660
O O13 0.000000 0.491093 0.750000
O O14 0.051653 0.864287 0.847796
O O15 0.936488 0.708660 0.948646
#
# Coordination Sequence:
#
# PCOD9292473 Si02
#       7
#     8   8   8   8   8   8   8
#     4  12  25  49  74 101 150 190 249 310 365 447
#     4  11  22  45  69 105 149 188 237 306 365 447
#     4  10  22  43  72  97 142 190 235 298 366 428
#     4  11  23  44  70 106 147 187 243 305 372 440
#     4  11  26  45  72 102 141 197 240 300 373 436
#     4  11  23  42  71 103 141 190 240 297 371 439
#     4  10  24  45  69 104 144 186 245 301 363 441
#
# _framework density 26.381516999999999
#
# number of rings (size 3 to 8) (size 9 to 14) (size 15 to 20)
#    0.000    1.143    4.286    2.143    4.000    2.857 
#    7.714    0.000    0.000    0.857    0.000    0.000 
#    0.000    0.000    0.000    0.000    0.000    0.000 
#
# Total GULP energy -156690.104026 kJ/mol
# GULP energy per Si atom -5596.075144 kJ/mol
# Density = 2.632147 g / cm^3
# Si number density = 26.381517 Si / 1000 Ang^3
#
#
#
# Elastic Constant Matrix: (Units=GPa)
#
#
# Indices 1 2 3 4 5 6 
#
# 1 111.2484 40.8092 24.7573 0.0000 -23.4435 0.0000
# 2 40.8092 115.2021 45.5093 0.0000 -4.8314 0.0000
# 3 24.7573 45.5093 82.7073 0.0000 -22.4792 0.0000
# 4 0.0000 0.0000 0.0000 43.5131 0.0000 -4.9579
# 5 -23.4435 -4.8314 -22.4792 0.0000 40.2770 0.0000
# 6 0.0000 0.0000 0.0000 -4.9579 0.0000 58.4555
#
#
#
# Elastic Compliance Matrix: (Units=1/GPa)
#
#
# Indices 1 2 3 4 5 6 
#
# 1 0.011780 -0.004110 0.000548 0.000000 0.006669 0.000000
# 2 -0.004110 0.012733 -0.007086 0.000000 -0.004820 0.000000
# 3 0.000548 -0.007086 0.018486 0.000000 0.009786 0.000000
# 4 0.000000 0.000000 0.000000 0.023206 0.000000 0.001968
# 5 0.006669 -0.004820 0.009786 0.000000 0.033594 0.000000
# 6 0.000000 0.000000 0.000000 0.001968 0.000000 0.017274
#
#
# Mechanical properties :
#
#
# Convention : Reuss Voigt Hill
#
# Bulk Modulus (GPa) = 46.07651 59.03439 52.55545
# Shear Modulus (GPa) = 34.33991 41.65458 37.99724
#
# Velocity S-wave (km/s) = 3.61177 3.97789 3.79924
# Velocity P-wave (km/s) = 5.90733 6.59726 6.26181
#
# Compressibility (1/GPa) = 0.02170303
#
# Stress axis : x y z
#
# Youngs Moduli (GPa) = 84.88989 78.53353 54.09556
#
# Poissons Ratio (x) = 0.32274 -0.02963
# Poissons Ratio (y) = 0.34887 0.38333
# Poissons Ratio (z) = -0.04650 0.55651
#
# Static dielectric constant tensor:
#      x y z
#    x 2.087970 0.000000 -0.046010 
#    y 0.000000 2.065180 0.000000 
#    z -0.046010 0.000000 2.102360 
# 
# From -- ./inp_files/242771.got.cif
#   From: 2010.05.17/outbox.cif.g08.bks.cpg/sg15_122_cif.got.tgz:242771.got - 2010.06.03 18:47:42.
