data_PCOD9292942
_publ_section_title
;
Structure prediction by ZEFSAII (Michael W. Deem and Ramdas Pophale) SiO2 
 PCOD9292942
Probable space group: C 2/C
;
_chemical_formula_sum "Si O2"
_cell_formula_units_Z 52
_cell_length_a 20.069255
_cell_length_b 18.459001
_cell_length_c 8.425536
_cell_angle_alpha 90.000000
_cell_angle_beta 44.731723
_cell_angle_gamma 90.000000
_cell_volume 2196.741372
_symmetry_space_group_name_H-M "C 2/C"
_symmetry_group_IT_number 15
_symmetry_cell_setting 'monoclinic'
loop_
_space_group_symop_operation_xyz
x,y,z
-x,y,1/2-z
-x,-y,-z
x,-y,1/2+z
1/2+x,1/2+y,z
1/2-x,1/2+y,1/2-z
1/2-x,1/2-y,-z
1/2+x,1/2-y,1/2+z
loop_
_atom_site_type_symbol
_atom_site_label
_atom_site_fract_x
_atom_site_fract_y
_atom_site_fract_z
Si Si1 0.601504 0.207930 0.663288
Si Si2 0.945947 0.575616 0.564102
Si Si3 0.126506 0.967614 0.777617
Si Si4 0.500000 0.546620 0.250000
Si Si5 0.130708 0.379178 0.613762
Si Si6 0.712894 0.410414 0.914446
Si Si7 0.694094 0.738431 0.331620
O O1 0.500000 0.225781 0.750000
O O2 0.595953 0.121861 0.720495
O O3 0.631126 0.247444 0.779956
O O4 0.695010 0.225007 0.399644
O O5 0.875940 0.569463 0.531141
O O6 0.000000 0.500000 0.500000
O O7 0.026414 0.630142 0.360418
O O8 0.157129 0.035916 0.623843
O O9 0.211608 0.936420 0.735044
O O10 0.055851 0.996243 0.032117
O O11 0.075756 0.914774 0.736079
O O12 0.188055 0.407591 0.665933
O O13 0.180218 0.307824 0.464881
O O14 0.664453 0.332322 0.979982
#
# Coordination Sequence:
#
# PCOD9292942 Si02
#       7
#     8   8   8   4   8   8   8
#     4  10  22  44  70 103 143 187 248 301 364 449
#     4  10  23  41  69 106 143 188 227 304 373 438
#     4   9  20  37  64  91 123 167 232 279 354 417
#     4   8  16  42  54  78 128 156 200 286 324 392
#     4  10  23  42  67  97 140 181 244 282 363 451
#     4  11  22  40  66  97 132 182 226 298 350 434
#     4  10  23  46  68  98 145 193 240 306 365 444
#
# _framework density 23.671424999999999
#
# number of rings (size 3 to 8) (size 9 to 14) (size 15 to 20)
#    0.000    2.154    0.000    1.385    4.308    1.231 
#   15.231   26.154    0.000    0.000    0.000    0.000 
#    0.000    0.000    0.000    0.000    0.000    0.000 
#
# Total GULP energy -144956.171879 kJ/mol
# GULP energy per Si atom -5575.237380 kJ/mol
# Density = 2.361755 g / cm^3
# Si number density = 23.671425 Si / 1000 Ang^3
#
#
#
# Elastic Constant Matrix: (Units=GPa)
#
#
# Indices 1 2 3 4 5 6 
#
# 1 236.3820 58.3502 48.5401 0.0000 19.3526 0.0000
# 2 58.3502 107.2078 39.0170 0.0000 -1.8217 0.0000
# 3 48.5401 39.0170 94.5862 0.0000 -4.6135 0.0000
# 4 0.0000 0.0000 0.0000 21.9100 0.0000 -5.8168
# 5 19.3526 -1.8217 -4.6135 0.0000 29.0364 0.0000
# 6 0.0000 0.0000 0.0000 -5.8168 0.0000 24.5227
#
#
#
# Elastic Compliance Matrix: (Units=1/GPa)
#
#
# Indices 1 2 3 4 5 6 
#
# 1 0.005586 -0.002346 -0.002104 0.000000 -0.004204 0.000000
# 2 -0.002346 0.011961 -0.003645 0.000000 0.001735 0.000000
# 3 -0.002104 -0.003645 0.013316 0.000000 0.003289 0.000000
# 4 0.000000 0.000000 0.000000 0.048709 0.000000 0.011554
# 5 -0.004204 0.001735 0.003289 0.000000 0.037873 0.000000
# 6 0.000000 0.000000 0.000000 0.011554 0.000000 0.043519
#
#
# Mechanical properties :
#
#
# Convention : Reuss Voigt Hill
#
# Bulk Modulus (GPa) = 68.15531 81.11007 74.63269
# Shear Modulus (GPa) = 27.46581 34.57840 31.02211
#
# Velocity S-wave (km/s) = 3.41000 3.82614 3.62405
# Velocity P-wave (km/s) = 6.66025 7.33884 7.00776
#
# Compressibility (1/GPa) = 0.01467237
#
# Stress axis : x y z
#
# Youngs Moduli (GPa) = 179.02659 83.60758 75.09671
#
# Poissons Ratio (x) = 0.19614 0.15800
# Poissons Ratio (y) = 0.41998 0.27375
# Poissons Ratio (z) = 0.37665 0.30477
#
# Static dielectric constant tensor:
#      x y z
#    x 2.097340 0.000000 -0.047820 
#    y 0.000000 1.966860 0.000000 
#    z -0.047820 0.000000 1.916700 
# 
# From -- ./inp_files/56950.got.cif
#   From: 2010.05.17/outbox.cif.g08.bks.cpg/sg15_29_cif.got.tgz:56950.got - 2010.06.03 18:47:42.
