data_PCOD9292700
_publ_section_title
;
Structure prediction by ZEFSAII (Michael W. Deem and Ramdas Pophale) SiO2 
 PCOD9292700
Probable space group: C 2/C
;
_chemical_formula_sum "Si O2"
_cell_formula_units_Z 56
_cell_length_a 12.165552
_cell_length_b 8.824828
_cell_length_c 26.369355
_cell_angle_alpha 90.000000
_cell_angle_beta 67.144227
_cell_angle_gamma 90.000000
_cell_volume 2608.711670
_symmetry_space_group_name_H-M "C 2/C"
_symmetry_group_IT_number 15
_symmetry_cell_setting 'monoclinic'
loop_
_space_group_symop_operation_xyz
x,y,z
-x,y,1/2-z
-x,-y,-z
x,-y,1/2+z
1/2+x,1/2+y,z
1/2-x,1/2+y,1/2-z
1/2-x,1/2-y,-z
1/2+x,1/2-y,1/2+z
loop_
_atom_site_type_symbol
_atom_site_label
_atom_site_fract_x
_atom_site_fract_y
_atom_site_fract_z
Si Si1 0.564052 0.342637 0.975254
Si Si2 0.155912 0.618509 0.830068
Si Si3 0.138924 0.619895 0.720230
Si Si4 0.035019 0.828595 0.090414
Si Si5 0.784448 0.683207 0.128544
Si Si6 0.800063 0.348190 0.863788
Si Si7 0.067492 0.190184 0.095489
O O1 0.684244 0.361683 0.921154
O O2 0.466438 0.262576 0.956211
O O3 0.500000 0.500000 0.000000
O O4 0.591544 0.280354 0.026035
O O5 0.176543 0.564535 0.769157
O O6 0.164396 0.484120 0.869851
O O7 0.259199 0.733386 0.827505
O O8 0.031623 0.713076 0.856139
O O9 0.204435 0.771867 0.691180
O O10 0.164941 0.500770 0.670895
O O11 0.000000 0.645956 0.750000
O O12 0.093878 0.726037 0.123092
O O13 0.896444 0.793486 0.108512
O O14 0.048332 0.007236 0.100540
O O15 0.699022 0.706828 0.095223
#
# Coordination Sequence:
#
# PCOD9292700 Si02
#       7
#     8   8   8   8   8   8   8
#     4   9  20  41  70  97 137 182 225 280 342 401
#     4  11  23  44  66  98 136 178 226 283 342 401
#     4  12  24  42  66  98 136 175 230 282 339 407
#     4  11  23  43  71 101 135 184 224 276 351 400
#     4  12  24  42  69  96 137 177 221 287 337 406
#     4  11  23  43  71  98 143 179 230 282 336 418
#     4  10  22  44  66  96 137 173 224 281 329 409
#
# _framework density 21.466533999999999
#
# number of rings (size 3 to 8) (size 9 to 14) (size 15 to 20)
#    0.000    1.143    2.857    4.714    0.000    0.571 
#    0.000    3.571    0.000    0.000    0.000    0.000 
#    0.000    0.000    0.000    0.000    0.000    0.000 
#
# Total GULP energy -156274.810663 kJ/mol
# GULP energy per Si atom -5581.243238 kJ/mol
# Density = 2.141767 g / cm^3
# Si number density = 21.466534 Si / 1000 Ang^3
#
#
#
# Elastic Constant Matrix: (Units=GPa)
#
#
# Indices 1 2 3 4 5 6 
#
# 1 157.6763 35.8310 44.2029 0.0000 3.5809 0.0000
# 2 35.8310 62.7241 14.1417 0.0000 4.5965 0.0000
# 3 44.2029 14.1417 95.7404 0.0000 5.9723 0.0000
# 4 0.0000 0.0000 0.0000 -90.0469 0.0000 123.8861
# 5 3.5809 4.5965 5.9723 0.0000 32.3562 0.0000
# 6 0.0000 0.0000 0.0000 123.8861 0.0000 -75.8694
#
#
#
# Elastic Compliance Matrix: (Units=1/GPa)
#
#
# Indices 1 2 3 4 5 6 
#
# 1 0.008125 -0.003942 -0.003185 0.000000 0.000249 0.000000
# 2 -0.003942 0.018522 -0.000788 0.000000 -0.002050 0.000000
# 3 -0.003185 -0.000788 0.012142 0.000000 -0.001777 0.000000
# 4 0.000000 0.000000 0.000000 0.008909 0.000000 0.014548
# 5 0.000249 -0.002050 -0.001777 0.000000 0.031498 0.000000
# 6 0.000000 0.000000 0.000000 0.014548 0.000000 0.010574
#
#
# Mechanical properties :
#
#
# Convention : Reuss Voigt Hill
#
# Bulk Modulus (GPa) = 43.55206 56.05464 49.80335
# Shear Modulus (GPa) = 44.14905 -11.91433 16.11736
#
# Velocity S-wave (km/s) = 4.53995 -2.35844 2.74307
# Velocity P-wave (km/s) = 6.91476 4.33047 5.76918
#
# Compressibility (1/GPa) = 0.02296103
#
# Stress axis : x y z
#
# Youngs Moduli (GPa) = 123.07829 53.98879 82.35559
#
# Poissons Ratio (x) = 0.21280 0.26226
# Poissons Ratio (y) = 0.48512 0.06492
# Poissons Ratio (z) = 0.39195 0.04256
#
# Static dielectric constant tensor:
#      x y z
#    x 1.787250 0.000000 0.036280 
#    y 0.000000 1.800580 0.000000 
#    z 0.036280 0.000000 1.839170 
# 
# From -- ./inp_files/291533.got.cif
#   From: 2010.05.17/outbox.cif.g08.bks.cpg/sg15_146_cif.got.tgz:291533.got - 2010.06.03 18:47:42.
