data_PCOD9292263
_publ_section_title
;
Structure prediction by ZEFSAII (Michael W. Deem and Ramdas Pophale) SiO2 
 PCOD9292263
Probable space group: C 2/C
;
_chemical_formula_sum "Si O2"
_cell_formula_units_Z 44
_cell_length_a 6.443636
_cell_length_b 13.869299
_cell_length_c 22.454866
_cell_angle_alpha 90.000000
_cell_angle_beta 91.360089
_cell_angle_gamma 90.000000
_cell_volume 2006.197132
_symmetry_space_group_name_H-M "C 2/C"
_symmetry_group_IT_number 15
_symmetry_cell_setting 'monoclinic'
loop_
_space_group_symop_operation_xyz
x,y,z
-x,y,1/2-z
-x,-y,-z
x,-y,1/2+z
1/2+x,1/2+y,z
1/2-x,1/2+y,1/2-z
1/2-x,1/2-y,-z
1/2+x,1/2-y,1/2+z
loop_
_atom_site_type_symbol
_atom_site_label
_atom_site_fract_x
_atom_site_fract_y
_atom_site_fract_z
Si Si1 0.672215 0.253389 0.923769
Si Si2 0.068316 0.817935 0.473601
Si Si3 0.191450 0.789750 0.794589
Si Si4 0.149686 0.497170 0.196723
Si Si5 0.000000 0.867905 0.250000
Si Si6 0.575346 0.945247 0.060712
O O1 0.600916 0.287099 0.859861
O O2 0.568167 0.150031 0.935261
O O3 0.920352 0.239270 0.927038
O O4 0.591104 0.328418 0.972452
O O5 0.250000 0.750000 0.500000
O O6 0.187699 0.909595 0.449297
O O7 0.299899 0.892328 0.788508
O O8 0.349746 0.702538 0.785725
O O9 0.000000 0.779723 0.750000
O O10 0.357917 0.433910 0.206514
O O11 0.068893 0.490575 0.127565
O O12 0.000000 0.463381 0.250000
O O13 0.500000 0.000000 0.000000
#
# Coordination Sequence:
#
# PCOD9292263 Si02
#       6
#     8   8   8   8   4   8
#     4  10  22  43  68  97 140 183 237 295 356 427
#     4   9  21  41  66  97 129 182 228 280 357 415
#     4  12  26  46  75 106 141 194 243 303 372 434
#     4  12  27  48  72 110 143 191 250 300 367 442
#     4  12  24  50  76 100 150 192 250 308 364 434
#     4  11  25  43  68 104 144 186 235 296 364 432
#
# _framework density 21.932043
#
# number of rings (size 3 to 8) (size 9 to 14) (size 15 to 20)
#    0.000    1.091    1.818    3.818    7.636    3.636 
#    3.273    0.000    0.000    0.000    0.000    0.000 
#    0.000    0.000    0.000    0.000    0.000    0.000 
#
# Total GULP energy -122848.422627 kJ/mol
# GULP energy per Si atom -5584.019210 kJ/mol
# Density = 2.188212 g / cm^3
# Si number density = 21.932043 Si / 1000 Ang^3
#
#
#
# Elastic Constant Matrix: (Units=GPa)
#
#
# Indices 1 2 3 4 5 6 
#
# 1 103.7450 37.8528 51.6427 0.0000 15.4895 0.0000
# 2 37.8528 84.5093 19.7483 0.0000 -0.4120 0.0000
# 3 51.6427 19.7483 160.5920 0.0000 12.1386 0.0000
# 4 0.0000 0.0000 0.0000 -67.2615 0.0000 0.1513
# 5 15.4895 -0.4120 12.1386 0.0000 27.5460 0.0000
# 6 0.0000 0.0000 0.0000 0.1513 0.0000 39.4136
#
#
#
# Elastic Compliance Matrix: (Units=1/GPa)
#
#
# Indices 1 2 3 4 5 6 
#
# 1 0.014422 -0.005690 -0.003433 0.000000 -0.006682 0.000000
# 2 -0.005690 0.014448 -0.000212 0.000000 0.003509 0.000000
# 3 -0.003433 -0.000212 0.007460 0.000000 -0.001360 0.000000
# 4 0.000000 0.000000 0.000000 -0.014867 0.000000 0.000057
# 5 -0.006682 0.003509 -0.001360 0.000000 0.040712 0.000000
# 6 0.000000 0.000000 0.000000 0.000057 0.000000 0.025372
#
#
# Mechanical properties :
#
#
# Convention : Reuss Voigt Hill
#
# Bulk Modulus (GPa) = 56.62664 63.03709 59.83187
# Shear Modulus (GPa) = 44.60186 15.91310 30.25748
#
# Velocity S-wave (km/s) = 4.51448 2.69655 3.71833
# Velocity P-wave (km/s) = 7.28349 6.20480 6.76568
#
# Compressibility (1/GPa) = 0.01765953
#
# Stress axis : x y z
#
# Youngs Moduli (GPa) = 69.34065 69.21213 134.05187
#
# Poissons Ratio (x) = 0.39382 0.46018
# Poissons Ratio (y) = 0.39455 0.02845
# Poissons Ratio (z) = 0.23804 0.01469
#
# Static dielectric constant tensor:
#      x y z
#    x 1.830370 0.000000 -0.040800 
#    y 0.000000 1.809020 0.000000 
#    z -0.040800 0.000000 1.822090 
# 
# From -- ./inp_files/260401.got.cif
#   From: 2010.05.17/outbox.cif.g08.bks.cpg/sg15_131_cif.got.tgz:260401.got - 2010.06.03 18:47:42.
