data_PCOD9292507
_publ_section_title
;
Structure prediction by ZEFSAII (Michael W. Deem and Ramdas Pophale) SiO2 
 PCOD9292507
Probable space group: C 2/C
;
_chemical_formula_sum "Si O2"
_cell_formula_units_Z 32
_cell_length_a 8.077776
_cell_length_b 17.944428
_cell_length_c 14.273804
_cell_angle_alpha 90.000000
_cell_angle_beta 42.369458
_cell_angle_gamma 90.000000
_cell_volume 1394.319131
_symmetry_space_group_name_H-M "C 2/C"
_symmetry_group_IT_number 15
_symmetry_cell_setting 'monoclinic'
loop_
_space_group_symop_operation_xyz
x,y,z
-x,y,1/2-z
-x,-y,-z
x,-y,1/2+z
1/2+x,1/2+y,z
1/2-x,1/2+y,1/2-z
1/2-x,1/2-y,-z
1/2+x,1/2-y,1/2+z
loop_
_atom_site_type_symbol
_atom_site_label
_atom_site_fract_x
_atom_site_fract_y
_atom_site_fract_z
Si Si1 0.494930 0.222995 0.147908
Si Si2 0.167035 0.955380 0.545277
Si Si3 0.229540 0.307378 0.097388
Si Si4 0.361539 0.947140 0.677402
O O1 0.500000 0.254582 0.250000
O O2 0.313793 0.258079 0.149425
O O3 0.427570 0.136340 0.181019
O O4 0.750000 0.250000 0.000000
O O5 0.136735 0.879773 0.499154
O O6 0.277979 0.939369 0.603023
O O7 0.885309 0.983155 0.674145
O O8 0.384990 0.007664 0.415700
O O9 0.000000 0.342813 0.250000
O O10 0.250000 0.250000 0.000000
#
# Coordination Sequence:
#
# PCOD9292507 Si02
#       4
#     8   8   8   8
#     4  12  26  44  69 106 148 189 241 306 364 429
#     4  10  22  43  74 105 143 190 243 300 367 442
#     4  12  24  44  73 105 142 196 246 297 370 445
#     4  10  22  44  71 106 146 188 241 304 365 437
#
# _framework density 22.950267
#
# number of rings (size 3 to 8) (size 9 to 14) (size 15 to 20)
#    0.000    1.000    2.500    4.500    0.000    3.000 
#    4.500    3.750    0.000    0.000    0.000    0.000 
#    0.000    0.000    0.000    0.000    0.000    0.000 
#
# Total GULP energy -89105.014651 kJ/mol
# GULP energy per Si atom -5569.063416 kJ/mol
# Density = 2.289803 g / cm^3
# Si number density = 22.950267 Si / 1000 Ang^3
#
#
#
# Elastic Constant Matrix: (Units=GPa)
#
#
# Indices 1 2 3 4 5 6 
#
# 1 90.9695 44.2930 40.0639 0.0008 32.0896 0.0000
# 2 44.2930 87.4951 35.2858 0.0002 -8.3676 -0.0002
# 3 40.0639 35.2858 163.6334 0.0002 -4.9690 -0.0005
# 4 0.0008 0.0002 0.0002 79.4314 -0.0006 19.9620
# 5 32.0896 -8.3676 -4.9690 -0.0006 50.3814 0.0002
# 6 0.0000 -0.0002 -0.0005 19.9620 0.0002 34.6877
#
#
#
# Elastic Compliance Matrix: (Units=1/GPa)
#
#
# Indices 1 2 3 4 5 6 
#
# 1 0.026126 -0.013420 -0.004088 0.000000 -0.019273 0.000000
# 2 -0.013420 0.019580 -0.000580 0.000000 0.011743 0.000000
# 3 -0.004088 -0.000580 0.007335 0.000000 0.003231 0.000000
# 4 0.000000 0.000000 0.000000 0.014718 0.000001 -0.008470
# 5 -0.019273 0.011743 0.003231 0.000001 0.034393 0.000000
# 6 0.000000 0.000000 0.000000 -0.008470 0.000000 0.033703
#
#
# Mechanical properties :
#
#
# Convention : Reuss Voigt Hill
#
# Bulk Modulus (GPa) = 59.29479 64.59815 61.94647
# Shear Modulus (GPa) = 28.14484 47.73044 37.93764
#
# Velocity S-wave (km/s) = 3.50571 4.56536 4.07017
# Velocity P-wave (km/s) = 6.50223 7.48319 7.00989
#
# Compressibility (1/GPa) = 0.01686489
#
# Stress axis : x y z
#
# Youngs Moduli (GPa) = 38.27632 51.07290 136.32813
#
# Poissons Ratio (x) = 0.68541 0.55730
# Poissons Ratio (y) = 0.51368 0.07904
# Poissons Ratio (z) = 0.15647 0.02961
#
# Static dielectric constant tensor:
#      x y z
#    x 1.811440 0.000000 0.046960 
#    y 0.000000 1.787250 0.000000 
#    z 0.046960 0.000000 1.833650 
# 
# From -- ./inp_files/135723.got.cif
#   From: 2010.05.17/outbox.cif.g08.bks.cpg/sg15_68_cif.got.tgz:135723.got - 2010.06.03 18:47:42.
