data_PCOD9292015
_publ_section_title
;
Structure prediction by ZEFSAII (Michael W. Deem and Ramdas Pophale) SiO2 
 PCOD9292015
Probable space group: C 2/C
;
_chemical_formula_sum "Si O2"
_cell_formula_units_Z 48
_cell_length_a 30.613586
_cell_length_b 7.724520
_cell_length_c 17.020863
_cell_angle_alpha 90.000000
_cell_angle_beta 147.209437
_cell_angle_gamma 90.000000
_cell_volume 2179.825285
_symmetry_space_group_name_H-M "C 2/C"
_symmetry_group_IT_number 15
_symmetry_cell_setting 'monoclinic'
loop_
_space_group_symop_operation_xyz
x,y,z
-x,y,1/2-z
-x,-y,-z
x,-y,1/2+z
1/2+x,1/2+y,z
1/2-x,1/2+y,1/2-z
1/2-x,1/2-y,-z
1/2+x,1/2-y,1/2+z
loop_
_atom_site_type_symbol
_atom_site_label
_atom_site_fract_x
_atom_site_fract_y
_atom_site_fract_z
Si Si1 0.680432 0.241889 0.458205
Si Si2 0.734627 0.540957 0.322266
Si Si3 0.740417 0.451147 0.151650
Si Si4 0.420471 0.100844 0.901514
Si Si5 0.489661 0.290091 0.326379
Si Si6 0.571083 0.437144 0.665138
O O1 0.750000 0.250000 0.500000
O O2 0.687956 0.424587 0.516457
O O3 0.597031 0.204102 0.287877
O O4 0.696961 0.087821 0.543931
O O5 0.716154 0.493269 0.204254
O O6 0.759963 0.743766 0.364960
O O7 0.656462 0.500299 0.258456
O O8 0.836124 0.495593 0.286380
O O9 0.414654 0.234629 0.820555
O O10 0.442026 0.211709 0.013655
O O11 0.500000 0.000000 0.000000
O O12 0.500000 0.266708 0.250000
O O13 0.465117 0.487607 0.309768
O O14 0.500000 0.500000 0.500000
#
# Coordination Sequence:
#
# PCOD9292015 Si02
#       6
#     8   8   8   8   8   8
#     4  12  24  42  67  95 134 173 209 279 338 368
#     4  11  22  42  64  97 129 169 224 259 323 394
#     4  11  24  40  70  97 127 172 226 266 311 405
#     4  10  22  43  65  90 126 171 220 258 322 397
#     4  11  23  42  63  94 132 165 212 273 333 375
#     4   9  21  38  63  86 121 172 209 253 319 396
#
# _framework density 22.020114
#
# number of rings (size 3 to 8) (size 9 to 14) (size 15 to 20)
#    0.000    1.333    3.333    2.000    7.000    0.667 
#    3.000    0.833    0.000    0.000    0.000    0.000 
#    0.000    0.000    0.000    0.000    0.000    0.000 
#
# Total GULP energy -133820.587211 kJ/mol
# GULP energy per Si atom -5575.857800 kJ/mol
# Density = 2.197000 g / cm^3
# Si number density = 22.020114 Si / 1000 Ang^3
#
#
#
# Elastic Constant Matrix: (Units=GPa)
#
#
# Indices 1 2 3 4 5 6 
#
# 1 51.0255 6.8838 -22.3357 0.0000 1.0090 0.0000
# 2 6.8838 79.4181 11.7167 0.0000 -4.9319 0.0000
# 3 -22.3357 11.7167 56.5123 0.0000 10.8827 0.0000
# 4 0.0000 0.0000 0.0000 31.0754 0.0000 -3.4366
# 5 1.0090 -4.9319 10.8827 0.0000 39.0835 0.0000
# 6 0.0000 0.0000 0.0000 -3.4366 0.0000 30.4078
#
#
#
# Elastic Compliance Matrix: (Units=1/GPa)
#
#
# Indices 1 2 3 4 5 6 
#
# 1 0.025411 -0.004218 0.011778 0.000000 -0.004468 0.000000
# 2 -0.004218 0.013929 -0.005193 0.000000 0.003312 0.000000
# 3 0.011778 -0.005193 0.024950 0.000000 -0.007906 0.000000
# 4 0.000000 0.000000 0.000000 0.032587 0.000000 0.003683
# 5 -0.004468 0.003312 -0.007906 0.000000 0.028321 0.000000
# 6 0.000000 0.000000 0.000000 0.003683 0.000000 0.033303
#
#
# Mechanical properties :
#
#
# Convention : Reuss Voigt Hill
#
# Bulk Modulus (GPa) = 14.48744 19.94285 17.21514
# Shear Modulus (GPa) = 28.28479 32.82609 30.55544
#
# Velocity S-wave (km/s) = 3.58788 3.86519 3.72911
# Velocity P-wave (km/s) = 4.87414 5.38478 5.13581
#
# Compressibility (1/GPa) = 0.06902531
#
# Stress axis : x y z
#
# Youngs Moduli (GPa) = 39.35277 71.79278 40.08074
#
# Poissons Ratio (x) = 0.30280 -0.47208
# Poissons Ratio (y) = 0.16598 0.20813
# Poissons Ratio (z) = -0.46351 0.37280
#
# Static dielectric constant tensor:
#      x y z
#    x 1.935120 0.000000 -0.063990 
#    y 0.000000 1.927580 0.000000 
#    z -0.063990 0.000000 1.925020 
# 
# From -- ./inp_files/180900.got.cif
#   From: 2010.05.17/outbox.cif.g08.bks.cpg/sg15_91_cif.got.tgz:180900.got - 2010.06.03 18:47:42.
