data_PCOD9292034
_publ_section_title
;
Structure prediction by ZEFSAII (Michael W. Deem and Ramdas Pophale) SiO2 
 PCOD9292034
Probable space group: C 2/C
;
_chemical_formula_sum "Si O2"
_cell_formula_units_Z 60
_cell_length_a 27.928189
_cell_length_b 8.473756
_cell_length_c 22.811074
_cell_angle_alpha 90.000000
_cell_angle_beta 31.206898
_cell_angle_gamma 90.000000
_cell_volume 2797.069060
_symmetry_space_group_name_H-M "C 2/C"
_symmetry_group_IT_number 15
_symmetry_cell_setting 'monoclinic'
loop_
_space_group_symop_operation_xyz
x,y,z
-x,y,1/2-z
-x,-y,-z
x,-y,1/2+z
1/2+x,1/2+y,z
1/2-x,1/2+y,1/2-z
1/2-x,1/2-y,-z
1/2+x,1/2-y,1/2+z
loop_
_atom_site_type_symbol
_atom_site_label
_atom_site_fract_x
_atom_site_fract_y
_atom_site_fract_z
Si Si1 0.000000 0.421641 0.750000
Si Si2 0.810363 0.876628 0.855381
Si Si3 0.944977 0.677056 0.430654
Si Si4 0.689419 0.959384 0.089471
Si Si5 0.413611 0.595856 0.666854
Si Si6 0.336194 0.077057 0.095206
Si Si7 0.750880 0.168361 0.128928
Si Si8 0.307691 0.428639 0.170706
O O1 0.001877 0.329752 0.686602
O O2 0.094658 0.519077 0.653342
O O3 0.823904 0.693573 0.855516
O O4 0.729750 0.898997 0.891937
O O5 0.896248 0.968495 0.736596
O O6 0.772787 0.943045 0.956176
O O7 0.931465 0.505887 0.475463
O O8 0.841013 0.727151 0.524722
O O9 0.993761 0.805767 0.420549
O O10 0.714046 0.099741 0.106982
O O11 0.332434 0.727541 0.758542
O O12 0.389129 0.517356 0.629986
O O13 0.335015 0.250577 0.124859
O O14 0.285751 0.956822 0.193231
O O15 0.786205 0.032095 0.135983
#
# Coordination Sequence:
#
# PCOD9292034 Si02
#       8
#     4   8   8   8   8   8   8   8
#     4  12  24  42  68 102 142 172 228 284 332 422
#     4  10  22  43  65  94 131 174 222 279 335 400
#     4  12  26  42  66 101 138 181 225 275 345 405
#     4  11  23  42  70  94 133 179 224 278 347 398
#     4  11  24  44  66  99 136 176 225 283 337 405
#     4  11  20  42  68  96 129 173 226 271 332 401
#     4  12  23  42  69  98 131 182 227 274 345 401
#     4  11  22  42  72  94 131 179 227 283 331 396
#
# _framework density 21.451025999999999
#
# number of rings (size 3 to 8) (size 9 to 14) (size 15 to 20)
#    0.000    0.800    8.000    0.000    1.867    2.133 
#    7.200    0.000    0.000    0.000    0.000    0.000 
#    0.000    0.000    0.000    0.000    0.000    0.000 
#
# Total GULP energy -167472.095889 kJ/mol
# GULP energy per Si atom -5582.403196 kJ/mol
# Density = 2.140220 g / cm^3
# Si number density = 21.451026 Si / 1000 Ang^3
#
#
#
# Elastic Constant Matrix: (Units=GPa)
#
#
# Indices 1 2 3 4 5 6 
#
# 1 46.8421 20.9043 10.6695 -0.0081 -3.1519 0.0032
# 2 20.9043 66.5423 16.5537 -0.0210 11.8748 0.0093
# 3 10.6695 16.5537 45.0258 -0.0112 1.9469 0.0067
# 4 -0.0081 -0.0210 -0.0112 22.9646 0.0084 15.1101
# 5 -3.1519 11.8748 1.9469 0.0084 37.2223 -0.0044
# 6 0.0032 0.0093 0.0067 15.1101 -0.0044 36.0515
#
#
#
# Elastic Compliance Matrix: (Units=1/GPa)
#
#
# Indices 1 2 3 4 5 6 
#
# 1 0.026147 -0.008273 -0.003372 -0.000003 0.005030 0.000002
# 2 -0.008273 0.020130 -0.005144 0.000025 -0.006853 -0.000015
# 3 -0.003372 -0.005144 0.024897 0.000011 0.000053 -0.000008
# 4 -0.000003 0.000025 0.000011 0.060127 -0.000025 -0.025201
# 5 0.005030 -0.006853 0.000053 -0.000025 0.029475 0.000016
# 6 0.000002 -0.000015 -0.000008 -0.025201 0.000016 0.038300
#
#
# Mechanical properties :
#
#
# Convention : Reuss Voigt Hill
#
# Bulk Modulus (GPa) = 26.59815 28.29611 27.44713
# Shear Modulus (GPa) = 20.39278 26.59986 23.49632
#
# Velocity S-wave (km/s) = 3.08663 3.52522 3.31319
# Velocity P-wave (km/s) = 5.01293 5.45795 5.24017
#
# Compressibility (1/GPa) = 0.03759660
#
# Stress axis : x y z
#
# Youngs Moduli (GPa) = 38.24582 49.67811 40.16494
#
# Poissons Ratio (x) = 0.41097 0.13543
# Poissons Ratio (y) = 0.31640 0.20661
# Poissons Ratio (z) = 0.12896 0.25554
#
# Static dielectric constant tensor:
#      x y z
#    x 1.770360 0.000000 0.025820 
#    y 0.000000 1.812890 0.000000 
#    z 0.025820 0.000000 1.808070 
# 
# From -- ./inp_files/284306.got.cif
#   From: 2010.05.17/outbox.cif.g08.bks.cpg/sg15_143_cif.got.tgz:284306.got - 2010.06.03 18:47:42.
