data_PCOD9292751
_publ_section_title
;
Structure prediction by ZEFSAII (Michael W. Deem and Ramdas Pophale) SiO2 
 PCOD9292751
Probable space group: C 2/C
;
_chemical_formula_sum "Si O2"
_cell_formula_units_Z 44
_cell_length_a 9.927529
_cell_length_b 26.901767
_cell_length_c 10.904342
_cell_angle_alpha 90.000000
_cell_angle_beta 135.451083
_cell_angle_gamma 90.000000
_cell_volume 2042.961709
_symmetry_space_group_name_H-M "C 2/C"
_symmetry_group_IT_number 15
_symmetry_cell_setting 'monoclinic'
loop_
_space_group_symop_operation_xyz
x,y,z
-x,y,1/2-z
-x,-y,-z
x,-y,1/2+z
1/2+x,1/2+y,z
1/2-x,1/2+y,1/2-z
1/2-x,1/2-y,-z
1/2+x,1/2-y,1/2+z
loop_
_atom_site_type_symbol
_atom_site_label
_atom_site_fract_x
_atom_site_fract_y
_atom_site_fract_z
Si Si1 0.611697 0.900667 0.101238
Si Si2 0.000000 0.459924 0.250000
Si Si3 0.159383 0.699717 0.747884
Si Si4 0.176296 0.029491 0.936517
Si Si5 0.943478 0.812189 0.855631
Si Si6 0.810761 0.401434 0.716359
O O1 0.622413 0.924936 0.241155
O O2 0.622553 0.841453 0.120291
O O3 0.772428 0.925502 0.122420
O O4 0.411091 0.916354 0.908545
O O5 0.142264 0.493907 0.422255
O O6 0.145413 0.756901 0.699592
O O7 0.000000 0.692907 0.750000
O O8 0.362177 0.689437 0.941196
O O9 0.000000 0.004323 0.750000
O O10 0.169642 0.057764 0.063918
O O11 0.803593 0.851788 0.827011
O O12 0.000000 0.823538 0.750000
O O13 0.000000 0.394860 0.750000
#
# Coordination Sequence:
#
# PCOD9292751 Si02
#       6
#     8   4   8   8   8   8
#     4  11  22  42  66  91 131 170 215 271 331 380
#     4  12  24  44  66  92 128 172 220 276 328 378
#     4  11  21  39  61  97 130 172 213 277 325 386
#     4  11  24  44  65  92 131 171 216 271 331 394
#     4  11  22  38  66  96 131 170 223 265 328 393
#     4  10  22  44  67  95 136 173 211 272 331 392
#
# _framework density 21.537358999999999
#
# number of rings (size 3 to 8) (size 9 to 14) (size 15 to 20)
#    0.000    1.091    3.636    6.000    0.000    0.727 
#    3.273    9.091    0.000    0.000    0.000    0.000 
#    0.000    0.000    0.000    0.000    0.000    0.000 
#
# Total GULP energy -122843.003088 kJ/mol
# GULP energy per Si atom -5583.772868 kJ/mol
# Density = 2.148834 g / cm^3
# Si number density = 21.537359 Si / 1000 Ang^3
#
#
#
# Elastic Constant Matrix: (Units=GPa)
#
#
# Indices 1 2 3 4 5 6 
#
# 1 28.3519 21.1921 14.3626 0.0000 6.3952 0.0000
# 2 21.1921 79.4729 16.1775 0.0000 1.0670 0.0000
# 3 14.3626 16.1775 136.2978 0.0000 18.5253 0.0000
# 4 0.0000 0.0000 0.0000 8.8804 0.0000 19.2831
# 5 6.3952 1.0670 18.5253 0.0000 30.0705 0.0000
# 6 0.0000 0.0000 0.0000 19.2831 0.0000 -12.6374
#
#
#
# Elastic Compliance Matrix: (Units=1/GPa)
#
#
# Indices 1 2 3 4 5 6 
#
# 1 0.047326 -0.012011 -0.002457 0.000000 -0.008125 0.000000
# 2 -0.012011 0.015950 -0.000980 0.000000 0.002592 0.000000
# 3 -0.002457 -0.000980 0.008334 0.000000 -0.004577 0.000000
# 4 0.000000 0.000000 0.000000 0.026107 0.000000 0.039836
# 5 -0.008125 0.002592 -0.004577 0.000000 0.037711 0.000000
# 6 0.000000 0.000000 0.000000 0.039836 0.000000 -0.018345
#
#
# Mechanical properties :
#
#
# Convention : Reuss Voigt Hill
#
# Bulk Modulus (GPa) = 24.56080 38.62077 31.59078
# Shear Modulus (GPa) = 30.95019 18.08872 24.51946
#
# Velocity S-wave (km/s) = 3.79495 2.90121 3.37777
# Velocity P-wave (km/s) = 5.53451 5.40311 5.46920
#
# Compressibility (1/GPa) = 0.04071529
#
# Stress axis : x y z
#
# Youngs Moduli (GPa) = 21.13002 62.69472 119.98751
#
# Poissons Ratio (x) = 0.75300 0.29483
# Poissons Ratio (y) = 0.25378 0.11757
# Poissons Ratio (z) = 0.05192 0.06143
#
# Static dielectric constant tensor:
#      x y z
#    x 1.809610 0.000000 -0.006650 
#    y 0.000000 1.789150 0.000000 
#    z -0.006650 0.000000 1.847960 
# 
# From -- ./inp_files/91363.got.cif
#   From: 2010.05.17/outbox.cif.g08.bks.cpg/sg15_46_cif.got.tgz:91363.got - 2010.06.03 18:47:42.
