data_PCOD9292227
_publ_section_title
;
Structure prediction by ZEFSAII (Michael W. Deem and Ramdas Pophale) SiO2 
 PCOD9292227
Probable space group: C 2/C
;
_chemical_formula_sum "Si O2"
_cell_formula_units_Z 52
_cell_length_a 13.892916
_cell_length_b 25.543230
_cell_length_c 8.898286
_cell_angle_alpha 90.000000
_cell_angle_beta 47.109171
_cell_angle_gamma 90.000000
_cell_volume 2313.519869
_symmetry_space_group_name_H-M "C 2/C"
_symmetry_group_IT_number 15
_symmetry_cell_setting 'monoclinic'
loop_
_space_group_symop_operation_xyz
x,y,z
-x,y,1/2-z
-x,-y,-z
x,-y,1/2+z
1/2+x,1/2+y,z
1/2-x,1/2+y,1/2-z
1/2-x,1/2-y,-z
1/2+x,1/2-y,1/2+z
loop_
_atom_site_type_symbol
_atom_site_label
_atom_site_fract_x
_atom_site_fract_y
_atom_site_fract_z
Si Si1 0.500000 0.891446 0.750000
Si Si2 0.716470 0.826005 0.710197
Si Si3 0.392714 0.729022 0.488437
Si Si4 0.849319 0.017846 0.465677
Si Si5 0.156205 0.131662 0.133094
Si Si6 0.893403 0.838465 0.258931
Si Si7 0.740768 0.060393 0.870459
O O1 0.596989 0.856605 0.752844
O O2 0.587332 0.927077 0.545127
O O3 0.799898 0.860870 0.740762
O O4 0.805661 0.808399 0.474384
O O5 0.671581 0.777776 0.860546
O O6 0.500000 0.744575 0.250000
O O7 0.302239 0.684889 0.501722
O O8 0.451862 0.697766 0.568371
O O9 0.794505 0.074092 0.465043
O O10 0.815228 0.022600 0.676518
O O11 0.000000 0.014708 0.250000
O O12 0.776269 0.966313 0.489118
O O13 0.000000 0.130187 0.250000
O O14 0.807349 0.883449 0.277709
O O15 0.000000 0.865848 0.250000
#
# Coordination Sequence:
#
# PCOD9292227 Si02
#       7
#     4   8   8   8   8   8   8
#     4  10  28  50  68 104 148 194 242 268 352 434
#     4  11  25  45  72  97 146 189 234 285 348 431
#     4  11  23  43  69 103 140 182 236 288 355 426
#     4  11  24  42  74 106 139 178 236 303 364 399
#     4  10  22  43  68 105 137 170 234 301 352 409
#     4  11  23  41  69 102 137 181 235 302 352 407
#     4  11  25  45  69 100 145 183 236 294 345 433
#
# _framework density 22.476572999999998
#
# number of rings (size 3 to 8) (size 9 to 14) (size 15 to 20)
#    0.000    1.231    1.538    3.692    7.538    1.846 
#   11.077    0.000    0.000    0.000    0.000    0.000 
#    0.000    0.000    0.000    0.000    0.000    0.000 
#
# Total GULP energy -144860.620791 kJ/mol
# GULP energy per Si atom -5571.562338 kJ/mol
# Density = 2.242542 g / cm^3
# Si number density = 22.476573 Si / 1000 Ang^3
#
#
#
# Elastic Constant Matrix: (Units=GPa)
#
#
# Indices 1 2 3 4 5 6 
#
# 1 105.0257 11.3457 26.8718 0.0000 13.8924 0.0000
# 2 11.3457 60.0434 16.8617 0.0000 2.7894 0.0000
# 3 26.8718 16.8617 124.4146 0.0000 8.7497 0.0000
# 4 0.0000 0.0000 0.0000 163.8869 0.0000 -3.6562
# 5 13.8924 2.7894 8.7497 0.0000 34.2996 0.0000
# 6 0.0000 0.0000 0.0000 -3.6562 0.0000 24.5153
#
#
#
# Elastic Compliance Matrix: (Units=1/GPa)
#
#
# Indices 1 2 3 4 5 6 
#
# 1 0.010631 -0.001315 -0.001856 0.000000 -0.003726 0.000000
# 2 -0.001315 0.017499 -0.002062 0.000000 -0.000365 0.000000
# 3 -0.001856 -0.002062 0.008811 0.000000 -0.001328 0.000000
# 4 0.000000 0.000000 0.000000 0.006122 0.000000 0.000913
# 5 -0.003726 -0.000365 -0.001328 0.000000 0.031032 0.000000
# 6 0.000000 0.000000 0.000000 0.000913 0.000000 0.040927
#
#
# Mechanical properties :
#
#
# Convention : Reuss Voigt Hill
#
# Bulk Modulus (GPa) = 37.76953 44.40467 41.08710
# Shear Modulus (GPa) = 37.22624 60.16731 48.69677
#
# Velocity S-wave (km/s) = 4.07409 5.17948 4.65968
# Velocity P-wave (km/s) = 6.24270 7.45441 6.87530
#
# Compressibility (1/GPa) = 0.02647637
#
# Stress axis : x y z
#
# Youngs Moduli (GPa) = 94.06299 57.14603 113.48934
#
# Poissons Ratio (x) = 0.07512 0.21064
# Poissons Ratio (y) = 0.12365 0.23402
# Poissons Ratio (z) = 0.17458 0.11784
#
# Static dielectric constant tensor:
#      x y z
#    x 1.866390 0.000000 -0.013030 
#    y 0.000000 1.829970 0.000000 
#    z -0.013030 0.000000 1.896980 
# 
# From -- ./inp_files/43408.got.cif
#   From: 2010.05.17/outbox.cif.g08.bks.cpg/sg15_22_cif.got.tgz:43408.got - 2010.06.03 18:47:42.
