data_PCOD9292980
_publ_section_title
;
Structure prediction by ZEFSAII (Michael W. Deem and Ramdas Pophale) SiO2 
 PCOD9292980
Probable space group: C 2/C
;
_chemical_formula_sum "Si O2"
_cell_formula_units_Z 36
_cell_length_a 19.744586
_cell_length_b 5.364549
_cell_length_c 15.946953
_cell_angle_alpha 90.000000
_cell_angle_beta 84.208219
_cell_angle_gamma 90.000000
_cell_volume 1680.491407
_symmetry_space_group_name_H-M "C 2/C"
_symmetry_group_IT_number 15
_symmetry_cell_setting 'monoclinic'
loop_
_space_group_symop_operation_xyz
x,y,z
-x,y,1/2-z
-x,-y,-z
x,-y,1/2+z
1/2+x,1/2+y,z
1/2-x,1/2+y,1/2-z
1/2-x,1/2-y,-z
1/2+x,1/2-y,1/2+z
loop_
_atom_site_type_symbol
_atom_site_label
_atom_site_fract_x
_atom_site_fract_y
_atom_site_fract_z
Si Si1 0.500000 0.299062 0.750000
Si Si2 0.778217 0.144651 0.784670
Si Si3 0.546058 0.433077 0.073995
Si Si4 0.693582 0.651592 0.068679
Si Si5 0.107582 0.547862 0.177458
O O1 0.486853 0.446417 0.837703
O O2 0.435261 0.117735 0.754030
O O3 0.737542 0.392194 0.764041
O O4 0.857420 0.226604 0.776396
O O5 0.768653 0.058455 0.881144
O O6 0.622107 0.538871 0.045655
O O7 0.561815 0.153433 0.106456
O O8 0.500000 0.500000 0.000000
O O9 0.666302 0.877210 0.130234
O O10 0.750000 0.750000 0.000000
#
# Coordination Sequence:
#
# PCOD9292980 Si02
#       5
#     4   8   8   8   8
#     4  10  22  44  70  96 142 188 240 296 360 430
#     4  11  22  44  69 101 138 180 236 286 355 424
#     4  10  23  45  67 103 143 188 244 299 366 432
#     4  10  23  45  66 100 145 184 236 300 360 436
#     4  10  22  45  65  97 145 180 244 292 358 432
#
# _framework density 21.422307
#
# number of rings (size 3 to 8) (size 9 to 14) (size 15 to 20)
#    0.000    1.778    2.222    0.667    0.000    7.111 
#   24.000    0.000    0.000    0.000    0.000    0.000 
#    0.000    0.000    0.000    0.000    0.000    0.000 
#
# Total GULP energy -100307.343059 kJ/mol
# GULP energy per Si atom -5572.630170 kJ/mol
# Density = 2.137355 g / cm^3
# Si number density = 21.422307 Si / 1000 Ang^3
#
#
#
# Elastic Constant Matrix: (Units=GPa)
#
#
# Indices 1 2 3 4 5 6 
#
# 1 88.7229 30.1600 61.6025 0.0000 -4.5414 0.0000
# 2 30.1600 93.3423 17.4781 0.0000 1.5140 0.0000
# 3 61.6025 17.4781 67.3753 0.0000 -9.4520 0.0000
# 4 0.0000 0.0000 0.0000 -6.2968 0.0000 5.3749
# 5 -4.5414 1.5140 -9.4520 0.0000 59.5835 0.0000
# 6 0.0000 0.0000 0.0000 5.3749 0.0000 53.4297
#
#
#
# Elastic Compliance Matrix: (Units=1/GPa)
#
#
# Indices 1 2 3 4 5 6 
#
# 1 0.033414 -0.005246 -0.029470 0.000000 -0.001995 0.000000
# 2 -0.005246 0.012118 0.001589 0.000000 -0.000456 0.000000
# 3 -0.029470 0.001589 0.041989 0.000000 0.004374 0.000000
# 4 0.000000 0.000000 0.000000 -0.146252 0.000000 0.014712
# 5 -0.001995 -0.000456 0.004374 0.000000 0.017337 0.000000
# 6 0.000000 0.000000 0.000000 0.014712 0.000000 0.017236
#
#
# Mechanical properties :
#
#
# Convention : Reuss Voigt Hill
#
# Bulk Modulus (GPa) = 47.02175 51.99129 49.50652
# Shear Modulus (GPa) = 101.65726 30.68993 66.17360
#
# Velocity S-wave (km/s) = 6.89615 3.78910 5.56391
# Velocity P-wave (km/s) = 9.24158 6.59283 8.02721
#
# Compressibility (1/GPa) = 0.02126675
#
# Stress axis : x y z
#
# Youngs Moduli (GPa) = 29.92759 82.52084 23.81594
#
# Poissons Ratio (x) = 0.43290 0.70186
# Poissons Ratio (y) = 0.15700 -0.03784
# Poissons Ratio (z) = 0.88197 -0.13112
#
# Static dielectric constant tensor:
#      x y z
#    x 1.839460 0.000000 0.030520 
#    y 0.000000 1.881880 0.000000 
#    z 0.030520 0.000000 1.792690 
# 
# From -- ./inp_files/165041.got.cif
#   From: 2010.05.17/outbox.cif.g08.bks.cpg/sg15_83_cif.got.tgz:165041.got - 2010.06.03 18:47:42.
