data_PCOD9292282
_publ_section_title
;
Structure prediction by ZEFSAII (Michael W. Deem and Ramdas Pophale) SiO2 
 PCOD9292282
Probable space group: C 2/C
;
_chemical_formula_sum "Si O2"
_cell_formula_units_Z 40
_cell_length_a 5.242280
_cell_length_b 13.534301
_cell_length_c 26.536710
_cell_angle_alpha 90.000000
_cell_angle_beta 76.407434
_cell_angle_gamma 90.000000
_cell_volume 1830.061104
_symmetry_space_group_name_H-M "C 2/C"
_symmetry_group_IT_number 15
_symmetry_cell_setting 'monoclinic'
loop_
_space_group_symop_operation_xyz
x,y,z
-x,y,1/2-z
-x,-y,-z
x,-y,1/2+z
1/2+x,1/2+y,z
1/2-x,1/2+y,1/2-z
1/2-x,1/2-y,-z
1/2+x,1/2-y,1/2+z
loop_
_atom_site_type_symbol
_atom_site_label
_atom_site_fract_x
_atom_site_fract_y
_atom_site_fract_z
Si Si1 0.341998 0.584379 0.622537
Si Si2 0.794154 0.762556 0.215884
Si Si3 0.984035 0.815205 0.011092
Si Si4 0.409231 0.396566 0.911855
Si Si5 0.960004 0.612455 0.364821
O O1 0.320430 0.658990 0.669351
O O2 0.392138 0.640868 0.568202
O O3 0.578216 0.505223 0.613067
O O4 0.106078 0.503986 0.633314
O O5 0.500000 0.760890 0.250000
O O6 0.876717 0.656633 0.188619
O O7 0.000000 0.787383 0.250000
O O8 0.750000 0.750000 0.000000
O O9 0.250000 0.750000 0.000000
O O10 0.984692 0.899020 0.967078
O O11 0.127727 0.359801 0.906756
O O12 0.665675 0.340034 0.877814
#
# Coordination Sequence:
#
# PCOD9292282 Si02
#       5
#     8   8   8   8   8
#     4  10  27  44  73  98 145 176 237 280 357 416
#     4  12  27  47  70 100 136 181 240 303 354 406
#     4  12  25  40  71 105 143 183 223 277 350 426
#     4  10  22  43  69 101 141 174 225 274 351 423
#     4  10  24  45  69  98 136 180 231 284 348 418
#
# _framework density 21.857194
#
# number of rings (size 3 to 8) (size 9 to 14) (size 15 to 20)
#    1.200    0.000    0.000    5.400    5.600    1.600 
#    0.000    0.000    0.000    0.000    0.000    0.000 
#    0.000    0.000    0.000    0.000    0.000    0.000 
#
# Total GULP energy -111442.523722 kJ/mol
# GULP energy per Si atom -5572.126186 kJ/mol
# Density = 2.180745 g / cm^3
# Si number density = 21.857194 Si / 1000 Ang^3
#
#
#
# Elastic Constant Matrix: (Units=GPa)
#
#
# Indices 1 2 3 4 5 6 
#
# 1 171.4043 55.7271 69.1367 0.0000 11.8809 0.0000
# 2 55.7271 93.2673 55.7723 0.0000 -16.6149 0.0000
# 3 69.1367 55.7723 162.8312 0.0000 -11.1150 0.0000
# 4 0.0000 0.0000 0.0000 30.6048 0.0000 -5.7214
# 5 11.8809 -16.6149 -11.1150 0.0000 29.6010 0.0000
# 6 0.0000 0.0000 0.0000 -5.7214 0.0000 20.2405
#
#
#
# Elastic Compliance Matrix: (Units=1/GPa)
#
#
# Indices 1 2 3 4 5 6 
#
# 1 0.009107 -0.005242 -0.002588 0.000000 -0.007570 0.000000
# 2 -0.005242 0.017621 -0.003070 0.000000 0.010842 0.000000
# 3 -0.002588 -0.003070 0.008462 0.000000 0.002493 0.000000
# 4 0.000000 0.000000 0.000000 0.034498 0.000000 0.009751
# 5 -0.007570 0.010842 0.002493 0.000000 0.043843 0.000000
# 6 0.000000 0.000000 0.000000 0.009751 0.000000 0.052162
#
#
# Mechanical properties :
#
#
# Convention : Reuss Voigt Hill
#
# Bulk Modulus (GPa) = 74.68123 87.64167 81.16145
# Shear Modulus (GPa) = 26.04766 32.54704 29.29735
#
# Velocity S-wave (km/s) = 3.45588 3.86304 3.66512
# Velocity P-wave (km/s) = 7.08280 7.75125 7.42455
#
# Compressibility (1/GPa) = 0.01339025
#
# Stress axis : x y z
#
# Youngs Moduli (GPa) = 109.80434 56.74976 118.17989
#
# Poissons Ratio (x) = 0.29751 0.30584
# Poissons Ratio (y) = 0.57564 0.36276
# Poissons Ratio (z) = 0.28416 0.17420
#
# Static dielectric constant tensor:
#      x y z
#    x 1.789990 0.000000 -0.062130 
#    y 0.000000 1.839340 0.000000 
#    z -0.062130 0.000000 1.821530 
# 
# From -- ./inp_files/260094.got.cif
#   From: 2010.05.17/outbox.cif.g08.bks.cpg/sg15_131_cif.got.tgz:260094.got - 2010.06.03 18:47:42.
