data_PCOD9292714
_publ_section_title
;
Structure prediction by ZEFSAII (Michael W. Deem and Ramdas Pophale) SiO2 
 PCOD9292714
Probable space group: C 2/C
;
_chemical_formula_sum "Si O2"
_cell_formula_units_Z 60
_cell_length_a 5.053241
_cell_length_b 20.422188
_cell_length_c 27.784116
_cell_angle_alpha 90.000000
_cell_angle_beta 93.350114
_cell_angle_gamma 90.000000
_cell_volume 2862.371887
_symmetry_space_group_name_H-M "C 2/C"
_symmetry_group_IT_number 15
_symmetry_cell_setting 'monoclinic'
loop_
_space_group_symop_operation_xyz
x,y,z
-x,y,1/2-z
-x,-y,-z
x,-y,1/2+z
1/2+x,1/2+y,z
1/2-x,1/2+y,1/2-z
1/2-x,1/2-y,-z
1/2+x,1/2-y,1/2+z
loop_
_atom_site_type_symbol
_atom_site_label
_atom_site_fract_x
_atom_site_fract_y
_atom_site_fract_z
Si Si1 0.000000 0.225084 0.250000
Si Si2 0.837156 0.567573 0.006497
Si Si3 0.927704 0.325793 0.371518
Si Si4 0.372277 0.861651 0.696201
Si Si5 0.161333 0.535830 0.388044
Si Si6 0.007005 0.289128 0.019411
Si Si7 0.653119 0.543632 0.904264
Si Si8 0.912701 0.771128 0.321921
O O1 0.109006 0.177100 0.209664
O O2 0.244726 0.268254 0.270862
O O3 0.740296 0.568262 0.060509
O O4 0.994001 0.634957 0.997902
O O5 0.627095 0.562435 0.960566
O O6 0.000000 0.500000 0.000000
O O7 0.943660 0.290060 0.423008
O O8 0.812767 0.397236 0.381621
O O9 0.706268 0.297743 0.333172
O O10 0.218578 0.313301 0.353461
O O11 0.500000 0.879245 0.750000
O O12 0.326720 0.919877 0.658996
O O13 0.547928 0.807093 0.670224
O O14 0.363161 0.475274 0.383027
O O15 0.858201 0.515718 0.396348
O O16 0.250000 0.250000 0.000000
O O17 0.750000 0.250000 0.000000
#
# Coordination Sequence:
#
# PCOD9292714 Si02
#       8
#     4   8   8   8   8   8   8   8
#     4  10  22  44  66  98 130 158 214 280 342 384
#     4   9  22  43  65  95 133 183 228 268 326 412
#     4  11  23  40  66  88 138 168 216 262 335 396
#     4  10  24  41  68  98 129 162 213 286 341 388
#     4  11  23  39  70  91 129 170 230 260 330 397
#     4  11  25  40  60  97 140 173 221 286 331 385
#     4  10  23  42  62  96 128 179 211 272 317 392
#     4  11  22  40  67  95 121 166 210 265 338 399
#
# _framework density 20.961637
#
# number of rings (size 3 to 8) (size 9 to 14) (size 15 to 20)
#    0.000    1.600    1.333    2.000    7.467    7.467 
#    0.000    0.000    8.800    0.000    0.000    0.000 
#    0.000    0.000    0.000    0.000    0.000    0.000 
#
# Total GULP energy -167208.252989 kJ/mol
# GULP energy per Si atom -5573.608433 kJ/mol
# Density = 2.091393 g / cm^3
# Si number density = 20.961637 Si / 1000 Ang^3
#
#
#
# Elastic Constant Matrix: (Units=GPa)
#
#
# Indices 1 2 3 4 5 6 
#
# 1 108.2281 19.3619 9.6357 0.0000 -0.5272 0.0000
# 2 19.3619 85.3894 43.4632 0.0000 8.3261 0.0000
# 3 9.6357 43.4632 96.5576 0.0000 -5.8306 0.0000
# 4 0.0000 0.0000 0.0000 29.2553 0.0000 4.1870
# 5 -0.5272 8.3261 -5.8306 0.0000 28.8664 0.0000
# 6 0.0000 0.0000 0.0000 4.1870 0.0000 24.2538
#
#
#
# Elastic Compliance Matrix: (Units=1/GPa)
#
#
# Indices 1 2 3 4 5 6 
#
# 1 0.009651 -0.002350 0.000148 0.000000 0.000884 0.000000
# 2 -0.002350 0.016801 -0.007717 0.000000 -0.006448 0.000000
# 3 0.000148 -0.007717 0.014122 0.000000 0.005081 0.000000
# 4 0.000000 0.000000 0.000000 0.035048 0.000000 -0.006050
# 5 0.000884 -0.006448 0.005081 0.000000 0.037545 0.000000
# 6 0.000000 0.000000 0.000000 -0.006050 0.000000 0.042275
#
#
# Mechanical properties :
#
#
# Convention : Reuss Voigt Hill
#
# Bulk Modulus (GPa) = 48.22555 48.34407 48.28481
# Shear Modulus (GPa) = 27.44355 30.98938 29.21646
#
# Velocity S-wave (km/s) = 3.62225 3.84915 3.73742
# Velocity P-wave (km/s) = 6.36795 6.54735 6.45827
#
# Compressibility (1/GPa) = 0.02073589
#
# Stress axis : x y z
#
# Youngs Moduli (GPa) = 103.61322 59.52136 70.80990
#
# Poissons Ratio (x) = 0.13987 -0.01048
# Poissons Ratio (y) = 0.24349 0.54646
# Poissons Ratio (z) = -0.01534 0.45934
#
# Static dielectric constant tensor:
#      x y z
#    x 2.194440 0.000000 -0.248440 
#    y 0.000000 1.782430 0.000000 
#    z -0.248440 0.000000 1.935910 
# 
# From -- ./inp_files/286059.got.cif
#   From: 2010.05.17/outbox.cif.g08.bks.cpg/sg15_144_cif.got.tgz:286059.got - 2010.06.03 18:47:42.
