data_PCOD9292834
_publ_section_title
;
Structure prediction by ZEFSAII (Michael W. Deem and Ramdas Pophale) SiO2 
 PCOD9292834
Probable space group: C 2/C
;
_chemical_formula_sum "Si O2"
_cell_formula_units_Z 40
_cell_length_a 8.679805
_cell_length_b 7.414805
_cell_length_c 24.478142
_cell_angle_alpha 90.000000
_cell_angle_beta 84.775806
_cell_angle_gamma 90.000000
_cell_volume 1568.846137
_symmetry_space_group_name_H-M "C 2/C"
_symmetry_group_IT_number 15
_symmetry_cell_setting 'monoclinic'
loop_
_space_group_symop_operation_xyz
x,y,z
-x,y,1/2-z
-x,-y,-z
x,-y,1/2+z
1/2+x,1/2+y,z
1/2-x,1/2+y,1/2-z
1/2-x,1/2-y,-z
1/2+x,1/2-y,1/2+z
loop_
_atom_site_type_symbol
_atom_site_label
_atom_site_fract_x
_atom_site_fract_y
_atom_site_fract_z
Si Si1 0.606637 0.024608 0.416004
Si Si2 0.728742 0.048088 0.022092
Si Si3 0.117385 0.105018 0.379948
Si Si4 0.672292 0.608986 0.180331
Si Si5 0.841659 0.504342 0.278261
O O1 0.432702 0.053716 0.440369
O O2 0.677750 0.129987 0.362992
O O3 0.710144 0.061964 0.466784
O O4 0.608529 0.814835 0.397301
O O5 0.854357 0.001362 0.063866
O O6 0.750000 0.250000 0.000000
O O7 0.257958 0.092538 0.332524
O O8 0.965080 0.038816 0.353384
O O9 0.721786 0.497619 0.231721
O O10 0.620626 0.803441 0.203225
O O11 0.000000 0.588715 0.250000
#
# Coordination Sequence:
#
# PCOD9292834 Si02
#       5
#     8   8   8   8   8
#     4  10  22  44  68  96 133 169 211 263 318 383
#     4   9  20  41  69  97 131 171 210 259 320 383
#     4  11  23  43  67  96 129 167 215 266 319 379
#     4  12  25  42  66  94 127 168 217 268 320 382
#     4  12  26  44  64  92 129 170 216 268 322 383
#
# _framework density 25.496448000000001
#
# number of rings (size 3 to 8) (size 9 to 14) (size 15 to 20)
#    0.000    1.200    0.000    6.600    0.000    7.200 
#    0.000   17.000    0.000    0.000    0.000    0.000 
#    0.000    0.000    0.000    0.000    0.000    0.000 
#
# Total GULP energy -112066.722229 kJ/mol
# GULP energy per Si atom -5603.336111 kJ/mol
# Density = 2.543842 g / cm^3
# Si number density = 25.496448 Si / 1000 Ang^3
#
#
#
# Elastic Constant Matrix: (Units=GPa)
#
#
# Indices 1 2 3 4 5 6 
#
# 1 71.9427 3.9602 54.2818 0.0000 26.1632 0.0000
# 2 3.9602 31.1010 16.7951 0.0000 -6.2233 0.0000
# 3 54.2818 16.7951 190.5307 0.0000 23.6417 0.0000
# 4 0.0000 0.0000 0.0000 46.6932 0.0000 -8.3356
# 5 26.1632 -6.2233 23.6417 0.0000 85.7422 0.0000
# 6 0.0000 0.0000 0.0000 -8.3356 0.0000 25.5744
#
#
#
# Elastic Compliance Matrix: (Units=1/GPa)
#
#
# Indices 1 2 3 4 5 6 
#
# 1 0.019277 -0.000753 -0.004855 0.000000 -0.004598 0.000000
# 2 -0.000753 0.034767 -0.003305 0.000000 0.003664 0.000000
# 3 -0.004855 -0.003305 0.007009 0.000000 -0.000691 0.000000
# 4 0.000000 0.000000 0.000000 0.022739 0.000000 0.007412
# 5 -0.004598 0.003664 -0.000691 0.000000 0.013522 0.000000
# 6 0.000000 0.000000 0.000000 0.007412 0.000000 0.041517
#
#
# Mechanical properties :
#
#
# Convention : Reuss Voigt Hill
#
# Bulk Modulus (GPa) = 23.13367 49.29429 36.21398
# Shear Modulus (GPa) = 29.22845 46.17112 37.69979
#
# Velocity S-wave (km/s) = 3.38949 4.26007 3.84947
# Velocity P-wave (km/s) = 4.94076 6.60101 5.83029
#
# Compressibility (1/GPa) = 0.04322703
#
# Stress axis : x y z
#
# Youngs Moduli (GPa) = 51.87614 28.76281 142.67925
#
# Poissons Ratio (x) = 0.02166 0.69270
# Poissons Ratio (y) = 0.03906 0.47154
# Poissons Ratio (z) = 0.25186 0.09506
#
# Static dielectric constant tensor:
#      x y z
#    x 2.034010 0.000000 0.057640 
#    y 0.000000 2.010480 0.000000 
#    z 0.057640 0.000000 1.948830 
# 
# From -- ./inp_files/262460.got.cif
#   From: 2010.05.17/outbox.cif.g08.bks.cpg/sg15_132_cif.got.tgz:262460.got - 2010.06.03 18:47:42.
