data_PCOD9292410
_publ_section_title
;
Structure prediction by ZEFSAII (Michael W. Deem and Ramdas Pophale) SiO2 
 PCOD9292410
Probable space group: C 2/C
;
_chemical_formula_sum "Si O2"
_cell_formula_units_Z 56
_cell_length_a 12.174042
_cell_length_b 13.309122
_cell_length_c 16.878742
_cell_angle_alpha 90.000000
_cell_angle_beta 71.600785
_cell_angle_gamma 90.000000
_cell_volume 2594.990208
_symmetry_space_group_name_H-M "C 2/C"
_symmetry_group_IT_number 15
_symmetry_cell_setting 'monoclinic'
loop_
_space_group_symop_operation_xyz
x,y,z
-x,y,1/2-z
-x,-y,-z
x,-y,1/2+z
1/2+x,1/2+y,z
1/2-x,1/2+y,1/2-z
1/2-x,1/2-y,-z
1/2+x,1/2-y,1/2+z
loop_
_atom_site_type_symbol
_atom_site_label
_atom_site_fract_x
_atom_site_fract_y
_atom_site_fract_z
Si Si1 0.739596 0.017851 0.863896
Si Si2 0.452150 0.159561 0.674070
Si Si3 0.897166 0.374986 0.832848
Si Si4 0.826126 0.128106 0.211411
Si Si5 0.841421 0.564479 0.955357
Si Si6 0.949928 0.164372 0.850437
Si Si7 0.604185 0.453591 0.426635
O O1 0.652716 0.086025 0.830172
O O2 0.839705 0.090031 0.876998
O O3 0.803063 0.930946 0.798416
O O4 0.667954 0.966760 0.951153
O O5 0.500000 0.131487 0.750000
O O6 0.406981 0.274255 0.691949
O O7 0.559760 0.144772 0.589178
O O8 0.796221 0.339905 0.796698
O O9 0.873187 0.467197 0.895240
O O10 0.918283 0.277038 0.879986
O O11 0.000000 0.399894 0.750000
O O12 0.863230 0.042547 0.141112
O O13 0.711589 0.586339 0.953459
O O14 0.000000 0.163178 0.750000
O O15 0.051271 0.131912 0.884773
O O16 0.500000 0.500000 0.500000
#
# Coordination Sequence:
#
# PCOD9292410 Si02
#       7
#     8   8   8   8   8   8   8
#     4  12  24  46  72 101 136 185 227 288 343 410
#     4  12  27  45  67 101 137 182 230 284 349 413
#     4  10  22  43  71 103 130 183 232 284 338 411
#     4  11  25  44  69  97 138 184 229 281 350 410
#     4  11  25  45  72  99 144 176 229 287 350 409
#     4  11  22  40  73 101 136 173 236 280 335 405
#     4  11  23  42  70 103 138 181 227 287 342 408
#
# _framework density 21.580043
#
# number of rings (size 3 to 8) (size 9 to 14) (size 15 to 20)
#    0.000    0.857    4.286    3.429    2.000    1.714 
#    0.000    5.714    0.000    0.000    0.000    0.000 
#    0.000    0.000    0.000    0.000    0.000    0.000 
#
# Total GULP energy -156552.145555 kJ/mol
# GULP energy per Si atom -5591.148056 kJ/mol
# Density = 2.153093 g / cm^3
# Si number density = 21.580043 Si / 1000 Ang^3
#
#
#
# Elastic Constant Matrix: (Units=GPa)
#
#
# Indices 1 2 3 4 5 6 
#
# 1 98.3425 33.4683 2.0146 0.0000 -0.5551 0.0000
# 2 33.4683 71.9483 0.8141 0.0000 2.7471 0.0000
# 3 2.0146 0.8141 85.2453 0.0000 -11.9999 0.0000
# 4 0.0000 0.0000 0.0000 -28.6030 0.0000 -29.4261
# 5 -0.5551 2.7471 -11.9999 0.0000 37.4252 0.0000
# 6 0.0000 0.0000 0.0000 -29.4261 0.0000 35.7773
#
#
#
# Elastic Compliance Matrix: (Units=1/GPa)
#
#
# Indices 1 2 3 4 5 6 
#
# 1 0.012096 -0.005646 -0.000155 0.000000 0.000544 0.000000
# 2 -0.005646 0.016580 -0.000218 0.000000 -0.001371 0.000000
# 3 -0.000155 -0.000218 0.012293 0.000000 0.003955 0.000000
# 4 0.000000 0.000000 0.000000 -0.018937 0.000000 -0.015576
# 5 0.000544 -0.001371 0.003955 0.000000 0.028097 0.000000
# 6 0.000000 0.000000 0.000000 -0.015576 0.000000 0.015140
#
#
# Mechanical properties :
#
#
# Convention : Reuss Voigt Hill
#
# Bulk Modulus (GPa) = 34.56445 36.45890 35.51168
# Shear Modulus (GPa) = 57.50376 23.53585 40.51980
#
# Velocity S-wave (km/s) = 5.16765 3.30605 4.33789
# Velocity P-wave (km/s) = 7.18733 5.61291 6.44835
#
# Compressibility (1/GPa) = 0.02893146
#
# Stress axis : x y z
#
# Youngs Moduli (GPa) = 82.67055 60.31386 81.34451
#
# Poissons Ratio (x) = 0.34052 0.01264
# Poissons Ratio (y) = 0.46674 0.01772
# Poissons Ratio (z) = 0.01284 0.01314
#
# Static dielectric constant tensor:
#      x y z
#    x 1.866720 0.000000 -0.022240 
#    y 0.000000 1.851160 0.000000 
#    z -0.022240 0.000000 1.770010 
# 
# From -- ./inp_files/197774.got.cif
#   From: 2010.05.17/outbox.cif.g08.bks.cpg/sg15_99_cif.got.tgz:197774.got - 2010.06.03 18:47:42.
