data_PCOD9292124
_publ_section_title
;
Structure prediction by ZEFSAII (Michael W. Deem and Ramdas Pophale) SiO2 
 PCOD9292124
Probable space group: C 2/C
;
_chemical_formula_sum "Si O2"
_cell_formula_units_Z 52
_cell_length_a 11.931255
_cell_length_b 16.142762
_cell_length_c 18.726591
_cell_angle_alpha 90.000000
_cell_angle_beta 140.497876
_cell_angle_gamma 90.000000
_cell_volume 2294.313454
_symmetry_space_group_name_H-M "C 2/C"
_symmetry_group_IT_number 15
_symmetry_cell_setting 'monoclinic'
loop_
_space_group_symop_operation_xyz
x,y,z
-x,y,1/2-z
-x,-y,-z
x,-y,1/2+z
1/2+x,1/2+y,z
1/2-x,1/2+y,1/2-z
1/2-x,1/2-y,-z
1/2+x,1/2-y,1/2+z
loop_
_atom_site_type_symbol
_atom_site_label
_atom_site_fract_x
_atom_site_fract_y
_atom_site_fract_z
Si Si1 0.164481 0.759211 0.535611
Si Si2 0.120182 0.610604 0.908888
Si Si3 0.059542 0.782514 0.708684
Si Si4 0.000038 0.893476 0.542317
Si Si5 0.000000 0.666807 0.250000
Si Si6 0.128987 0.639610 0.080336
Si Si7 0.654965 0.034096 0.226129
O O1 0.250000 0.750000 0.500000
O O2 0.331253 0.776333 0.667127
O O3 0.049812 0.843138 0.495018
O O4 0.066820 0.675791 0.510242
O O5 0.052075 0.699138 0.847892
O O6 0.955509 0.549105 0.820081
O O7 0.296364 0.582089 0.953848
O O8 0.163972 0.622039 0.014544
O O9 0.264924 0.784905 0.828186
O O10 0.000000 0.833288 0.750000
O O11 0.024493 0.825284 0.617006
O O12 0.154833 0.958484 0.640542
O O13 0.029140 0.604958 0.198408
O O14 0.169439 0.561029 0.150391
#
# Coordination Sequence:
#
# PCOD9292124 Si02
#       7
#     8   8   8   8   4   8   8
#     4  11  21  40  68  91 125 179 227 275 332 393
#     4  12  23  42  67 100 137 176 220 280 350 406
#     4  11  21  37  66  99 131 165 222 281 334 399
#     4  10  22  43  66  98 134 174 224 285 333 400
#     4  10  22  44  60  90 134 172 224 272 324 400
#     4  11  22  41  66  96 129 175 225 283 332 403
#     4  10  24  41  63  96 136 179 215 274 344 408
#
# _framework density 22.664732000000001
#
# number of rings (size 3 to 8) (size 9 to 14) (size 15 to 20)
#    0.000    1.231    4.615    1.846    1.077    0.000 
#    2.769    3.077    0.000    0.000    0.000    0.000 
#    0.000    0.000    0.000    0.000    0.000    0.000 
#
# Total GULP energy -145051.227854 kJ/mol
# GULP energy per Si atom -5578.893379 kJ/mol
# Density = 2.261315 g / cm^3
# Si number density = 22.664732 Si / 1000 Ang^3
#
#
#
# Elastic Constant Matrix: (Units=GPa)
#
#
# Indices 1 2 3 4 5 6 
#
# 1 142.6973 33.3953 25.4677 0.0000 -6.7364 0.0000
# 2 33.3953 56.5146 34.4255 0.0000 8.6291 0.0000
# 3 25.4677 34.4255 61.8282 -0.0001 12.5026 0.0000
# 4 0.0000 0.0000 -0.0001 12.8810 0.0000 2.6515
# 5 -6.7364 8.6291 12.5026 0.0000 49.7496 0.0000
# 6 0.0000 0.0000 0.0000 2.6515 0.0000 35.6187
#
#
#
# Elastic Compliance Matrix: (Units=1/GPa)
#
#
# Indices 1 2 3 4 5 6 
#
# 1 0.008412 -0.004430 -0.001458 0.000000 0.002274 0.000000
# 2 -0.004430 0.029151 -0.013973 0.000000 -0.002145 0.000000
# 3 -0.001458 -0.013973 0.025395 0.000000 -0.004156 0.000000
# 4 0.000000 0.000000 0.000000 0.078842 0.000000 -0.005869
# 5 0.002274 -0.002145 -0.004156 0.000000 0.021825 0.000000
# 6 0.000000 0.000000 0.000000 -0.005869 0.000000 0.028512
#
#
# Mechanical properties :
#
#
# Convention : Reuss Voigt Hill
#
# Bulk Modulus (GPa) = 43.03615 49.73520 46.38568
# Shear Modulus (GPa) = 20.86776 30.83331 25.85054
#
# Velocity S-wave (km/s) = 3.03762 3.69237 3.38088
# Velocity P-wave (km/s) = 5.59752 6.33796 5.97921
#
# Compressibility (1/GPa) = 0.02323628
#
# Stress axis : x y z
#
# Youngs Moduli (GPa) = 118.87566 34.30426 39.37792
#
# Poissons Ratio (x) = 0.15195 0.05743
# Poissons Ratio (y) = 0.52657 0.55022
# Poissons Ratio (z) = 0.17338 0.47932
#
# Static dielectric constant tensor:
#      x y z
#    x 1.994210 0.000000 0.064820 
#    y 0.000000 1.862960 0.000000 
#    z 0.064820 0.000000 1.946250 
# 
# From -- ./inp_files/239867.got.cif
#   From: 2010.05.17/outbox.cif.g08.bks.cpg/sg15_120_cif.got.tgz:239867.got - 2010.06.03 18:47:42.
