data_PCOD9292696
_publ_section_title
;
Structure prediction by ZEFSAII (Michael W. Deem and Ramdas Pophale) SiO2 
 PCOD9292696
Probable space group: C 2/C
;
_chemical_formula_sum "Si O2"
_cell_formula_units_Z 32
_cell_length_a 20.865771
_cell_length_b 12.511466
_cell_length_c 11.253208
_cell_angle_alpha 90.000000
_cell_angle_beta 24.964011
_cell_angle_gamma 90.000000
_cell_volume 1239.886006
_symmetry_space_group_name_H-M "C 2/C"
_symmetry_group_IT_number 15
_symmetry_cell_setting 'monoclinic'
loop_
_space_group_symop_operation_xyz
x,y,z
-x,y,1/2-z
-x,-y,-z
x,-y,1/2+z
1/2+x,1/2+y,z
1/2-x,1/2+y,1/2-z
1/2-x,1/2-y,-z
1/2+x,1/2-y,1/2+z
loop_
_atom_site_type_symbol
_atom_site_label
_atom_site_fract_x
_atom_site_fract_y
_atom_site_fract_z
Si Si1 0.000000 0.500000 0.500000
Si Si2 0.954476 0.683145 0.188795
Si Si3 0.000000 0.621751 0.750000
Si Si4 0.290316 0.678695 0.579319
Si Si5 0.038503 0.885079 0.481085
O O1 0.136515 0.583643 0.208665
O O2 0.978366 0.447813 0.402693
O O3 0.000000 0.694607 0.250000
O O4 0.116091 0.644713 0.855685
O O5 0.920426 0.795150 0.184742
O O6 0.148547 0.700838 0.501871
O O7 0.342711 0.618238 0.610365
O O8 0.383515 0.650545 0.306765
O O9 0.000000 0.000000 0.500000
#
# Coordination Sequence:
#
# PCOD9292696 Si02
#       5
#     4   8   4   8   8
#     4  12  22  42  66  98 130 164 222 268 324 392
#     4  12  26  41  65  99 131 170 220 269 322 393
#     4  10  22  44  66  96 130 172 220 266 330 394
#     4  10  23  45  66  90 132 178 207 266 336 384
#     4  10  23  44  67  96 126 168 222 266 325 392
#
# _framework density 25.808824000000001
#
# number of rings (size 3 to 8) (size 9 to 14) (size 15 to 20)
#    0.000    1.500    6.250    0.750    3.500    5.000 
#    0.000    0.000    0.000    0.000    0.000    0.000 
#    0.000    0.000    0.000    0.000    0.000    0.000 
#
# Total GULP energy -89089.563739 kJ/mol
# GULP energy per Si atom -5568.097734 kJ/mol
# Density = 2.575008 g / cm^3
# Si number density = 25.808824 Si / 1000 Ang^3
#
#
#
# Elastic Constant Matrix: (Units=GPa)
#
#
# Indices 1 2 3 4 5 6 
#
# 1 139.5968 59.5715 24.5722 0.0000 54.9898 0.0001
# 2 59.5715 192.8951 5.5458 0.0000 49.9107 0.0001
# 3 24.5722 5.5458 50.2519 0.0000 7.6151 0.0001
# 4 0.0000 0.0000 0.0000 34.3695 0.0000 25.3867
# 5 54.9898 49.9107 7.6151 0.0000 69.0699 -0.0001
# 6 0.0001 0.0001 0.0001 25.3867 -0.0001 -6.4941
#
#
#
# Elastic Compliance Matrix: (Units=1/GPa)
#
#
# Indices 1 2 3 4 5 6 
#
# 1 0.011577 -0.001463 -0.004335 0.000000 -0.007682 0.000000
# 2 -0.001463 0.006561 0.000542 0.000000 -0.003636 0.000000
# 3 -0.004335 0.000542 0.021861 0.000000 0.000649 0.000000
# 4 0.000000 0.000000 0.000000 0.007484 0.000000 0.029258
# 5 -0.007682 -0.003636 0.000649 0.000000 0.023150 0.000000
# 6 0.000000 0.000000 0.000000 0.029258 0.000000 -0.039611
#
#
# Mechanical properties :
#
#
# Convention : Reuss Voigt Hill
#
# Bulk Modulus (GPa) = 33.91270 62.45809 48.18539
# Shear Modulus (GPa) = 97.34351 38.92599 68.13475
#
# Velocity S-wave (km/s) = 6.14809 3.88782 5.14365
# Velocity P-wave (km/s) = 7.97290 6.66381 7.34757
#
# Compressibility (1/GPa) = 0.02948748
#
# Stress axis : x y z
#
# Youngs Moduli (GPa) = 86.37864 152.40979 45.74271
#
# Poissons Ratio (x) = 0.22298 0.19831
# Poissons Ratio (y) = 0.12637 -0.02481
# Poissons Ratio (z) = 0.37448 -0.08266
#
# Static dielectric constant tensor:
#      x y z
#    x 1.851250 0.000000 -0.021290 
#    y 0.000000 0.258980 0.000000 
#    z -0.021290 0.000000 2.168290 
# 
# From -- ./inp_files/83903.got.cif
#   From: 2010.05.17/outbox.cif.g08.bks.cpg/sg15_42_cif.got.tgz:83903.got - 2010.06.03 18:47:42.
