data_PCOD9292111
_publ_section_title
;
Structure prediction by ZEFSAII (Michael W. Deem and Ramdas Pophale) SiO2 
 PCOD9292111
Probable space group: C 2/C
;
_chemical_formula_sum "Si O2"
_cell_formula_units_Z 52
_cell_length_a 14.008687
_cell_length_b 5.076573
_cell_length_c 30.406212
_cell_angle_alpha 90.000000
_cell_angle_beta 86.102365
_cell_angle_gamma 90.000000
_cell_volume 2157.370507
_symmetry_space_group_name_H-M "C 2/C"
_symmetry_group_IT_number 15
_symmetry_cell_setting 'monoclinic'
loop_
_space_group_symop_operation_xyz
x,y,z
-x,y,1/2-z
-x,-y,-z
x,-y,1/2+z
1/2+x,1/2+y,z
1/2-x,1/2+y,1/2-z
1/2-x,1/2-y,-z
1/2+x,1/2-y,1/2+z
loop_
_atom_site_type_symbol
_atom_site_label
_atom_site_fract_x
_atom_site_fract_y
_atom_site_fract_z
Si Si1 0.738408 0.393117 0.367476
Si Si2 0.537132 0.752044 0.471851
Si Si3 0.766449 0.380067 0.075928
Si Si4 0.582215 0.741281 0.178631
Si Si5 0.000000 0.954998 0.250000
Si Si6 0.435256 0.139335 0.165689
Si Si7 0.438745 0.426159 0.403691
O O1 0.707026 0.677972 0.385469
O O2 0.838156 0.444425 0.339194
O O3 0.672430 0.233148 0.335881
O O4 0.736887 0.188539 0.409393
O O5 0.500000 0.500000 0.500000
O O6 0.649566 0.809542 0.460578
O O7 0.485793 0.672754 0.427355
O O8 0.500000 0.000000 0.500000
O O9 0.654724 0.317281 0.068156
O O10 0.583456 0.640300 0.227912
O O11 0.602257 0.520523 0.141846
O O12 0.475790 0.849099 0.172371
O O13 0.972692 0.785379 0.208533
O O14 0.480072 0.229670 0.116707
#
# Coordination Sequence:
#
# PCOD9292111 Si02
#       7
#     8   8   8   8   4   8   8
#     4  11  23  40  73  99 125 180 231 269 322 409
#     4  12  27  42  66 101 136 169 221 277 340 403
#     4  11  23  44  67 100 129 170 231 269 330 408
#     4  10  22  43  66  96 133 176 227 270 337 401
#     4  10  24  42  58 102 134 170 216 278 334 394
#     4  11  21  42  69  91 134 177 220 276 335 393
#     4  10  23  41  70  91 131 179 220 270 336 394
#
# _framework density 24.103414999999998
#
# number of rings (size 3 to 8) (size 9 to 14) (size 15 to 20)
#    0.000    1.231    3.077    2.308    4.308    1.231 
#    5.538    0.000    0.000    0.000    0.000    0.000 
#    0.000    0.000    0.000    0.000    0.000    0.000 
#
# Total GULP energy -144874.095899 kJ/mol
# GULP energy per Si atom -5572.080611 kJ/mol
# Density = 2.404855 g / cm^3
# Si number density = 24.103415 Si / 1000 Ang^3
#
#
#
# Elastic Constant Matrix: (Units=GPa)
#
#
# Indices 1 2 3 4 5 6 
#
# 1 73.5615 6.9844 25.3004 0.0000 -15.5553 0.0000
# 2 6.9844 114.3976 36.0065 0.0000 -7.5923 0.0000
# 3 25.3004 36.0065 128.3049 0.0000 -25.1374 0.0000
# 4 0.0000 0.0000 0.0000 40.1660 0.0000 -4.5243
# 5 -15.5553 -7.5923 -25.1374 0.0000 32.5543 0.0000
# 6 0.0000 0.0000 0.0000 -4.5243 0.0000 30.6097
#
#
#
# Elastic Compliance Matrix: (Units=1/GPa)
#
#
# Indices 1 2 3 4 5 6 
#
# 1 0.015502 0.000048 -0.001905 0.000000 0.005948 0.000000
# 2 0.000048 0.009589 -0.002660 0.000000 0.000205 0.000000
# 3 -0.001905 -0.002660 0.010152 0.000000 0.006308 0.000000
# 4 0.000000 0.000000 0.000000 0.025318 0.000000 0.003742
# 5 0.005948 0.000205 0.006308 0.000000 0.038479 0.000000
# 6 0.000000 0.000000 0.000000 0.003742 0.000000 0.033223
#
#
# Mechanical properties :
#
#
# Convention : Reuss Voigt Hill
#
# Bulk Modulus (GPa) = 38.15513 50.31630 44.23571
# Shear Modulus (GPa) = 33.32555 37.19751 35.26153
#
# Velocity S-wave (km/s) = 3.72238 3.93268 3.82897
# Velocity P-wave (km/s) = 5.85994 6.44529 6.15957
#
# Compressibility (1/GPa) = 0.02620880
#
# Stress axis : x y z
#
# Youngs Moduli (GPa) = 64.50601 104.28093 98.50151
#
# Poissons Ratio (x) = -0.00499 0.18766
# Poissons Ratio (y) = -0.00309 0.26205
# Poissons Ratio (z) = 0.12289 0.27743
#
# Static dielectric constant tensor:
#      x y z
#    x 2.049860 0.000000 -0.026070 
#    y 0.000000 1.977310 0.000000 
#    z -0.026070 0.000000 1.968340 
# 
# From -- ./inp_files/312290.got.cif
#   From: 2010.05.17/outbox.cif.g08.bks.cpg/sg15_157_cif.got.tgz:312290.got - 2010.06.03 18:47:42.
