data_PCOD9292766
_publ_section_title
;
Structure prediction by ZEFSAII (Michael W. Deem and Ramdas Pophale) SiO2 
 PCOD9292766
Probable space group: C 2/C
;
_chemical_formula_sum "Si O2"
_cell_formula_units_Z 32
_cell_length_a 8.163289
_cell_length_b 7.381029
_cell_length_c 21.838345
_cell_angle_alpha 90.000000
_cell_angle_beta 107.418993
_cell_angle_gamma 90.000000
_cell_volume 1255.493392
_symmetry_space_group_name_H-M "C 2/C"
_symmetry_group_IT_number 15
_symmetry_cell_setting 'monoclinic'
loop_
_space_group_symop_operation_xyz
x,y,z
-x,y,1/2-z
-x,-y,-z
x,-y,1/2+z
1/2+x,1/2+y,z
1/2-x,1/2+y,1/2-z
1/2-x,1/2-y,-z
1/2+x,1/2-y,1/2+z
loop_
_atom_site_type_symbol
_atom_site_label
_atom_site_fract_x
_atom_site_fract_y
_atom_site_fract_z
Si Si1 0.428257 0.956575 0.307458
Si Si2 0.748667 0.892785 0.411240
Si Si3 0.324702 0.247739 0.152027
Si Si4 0.302265 0.984875 0.959603
O O1 0.500000 0.890963 0.250000
O O2 0.543851 0.877968 0.375752
O O3 0.243629 0.879618 0.302867
O O4 0.485669 0.167005 0.316283
O O5 0.789097 0.948365 0.485501
O O6 0.804608 0.686873 0.414430
O O7 0.785380 0.058271 0.368712
O O8 0.294108 0.353010 0.085294
O O9 0.500000 0.000000 0.000000
#
# Coordination Sequence:
#
# PCOD9292766 Si02
#       4
#     8   8   8   8
#     4  10  23  46  66  97 135 182 235 283 344 417
#     4   9  23  39  66 100 133 173 227 277 351 411
#     4  10  22  44  67  97 136 175 232 279 352 411
#     4  11  19  41  68  98 136 172 219 286 349 414
#
# _framework density 25.487987
#
# number of rings (size 3 to 8) (size 9 to 14) (size 15 to 20)
#    1.500    0.500    2.500    0.750    0.000    3.000 
#    9.000    1.250    0.000    0.000    0.000    0.000 
#    0.000    0.000    0.000    0.000    0.000    0.000 
#
# Total GULP energy -89117.305146 kJ/mol
# GULP energy per Si atom -5569.831572 kJ/mol
# Density = 2.542998 g / cm^3
# Si number density = 25.487987 Si / 1000 Ang^3
#
#
#
# Elastic Constant Matrix: (Units=GPa)
#
#
# Indices 1 2 3 4 5 6 
#
# 1 73.3071 38.7025 17.4447 0.0000 -8.2624 0.0000
# 2 38.7025 144.4451 23.3740 0.0000 15.7293 0.0000
# 3 17.4447 23.3740 91.3606 0.0000 -11.9275 0.0000
# 4 0.0000 0.0000 0.0000 32.8246 0.0000 8.9585
# 5 -8.2624 15.7293 -11.9275 0.0000 34.4633 0.0000
# 6 0.0000 0.0000 0.0000 8.9585 0.0000 43.8254
#
#
#
# Elastic Compliance Matrix: (Units=1/GPa)
#
#
# Indices 1 2 3 4 5 6 
#
# 1 0.017305 -0.005101 -0.001208 0.000000 0.006059 0.000000
# 2 -0.005101 0.009332 -0.002230 0.000000 -0.006254 0.000000
# 3 -0.001208 -0.002230 0.012402 0.000000 0.005020 0.000000
# 4 0.000000 0.000000 0.000000 0.032265 0.000000 -0.006595
# 5 0.006059 -0.006254 0.005020 0.000000 0.035061 0.000000
# 6 0.000000 0.000000 0.000000 -0.006595 0.000000 0.024166
#
#
# Mechanical properties :
#
#
# Convention : Reuss Voigt Hill
#
# Bulk Modulus (GPa) = 45.53609 52.01725 48.77667
# Shear Modulus (GPa) = 32.27304 37.52878 34.90091
#
# Velocity S-wave (km/s) = 3.56224 3.84136 3.70443
# Velocity P-wave (km/s) = 5.90118 6.33463 6.12174
#
# Compressibility (1/GPa) = 0.02196060
#
# Stress axis : x y z
#
# Youngs Moduli (GPa) = 57.78813 107.16294 80.63042
#
# Poissons Ratio (x) = 0.54662 0.09742
# Poissons Ratio (y) = 0.29477 0.17980
# Poissons Ratio (z) = 0.06982 0.23896
#
# Static dielectric constant tensor:
#      x y z
#    x 2.147050 0.000000 -0.049380 
#    y 0.000000 2.072570 0.000000 
#    z -0.049380 0.000000 1.991050 
# 
# From -- ./inp_files/262253.got.cif
#   From: 2010.05.17/outbox.cif.g08.bks.cpg/sg15_132_cif.got.tgz:262253.got - 2010.06.03 18:47:42.
