data_PCOD9292190
_publ_section_title
;
Structure prediction by ZEFSAII (Michael W. Deem and Ramdas Pophale) SiO2 
 PCOD9292190
Probable space group: C 2/C
;
_chemical_formula_sum "Si O2"
_cell_formula_units_Z 36
_cell_length_a 20.931360
_cell_length_b 7.727901
_cell_length_c 27.271785
_cell_angle_alpha 90.000000
_cell_angle_beta 157.892637
_cell_angle_gamma 90.000000
_cell_volume 1660.186130
_symmetry_space_group_name_H-M "C 2/C"
_symmetry_group_IT_number 15
_symmetry_cell_setting 'monoclinic'
loop_
_space_group_symop_operation_xyz
x,y,z
-x,y,1/2-z
-x,-y,-z
x,-y,1/2+z
1/2+x,1/2+y,z
1/2-x,1/2+y,1/2-z
1/2-x,1/2-y,-z
1/2+x,1/2-y,1/2+z
loop_
_atom_site_type_symbol
_atom_site_label
_atom_site_fract_x
_atom_site_fract_y
_atom_site_fract_z
Si Si1 0.441484 0.459153 0.257810
Si Si2 0.796128 0.448435 0.024029
Si Si3 0.467047 0.098269 0.898723
Si Si4 0.500000 0.864959 0.750000
Si Si5 0.311320 0.184580 0.358047
O O1 0.500000 0.562304 0.250000
O O2 0.627617 0.437311 0.413088
O O3 0.381315 0.273984 0.194670
O O4 0.319813 0.558380 0.206839
O O5 0.923872 0.514863 0.155126
O O6 0.886859 0.453921 0.035922
O O7 0.750000 0.250000 0.000000
O O8 0.308845 0.177528 0.755370
O O9 0.406582 0.929771 0.885201
O O10 0.552395 0.224731 0.001172
#
# Coordination Sequence:
#
# PCOD9292190 Si02
#       5
#     8   8   8   4   8
#     4  10  22  43  67  95 137 170 221 280 334 402
#     4  12  24  42  71 101 132 174 232 281 335 399
#     4  11  26  44  68  96 139 180 226 277 343 397
#     4  10  26  38  68 100 134 176 216 282 342 396
#     4  11  25  46  67 100 137 182 222 284 333 413
#
# _framework density 21.684315999999999
#
# number of rings (size 3 to 8) (size 9 to 14) (size 15 to 20)
#    0.667    0.444    4.444    0.667    7.778    0.889 
#    4.000    0.000    0.000    0.000    0.000    0.000 
#    0.000    0.000    0.000    0.000    0.000    0.000 
#
# Total GULP energy -100319.330396 kJ/mol
# GULP energy per Si atom -5573.296133 kJ/mol
# Density = 2.163496 g / cm^3
# Si number density = 21.684316 Si / 1000 Ang^3
#
#
#
# Elastic Constant Matrix: (Units=GPa)
#
#
# Indices 1 2 3 4 5 6 
#
# 1 130.3391 26.1122 21.6469 -0.0005 3.8377 0.0002
# 2 26.1122 64.3256 11.4279 -0.0001 -10.5701 0.0003
# 3 21.6469 11.4279 81.5884 0.0022 -23.5590 -0.0001
# 4 -0.0005 -0.0001 0.0022 41.0084 -0.0001 -7.7884
# 5 3.8377 -10.5701 -23.5590 -0.0001 46.0727 0.0001
# 6 0.0002 0.0003 -0.0001 -7.7884 0.0001 17.2246
#
#
#
# Elastic Compliance Matrix: (Units=1/GPa)
#
#
# Indices 1 2 3 4 5 6 
#
# 1 0.008939 -0.003633 -0.002720 0.000000 -0.002969 0.000000
# 2 -0.003633 0.017769 -0.000305 0.000000 0.004223 0.000000
# 3 -0.002720 -0.000305 0.015330 -0.000001 0.007995 0.000000
# 4 0.000000 0.000000 -0.000001 0.026676 0.000000 0.012062
# 5 -0.002969 0.004223 0.007995 0.000000 0.027009 0.000000
# 6 0.000000 0.000000 0.000000 0.012062 0.000000 0.063511
#
#
# Mechanical properties :
#
#
# Convention : Reuss Voigt Hill
#
# Bulk Modulus (GPa) = 34.81882 43.84745 39.33313
# Shear Modulus (GPa) = 27.45352 35.33223 31.39287
#
# Velocity S-wave (km/s) = 3.56203 4.04095 3.80902
# Velocity P-wave (km/s) = 5.74538 6.48360 6.12562
#
# Compressibility (1/GPa) = 0.02872010
#
# Stress axis : x y z
#
# Youngs Moduli (GPa) = 111.86395 56.27755 65.23233
#
# Poissons Ratio (x) = 0.20448 0.17745
# Poissons Ratio (y) = 0.40646 0.01992
# Poissons Ratio (z) = 0.30430 0.01719
#
# Static dielectric constant tensor:
#      x y z
#    x 1.771030 0.000000 -0.048330 
#    y 0.000000 1.772470 0.000000 
#    z -0.048330 0.000000 1.994540 
# 
# From -- ./inp_files/318432.got.cif
#   From: 2010.05.17/outbox.cif.g08.bks.cpg/sg15_160_cif.got.tgz:318432.got - 2010.06.03 18:47:42.
