data_PCOD9292008
_publ_section_title
;
Structure prediction by ZEFSAII (Michael W. Deem and Ramdas Pophale) SiO2 
 PCOD9292008
Probable space group: C 2/C
;
_chemical_formula_sum "Si O2"
_cell_formula_units_Z 56
_cell_length_a 22.103783
_cell_length_b 11.171613
_cell_length_c 11.444842
_cell_angle_alpha 90.000000
_cell_angle_beta 71.140077
_cell_angle_gamma 90.000000
_cell_volume 2674.400853
_symmetry_space_group_name_H-M "C 2/C"
_symmetry_group_IT_number 15
_symmetry_cell_setting 'monoclinic'
loop_
_space_group_symop_operation_xyz
x,y,z
-x,y,1/2-z
-x,-y,-z
x,-y,1/2+z
1/2+x,1/2+y,z
1/2-x,1/2+y,1/2-z
1/2-x,1/2-y,-z
1/2+x,1/2-y,1/2+z
loop_
_atom_site_type_symbol
_atom_site_label
_atom_site_fract_x
_atom_site_fract_y
_atom_site_fract_z
Si Si1 0.777668 0.748508 0.794778
Si Si2 0.763980 0.867951 0.415542
Si Si3 0.436392 0.953960 0.980243
Si Si4 0.000000 0.714929 0.250000
Si Si5 0.911466 0.906612 0.362099
Si Si6 0.316595 0.901529 0.496236
Si Si7 0.407630 0.716677 0.114487
Si Si8 0.500000 0.623857 0.250000
O O1 0.751995 0.664189 0.707935
O O2 0.805945 0.674216 0.885967
O O3 0.838433 0.821520 0.706626
O O4 0.719988 0.829930 0.878460
O O5 0.750000 0.750000 0.500000
O O6 0.836841 0.907772 0.384090
O O7 0.719254 0.972265 0.491398
O O8 0.461698 0.873915 0.857678
O O9 0.389361 0.061777 0.976712
O O10 0.402092 0.857114 0.085498
O O11 0.500000 0.000000 0.000000
O O12 0.054741 0.812689 0.249198
O O13 0.921600 0.854263 0.486232
O O14 0.945459 0.034118 0.332165
O O15 0.464436 0.697627 0.171230
#
# Coordination Sequence:
#
# PCOD9292008 Si02
#       8
#     8   8   8   4   8   8   8   4
#     4  11  26  46  71 101 141 181 237 295 352 421
#     4  12  23  42  74  98 135 187 228 296 349 417
#     4  11  25  41  67  96 132 181 226 285 346 412
#     4   9  22  41  60  96 134 173 228 271 340 412
#     4  10  22  43  65 102 136 182 227 276 352 415
#     4  11  27  46  65 106 137 181 238 290 360 416
#     4  11  23  46  65 102 135 177 237 282 345 415
#     4  11  24  39  72  98 146 179 220 287 340 422
#
# _framework density 20.939268999999999
#
# number of rings (size 3 to 8) (size 9 to 14) (size 15 to 20)
#    0.000    1.143    2.857    2.143    8.000    1.143 
#    0.000    0.000    0.000    0.000    0.000    0.000 
#    0.000    0.000    0.000    0.000    0.000    0.000 
#
# Total GULP energy -156415.596024 kJ/mol
# GULP energy per Si atom -5586.271287 kJ/mol
# Density = 2.089161 g / cm^3
# Si number density = 20.939269 Si / 1000 Ang^3
#
#
#
# Elastic Constant Matrix: (Units=GPa)
#
#
# Indices 1 2 3 4 5 6 
#
# 1 140.4532 9.8244 30.6660 0.0000 -1.3764 0.0000
# 2 9.8244 59.6882 20.3763 0.0000 2.6500 0.0000
# 3 30.6660 20.3763 81.1766 0.0000 -8.9117 0.0000
# 4 0.0000 0.0000 0.0000 12.8652 0.0000 -3.4950
# 5 -1.3764 2.6500 -8.9117 0.0000 28.7633 0.0000
# 6 0.0000 0.0000 0.0000 -3.4950 0.0000 33.4035
#
#
#
# Elastic Compliance Matrix: (Units=1/GPa)
#
#
# Indices 1 2 3 4 5 6 
#
# 1 0.007772 -0.000257 -0.002928 0.000000 -0.000511 0.000000
# 2 -0.000257 0.018626 -0.004936 0.000000 -0.003258 0.000000
# 3 -0.002928 -0.004936 0.015216 0.000000 0.005029 0.000000
# 4 0.000000 0.000000 0.000000 0.080003 0.000000 0.008371
# 5 -0.000511 -0.003258 0.005029 0.000000 0.036600 0.000000
# 6 0.000000 0.000000 0.000000 0.008371 0.000000 0.030813
#
#
# Mechanical properties :
#
#
# Convention : Reuss Voigt Hill
#
# Bulk Modulus (GPa) = 39.41280 44.78349 42.09814
# Shear Modulus (GPa) = 23.39421 29.70315 26.54868
#
# Velocity S-wave (km/s) = 3.34614 3.77043 3.56461
# Velocity P-wave (km/s) = 5.81310 6.35521 6.09019
#
# Compressibility (1/GPa) = 0.02537247
#
# Stress axis : x y z
#
# Youngs Moduli (GPa) = 128.66728 53.68941 65.72114
#
# Poissons Ratio (x) = 0.01380 0.19241
# Poissons Ratio (y) = 0.03308 0.32438
# Poissons Ratio (z) = 0.37669 0.26500
#
# Static dielectric constant tensor:
#      x y z
#    x 1.750470 0.000000 -0.037480 
#    y 0.000000 1.692410 0.000000 
#    z -0.037480 0.000000 1.811810 
# 
# From -- ./inp_files/111616.got.cif
#   From: 2010.05.17/outbox.cif.g08.bks.cpg/sg15_56_cif.got.tgz:111616.got - 2010.06.03 18:47:42.
