data_PCOD9292192
_publ_section_title
;
Structure prediction by ZEFSAII (Michael W. Deem and Ramdas Pophale) SiO2 
 PCOD9292192
Probable space group: C 2/C
;
_chemical_formula_sum "Si O2"
_cell_formula_units_Z 48
_cell_length_a 11.435085
_cell_length_b 7.763824
_cell_length_c 28.536036
_cell_angle_alpha 90.000000
_cell_angle_beta 53.932341
_cell_angle_gamma 90.000000
_cell_volume 2047.827167
_symmetry_space_group_name_H-M "C 2/C"
_symmetry_group_IT_number 15
_symmetry_cell_setting 'monoclinic'
loop_
_space_group_symop_operation_xyz
x,y,z
-x,y,1/2-z
-x,-y,-z
x,-y,1/2+z
1/2+x,1/2+y,z
1/2-x,1/2+y,1/2-z
1/2-x,1/2-y,-z
1/2+x,1/2-y,1/2+z
loop_
_atom_site_type_symbol
_atom_site_label
_atom_site_fract_x
_atom_site_fract_y
_atom_site_fract_z
Si Si1 0.361512 0.671898 0.663619
Si Si2 0.648984 0.823046 0.928399
Si Si3 0.655202 0.669914 0.481014
Si Si4 0.839925 0.005322 0.267702
Si Si5 0.321258 0.802351 0.121295
Si Si6 0.912867 0.934250 0.927213
O O1 0.307157 0.682201 0.621778
O O2 0.335433 0.550781 0.714649
O O3 0.525668 0.607987 0.612581
O O4 0.284721 0.849194 0.698239
O O5 0.493472 0.775898 0.984683
O O6 0.772024 0.858326 0.936827
O O7 0.634282 0.007961 0.906519
O O8 0.750000 0.750000 0.500000
O O9 0.722336 0.690838 0.414056
O O10 0.618585 0.484156 0.511489
O O11 0.796550 0.843764 0.311335
O O12 0.000000 0.061452 0.250000
O O13 0.458628 0.701297 0.108443
#
# Coordination Sequence:
#
# PCOD9292192 Si02
#       6
#     8   8   8   8   8   8
#     4  10  22  43  67  96 130 172 223 275 332 394
#     4  10  23  43  66  97 137 176 217 275 340 390
#     4  11  23  42  69  99 139 176 220 278 333 398
#     4  11  24  43  68  93 133 175 221 279 338 393
#     4  11  23  42  66 100 131 179 223 271 333 393
#     4  11  23  44  68  97 138 174 223 275 331 402
#
# _framework density 23.439478000000001
#
# number of rings (size 3 to 8) (size 9 to 14) (size 15 to 20)
#    0.000    1.333    1.667    4.000    2.333    0.667 
#    6.000    8.333    0.000    0.000    0.000    0.000 
#    0.000    0.000    0.000    0.000    0.000    0.000 
#
# Total GULP energy -133727.524898 kJ/mol
# GULP energy per Si atom -5571.980204 kJ/mol
# Density = 2.338613 g / cm^3
# Si number density = 23.439478 Si / 1000 Ang^3
#
#
#
# Elastic Constant Matrix: (Units=GPa)
#
#
# Indices 1 2 3 4 5 6 
#
# 1 142.8546 52.0176 47.9770 0.0000 -1.0781 0.0000
# 2 52.0176 82.7750 44.3156 0.0000 5.1193 0.0000
# 3 47.9770 44.3156 73.5093 0.0000 13.7501 0.0000
# 4 0.0000 0.0000 0.0000 28.9582 0.0000 7.7010
# 5 -1.0781 5.1193 13.7501 0.0000 23.4036 0.0000
# 6 0.0000 0.0000 0.0000 7.7010 0.0000 35.0677
#
#
#
# Elastic Compliance Matrix: (Units=1/GPa)
#
#
# Indices 1 2 3 4 5 6 
#
# 1 0.010171 -0.003946 -0.005065 0.000000 0.004307 0.000000
# 2 -0.003946 0.019524 -0.009394 0.000000 0.001067 0.000000
# 3 -0.005065 -0.009394 0.024977 0.000000 -0.012853 0.000000
# 4 0.000000 0.000000 0.000000 0.036674 0.000000 -0.008054
# 5 0.004307 0.001067 -0.012853 0.000000 0.050245 0.000000
# 6 0.000000 0.000000 0.000000 -0.008054 0.000000 0.030285
#
#
# Mechanical properties :
#
#
# Convention : Reuss Voigt Hill
#
# Bulk Modulus (GPa) = 55.98722 65.30659 60.64691
# Shear Modulus (GPa) = 23.29482 27.80781 25.55131
#
# Velocity S-wave (km/s) = 3.15592 3.44810 3.30524
# Velocity P-wave (km/s) = 6.10062 6.61626 6.36366
#
# Compressibility (1/GPa) = 0.01786122
#
# Stress axis : x y z
#
# Youngs Moduli (GPa) = 98.32346 51.21785 40.03717
#
# Poissons Ratio (x) = 0.20212 0.20277
# Poissons Ratio (y) = 0.38802 0.37612
# Poissons Ratio (z) = 0.49796 0.48116
#
# Static dielectric constant tensor:
#      x y z
#    x 1.868500 0.000000 0.009830 
#    y 0.000000 1.974190 0.000000 
#    z 0.009830 0.000000 1.961210 
# 
# From -- ./inp_files/291056.got.cif
#   From: 2010.05.17/outbox.cif.g08.bks.cpg/sg15_146_cif.got.tgz:291056.got - 2010.06.03 18:47:42.
