data_PCOD9292130
_publ_section_title
;
Structure prediction by ZEFSAII (Michael W. Deem and Ramdas Pophale) SiO2 
 PCOD9292130
Probable space group: C 2/C
;
_chemical_formula_sum "Si O2"
_cell_formula_units_Z 60
_cell_length_a 21.130457
_cell_length_b 25.687632
_cell_length_c 15.310515
_cell_angle_alpha 90.000000
_cell_angle_beta 159.934315
_cell_angle_gamma 90.000000
_cell_volume 2851.280437
_symmetry_space_group_name_H-M "C 2/C"
_symmetry_group_IT_number 15
_symmetry_cell_setting 'monoclinic'
loop_
_space_group_symop_operation_xyz
x,y,z
-x,y,1/2-z
-x,-y,-z
x,-y,1/2+z
1/2+x,1/2+y,z
1/2-x,1/2+y,1/2-z
1/2-x,1/2-y,-z
1/2+x,1/2-y,1/2+z
loop_
_atom_site_type_symbol
_atom_site_label
_atom_site_fract_x
_atom_site_fract_y
_atom_site_fract_z
Si Si1 0.682151 0.594028 0.929274
Si Si2 0.078863 0.786146 0.759597
Si Si3 0.674323 0.397278 0.215312
Si Si4 0.767305 0.277368 0.301802
Si Si5 0.811959 0.707895 0.152619
Si Si6 0.115105 0.902515 0.804736
Si Si7 0.490088 0.026820 0.081388
Si Si8 0.000000 0.453739 0.250000
O O1 0.500000 0.592857 0.750000
O O2 0.647539 0.588174 0.781439
O O3 0.772864 0.650654 0.066097
O O4 0.812986 0.548176 0.132239
O O5 0.143828 0.842162 0.812310
O O6 0.000000 0.800506 0.750000
O O7 0.902798 0.762995 0.481258
O O8 0.250000 0.750000 0.000000
O O9 0.699764 0.334149 0.248813
O O10 0.859058 0.422977 0.416419
O O11 0.519784 0.419210 0.949009
O O12 0.796413 0.228818 0.404139
O O13 0.975093 0.287788 0.540900
O O14 0.750000 0.750000 0.000000
O O15 0.000000 0.909249 0.750000
O O16 0.321026 0.925899 0.062803
O O17 0.422317 0.987937 0.069179
O O18 0.500000 0.000000 0.000000
#
# Coordination Sequence:
#
# PCOD9292130 Si02
#       8
#     8   8   8   8   8   8   8   4
#     4  12  26  45  69 108 148 189 240 305 367 448
#     4  10  22  43  66  98 139 188 236 294 360 432
#     4  11  23  48  73  98 146 189 232 304 369 428
#     4  11  23  40  68 100 139 190 230 286 359 437
#     4  12  23  39  66 104 147 182 233 283 358 446
#     4  10  25  47  72 107 144 185 248 309 366 437
#     4  12  27  48  74 103 138 191 248 299 372 435
#     4  12  26  48  76 104 138 188 240 310 372 426
#
# _framework density 21.043178000000001
#
# number of rings (size 3 to 8) (size 9 to 14) (size 15 to 20)
#    0.000    0.800    4.000    2.800    2.800    2.133 
#    2.400    0.000    0.000    0.000    0.000    0.000 
#    0.000    0.000    0.000    0.000    0.000    0.000 
#
# Total GULP energy -167136.343360 kJ/mol
# GULP energy per Si atom -5571.211445 kJ/mol
# Density = 2.099528 g / cm^3
# Si number density = 21.043178 Si / 1000 Ang^3
#
#
#
# Elastic Constant Matrix: (Units=GPa)
#
#
# Indices 1 2 3 4 5 6 
#
# 1 112.6268 26.0200 39.7623 0.0000 -15.1048 0.0000
# 2 26.0200 48.2390 19.4956 0.0000 -2.0036 0.0000
# 3 39.7623 19.4956 126.2567 -0.0001 3.5881 0.0000
# 4 0.0000 0.0000 -0.0001 22.9019 -0.0001 2.3208
# 5 -15.1048 -2.0036 3.5881 -0.0001 41.8692 0.0000
# 6 0.0000 0.0000 0.0000 2.3208 0.0000 27.2799
#
#
#
# Elastic Compliance Matrix: (Units=1/GPa)
#
#
# Indices 1 2 3 4 5 6 
#
# 1 0.011644 -0.004879 -0.003034 0.000000 0.004227 0.000000
# 2 -0.004879 0.024231 -0.002193 0.000000 -0.000413 0.000000
# 3 -0.003034 -0.002193 0.009271 0.000000 -0.001994 0.000000
# 4 0.000000 0.000000 0.000000 0.044044 0.000000 -0.003747
# 5 0.004227 -0.000413 -0.001994 0.000000 0.025560 0.000000
# 6 0.000000 0.000000 0.000000 -0.003747 0.000000 0.036976
#
#
# Mechanical properties :
#
#
# Convention : Reuss Voigt Hill
#
# Bulk Modulus (GPa) = 40.10591 50.85312 45.47951
# Shear Modulus (GPa) = 27.73921 31.86652 29.80286
#
# Velocity S-wave (km/s) = 3.63465 3.89567 3.76742
# Velocity P-wave (km/s) = 6.05925 6.66735 6.37056
#
# Compressibility (1/GPa) = 0.02493398
#
# Stress axis : x y z
#
# Youngs Moduli (GPa) = 85.88032 41.26919 107.86138
#
# Poissons Ratio (x) = 0.20136 0.32723
# Poissons Ratio (y) = 0.41902 0.23657
# Poissons Ratio (z) = 0.26055 0.09051
#
# Static dielectric constant tensor:
#      x y z
#    x 1.795700 0.000000 -0.005150 
#    y 0.000000 1.501430 0.000000 
#    z -0.005150 0.000000 1.870750 
# 
# From -- ./inp_files/169952.got.cif
#   From: 2010.05.17/outbox.cif.g08.bks.cpg/sg15_85_cif.got.tgz:169952.got - 2010.06.03 18:47:42.
