data_PCOD9292367
_publ_section_title
;
Structure prediction by ZEFSAII (Michael W. Deem and Ramdas Pophale) SiO2 
 PCOD9292367
Probable space group: C 2/C
;
_chemical_formula_sum "Si O2"
_cell_formula_units_Z 48
_cell_length_a 30.210762
_cell_length_b 9.106921
_cell_length_c 9.849008
_cell_angle_alpha 90.000000
_cell_angle_beta 134.842518
_cell_angle_gamma 90.000000
_cell_volume 1921.326439
_symmetry_space_group_name_H-M "C 2/C"
_symmetry_group_IT_number 15
_symmetry_cell_setting 'monoclinic'
loop_
_space_group_symop_operation_xyz
x,y,z
-x,y,1/2-z
-x,-y,-z
x,-y,1/2+z
1/2+x,1/2+y,z
1/2-x,1/2+y,1/2-z
1/2-x,1/2-y,-z
1/2+x,1/2-y,1/2+z
loop_
_atom_site_type_symbol
_atom_site_label
_atom_site_fract_x
_atom_site_fract_y
_atom_site_fract_z
Si Si1 0.546830 0.356385 0.525658
Si Si2 0.381947 0.071733 0.849854
Si Si3 0.048472 0.405823 0.737775
Si Si4 0.245122 0.963628 0.570383
Si Si5 0.302565 0.325726 0.301183
Si Si6 0.936798 0.875874 0.639639
O O1 0.602632 0.238567 0.652550
O O2 0.705208 0.578798 0.852582
O O3 0.552648 0.428226 0.684672
O O4 0.561614 0.478129 0.447006
O O5 0.312805 0.019506 0.668499
O O6 0.430591 0.981949 0.857237
O O7 0.514683 0.251424 0.129571
O O8 0.109004 0.420102 0.966495
O O9 0.000000 0.461673 0.750000
O O10 0.215077 0.080570 0.605807
O O11 0.240637 0.684991 0.314575
O O12 0.375280 0.285661 0.474764
O O13 0.000000 0.786509 0.750000
#
# Coordination Sequence:
#
# PCOD9292367 Si02
#       6
#     8   8   8   8   8   8
#     4  11  26  45  72 109 155 204 252 313 383 467
#     4  11  24  45  78 110 148 198 263 320 383 452
#     4  10  22  43  70 111 150 195 251 315 372 454
#     4  11  27  51  80 113 152 205 256 331 375 468
#     4  11  28  51  78 114 151 203 264 317 389 460
#     4  12  27  47  73 109 156 202 248 317 388 457
#
# _framework density 24.982741999999998
#
# number of rings (size 3 to 8) (size 9 to 14) (size 15 to 20)
#    0.000    1.000    0.000    6.000    9.333    1.333 
#    6.000    0.000    0.000    0.000    0.000    0.000 
#    0.000    0.000    0.000    0.000    0.000    0.000 
#
# Total GULP energy -134132.800259 kJ/mol
# GULP energy per Si atom -5588.866677 kJ/mol
# Density = 2.492588 g / cm^3
# Si number density = 24.982742 Si / 1000 Ang^3
#
#
#
# Elastic Constant Matrix: (Units=GPa)
#
#
# Indices 1 2 3 4 5 6 
#
# 1 101.2574 34.2643 40.4158 0.0000 -23.2934 0.0000
# 2 34.2643 94.8263 0.6581 0.0000 -13.1692 0.0000
# 3 40.4158 0.6581 131.5190 0.0000 -11.6319 0.0000
# 4 0.0000 0.0000 0.0000 29.1436 0.0000 -5.2903
# 5 -23.2934 -13.1692 -11.6319 0.0000 50.8688 0.0000
# 6 0.0000 0.0000 0.0000 -5.2903 0.0000 18.0840
#
#
#
# Elastic Compliance Matrix: (Units=1/GPa)
#
#
# Indices 1 2 3 4 5 6 
#
# 1 0.013906 -0.004394 -0.003867 0.000000 0.004346 0.000000
# 2 -0.004394 0.012333 0.001422 0.000000 0.001506 0.000000
# 3 -0.003867 0.001422 0.008839 0.000000 0.000619 0.000000
# 4 0.000000 0.000000 0.000000 0.036237 0.000000 0.010601
# 5 0.004346 0.001506 0.000619 0.000000 0.022180 0.000000
# 6 0.000000 0.000000 0.000000 0.010601 0.000000 0.058399
#
#
# Mechanical properties :
#
#
# Convention : Reuss Voigt Hill
#
# Bulk Modulus (GPa) = 46.73103 53.14212 49.93658
# Shear Modulus (GPa) = 28.95095 36.43691 32.69393
#
# Velocity S-wave (km/s) = 3.40786 3.82315 3.62147
# Velocity P-wave (km/s) = 5.85070 6.38799 6.12524
#
# Compressibility (1/GPa) = 0.02139906
#
# Stress axis : x y z
#
# Youngs Moduli (GPa) = 71.91130 81.08531 113.13012
#
# Poissons Ratio (x) = 0.35632 0.43747
# Poissons Ratio (y) = 0.31601 -0.16085
# Poissons Ratio (z) = 0.27808 -0.11529
#
# Static dielectric constant tensor:
#      x y z
#    x 2.039210 0.000000 0.030340 
#    y 0.000000 1.984100 0.000000 
#    z 0.030340 0.000000 2.090750 
# 
# From -- ./inp_files/122501.got.cif
#   From: 2010.05.17/outbox.cif.g08.bks.cpg/sg15_62_cif.got.tgz:122501.got - 2010.06.03 18:47:42.
