data_PCOD9292120
_publ_section_title
;
Structure prediction by ZEFSAII (Michael W. Deem and Ramdas Pophale) SiO2 
 PCOD9292120
Probable space group: C 2/C
;
_chemical_formula_sum "Si O2"
_cell_formula_units_Z 44
_cell_length_a 24.581757
_cell_length_b 14.675686
_cell_length_c 17.982092
_cell_angle_alpha 90.000000
_cell_angle_beta 161.021499
_cell_angle_gamma 90.000000
_cell_volume 2109.696136
_symmetry_space_group_name_H-M "C 2/C"
_symmetry_group_IT_number 15
_symmetry_cell_setting 'monoclinic'
loop_
_space_group_symop_operation_xyz
x,y,z
-x,y,1/2-z
-x,-y,-z
x,-y,1/2+z
1/2+x,1/2+y,z
1/2-x,1/2+y,1/2-z
1/2-x,1/2-y,-z
1/2+x,1/2-y,1/2+z
loop_
_atom_site_type_symbol
_atom_site_label
_atom_site_fract_x
_atom_site_fract_y
_atom_site_fract_z
Si Si1 0.810141 0.231470 0.996348
Si Si2 0.640933 0.047368 0.785500
Si Si3 0.717455 0.051065 0.243600
Si Si4 0.000000 0.535591 0.250000
Si Si5 0.075230 0.795501 0.562188
Si Si6 0.281824 0.135049 0.846249
O O1 0.000000 0.258076 0.250000
O O2 0.750000 0.250000 0.000000
O O3 0.777674 0.123887 0.945876
O O4 0.704641 0.283383 0.797831
O O5 0.462022 0.081856 0.522040
O O6 0.691064 0.963003 0.797367
O O7 0.605815 0.021779 0.825617
O O8 0.859937 0.120274 0.403471
O O9 0.750529 0.952840 0.247925
O O10 0.125183 0.596161 0.461098
O O11 0.099513 0.705153 0.544301
O O12 0.890909 0.815179 0.355253
#
# Coordination Sequence:
#
# PCOD9292120 Si02
#       6
#     8   8   8   4   8   8
#     4  12  26  40  66 104 139 173 227 284 345 409
#     4  10  22  43  66  97 137 174 223 287 340 399
#     4  10  22  43  71  95 133 183 228 273 347 409
#     4  10  26  44  68 100 138 178 232 284 338 392
#     4  12  25  45  71  97 139 184 225 282 344 406
#     4  11  25  45  70  99 136 180 232 277 338 411
#
# _framework density 20.856083999999999
#
# number of rings (size 3 to 8) (size 9 to 14) (size 15 to 20)
#    0.000    1.091    1.818    3.818   11.455    2.182 
#    0.000    0.000    0.000    0.000    0.000    0.000 
#    0.000    0.000    0.000    0.000    0.000    0.000 
#
# Total GULP energy -122972.959313 kJ/mol
# GULP energy per Si atom -5589.679969 kJ/mol
# Density = 2.080861 g / cm^3
# Si number density = 20.856084 Si / 1000 Ang^3
#
#
#
# Elastic Constant Matrix: (Units=GPa)
#
#
# Indices 1 2 3 4 5 6 
#
# 1 120.7678 17.1455 18.6029 0.0000 -7.9581 0.0001
# 2 17.1455 79.5391 2.2638 0.0000 -0.8439 0.0002
# 3 18.6029 2.2638 65.1312 -0.0007 9.2745 0.0000
# 4 0.0000 0.0000 -0.0007 10.5267 -0.0003 12.2644
# 5 -7.9581 -0.8439 9.2745 -0.0003 38.6678 0.0000
# 6 0.0001 0.0002 0.0000 12.2644 0.0000 42.5171
#
#
#
# Elastic Compliance Matrix: (Units=1/GPa)
#
#
# Indices 1 2 3 4 5 6 
#
# 1 0.009162 -0.001865 -0.002914 0.000000 0.002544 0.000000
# 2 -0.001865 0.012970 0.000100 0.000000 -0.000125 0.000000
# 3 -0.002914 0.000100 0.016843 0.000001 -0.004637 0.000000
# 4 0.000000 0.000000 0.000001 0.143083 0.000001 -0.041273
# 5 0.002544 -0.000125 -0.004637 0.000001 0.027494 0.000000
# 6 0.000000 0.000000 0.000000 -0.041273 0.000000 0.035426
#
#
# Mechanical properties :
#
#
# Convention : Reuss Voigt Hill
#
# Bulk Modulus (GPa) = 33.76582 37.94027 35.85304
# Shear Modulus (GPa) = 18.92444 33.50405 26.21425
#
# Velocity S-wave (km/s) = 3.01555 4.01239 3.54914
# Velocity P-wave (km/s) = 5.32445 6.30053 5.83294
#
# Compressibility (1/GPa) = 0.02961575
#
# Stress axis : x y z
#
# Youngs Moduli (GPa) = 109.15071 77.09926 59.37237
#
# Poissons Ratio (x) = 0.14379 0.17302
# Poissons Ratio (y) = 0.20356 -0.00591
# Poissons Ratio (z) = 0.31808 -0.00768
#
# Static dielectric constant tensor:
#      x y z
#    x 1.693320 0.000000 0.036140 
#    y 0.000000 1.788040 0.000000 
#    z 0.036140 0.000000 1.683040 
# 
# From -- ./inp_files/46976.got.cif
#   From: 2010.05.17/outbox.cif.g08.bks.cpg/sg15_24_cif.got.tgz:46976.got - 2010.06.03 18:47:42.
