data_PCOD9292315
_publ_section_title
;
Structure prediction by ZEFSAII (Michael W. Deem and Ramdas Pophale) SiO2 
 PCOD9292315
Probable space group: C 2/C
;
_chemical_formula_sum "Si O2"
_cell_formula_units_Z 48
_cell_length_a 17.809219
_cell_length_b 8.153522
_cell_length_c 26.659556
_cell_angle_alpha 90.000000
_cell_angle_beta 30.084769
_cell_angle_gamma 90.000000
_cell_volume 1940.546476
_symmetry_space_group_name_H-M "C 2/C"
_symmetry_group_IT_number 15
_symmetry_cell_setting 'monoclinic'
loop_
_space_group_symop_operation_xyz
x,y,z
-x,y,1/2-z
-x,-y,-z
x,-y,1/2+z
1/2+x,1/2+y,z
1/2-x,1/2+y,1/2-z
1/2-x,1/2-y,-z
1/2+x,1/2-y,1/2+z
loop_
_atom_site_type_symbol
_atom_site_label
_atom_site_fract_x
_atom_site_fract_y
_atom_site_fract_z
Si Si1 0.824320 0.510934 0.665324
Si Si2 0.194946 0.976148 0.005735
Si Si3 0.096673 0.679725 0.550323
Si Si4 0.924564 0.231597 0.675624
Si Si5 0.840548 0.542425 0.315788
Si Si6 0.835054 0.828677 0.826960
O O1 0.905956 0.352469 0.640051
O O2 0.678986 0.576439 0.778036
O O3 0.753646 0.463011 0.653332
O O4 0.952071 0.644480 0.600738
O O5 0.092150 0.138214 0.074863
O O6 0.351926 0.036832 0.940535
O O7 0.093917 0.830181 0.086735
O O8 0.223225 0.940605 0.930052
O O9 0.236867 0.694423 0.432652
O O10 0.845975 0.326593 0.767765
O O11 0.838168 0.351395 0.299016
O O12 0.000000 0.562287 0.250000
O O13 0.000000 0.876106 0.750000
#
# Coordination Sequence:
#
# PCOD9292315 Si02
#       6
#     8   8   8   8   8   8
#     4  12  25  41  64  98 136 178 227 281 334 399
#     4  10  23  45  72  99 137 183 224 274 338 405
#     4  10  22  43  70 101 135 177 226 277 337 403
#     4  12  26  43  67  98 138 180 223 279 338 400
#     4  10  23  43  68  98 132 176 227 277 334 402
#     4  10  22  43  69  96 132 177 224 277 342 408
#
# _framework density 24.735299000000001
#
# number of rings (size 3 to 8) (size 9 to 14) (size 15 to 20)
#    0.000    1.333    0.000    4.500    0.000   12.667 
#    0.000    4.167    0.000    0.000    0.000    0.000 
#    0.000    0.000    0.000    0.000    0.000    0.000 
#
# Total GULP energy -134075.361688 kJ/mol
# GULP energy per Si atom -5586.473404 kJ/mol
# Density = 2.467900 g / cm^3
# Si number density = 24.735299 Si / 1000 Ang^3
#
#
#
# Elastic Constant Matrix: (Units=GPa)
#
#
# Indices 1 2 3 4 5 6 
#
# 1 111.2742 42.7178 35.9129 0.0000 -24.5803 0.0000
# 2 42.7178 78.8576 24.6031 0.0001 -6.1384 0.0000
# 3 35.9129 24.6031 94.1234 -0.0009 -24.4984 0.0001
# 4 0.0000 0.0001 -0.0009 45.1396 0.0000 0.1163
# 5 -24.5803 -6.1384 -24.4984 0.0000 38.3758 0.0001
# 6 0.0000 0.0000 0.0001 0.1163 0.0001 26.7100
#
#
#
# Elastic Compliance Matrix: (Units=1/GPa)
#
#
# Indices 1 2 3 4 5 6 
#
# 1 0.013357 -0.006171 -0.001815 0.000000 0.006410 0.000000
# 2 -0.006171 0.016658 -0.002800 0.000000 -0.003075 0.000000
# 3 -0.001815 -0.002800 0.013947 0.000000 0.007293 0.000000
# 4 0.000000 0.000000 0.000000 0.022154 0.000000 -0.000096
# 5 0.006410 -0.003075 0.007293 0.000000 0.034327 0.000000
# 6 0.000000 0.000000 0.000000 -0.000096 0.000000 0.037440
#
#
# Mechanical properties :
#
#
# Convention : Reuss Voigt Hill
#
# Bulk Modulus (GPa) = 44.66229 54.52476 49.59352
# Shear Modulus (GPa) = 29.95462 34.11318 32.03390
#
# Velocity S-wave (km/s) = 3.48373 3.71769 3.60261
# Velocity P-wave (km/s) = 5.85467 6.36549 6.11541
#
# Compressibility (1/GPa) = 0.02239026
#
# Stress axis : x y z
#
# Youngs Moduli (GPa) = 74.86461 60.03115 71.69906
#
# Poissons Ratio (x) = 0.37042 0.13015
# Poissons Ratio (y) = 0.46195 0.20078
# Poissons Ratio (z) = 0.13590 0.16811
#
# Static dielectric constant tensor:
#      x y z
#    x 1.957960 0.000000 0.037270 
#    y 0.000000 2.101320 0.000000 
#    z 0.037270 0.000000 1.951960 
# 
# From -- ./inp_files/315635.got.cif
#   From: 2010.05.17/outbox.cif.g08.bks.cpg/sg15_158_cif.got.tgz:315635.got - 2010.06.03 18:47:42.
