data_PCOD9292460
_publ_section_title
;
Structure prediction by ZEFSAII (Michael W. Deem and Ramdas Pophale) SiO2 
 PCOD9292460
Probable space group: C 2/C
;
_chemical_formula_sum "Si O2"
_cell_formula_units_Z 40
_cell_length_a 5.486444
_cell_length_b 25.310221
_cell_length_c 12.109402
_cell_angle_alpha 90.000000
_cell_angle_beta 96.498587
_cell_angle_gamma 90.000000
_cell_volume 1670.744677
_symmetry_space_group_name_H-M "C 2/C"
_symmetry_group_IT_number 15
_symmetry_cell_setting 'monoclinic'
loop_
_space_group_symop_operation_xyz
x,y,z
-x,y,1/2-z
-x,-y,-z
x,-y,1/2+z
1/2+x,1/2+y,z
1/2-x,1/2+y,1/2-z
1/2-x,1/2-y,-z
1/2+x,1/2-y,1/2+z
loop_
_atom_site_type_symbol
_atom_site_label
_atom_site_fract_x
_atom_site_fract_y
_atom_site_fract_z
Si Si1 0.819080 0.616054 0.135546
Si Si2 0.771838 0.109705 0.819503
Si Si3 0.584516 0.179499 0.984357
Si Si4 0.981514 0.775613 0.870334
Si Si5 0.136568 0.500951 0.382868
O O1 0.654087 0.668237 0.136339
O O2 0.718488 0.556760 0.117997
O O3 0.000000 0.616591 0.250000
O O4 0.964676 0.628296 0.030854
O O5 0.500000 0.112364 0.750000
O O6 0.771666 0.158519 0.902870
O O7 0.785755 0.053281 0.882102
O O8 0.000000 0.113088 0.750000
O O9 0.398827 0.223443 0.931229
O O10 0.742621 0.209669 0.082417
O O11 0.000000 0.754721 0.750000
O O12 0.000000 0.500840 0.250000
O O13 0.000000 0.500000 0.500000
#
# Coordination Sequence:
#
# PCOD9292460 Si02
#       5
#     8   8   8   8   8
#     4  11  22  43  71 101 144 185 244 303 372 440
#     4  11  26  49  73 110 147 195 249 304 368 447
#     4  11  24  44  68  96 143 191 237 301 368 443
#     4  11  24  42  63 103 137 187 242 300 368 442
#     4  10  22  43  72 107 151 191 247 307 374 443
#
# _framework density 23.941420999999998
#
# number of rings (size 3 to 8) (size 9 to 14) (size 15 to 20)
#    0.000    1.200    4.000    1.200    2.800    0.800 
#   10.800    5.000    0.000    0.000    0.000    0.000 
#    0.000    0.000    0.000    0.000    0.000    0.000 
#
# Total GULP energy -111405.066673 kJ/mol
# GULP energy per Si atom -5570.253334 kJ/mol
# Density = 2.388693 g / cm^3
# Si number density = 23.941421 Si / 1000 Ang^3
#
#
#
# Elastic Constant Matrix: (Units=GPa)
#
#
# Indices 1 2 3 4 5 6 
#
# 1 56.6916 15.9640 41.0577 0.0000 -16.9501 0.0000
# 2 15.9640 164.2806 45.9564 0.0000 -1.6355 0.0000
# 3 41.0577 45.9564 131.0172 0.0000 -16.4033 0.0000
# 4 0.0000 0.0000 0.0000 27.9252 0.0000 -14.2096
# 5 -16.9501 -1.6355 -16.4033 0.0000 42.9886 0.0000
# 6 0.0000 0.0000 0.0000 -14.2096 0.0000 13.8683
#
#
#
# Elastic Compliance Matrix: (Units=1/GPa)
#
#
# Indices 1 2 3 4 5 6 
#
# 1 0.024773 -0.000461 -0.006701 0.000000 0.007193 0.000000
# 2 -0.000461 0.006777 -0.002335 0.000000 -0.000815 0.000000
# 3 -0.006701 -0.002335 0.010722 0.000000 0.001360 0.000000
# 4 0.000000 0.000000 0.000000 0.074817 0.000000 0.076658
# 5 0.007193 -0.000815 0.001360 0.000000 0.026586 0.000000
# 6 0.000000 0.000000 0.000000 0.076658 0.000000 0.150651
#
#
# Mechanical properties :
#
#
# Convention : Reuss Voigt Hill
#
# Bulk Modulus (GPa) = 42.95872 61.99396 52.47634
# Shear Modulus (GPa) = 15.57249 33.55718 24.56484
#
# Velocity S-wave (km/s) = 2.55314 3.74791 3.20666
# Velocity P-wave (km/s) = 5.16465 6.68426 5.97298
#
# Compressibility (1/GPa) = 0.02327816
#
# Stress axis : x y z
#
# Youngs Moduli (GPa) = 40.36675 147.55921 93.26898
#
# Poissons Ratio (x) = 0.06805 0.62498
# Poissons Ratio (y) = 0.01862 0.21775
# Poissons Ratio (z) = 0.27049 0.34449
#
# Static dielectric constant tensor:
#      x y z
#    x 2.021900 0.000000 -0.025310 
#    y 0.000000 1.879100 0.000000 
#    z -0.025310 0.000000 1.997690 
# 
# From -- ./inp_files/73222.got.cif
#   From: 2010.05.17/outbox.cif.g08.bks.cpg/sg15_37_cif.got.tgz:73222.got - 2010.06.03 18:47:42.
