data_PCOD9292988
_publ_section_title
;
Structure prediction by ZEFSAII (Michael W. Deem and Ramdas Pophale) SiO2 
 PCOD9292988
Probable space group: C 2/C
;
_chemical_formula_sum "Si O2"
_cell_formula_units_Z 52
_cell_length_a 16.743060
_cell_length_b 9.306123
_cell_length_c 20.203107
_cell_angle_alpha 90.000000
_cell_angle_beta 57.314348
_cell_angle_gamma 90.000000
_cell_volume 2649.422813
_symmetry_space_group_name_H-M "C 2/C"
_symmetry_group_IT_number 15
_symmetry_cell_setting 'monoclinic'
loop_
_space_group_symop_operation_xyz
x,y,z
-x,y,1/2-z
-x,-y,-z
x,-y,1/2+z
1/2+x,1/2+y,z
1/2-x,1/2+y,1/2-z
1/2-x,1/2-y,-z
1/2+x,1/2-y,1/2+z
loop_
_atom_site_type_symbol
_atom_site_label
_atom_site_fract_x
_atom_site_fract_y
_atom_site_fract_z
Si Si1 0.746480 0.414841 0.068121
Si Si2 0.501704 0.671449 0.006716
Si Si3 0.805800 0.771882 0.664562
Si Si4 0.500000 0.074360 0.250000
Si Si5 0.212268 0.737095 0.442794
Si Si6 0.806424 0.433376 0.290546
Si Si7 0.089618 0.266114 0.585305
O O1 0.755038 0.304641 0.125050
O O2 0.762521 0.573843 0.087740
O O3 0.647004 0.379888 0.077202
O O4 0.829493 0.374718 0.978685
O O5 0.414474 0.711086 0.093196
O O6 0.500000 0.500000 0.000000
O O7 0.600675 0.731265 0.988726
O O8 0.481032 0.737883 0.943560
O O9 0.801022 0.673148 0.730949
O O10 0.755393 0.924681 0.696624
O O11 0.413101 0.981046 0.260482
O O12 0.460324 0.170604 0.327987
O O13 0.250000 0.750000 0.500000
O O14 0.262394 0.851332 0.372929
#
# Coordination Sequence:
#
# PCOD9292988 Si02
#       7
#     8   8   8   4   8   8   8
#     4  10  22  44  70  98 131 184 229 285 342 415
#     4  11  24  44  71 101 135 187 236 289 343 419
#     4  11  25  45  72  98 140 179 234 287 350 415
#     4  12  26  44  70 102 142 184 230 288 352 420
#     4  12  26  43  70 100 142 182 234 291 349 411
#     4  12  27  46  69 104 142 185 227 297 351 416
#     4  10  23  42  71  96 136 181 235 278 347 416
#
# _framework density 19.626916000000001
#
# number of rings (size 3 to 8) (size 9 to 14) (size 15 to 20)
#    0.000    0.923    3.077    2.769   10.769    1.231 
#    2.769    0.000    0.000    0.000    0.000    0.000 
#    0.000    0.000    0.000    0.000    0.000    0.000 
#
# Total GULP energy -145457.791606 kJ/mol
# GULP energy per Si atom -5594.530446 kJ/mol
# Density = 1.958224 g / cm^3
# Si number density = 19.626916 Si / 1000 Ang^3
#
#
#
# Elastic Constant Matrix: (Units=GPa)
#
#
# Indices 1 2 3 4 5 6 
#
# 1 166.8304 57.6135 74.5547 0.0000 -5.7595 0.0000
# 2 57.6135 140.9554 62.1519 0.0000 2.2160 0.0001
# 3 74.5547 62.1519 136.7936 0.0000 22.3129 0.0000
# 4 0.0000 0.0000 0.0000 35.3501 0.0000 9.4067
# 5 -5.7595 2.2160 22.3129 0.0000 28.6534 0.0000
# 6 0.0000 0.0001 0.0000 9.4067 0.0000 34.8794
#
#
#
# Elastic Compliance Matrix: (Units=1/GPa)
#
#
# Indices 1 2 3 4 5 6 
#
# 1 0.009058 -0.001485 -0.005244 0.000000 0.006019 0.000000
# 2 -0.001485 0.009317 -0.003732 0.000000 0.001887 0.000000
# 3 -0.005244 -0.003732 0.013733 0.000000 -0.011460 0.000000
# 4 0.000000 0.000000 0.000000 0.030476 0.000000 -0.008219
# 5 0.006019 0.001887 -0.011460 0.000000 0.044888 0.000000
# 6 0.000000 0.000000 0.000000 -0.008219 0.000000 0.030887
#
#
# Mechanical properties :
#
#
# Convention : Reuss Voigt Hill
#
# Bulk Modulus (GPa) = 89.38778 92.57997 90.98388
# Shear Modulus (GPa) = 30.67316 36.46052 33.56684
#
# Velocity S-wave (km/s) = 3.95753 4.31476 4.14000
# Velocity P-wave (km/s) = 8.15629 8.49089 8.32527
#
# Compressibility (1/GPa) = 0.01118721
#
# Stress axis : x y z
#
# Youngs Moduli (GPa) = 110.39744 107.32931 72.81641
#
# Poissons Ratio (x) = 0.15936 0.38186
# Poissons Ratio (y) = 0.16391 0.27174
# Poissons Ratio (z) = 0.57893 0.40053
#
# Static dielectric constant tensor:
#      x y z
#    x 1.677130 0.000000 -0.004410 
#    y 0.000000 1.705950 0.000000 
#    z -0.004410 0.000000 1.674960 
# 
# From -- ./inp_files/247779.got.cif
#   From: 2010.05.17/outbox.cif.g08.bks.cpg/sg15_124_cif.got.tgz:247779.got - 2010.06.03 18:47:42.
