data_PCOD9292368
_publ_section_title
;
Structure prediction by ZEFSAII (Michael W. Deem and Ramdas Pophale) SiO2 
 PCOD9292368
Probable space group: C 2/C
;
_chemical_formula_sum "Si O2"
_cell_formula_units_Z 48
_cell_length_a 11.482505
_cell_length_b 18.263438
_cell_length_c 13.555071
_cell_angle_alpha 90.000000
_cell_angle_beta 40.134504
_cell_angle_gamma 90.000000
_cell_volume 1832.316955
_symmetry_space_group_name_H-M "C 2/C"
_symmetry_group_IT_number 15
_symmetry_cell_setting 'monoclinic'
loop_
_space_group_symop_operation_xyz
x,y,z
-x,y,1/2-z
-x,-y,-z
x,-y,1/2+z
1/2+x,1/2+y,z
1/2-x,1/2+y,1/2-z
1/2-x,1/2-y,-z
1/2+x,1/2-y,1/2+z
loop_
_atom_site_type_symbol
_atom_site_label
_atom_site_fract_x
_atom_site_fract_y
_atom_site_fract_z
Si Si1 0.820307 0.279845 0.786513
Si Si2 0.221647 0.343679 0.489602
Si Si3 0.310189 0.121936 0.859812
Si Si4 0.558723 0.345819 0.821076
Si Si5 0.305459 0.491801 0.677889
Si Si6 0.572413 0.007397 0.066554
O O1 0.715686 0.328103 0.939027
O O2 0.702824 0.288261 0.766125
O O3 0.018335 0.309794 0.631966
O O4 0.814710 0.200964 0.841778
O O5 0.219302 0.428819 0.469732
O O6 0.500000 0.162976 0.750000
O O7 0.272000 0.076060 0.783159
O O8 0.343997 0.060404 0.926544
O O9 0.125556 0.161876 0.998662
O O10 0.500000 0.335249 0.750000
O O11 0.642238 0.428540 0.777714
O O12 0.500000 0.500000 0.500000
O O13 0.112202 0.460781 0.763258
O O14 0.500000 0.000000 0.000000
#
# Coordination Sequence:
#
# PCOD9292368 Si02
#       6
#     8   8   8   8   8   8
#     4  10  22  43  70  89 118 170 215 265 311 368
#     4  10  22  43  70  90 122 164 221 264 311 366
#     4   9  20  34  56  91 128 168 201 249 314 379
#     4  11  20  36  62  91 129 166 206 255 320 380
#     4   9  18  34  55  81 119 167 203 238 299 367
#     4  11  20  35  61  93 126 160 200 255 315 370
#
# _framework density 26.196342000000001
#
# number of rings (size 3 to 8) (size 9 to 14) (size 15 to 20)
#    0.000    2.000    1.667    2.000    4.667    0.000 
#    9.000    0.833   18.333    0.000    0.000    0.000 
#    0.000    0.000    0.000    0.000    0.000    0.000 
#
# Total GULP energy -133688.159779 kJ/mol
# GULP energy per Si atom -5570.339991 kJ/mol
# Density = 2.613672 g / cm^3
# Si number density = 26.196342 Si / 1000 Ang^3
#
#
#
# Elastic Constant Matrix: (Units=GPa)
#
#
# Indices 1 2 3 4 5 6 
#
# 1 148.2134 10.7373 29.4138 0.0006 -1.1242 -0.0004
# 2 10.7373 56.0739 3.9028 0.0009 7.9966 -0.0006
# 3 29.4138 3.9028 72.3655 0.0026 -19.1306 -0.0023
# 4 0.0006 0.0009 0.0026 19.2920 -0.0012 -2.1161
# 5 -1.1242 7.9966 -19.1306 -0.0012 48.3643 0.0009
# 6 -0.0004 -0.0006 -0.0023 -2.1161 0.0009 24.8944
#
#
#
# Elastic Compliance Matrix: (Units=1/GPa)
#
#
# Indices 1 2 3 4 5 6 
#
# 1 0.007456 -0.001072 -0.003216 0.000000 -0.000922 0.000000
# 2 -0.001072 0.018679 -0.001557 -0.000001 -0.003729 0.000000
# 3 -0.003216 -0.001557 0.017040 -0.000002 0.006923 0.000001
# 4 0.000000 -0.000001 -0.000002 0.052323 0.000001 0.004448
# 5 -0.000922 -0.003729 0.006923 0.000001 0.024010 0.000000
# 6 0.000000 0.000000 0.000001 0.004448 0.000000 0.040548
#
#
# Mechanical properties :
#
#
# Convention : Reuss Voigt Hill
#
# Bulk Modulus (GPa) = 31.76314 40.52896 36.14605
# Shear Modulus (GPa) = 27.43589 34.01672 30.72630
#
# Velocity S-wave (km/s) = 3.23974 3.60742 3.42851
# Velocity P-wave (km/s) = 5.11331 5.73203 5.43148
#
# Compressibility (1/GPa) = 0.03148303
#
# Stress axis : x y z
#
# Youngs Moduli (GPa) = 134.11939 53.53543 58.68455
#
# Poissons Ratio (x) = 0.05741 0.18875
# Poissons Ratio (y) = 0.14383 0.09140
# Poissons Ratio (z) = 0.43138 0.08338
#
# Static dielectric constant tensor:
#      x y z
#    x 2.177450 0.000000 0.096370 
#    y 0.000000 2.196030 0.000010 
#    z 0.096370 0.000010 2.461670 
# 
# From -- ./inp_files/147370.got.cif
#   From: 2010.05.17/outbox.cif.g08.bks.cpg/sg15_74_cif.got.tgz:147370.got - 2010.06.03 18:47:42.
