data_PCOD9292241
_publ_section_title
;
Structure prediction by ZEFSAII (Michael W. Deem and Ramdas Pophale) SiO2 
 PCOD9292241
Probable space group: C 2/C
;
_chemical_formula_sum "Si O2"
_cell_formula_units_Z 40
_cell_length_a 10.382834
_cell_length_b 24.396607
_cell_length_c 12.761079
_cell_angle_alpha 90.000000
_cell_angle_beta 34.487949
_cell_angle_gamma 90.000000
_cell_volume 1830.323380
_symmetry_space_group_name_H-M "C 2/C"
_symmetry_group_IT_number 15
_symmetry_cell_setting 'monoclinic'
loop_
_space_group_symop_operation_xyz
x,y,z
-x,y,1/2-z
-x,-y,-z
x,-y,1/2+z
1/2+x,1/2+y,z
1/2-x,1/2+y,1/2-z
1/2-x,1/2-y,-z
1/2+x,1/2-y,1/2+z
loop_
_atom_site_type_symbol
_atom_site_label
_atom_site_fract_x
_atom_site_fract_y
_atom_site_fract_z
Si Si1 0.017368 0.103465 0.438563
Si Si2 0.500000 0.341408 0.250000
Si Si3 0.223231 0.188845 0.169379
Si Si4 0.712180 0.813420 0.247190
Si Si5 0.500000 0.526081 0.250000
Si Si6 0.262760 0.935277 0.969173
O O1 0.195809 0.152435 0.292454
O O2 0.078479 0.068146 0.499248
O O3 0.792980 0.138055 0.616629
O O4 0.023604 0.064117 0.335210
O O5 0.390952 0.310769 0.224422
O O6 0.295223 0.380428 0.427676
O O7 0.220108 0.253835 0.189976
O O8 0.000000 0.176097 0.250000
O O9 0.458711 0.175215 0.956103
O O10 0.290445 0.485715 0.418440
O O11 0.500000 0.937610 0.750000
#
# Coordination Sequence:
#
# PCOD9292241 Si02
#       6
#     8   4   8   8   4   8
#     4  11  24  43  64  98 131 171 218 265 327 390
#     4   9  22  44  64 100 134 170 222 261 328 392
#     4  12  24  41  63  96 136 177 219 259 321 390
#     4  11  24  41  66  94 137 178 212 270 315 387
#     4  11  24  42  66  96 126 170 224 267 332 390
#     4  10  22  43  68  94 130 167 216 279 326 386
#
# _framework density 21.854061000000002
#
# number of rings (size 3 to 8) (size 9 to 14) (size 15 to 20)
#    0.000    1.200    3.000    2.400    0.000    3.200 
#    1.800    0.000    0.000    0.000    0.000    0.000 
#    0.000    0.000    0.000    0.000    0.000    0.000 
#
# Total GULP energy -111764.800801 kJ/mol
# GULP energy per Si atom -5588.240040 kJ/mol
# Density = 2.180432 g / cm^3
# Si number density = 21.854061 Si / 1000 Ang^3
#
#
#
# Elastic Constant Matrix: (Units=GPa)
#
#
# Indices 1 2 3 4 5 6 
#
# 1 71.9015 24.2093 3.4206 0.0000 11.8418 0.0000
# 2 24.2093 75.7229 41.3101 0.0000 -2.4389 0.0000
# 3 3.4206 41.3101 198.1271 0.0000 -2.4503 0.0000
# 4 0.0000 0.0000 0.0000 9.6516 0.0000 25.5937
# 5 11.8418 -2.4389 -2.4503 0.0000 29.9434 0.0000
# 6 0.0000 0.0000 0.0000 25.5937 0.0000 3.7155
#
#
#
# Elastic Compliance Matrix: (Units=1/GPa)
#
#
# Indices 1 2 3 4 5 6 
#
# 1 0.017143 -0.006209 0.000909 0.000000 -0.007211 0.000000
# 2 -0.006209 0.017178 -0.003430 0.000000 0.003574 0.000000
# 3 0.000909 -0.003430 0.005745 0.000000 -0.000169 0.000000
# 4 0.000000 0.000000 0.000000 -0.006001 0.000000 0.041335
# 5 -0.007211 0.003574 -0.000169 0.000000 0.036525 0.000000
# 6 0.000000 0.000000 0.000000 0.041335 0.000000 -0.015588
#
#
# Mechanical properties :
#
#
# Convention : Reuss Voigt Hill
#
# Bulk Modulus (GPa) = 44.23715 53.73686 48.98700
# Shear Modulus (GPa) = 62.50260 27.11621 44.80940
#
# Velocity S-wave (km/s) = 5.35370 3.52630 4.53304
# Velocity P-wave (km/s) = 7.64867 6.42044 7.06131
#
# Compressibility (1/GPa) = 0.02260544
#
# Stress axis : x y z
#
# Youngs Moduli (GPa) = 58.33334 58.21539 174.07422
#
# Poissons Ratio (x) = 0.36147 -0.15832
# Poissons Ratio (y) = 0.36220 0.59711
# Poissons Ratio (z) = -0.05305 0.19969
#
# Static dielectric constant tensor:
#      x y z
#    x 1.829630 0.000000 0.018340 
#    y 0.000000 1.786400 0.000000 
#    z 0.018340 0.000000 1.805700 
# 
# From -- ./inp_files/148003.got.cif
#   From: 2010.05.17/outbox.cif.g08.bks.cpg/sg15_75_cif.got.tgz:148003.got - 2010.06.03 18:47:42.
