data_PCOD9292175
_publ_section_title
;
Structure prediction by ZEFSAII (Michael W. Deem and Ramdas Pophale) SiO2 
 PCOD9292175
Probable space group: C 2/C
;
_chemical_formula_sum "Si O2"
_cell_formula_units_Z 56
_cell_length_a 24.643553
_cell_length_b 5.875316
_cell_length_c 19.632209
_cell_angle_alpha 90.000000
_cell_angle_beta 81.473704
_cell_angle_gamma 90.000000
_cell_volume 2811.105491
_symmetry_space_group_name_H-M "C 2/C"
_symmetry_group_IT_number 15
_symmetry_cell_setting 'monoclinic'
loop_
_space_group_symop_operation_xyz
x,y,z
-x,y,1/2-z
-x,-y,-z
x,-y,1/2+z
1/2+x,1/2+y,z
1/2-x,1/2+y,1/2-z
1/2-x,1/2-y,-z
1/2+x,1/2-y,1/2+z
loop_
_atom_site_type_symbol
_atom_site_label
_atom_site_fract_x
_atom_site_fract_y
_atom_site_fract_z
Si Si1 0.305597 0.681449 0.393941
Si Si2 0.805831 0.445792 0.081482
Si Si3 0.176409 0.935712 0.252003
Si Si4 0.993615 0.748626 0.462613
Si Si5 0.373799 0.384510 0.483451
Si Si6 0.392502 0.312230 0.115040
Si Si7 0.230358 0.419806 0.668660
O O1 0.245233 0.602136 0.428382
O O2 0.319142 0.604541 0.313001
O O3 0.349026 0.560142 0.433929
O O4 0.296421 0.948052 0.388622
O O5 0.852484 0.595116 0.110230
O O6 0.774440 0.265339 0.135147
O O7 0.832415 0.312009 0.014304
O O8 0.126647 0.943811 0.313755
O O9 0.179744 0.690441 0.216833
O O10 0.231994 0.938458 0.286866
O O11 0.930922 0.770693 0.449927
O O12 0.000000 0.500000 0.500000
O O13 0.043639 0.747578 0.399853
O O14 0.000000 0.000000 0.500000
O O15 0.382568 0.526611 0.551615
#
# Coordination Sequence:
#
# PCOD9292175 Si02
#       7
#     8   8   8   8   8   8   8
#     4  11  24  36  56  91 130 165 200 265 328 394
#     4  11  20  35  60  88 121 158 205 255 324 388
#     4  11  20  36  56  86 118 168 207 249 311 395
#     4  10  22  43  67  94 122 166 219 274 325 383
#     4  11  23  40  60  91 125 159 211 276 328 379
#     4  11  22  38  65  89 118 165 219 270 315 391
#     4  11  20  35  54  84 129 163 208 247 320 398
#
# _framework density 19.92099
#
# number of rings (size 3 to 8) (size 9 to 14) (size 15 to 20)
#    0.000    1.143    5.714    1.286    0.000    4.571 
#    0.000    0.714    0.000    0.000    0.000    0.000 
#    0.000    0.000    0.000    0.000    0.000    0.000 
#
# Total GULP energy -156015.572098 kJ/mol
# GULP energy per Si atom -5571.984718 kJ/mol
# Density = 1.987565 g / cm^3
# Si number density = 19.920990 Si / 1000 Ang^3
#
#
#
# Elastic Constant Matrix: (Units=GPa)
#
#
# Indices 1 2 3 4 5 6 
#
# 1 92.3669 14.7037 54.3150 0.0000 -25.8944 0.0000
# 2 14.7037 65.5780 22.9169 0.0000 -1.4082 0.0000
# 3 54.3150 22.9169 93.3488 0.0000 -19.3696 0.0000
# 4 0.0000 0.0000 0.0000 28.4301 0.0000 2.1328
# 5 -25.8944 -1.4082 -19.3696 0.0000 25.3167 0.0000
# 6 0.0000 0.0000 0.0000 2.1328 0.0000 32.4045
#
#
#
# Elastic Compliance Matrix: (Units=1/GPa)
#
#
# Indices 1 2 3 4 5 6 
#
# 1 0.019804 -0.001222 -0.008361 0.000000 0.013791 0.000000
# 2 -0.001222 0.016903 -0.004164 0.000000 -0.003496 0.000000
# 3 -0.008361 -0.004164 0.017566 0.000000 0.004656 0.000000
# 4 0.000000 0.000000 0.000000 0.035348 0.000000 -0.002327
# 5 0.013791 -0.003496 0.004656 0.000000 0.056973 0.000000
# 6 0.000000 0.000000 0.000000 -0.002327 0.000000 0.031013
#
#
# Mechanical properties :
#
#
# Convention : Reuss Voigt Hill
#
# Bulk Modulus (GPa) = 37.34420 48.35166 42.84793
# Shear Modulus (GPa) = 23.36149 27.85415 25.60782
#
# Velocity S-wave (km/s) = 3.42820 3.74335 3.58923
# Velocity P-wave (km/s) = 5.87000 6.55805 6.22354
#
# Compressibility (1/GPa) = 0.02677792
#
# Stress axis : x y z
#
# Youngs Moduli (GPa) = 50.49542 59.16074 56.92889
#
# Poissons Ratio (x) = 0.07231 0.47600
# Poissons Ratio (y) = 0.06172 0.23704
# Poissons Ratio (z) = 0.42221 0.24633
#
# Static dielectric constant tensor:
#      x y z
#    x 1.691220 0.000000 0.016250 
#    y 0.000000 1.886360 0.000000 
#    z 0.016250 0.000000 1.748640 
# 
# From -- ./inp_files/256340.got.cif
#   From: 2010.05.17/outbox.cif.g08.bks.cpg/sg15_129_cif.got.tgz:256340.got - 2010.06.03 18:47:42.
