data_PCOD9292306
_publ_section_title
;
Structure prediction by ZEFSAII (Michael W. Deem and Ramdas Pophale) SiO2 
 PCOD9292306
Probable space group: C 2/C
;
_chemical_formula_sum "Si O2"
_cell_formula_units_Z 52
_cell_length_a 8.863886
_cell_length_b 27.491897
_cell_length_c 16.611931
_cell_angle_alpha 90.000000
_cell_angle_beta 38.902389
_cell_angle_gamma 90.000000
_cell_volume 2542.175476
_symmetry_space_group_name_H-M "C 2/C"
_symmetry_group_IT_number 15
_symmetry_cell_setting 'monoclinic'
loop_
_space_group_symop_operation_xyz
x,y,z
-x,y,1/2-z
-x,-y,-z
x,-y,1/2+z
1/2+x,1/2+y,z
1/2-x,1/2+y,1/2-z
1/2-x,1/2-y,-z
1/2+x,1/2-y,1/2+z
loop_
_atom_site_type_symbol
_atom_site_label
_atom_site_fract_x
_atom_site_fract_y
_atom_site_fract_z
Si Si1 0.050829 0.722155 0.965569
Si Si2 0.513701 0.612116 0.006653
Si Si3 0.947049 0.360796 0.907784
Si Si4 0.672399 0.201668 0.612162
Si Si5 0.780044 0.020241 0.648875
Si Si6 0.330329 0.441034 0.744162
Si Si7 0.500000 0.789278 0.750000
O O1 0.287597 0.755356 0.871681
O O2 0.983491 0.714780 0.900387
O O3 0.082296 0.672283 0.000996
O O4 0.818326 0.753146 0.089948
O O5 0.424953 0.584181 0.122995
O O6 0.297970 0.626180 0.036461
O O7 0.636215 0.660761 0.987573
O O8 0.689009 0.577126 0.882374
O O9 0.088116 0.410971 0.863137
O O10 0.080722 0.324929 0.788645
O O11 0.500000 0.180487 0.750000
O O12 0.500000 0.005639 0.750000
O O13 0.817023 0.997347 0.722020
O O14 0.000000 0.000000 0.500000
O O15 0.500000 0.435230 0.750000
#
# Coordination Sequence:
#
# PCOD9292306 Si02
#       7
#     8   8   8   8   8   8   4
#     4  11  25  38  62  97 131 179 224 276 316 403
#     4  11  22  41  63  96 127 175 217 276 339 404
#     4  12  22  40  67  95 132 175 228 267 338 407
#     4  11  23  41  60  89 136 175 220 270 334 385
#     4  10  22  43  69  94 128 168 223 278 344 408
#     4  11  22  41  68  95 126 168 223 280 342 411
#     4  12  22  40  64  92 136 174 224 264 332 382
#
# _framework density 20.454920999999999
#
# number of rings (size 3 to 8) (size 9 to 14) (size 15 to 20)
#    0.000    0.923    3.077    4.615    2.154    3.077 
#    0.000   10.000    0.000    0.000    0.000    0.000 
#    0.000    0.000    0.000    0.000    0.000    0.000 
#
# Total GULP energy -144979.544532 kJ/mol
# GULP energy per Si atom -5576.136328 kJ/mol
# Density = 2.040836 g / cm^3
# Si number density = 20.454921 Si / 1000 Ang^3
#
#
#
# Elastic Constant Matrix: (Units=GPa)
#
#
# Indices 1 2 3 4 5 6 
#
# 1 90.5239 22.2495 17.5286 0.0000 -6.5781 0.0000
# 2 22.2495 62.2577 9.7399 0.0000 4.6812 0.0000
# 3 17.5286 9.7399 62.4631 0.0000 -7.9771 0.0000
# 4 0.0000 0.0000 0.0000 26.0898 0.0000 1.7293
# 5 -6.5781 4.6812 -7.9771 0.0000 14.4422 0.0000
# 6 0.0000 0.0000 0.0000 1.7293 0.0000 25.7885
#
#
#
# Elastic Compliance Matrix: (Units=1/GPa)
#
#
# Indices 1 2 3 4 5 6 
#
# 1 0.013106 -0.004833 -0.002111 0.000000 0.006370 0.000000
# 2 -0.004833 0.018987 -0.002874 0.000000 -0.009943 0.000000
# 3 -0.002111 -0.002874 0.018340 0.000000 0.010100 0.000000
# 4 0.000000 0.000000 0.000000 0.038500 0.000000 -0.002582
# 5 0.006370 -0.009943 0.010100 0.000000 0.080945 0.000000
# 6 0.000000 0.000000 0.000000 -0.002582 0.000000 0.038950
#
#
# Mechanical properties :
#
#
# Convention : Reuss Voigt Hill
#
# Bulk Modulus (GPa) = 32.47038 34.92009 33.69524
# Shear Modulus (GPa) = 20.94428 24.31255 22.62841
#
# Velocity S-wave (km/s) = 3.20335 3.45134 3.32965
# Velocity P-wave (km/s) = 5.43972 5.74379 5.59382
#
# Compressibility (1/GPa) = 0.03079730
#
# Stress axis : x y z
#
# Youngs Moduli (GPa) = 76.29962 52.66867 54.52603
#
# Poissons Ratio (x) = 0.25453 0.11510
# Poissons Ratio (y) = 0.36873 0.15672
# Poissons Ratio (z) = 0.16106 0.15138
#
# Static dielectric constant tensor:
#      x y z
#    x 1.693050 0.000000 -0.007700 
#    y 0.000000 1.763380 0.000000 
#    z -0.007700 0.000000 1.773150 
# 
# From -- ./inp_files/193676.got.cif
#   From: 2010.05.17/outbox.cif.g08.bks.cpg/sg15_97_cif.got.tgz:193676.got - 2010.06.03 18:47:42.
