data_PCOD9292403
_publ_section_title
;
Structure prediction by ZEFSAII (Michael W. Deem and Ramdas Pophale) SiO2 
 PCOD9292403
Probable space group: C 2/C
;
_chemical_formula_sum "Si O2"
_cell_formula_units_Z 44
_cell_length_a 16.813005
_cell_length_b 6.873769
_cell_length_c 17.497794
_cell_angle_alpha 90.000000
_cell_angle_beta 77.403597
_cell_angle_gamma 90.000000
_cell_volume 1973.524151
_symmetry_space_group_name_H-M "C 2/C"
_symmetry_group_IT_number 15
_symmetry_cell_setting 'monoclinic'
loop_
_space_group_symop_operation_xyz
x,y,z
-x,y,1/2-z
-x,-y,-z
x,-y,1/2+z
1/2+x,1/2+y,z
1/2-x,1/2+y,1/2-z
1/2-x,1/2-y,-z
1/2+x,1/2-y,1/2+z
loop_
_atom_site_type_symbol
_atom_site_label
_atom_site_fract_x
_atom_site_fract_y
_atom_site_fract_z
Si Si1 0.030719 0.438264 0.394890
Si Si2 0.176412 0.890792 0.706545
Si Si3 0.792440 0.265316 0.130641
Si Si4 0.048766 0.191857 0.964967
Si Si5 0.000000 0.795086 0.750000
Si Si6 0.263083 0.380219 0.072913
O O1 0.120363 0.367451 0.406136
O O2 0.019837 0.669822 0.401985
O O3 0.022816 0.345370 0.314447
O O4 0.962554 0.337480 0.461465
O O5 0.194608 0.851068 0.791915
O O6 0.205201 0.705847 0.650628
O O7 0.080255 0.918391 0.715931
O O8 0.228412 0.067458 0.663046
O O9 0.757730 0.114171 0.075570
O O10 0.141500 0.145502 0.928364
O O11 0.000000 0.000000 0.000000
O O12 0.250000 0.250000 0.000000
#
# Coordination Sequence:
#
# PCOD9292403 Si02
#       6
#     8   8   8   8   4   8
#     4  10  22  43  71 102 135 182 230 275 340 419
#     4  11  23  45  71 101 137 182 231 281 346 411
#     4  11  22  43  76  97 135 189 228 277 349 419
#     4  11  22  42  72  98 137 185 225 274 348 408
#     4  10  24  46  70 102 144 172 236 294 330 406
#     4  12  25  42  69 104 140 176 235 293 337 410
#
# _framework density 22.295141999999998
#
# number of rings (size 3 to 8) (size 9 to 14) (size 15 to 20)
#    0.000    1.091    5.455    1.091    0.000    0.727 
#    0.000    7.273    0.000    0.000    0.000    0.000 
#    0.000    0.000    0.000    0.000    0.000    0.000 
#
# Total GULP energy -122921.402890 kJ/mol
# GULP energy per Si atom -5587.336495 kJ/mol
# Density = 2.224440 g / cm^3
# Si number density = 22.295142 Si / 1000 Ang^3
#
#
#
# Elastic Constant Matrix: (Units=GPa)
#
#
# Indices 1 2 3 4 5 6 
#
# 1 81.0989 25.6078 15.7139 0.0000 -26.7959 0.0000
# 2 25.6078 108.6310 13.5548 0.0000 1.7407 0.0000
# 3 15.7139 13.5548 70.9588 0.0000 -12.3486 0.0000
# 4 0.0000 0.0000 0.0000 38.5083 0.0000 -7.7911
# 5 -26.7959 1.7407 -12.3486 0.0000 39.7363 0.0000
# 6 0.0000 0.0000 0.0000 -7.7911 0.0000 18.8120
#
#
#
# Elastic Compliance Matrix: (Units=1/GPa)
#
#
# Indices 1 2 3 4 5 6 
#
# 1 0.017797 -0.004252 -0.001066 0.000000 0.011857 0.000000
# 2 -0.004252 0.010486 -0.001734 0.000000 -0.003866 0.000000
# 3 -0.001066 -0.001734 0.015380 0.000000 0.004137 0.000000
# 4 0.000000 0.000000 0.000000 0.028343 0.000000 0.011739
# 5 0.011857 -0.003866 0.004137 0.000000 0.034616 0.000000
# 6 0.000000 0.000000 0.000000 0.011739 0.000000 0.058019
#
#
# Mechanical properties :
#
#
# Convention : Reuss Voigt Hill
#
# Bulk Modulus (GPa) = 33.83052 41.16020 37.49536
# Shear Modulus (GPa) = 26.51114 33.13212 29.82163
#
# Velocity S-wave (km/s) = 3.45207 3.85914 3.66127
# Velocity P-wave (km/s) = 5.57638 6.19345 5.89300
#
# Compressibility (1/GPa) = 0.02955911
#
# Stress axis : x y z
#
# Youngs Moduli (GPa) = 56.18797 95.36303 65.02009
#
# Poissons Ratio (x) = 0.40553 0.06928
# Poissons Ratio (y) = 0.23894 0.11276
# Poissons Ratio (z) = 0.05987 0.16538
#
# Static dielectric constant tensor:
#      x y z
#    x 1.832310 0.000000 0.018060 
#    y 0.000000 1.865340 0.000000 
#    z 0.018060 0.000000 1.839760 
# 
# From -- ./inp_files/246399.got.cif
#   From: 2010.05.17/outbox.cif.g08.bks.cpg/sg15_124_cif.got.tgz:246399.got - 2010.06.03 18:47:42.
