data_PCOD9292210
_publ_section_title
;
Structure prediction by ZEFSAII (Michael W. Deem and Ramdas Pophale) SiO2 
 PCOD9292210
Probable space group: C 2/C
;
_chemical_formula_sum "Si O2"
_cell_formula_units_Z 32
_cell_length_a 14.467215
_cell_length_b 9.722230
_cell_length_c 19.663844
_cell_angle_alpha 90.000000
_cell_angle_beta 24.559378
_cell_angle_gamma 90.000000
_cell_volume 1149.562151
_symmetry_space_group_name_H-M "C 2/C"
_symmetry_group_IT_number 15
_symmetry_cell_setting 'monoclinic'
loop_
_space_group_symop_operation_xyz
x,y,z
-x,y,1/2-z
-x,-y,-z
x,-y,1/2+z
1/2+x,1/2+y,z
1/2-x,1/2+y,1/2-z
1/2-x,1/2-y,-z
1/2+x,1/2-y,1/2+z
loop_
_atom_site_type_symbol
_atom_site_label
_atom_site_fract_x
_atom_site_fract_y
_atom_site_fract_z
Si Si1 0.697527 0.086100 0.568829
Si Si2 0.755546 0.527533 0.600823
Si Si3 0.670039 0.672814 0.277328
Si Si4 0.405550 0.338384 0.517047
O O1 0.500000 0.134012 0.750000
O O2 0.618598 0.033454 0.548403
O O3 0.801749 0.947718 0.535168
O O4 0.914020 0.185179 0.424482
O O5 0.500000 0.510008 0.750000
O O6 0.780310 0.437109 0.652081
O O7 0.797712 0.688401 0.578830
O O8 0.646675 0.623681 0.370410
O O9 0.832893 0.803686 0.166773
#
# Coordination Sequence:
#
# PCOD9292210 Si02
#       4
#     8   8   8   8
#     4  11  24  45  70 100 134 176 225 280 335 397
#     4  10  22  43  67  99 136 176 223 279 334 397
#     4  11  25  41  67 102 137 174 225 280 332 394
#     4  12  23  43  72 101 133 180 227 275 334 400
#
# _framework density 27.836687000000001
#
# number of rings (size 3 to 8) (size 9 to 14) (size 15 to 20)
#    0.000    1.000    0.000    7.500    0.000    2.000 
#    0.000   16.250    0.000    0.000    0.000    0.000 
#    0.000    0.000    0.000    0.000    0.000    0.000 
#
# Total GULP energy -89907.457462 kJ/mol
# GULP energy per Si atom -5619.216091 kJ/mol
# Density = 2.777333 g / cm^3
# Si number density = 27.836687 Si / 1000 Ang^3
#
#
#
# Elastic Constant Matrix: (Units=GPa)
#
#
# Indices 1 2 3 4 5 6 
#
# 1 109.9742 36.4047 55.6484 -0.0020 41.1006 0.0016
# 2 36.4047 125.0840 25.8347 -0.0063 11.1697 0.0033
# 3 55.6484 25.8347 198.8939 -0.0146 10.9200 0.0057
# 4 -0.0020 -0.0063 -0.0146 54.9371 0.0052 -5.6812
# 5 41.1006 11.1697 10.9200 0.0052 73.3372 -0.0025
# 6 0.0016 0.0033 0.0057 -5.6812 -0.0025 42.2969
#
#
#
# Elastic Compliance Matrix: (Units=1/GPa)
#
#
# Indices 1 2 3 4 5 6 
#
# 1 0.014349 -0.002869 -0.003251 0.000000 -0.007121 0.000000
# 2 -0.002869 0.008878 -0.000368 0.000001 0.000310 0.000000
# 3 -0.003251 -0.000368 0.005931 0.000001 0.000995 0.000000
# 4 0.000000 0.000001 0.000001 0.018459 -0.000002 0.002479
# 5 -0.007121 0.000310 0.000995 -0.000002 0.017431 0.000001
# 6 0.000000 0.000000 0.000000 0.002479 0.000001 0.023975
#
#
# Mechanical properties :
#
#
# Convention : Reuss Voigt Hill
#
# Bulk Modulus (GPa) = 61.79557 74.41419 68.10488
# Shear Modulus (GPa) = 46.55854 55.18519 50.87187
#
# Velocity S-wave (km/s) = 4.09413 4.45732 4.27958
# Velocity P-wave (km/s) = 6.67808 7.29936 6.99562
#
# Compressibility (1/GPa) = 0.01618239
#
# Stress axis : x y z
#
# Youngs Moduli (GPa) = 69.69126 112.64096 168.61848
#
# Poissons Ratio (x) = 0.32315 0.54820
# Poissons Ratio (y) = 0.19993 0.06197
# Poissons Ratio (z) = 0.22657 0.04140
#
# Static dielectric constant tensor:
#      x y z
#    x 2.180140 0.000000 -0.029970 
#    y 0.000000 2.188920 0.000010 
#    z -0.029970 0.000010 2.166200 
# 
# From -- ./inp_files/36757.got.cif
#   From: 2010.05.17/outbox.cif.g08.bks.cpg/sg15_19_cif.got.tgz:36757.got - 2010.06.03 18:47:42.
