data_PCOD9292772
_publ_section_title
;
Structure prediction by ZEFSAII (Michael W. Deem and Ramdas Pophale) SiO2 
 PCOD9292772
Probable space group: C 2/C
;
_chemical_formula_sum "Si O2"
_cell_formula_units_Z 48
_cell_length_a 10.825172
_cell_length_b 8.573676
_cell_length_c 24.074294
_cell_angle_alpha 90.000000
_cell_angle_beta 114.974634
_cell_angle_gamma 90.000000
_cell_volume 2025.446378
_symmetry_space_group_name_H-M "C 2/C"
_symmetry_group_IT_number 15
_symmetry_cell_setting 'monoclinic'
loop_
_space_group_symop_operation_xyz
x,y,z
-x,y,1/2-z
-x,-y,-z
x,-y,1/2+z
1/2+x,1/2+y,z
1/2-x,1/2+y,1/2-z
1/2-x,1/2-y,-z
1/2+x,1/2-y,1/2+z
loop_
_atom_site_type_symbol
_atom_site_label
_atom_site_fract_x
_atom_site_fract_y
_atom_site_fract_z
Si Si1 0.933297 0.852541 0.921909
Si Si2 0.657707 0.962239 0.393587
Si Si3 0.297837 0.393374 0.579790
Si Si4 0.399393 0.158988 0.802715
Si Si5 0.119626 0.355328 0.990458
Si Si6 0.354471 0.459983 0.719395
O O1 0.906722 0.733546 0.866165
O O2 0.962261 0.756718 0.983772
O O3 0.067516 0.945971 0.928919
O O4 0.796057 0.952406 0.902176
O O5 0.704422 0.794055 0.426926
O O6 0.545568 0.925922 0.325364
O O7 0.579135 0.069881 0.424015
O O8 0.172679 0.496099 0.535606
O O9 0.321178 0.426781 0.649038
O O10 0.377813 0.301756 0.757603
O O11 0.270096 0.048545 0.776502
O O12 0.250000 0.250000 0.000000
O O13 0.500000 0.547754 0.750000
#
# Coordination Sequence:
#
# PCOD9292772 Si02
#       6
#     8   8   8   8   8   8
#     4  10  22  44  67  99 137 173 222 273 332 396
#     4  10  23  43  68 101 135 174 224 273 335 399
#     4  11  23  43  67 100 135 175 222 272 337 395
#     4  11  26  44  68  97 131 177 222 281 330 399
#     4  10  22  44  68 100 139 176 225 273 331 405
#     4  12  25  46  67  96 133 174 227 276 331 399
#
# _framework density 23.698481000000001
#
# number of rings (size 3 to 8) (size 9 to 14) (size 15 to 20)
#    0.000    1.333    5.000    0.500    2.333    6.667 
#    9.000    0.000    0.000    0.000    0.000    0.000 
#    0.000    0.000    0.000    0.000    0.000    0.000 
#
# Total GULP energy -134296.450693 kJ/mol
# GULP energy per Si atom -5595.685446 kJ/mol
# Density = 2.364454 g / cm^3
# Si number density = 23.698481 Si / 1000 Ang^3
#
#
#
# Elastic Constant Matrix: (Units=GPa)
#
#
# Indices 1 2 3 4 5 6 
#
# 1 129.2792 34.7462 0.7186 0.0000 12.0153 0.0000
# 2 34.7462 64.9788 6.9747 0.0000 14.1284 0.0000
# 3 0.7186 6.9747 53.6475 0.0000 4.4823 0.0000
# 4 0.0000 0.0000 0.0000 38.4363 0.0000 1.8892
# 5 12.0153 14.1284 4.4823 0.0000 38.7611 0.0000
# 6 0.0000 0.0000 0.0000 1.8892 0.0000 47.7177
#
#
#
# Elastic Compliance Matrix: (Units=1/GPa)
#
#
# Indices 1 2 3 4 5 6 
#
# 1 0.009097 -0.004669 0.000584 0.000000 -0.001186 0.000000
# 2 -0.004669 0.019262 -0.001995 0.000000 -0.005343 0.000000
# 3 0.000584 -0.001995 0.019030 0.000000 -0.001654 0.000000
# 4 0.000000 0.000000 0.000000 0.026068 0.000000 -0.001032
# 5 -0.001186 -0.005343 -0.001654 0.000000 0.028305 0.000000
# 6 0.000000 0.000000 0.000000 -0.001032 0.000000 0.020997
#
#
# Mechanical properties :
#
#
# Convention : Reuss Voigt Hill
#
# Bulk Modulus (GPa) = 28.38610 36.97605 32.68108
# Shear Modulus (GPa) = 34.09150 38.68076 36.38613
#
# Velocity S-wave (km/s) = 3.79694 4.04444 3.92264
# Velocity P-wave (km/s) = 5.58806 6.11936 5.85973
#
# Compressibility (1/GPa) = 0.03522851
#
# Stress axis : x y z
#
# Youngs Moduli (GPa) = 109.92470 51.91449 52.54859
#
# Poissons Ratio (x) = 0.24241 -0.03070
# Poissons Ratio (y) = 0.51329 0.10485
# Poissons Ratio (z) = -0.06423 0.10359
#
# Static dielectric constant tensor:
#      x y z
#    x 1.991690 0.000000 -0.016780 
#    y 0.000000 1.877660 0.000000 
#    z -0.016780 0.000000 1.899460 
# 
# From -- ./inp_files/268099.got.cif
#   From: 2010.05.17/outbox.cif.g08.bks.cpg/sg15_135_cif.got.tgz:268099.got - 2010.06.03 18:47:42.
