data_PCOD9292059
_publ_section_title
;
Structure prediction by ZEFSAII (Michael W. Deem and Ramdas Pophale) SiO2 
 PCOD9292059
Probable space group: C 2/C
;
_chemical_formula_sum "Si O2"
_cell_formula_units_Z 44
_cell_length_a 8.865629
_cell_length_b 15.451999
_cell_length_c 16.226415
_cell_angle_alpha 90.000000
_cell_angle_beta 119.192814
_cell_angle_gamma 90.000000
_cell_volume 1940.540533
_symmetry_space_group_name_H-M "C 2/C"
_symmetry_group_IT_number 15
_symmetry_cell_setting 'monoclinic'
loop_
_space_group_symop_operation_xyz
x,y,z
-x,y,1/2-z
-x,-y,-z
x,-y,1/2+z
1/2+x,1/2+y,z
1/2-x,1/2+y,1/2-z
1/2-x,1/2-y,-z
1/2+x,1/2-y,1/2+z
loop_
_atom_site_type_symbol
_atom_site_label
_atom_site_fract_x
_atom_site_fract_y
_atom_site_fract_z
Si Si1 0.822498 0.392216 0.155629
Si Si2 0.005262 0.013066 0.600220
Si Si3 0.823447 0.807353 0.094550
Si Si4 0.156115 0.714993 0.155852
Si Si5 0.000000 0.113730 0.250000
Si Si6 0.512066 0.098235 0.971544
O O1 0.706865 0.464774 0.168527
O O2 0.721427 0.302796 0.131813
O O3 0.000000 0.384135 0.250000
O O4 0.861123 0.409606 0.071324
O O5 0.899040 0.100471 0.586806
O O6 0.000000 0.000000 0.500000
O O7 0.953826 0.943871 0.656579
O O8 0.657511 0.843911 0.101542
O O9 0.990440 0.749026 0.164114
O O10 0.750000 0.750000 0.000000
O O11 0.332684 0.669755 0.234235
O O12 0.084466 0.651437 0.067476
O O13 0.500000 0.000000 0.000000
#
# Coordination Sequence:
#
# PCOD9292059 Si02
#       6
#     8   8   8   8   4   8
#     4  11  24  42  65  98 136 177 229 284 349 420
#     4  11  25  45  67  98 136 181 231 289 349 421
#     4   9  21  42  68  99 132 176 227 281 352 419
#     4  10  22  43  65  99 133 183 230 277 350 430
#     4  12  24  42  74 100 142 190 242 290 358 414
#     4  11  22  40  75  99 136 179 224 290 357 414
#
# _framework density 22.674095000000001
#
# number of rings (size 3 to 8) (size 9 to 14) (size 15 to 20)
#    0.000    1.455    0.909    3.818    5.091    2.909 
#    0.000    0.000    8.000    0.000    0.000    0.000 
#    0.000    0.000    0.000    0.000    0.000    0.000 
#
# Total GULP energy -122591.048634 kJ/mol
# GULP energy per Si atom -5572.320392 kJ/mol
# Density = 2.262249 g / cm^3
# Si number density = 22.674095 Si / 1000 Ang^3
#
#
#
# Elastic Constant Matrix: (Units=GPa)
#
#
# Indices 1 2 3 4 5 6 
#
# 1 98.0955 35.9189 35.5430 0.0000 20.9482 0.0000
# 2 35.9189 87.8050 39.7639 0.0000 8.9146 0.0000
# 3 35.5430 39.7639 71.4231 0.0000 -7.2351 0.0000
# 4 0.0000 0.0000 0.0000 27.5746 0.0000 12.3143
# 5 20.9482 8.9146 -7.2351 0.0000 37.5666 0.0000
# 6 0.0000 0.0000 0.0000 12.3143 0.0000 11.6246
#
#
#
# Elastic Compliance Matrix: (Units=1/GPa)
#
#
# Indices 1 2 3 4 5 6 
#
# 1 0.015841 -0.001945 -0.007801 0.000000 -0.009874 0.000000
# 2 -0.001945 0.016600 -0.008734 0.000000 -0.004537 0.000000
# 3 -0.007801 -0.008734 0.023861 0.000000 0.011018 0.000000
# 4 0.000000 0.000000 0.000000 0.068825 0.000000 -0.072908
# 5 -0.009874 -0.004537 0.011018 0.000000 0.035324 0.000000
# 6 0.000000 0.000000 0.000000 -0.072908 0.000000 0.163258
#
#
# Mechanical properties :
#
#
# Convention : Reuss Voigt Hill
#
# Bulk Modulus (GPa) = 51.69466 53.30838 52.50152
# Shear Modulus (GPa) = 13.61964 25.09301 19.35633
#
# Velocity S-wave (km/s) = 2.45352 3.33029 2.92494
# Velocity P-wave (km/s) = 5.55651 6.19270 5.88321
#
# Compressibility (1/GPa) = 0.01934436
#
# Stress axis : x y z
#
# Youngs Moduli (GPa) = 63.12537 60.23977 41.90872
#
# Poissons Ratio (x) = 0.11718 0.32692
# Poissons Ratio (y) = 0.12279 0.36601
# Poissons Ratio (z) = 0.49242 0.52611
#
# Static dielectric constant tensor:
#      x y z
#    x 1.968340 0.000000 0.072110 
#    y 0.000000 1.723560 0.000000 
#    z 0.072110 0.000000 1.884870 
# 
# From -- ./inp_files/189331.got.cif
#   From: 2010.05.17/outbox.cif.g08.bks.cpg/sg15_95_cif.got.tgz:189331.got - 2010.06.03 18:47:42.
