data_PCOD9292815
_publ_section_title
;
Structure prediction by ZEFSAII (Michael W. Deem and Ramdas Pophale) SiO2 
 PCOD9292815
Probable space group: C 2/C
;
_chemical_formula_sum "Si O2"
_cell_formula_units_Z 36
_cell_length_a 9.699154
_cell_length_b 7.088925
_cell_length_c 23.244164
_cell_angle_alpha 90.000000
_cell_angle_beta 65.657260
_cell_angle_gamma 90.000000
_cell_volume 1456.103791
_symmetry_space_group_name_H-M "C 2/C"
_symmetry_group_IT_number 15
_symmetry_cell_setting 'monoclinic'
loop_
_space_group_symop_operation_xyz
x,y,z
-x,y,1/2-z
-x,-y,-z
x,-y,1/2+z
1/2+x,1/2+y,z
1/2-x,1/2+y,1/2-z
1/2-x,1/2-y,-z
1/2+x,1/2-y,1/2+z
loop_
_atom_site_type_symbol
_atom_site_label
_atom_site_fract_x
_atom_site_fract_y
_atom_site_fract_z
Si Si1 0.500000 0.482563 0.250000
Si Si2 0.335125 0.455238 0.589868
Si Si3 0.015773 0.621215 0.186267
Si Si4 0.288052 0.892694 0.632674
Si Si5 0.323813 0.441861 0.965553
O O1 0.445533 0.328870 0.211440
O O2 0.361129 0.591036 0.302053
O O3 0.192346 0.359063 0.643794
O O4 0.316156 0.677266 0.608556
O O5 0.502328 0.402172 0.580992
O O6 0.327329 0.429980 0.521887
O O7 0.000000 0.516813 0.250000
O O8 0.928258 0.539079 0.147188
O O9 0.263942 0.001167 0.576654
O O10 0.250000 0.250000 0.000000
#
# Coordination Sequence:
#
# PCOD9292815 Si02
#       5
#     4   8   8   8   8
#     4  10  26  38  60  96 132 164 216 256 318 382
#     4  10  22  44  68  93 130 165 213 268 319 378
#     4  10  26  39  61  97 130 165 214 262 315 383
#     4  11  23  41  66  91 128 172 212 260 320 380
#     4   9  21  42  68  96 124 167 215 266 321 376
#
# _framework density 24.723514000000002
#
# number of rings (size 3 to 8) (size 9 to 14) (size 15 to 20)
#    0.667    1.333    0.000    1.333    7.778    4.444 
#    0.000   15.556    0.000    0.000    0.000    0.000 
#    0.000    0.000    0.000    0.000    0.000    0.000 
#
# Total GULP energy -100612.457948 kJ/mol
# GULP energy per Si atom -5589.580997 kJ/mol
# Density = 2.466724 g / cm^3
# Si number density = 24.723514 Si / 1000 Ang^3
#
#
#
# Elastic Constant Matrix: (Units=GPa)
#
#
# Indices 1 2 3 4 5 6 
#
# 1 117.5206 10.5365 80.4390 0.0000 22.5214 0.0000
# 2 10.5365 59.3024 17.8040 0.0000 1.5441 0.0000
# 3 80.4390 17.8040 142.4844 0.0000 6.8747 0.0000
# 4 0.0000 0.0000 0.0000 30.3052 0.0000 -11.9737
# 5 22.5214 1.5441 6.8747 0.0000 58.1741 0.0000
# 6 0.0000 0.0000 0.0000 -11.9737 0.0000 17.4036
#
#
#
# Elastic Compliance Matrix: (Units=1/GPa)
#
#
# Indices 1 2 3 4 5 6 
#
# 1 0.015128 -0.000070 -0.008297 0.000000 -0.004874 0.000000
# 2 -0.000070 0.017523 -0.002141 0.000000 -0.000185 0.000000
# 3 -0.008297 -0.002141 0.011880 0.000000 0.001865 0.000000
# 4 0.000000 0.000000 0.000000 0.045316 0.000000 0.031177
# 5 -0.004874 -0.000185 0.001865 0.000000 0.018861 0.000000
# 6 0.000000 0.000000 0.000000 0.031177 0.000000 0.078909
#
#
# Mechanical properties :
#
#
# Convention : Reuss Voigt Hill
#
# Bulk Modulus (GPa) = 42.52574 59.65181 51.08878
# Shear Modulus (GPa) = 23.09771 35.21179 29.15475
#
# Velocity S-wave (km/s) = 3.05985 3.77798 3.43772
# Velocity P-wave (km/s) = 5.45174 6.57349 6.03872
#
# Compressibility (1/GPa) = 0.02351517
#
# Stress axis : x y z
#
# Youngs Moduli (GPa) = 66.10092 57.06856 84.17698
#
# Poissons Ratio (x) = 0.00400 0.69839
# Poissons Ratio (y) = 0.00464 0.18023
# Poissons Ratio (z) = 0.54842 0.12219
#
# Static dielectric constant tensor:
#      x y z
#    x 1.942690 0.000000 0.068740 
#    y 0.000000 2.022940 0.000000 
#    z 0.068740 0.000000 1.965530 
# 
# From -- ./inp_files/262339.got.cif
#   From: 2010.05.17/outbox.cif.g08.bks.cpg/sg15_132_cif.got.tgz:262339.got - 2010.06.03 18:47:42.
