data_PCOD9292708
_publ_section_title
;
Structure prediction by ZEFSAII (Michael W. Deem and Ramdas Pophale) SiO2 
 PCOD9292708
Probable space group: C 2/C
;
_chemical_formula_sum "Si O2"
_cell_formula_units_Z 52
_cell_length_a 11.855671
_cell_length_b 8.460716
_cell_length_c 23.919634
_cell_angle_alpha 90.000000
_cell_angle_beta 105.077158
_cell_angle_gamma 90.000000
_cell_volume 2316.724721
_symmetry_space_group_name_H-M "C 2/C"
_symmetry_group_IT_number 15
_symmetry_cell_setting 'monoclinic'
loop_
_space_group_symop_operation_xyz
x,y,z
-x,y,1/2-z
-x,-y,-z
x,-y,1/2+z
1/2+x,1/2+y,z
1/2-x,1/2+y,1/2-z
1/2-x,1/2-y,-z
1/2+x,1/2-y,1/2+z
loop_
_atom_site_type_symbol
_atom_site_label
_atom_site_fract_x
_atom_site_fract_y
_atom_site_fract_z
Si Si1 0.352753 0.470049 0.304832
Si Si2 0.890533 0.483307 0.944784
Si Si3 0.500000 0.326301 0.750000
Si Si4 0.411748 0.338243 0.924145
Si Si5 0.353536 0.511558 0.532861
Si Si6 0.592499 0.966876 0.305441
Si Si7 0.482092 0.226966 0.124478
O O1 0.393018 0.568917 0.256587
O O2 0.378012 0.569812 0.364202
O O3 0.215598 0.440570 0.291057
O O4 0.439598 0.322132 0.321050
O O5 0.882056 0.654958 0.915002
O O6 0.771089 0.454191 0.962071
O O7 0.924636 0.348266 0.905998
O O8 0.000000 0.500000 0.000000
O O9 0.460602 0.209448 0.694608
O O10 0.548737 0.374544 0.953467
O O11 0.349080 0.412518 0.970633
O O12 0.401605 0.649576 0.580434
O O13 0.500000 0.039260 0.250000
O O14 0.590901 0.083831 0.357471
#
# Coordination Sequence:
#
# PCOD9292708 Si02
#       7
#     8   8   4   8   8   8   8
#     4  11  25  45  71  92 136 172 220 277 331 394
#     4  12  24  38  67  99 135 175 215 264 315 388
#     4  10  26  44  66  98 122 176 218 280 334 380
#     4  10  22  44  66  97 135 179 214 267 327 388
#     4  10  23  44  64  98 141 172 218 262 323 399
#     4  10  26  44  69  97 129 166 224 281 334 390
#     4  11  25  43  66 104 126 181 216 265 336 391
#
# _framework density 22.445481999999998
#
# number of rings (size 3 to 8) (size 9 to 14) (size 15 to 20)
#    0.462    0.923    1.538    2.308    5.385    4.308 
#    0.000    0.000    0.000    0.000    0.000    0.000 
#    0.000    0.000    0.000    0.000    0.000    0.000 
#
# Total GULP energy -145367.258304 kJ/mol
# GULP energy per Si atom -5591.048396 kJ/mol
# Density = 2.239439 g / cm^3
# Si number density = 22.445482 Si / 1000 Ang^3
#
#
#
# Elastic Constant Matrix: (Units=GPa)
#
#
# Indices 1 2 3 4 5 6 
#
# 1 136.0982 18.8864 7.6095 0.0000 -19.1202 0.0000
# 2 18.8864 57.5637 7.3544 0.0000 -11.7662 0.0000
# 3 7.6095 7.3544 39.0680 0.0000 -4.1274 0.0000
# 4 0.0000 0.0000 0.0000 23.4960 0.0000 -18.5326
# 5 -19.1202 -11.7662 -4.1274 0.0000 25.4716 0.0000
# 6 0.0000 0.0000 0.0000 -18.5326 0.0000 27.0411
#
#
#
# Elastic Compliance Matrix: (Units=1/GPa)
#
#
# Indices 1 2 3 4 5 6 
#
# 1 0.008369 -0.001534 -0.000766 0.000000 0.005449 0.000000
# 2 -0.001534 0.019753 -0.002622 0.000000 0.007548 0.000000
# 3 -0.000766 -0.002622 0.026504 0.000000 0.002509 0.000000
# 4 0.000000 0.000000 0.000000 0.092639 0.000000 0.063490
# 5 0.005449 0.007548 0.002509 0.000000 0.047243 0.000000
# 6 0.000000 0.000000 0.000000 0.063490 0.000000 0.080493
#
#
# Mechanical properties :
#
#
# Convention : Reuss Voigt Hill
#
# Bulk Modulus (GPa) = 22.33014 33.38117 27.85566
# Shear Modulus (GPa) = 16.67929 28.46038 22.56984
#
# Velocity S-wave (km/s) = 2.72895 3.56473 3.17447
# Velocity P-wave (km/s) = 4.46091 5.64336 5.08661
#
# Compressibility (1/GPa) = 0.04478252
#
# Stress axis : x y z
#
# Youngs Moduli (GPa) = 119.48988 50.62445 37.72994
#
# Poissons Ratio (x) = 0.07766 0.02888
# Poissons Ratio (y) = 0.18331 0.09894
# Poissons Ratio (z) = 0.09148 0.13275
#
# Static dielectric constant tensor:
#      x y z
#    x 2.127480 0.000000 0.653840 
#    y 0.000000 1.859930 0.000000 
#    z 0.653840 0.000000 3.127490 
# 
# From -- ./inp_files/291215.got.cif
#   From: 2010.05.17/outbox.cif.g08.bks.cpg/sg15_146_cif.got.tgz:291215.got - 2010.06.03 18:47:42.
