data_PCOD9292219
_publ_section_title
;
Structure prediction by ZEFSAII (Michael W. Deem and Ramdas Pophale) SiO2 
 PCOD9292219
Probable space group: C 2/C
;
_chemical_formula_sum "Si O2"
_cell_formula_units_Z 56
_cell_length_a 17.550439
_cell_length_b 28.502481
_cell_length_c 7.874297
_cell_angle_alpha 90.000000
_cell_angle_beta 139.634337
_cell_angle_gamma 90.000000
_cell_volume 2551.125334
_symmetry_space_group_name_H-M "C 2/C"
_symmetry_group_IT_number 15
_symmetry_cell_setting 'monoclinic'
loop_
_space_group_symop_operation_xyz
x,y,z
-x,y,1/2-z
-x,-y,-z
x,-y,1/2+z
1/2+x,1/2+y,z
1/2-x,1/2+y,1/2-z
1/2-x,1/2-y,-z
1/2+x,1/2-y,1/2+z
loop_
_atom_site_type_symbol
_atom_site_label
_atom_site_fract_x
_atom_site_fract_y
_atom_site_fract_z
Si Si1 0.151493 0.320632 0.381121
Si Si2 0.101574 0.276556 0.638850
Si Si3 0.482128 0.554151 0.520399
Si Si4 0.241098 0.194236 0.788939
Si Si5 0.274694 0.414486 0.188042
Si Si6 0.906579 0.479348 0.711804
Si Si7 0.218910 0.427285 0.476582
O O1 0.175866 0.301207 0.611375
O O2 0.238703 0.304880 0.379008
O O3 0.154843 0.377466 0.394525
O O4 0.026314 0.299118 0.106348
O O5 0.121686 0.221684 0.632615
O O6 0.156056 0.283916 0.917797
O O7 0.500000 0.558735 0.750000
O O8 0.500000 0.500000 0.500000
O O9 0.587603 0.578986 0.601496
O O10 0.353933 0.573789 0.262858
O O11 0.246833 0.140221 0.849991
O O12 0.230776 0.435182 0.293465
O O13 0.197359 0.443487 0.921165
O O14 0.842752 0.527509 0.544664
O O15 0.000000 0.452994 0.750000
O O16 0.000000 0.500000 0.000000
#
# Coordination Sequence:
#
# PCOD9292219 Si02
#       7
#     8   8   8   8   8   8   8
#     4  10  23  42  70 100 138 175 229 287 357 413
#     4  10  22  43  68 101 133 179 225 287 348 423
#     4  12  26  44  69  95 135 182 233 289 337 408
#     4  10  23  43  70  96 136 179 227 284 349 417
#     4  11  25  46  67  98 136 180 231 283 345 413
#     4  12  26  39  65 100 140 178 226 277 335 417
#     4  11  25  45  67 100 133 187 225 287 352 416
#
# _framework density 21.951098999999999
#
# number of rings (size 3 to 8) (size 9 to 14) (size 15 to 20)
#    0.000    1.143    2.857    2.143    8.000    0.000 
#   12.857    0.000    0.000    0.000    0.000    0.000 
#    0.000    0.000    0.000    0.000    0.000    0.000 
#
# Total GULP energy -156243.363945 kJ/mol
# GULP energy per Si atom -5580.120141 kJ/mol
# Density = 2.190114 g / cm^3
# Si number density = 21.951099 Si / 1000 Ang^3
#
#
#
# Elastic Constant Matrix: (Units=GPa)
#
#
# Indices 1 2 3 4 5 6 
#
# 1 47.2739 22.8297 18.7653 0.0000 1.6148 0.0000
# 2 22.8297 108.1565 20.4299 0.0000 14.5743 0.0000
# 3 18.7653 20.4299 100.3575 0.0000 21.5857 0.0000
# 4 0.0000 0.0000 0.0000 32.3359 0.0000 6.2446
# 5 1.6148 14.5743 21.5857 0.0000 38.3041 0.0000
# 6 0.0000 0.0000 0.0000 6.2446 0.0000 30.0426
#
#
#
# Elastic Compliance Matrix: (Units=1/GPa)
#
#
# Indices 1 2 3 4 5 6 
#
# 1 0.025171 -0.004924 -0.004414 0.000000 0.003300 0.000000
# 2 -0.004924 0.010872 -0.000509 0.000000 -0.003642 0.000000
# 3 -0.004414 -0.000509 0.012303 0.000000 -0.006553 0.000000
# 4 0.000000 0.000000 0.000000 0.032219 0.000000 -0.006697
# 5 0.003300 -0.003642 -0.006553 0.000000 0.031047 0.000000
# 6 0.000000 0.000000 0.000000 -0.006697 0.000000 0.034678
#
#
# Mechanical properties :
#
#
# Convention : Reuss Voigt Hill
#
# Bulk Modulus (GPa) = 34.90189 42.20419 38.55304
# Shear Modulus (GPa) = 28.48462 33.05405 30.76934
#
# Velocity S-wave (km/s) = 3.60618 3.88468 3.74802
# Velocity P-wave (km/s) = 5.76834 6.27608 6.02756
#
# Compressibility (1/GPa) = 0.02865175
#
# Stress axis : x y z
#
# Youngs Moduli (GPa) = 39.72900 91.97792 81.28180
#
# Poissons Ratio (x) = 0.45289 0.35877
# Poissons Ratio (y) = 0.19562 0.04139
# Poissons Ratio (z) = 0.17536 0.04683
#
# Static dielectric constant tensor:
#      x y z
#    x 1.865130 0.000000 -0.058410 
#    y 0.000000 1.168110 0.000000 
#    z -0.058410 0.000000 1.835830 
# 
# From -- ./inp_files/52346.got.cif
#   From: 2010.05.17/outbox.cif.g08.bks.cpg/sg15_27_cif.got.tgz:52346.got - 2010.06.03 18:47:42.
