data_PCOD9292686
_publ_section_title
;
Structure prediction by ZEFSAII (Michael W. Deem and Ramdas Pophale) SiO2 
 PCOD9292686
Probable space group: C 2/C
;
_chemical_formula_sum "Si O2"
_cell_formula_units_Z 56
_cell_length_a 8.884845
_cell_length_b 11.345361
_cell_length_c 31.700096
_cell_angle_alpha 90.000000
_cell_angle_beta 61.457853
_cell_angle_gamma 90.000000
_cell_volume 2807.072619
_symmetry_space_group_name_H-M "C 2/C"
_symmetry_group_IT_number 15
_symmetry_cell_setting 'monoclinic'
loop_
_space_group_symop_operation_xyz
x,y,z
-x,y,1/2-z
-x,-y,-z
x,-y,1/2+z
1/2+x,1/2+y,z
1/2-x,1/2+y,1/2-z
1/2-x,1/2-y,-z
1/2+x,1/2-y,1/2+z
loop_
_atom_site_type_symbol
_atom_site_label
_atom_site_fract_x
_atom_site_fract_y
_atom_site_fract_z
Si Si1 0.028495 0.972964 0.918194
Si Si2 0.655333 0.082421 0.812996
Si Si3 0.197864 0.617557 0.994996
Si Si4 0.554070 0.226296 0.536616
Si Si5 0.500000 0.553048 0.250000
Si Si6 0.650619 0.641865 0.316484
Si Si7 0.621063 0.968167 0.088980
Si Si8 0.500000 0.991638 0.750000
O O1 0.051207 0.929227 0.866975
O O2 0.029121 0.853870 0.946394
O O3 0.200044 0.039771 0.910018
O O4 0.856608 0.046790 0.952022
O O5 0.663306 0.219486 0.823907
O O6 0.534505 0.002446 0.859216
O O7 0.570991 0.070253 0.778340
O O8 0.842698 0.027829 0.785678
O O9 0.042508 0.641948 0.983406
O O10 0.250000 0.750000 0.000000
O O11 0.144718 0.550500 0.044893
O O12 0.750000 0.250000 0.500000
O O13 0.566162 0.157596 0.578454
O O14 0.561790 0.624314 0.282839
O O15 0.841245 0.587440 0.287208
#
# Coordination Sequence:
#
# PCOD9292686 Si02
#       8
#     8   8   8   8   4   8   8   4
#     4  12  25  44  68 101 136 177 229 275 334 403
#     4  11  23  43  69  96 132 170 223 274 337 395
#     4  12  26  45  68 100 141 180 225 274 335 400
#     4  12  25  44  70  94 138 182 219 282 331 400
#     4  10  26  44  66 100 134 166 224 282 328 410
#     4  11  23  43  69  96 130 174 218 276 335 395
#     4  12  24  44  67 100 135 176 228 275 332 402
#     4  10  22  44  66  94 128 172 214 274 342 394
#
# _framework density 19.949607
#
# number of rings (size 3 to 8) (size 9 to 14) (size 15 to 20)
#    0.000    0.571    5.714    2.571    2.000    0.000 
#    2.571    1.429    0.000    0.000    0.000    0.000 
#    0.000    0.000    0.000    0.000    0.000    0.000 
#
# Total GULP energy -156344.381446 kJ/mol
# GULP energy per Si atom -5583.727909 kJ/mol
# Density = 1.990420 g / cm^3
# Si number density = 19.949607 Si / 1000 Ang^3
#
#
#
# Elastic Constant Matrix: (Units=GPa)
#
#
# Indices 1 2 3 4 5 6 
#
# 1 116.5115 23.0963 41.8062 0.0000 -18.9210 0.0000
# 2 23.0963 88.1350 35.1034 0.0000 -14.6960 0.0000
# 3 41.8062 35.1034 135.1495 0.0000 -29.8689 0.0000
# 4 0.0000 0.0000 0.0000 11.7700 0.0000 -21.6077
# 5 -18.9210 -14.6960 -29.8689 0.0000 27.7700 0.0000
# 6 0.0000 0.0000 0.0000 -21.6077 0.0000 -14.7087
#
#
#
# Elastic Compliance Matrix: (Units=1/GPa)
#
#
# Indices 1 2 3 4 5 6 
#
# 1 0.010196 -0.001204 -0.001898 0.000000 0.004268 0.000000
# 2 -0.001204 0.013173 -0.002217 0.000000 0.003766 0.000000
# 3 -0.001898 -0.002217 0.010517 0.000000 0.008846 0.000000
# 4 0.000000 0.000000 0.000000 0.022982 0.000000 -0.033761
# 5 0.004268 0.003766 0.008846 0.000000 0.050426 0.000000
# 6 0.000000 0.000000 0.000000 -0.033761 0.000000 -0.018390
#
#
# Mechanical properties :
#
#
# Convention : Reuss Voigt Hill
#
# Bulk Modulus (GPa) = 43.01399 59.97865 51.49632
# Shear Modulus (GPa) = 46.60303 20.95227 33.77765
#
# Velocity S-wave (km/s) = 4.83850 3.24429 4.11925
# Velocity P-wave (km/s) = 7.26794 6.64562 6.96373
#
# Compressibility (1/GPa) = 0.02324825
#
# Stress axis : x y z
#
# Youngs Moduli (GPa) = 98.08087 75.91476 95.08464
#
# Poissons Ratio (x) = 0.09142 0.18045
# Poissons Ratio (y) = 0.11812 0.21076
# Poissons Ratio (z) = 0.18613 0.16827
#
# Static dielectric constant tensor:
#      x y z
#    x 1.712270 0.000000 -0.002310 
#    y 0.000000 1.730440 0.000000 
#    z -0.002310 0.000000 2.084130 
# 
# From -- ./inp_files/287977.got.cif
#   From: 2010.05.17/outbox.cif.g08.bks.cpg/sg15_144_cif.got.tgz:287977.got - 2010.06.03 18:47:42.
