data_PCOD9292387
_publ_section_title
;
Structure prediction by ZEFSAII (Michael W. Deem and Ramdas Pophale) SiO2 
 PCOD9292387
Probable space group: C 2/C
;
_chemical_formula_sum "Si O2"
_cell_formula_units_Z 60
_cell_length_a 18.925196
_cell_length_b 17.664447
_cell_length_c 11.225105
_cell_angle_alpha 90.000000
_cell_angle_beta 47.888316
_cell_angle_gamma 90.000000
_cell_volume 2783.816275
_symmetry_space_group_name_H-M "C 2/C"
_symmetry_group_IT_number 15
_symmetry_cell_setting 'monoclinic'
loop_
_space_group_symop_operation_xyz
x,y,z
-x,y,1/2-z
-x,-y,-z
x,-y,1/2+z
1/2+x,1/2+y,z
1/2-x,1/2+y,1/2-z
1/2-x,1/2-y,-z
1/2+x,1/2-y,1/2+z
loop_
_atom_site_type_symbol
_atom_site_label
_atom_site_fract_x
_atom_site_fract_y
_atom_site_fract_z
Si Si1 0.256339 0.455600 0.420260
Si Si2 0.299148 0.690297 0.029655
Si Si3 0.060382 0.073289 0.911280
Si Si4 0.763295 0.390969 0.435173
Si Si5 0.500000 0.663672 0.750000
Si Si6 0.827739 0.343627 0.618560
Si Si7 0.887508 0.512860 0.605742
Si Si8 0.421454 0.296298 0.937142
O O1 0.274182 0.389151 0.493530
O O2 0.327608 0.444524 0.227709
O O3 0.283839 0.533785 0.453575
O O4 0.151015 0.459395 0.481057
O O5 0.262136 0.686925 0.205748
O O6 0.250000 0.750000 0.000000
O O7 0.410136 0.708478 0.898424
O O8 0.033734 0.110288 0.817231
O O9 0.036997 0.133834 0.036970
O O10 0.000000 0.000000 0.000000
O O11 0.814215 0.353684 0.492293
O O12 0.838914 0.428449 0.255587
O O13 0.682360 0.331168 0.484693
O O14 0.849565 0.425842 0.649138
O O15 0.904452 0.276447 0.540252
O O16 0.000000 0.500000 0.500000
O O17 0.500000 0.276851 0.750000
#
# Coordination Sequence:
#
# PCOD9292387 Si02
#       8
#     8   8   8   8   4   8   8   8
#     4  10  22  43  70  99 136 181 239 297 352 427
#     4  11  24  48  67 102 145 189 239 300 364 432
#     4  11  24  40  71 104 142 183 235 296 359 436
#     4  11  24  46  72 104 139 187 244 302 368 427
#     4  10  26  42  70 102 134 188 240 292 362 426
#     4  11  26  47  72 101 151 190 238 305 368 432
#     4  11  25  46  76 100 139 193 249 302 355 437
#     4  12  27  45  71 109 146 187 233 302 377 444
#
# _framework density 21.553146999999999
#
# number of rings (size 3 to 8) (size 9 to 14) (size 15 to 20)
#    0.000    1.067    2.667    2.800   12.133    1.600 
#    4.800    0.000    0.000    0.000    0.000    0.000 
#    0.000    0.000    0.000    0.000    0.000    0.000 
#
# Total GULP energy -167343.261463 kJ/mol
# GULP energy per Si atom -5578.108715 kJ/mol
# Density = 2.150409 g / cm^3
# Si number density = 21.553147 Si / 1000 Ang^3
#
#
#
# Elastic Constant Matrix: (Units=GPa)
#
#
# Indices 1 2 3 4 5 6 
#
# 1 74.5309 -4.5790 27.0640 0.0000 -17.8429 0.0000
# 2 -4.5790 71.7489 13.2908 0.0000 -5.6733 0.0000
# 3 27.0640 13.2908 126.6065 0.0000 -11.2884 0.0000
# 4 0.0000 0.0000 0.0000 57.8605 0.0000 -5.9070
# 5 -17.8429 -5.6733 -11.2884 0.0000 26.4705 0.0000
# 6 0.0000 0.0000 0.0000 -5.9070 0.0000 34.9341
#
#
#
# Elastic Compliance Matrix: (Units=1/GPa)
#
#
# Indices 1 2 3 4 5 6 
#
# 1 0.017266 0.002517 -0.002983 0.000000 0.010906 0.000000
# 2 0.002517 0.014742 -0.001718 0.000000 0.004123 0.000000
# 3 -0.002983 -0.001718 0.008840 0.000000 0.001391 0.000000
# 4 0.000000 0.000000 0.000000 0.017587 0.000000 0.002974
# 5 0.010906 0.004123 0.001391 0.000000 0.046606 0.000000
# 6 0.000000 0.000000 0.000000 0.002974 0.000000 0.029128
#
#
# Mechanical properties :
#
#
# Convention : Reuss Voigt Hill
#
# Bulk Modulus (GPa) = 27.41153 38.27086 32.84120
# Shear Modulus (GPa) = 33.17903 39.66040 36.41972
#
# Velocity S-wave (km/s) = 3.92778 4.29432 4.11513
# Velocity P-wave (km/s) = 5.77197 6.51024 6.15219
#
# Compressibility (1/GPa) = 0.03648099
#
# Stress axis : x y z
#
# Youngs Moduli (GPa) = 57.91794 67.83157 113.11610
#
# Poissons Ratio (x) = -0.17071 0.33738
# Poissons Ratio (y) = -0.14576 0.19433
# Poissons Ratio (z) = 0.17275 0.11653
#
# Static dielectric constant tensor:
#      x y z
#    x 1.827160 0.000000 -0.000410 
#    y 0.000000 1.872040 0.000000 
#    z -0.000410 0.000000 1.766940 
# 
# From -- ./inp_files/113796.got.cif
#   From: 2010.05.17/outbox.cif.g08.bks.cpg/sg15_57_cif.got.tgz:113796.got - 2010.06.03 18:47:42.
