data_PCOD9292298
_publ_section_title
;
Structure prediction by ZEFSAII (Michael W. Deem and Ramdas Pophale) SiO2 
 PCOD9292298
Probable space group: C 2/C
;
_chemical_formula_sum "Si O2"
_cell_formula_units_Z 40
_cell_length_a 9.144448
_cell_length_b 23.728288
_cell_length_c 16.363254
_cell_angle_alpha 90.000000
_cell_angle_beta 30.022068
_cell_angle_gamma 90.000000
_cell_volume 1776.450749
_symmetry_space_group_name_H-M "C 2/C"
_symmetry_group_IT_number 15
_symmetry_cell_setting 'monoclinic'
loop_
_space_group_symop_operation_xyz
x,y,z
-x,y,1/2-z
-x,-y,-z
x,-y,1/2+z
1/2+x,1/2+y,z
1/2-x,1/2+y,1/2-z
1/2-x,1/2-y,-z
1/2+x,1/2-y,1/2+z
loop_
_atom_site_type_symbol
_atom_site_label
_atom_site_fract_x
_atom_site_fract_y
_atom_site_fract_z
Si Si1 0.274767 0.593617 0.480569
Si Si2 0.927860 0.727166 0.151356
Si Si3 0.122004 0.786651 0.488496
Si Si4 0.777460 0.518968 0.420440
Si Si5 0.071103 0.597200 0.396554
O O1 0.303706 0.648759 0.523715
O O2 0.117663 0.541949 0.600272
O O3 0.102957 0.600478 0.478837
O O4 0.609374 0.577205 0.292367
O O5 0.722035 0.726259 0.330034
O O6 0.951890 0.661820 0.117331
O O7 0.250000 0.750000 0.000000
O O8 0.793657 0.764069 0.141320
O O9 0.250000 0.750000 0.500000
O O10 0.500000 0.500000 0.500000
O O11 0.000000 0.547426 0.250000
O O12 0.810078 0.559636 0.483872
#
# Coordination Sequence:
#
# PCOD9292298 Si02
#       5
#     8   8   8   8   8
#     4  10  22  43  69  92 129 178 220 269 329 401
#     4  11  24  40  67  99 137 176 215 273 332 401
#     4  11  22  43  68  99 131 174 224 268 334 395
#     4  12  25  43  66  99 129 168 222 278 331 391
#     4  10  22  44  67  91 132 180 217 262 340 400
#
# _framework density 22.516808999999999
#
# number of rings (size 3 to 8) (size 9 to 14) (size 15 to 20)
#    0.000    1.200    4.000    1.800    2.800    1.600 
#    0.000    0.000    0.000    0.000    0.000    0.000 
#    0.000    0.000    0.000    0.000    0.000    0.000 
#
# Total GULP energy -111494.608458 kJ/mol
# GULP energy per Si atom -5574.730423 kJ/mol
# Density = 2.246556 g / cm^3
# Si number density = 22.516809 Si / 1000 Ang^3
#
#
#
# Elastic Constant Matrix: (Units=GPa)
#
#
# Indices 1 2 3 4 5 6 
#
# 1 102.6072 32.1117 37.4027 0.0695 -15.6556 0.0882
# 2 32.1117 85.1611 3.7679 0.0704 14.1809 0.0774
# 3 37.4027 3.7679 39.5857 -0.1500 4.3903 -0.1411
# 4 0.0695 0.0704 -0.1500 58.4506 -0.0341 45.7408
# 5 -15.6556 14.1809 4.3903 -0.0341 40.7951 -0.0450
# 6 0.0882 0.0774 -0.1411 45.7408 -0.0450 111.7731
#
#
#
# Elastic Compliance Matrix: (Units=1/GPa)
#
#
# Indices 1 2 3 4 5 6 
#
# 1 0.023827 -0.010504 -0.023210 -0.000058 0.015293 -0.000011
# 2 -0.010504 0.017115 0.009516 0.000010 -0.011004 0.000000
# 3 -0.023210 0.009516 0.048216 0.000115 -0.017404 0.000018
# 4 -0.000058 0.000010 0.000115 0.025169 -0.000028 -0.010300
# 5 0.015293 -0.011004 -0.017404 -0.000028 0.036080 0.000000
# 6 -0.000011 0.000000 0.000018 -0.010300 0.000000 0.013162
#
#
# Mechanical properties :
#
#
# Convention : Reuss Voigt Hill
#
# Bulk Modulus (GPa) = 24.53202 41.54650 33.03926
# Shear Modulus (GPa) = 22.16796 52.47521 37.32159
#
# Velocity S-wave (km/s) = 3.14109 4.83275 4.07566
# Velocity P-wave (km/s) = 4.90652 7.04500 6.07066
#
# Compressibility (1/GPa) = 0.04076305
#
# Stress axis : x y z
#
# Youngs Moduli (GPa) = 41.96903 58.42958 20.73993
#
# Poissons Ratio (x) = 0.61375 0.48137
# Poissons Ratio (y) = 0.44085 -0.19737
# Poissons Ratio (z) = 0.97409 -0.55603
#
# Static dielectric constant tensor:
#      x y z
#    x 1.908580 -0.000760 -0.038960 
#    y -0.000760 2.214780 -0.000340 
#    z -0.038960 -0.000340 1.967600 
# 
# From -- ./inp_files/23390.got.cif
#   From: 2010.05.17/outbox.cif.g08.bks.cpg/sg15_12_cif.got.tgz:23390.got - 2010.06.03 18:47:42.
