data_PCOD9292025
_publ_section_title
;
Structure prediction by ZEFSAII (Michael W. Deem and Ramdas Pophale) SiO2 
 PCOD9292025
Probable space group: C 2/C
;
_chemical_formula_sum "Si O2"
_cell_formula_units_Z 52
_cell_length_a 26.486288
_cell_length_b 11.009793
_cell_length_c 9.347159
_cell_angle_alpha 90.000000
_cell_angle_beta 82.503805
_cell_angle_gamma 90.000000
_cell_volume 2702.416248
_symmetry_space_group_name_H-M "C 2/C"
_symmetry_group_IT_number 15
_symmetry_cell_setting 'monoclinic'
loop_
_space_group_symop_operation_xyz
x,y,z
-x,y,1/2-z
-x,-y,-z
x,-y,1/2+z
1/2+x,1/2+y,z
1/2-x,1/2+y,1/2-z
1/2-x,1/2-y,-z
1/2+x,1/2-y,1/2+z
loop_
_atom_site_type_symbol
_atom_site_label
_atom_site_fract_x
_atom_site_fract_y
_atom_site_fract_z
Si Si1 0.271455 0.900967 0.345687
Si Si2 0.772400 0.124701 0.319214
Si Si3 0.500000 0.720840 0.750000
Si Si4 0.607288 0.631192 0.265304
Si Si5 0.945894 0.025747 0.946198
Si Si6 0.952204 0.419203 0.567188
Si Si7 0.106790 0.400574 0.205850
O O1 0.248945 0.896243 0.513688
O O2 0.259892 0.766131 0.283956
O O3 0.332552 0.914445 0.328362
O O4 0.249436 0.017259 0.271104
O O5 0.833530 0.116155 0.293872
O O6 0.543251 0.637449 0.663768
O O7 0.474986 0.802100 0.636389
O O8 0.592765 0.559920 0.414031
O O9 0.596245 0.773395 0.289047
O O10 0.574049 0.582031 0.145630
O O11 0.000000 0.000000 0.000000
O O12 0.918058 0.393252 0.441518
O O13 0.919143 0.492560 0.695344
O O14 0.000000 0.500000 0.500000
#
# Coordination Sequence:
#
# PCOD9292025 Si02
#       7
#     8   8   4   8   8   8   8
#     4  10  22  43  66  94 126 162 209 262 317 375
#     4  10  22  43  65  93 126 161 210 261 317 374
#     4  12  24  40  62  92 128 164 210 254 304 364
#     4  11  24  41  65  90 125 167 206 256 312 369
#     4  12  23  42  62  92 126 165 209 253 307 367
#     4  12  23  42  62  92 127 167 209 253 307 368
#     4  11  24  41  65  91 125 168 206 256 312 370
#
# _framework density 19.242038999999998
#
# number of rings (size 3 to 8) (size 9 to 14) (size 15 to 20)
#    0.000    0.923    3.077    3.692    0.000    1.846 
#    2.769    0.000    0.000    0.000    0.000    0.000 
#    0.000    0.000    0.000    0.000    0.000    0.000 
#
# Total GULP energy -145335.254967 kJ/mol
# GULP energy per Si atom -5589.817499 kJ/mol
# Density = 1.919824 g / cm^3
# Si number density = 19.242039 Si / 1000 Ang^3
#
#
#
# Elastic Constant Matrix: (Units=GPa)
#
#
# Indices 1 2 3 4 5 6 
#
# 1 71.3911 35.1468 5.8855 0.0000 -0.3098 0.0000
# 2 35.1468 83.6732 5.8359 0.0000 4.4218 0.0000
# 3 5.8855 5.8359 60.4911 0.0000 -11.4302 0.0000
# 4 0.0000 0.0000 0.0000 47.6561 0.0000 7.1670
# 5 -0.3098 4.4218 -11.4302 0.0000 37.7923 0.0000
# 6 0.0000 0.0000 0.0000 7.1670 0.0000 35.0964
#
#
#
# Elastic Compliance Matrix: (Units=1/GPa)
#
#
# Indices 1 2 3 4 5 6 
#
# 1 0.017741 -0.007431 -0.000867 0.000000 0.000753 0.000000
# 2 -0.007431 0.015270 -0.001166 0.000000 -0.002200 0.000000
# 3 -0.000867 -0.001166 0.017768 0.000000 0.005503 0.000000
# 4 0.000000 0.000000 0.000000 0.021649 0.000000 -0.004421
# 5 0.000753 -0.002200 0.005503 0.000000 0.028388 0.000000
# 6 0.000000 0.000000 0.000000 -0.004421 0.000000 0.029396
#
#
# Mechanical properties :
#
#
# Convention : Reuss Voigt Hill
#
# Bulk Modulus (GPa) = 31.39635 34.36574 32.88104
# Shear Modulus (GPa) = 31.29760 35.35478 33.32619
#
# Velocity S-wave (km/s) = 4.03739 4.29111 4.16618
# Velocity P-wave (km/s) = 6.17139 6.51536 6.34571
#
# Compressibility (1/GPa) = 0.03185084
#
# Stress axis : x y z
#
# Youngs Moduli (GPa) = 56.36799 65.48653 56.28076
#
# Poissons Ratio (x) = 0.48664 0.04879
# Poissons Ratio (y) = 0.41888 0.06562
# Poissons Ratio (z) = 0.04887 0.07635
#
# Static dielectric constant tensor:
#      x y z
#    x 1.635180 0.000000 0.000230 
#    y 0.000000 1.692520 0.000000 
#    z 0.000230 0.000000 1.619290 
# 
# From -- ./inp_files/65064.got.cif
#   From: 2010.05.17/outbox.cif.g08.bks.cpg/sg15_33_cif.got.tgz:65064.got - 2010.06.03 18:47:42.
