data_PCOD9292041
_publ_section_title
;
Structure prediction by ZEFSAII (Michael W. Deem and Ramdas Pophale) SiO2 
 PCOD9292041
Probable space group: C 2/C
;
_chemical_formula_sum "Si O2"
_cell_formula_units_Z 48
_cell_length_a 10.349298
_cell_length_b 17.374917
_cell_length_c 12.717262
_cell_angle_alpha 90.000000
_cell_angle_beta 101.214454
_cell_angle_gamma 90.000000
_cell_volume 2243.131302
_symmetry_space_group_name_H-M "C 2/C"
_symmetry_group_IT_number 15
_symmetry_cell_setting 'monoclinic'
loop_
_space_group_symop_operation_xyz
x,y,z
-x,y,1/2-z
-x,-y,-z
x,-y,1/2+z
1/2+x,1/2+y,z
1/2-x,1/2+y,1/2-z
1/2-x,1/2-y,-z
1/2+x,1/2-y,1/2+z
loop_
_atom_site_type_symbol
_atom_site_label
_atom_site_fract_x
_atom_site_fract_y
_atom_site_fract_z
Si Si1 0.842387 0.861594 0.741975
Si Si2 0.513911 0.890751 0.109441
Si Si3 0.794628 0.315179 0.223701
Si Si4 0.451682 0.581027 0.856247
Si Si5 0.180214 0.063152 0.046552
Si Si6 0.851738 0.466305 0.915516
O O1 0.801030 0.775218 0.706296
O O2 0.796733 0.878724 0.854183
O O3 0.767813 0.922932 0.657534
O O4 0.000000 0.867308 0.750000
O O5 0.394570 0.858123 0.159922
O O6 0.638140 0.835446 0.152705
O O7 0.568874 0.975818 0.147035
O O8 0.448230 0.905097 0.985671
O O9 0.652296 0.351371 0.181888
O O10 0.575107 0.600152 0.949678
O O11 0.381871 0.510585 0.903749
O O12 0.000000 0.054830 0.750000
O O13 0.294354 0.024638 0.995025
#
# Coordination Sequence:
#
# PCOD9292041 Si02
#       6
#     8   8   8   8   8   8
#     4  12  25  41  68 102 136 178 228 276 339 401
#     4  10  22  43  65  95 133 182 216 273 336 400
#     4  11  23  43  66  95 142 178 215 277 346 406
#     4  11  22  41  68  95 133 177 223 280 337 391
#     4  11  22  40  67 100 127 170 231 283 319 399
#     4  11  24  42  71 100 129 177 235 277 323 402
#
# _framework density 21.398658999999999
#
# number of rings (size 3 to 8) (size 9 to 14) (size 15 to 20)
#    0.000    1.000    3.333    5.500    2.333    2.000 
#    0.000    6.667    0.000    0.000    0.000    0.000 
#    0.000    0.000    0.000    0.000    0.000    0.000 
#
# Total GULP energy -134024.187046 kJ/mol
# GULP energy per Si atom -5584.341127 kJ/mol
# Density = 2.134995 g / cm^3
# Si number density = 21.398659 Si / 1000 Ang^3
#
#
#
# Elastic Constant Matrix: (Units=GPa)
#
#
# Indices 1 2 3 4 5 6 
#
# 1 95.6894 45.1139 61.5479 0.0000 12.6797 0.0000
# 2 45.1139 98.2164 39.8612 0.0000 2.2626 0.0000
# 3 61.5479 39.8612 92.9692 0.0000 2.9385 0.0000
# 4 0.0000 0.0000 0.0000 -1.8486 0.0000 -6.8731
# 5 12.6797 2.2626 2.9385 0.0000 42.5419 0.0000
# 6 0.0000 0.0000 0.0000 -6.8731 0.0000 24.4463
#
#
#
# Elastic Compliance Matrix: (Units=1/GPa)
#
#
# Indices 1 2 3 4 5 6 
#
# 1 0.020824 -0.004743 -0.011590 0.000000 -0.005154 0.000000
# 2 -0.004743 0.013410 -0.002638 0.000000 0.000883 0.000000
# 3 -0.011590 -0.002638 0.019489 0.000000 0.002248 0.000000
# 4 0.000000 0.000000 0.000000 -0.264481 0.000000 -0.074359
# 5 -0.005154 0.000883 0.002248 0.000000 0.024840 0.000000
# 6 0.000000 0.000000 0.000000 -0.074359 0.000000 0.020000
#
#
# Mechanical properties :
#
#
# Convention : Reuss Voigt Hill
#
# Bulk Modulus (GPa) = 63.36055 64.43566 63.89810
# Shear Modulus (GPa) = -40.74430 22.38469 -9.17980
#
# Velocity S-wave (km/s) = -4.36829 3.23782 -2.07345
# Velocity P-wave (km/s) = 2.05701 6.64495 4.91867
#
# Compressibility (1/GPa) = 0.01578269
#
# Stress axis : x y z
#
# Youngs Moduli (GPa) = 48.02182 74.56944 51.31159
#
# Poissons Ratio (x) = 0.35366 0.59468
# Poissons Ratio (y) = 0.22775 0.13535
# Poissons Ratio (z) = 0.55655 0.19671
#
# Static dielectric constant tensor:
#      x y z
#    x 1.829060 0.000000 -0.019020 
#    y 0.000000 1.744400 0.000000 
#    z -0.019020 0.000000 1.854270 
# 
# From -- ./inp_files/143828.got.cif
#   From: 2010.05.17/outbox.cif.g08.bks.cpg/sg15_72_cif.got.tgz:143828.got - 2010.06.03 18:47:42.
