data_PCOD9292925
_publ_section_title
;
Structure prediction by ZEFSAII (Michael W. Deem and Ramdas Pophale) SiO2 
 PCOD9292925
Probable space group: C 2/C
;
_chemical_formula_sum "Si O2"
_cell_formula_units_Z 32
_cell_length_a 14.336222
_cell_length_b 18.228389
_cell_length_c 7.348183
_cell_angle_alpha 90.000000
_cell_angle_beta 141.814431
_cell_angle_gamma 90.000000
_cell_volume 1187.132804
_symmetry_space_group_name_H-M "C 2/C"
_symmetry_group_IT_number 15
_symmetry_cell_setting 'monoclinic'
loop_
_space_group_symop_operation_xyz
x,y,z
-x,y,1/2-z
-x,-y,-z
x,-y,1/2+z
1/2+x,1/2+y,z
1/2-x,1/2+y,1/2-z
1/2-x,1/2-y,-z
1/2+x,1/2-y,1/2+z
loop_
_atom_site_type_symbol
_atom_site_label
_atom_site_fract_x
_atom_site_fract_y
_atom_site_fract_z
Si Si1 0.108270 0.302953 0.743432
Si Si2 0.167746 0.407844 0.426882
Si Si3 0.533789 0.333801 0.519266
Si Si4 0.247957 0.072462 0.851905
O O1 0.000000 0.305917 0.750000
O O2 0.011711 0.246473 0.473613
O O3 0.250000 0.250000 0.000000
O O4 0.178655 0.384295 0.863855
O O5 0.291360 0.348528 0.676380
O O6 0.233713 0.486820 0.586498
O O7 0.167794 0.409199 0.207740
O O8 0.000000 0.397283 0.250000
O O9 0.421503 0.395842 0.427454
O O10 0.500000 0.339237 0.250000
#
# Coordination Sequence:
#
# PCOD9292925 Si02
#       4
#     8   8   8   8
#     4   9  20  39  66  94 130 177 225 276 341 408
#     4  12  25  41  68 108 143 180 234 295 352 415
#     4  10  22  44  70 100 137 185 234 286 349 420
#     4  11  23  42  68 102 142 186 232 289 350 417
#
# _framework density 26.955701000000001
#
# number of rings (size 3 to 8) (size 9 to 14) (size 15 to 20)
#    0.000    1.500    0.000    4.500    0.000    6.000 
#    0.000    5.000    0.000   12.000    0.000    1.750 
#    0.000    0.000    0.000    0.000    0.000    0.000 
#
# Total GULP energy -89440.852245 kJ/mol
# GULP energy per Si atom -5590.053265 kJ/mol
# Density = 2.689435 g / cm^3
# Si number density = 26.955701 Si / 1000 Ang^3
#
#
#
# Elastic Constant Matrix: (Units=GPa)
#
#
# Indices 1 2 3 4 5 6 
#
# 1 147.5935 10.3541 45.8678 0.0000 10.0486 0.0000
# 2 10.3541 142.5719 57.6639 0.0000 2.9005 0.0000
# 3 45.8678 57.6639 139.4553 0.0000 10.0513 0.0000
# 4 0.0000 0.0000 0.0000 170.4687 0.0000 107.2256
# 5 10.0486 2.9005 10.0513 0.0000 61.2870 0.0000
# 6 0.0000 0.0000 0.0000 107.2256 0.0000 81.9696
#
#
#
# Elastic Compliance Matrix: (Units=1/GPa)
#
#
# Indices 1 2 3 4 5 6 
#
# 1 0.007625 0.000544 -0.002672 0.000000 -0.000838 0.000000
# 2 0.000544 0.008463 -0.003687 0.000000 0.000115 0.000000
# 3 -0.002672 -0.003687 0.009644 0.000000 -0.000969 0.000000
# 4 0.000000 0.000000 0.000000 0.033107 0.000000 -0.043307
# 5 -0.000838 0.000115 -0.000969 0.000000 0.016607 0.000000
# 6 0.000000 0.000000 0.000000 -0.043307 0.000000 0.068850
#
#
# Mechanical properties :
#
#
# Convention : Reuss Voigt Hill
#
# Bulk Modulus (GPa) = 70.91217 73.04359 71.97788
# Shear Modulus (GPa) = 31.12792 83.79406 57.46099
#
# Velocity S-wave (km/s) = 3.40189 5.58152 4.62202
# Velocity P-wave (km/s) = 6.46487 8.28820 7.43266
#
# Compressibility (1/GPa) = 0.01410195
#
# Stress axis : x y z
#
# Youngs Moduli (GPa) = 131.15191 118.15738 103.69073
#
# Poissons Ratio (x) = -0.06430 0.27711
# Poissons Ratio (y) = -0.07137 0.38229
# Poissons Ratio (z) = 0.35050 0.43562
#
# Static dielectric constant tensor:
#      x y z
#    x 2.186450 0.000000 -0.117740 
#    y 0.000000 2.134960 0.000000 
#    z -0.117740 0.000000 2.784160 
# 
# From -- ./inp_files/50504.got.cif
#   From: 2010.05.17/outbox.cif.g08.bks.cpg/sg15_26_cif.got.tgz:50504.got - 2010.06.03 18:47:42.
