data_PCOD9292325
_publ_section_title
;
Structure prediction by ZEFSAII (Michael W. Deem and Ramdas Pophale) SiO2 
 PCOD9292325
Probable space group: C 2/C
;
_chemical_formula_sum "Si O2"
_cell_formula_units_Z 40
_cell_length_a 11.493438
_cell_length_b 7.843787
_cell_length_c 17.712094
_cell_angle_alpha 90.000000
_cell_angle_beta 77.399469
_cell_angle_gamma 90.000000
_cell_volume 1558.323196
_symmetry_space_group_name_H-M "C 2/C"
_symmetry_group_IT_number 15
_symmetry_cell_setting 'monoclinic'
loop_
_space_group_symop_operation_xyz
x,y,z
-x,y,1/2-z
-x,-y,-z
x,-y,1/2+z
1/2+x,1/2+y,z
1/2-x,1/2+y,1/2-z
1/2-x,1/2-y,-z
1/2+x,1/2-y,1/2+z
loop_
_atom_site_type_symbol
_atom_site_label
_atom_site_fract_x
_atom_site_fract_y
_atom_site_fract_z
Si Si1 0.749006 0.698577 0.312539
Si Si2 0.131049 0.329163 0.552931
Si Si3 0.256310 0.327310 0.154640
Si Si4 0.004034 0.217210 0.169684
Si Si5 0.099805 0.726610 0.506888
O O1 0.847790 0.718856 0.362252
O O2 0.694005 0.512716 0.336262
O O3 0.791940 0.712112 0.220676
O O4 0.623054 0.801159 0.335176
O O5 0.250000 0.250000 0.500000
O O6 0.117651 0.530812 0.533373
O O7 0.013984 0.256380 0.531828
O O8 0.112330 0.342362 0.179246
O O9 0.295870 0.267385 0.066997
O O10 0.000000 0.112909 0.250000
O O11 0.063199 0.153948 0.083286
#
# Coordination Sequence:
#
# PCOD9292325 Si02
#       5
#     8   8   8   8   8
#     4  11  25  46  69 101 140 186 225 292 350 411
#     4  11  24  42  68 101 141 179 233 288 346 419
#     4  11  26  45  70 101 139 181 235 286 346 420
#     4  10  22  43  69  97 138 179 223 287 348 406
#     4  11  24  43  70 102 133 185 231 283 349 412
#
# _framework density 25.668617999999999
#
# number of rings (size 3 to 8) (size 9 to 14) (size 15 to 20)
#    0.000    1.200    4.000    0.600    2.800    4.800 
#    7.200    0.000    0.000    0.000    0.000    0.000 
#    0.000    0.000    0.000    0.000    0.000    0.000 
#
# Total GULP energy -111397.254679 kJ/mol
# GULP energy per Si atom -5569.862734 kJ/mol
# Density = 2.561019 g / cm^3
# Si number density = 25.668618 Si / 1000 Ang^3
#
#
#
# Elastic Constant Matrix: (Units=GPa)
#
#
# Indices 1 2 3 4 5 6 
#
# 1 123.1979 6.8557 36.1248 0.0000 23.5011 0.0000
# 2 6.8557 42.5341 32.9810 0.0000 0.4769 0.0000
# 3 36.1248 32.9810 251.0080 0.0000 17.3102 0.0000
# 4 0.0000 0.0000 0.0000 28.7062 0.0000 3.7987
# 5 23.5011 0.4769 17.3102 0.0000 47.4011 0.0000
# 6 0.0000 0.0000 0.0000 3.7987 0.0000 18.7798
#
#
#
# Elastic Compliance Matrix: (Units=1/GPa)
#
#
# Indices 1 2 3 4 5 6 
#
# 1 0.009240 -0.000709 -0.000945 0.000000 -0.004229 0.000000
# 2 -0.000709 0.026280 -0.003444 0.000000 0.001345 0.000000
# 3 -0.000945 -0.003444 0.004655 0.000000 -0.001197 0.000000
# 4 0.000000 0.000000 0.000000 0.035794 0.000000 -0.007240
# 5 -0.004229 0.001345 -0.001197 0.000000 0.023617 0.000000
# 6 0.000000 0.000000 0.000000 -0.007240 0.000000 0.054713
#
#
# Mechanical properties :
#
#
# Convention : Reuss Voigt Hill
#
# Bulk Modulus (GPa) = 33.35613 63.18477 48.27045
# Shear Modulus (GPa) = 28.65522 41.69598 35.17560
#
# Velocity S-wave (km/s) = 3.34481 4.03475 3.70587
# Velocity P-wave (km/s) = 5.28584 6.80989 6.09569
#
# Compressibility (1/GPa) = 0.02997950
#
# Stress axis : x y z
#
# Youngs Moduli (GPa) = 108.22140 38.05166 214.82465
#
# Poissons Ratio (x) = 0.02698 0.20302
# Poissons Ratio (y) = 0.07675 0.73980
# Poissons Ratio (z) = 0.10227 0.13104
#
# Static dielectric constant tensor:
#      x y z
#    x 2.145800 0.000000 0.000860 
#    y 0.000000 2.000030 0.000000 
#    z 0.000860 0.000000 2.115410 
# 
# From -- ./inp_files/195185.got.cif
#   From: 2010.05.17/outbox.cif.g08.bks.cpg/sg15_98_cif.got.tgz:195185.got - 2010.06.03 18:47:42.
