data_PCOD9292290
_publ_section_title
;
Structure prediction by ZEFSAII (Michael W. Deem and Ramdas Pophale) SiO2 
 PCOD9292290
Probable space group: C 2/C
;
_chemical_formula_sum "Si O2"
_cell_formula_units_Z 44
_cell_length_a 13.981074
_cell_length_b 8.485125
_cell_length_c 19.660839
_cell_angle_alpha 90.000000
_cell_angle_beta 131.785418
_cell_angle_gamma 90.000000
_cell_volume 1739.134984
_symmetry_space_group_name_H-M "C 2/C"
_symmetry_group_IT_number 15
_symmetry_cell_setting 'monoclinic'
loop_
_space_group_symop_operation_xyz
x,y,z
-x,y,1/2-z
-x,-y,-z
x,-y,1/2+z
1/2+x,1/2+y,z
1/2-x,1/2+y,1/2-z
1/2-x,1/2-y,-z
1/2+x,1/2-y,1/2+z
loop_
_atom_site_type_symbol
_atom_site_label
_atom_site_fract_x
_atom_site_fract_y
_atom_site_fract_z
Si Si1 0.097675 0.922693 0.950869
Si Si2 0.764402 0.181202 0.203953
Si Si3 0.015218 0.760722 0.466308
Si Si4 0.245523 0.831278 0.338347
Si Si5 0.623765 0.146394 0.871932
Si Si6 0.000000 0.624417 0.250000
O O1 0.064009 0.804753 0.874336
O O2 0.039190 0.846687 0.991508
O O3 0.251912 0.910837 0.027835
O O4 0.055863 0.103257 0.932395
O O5 0.792489 0.242018 0.292537
O O6 0.820389 0.302267 0.174945
O O7 0.803258 0.003567 0.205381
O O8 0.609273 0.175608 0.121593
O O9 0.139958 0.667362 0.551901
O O10 0.126126 0.727960 0.305934
O O11 0.528042 0.000586 0.823402
#
# Coordination Sequence:
#
# PCOD9292290 Si02
#       6
#     8   8   8   8   8   4
#     4   9  20  40  75 102 142 181 239 284 353 424
#     4  11  27  46  74 102 143 191 239 295 362 423
#     4  10  22  45  74 106 141 190 236 301 352 426
#     4  12  27  48  69 108 143 187 243 298 356 434
#     4  10  22  43  69 108 139 189 226 291 357 423
#     4  12  26  44  70 106 148 182 238 302 352 424
#
# _framework density 25.299934
#
# number of rings (size 3 to 8) (size 9 to 14) (size 15 to 20)
#    0.000    1.455    1.818    1.636   10.182    2.182 
#    3.273    1.818    0.000    0.000    0.000    0.000 
#    0.000    0.000    0.000    0.000    0.000    0.000 
#
# Total GULP energy -123247.690805 kJ/mol
# GULP energy per Si atom -5602.167764 kJ/mol
# Density = 2.524235 g / cm^3
# Si number density = 25.299934 Si / 1000 Ang^3
#
#
#
# Elastic Constant Matrix: (Units=GPa)
#
#
# Indices 1 2 3 4 5 6 
#
# 1 87.1717 28.9831 26.0409 0.0000 2.5172 0.0000
# 2 28.9831 124.4754 22.3792 0.0000 5.8360 0.0000
# 3 26.0409 22.3792 103.8662 0.0000 18.1136 0.0000
# 4 0.0000 0.0000 0.0000 20.1791 0.0000 -9.5697
# 5 2.5172 5.8360 18.1136 0.0000 28.4129 0.0000
# 6 0.0000 0.0000 0.0000 -9.5697 0.0000 41.9201
#
#
#
# Elastic Compliance Matrix: (Units=1/GPa)
#
#
# Indices 1 2 3 4 5 6 
#
# 1 0.013184 -0.002596 -0.002965 0.000000 0.001255 0.000000
# 2 -0.002596 0.008879 -0.001107 0.000000 -0.000888 0.000000
# 3 -0.002965 -0.001107 0.011841 0.000000 -0.007058 0.000000
# 4 0.000000 0.000000 0.000000 0.055573 0.000000 0.012686
# 5 0.001255 -0.000888 -0.007058 0.000000 0.039766 0.000000
# 6 0.000000 0.000000 0.000000 0.012686 0.000000 0.026751
#
#
# Mechanical properties :
#
#
# Convention : Reuss Voigt Hill
#
# Bulk Modulus (GPa) = 48.62093 52.25773 50.43933
# Shear Modulus (GPa) = 28.37912 33.97642 31.17777
#
# Velocity S-wave (km/s) = 3.35282 3.66860 3.51426
# Velocity P-wave (km/s) = 5.85219 6.21650 6.03709
#
# Compressibility (1/GPa) = 0.02056727
#
# Stress axis : x y z
#
# Youngs Moduli (GPa) = 75.84882 112.62777 84.45404
#
# Poissons Ratio (x) = 0.29233 0.25042
# Poissons Ratio (y) = 0.19687 0.09353
# Poissons Ratio (z) = 0.22490 0.12473
#
# Static dielectric constant tensor:
#      x y z
#    x 1.987160 0.000000 0.001670 
#    y 0.000000 1.926920 0.000000 
#    z 0.001670 0.000000 2.056670 
# 
# From -- ./inp_files/272934.got.cif
#   From: 2010.05.17/outbox.cif.g08.bks.cpg/sg15_137_cif.got.tgz:272934.got - 2010.06.03 18:47:42.
