data_PCOD9292220
_publ_section_title
;
Structure prediction by ZEFSAII (Michael W. Deem and Ramdas Pophale) SiO2 
 PCOD9292220
Probable space group: C 2/C
;
_chemical_formula_sum "Si O2"
_cell_formula_units_Z 52
_cell_length_a 17.903857
_cell_length_b 14.268036
_cell_length_c 11.395738
_cell_angle_alpha 90.000000
_cell_angle_beta 128.104367
_cell_angle_gamma 90.000000
_cell_volume 2290.689207
_symmetry_space_group_name_H-M "C 2/C"
_symmetry_group_IT_number 15
_symmetry_cell_setting 'monoclinic'
loop_
_space_group_symop_operation_xyz
x,y,z
-x,y,1/2-z
-x,-y,-z
x,-y,1/2+z
1/2+x,1/2+y,z
1/2-x,1/2+y,1/2-z
1/2-x,1/2-y,-z
1/2+x,1/2-y,1/2+z
loop_
_atom_site_type_symbol
_atom_site_label
_atom_site_fract_x
_atom_site_fract_y
_atom_site_fract_z
Si Si1 0.000000 0.329305 0.250000
Si Si2 0.019318 0.253167 0.631838
Si Si3 0.423833 0.080632 0.905572
Si Si4 0.845741 0.194367 0.063339
Si Si5 0.106220 0.133766 0.134646
Si Si6 0.230154 0.683993 0.369487
Si Si7 0.775646 0.982554 0.351757
O O1 0.938926 0.385647 0.285762
O O2 0.075091 0.269100 0.398965
O O3 0.952658 0.337406 0.522054
O O4 0.126960 0.287413 0.724414
O O5 0.000000 0.234212 0.750000
O O6 0.987426 0.163851 0.525074
O O7 0.316421 0.045784 0.812380
O O8 0.500000 0.000000 0.000000
O O9 0.892361 0.155764 0.228284
O O10 0.750000 0.250000 0.000000
O O11 0.816446 0.107083 0.956475
O O12 0.141480 0.029345 0.144333
O O13 0.191269 0.195016 0.156277
O O14 0.250000 0.750000 0.500000
O O15 0.240601 0.570950 0.399963
#
# Coordination Sequence:
#
# PCOD9292220 Si02
#       7
#     4   8   8   8   8   8   8
#     4  12  28  46  72 108 148 192 248 300 378 424
#     4  12  22  41  71 101 142 181 232 301 365 430
#     4  12  25  43  71 109 141 188 243 306 362 427
#     4  12  25  48  72 102 150 191 242 303 366 440
#     4  10  24  45  67 104 142 185 239 292 366 428
#     4  10  22  43  68 101 139 184 239 296 360 425
#     4  10  24  46  67 101 144 191 240 295 355 437
#
# _framework density 22.700589999999998
#
# number of rings (size 3 to 8) (size 9 to 14) (size 15 to 20)
#    0.923    0.000    6.154    0.000    5.385    1.231 
#    6.923    2.308    0.000    0.000    0.000    0.000 
#    0.000    0.000    0.000    0.000    0.000    0.000 
#
# Total GULP energy -145353.558972 kJ/mol
# GULP energy per Si atom -5590.521499 kJ/mol
# Density = 2.264892 g / cm^3
# Si number density = 22.700590 Si / 1000 Ang^3
#
#
#
# Elastic Constant Matrix: (Units=GPa)
#
#
# Indices 1 2 3 4 5 6 
#
# 1 43.5881 15.7862 0.1519 0.0000 13.6722 0.0000
# 2 15.7862 95.4120 49.2902 0.0000 24.5222 0.0000
# 3 0.1519 49.2902 104.7607 0.0000 5.4188 0.0000
# 4 0.0000 0.0000 0.0000 44.5762 0.0000 4.0887
# 5 13.6722 24.5222 5.4188 0.0000 38.0721 0.0000
# 6 0.0000 0.0000 0.0000 4.0887 0.0000 34.3574
#
#
#
# Elastic Compliance Matrix: (Units=1/GPa)
#
#
# Indices 1 2 3 4 5 6 
#
# 1 0.026573 -0.003473 0.001988 0.000000 -0.007589 0.000000
# 2 -0.003473 0.017276 -0.007669 0.000000 -0.008789 0.000000
# 3 0.001988 -0.007669 0.013028 0.000000 0.002371 0.000000
# 4 0.000000 0.000000 0.000000 0.022681 0.000000 -0.002699
# 5 -0.007589 -0.008789 0.002371 0.000000 0.034314 0.000000
# 6 0.000000 0.000000 0.000000 -0.002699 0.000000 0.029427
#
#
# Mechanical properties :
#
#
# Convention : Reuss Voigt Hill
#
# Bulk Modulus (GPa) = 25.92703 41.57970 33.75337
# Shear Modulus (GPa) = 28.65909 35.30330 31.98120
#
# Velocity S-wave (km/s) = 3.55700 3.94784 3.75751
# Velocity P-wave (km/s) = 5.32125 6.25595 5.80744
#
# Compressibility (1/GPa) = 0.03856979
#
# Stress axis : x y z
#
# Youngs Moduli (GPa) = 37.63162 57.88349 76.75640
#
# Poissons Ratio (x) = 0.20105 -0.15261
# Poissons Ratio (y) = 0.13071 0.58863
# Poissons Ratio (z) = -0.07482 0.44390
#
# Static dielectric constant tensor:
#      x y z
#    x 1.876940 0.000000 -0.019690 
#    y 0.000000 1.894900 0.000000 
#    z -0.019690 0.000000 1.825900 
# 
# From -- ./inp_files/112789.got.cif
#   From: 2010.05.17/outbox.cif.g08.bks.cpg/sg15_57_cif.got.tgz:112789.got - 2010.06.03 18:47:42.
