data_PCOD9292831
_publ_section_title
;
Structure prediction by ZEFSAII (Michael W. Deem and Ramdas Pophale) SiO2 
 PCOD9292831
Probable space group: C 2/C
;
_chemical_formula_sum "Si O2"
_cell_formula_units_Z 60
_cell_length_a 24.518536
_cell_length_b 13.821352
_cell_length_c 14.084113
_cell_angle_alpha 90.000000
_cell_angle_beta 35.348433
_cell_angle_gamma 90.000000
_cell_volume 2761.299048
_symmetry_space_group_name_H-M "C 2/C"
_symmetry_group_IT_number 15
_symmetry_cell_setting 'monoclinic'
loop_
_space_group_symop_operation_xyz
x,y,z
-x,y,1/2-z
-x,-y,-z
x,-y,1/2+z
1/2+x,1/2+y,z
1/2-x,1/2+y,1/2-z
1/2-x,1/2-y,-z
1/2+x,1/2-y,1/2+z
loop_
_atom_site_type_symbol
_atom_site_label
_atom_site_fract_x
_atom_site_fract_y
_atom_site_fract_z
Si Si1 0.298824 0.599147 0.282767
Si Si2 0.737280 0.202678 0.753181
Si Si3 0.267657 0.436665 0.047461
Si Si4 0.927173 0.078041 0.779259
Si Si5 0.080903 0.463091 0.773386
Si Si6 0.876467 0.474699 0.012186
Si Si7 0.339208 0.246628 0.300130
Si Si8 0.000000 0.000000 0.500000
O O1 0.311931 0.705733 0.224181
O O2 0.278599 0.602306 0.424544
O O3 0.208959 0.550417 0.358731
O O4 0.390968 0.535610 0.135987
O O5 0.789385 0.141825 0.596725
O O6 0.662511 0.129911 0.904874
O O7 0.803196 0.238473 0.744811
O O8 0.159382 0.470511 0.211570
O O9 0.334487 0.531197 0.956706
O O10 0.900561 0.159539 0.740600
O O11 0.000000 0.120812 0.750000
O O12 0.979429 0.996090 0.644708
O O13 0.102405 0.470398 0.630113
O O14 0.103042 0.352291 0.769909
O O15 0.972315 0.495220 0.933096
O O16 0.250000 0.250000 0.500000
#
# Coordination Sequence:
#
# PCOD9292831 Si02
#       8
#     8   8   8   8   8   8   8   4
#     4  10  24  47  68 100 140 179 229 282 337 408
#     4  12  25  41  73  96 137 180 229 278 340 415
#     4  10  23  47  67  96 135 183 225 280 340 406
#     4  11  26  41  71  96 140 179 219 289 344 406
#     4  10  22  44  68  95 140 169 226 283 345 405
#     4  10  23  42  70  99 132 182 220 282 346 407
#     4  12  24  41  66 107 132 174 225 284 346 414
#     4  10  24  42  68 102 134 176 224 272 344 408
#
# _framework density 21.728902999999999
#
# number of rings (size 3 to 8) (size 9 to 14) (size 15 to 20)
#    0.000    1.333    2.667    2.000   11.200    0.533 
#    0.000    0.000    5.867    0.000    0.000    0.000 
#    0.000    0.000    0.000    0.000    0.000    0.000 
#
# Total GULP energy -167265.705295 kJ/mol
# GULP energy per Si atom -5575.523510 kJ/mol
# Density = 2.167945 g / cm^3
# Si number density = 21.728903 Si / 1000 Ang^3
#
#
#
# Elastic Constant Matrix: (Units=GPa)
#
#
# Indices 1 2 3 4 5 6 
#
# 1 112.7613 15.5967 27.8874 0.0000 4.3686 0.0000
# 2 15.5967 49.0111 2.8606 0.0000 7.3607 0.0000
# 3 27.8874 2.8606 96.5483 0.0000 -4.5373 0.0000
# 4 0.0000 0.0000 0.0000 4.9768 0.0000 12.5844
# 5 4.3686 7.3607 -4.5373 0.0000 17.5278 0.0000
# 6 0.0000 0.0000 0.0000 12.5844 0.0000 35.1376
#
#
#
# Elastic Compliance Matrix: (Units=1/GPa)
#
#
# Indices 1 2 3 4 5 6 
#
# 1 0.010048 -0.002708 -0.002922 0.000000 -0.002123 0.000000
# 2 -0.002708 0.022620 -0.000306 0.000000 -0.008904 0.000000
# 3 -0.002922 -0.000306 0.011389 0.000000 0.003805 0.000000
# 4 0.000000 0.000000 0.000000 2.128943 0.000000 -0.762471
# 5 -0.002123 -0.008904 0.003805 0.000000 0.062305 0.000000
# 6 0.000000 0.000000 0.000000 -0.762471 0.000000 0.301535
#
#
# Mechanical properties :
#
#
# Convention : Reuss Voigt Hill
#
# Bulk Modulus (GPa) = 31.07042 39.00113 35.03578
# Shear Modulus (GPa) = 1.95355 25.66017 13.80686
#
# Velocity S-wave (km/s) = 0.94921 3.44018 2.52348
# Velocity P-wave (km/s) = 3.94100 5.81100 4.96484
#
# Compressibility (1/GPa) = 0.03218495
#
# Stress axis : x y z
#
# Youngs Moduli (GPa) = 99.52514 44.20793 87.80127
#
# Poissons Ratio (x) = 0.11972 0.25654
# Poissons Ratio (y) = 0.26952 0.02691
# Poissons Ratio (z) = 0.29079 0.01355
#
# Static dielectric constant tensor:
#      x y z
#    x 1.832970 0.000000 0.016980 
#    y 0.000000 1.797720 0.000000 
#    z 0.016980 0.000000 1.826830 
# 
# From -- ./inp_files/178519.got.cif
#   From: 2010.05.17/outbox.cif.g08.bks.cpg/sg15_90_cif.got.tgz:178519.got - 2010.06.03 18:47:42.
