data_PCOD9293069
_publ_section_title
;
Structure prediction by ZEFSAII (Michael W. Deem and Ramdas Pophale) SiO2 
 PCOD9293069
Probable space group: C 2/C
;
_chemical_formula_sum "Si O2"
_cell_formula_units_Z 44
_cell_length_a 7.822125
_cell_length_b 25.466042
_cell_length_c 12.322107
_cell_angle_alpha 90.000000
_cell_angle_beta 118.882099
_cell_angle_gamma 90.000000
_cell_volume 2149.238481
_symmetry_space_group_name_H-M "C 2/C"
_symmetry_group_IT_number 15
_symmetry_cell_setting 'monoclinic'
loop_
_space_group_symop_operation_xyz
x,y,z
-x,y,1/2-z
-x,-y,-z
x,-y,1/2+z
1/2+x,1/2+y,z
1/2-x,1/2+y,1/2-z
1/2-x,1/2-y,-z
1/2+x,1/2-y,1/2+z
loop_
_atom_site_type_symbol
_atom_site_label
_atom_site_fract_x
_atom_site_fract_y
_atom_site_fract_z
Si Si1 0.523037 0.092574 0.935364
Si Si2 0.289403 0.311058 0.500175
Si Si3 0.135750 0.864883 0.201740
Si Si4 0.844630 0.033137 0.884499
Si Si5 0.360923 0.941672 0.806307
Si Si6 0.500000 0.365600 0.750000
O O1 0.615563 0.150297 0.984148
O O2 0.329127 0.108974 0.812432
O O3 0.678012 0.059746 0.909658
O O4 0.511561 0.060999 0.044559
O O5 0.250000 0.250000 0.500000
O O6 0.323648 0.326806 0.385721
O O7 0.459993 0.329806 0.632893
O O8 0.034838 0.917701 0.125703
O O9 0.000000 0.839469 0.250000
O O10 0.737652 0.996320 0.763059
O O11 0.000000 0.000000 0.000000
O O12 0.500000 0.925196 0.750000
O O13 0.180752 0.903204 0.775985
#
# Coordination Sequence:
#
# PCOD9293069 Si02
#       6
#     8   8   8   8   8   4
#     4  10  24  43  60  96 133 171 229 272 333 410
#     4  10  22  44  72  90 123 175 216 280 346 398
#     4  11  25  41  64  98 134 171 222 284 330 406
#     4  11  23  38  63  93 134 182 223 262 333 395
#     4  11  23  39  65  92 135 180 221 274 329 395
#     4  10  24  42  64 102 130 166 234 266 332 408
#
# _framework density 20.472366999999998
#
# number of rings (size 3 to 8) (size 9 to 14) (size 15 to 20)
#    0.000    1.455    0.000    6.545   11.455    1.455 
#    0.000    4.545    0.000    0.000    0.000    0.000 
#    0.000    0.000    0.000    0.000    0.000    0.000 
#
# Total GULP energy -122817.193331 kJ/mol
# GULP energy per Si atom -5582.599697 kJ/mol
# Density = 2.042577 g / cm^3
# Si number density = 20.472367 Si / 1000 Ang^3
#
#
#
# Elastic Constant Matrix: (Units=GPa)
#
#
# Indices 1 2 3 4 5 6 
#
# 1 85.7276 33.4772 40.4984 0.0000 -18.9554 0.0000
# 2 33.4772 153.7593 60.9887 0.0000 -5.8966 0.0000
# 3 40.4984 60.9887 138.1274 0.0000 -17.8547 0.0000
# 4 0.0000 0.0000 0.0000 16.2832 0.0000 -4.5471
# 5 -18.9554 -5.8966 -17.8547 0.0000 39.4192 0.0000
# 6 0.0000 0.0000 0.0000 -4.5471 0.0000 11.4124
#
#
#
# Elastic Compliance Matrix: (Units=1/GPa)
#
#
# Indices 1 2 3 4 5 6 
#
# 1 0.014998 -0.001933 -0.002814 0.000000 0.005648 0.000000
# 2 -0.001933 0.008140 -0.003176 0.000000 -0.001150 0.000000
# 3 -0.002814 -0.003176 0.009805 0.000000 0.002613 0.000000
# 4 0.000000 0.000000 0.000000 0.069101 0.000000 0.027532
# 5 0.005648 -0.001150 0.002613 0.000000 0.029096 0.000000
# 6 0.000000 0.000000 0.000000 0.027532 0.000000 0.098593
#
#
# Mechanical properties :
#
#
# Convention : Reuss Voigt Hill
#
# Bulk Modulus (GPa) = 58.48866 71.94921 65.21894
# Shear Modulus (GPa) = 19.89828 29.59964 24.74896
#
# Velocity S-wave (km/s) = 3.12101 3.80654 3.48069
# Velocity P-wave (km/s) = 6.45129 7.38515 6.93396
#
# Compressibility (1/GPa) = 0.01709733
#
# Stress axis : x y z
#
# Youngs Moduli (GPa) = 66.67670 122.84687 101.98999
#
# Poissons Ratio (x) = 0.23742 0.28698
# Poissons Ratio (y) = 0.12886 0.32395
# Poissons Ratio (z) = 0.18762 0.39020
#
# Static dielectric constant tensor:
#      x y z
#    x 1.753500 0.000000 0.007050 
#    y 0.000000 1.705480 0.000000 
#    z 0.007050 0.000000 1.851700 
# 
# From -- ./inp_files/79988.got.cif
#   From: 2010.05.17/outbox.cif.g08.bks.cpg/sg15_40_cif.got.tgz:79988.got - 2010.06.03 18:47:42.
