data_PCOD9293543
_publ_section_title
;
Structure prediction by ZEFSAII (Michael W. Deem and Ramdas Pophale) SiO2 
 PCOD9293543
Probable space group: C 2/C
;
_chemical_formula_sum "Si O2"
_cell_formula_units_Z 40
_cell_length_a 17.216776
_cell_length_b 11.621893
_cell_length_c 11.222781
_cell_angle_alpha 90.000000
_cell_angle_beta 132.366531
_cell_angle_gamma 90.000000
_cell_volume 1659.147287
_symmetry_space_group_name_H-M "C 2/C"
_symmetry_group_IT_number 15
_symmetry_cell_setting 'monoclinic'
loop_
_space_group_symop_operation_xyz
x,y,z
-x,y,1/2-z
-x,-y,-z
x,-y,1/2+z
1/2+x,1/2+y,z
1/2-x,1/2+y,1/2-z
1/2-x,1/2-y,-z
1/2+x,1/2-y,1/2+z
loop_
_atom_site_type_symbol
_atom_site_label
_atom_site_fract_x
_atom_site_fract_y
_atom_site_fract_z
Si Si1 0.500000 0.000000 0.500000
Si Si2 0.873080 0.958769 0.942767
Si Si3 0.101122 0.737515 0.666220
Si Si4 0.000000 0.119375 0.250000
Si Si5 0.227803 0.143940 0.811422
Si Si6 0.341903 0.122440 0.157381
O O1 0.524508 0.130651 0.573787
O O2 0.432966 0.054999 0.316538
O O3 0.836702 0.032334 0.790471
O O4 0.922347 0.838592 0.953489
O O5 0.767067 0.927975 0.903400
O O6 0.945349 0.038267 0.097164
O O7 0.218099 0.695252 0.751483
O O8 0.085391 0.798506 0.775780
O O9 0.162505 0.242648 0.810785
O O10 0.326502 0.111583 0.999194
#
# Coordination Sequence:
#
# PCOD9293543 Si02
#       6
#     4   8   8   4   8   8
#     4  12  24  48  66 118 144 188 246 300 378 454
#     4  11  23  47  69 103 138 189 245 301 364 447
#     4  11  26  43  71 107 142 191 238 307 369 437
#     4  12  26  44  74 106 140 194 252 310 360 440
#     4  10  22  46  68 101 142 192 247 295 371 439
#     4  10  23  42  73  99 145 193 234 306 365 444
#
# _framework density 24.10877
#
# number of rings (size 3 to 8) (size 9 to 14) (size 15 to 20)
#    0.000    1.200    2.000    3.000    0.000    8.000 
#    7.200    0.000    0.000    0.000    0.000    0.000 
#    0.000    0.000    0.000    0.000    0.000    0.000 
#
# Total GULP energy -111469.498212 kJ/mol
# GULP energy per Si atom -5573.474911 kJ/mol
# Density = 2.405390 g / cm^3
# Si number density = 24.108770 Si / 1000 Ang^3
#
#
#
# Elastic Constant Matrix: (Units=GPa)
#
#
# Indices 1 2 3 4 5 6 
#
# 1 53.7967 17.2602 7.8184 0.0000 -3.8328 0.0000
# 2 17.2602 190.7854 71.2093 0.0000 1.3245 0.0000
# 3 7.8184 71.2093 119.2757 0.0000 5.3539 0.0000
# 4 0.0000 0.0000 0.0000 38.3946 0.0000 4.7427
# 5 -3.8328 1.3245 5.3539 0.0000 16.9546 0.0000
# 6 0.0000 0.0000 0.0000 4.7427 0.0000 4.2808
#
#
#
# Elastic Compliance Matrix: (Units=1/GPa)
#
#
# Indices 1 2 3 4 5 6 
#
# 1 0.019514 -0.001598 -0.000536 0.000000 0.004706 0.000000
# 2 -0.001598 0.006885 -0.004022 0.000000 0.000371 0.000000
# 3 -0.000536 -0.004022 0.010967 0.000000 -0.003270 0.000000
# 4 0.000000 0.000000 0.000000 0.030175 0.000000 -0.033431
# 5 0.004706 0.000371 -0.003270 0.000000 0.061048 0.000000
# 6 0.000000 0.000000 0.000000 -0.033431 0.000000 0.270639
#
#
# Mechanical properties :
#
#
# Convention : Reuss Voigt Hill
#
# Bulk Modulus (GPa) = 39.91488 61.82598 50.87043
# Shear Modulus (GPa) = 11.90780 29.76400 20.83590
#
# Velocity S-wave (km/s) = 2.22484 3.51746 2.94299
# Velocity P-wave (km/s) = 4.81581 6.49592 5.71791
#
# Compressibility (1/GPa) = 0.02505331
#
# Stress axis : x y z
#
# Youngs Moduli (GPa) = 51.24418 145.24885 91.18101
#
# Poissons Ratio (x) = 0.23210 0.04891
# Poissons Ratio (y) = 0.08188 0.36675
# Poissons Ratio (z) = 0.02749 0.58422
#
# Static dielectric constant tensor:
#      x y z
#    x 2.032910 0.000000 -0.026500 
#    y 0.000000 1.863010 0.000000 
#    z -0.026500 0.000000 1.886820 
# 
# From -- ./inp_files/117769.got.cif
#   From: 2010.05.17/outbox.cif.g08.bks.cpg/sg15_59_cif.got.tgz:117769.got - 2010.06.03 18:47:42.
