data_PCOD9293340
_publ_section_title
;
Structure prediction by ZEFSAII (Michael W. Deem and Ramdas Pophale) SiO2 
 PCOD9293340
Probable space group: C 2/C
;
_chemical_formula_sum "Si O2"
_cell_formula_units_Z 60
_cell_length_a 25.333361
_cell_length_b 11.435824
_cell_length_c 8.801644
_cell_angle_alpha 90.000000
_cell_angle_beta 87.517884
_cell_angle_gamma 90.000000
_cell_volume 2547.513076
_symmetry_space_group_name_H-M "C 2/C"
_symmetry_group_IT_number 15
_symmetry_cell_setting 'monoclinic'
loop_
_space_group_symop_operation_xyz
x,y,z
-x,y,1/2-z
-x,-y,-z
x,-y,1/2+z
1/2+x,1/2+y,z
1/2-x,1/2+y,1/2-z
1/2-x,1/2-y,-z
1/2+x,1/2-y,1/2+z
loop_
_atom_site_type_symbol
_atom_site_label
_atom_site_fract_x
_atom_site_fract_y
_atom_site_fract_z
Si Si1 0.897813 0.030981 0.408249
Si Si2 0.128591 0.564848 0.810766
Si Si3 0.695847 0.163302 0.337980
Si Si4 0.499805 0.265593 0.411843
Si Si5 0.000000 0.151736 0.250000
Si Si6 0.553456 0.032060 0.084261
Si Si7 0.813948 0.224454 0.328618
Si Si8 0.103640 0.167224 0.796769
O O1 0.950129 0.082400 0.322587
O O2 0.848398 0.109201 0.359668
O O3 0.897190 0.055833 0.588360
O O4 0.900660 0.894664 0.366609
O O5 0.171502 0.460671 0.789785
O O6 0.075257 0.550296 0.713853
O O7 0.154657 0.689999 0.786431
O O8 0.104713 0.543818 0.977267
O O9 0.756232 0.183566 0.284472
O O10 0.692787 0.192919 0.519717
O O11 0.657323 0.262199 0.279059
O O12 0.500000 0.342020 0.250000
O O13 0.484484 0.287507 0.589630
O O14 0.461974 0.161757 0.363915
O O15 0.563482 0.250506 0.402376
O O16 0.500000 0.000000 0.000000
#
# Coordination Sequence:
#
# PCOD9293340 Si02
#       8
#     8   8   8   8   4   8   8   8
#     4  10  23  41  64  97 129 180 226 276 350 418
#     4  12  24  45  70 104 137 183 239 292 356 436
#     4  10  22  45  70  95 138 182 226 291 358 415
#     4  11  24  40  64  95 138 179 226 288 347 424
#     4  10  24  40  64  92 136 182 224 286 348 420
#     4  12  25  40  68 102 138 182 231 284 359 433
#     4  10  23  44  71  96 137 181 229 290 356 423
#     4  10  23  41  66  94 135 174 230 281 346 419
#
# _framework density 23.552384
#
# number of rings (size 3 to 8) (size 9 to 14) (size 15 to 20)
#    0.000    1.333    1.333    3.600   10.267    1.067 
#    2.400    0.667    0.000    0.000    0.000    0.000 
#    0.000    0.000    0.000    0.000    0.000    0.000 
#
# Total GULP energy -167120.201934 kJ/mol
# GULP energy per Si atom -5570.673398 kJ/mol
# Density = 2.349878 g / cm^3
# Si number density = 23.552384 Si / 1000 Ang^3
#
#
#
# Elastic Constant Matrix: (Units=GPa)
#
#
# Indices 1 2 3 4 5 6 
#
# 1 106.1358 16.8920 2.9008 0.0000 -2.5138 0.0000
# 2 16.8920 52.5365 11.1296 0.0000 -2.9617 0.0000
# 3 2.9008 11.1296 83.6842 0.0000 0.3781 0.0000
# 4 0.0000 0.0000 0.0000 40.1353 0.0000 11.8665
# 5 -2.5138 -2.9617 0.3781 0.0000 20.4249 0.0000
# 6 0.0000 0.0000 0.0000 11.8665 0.0000 46.4604
#
#
#
# Elastic Compliance Matrix: (Units=1/GPa)
#
#
# Indices 1 2 3 4 5 6 
#
# 1 0.009942 -0.003169 0.000073 0.000000 0.000763 0.000000
# 2 -0.003169 0.020768 -0.002664 0.000000 0.002671 0.000000
# 3 0.000073 -0.002664 0.012304 0.000000 -0.000605 0.000000
# 4 0.000000 0.000000 0.000000 0.026951 0.000000 -0.006884
# 5 0.000763 0.002671 -0.000605 0.000000 0.049452 0.000000
# 6 0.000000 0.000000 0.000000 -0.006884 0.000000 0.023282
#
#
# Mechanical properties :
#
#
# Convention : Reuss Voigt Hill
#
# Bulk Modulus (GPa) = 31.75151 33.80016 32.77583
# Shear Modulus (GPa) = 30.35483 35.49974 32.92729
#
# Velocity S-wave (km/s) = 3.59391 3.88657 3.74310
# Velocity P-wave (km/s) = 5.54365 5.87561 5.71204
#
# Compressibility (1/GPa) = 0.03149456
#
# Stress axis : x y z
#
# Youngs Moduli (GPa) = 100.57975 48.15012 81.27298
#
# Poissons Ratio (x) = 0.15260 -0.00597
# Poissons Ratio (y) = 0.31877 0.21654
# Poissons Ratio (z) = -0.00738 0.12829
#
# Static dielectric constant tensor:
#      x y z
#    x 1.788230 0.000000 0.062850 
#    y 0.000000 1.997800 0.000000 
#    z 0.062850 0.000000 1.980380 
# 
# From -- ./inp_files/65499.got.cif
#   From: 2010.05.17/outbox.cif.g08.bks.cpg/sg15_33_cif.got.tgz:65499.got - 2010.06.03 18:47:42.
