data_PCOD9293191
_publ_section_title
;
Structure prediction by ZEFSAII (Michael W. Deem and Ramdas Pophale) SiO2 
 PCOD9293191
Probable space group: C 2/C
;
_chemical_formula_sum "Si O2"
_cell_formula_units_Z 60
_cell_length_a 16.996150
_cell_length_b 9.230419
_cell_length_c 15.669137
_cell_angle_alpha 90.000000
_cell_angle_beta 111.491917
_cell_angle_gamma 90.000000
_cell_volume 2287.278669
_symmetry_space_group_name_H-M "C 2/C"
_symmetry_group_IT_number 15
_symmetry_cell_setting 'monoclinic'
loop_
_space_group_symop_operation_xyz
x,y,z
-x,y,1/2-z
-x,-y,-z
x,-y,1/2+z
1/2+x,1/2+y,z
1/2-x,1/2+y,1/2-z
1/2-x,1/2-y,-z
1/2+x,1/2-y,1/2+z
loop_
_atom_site_type_symbol
_atom_site_label
_atom_site_fract_x
_atom_site_fract_y
_atom_site_fract_z
Si Si1 0.408286 0.196582 0.863924
Si Si2 0.500000 0.959535 0.250000
Si Si3 0.345995 0.308632 0.524806
Si Si4 0.089668 0.033708 0.615929
Si Si5 0.243020 0.487580 0.235038
Si Si6 0.162780 0.360060 0.866056
Si Si7 0.847691 0.511671 0.470921
Si Si8 0.930124 0.064769 0.647802
O O1 0.464894 0.138621 0.810826
O O2 0.421437 0.361703 0.890288
O O3 0.314474 0.157531 0.788792
O O4 0.410395 0.099915 0.950017
O O5 0.426649 0.062588 0.186313
O O6 0.250000 0.250000 0.500000
O O7 0.363638 0.401353 0.447195
O O8 0.286872 0.054911 0.367056
O O9 0.390219 0.155315 0.523865
O O10 0.159538 0.052656 0.718010
O O11 0.997155 0.097881 0.597182
O O12 0.216865 0.586652 0.305983
O O13 0.384970 0.589278 0.112819
O O14 0.196626 0.428480 0.968095
O O15 0.138070 0.193047 0.870035
O O16 0.000000 0.054437 0.750000
#
# Coordination Sequence:
#
# PCOD9293191 Si02
#       8
#     8   4   8   8   8   8   8   8
#     4   9  24  45  75 115 152 218 268 338 412 505
#     4  10  22  44  78 112 164 206 284 336 422 496
#     4  12  30  53  80 122 169 225 279 345 424 508
#     4  12  27  50  81 118 172 209 280 349 426 493
#     4   9  25  47  83 117 153 222 283 332 410 509
#     4  11  23  51  81 117 162 220 282 345 415 513
#     4  10  25  46  81 112 156 209 282 331 406 500
#     4  12  31  49  82 123 172 212 276 358 435 486
#
# _framework density 26.232044999999999
#
# number of rings (size 3 to 8) (size 9 to 14) (size 15 to 20)
#    0.800    0.533    0.667    2.000   10.267    2.667 
#    0.000    2.667    0.000    0.000    0.000    0.000 
#    0.000    0.000    0.000    0.000    0.000    0.000 
#
# Total GULP energy -167966.020235 kJ/mol
# GULP energy per Si atom -5598.867341 kJ/mol
# Density = 2.617234 g / cm^3
# Si number density = 26.232045 Si / 1000 Ang^3
#
#
#
# Elastic Constant Matrix: (Units=GPa)
#
#
# Indices 1 2 3 4 5 6 
#
# 1 116.5433 39.8029 37.7747 0.0000 -10.8650 0.0000
# 2 39.8029 153.8032 62.9746 0.0000 -19.7623 0.0000
# 3 37.7747 62.9746 148.4095 0.0000 -6.6528 0.0000
# 4 0.0000 0.0000 0.0000 43.5572 0.0000 -1.4810
# 5 -10.8650 -19.7623 -6.6528 0.0000 49.2848 0.0000
# 6 0.0000 0.0000 0.0000 -1.4810 0.0000 39.4440
#
#
#
# Elastic Compliance Matrix: (Units=1/GPa)
#
#
# Indices 1 2 3 4 5 6 
#
# 1 0.009832 -0.001671 -0.001737 0.000000 0.001263 0.000000
# 2 -0.001671 0.008533 -0.003077 0.000000 0.002638 0.000000
# 3 -0.001737 -0.003077 0.008465 0.000000 -0.000474 0.000000
# 4 0.000000 0.000000 0.000000 0.022988 0.000000 0.000863
# 5 0.001263 0.002638 -0.000474 0.000000 0.021562 0.000000
# 6 0.000000 0.000000 0.000000 0.000863 0.000000 0.025385
#
#
# Mechanical properties :
#
#
# Convention : Reuss Voigt Hill
#
# Bulk Modulus (GPa) = 72.15258 77.76229 74.95744
# Shear Modulus (GPa) = 43.72353 45.00411 44.36382
#
# Velocity S-wave (km/s) = 4.08707 4.14649 4.11689
# Velocity P-wave (km/s) = 7.05956 7.25485 7.15787
#
# Compressibility (1/GPa) = 0.01385952
#
# Stress axis : x y z
#
# Youngs Moduli (GPa) = 101.70986 117.18924 118.13709
#
# Poissons Ratio (x) = 0.19582 0.20519
# Poissons Ratio (y) = 0.16995 0.36355
# Poissons Ratio (z) = 0.17666 0.36063
#
# Static dielectric constant tensor:
#      x y z
#    x 2.119670 0.000000 -0.034940 
#    y 0.000000 2.019020 0.000000 
#    z -0.034940 0.000000 2.137080 
# 
# From -- ./inp_files/247508.got.cif
#   From: 2010.05.17/outbox.cif.g08.bks.cpg/sg15_124_cif.got.tgz:247508.got - 2010.06.03 18:47:42.
