data_PCOD9293118
_publ_section_title
;
Structure prediction by ZEFSAII (Michael W. Deem and Ramdas Pophale) SiO2 
 PCOD9293118
Probable space group: C 2/C
;
_chemical_formula_sum "Si O2"
_cell_formula_units_Z 56
_cell_length_a 26.672314
_cell_length_b 8.154942
_cell_length_c 12.398277
_cell_angle_alpha 90.000000
_cell_angle_beta 67.842860
_cell_angle_gamma 90.000000
_cell_volume 2497.615783
_symmetry_space_group_name_H-M "C 2/C"
_symmetry_group_IT_number 15
_symmetry_cell_setting 'monoclinic'
loop_
_space_group_symop_operation_xyz
x,y,z
-x,y,1/2-z
-x,-y,-z
x,-y,1/2+z
1/2+x,1/2+y,z
1/2-x,1/2+y,1/2-z
1/2-x,1/2-y,-z
1/2+x,1/2-y,1/2+z
loop_
_atom_site_type_symbol
_atom_site_label
_atom_site_fract_x
_atom_site_fract_y
_atom_site_fract_z
Si Si1 0.749227 0.577962 0.085509
Si Si2 0.898797 0.256753 0.076515
Si Si3 0.849719 0.949702 0.442212
Si Si4 0.170953 0.407631 0.622848
Si Si5 0.941564 0.482265 0.846779
Si Si6 0.058082 0.158512 0.230670
Si Si7 0.218519 0.615408 0.752550
O O1 0.702329 0.562468 0.034322
O O2 0.744151 0.434117 0.178538
O O3 0.740890 0.742761 0.158466
O O4 0.806560 0.538306 0.983359
O O5 0.934908 0.220770 0.152138
O O6 0.841286 0.329595 0.161486
O O7 0.880388 0.090331 0.028842
O O8 0.927456 0.380768 0.967358
O O9 0.826689 0.772298 0.426988
O O10 0.894787 0.029551 0.329670
O O11 0.107608 0.436010 0.693287
O O12 0.207165 0.448784 0.695410
O O13 0.938337 0.680802 0.850344
O O14 0.000000 0.440057 0.750000
O O15 0.000000 0.083187 0.250000
#
# Coordination Sequence:
#
# PCOD9293118 Si02
#       7
#     8   8   8   8   8   8   8
#     4  12  24  42  69 102 147 188 237 305 359 444
#     4  11  24  47  69 106 146 185 250 303 365 443
#     4  11  24  43  68 101 149 189 238 305 360 435
#     4  11  23  42  66 101 141 188 240 296 363 430
#     4  10  22  44  74 100 140 187 244 306 359 428
#     4  11  25  48  72 106 146 190 251 308 368 437
#     4  12  24  43  69 108 144 189 247 288 374 439
#
# _framework density 22.421384
#
# number of rings (size 3 to 8) (size 9 to 14) (size 15 to 20)
#    0.000    0.857    5.714    1.714    2.000    5.143 
#    2.571    0.000    0.000    0.000    0.000    0.000 
#    0.000    0.000    0.000    0.000    0.000    0.000 
#
# Total GULP energy -156282.556438 kJ/mol
# GULP energy per Si atom -5581.519873 kJ/mol
# Density = 2.237035 g / cm^3
# Si number density = 22.421384 Si / 1000 Ang^3
#
#
#
# Elastic Constant Matrix: (Units=GPa)
#
#
# Indices 1 2 3 4 5 6 
#
# 1 126.9167 34.6839 59.4336 0.0000 2.1716 0.0000
# 2 34.6839 80.7349 57.9221 0.0000 -2.1052 0.0000
# 3 59.4336 57.9221 106.9415 0.0000 -7.7177 0.0000
# 4 0.0000 0.0000 0.0000 17.2910 0.0000 14.2443
# 5 2.1716 -2.1052 -7.7177 0.0000 32.5697 0.0000
# 6 0.0000 0.0000 0.0000 14.2443 0.0000 34.2536
#
#
#
# Elastic Compliance Matrix: (Units=1/GPa)
#
#
# Indices 1 2 3 4 5 6 
#
# 1 0.010811 -0.000456 -0.005917 0.000000 -0.002152 0.000000
# 2 -0.000456 0.020333 -0.010848 0.000000 -0.001226 0.000000
# 3 -0.005917 -0.010848 0.018814 0.000000 0.004152 0.000000
# 4 0.000000 0.000000 0.000000 0.087970 0.000000 -0.036582
# 5 -0.002152 -0.001226 0.004152 0.000000 0.031751 0.000000
# 6 0.000000 0.000000 0.000000 -0.036582 0.000000 0.044407
#
#
# Mechanical properties :
#
#
# Convention : Reuss Voigt Hill
#
# Bulk Modulus (GPa) = 64.44411 68.74137 66.59274
# Shear Modulus (GPa) = 19.70830 27.65976 23.68403
#
# Velocity S-wave (km/s) = 2.96800 3.51612 3.25363
# Velocity P-wave (km/s) = 6.36789 6.87092 6.62418
#
# Compressibility (1/GPa) = 0.01551732
#
# Stress axis : x y z
#
# Youngs Moduli (GPa) = 92.49467 49.18202 53.15055
#
# Poissons Ratio (x) = 0.02241 0.31450
# Poissons Ratio (y) = 0.04214 0.57657
# Poissons Ratio (z) = 0.54730 0.53352
#
# Static dielectric constant tensor:
#      x y z
#    x 1.807820 0.000000 0.008060 
#    y 0.000000 1.879860 0.000000 
#    z 0.008060 0.000000 1.883470 
# 
# From -- ./inp_files/121888.got.cif
#   From: 2010.05.17/outbox.cif.g08.bks.cpg/sg15_61_cif.got.tgz:121888.got - 2010.06.03 18:47:42.
