data_PCOD9293833
_publ_section_title
;
Structure prediction by ZEFSAII (Michael W. Deem and Ramdas Pophale) SiO2 
 PCOD9293833
Probable space group: C 2/C
;
_chemical_formula_sum "Si O2"
_cell_formula_units_Z 28
_cell_length_a 23.997927
_cell_length_b 7.052497
_cell_length_c 8.410141
_cell_angle_alpha 90.000000
_cell_angle_beta 41.018184
_cell_angle_gamma 90.000000
_cell_volume 934.160154
_symmetry_space_group_name_H-M "C 2/C"
_symmetry_group_IT_number 15
_symmetry_cell_setting 'monoclinic'
loop_
_space_group_symop_operation_xyz
x,y,z
-x,y,1/2-z
-x,-y,-z
x,-y,1/2+z
1/2+x,1/2+y,z
1/2-x,1/2+y,1/2-z
1/2-x,1/2-y,-z
1/2+x,1/2-y,1/2+z
loop_
_atom_site_type_symbol
_atom_site_label
_atom_site_fract_x
_atom_site_fract_y
_atom_site_fract_z
Si Si1 0.221156 0.896548 0.925576
Si Si2 0.000000 0.963144 0.750000
Si Si3 0.906122 0.420614 0.499434
Si Si4 0.118960 0.206638 0.337906
O O1 0.155223 0.817500 0.939112
O O2 0.309387 0.935439 0.647381
O O3 0.250000 0.750000 0.000000
O O4 0.179425 0.080413 0.097717
O O5 0.925418 0.805555 0.943167
O O6 0.026593 0.112116 0.554320
O O7 0.892835 0.571589 0.675320
O O8 0.000000 0.491514 0.250000
#
# Coordination Sequence:
#
# PCOD9293833 Si02
#       4
#     8   4   8   8
#     4  12  25  48  74 104 142 187 235 287 352 421
#     4  10  22  48  70 106 140 188 232 292 346 418
#     4  10  23  44  69 105 139 183 235 285 349 409
#     4  12  25  49  72 103 144 188 231 291 350 416
#
# _framework density 29.97345
#
# number of rings (size 3 to 8) (size 9 to 14) (size 15 to 20)
#    0.857    0.000    4.286    2.571    0.000    1.143 
#    5.143    8.571    0.000    0.000    0.000    0.000 
#    0.000    0.000    0.000    0.000    0.000    0.000 
#
# Total GULP energy -77973.030958 kJ/mol
# GULP energy per Si atom -5569.502211 kJ/mol
# Density = 2.990523 g / cm^3
# Si number density = 29.973450 Si / 1000 Ang^3
#
#
#
# Elastic Constant Matrix: (Units=GPa)
#
#
# Indices 1 2 3 4 5 6 
#
# 1 171.3885 14.0448 40.6350 0.0000 3.2439 0.0000
# 2 14.0448 211.9007 54.4795 0.0000 12.3715 0.0000
# 3 40.6350 54.4795 233.7750 0.0000 -34.3881 0.0000
# 4 0.0000 0.0000 0.0000 211.1256 0.0000 12.9282
# 5 3.2439 12.3715 -34.3881 0.0000 33.7245 0.0000
# 6 0.0000 0.0000 0.0000 12.9282 0.0000 32.8504
#
#
#
# Elastic Compliance Matrix: (Units=1/GPa)
#
#
# Indices 1 2 3 4 5 6 
#
# 1 0.006198 0.000067 -0.001393 0.000000 -0.002041 0.000000
# 2 0.000067 0.005415 -0.001843 0.000000 -0.003872 0.000000
# 3 -0.001393 -0.001843 0.005963 0.000000 0.006890 0.000000
# 4 0.000000 0.000000 0.000000 0.004853 0.000000 -0.001910
# 5 -0.002041 -0.003872 0.006890 0.000000 0.038295 0.000000
# 6 0.000000 0.000000 0.000000 -0.001910 0.000000 0.031193
#
#
# Mechanical properties :
#
#
# Convention : Reuss Voigt Hill
#
# Bulk Modulus (GPa) = 88.99565 92.82034 90.90800
# Shear Modulus (GPa) = 49.01909 89.40042 69.20975
#
# Velocity S-wave (km/s) = 4.04842 5.46729 4.81046
# Velocity P-wave (km/s) = 7.18393 8.41961 7.82619
#
# Compressibility (1/GPa) = 0.01123650
#
# Stress axis : x y z
#
# Youngs Moduli (GPa) = 161.33778 184.68359 167.70634
#
# Poissons Ratio (x) = -0.01229 0.23364
# Poissons Ratio (y) = -0.01073 0.30908
# Poissons Ratio (z) = 0.22476 0.34037
#
# Static dielectric constant tensor:
#      x y z
#    x 2.584640 0.000000 0.066370 
#    y 0.000000 2.402940 0.000000 
#    z 0.066370 0.000000 2.284760 
# 
# From -- ./inp_files/64454.got.cif
#   From: 2010.05.17/outbox.cif.g08.bks.cpg/sg15_33_cif.got.tgz:64454.got - 2010.06.03 18:47:42.
