data_PCOD9293043
_publ_section_title
;
Structure prediction by ZEFSAII (Michael W. Deem and Ramdas Pophale) SiO2 
 PCOD9293043
Probable space group: C 2/C
;
_chemical_formula_sum "Si O2"
_cell_formula_units_Z 40
_cell_length_a 10.557213
_cell_length_b 11.803694
_cell_length_c 19.114371
_cell_angle_alpha 90.000000
_cell_angle_beta 136.719419
_cell_angle_gamma 90.000000
_cell_volume 1632.977081
_symmetry_space_group_name_H-M "C 2/C"
_symmetry_group_IT_number 15
_symmetry_cell_setting 'monoclinic'
loop_
_space_group_symop_operation_xyz
x,y,z
-x,y,1/2-z
-x,-y,-z
x,-y,1/2+z
1/2+x,1/2+y,z
1/2-x,1/2+y,1/2-z
1/2-x,1/2-y,-z
1/2+x,1/2-y,1/2+z
loop_
_atom_site_type_symbol
_atom_site_label
_atom_site_fract_x
_atom_site_fract_y
_atom_site_fract_z
Si Si1 0.535640 0.981996 0.432689
Si Si2 0.773746 0.571722 0.205121
Si Si3 0.983041 0.239192 0.352535
Si Si4 0.276567 0.322117 0.362189
Si Si5 0.291948 0.351077 0.964711
O O1 0.389450 0.046504 0.322215
O O2 0.724689 0.037648 0.479974
O O3 0.500000 0.000000 0.500000
O O4 0.519998 0.847138 0.415980
O O5 0.567116 0.613951 0.142448
O O6 0.788055 0.451498 0.171259
O O7 0.808313 0.653362 0.151427
O O8 0.153102 0.252186 0.367377
O O9 0.786101 0.268935 0.236457
O O10 0.491021 0.335205 0.461674
O O11 0.250000 0.250000 0.000000
#
# Coordination Sequence:
#
# PCOD9293043 Si02
#       5
#     8   8   8   8   8
#     4  11  24  45  70 107 152 192 253 317 369 465
#     4  11  23  45  74 101 142 199 237 314 388 441
#     4  10  22  44  72 101 144 190 247 303 378 455
#     4  10  23  45  67 104 140 186 249 303 375 454
#     4  12  24  43  72 105 144 191 247 307 388 456
#
# _framework density 24.495139000000002
#
# number of rings (size 3 to 8) (size 9 to 14) (size 15 to 20)
#    0.000    1.200    2.000    3.600    0.000    0.800 
#   10.800    7.000    0.000    0.000    0.000    0.000 
#    0.000    0.000    0.000    0.000    0.000    0.000 
#
# Total GULP energy -111543.682082 kJ/mol
# GULP energy per Si atom -5577.184104 kJ/mol
# Density = 2.443939 g / cm^3
# Si number density = 24.495139 Si / 1000 Ang^3
#
#
#
# Elastic Constant Matrix: (Units=GPa)
#
#
# Indices 1 2 3 4 5 6 
#
# 1 129.8598 27.4889 80.5511 0.0000 -2.1319 0.0000
# 2 27.4889 77.8561 34.6007 0.0000 14.9876 0.0000
# 3 80.5511 34.6007 186.6324 0.0000 -5.6799 0.0000
# 4 0.0000 0.0000 0.0000 35.9973 0.0000 7.3531
# 5 -2.1319 14.9876 -5.6799 0.0000 56.0202 0.0000
# 6 0.0000 0.0000 0.0000 7.3531 0.0000 52.5183
#
#
#
# Elastic Compliance Matrix: (Units=1/GPa)
#
#
# Indices 1 2 3 4 5 6 
#
# 1 0.010780 -0.002010 -0.004264 0.000000 0.000516 0.000000
# 2 -0.002010 0.015337 -0.002110 0.000000 -0.004394 0.000000
# 3 -0.004264 -0.002110 0.007625 0.000000 0.001175 0.000000
# 4 0.000000 0.000000 0.000000 0.028598 0.000000 -0.004004
# 5 0.000516 -0.004394 0.001175 0.000000 0.019165 0.000000
# 6 0.000000 0.000000 0.000000 -0.004004 0.000000 0.019602
#
#
# Mechanical properties :
#
#
# Convention : Reuss Voigt Hill
#
# Bulk Modulus (GPa) = 58.91185 75.51441 67.21313
# Shear Modulus (GPa) = 40.47515 45.68767 43.08141
#
# Velocity S-wave (km/s) = 4.06935 4.32345 4.19832
# Velocity P-wave (km/s) = 6.79574 7.47116 7.14144
#
# Compressibility (1/GPa) = 0.01697451
#
# Stress axis : x y z
#
# Youngs Moduli (GPa) = 92.76775 65.20055 131.14048
#
# Poissons Ratio (x) = 0.13107 0.55920
# Poissons Ratio (y) = 0.18648 0.27665
# Poissons Ratio (z) = 0.39557 0.13754
#
# Static dielectric constant tensor:
#      x y z
#    x 2.001980 0.000000 -0.041080 
#    y 0.000000 2.153570 0.000000 
#    z -0.041080 0.000000 2.014820 
# 
# From -- ./inp_files/237818.got.cif
#   From: 2010.05.17/outbox.cif.g08.bks.cpg/sg15_119_cif.got.tgz:237818.got - 2010.06.03 18:47:42.
