data_PCOD9293171
_publ_section_title
;
Structure prediction by ZEFSAII (Michael W. Deem and Ramdas Pophale) SiO2 
 PCOD9293171
Probable space group: C 2/C
;
_chemical_formula_sum "Si O2"
_cell_formula_units_Z 28
_cell_length_a 13.205580
_cell_length_b 10.540601
_cell_length_c 18.740503
_cell_angle_alpha 90.000000
_cell_angle_beta 24.931094
_cell_angle_gamma 90.000000
_cell_volume 1099.589346
_symmetry_space_group_name_H-M "C 2/C"
_symmetry_group_IT_number 15
_symmetry_cell_setting 'monoclinic'
loop_
_space_group_symop_operation_xyz
x,y,z
-x,y,1/2-z
-x,-y,-z
x,-y,1/2+z
1/2+x,1/2+y,z
1/2-x,1/2+y,1/2-z
1/2-x,1/2-y,-z
1/2+x,1/2-y,1/2+z
loop_
_atom_site_type_symbol
_atom_site_label
_atom_site_fract_x
_atom_site_fract_y
_atom_site_fract_z
Si Si1 0.704212 0.952892 0.318218
Si Si2 0.814765 0.118805 0.991242
Si Si3 0.461499 0.673410 0.062804
Si Si4 0.500000 0.914844 0.250000
O O1 0.390974 0.012926 0.377942
O O2 0.805300 0.064269 0.201982
O O3 0.500000 0.000000 0.500000
O O4 0.953970 0.927793 0.198386
O O5 0.750000 0.250000 0.000000
O O6 0.894030 0.150544 0.022755
O O7 0.385522 0.809713 0.142969
O O8 0.751764 0.655929 0.887477
#
# Coordination Sequence:
#
# PCOD9293171 Si02
#       4
#     8   8   8   4
#     4  11  24  46  75 110 150 193 248 313 376 446
#     4  11  24  46  75 107 152 207 252 302 377 466
#     4  11  25  48  76 111 152 198 255 312 378 454
#     4  10  22  44  76 110 148 194 252 320 370 434
#
# _framework density 25.464051999999999
#
# number of rings (size 3 to 8) (size 9 to 14) (size 15 to 20)
#    0.000    1.143    0.000    6.857    0.000    4.571 
#    0.000   35.714    0.000    0.000    0.000    0.000 
#    0.000    0.000    0.000    0.000    0.000    0.000 
#
# Total GULP energy -78192.487855 kJ/mol
# GULP energy per Si atom -5585.177704 kJ/mol
# Density = 2.540609 g / cm^3
# Si number density = 25.464052 Si / 1000 Ang^3
#
#
#
# Elastic Constant Matrix: (Units=GPa)
#
#
# Indices 1 2 3 4 5 6 
#
# 1 130.4225 65.8315 76.3134 0.0015 -2.0678 -0.0142
# 2 65.8315 222.6349 107.4380 0.0005 0.9632 -0.0032
# 3 76.3134 107.4380 278.1809 -0.0156 -28.8528 -0.0115
# 4 0.0015 0.0005 -0.0156 62.3324 0.0031 -7.8030
# 5 -2.0678 0.9632 -28.8528 0.0031 41.7397 0.0139
# 6 -0.0142 -0.0032 -0.0115 -7.8030 0.0139 44.2007
#
#
#
# Elastic Compliance Matrix: (Units=1/GPa)
#
#
# Indices 1 2 3 4 5 6 
#
# 1 0.009815 -0.001911 -0.002046 0.000000 -0.000884 0.000003
# 2 -0.001911 0.006010 -0.001962 0.000000 -0.001590 0.000000
# 3 -0.002046 -0.001962 0.005287 0.000001 0.003599 0.000000
# 4 0.000000 0.000000 0.000001 0.016406 -0.000001 0.002896
# 5 -0.000884 -0.001590 0.003599 -0.000001 0.026438 -0.000008
# 6 0.000003 0.000000 0.000000 0.002896 -0.000008 0.023135
#
#
# Mechanical properties :
#
#
# Convention : Reuss Voigt Hill
#
# Bulk Modulus (GPa) = 107.82398 125.60046 116.71222
# Shear Modulus (GPa) = 49.00902 55.09827 52.05365
#
# Velocity S-wave (km/s) = 4.39183 4.65668 4.52619
# Velocity P-wave (km/s) = 8.25549 8.85125 8.55855
#
# Compressibility (1/GPa) = 0.00927438
#
# Stress axis : x y z
#
# Youngs Moduli (GPa) = 101.88188 166.37868 189.13904
#
# Poissons Ratio (x) = 0.31795 0.38703
# Poissons Ratio (y) = 0.19470 0.37108
# Poissons Ratio (z) = 0.20848 0.32642
#
# Static dielectric constant tensor:
#      x y z
#    x 2.279480 -0.000710 0.055850 
#    y -0.000710 2.380610 -0.000210 
#    z 0.055850 -0.000210 2.026250 
# 
# From -- ./inp_files/195835.got.cif
#   From: 2010.05.17/outbox.cif.g08.bks.cpg/sg15_98_cif.got.tgz:195835.got - 2010.06.03 18:47:42.
