data_PCOD9293584
_publ_section_title
;
Structure prediction by ZEFSAII (Michael W. Deem and Ramdas Pophale) SiO2 
 PCOD9293584
Probable space group: C 2/C
;
_chemical_formula_sum "Si O2"
_cell_formula_units_Z 52
_cell_length_a 9.012448
_cell_length_b 24.823056
_cell_length_c 11.992088
_cell_angle_alpha 90.000000
_cell_angle_beta 123.243315
_cell_angle_gamma 90.000000
_cell_volume 2243.783503
_symmetry_space_group_name_H-M "C 2/C"
_symmetry_group_IT_number 15
_symmetry_cell_setting 'monoclinic'
loop_
_space_group_symop_operation_xyz
x,y,z
-x,y,1/2-z
-x,-y,-z
x,-y,1/2+z
1/2+x,1/2+y,z
1/2-x,1/2+y,1/2-z
1/2-x,1/2-y,-z
1/2+x,1/2-y,1/2+z
loop_
_atom_site_type_symbol
_atom_site_label
_atom_site_fract_x
_atom_site_fract_y
_atom_site_fract_z
Si Si1 0.500000 0.213738 0.250000
Si Si2 0.686241 0.594909 0.864126
Si Si3 0.151055 0.148481 0.451648
Si Si4 0.226053 0.882318 0.639308
Si Si5 0.000000 0.761866 0.750000
Si Si6 0.198055 0.801350 0.215076
Si Si7 0.457925 0.930644 0.109032
Si Si8 0.000000 0.532538 0.250000
O O1 0.667393 0.173824 0.327361
O O2 0.551136 0.255051 0.172783
O O3 0.500000 0.568977 0.750000
O O4 0.689705 0.654075 0.807867
O O5 0.862868 0.568257 0.887870
O O6 0.687771 0.600130 0.996918
O O7 0.170988 0.170123 0.585797
O O8 0.304711 0.105467 0.493476
O O9 0.954633 0.123274 0.368045
O O10 0.143600 0.199955 0.368700
O O11 0.355807 0.927582 0.742486
O O12 0.108004 0.725775 0.707829
O O13 0.500000 0.906016 0.250000
O O14 0.411131 0.991680 0.125032
#
# Coordination Sequence:
#
# PCOD9293584 Si02
#       8
#     4   8   8   8   4   8   8   4
#     4  11  24  38  62  95 139 174 220 275 326 396
#     4  12  23  41  69 100 134 178 226 270 334 404
#     4  12  24  44  66  97 136 178 226 282 327 401
#     4  11  24  43  68  98 135 175 226 285 326 399
#     4  12  28  39  64 101 139 186 229 266 334 390
#     4  12  22  41  61  96 136 187 218 264 330 403
#     4  10  22  46  69  95 132 173 219 285 342 397
#     4   9  24  47  72  94 134 174 223 287 350 392
#
# _framework density 23.175141
#
# number of rings (size 3 to 8) (size 9 to 14) (size 15 to 20)
#    0.462    0.308    5.385    1.385    4.308    2.462 
#    0.000    0.000    0.000    0.000    0.000    0.000 
#    0.000    0.000    0.000    0.000    0.000    0.000 
#
# Total GULP energy -145411.951641 kJ/mol
# GULP energy per Si atom -5592.767371 kJ/mol
# Density = 2.312239 g / cm^3
# Si number density = 23.175141 Si / 1000 Ang^3
#
#
#
# Elastic Constant Matrix: (Units=GPa)
#
#
# Indices 1 2 3 4 5 6 
#
# 1 125.5546 23.4861 5.2938 0.0000 12.7285 0.0000
# 2 23.4861 94.8749 7.2716 0.0000 13.6782 0.0000
# 3 5.2938 7.2716 41.2108 0.0000 4.3679 0.0000
# 4 0.0000 0.0000 0.0000 25.0398 0.0000 8.7996
# 5 12.7285 13.6782 4.3679 0.0000 32.9881 0.0000
# 6 0.0000 0.0000 0.0000 8.7996 0.0000 13.9537
#
#
#
# Elastic Compliance Matrix: (Units=1/GPa)
#
#
# Indices 1 2 3 4 5 6 
#
# 1 0.008564 -0.001716 -0.000530 0.000000 -0.002523 0.000000
# 2 -0.001716 0.011647 -0.001413 0.000000 -0.003980 0.000000
# 3 -0.000530 -0.001413 0.024848 0.000000 -0.002500 0.000000
# 4 0.000000 0.000000 0.000000 0.051307 0.000000 -0.032356
# 5 -0.002523 -0.003980 -0.002500 0.000000 0.033269 0.000000
# 6 0.000000 0.000000 0.000000 -0.032356 0.000000 0.092070
#
#
# Mechanical properties :
#
#
# Convention : Reuss Voigt Hill
#
# Bulk Modulus (GPa) = 26.49590 37.08258 31.78924
# Shear Modulus (GPa) = 20.69524 29.43557 25.06541
#
# Velocity S-wave (km/s) = 2.99154 3.56776 3.29228
# Velocity P-wave (km/s) = 4.83634 5.74523 5.31026
#
# Compressibility (1/GPa) = 0.03774169
#
# Stress axis : x y z
#
# Youngs Moduli (GPa) = 116.77226 85.85885 40.24500
#
# Poissons Ratio (x) = 0.14730 0.02133
# Poissons Ratio (y) = 0.20033 0.05686
# Poissons Ratio (z) = 0.06188 0.12131
#
# Static dielectric constant tensor:
#      x y z
#    x 1.882530 0.000000 0.025300 
#    y 0.000000 1.855810 0.000000 
#    z 0.025300 0.000000 1.892840 
# 
# From -- ./inp_files/81532.got.cif
#   From: 2010.05.17/outbox.cif.g08.bks.cpg/sg15_41_cif.got.tgz:81532.got - 2010.06.03 18:47:42.
