data_PCOD9293846
_publ_section_title
;
Structure prediction by ZEFSAII (Michael W. Deem and Ramdas Pophale) SiO2 
 PCOD9293846
Probable space group: C 2/C
;
_chemical_formula_sum "Si O2"
_cell_formula_units_Z 40
_cell_length_a 11.835342
_cell_length_b 14.221661
_cell_length_c 15.316123
_cell_angle_alpha 90.000000
_cell_angle_beta 144.600785
_cell_angle_gamma 90.000000
_cell_volume 1493.347985
_symmetry_space_group_name_H-M "C 2/C"
_symmetry_group_IT_number 15
_symmetry_cell_setting 'monoclinic'
loop_
_space_group_symop_operation_xyz
x,y,z
-x,y,1/2-z
-x,-y,-z
x,-y,1/2+z
1/2+x,1/2+y,z
1/2-x,1/2+y,1/2-z
1/2-x,1/2-y,-z
1/2+x,1/2-y,1/2+z
loop_
_atom_site_type_symbol
_atom_site_label
_atom_site_fract_x
_atom_site_fract_y
_atom_site_fract_z
Si Si1 0.724066 0.468106 0.044781
Si Si2 0.000000 0.754272 0.250000
Si Si3 0.112024 0.673676 0.562921
Si Si4 0.408578 0.927021 0.803667
Si Si5 0.000000 0.887518 0.750000
Si Si6 0.246760 0.213742 0.658261
O O1 0.907877 0.513662 0.113311
O O2 0.773063 0.361256 0.099430
O O3 0.723705 0.526715 0.137084
O O4 0.558514 0.455045 0.867678
O O5 0.194395 0.817402 0.375465
O O6 0.937975 0.679383 0.285305
O O7 0.965202 0.592206 0.439143
O O8 0.174674 0.669133 0.702797
O O9 0.983617 0.768305 0.477177
O O10 0.846958 0.811174 0.693118
#
# Coordination Sequence:
#
# PCOD9293846 Si02
#       6
#     8   4   8   8   4   8
#     4  10  24  46  68 105 155 192 234 309 379 425
#     4  10  22  48  74 100 154 194 250 312 362 438
#     4  12  25  46  78 111 143 195 260 298 368 448
#     4  10  24  46  71 107 153 196 234 318 377 432
#     4  12  24  48  74 110 156 196 248 308 372 444
#     4  12  26  45  79 113 142 203 256 302 361 462
#
# _framework density 26.785450000000001
#
# number of rings (size 3 to 8) (size 9 to 14) (size 15 to 20)
#    0.000    1.200    4.000    2.400    5.600    1.600 
#    3.600    5.000    0.000    0.000    0.000    0.000 
#    0.000    0.000    0.000    0.000    0.000    0.000 
#
# Total GULP energy -111668.481797 kJ/mol
# GULP energy per Si atom -5583.424090 kJ/mol
# Density = 2.672449 g / cm^3
# Si number density = 26.785450 Si / 1000 Ang^3
#
#
#
# Elastic Constant Matrix: (Units=GPa)
#
#
# Indices 1 2 3 4 5 6 
#
# 1 77.6209 30.6456 50.3829 0.0003 7.4604 0.0001
# 2 30.6456 103.0176 54.6446 0.0005 -3.1012 0.0003
# 3 50.3829 54.6446 187.4745 0.0013 -25.2176 0.0009
# 4 0.0003 0.0005 0.0013 31.1081 0.0005 -28.4674
# 5 7.4604 -3.1012 -25.2176 0.0005 45.3676 0.0003
# 6 0.0001 0.0003 0.0009 -28.4674 0.0003 38.4198
#
#
#
# Elastic Compliance Matrix: (Units=1/GPa)
#
#
# Indices 1 2 3 4 5 6 
#
# 1 0.017600 -0.002949 -0.004633 0.000001 -0.005671 0.000001
# 2 -0.002949 0.012033 -0.002744 0.000000 -0.000218 0.000000
# 3 -0.004633 -0.002744 0.008059 -0.000002 0.005054 -0.000001
# 4 0.000001 0.000000 -0.000002 0.099851 -0.000003 0.073985
# 5 -0.005671 -0.000218 0.005054 -0.000003 0.025769 -0.000002
# 6 0.000001 0.000000 -0.000001 0.073985 -0.000002 0.080848
#
#
# Mechanical properties :
#
#
# Convention : Reuss Voigt Hill
#
# Bulk Modulus (GPa) = 58.68668 71.05103 64.86885
# Shear Modulus (GPa) = 18.48484 38.47509 28.47997
#
# Velocity S-wave (km/s) = 2.62984 3.79412 3.26431
# Velocity P-wave (km/s) = 5.58381 6.76590 6.20307
#
# Compressibility (1/GPa) = 0.01703964
#
# Stress axis : x y z
#
# Youngs Moduli (GPa) = 56.81914 83.10209 124.08586
#
# Poissons Ratio (x) = 0.24504 0.57492
# Poissons Ratio (y) = 0.16754 0.34054
# Poissons Ratio (z) = 0.26325 0.22806
#
# Static dielectric constant tensor:
#      x y z
#    x 2.175510 0.000000 -0.037940 
#    y 0.000000 2.051770 0.000000 
#    z -0.037940 0.000000 2.230790 
# 
# From -- ./inp_files/205850.got.cif
#   From: 2010.05.17/outbox.cif.g08.bks.cpg/sg15_103_cif.got.tgz:205850.got - 2010.06.03 18:47:42.
