data_PCOD9293410
_publ_section_title
;
Structure prediction by ZEFSAII (Michael W. Deem and Ramdas Pophale) SiO2 
 PCOD9293410
Probable space group: C 2/C
;
_chemical_formula_sum "Si O2"
_cell_formula_units_Z 48
_cell_length_a 11.382539
_cell_length_b 15.536396
_cell_length_c 13.317749
_cell_angle_alpha 90.000000
_cell_angle_beta 56.011427
_cell_angle_gamma 90.000000
_cell_volume 1952.778021
_symmetry_space_group_name_H-M "C 2/C"
_symmetry_group_IT_number 15
_symmetry_cell_setting 'monoclinic'
loop_
_space_group_symop_operation_xyz
x,y,z
-x,y,1/2-z
-x,-y,-z
x,-y,1/2+z
1/2+x,1/2+y,z
1/2-x,1/2+y,1/2-z
1/2-x,1/2-y,-z
1/2+x,1/2-y,1/2+z
loop_
_atom_site_type_symbol
_atom_site_label
_atom_site_fract_x
_atom_site_fract_y
_atom_site_fract_z
Si Si1 0.707076 0.061514 0.785579
Si Si2 0.123632 0.694441 0.467178
Si Si3 0.064743 0.076618 0.321783
Si Si4 0.845022 0.251572 0.204786
Si Si5 0.260547 0.457553 0.027398
Si Si6 0.026429 0.421090 0.619283
O O1 0.710822 0.160066 0.818228
O O2 0.708907 0.062634 0.663591
O O3 0.839605 0.003975 0.753290
O O4 0.566669 0.004788 0.869776
O O5 0.248242 0.748470 0.352829
O O6 0.202179 0.616044 0.483005
O O7 0.027221 0.657259 0.422510
O O8 0.014893 0.734669 0.600977
O O9 0.161610 0.150831 0.325066
O O10 0.000000 0.114852 0.250000
O O11 0.929197 0.046383 0.447404
O O12 0.188103 0.547389 0.030592
O O13 0.000000 0.404372 0.750000
#
# Coordination Sequence:
#
# PCOD9293410 Si02
#       6
#     8   8   8   8   8   8
#     4  11  24  44  69 107 147 193 243 304 383 438
#     4  12  25  45  71 109 151 194 248 313 369 446
#     4  12  25  43  71 107 154 186 251 314 366 438
#     4  12  27  43  75 108 150 195 249 311 372 441
#     4  11  23  40  76 101 148 187 246 307 380 430
#     4  10  22  45  73 100 142 197 250 303 371 450
#
# _framework density 24.580368
#
# number of rings (size 3 to 8) (size 9 to 14) (size 15 to 20)
#    0.000    0.667    5.000    2.000    4.667    1.333 
#    0.000    1.667    0.000    0.000    0.000    0.000 
#    0.000    0.000    0.000    0.000    0.000    0.000 
#
# Total GULP energy -133993.640894 kJ/mol
# GULP energy per Si atom -5583.068371 kJ/mol
# Density = 2.452442 g / cm^3
# Si number density = 24.580368 Si / 1000 Ang^3
#
#
#
# Elastic Constant Matrix: (Units=GPa)
#
#
# Indices 1 2 3 4 5 6 
#
# 1 55.3781 63.9217 40.4621 0.0000 -8.4172 0.0000
# 2 63.9217 120.5258 52.4938 0.0000 -8.9117 0.0000
# 3 40.4621 52.4938 162.3499 0.0000 -28.1896 0.0000
# 4 0.0000 0.0000 0.0000 30.1093 0.0000 -8.9190
# 5 -8.4172 -8.9117 -28.1896 0.0000 44.1330 0.0000
# 6 0.0000 0.0000 0.0000 -8.9190 0.0000 40.2844
#
#
#
# Elastic Compliance Matrix: (Units=1/GPa)
#
#
# Indices 1 2 3 4 5 6 
#
# 1 0.049315 -0.024215 -0.004136 0.000000 0.001874 0.000000
# 2 -0.024215 0.021547 -0.001100 0.000000 -0.000970 0.000000
# 3 -0.004136 -0.001100 0.008290 0.000000 0.004284 0.000000
# 4 0.000000 0.000000 0.000000 0.035543 0.000000 0.007869
# 5 0.001874 -0.000970 0.004284 0.000000 0.025557 0.000000
# 6 0.000000 0.000000 0.000000 0.007869 0.000000 0.026566
#
#
# Mechanical properties :
#
#
# Convention : Reuss Voigt Hill
#
# Bulk Modulus (GPa) = 49.38236 72.44546 60.91391
# Shear Modulus (GPa) = 21.50825 34.99708 28.25266
#
# Velocity S-wave (km/s) = 2.96128 3.77740 3.39396
# Velocity P-wave (km/s) = 5.64145 6.96863 6.33987
#
# Compressibility (1/GPa) = 0.02025015
#
# Stress axis : x y z
#
# Youngs Moduli (GPa) = 20.27794 46.41041 120.62781
#
# Poissons Ratio (x) = 1.12381 0.49888
# Poissons Ratio (y) = 0.49102 0.13275
# Poissons Ratio (z) = 0.08386 0.05107
#
# Static dielectric constant tensor:
#      x y z
#    x 1.929290 0.000000 0.007540 
#    y 0.000000 1.957880 0.000000 
#    z 0.007540 0.000000 2.051330 
# 
# From -- ./inp_files/144092.got.cif
#   From: 2010.05.17/outbox.cif.g08.bks.cpg/sg15_73_cif.got.tgz:144092.got - 2010.06.03 18:47:42.
