data_PCOD9293623
_publ_section_title
;
Structure prediction by ZEFSAII (Michael W. Deem and Ramdas Pophale) SiO2 
 PCOD9293623
Probable space group: C 2/C
;
_chemical_formula_sum "Si O2"
_cell_formula_units_Z 64
_cell_length_a 18.617448
_cell_length_b 20.886422
_cell_length_c 15.755765
_cell_angle_alpha 90.000000
_cell_angle_beta 151.422214
_cell_angle_gamma 90.000000
_cell_volume 2930.695931
_symmetry_space_group_name_H-M "C 2/C"
_symmetry_group_IT_number 15
_symmetry_cell_setting 'monoclinic'
loop_
_space_group_symop_operation_xyz
x,y,z
-x,y,1/2-z
-x,-y,-z
x,-y,1/2+z
1/2+x,1/2+y,z
1/2-x,1/2+y,1/2-z
1/2-x,1/2-y,-z
1/2+x,1/2-y,1/2+z
loop_
_atom_site_type_symbol
_atom_site_label
_atom_site_fract_x
_atom_site_fract_y
_atom_site_fract_z
Si Si1 0.083183 0.604325 0.246559
Si Si2 0.675449 0.319872 0.419580
Si Si3 0.635279 0.322456 0.192551
Si Si4 0.566330 0.163334 0.909670
Si Si5 0.461565 0.200006 0.981416
Si Si6 0.060774 0.058129 0.509603
Si Si7 0.348453 0.044058 0.699775
Si Si8 0.362375 0.610006 0.158634
O O1 0.247523 0.634667 0.431855
O O2 0.094118 0.528095 0.248586
O O3 0.000000 0.619715 0.250000
O O4 0.014148 0.639343 0.092725
O O5 0.500000 0.314344 0.250000
O O6 0.750000 0.250000 0.500000
O O7 0.694048 0.347164 0.344036
O O8 0.782443 0.299851 0.294984
O O9 0.553757 0.377147 0.056091
O O10 0.527343 0.262429 0.095335
O O11 0.500000 0.186172 0.750000
O O12 0.523121 0.200951 0.949446
O O13 0.485665 0.094173 0.842932
O O14 0.744555 0.155998 0.082754
O O15 0.233562 0.049537 0.659425
O O16 0.951396 0.065895 0.316252
O O17 0.000000 0.000000 0.500000
O O18 0.243146 0.067777 0.512588
O O19 0.500000 0.642622 0.250000
#
# Coordination Sequence:
#
# PCOD9293623 Si02
#       8
#     8   8   8   8   8   8   8   8
#     4  12  25  42  69 108 141 187 234 284 356 421
#     4  12  25  43  67  97 142 189 231 282 348 422
#     4  12  27  47  68 103 145 181 242 295 346 432
#     4  10  22  46  70  99 134 180 234 295 355 418
#     4  12  27  45  73 102 141 188 238 295 355 420
#     4  11  26  42  66 101 140 183 233 289 354 416
#     4  10  23  44  68  98 141 182 234 290 351 419
#     4   9  21  41  66  94 133 178 223 287 353 410
#
# _framework density 21.837817000000001
#
# number of rings (size 3 to 8) (size 9 to 14) (size 15 to 20)
#    0.000    1.000    3.750    2.250    7.000    2.000 
#    0.000    2.500    0.000    0.000    0.000    0.000 
#    0.000    0.000    0.000    0.000    0.000    0.000 
#
# Total GULP energy -178941.939999 kJ/mol
# GULP energy per Si atom -5591.935625 kJ/mol
# Density = 2.178811 g / cm^3
# Si number density = 21.837817 Si / 1000 Ang^3
#
#
#
# Elastic Constant Matrix: (Units=GPa)
#
#
# Indices 1 2 3 4 5 6 
#
# 1 106.3803 -15.2556 15.9456 0.0000 7.7428 0.0000
# 2 -15.2556 49.6105 16.7489 0.0000 -5.0681 0.0000
# 3 15.9456 16.7489 67.3177 0.0000 22.5092 0.0000
# 4 0.0000 0.0000 0.0000 10.5917 0.0000 3.1182
# 5 7.7428 -5.0681 22.5092 0.0000 37.3328 0.0000
# 6 0.0000 0.0000 0.0000 3.1182 0.0000 29.3412
#
#
#
# Elastic Compliance Matrix: (Units=1/GPa)
#
#
# Indices 1 2 3 4 5 6 
#
# 1 0.010603 0.004677 -0.003948 0.000000 0.000816 0.000000
# 2 0.004677 0.026087 -0.010594 0.000000 0.008959 0.000000
# 3 -0.003948 -0.010594 0.023338 0.000000 -0.014691 0.000000
# 4 0.000000 0.000000 0.000000 0.097463 0.000000 -0.010358
# 5 0.000816 0.008959 -0.014691 0.000000 0.036691 0.000000
# 6 0.000000 0.000000 0.000000 -0.010358 0.000000 0.035183
#
#
# Mechanical properties :
#
#
# Convention : Reuss Voigt Hill
#
# Bulk Modulus (GPa) = 24.81517 28.68739 26.75128
# Shear Modulus (GPa) = 19.04561 29.17779 24.11170
#
# Velocity S-wave (km/s) = 2.95640 3.65925 3.32644
# Velocity P-wave (km/s) = 4.80019 5.56943 5.19906
#
# Compressibility (1/GPa) = 0.04029793
#
# Stress axis : x y z
#
# Youngs Moduli (GPa) = 94.30997 38.33313 42.84819
#
# Poissons Ratio (x) = -0.17928 0.16917
# Poissons Ratio (y) = -0.44108 0.45394
# Poissons Ratio (z) = 0.37236 0.40610
#
# Static dielectric constant tensor:
#      x y z
#    x 1.780080 0.000000 -0.052120 
#    y 0.000000 1.688610 0.000000 
#    z -0.052120 0.000000 1.733970 
# 
# From -- ./inp_files/164249.got.cif
#   From: 2010.05.17/outbox.cif.g08.bks.cpg/sg15_83_cif.got.tgz:164249.got - 2010.06.03 18:47:42.
