data_PCOD9293027
_publ_section_title
;
Structure prediction by ZEFSAII (Michael W. Deem and Ramdas Pophale) SiO2 
 PCOD9293027
Probable space group: C 2/C
;
_chemical_formula_sum "Si O2"
_cell_formula_units_Z 40
_cell_length_a 14.693466
_cell_length_b 8.301000
_cell_length_c 15.187722
_cell_angle_alpha 90.000000
_cell_angle_beta 112.093709
_cell_angle_gamma 90.000000
_cell_volume 1716.427679
_symmetry_space_group_name_H-M "C 2/C"
_symmetry_group_IT_number 15
_symmetry_cell_setting 'monoclinic'
loop_
_space_group_symop_operation_xyz
x,y,z
-x,y,1/2-z
-x,-y,-z
x,-y,1/2+z
1/2+x,1/2+y,z
1/2-x,1/2+y,1/2-z
1/2-x,1/2-y,-z
1/2+x,1/2-y,1/2+z
loop_
_atom_site_type_symbol
_atom_site_label
_atom_site_fract_x
_atom_site_fract_y
_atom_site_fract_z
Si Si1 0.122454 0.860713 0.029610
Si Si2 0.064220 0.657971 0.506495
Si Si3 0.823417 0.797274 0.636094
Si Si4 0.693995 0.343813 0.673037
Si Si5 0.892348 0.574308 0.171338
O O1 0.206966 0.724901 0.075246
O O2 0.157273 0.009833 0.099559
O O3 0.128085 0.891501 0.926974
O O4 0.016501 0.799171 0.018534
O O5 0.142879 0.687684 0.612093
O O6 0.113099 0.645419 0.428948
O O7 0.000000 0.500000 0.500000
O O8 0.835919 0.866697 0.737442
O O9 0.868794 0.616572 0.654536
O O10 0.810829 0.343666 0.703210
O O11 0.000000 0.595322 0.250000
#
# Coordination Sequence:
#
# PCOD9293027 Si02
#       5
#     8   8   8   8   8
#     4  10  23  45  68 104 138 184 235 287 345 426
#     4  12  23  43  71 102 140 178 233 293 352 418
#     4  10  22  44  71  97 141 187 228 286 358 408
#     4  11  25  44  71 103 142 185 234 288 350 421
#     4  11  23  44  68 103 136 183 237 284 348 420
#
# _framework density 23.304214000000002
#
# number of rings (size 3 to 8) (size 9 to 14) (size 15 to 20)
#    0.000    1.200    2.000    3.600    0.000    1.600 
#   10.800    0.000    0.000    0.000    0.000    0.000 
#    0.000    0.000    0.000    0.000    0.000    0.000 
#
# Total GULP energy -112063.828938 kJ/mol
# GULP energy per Si atom -5603.191447 kJ/mol
# Density = 2.325117 g / cm^3
# Si number density = 23.304214 Si / 1000 Ang^3
#
#
#
# Elastic Constant Matrix: (Units=GPa)
#
#
# Indices 1 2 3 4 5 6 
#
# 1 103.9411 39.8309 47.7857 0.0000 -4.0420 0.0000
# 2 39.8309 47.5920 36.2464 0.0000 -8.4712 0.0000
# 3 47.7857 36.2464 163.9046 0.0000 -38.8924 0.0000
# 4 0.0000 0.0000 0.0000 29.4475 0.0000 -4.5683
# 5 -4.0420 -8.4712 -38.8924 0.0000 63.0298 0.0000
# 6 0.0000 0.0000 0.0000 -4.5683 0.0000 31.6213
#
#
#
# Elastic Compliance Matrix: (Units=1/GPa)
#
#
# Indices 1 2 3 4 5 6 
#
# 1 0.014835 -0.010963 -0.002372 0.000000 -0.001986 0.000000
# 2 -0.010963 0.033369 -0.003849 0.000000 0.001407 0.000000
# 3 -0.002372 -0.003849 0.008769 0.000000 0.004741 0.000000
# 4 0.000000 0.000000 0.000000 0.034737 0.000000 0.005019
# 5 -0.001986 0.001407 0.004741 0.000000 0.018853 0.000000
# 6 0.000000 0.000000 0.000000 0.005019 0.000000 0.032349
#
#
# Mechanical properties :
#
#
# Convention : Reuss Voigt Hill
#
# Bulk Modulus (GPa) = 44.23833 62.57371 53.40602
# Shear Modulus (GPa) = 27.05394 37.59138 32.32266
#
# Velocity S-wave (km/s) = 3.41090 4.02066 3.72827
# Velocity P-wave (km/s) = 5.87678 6.96157 6.44205
#
# Compressibility (1/GPa) = 0.02260483
#
# Stress axis : x y z
#
# Youngs Moduli (GPa) = 67.40772 29.96784 114.03831
#
# Poissons Ratio (x) = 0.32853 0.27049
# Poissons Ratio (y) = 0.73898 0.43898
# Poissons Ratio (z) = 0.15989 0.11536
#
# Static dielectric constant tensor:
#      x y z
#    x 1.840150 0.000000 0.012890 
#    y 0.000000 1.957250 0.000000 
#    z 0.012890 0.000000 1.850100 
# 
# From -- ./inp_files/150779.got.cif
#   From: 2010.05.17/outbox.cif.g08.bks.cpg/sg15_76_cif.got.tgz:150779.got - 2010.06.03 18:47:42.
