data_PCOD9293964
_publ_section_title
;
Structure prediction by ZEFSAII (Michael W. Deem and Ramdas Pophale) SiO2 
 PCOD9293964
Probable space group: C 2/C
;
_chemical_formula_sum "Si O2"
_cell_formula_units_Z 48
_cell_length_a 15.695905
_cell_length_b 10.606120
_cell_length_c 26.129703
_cell_angle_alpha 90.000000
_cell_angle_beta 34.186091
_cell_angle_gamma 90.000000
_cell_volume 2444.122337
_symmetry_space_group_name_H-M "C 2/C"
_symmetry_group_IT_number 15
_symmetry_cell_setting 'monoclinic'
loop_
_space_group_symop_operation_xyz
x,y,z
-x,y,1/2-z
-x,-y,-z
x,-y,1/2+z
1/2+x,1/2+y,z
1/2-x,1/2+y,1/2-z
1/2-x,1/2-y,-z
1/2+x,1/2-y,1/2+z
loop_
_atom_site_type_symbol
_atom_site_label
_atom_site_fract_x
_atom_site_fract_y
_atom_site_fract_z
Si Si1 0.586345 0.563066 0.320527
Si Si2 0.000000 0.716390 0.250000
Si Si3 0.209164 0.119731 0.076151
Si Si4 0.143982 0.500497 0.246312
Si Si5 0.000000 0.703324 0.750000
Si Si6 0.967222 0.668326 0.613983
Si Si7 0.260047 0.577858 0.853805
O O1 0.404488 0.549710 0.406873
O O2 0.683565 0.508696 0.319432
O O3 0.608835 0.713382 0.318985
O O4 0.652069 0.498977 0.235838
O O5 0.931979 0.625311 0.239793
O O6 0.863491 0.813742 0.327548
O O7 0.095348 0.210903 0.163860
O O8 0.274107 0.020847 0.084993
O O9 0.355304 0.189506 0.981797
O O10 0.051770 0.455302 0.341908
O O11 0.118218 0.389705 0.218554
O O12 0.880588 0.643003 0.604354
#
# Coordination Sequence:
#
# PCOD9293964 Si02
#       7
#     8   4   8   8   4   8   8
#     4  11  20  37  61  85 116 154 193 238 291 340
#     4  11  19  40  60  78 121 157 190 232 294 355
#     4  12  21  39  63  86 118 154 195 245 286 344
#     4  10  23  37  59  87 115 155 194 241 289 348
#     4  11  21  40  60  86 115 157 200 234 296 347
#     4  11  23  38  60  93 116 147 202 244 285 339
#     4  11  21  39  62  86 117 158 196 227 295 354
#
# _framework density 19.638953000000001
#
# number of rings (size 3 to 8) (size 9 to 14) (size 15 to 20)
#    0.000    1.000    6.667    1.000    0.000    0.000 
#    0.000    3.333    0.000    0.000    0.000    0.000 
#    0.000    0.000    0.000    0.000    0.000    0.000 
#
# Total GULP energy -133710.106643 kJ/mol
# GULP energy per Si atom -5571.254443 kJ/mol
# Density = 1.959425 g / cm^3
# Si number density = 19.638953 Si / 1000 Ang^3
#
#
#
# Elastic Constant Matrix: (Units=GPa)
#
#
# Indices 1 2 3 4 5 6 
#
# 1 124.5471 18.4090 9.3607 0.0000 -25.7521 0.0000
# 2 18.4090 69.6949 9.4771 0.0000 -1.7774 0.0000
# 3 9.3607 9.4771 53.7444 0.0000 -23.6717 0.0000
# 4 0.0000 0.0000 0.0000 5.1093 0.0000 -11.4997
# 5 -25.7521 -1.7774 -23.6717 0.0000 25.3567 0.0000
# 6 0.0000 0.0000 0.0000 -11.4997 0.0000 29.8694
#
#
#
# Elastic Compliance Matrix: (Units=1/GPa)
#
#
# Indices 1 2 3 4 5 6 
#
# 1 0.011691 -0.003497 0.006287 0.000000 0.017498 0.000000
# 2 -0.003497 0.015830 -0.005533 0.000000 -0.007607 0.000000
# 3 0.006287 -0.005533 0.035883 0.000001 0.039496 0.000001
# 4 0.000000 0.000000 0.000001 1.466335 0.000001 0.564536
# 5 0.017498 -0.007607 0.039496 0.000001 0.093546 0.000001
# 6 0.000000 0.000000 0.000001 0.564536 0.000001 0.250824
#
#
# Mechanical properties :
#
#
# Convention : Reuss Voigt Hill
#
# Bulk Modulus (GPa) = 17.26515 35.83112 26.54814
# Shear Modulus (GPa) = 2.63310 26.11640 14.37475
#
# Velocity S-wave (km/s) = 1.15917 3.65064 2.70839
# Velocity P-wave (km/s) = 3.25606 6.00450 4.82990
#
# Compressibility (1/GPa) = 0.05792014
#
# Stress axis : x y z
#
# Youngs Moduli (GPa) = 85.53278 63.17012 27.86822
#
# Poissons Ratio (x) = 0.22090 -0.17522
# Poissons Ratio (y) = 0.29910 0.15419
# Poissons Ratio (z) = -0.53777 0.34951
#
# Static dielectric constant tensor:
#      x y z
#    x 1.767040 0.000000 -0.003120 
#    y 0.000000 1.700710 0.000000 
#    z -0.003120 0.000000 1.674090 
# 
# From -- ./inp_files/152133.got.cif
#   From: 2010.05.17/outbox.cif.g08.bks.cpg/sg15_77_cif.got.tgz:152133.got - 2010.06.03 18:47:42.
