data_PCOD9293781
_publ_section_title
;
Structure prediction by ZEFSAII (Michael W. Deem and Ramdas Pophale) SiO2 
 PCOD9293781
Probable space group: C 2/C
;
_chemical_formula_sum "Si O2"
_cell_formula_units_Z 52
_cell_length_a 12.225342
_cell_length_b 13.661751
_cell_length_c 15.749893
_cell_angle_alpha 90.000000
_cell_angle_beta 66.308454
_cell_angle_gamma 90.000000
_cell_volume 2408.843509
_symmetry_space_group_name_H-M "C 2/C"
_symmetry_group_IT_number 15
_symmetry_cell_setting 'monoclinic'
loop_
_space_group_symop_operation_xyz
x,y,z
-x,y,1/2-z
-x,-y,-z
x,-y,1/2+z
1/2+x,1/2+y,z
1/2-x,1/2+y,1/2-z
1/2-x,1/2-y,-z
1/2+x,1/2-y,1/2+z
loop_
_atom_site_type_symbol
_atom_site_label
_atom_site_fract_x
_atom_site_fract_y
_atom_site_fract_z
Si Si1 0.500000 0.730210 0.750000
Si Si2 0.866997 0.403719 0.710167
Si Si3 0.144690 0.935554 0.883009
Si Si4 0.507876 0.739256 0.146513
Si Si5 0.430195 0.572735 0.907037
Si Si6 0.960810 0.450783 0.423752
Si Si7 0.727263 0.604682 0.078030
O O1 0.402752 0.801468 0.739874
O O2 0.446495 0.663438 0.840780
O O3 0.771463 0.454416 0.801347
O O4 0.804008 0.381955 0.639227
O O5 0.982467 0.472281 0.659317
O O6 0.085362 0.842997 0.853703
O O7 0.140377 0.908884 0.983639
O O8 0.057994 0.028185 0.895052
O O9 0.500000 0.752027 0.250000
O O10 0.485552 0.843061 0.108983
O O11 0.639375 0.694519 0.084723
O O12 0.361100 0.486715 0.879543
O O13 0.819798 0.428124 0.475880
O O14 0.000000 0.500000 0.500000
#
# Coordination Sequence:
#
# PCOD9293781 Si02
#       7
#     4   8   8   8   8   8   8
#     4  12  28  42  68 100 142 180 230 284 352 420
#     4  11  25  44  63  99 140 179 224 286 342 411
#     4  10  23  44  72 101 135 174 237 282 345 414
#     4  11  22  41  72 104 130 182 238 287 344 412
#     4  10  24  45  73 100 131 184 226 288 345 410
#     4  10  25  42  64  96 143 181 222 285 346 407
#     4  10  22  47  71  97 135 180 232 287 341 416
#
# _framework density 21.587122000000001
#
# number of rings (size 3 to 8) (size 9 to 14) (size 15 to 20)
#    0.000    1.538    1.538    1.385    9.692    4.308 
#    2.769    0.000    0.000    0.000    0.000    0.000 
#    0.000    0.000    0.000    0.000    0.000    0.000 
#
# Total GULP energy -145333.580076 kJ/mol
# GULP energy per Si atom -5589.753080 kJ/mol
# Density = 2.153799 g / cm^3
# Si number density = 21.587122 Si / 1000 Ang^3
#
#
#
# Elastic Constant Matrix: (Units=GPa)
#
#
# Indices 1 2 3 4 5 6 
#
# 1 61.6895 22.2526 34.0475 0.0000 -1.9405 0.0000
# 2 22.2526 107.5860 51.4993 0.0000 -2.1516 0.0000
# 3 34.0475 51.4993 133.0558 0.0000 -5.8798 0.0000
# 4 0.0000 0.0000 0.0000 39.7700 0.0000 12.3415
# 5 -1.9405 -2.1516 -5.8798 0.0000 42.9831 0.0000
# 6 0.0000 0.0000 0.0000 12.3415 0.0000 15.7516
#
#
#
# Elastic Compliance Matrix: (Units=1/GPa)
#
#
# Indices 1 2 3 4 5 6 
#
# 1 0.019219 -0.001990 -0.004139 0.000000 0.000202 0.000000
# 2 -0.001990 0.011615 -0.003989 0.000000 -0.000054 0.000000
# 3 -0.004139 -0.003989 0.010163 0.000000 0.001004 0.000000
# 4 0.000000 0.000000 0.000000 0.033222 0.000000 -0.026030
# 5 0.000202 -0.000054 0.001004 0.000000 0.023409 0.000000
# 6 0.000000 0.000000 0.000000 -0.026030 0.000000 0.083880
#
#
# Mechanical properties :
#
#
# Convention : Reuss Voigt Hill
#
# Bulk Modulus (GPa) = 48.16596 57.54780 52.85688
# Shear Modulus (GPa) = 23.96219 32.66974 28.31597
#
# Velocity S-wave (km/s) = 3.33531 3.89445 3.62568
# Velocity P-wave (km/s) = 6.09862 6.85118 6.48582
#
# Compressibility (1/GPa) = 0.02076155
#
# Stress axis : x y z
#
# Youngs Moduli (GPa) = 52.03298 86.09785 98.39747
#
# Poissons Ratio (x) = 0.17133 0.40724
# Poissons Ratio (y) = 0.10354 0.39247
# Poissons Ratio (z) = 0.21535 0.34342
#
# Static dielectric constant tensor:
#      x y z
#    x 1.805900 0.000000 -0.015500 
#    y 0.000000 1.747850 0.000000 
#    z -0.015500 0.000000 1.806830 
# 
# From -- ./inp_files/144190.got.cif
#   From: 2010.05.17/outbox.cif.g08.bks.cpg/sg15_73_cif.got.tgz:144190.got - 2010.06.03 18:47:42.
