data_PCOD9293924
_publ_section_title
;
Structure prediction by ZEFSAII (Michael W. Deem and Ramdas Pophale) SiO2 
 PCOD9293924
Probable space group: C 2/C
;
_chemical_formula_sum "Si O2"
_cell_formula_units_Z 48
_cell_length_a 10.555307
_cell_length_b 19.423399
_cell_length_c 11.639683
_cell_angle_alpha 90.000000
_cell_angle_beta 100.813274
_cell_angle_gamma 90.000000
_cell_volume 2343.994323
_symmetry_space_group_name_H-M "C 2/C"
_symmetry_group_IT_number 15
_symmetry_cell_setting 'monoclinic'
loop_
_space_group_symop_operation_xyz
x,y,z
-x,y,1/2-z
-x,-y,-z
x,-y,1/2+z
1/2+x,1/2+y,z
1/2-x,1/2+y,1/2-z
1/2-x,1/2-y,-z
1/2+x,1/2-y,1/2+z
loop_
_atom_site_type_symbol
_atom_site_label
_atom_site_fract_x
_atom_site_fract_y
_atom_site_fract_z
Si Si1 0.850772 0.947599 0.261961
Si Si2 0.375509 0.599084 0.320341
Si Si3 0.931915 0.724736 0.120189
Si Si4 0.357492 0.718394 0.182271
Si Si5 0.655394 0.677810 0.569765
Si Si6 0.777847 0.140697 0.543232
O O1 0.853252 0.893794 0.366636
O O2 0.000000 0.950173 0.250000
O O3 0.813353 0.024771 0.290800
O O4 0.772014 0.916365 0.141462
O O5 0.500000 0.599130 0.250000
O O6 0.299990 0.667750 0.268134
O O7 0.375070 0.613121 0.458322
O O8 0.855777 0.666079 0.037225
O O9 0.000000 0.703184 0.250000
O O10 0.047331 0.763681 0.073220
O O11 0.834871 0.790482 0.114190
O O12 0.500000 0.736156 0.250000
O O13 0.283865 0.786799 0.138812
O O14 0.347625 0.671962 0.066606
#
# Coordination Sequence:
#
# PCOD9293924 Si02
#       6
#     8   8   8   8   8   8
#     4  11  23  36  59  90 121 151 196 250 292 353
#     4  10  23  36  58  84 123 155 191 239 305 355
#     4  11  20  35  61  89 118 146 202 251 284 346
#     4  10  23  38  60  86 119 157 191 240 298 355
#     4  11  21  38  60  87 118 152 199 243 290 344
#     4  11  22  36  60  88 117 159 194 244 302 343
#
# _framework density 20.477864
#
# number of rings (size 3 to 8) (size 9 to 14) (size 15 to 20)
#    0.000    1.333    3.333    3.000    7.000    1.333 
#    0.000    0.000    0.000    7.000    0.000    0.000 
#    0.000    0.000    0.000    0.000    0.000    0.000 
#
# Total GULP energy -133687.856791 kJ/mol
# GULP energy per Si atom -5570.327366 kJ/mol
# Density = 2.043126 g / cm^3
# Si number density = 20.477864 Si / 1000 Ang^3
#
#
#
# Elastic Constant Matrix: (Units=GPa)
#
#
# Indices 1 2 3 4 5 6 
#
# 1 35.2374 21.2609 25.4003 0.0000 19.3505 0.0000
# 2 21.2609 105.3719 51.3883 0.0000 17.4101 0.0000
# 3 25.4003 51.3883 126.8442 0.0000 22.2998 0.0000
# 4 0.0000 0.0000 0.0000 16.8179 0.0000 -4.3078
# 5 19.3505 17.4101 22.2998 0.0000 38.0555 0.0000
# 6 0.0000 0.0000 0.0000 -4.3078 0.0000 14.0753
#
#
#
# Elastic Compliance Matrix: (Units=1/GPa)
#
#
# Indices 1 2 3 4 5 6 
#
# 1 0.043457 -0.003855 -0.003975 0.000000 -0.018004 0.000000
# 2 -0.003855 0.012463 -0.004035 0.000000 -0.001377 0.000000
# 3 -0.003975 -0.004035 0.010741 0.000000 -0.002427 0.000000
# 4 0.000000 0.000000 0.000000 0.064518 0.000000 0.019746
# 5 -0.018004 -0.001377 -0.002427 0.000000 0.037484 0.000000
# 6 0.000000 0.000000 0.000000 0.019746 0.000000 0.077090
#
#
# Mechanical properties :
#
#
# Convention : Reuss Voigt Hill
#
# Bulk Modulus (GPa) = 23.29318 51.50586 37.39952
# Shear Modulus (GPa) = 17.61832 25.08335 21.35084
#
# Velocity S-wave (km/s) = 2.93637 3.50366 3.23248
# Velocity P-wave (km/s) = 4.78496 6.44779 5.67758
#
# Compressibility (1/GPa) = 0.04293102
#
# Stress axis : x y z
#
# Youngs Moduli (GPa) = 23.01102 80.23430 93.09988
#
# Poissons Ratio (x) = 0.30930 0.37010
# Poissons Ratio (y) = 0.08871 0.37568
# Poissons Ratio (z) = 0.09148 0.32377
#
# Static dielectric constant tensor:
#      x y z
#    x 1.845870 0.000000 -0.017930 
#    y 0.000000 1.721310 0.000000 
#    z -0.017930 0.000000 1.756240 
# 
# From -- ./inp_files/89170.got.cif
#   From: 2010.05.17/outbox.cif.g08.bks.cpg/sg15_45_cif.got.tgz:89170.got - 2010.06.03 18:47:42.
