data_PCOD9293947
_publ_section_title
;
Structure prediction by ZEFSAII (Michael W. Deem and Ramdas Pophale) SiO2 
 PCOD9293947
Probable space group: C 2/C
;
_chemical_formula_sum "Si O2"
_cell_formula_units_Z 44
_cell_length_a 13.445647
_cell_length_b 30.161504
_cell_length_c 12.074361
_cell_angle_alpha 90.000000
_cell_angle_beta 22.495408
_cell_angle_gamma 90.000000
_cell_volume 1873.503356
_symmetry_space_group_name_H-M "C 2/C"
_symmetry_group_IT_number 15
_symmetry_cell_setting 'monoclinic'
loop_
_space_group_symop_operation_xyz
x,y,z
-x,y,1/2-z
-x,-y,-z
x,-y,1/2+z
1/2+x,1/2+y,z
1/2-x,1/2+y,1/2-z
1/2-x,1/2-y,-z
1/2+x,1/2-y,1/2+z
loop_
_atom_site_type_symbol
_atom_site_label
_atom_site_fract_x
_atom_site_fract_y
_atom_site_fract_z
Si Si1 0.500000 0.397137 0.250000
Si Si2 0.297050 0.648994 0.181670
Si Si3 0.753557 0.535644 0.631876
Si Si4 0.966337 0.281113 0.911070
Si Si5 0.446413 0.719684 0.429571
Si Si6 0.726218 0.945439 0.810740
O O1 0.421327 0.367897 0.437363
O O2 0.276059 0.431364 0.440507
O O3 0.045998 0.677351 0.404039
O O4 0.484754 0.680904 0.056989
O O5 0.234421 0.606782 0.322620
O O6 0.780273 0.482639 0.586639
O O7 0.983479 0.547754 0.478704
O O8 0.485454 0.543922 0.973971
O O9 0.191332 0.243997 0.698511
O O10 0.000000 0.296653 0.750000
O O11 0.500000 0.703481 0.250000
O O12 0.161130 0.741349 0.726900
#
# Coordination Sequence:
#
# PCOD9293947 Si02
#       6
#     4   8   8   8   8   8
#     4  10  24  36  64  98 138 168 200 262 332 398
#     4  11  23  38  65  99 126 170 218 264 312 394
#     4   9  19  39  54  84 121 168 197 249 311 372
#     4  10  23  37  52  80 130 168 195 241 309 379
#     4  10  23  46  69  90 126 173 221 274 320 363
#     4   9  20  36  60  80 120 161 213 248 297 369
#
# _framework density 23.485415
#
# number of rings (size 3 to 8) (size 9 to 14) (size 15 to 20)
#    0.000    2.182    0.000    1.091    6.364    6.545 
#    1.636    0.000    0.000    0.000    0.000    0.000 
#    0.000    0.000    0.000    0.000    0.000    0.000 
#
# Total GULP energy -122993.313982 kJ/mol
# GULP energy per Si atom -5590.605181 kJ/mol
# Density = 2.343196 g / cm^3
# Si number density = 23.485415 Si / 1000 Ang^3
#
#
#
# Elastic Constant Matrix: (Units=GPa)
#
#
# Indices 1 2 3 4 5 6 
#
# 1 121.3871 64.4401 27.5255 0.0018 -9.3568 0.0000
# 2 64.4401 180.8442 37.8908 -0.0001 -6.1938 0.0002
# 3 27.5255 37.8908 145.2693 0.0121 -28.2552 -0.0040
# 4 0.0018 -0.0001 0.0121 8.2041 -0.0037 -12.2426
# 5 -9.3568 -6.1938 -28.2552 -0.0037 36.0465 0.0005
# 6 0.0000 0.0002 -0.0040 -12.2426 0.0005 43.6304
#
#
#
# Elastic Compliance Matrix: (Units=1/GPa)
#
#
# Indices 1 2 3 4 5 6 
#
# 1 0.010378 -0.003486 -0.000766 -0.000001 0.001494 0.000000
# 2 -0.003486 0.007022 -0.001312 0.000004 -0.000727 0.000001
# 3 -0.000766 -0.001312 0.008600 -0.000015 0.006317 -0.000003
# 4 -0.000001 0.000004 -0.000015 0.209694 0.000009 0.058840
# 5 0.001494 -0.000727 0.006317 0.000009 0.032956 0.000003
# 6 0.000000 0.000001 -0.000003 0.058840 0.000003 0.039430
#
#
# Mechanical properties :
#
#
# Convention : Reuss Voigt Hill
#
# Bulk Modulus (GPa) = 67.25168 78.57924 72.91546
# Shear Modulus (GPa) = 15.42416 38.75248 27.08832
#
# Velocity S-wave (km/s) = 2.56550 4.06651 3.39987
# Velocity P-wave (km/s) = 6.12155 7.45520 6.82105
#
# Compressibility (1/GPa) = 0.01486952
#
# Stress axis : x y z
#
# Youngs Moduli (GPa) = 96.36014 142.41146 116.28020
#
# Poissons Ratio (x) = 0.49646 0.08913
# Poissons Ratio (y) = 0.33592 0.15261
# Poissons Ratio (z) = 0.07386 0.18690
#
# Static dielectric constant tensor:
#      x y z
#    x 1.962590 0.000000 0.092130 
#    y 0.000000 1.938080 -0.000010 
#    z 0.092130 -0.000010 1.945660 
# 
# From -- ./inp_files/157512.got.cif
#   From: 2010.05.17/outbox.cif.g08.bks.cpg/sg15_79_cif.got.tgz:157512.got - 2010.06.03 18:47:42.
