data_PCOD9293401
_publ_section_title
;
Structure prediction by ZEFSAII (Michael W. Deem and Ramdas Pophale) SiO2 
 PCOD9293401
Probable space group: C 2/C
;
_chemical_formula_sum "Si O2"
_cell_formula_units_Z 32
_cell_length_a 7.857140
_cell_length_b 12.132280
_cell_length_c 13.870762
_cell_angle_alpha 90.000000
_cell_angle_beta 105.331141
_cell_angle_gamma 90.000000
_cell_volume 1275.177609
_symmetry_space_group_name_H-M "C 2/C"
_symmetry_group_IT_number 15
_symmetry_cell_setting 'monoclinic'
loop_
_space_group_symop_operation_xyz
x,y,z
-x,y,1/2-z
-x,-y,-z
x,-y,1/2+z
1/2+x,1/2+y,z
1/2-x,1/2+y,1/2-z
1/2-x,1/2-y,-z
1/2+x,1/2-y,1/2+z
loop_
_atom_site_type_symbol
_atom_site_label
_atom_site_fract_x
_atom_site_fract_y
_atom_site_fract_z
Si Si1 0.554350 0.033465 0.398395
Si Si2 0.823636 0.863426 0.468519
Si Si3 0.106541 0.229659 0.864025
Si Si4 0.179258 0.000592 0.838598
O O1 0.657232 0.149387 0.407682
O O2 0.359577 0.051884 0.323775
O O3 0.500000 0.000000 0.500000
O O4 0.679510 0.933420 0.386515
O O5 0.750000 0.750000 0.500000
O O6 0.865343 0.940537 0.566798
O O7 0.980451 0.826215 0.424084
O O8 0.000000 0.245914 0.750000
O O9 0.235543 0.129108 0.859179
O O10 0.000000 0.993877 0.750000
#
# Coordination Sequence:
#
# PCOD9293401 Si02
#       4
#     8   8   8   8
#     4  10  22  45  72  96 137 179 234 287 342 409
#     4  11  22  47  74  99 139 187 234 282 349 416
#     4  11  24  44  68 108 139 179 236 284 353 412
#     4  10  23  45  69 105 141 182 234 288 351 405
#
# _framework density 25.094545
#
# number of rings (size 3 to 8) (size 9 to 14) (size 15 to 20)
#    0.000    1.500    5.000    0.750    0.000    8.000 
#   13.500    1.250    0.000    0.000    0.000    0.000 
#    0.000    0.000    0.000    0.000    0.000    0.000 
#
# Total GULP energy -89442.142746 kJ/mol
# GULP energy per Si atom -5590.133922 kJ/mol
# Density = 2.503743 g / cm^3
# Si number density = 25.094545 Si / 1000 Ang^3
#
#
#
# Elastic Constant Matrix: (Units=GPa)
#
#
# Indices 1 2 3 4 5 6 
#
# 1 94.4290 30.5662 14.8738 0.0000 19.4565 0.0000
# 2 30.5662 200.7955 36.5437 0.0000 -4.6809 0.0000
# 3 14.8738 36.5437 115.3014 0.0000 22.6641 0.0000
# 4 0.0000 0.0000 0.0000 36.2917 0.0000 -0.6263
# 5 19.4565 -4.6809 22.6641 0.0000 35.7447 0.0000
# 6 0.0000 0.0000 0.0000 -0.6263 0.0000 46.4636
#
#
#
# Elastic Compliance Matrix: (Units=1/GPa)
#
#
# Indices 1 2 3 4 5 6 
#
# 1 0.012790 -0.002224 0.000549 0.000000 -0.007601 0.000000
# 2 -0.002224 0.005800 -0.002215 0.000000 0.003374 0.000000
# 3 0.000549 -0.002215 0.010761 0.000000 -0.007412 0.000000
# 4 0.000000 0.000000 0.000000 0.027561 0.000000 0.000371
# 5 -0.007601 0.003374 -0.007412 0.000000 0.037255 0.000000
# 6 0.000000 0.000000 0.000000 0.000371 0.000000 0.021527
#
#
# Mechanical properties :
#
#
# Convention : Reuss Voigt Hill
#
# Bulk Modulus (GPa) = 46.35737 63.83259 55.09498
# Shear Modulus (GPa) = 38.26606 45.60281 41.93443
#
# Velocity S-wave (km/s) = 3.90920 4.26753 4.09229
# Velocity P-wave (km/s) = 6.23610 7.05511 6.65821
#
# Compressibility (1/GPa) = 0.02157154
#
# Stress axis : x y z
#
# Youngs Moduli (GPa) = 78.18911 172.39913 92.92837
#
# Poissons Ratio (x) = 0.38342 -0.05103
# Poissons Ratio (y) = 0.17389 0.20582
# Poissons Ratio (z) = -0.04293 0.38183
#
# Static dielectric constant tensor:
#      x y z
#    x 2.007090 0.000000 0.018210 
#    y 0.000000 2.013580 0.000000 
#    z 0.018210 0.000000 2.137200 
# 
# From -- ./inp_files/131941.got.cif
#   From: 2010.05.17/outbox.cif.g08.bks.cpg/sg15_66_cif.got.tgz:131941.got - 2010.06.03 18:47:42.
