data_PCOD9293124
_publ_section_title
;
Structure prediction by ZEFSAII (Michael W. Deem and Ramdas Pophale) SiO2 
 PCOD9293124
Probable space group: C 2/C
;
_chemical_formula_sum "Si O2"
_cell_formula_units_Z 36
_cell_length_a 8.602683
_cell_length_b 16.962190
_cell_length_c 13.028676
_cell_angle_alpha 90.000000
_cell_angle_beta 127.878461
_cell_angle_gamma 90.000000
_cell_volume 1500.605241
_symmetry_space_group_name_H-M "C 2/C"
_symmetry_group_IT_number 15
_symmetry_cell_setting 'monoclinic'
loop_
_space_group_symop_operation_xyz
x,y,z
-x,y,1/2-z
-x,-y,-z
x,-y,1/2+z
1/2+x,1/2+y,z
1/2-x,1/2+y,1/2-z
1/2-x,1/2-y,-z
1/2+x,1/2-y,1/2+z
loop_
_atom_site_type_symbol
_atom_site_label
_atom_site_fract_x
_atom_site_fract_y
_atom_site_fract_z
Si Si1 0.000000 0.390428 0.750000
Si Si2 0.465877 0.218340 0.052668
Si Si3 0.719043 0.850922 0.365964
Si Si4 0.300883 0.611503 0.682464
Si Si5 0.177490 0.495051 0.487638
O O1 0.931771 0.331647 0.813899
O O2 0.135693 0.449364 0.871843
O O3 0.615362 0.283481 0.070267
O O4 0.250000 0.250000 0.000000
O O5 0.387221 0.159469 0.933514
O O6 0.500000 0.819483 0.250000
O O7 0.762869 0.906035 0.284621
O O8 0.725022 0.908741 0.465509
O O9 0.500000 0.662095 0.750000
O O10 0.338354 0.540134 0.619610
O O11 0.000000 0.500000 0.500000
#
# Coordination Sequence:
#
# PCOD9293124 Si02
#       5
#     4   8   8   8   8
#     4  10  22  44  74 102 148 204 242 312 386 450
#     4  11  23  43  74 108 152 200 251 312 386 461
#     4  12  24  45  77 110 155 197 255 320 388 455
#     4  11  23  43  73 108 153 200 253 310 385 457
#     4  11  22  45  74 109 151 197 254 319 380 462
#
# _framework density 23.990319
#
# number of rings (size 3 to 8) (size 9 to 14) (size 15 to 20)
#    0.000    0.889    5.556    1.333    0.000    1.778 
#    4.000    0.000    0.000    0.000    0.000    0.000 
#    0.000    0.000    0.000    0.000    0.000    0.000 
#
# Total GULP energy -100371.145485 kJ/mol
# GULP energy per Si atom -5576.174749 kJ/mol
# Density = 2.393572 g / cm^3
# Si number density = 23.990319 Si / 1000 Ang^3
#
#
#
# Elastic Constant Matrix: (Units=GPa)
#
#
# Indices 1 2 3 4 5 6 
#
# 1 134.2550 74.3069 55.4215 0.0000 2.7457 0.0000
# 2 74.3069 155.9835 53.2565 0.0000 4.9178 0.0000
# 3 55.4215 53.2565 139.5763 0.0000 -3.4905 0.0000
# 4 0.0000 0.0000 0.0000 25.4771 0.0000 -14.7648
# 5 2.7457 4.9178 -3.4905 0.0000 41.5679 0.0000
# 6 0.0000 0.0000 0.0000 -14.7648 0.0000 51.6462
#
#
#
# Elastic Compliance Matrix: (Units=1/GPa)
#
#
# Indices 1 2 3 4 5 6 
#
# 1 0.010947 -0.004269 -0.002729 0.000000 -0.000447 0.000000
# 2 -0.004269 0.009088 -0.001796 0.000000 -0.000944 0.000000
# 3 -0.002729 -0.001796 0.008962 0.000000 0.001145 0.000000
# 4 0.000000 0.000000 0.000000 0.047045 0.000000 0.013449
# 5 -0.000447 -0.000944 0.001145 0.000000 0.024294 0.000000
# 6 0.000000 0.000000 0.000000 0.013449 0.000000 0.023208
#
#
# Mechanical properties :
#
#
# Convention : Reuss Voigt Hill
#
# Bulk Modulus (GPa) = 87.65305 88.42051 88.03678
# Shear Modulus (GPa) = 34.49829 40.19356 37.34593
#
# Velocity S-wave (km/s) = 3.79622 4.09761 3.94979
# Velocity P-wave (km/s) = 7.47203 7.70221 7.58799
#
# Compressibility (1/GPa) = 0.01140862
#
# Stress axis : x y z
#
# Youngs Moduli (GPa) = 91.34884 110.04074 111.58172
#
# Poissons Ratio (x) = 0.46977 0.30451
# Poissons Ratio (y) = 0.38997 0.20039
# Poissons Ratio (z) = 0.24929 0.19762
#
# Static dielectric constant tensor:
#      x y z
#    x 2.056070 0.000000 0.115770 
#    y 0.000000 2.097630 0.000000 
#    z 0.115770 0.000000 2.174450 
# 
# From -- ./inp_files/78014.got.cif
#   From: 2010.05.17/outbox.cif.g08.bks.cpg/sg15_40_cif.got.tgz:78014.got - 2010.06.03 18:47:42.
