data_PCOD9293312
_publ_section_title
;
Structure prediction by ZEFSAII (Michael W. Deem and Ramdas Pophale) SiO2 
 PCOD9293312
Probable space group: C 2/C
;
_chemical_formula_sum "Si O2"
_cell_formula_units_Z 40
_cell_length_a 26.243434
_cell_length_b 5.193862
_cell_length_c 14.171340
_cell_angle_alpha 90.000000
_cell_angle_beta 63.023264
_cell_angle_gamma 90.000000
_cell_volume 1721.443109
_symmetry_space_group_name_H-M "C 2/C"
_symmetry_group_IT_number 15
_symmetry_cell_setting 'monoclinic'
loop_
_space_group_symop_operation_xyz
x,y,z
-x,y,1/2-z
-x,-y,-z
x,-y,1/2+z
1/2+x,1/2+y,z
1/2-x,1/2+y,1/2-z
1/2-x,1/2-y,-z
1/2+x,1/2-y,1/2+z
loop_
_atom_site_type_symbol
_atom_site_label
_atom_site_fract_x
_atom_site_fract_y
_atom_site_fract_z
Si Si1 0.496012 0.522654 0.864248
Si Si2 0.723213 0.448160 0.947612
Si Si3 0.381049 0.801384 0.006935
Si Si4 0.840003 0.642994 0.868135
Si Si5 0.563145 0.956929 0.359234
O O1 0.500000 0.458648 0.750000
O O2 0.431606 0.600897 0.943963
O O3 0.516121 0.270233 0.903673
O O4 0.535569 0.775800 0.848269
O O5 0.781393 0.573217 0.861627
O O6 0.750000 0.250000 0.000000
O O7 0.679200 0.324095 0.912029
O O8 0.683222 0.632428 0.044566
O O9 0.365232 0.939654 0.922489
O O10 0.405121 0.984326 0.067890
O O11 0.890748 0.665458 0.751583
#
# Coordination Sequence:
#
# PCOD9293312 Si02
#       5
#     8   8   8   8   8
#     4  12  25  45  70  99 140 182 226 279 347 406
#     4   9  21  43  69  94 130 182 222 278 337 399
#     4  11  24  43  69  99 140 176 227 283 340 401
#     4  10  22  45  69  97 138 180 228 278 344 400
#     4  12  27  43  70 106 135 180 230 281 337 413
#
# _framework density 23.236319999999999
#
# number of rings (size 3 to 8) (size 9 to 14) (size 15 to 20)
#    0.000    1.200    2.000    3.000    8.400    0.000 
#   10.800    0.000    0.000    0.000    0.000    0.000 
#    0.000    0.000    0.000    0.000    0.000    0.000 
#
# Total GULP energy -111741.050445 kJ/mol
# GULP energy per Si atom -5587.052522 kJ/mol
# Density = 2.318343 g / cm^3
# Si number density = 23.236320 Si / 1000 Ang^3
#
#
#
# Elastic Constant Matrix: (Units=GPa)
#
#
# Indices 1 2 3 4 5 6 
#
# 1 164.9996 30.1970 38.7417 -0.0001 -8.1809 -0.0003
# 2 30.1970 57.0741 -6.7801 0.0005 -9.8747 0.0011
# 3 38.7417 -6.7801 57.9256 -0.0001 -10.7152 -0.0001
# 4 -0.0001 0.0005 -0.0001 14.9405 -0.0001 -6.5394
# 5 -8.1809 -9.8747 -10.7152 -0.0001 32.5205 -0.0001
# 6 -0.0003 0.0011 -0.0001 -6.5394 -0.0001 32.2407
#
#
#
# Elastic Compliance Matrix: (Units=1/GPa)
#
#
# Indices 1 2 3 4 5 6 
#
# 1 0.008588 -0.005650 -0.006733 0.000000 -0.001774 0.000000
# 2 -0.005650 0.022866 0.007962 -0.000001 0.008145 -0.000001
# 3 -0.006733 0.007962 0.024315 0.000000 0.008735 0.000000
# 4 0.000000 -0.000001 0.000000 0.073453 0.000000 0.014899
# 5 -0.001774 0.008145 0.008735 0.000000 0.035655 0.000000
# 6 0.000000 -0.000001 0.000000 0.014899 0.000000 0.034039
#
#
# Mechanical properties :
#
#
# Convention : Reuss Voigt Hill
#
# Bulk Modulus (GPa) = 21.31044 44.92406 33.11725
# Shear Modulus (GPa) = 22.38147 30.46305 26.42226
#
# Velocity S-wave (km/s) = 3.10693 3.62472 3.37577
# Velocity P-wave (km/s) = 4.69700 6.07401 5.42934
#
# Compressibility (1/GPa) = 0.04692536
#
# Stress axis : x y z
#
# Youngs Moduli (GPa) = 116.44578 43.73360 41.12755
#
# Poissons Ratio (x) = 0.24711 0.27692
# Poissons Ratio (y) = 0.65796 -0.32746
# Poissons Ratio (z) = 0.78404 -0.34821
#
# Static dielectric constant tensor:
#      x y z
#    x 1.930820 0.000000 -0.026340 
#    y 0.000000 1.965540 0.000000 
#    z -0.026340 0.000000 1.859050 
# 
# From -- ./inp_files/170609.got.cif
#   From: 2010.05.17/outbox.cif.g08.bks.cpg/sg15_86_cif.got.tgz:170609.got - 2010.06.03 18:47:42.
