data_PCOD9293827
_publ_section_title
;
Structure prediction by ZEFSAII (Michael W. Deem and Ramdas Pophale) SiO2 
 PCOD9293827
Probable space group: C 2/C
;
_chemical_formula_sum "Si O2"
_cell_formula_units_Z 44
_cell_length_a 22.642792
_cell_length_b 5.250389
_cell_length_c 23.246815
_cell_angle_alpha 90.000000
_cell_angle_beta 144.182553
_cell_angle_gamma 90.000000
_cell_volume 1617.307745
_symmetry_space_group_name_H-M "C 2/C"
_symmetry_group_IT_number 15
_symmetry_cell_setting 'monoclinic'
loop_
_space_group_symop_operation_xyz
x,y,z
-x,y,1/2-z
-x,-y,-z
x,-y,1/2+z
1/2+x,1/2+y,z
1/2-x,1/2+y,1/2-z
1/2-x,1/2-y,-z
1/2+x,1/2-y,1/2+z
loop_
_atom_site_type_symbol
_atom_site_label
_atom_site_fract_x
_atom_site_fract_y
_atom_site_fract_z
Si Si1 0.856577 0.918144 0.528503
Si Si2 0.250000 0.750000 0.500000
Si Si3 0.478121 0.064227 0.142936
Si Si4 0.381924 0.230326 0.816060
Si Si5 0.338524 0.369763 0.184827
Si Si6 0.820026 0.029815 0.375392
O O1 0.919309 0.696613 0.606808
O O2 0.742905 0.994915 0.451829
O O3 0.867028 0.892084 0.468014
O O4 0.894362 0.211066 0.575529
O O5 0.293298 0.563490 0.587883
O O6 0.569334 0.172634 0.251994
O O7 0.540256 0.000468 0.133150
O O8 0.387243 0.412651 0.764113
O O9 0.395321 0.373497 0.886369
O O10 0.266181 0.137594 0.722997
O O11 0.245729 0.259758 0.149114
#
# Coordination Sequence:
#
# PCOD9293827 Si02
#       6
#     8   4   8   8   8   8
#     4  11  26  48  69 106 138 186 232 294 349 426
#     4  10  26  50  76 100 136 190 246 294 338 428
#     4  11  25  47  68 104 148 177 233 288 369 408
#     4  11  21  43  71 103 141 188 226 294 340 429
#     4  10  22  48  68 107 136 188 234 287 347 416
#     4  10  23  38  74 103 140 181 238 274 347 412
#
# _framework density 27.205708999999999
#
# number of rings (size 3 to 8) (size 9 to 14) (size 15 to 20)
#    0.000    1.455    3.636    0.000    5.091    2.909 
#    9.818    0.000    0.000    0.000    0.000    0.000 
#    0.000    0.000    0.000    0.000    0.000    0.000 
#
# Total GULP energy -122640.838183 kJ/mol
# GULP energy per Si atom -5574.583554 kJ/mol
# Density = 2.714379 g / cm^3
# Si number density = 27.205709 Si / 1000 Ang^3
#
#
#
# Elastic Constant Matrix: (Units=GPa)
#
#
# Indices 1 2 3 4 5 6 
#
# 1 125.2513 23.1865 39.1137 0.0018 -18.7040 0.0062
# 2 23.1865 116.3117 29.8909 0.0101 5.9075 0.0307
# 3 39.1137 29.8909 79.6348 -0.0012 -12.6181 0.0002
# 4 0.0018 0.0101 -0.0012 14.6998 -0.0004 14.9342
# 5 -18.7040 5.9075 -12.6181 -0.0004 54.5052 0.0016
# 6 0.0062 0.0307 0.0002 14.9342 0.0016 45.3186
#
#
#
# Elastic Compliance Matrix: (Units=1/GPa)
#
#
# Indices 1 2 3 4 5 6 
#
# 1 0.009816 -0.001053 -0.004022 0.000000 0.002551 -0.000001
# 2 -0.001053 0.009828 -0.003527 -0.000001 -0.002243 -0.000006
# 3 -0.004022 -0.003527 0.016296 0.000002 0.002775 0.000002
# 4 0.000000 -0.000001 0.000002 0.102266 0.000002 -0.033701
# 5 0.002551 -0.002243 0.002775 0.000002 0.020108 0.000000
# 6 -0.000001 -0.000006 0.000002 -0.033701 0.000000 0.033172
#
#
# Mechanical properties :
#
#
# Convention : Reuss Voigt Hill
#
# Bulk Modulus (GPa) = 53.37187 56.17556 54.77372
# Shear Modulus (GPa) = 23.26289 38.17183 30.71736
#
# Velocity S-wave (km/s) = 2.92734 3.74984 3.36382
# Velocity P-wave (km/s) = 5.57550 6.28026 5.93834
#
# Compressibility (1/GPa) = 0.01873646
#
# Stress axis : x y z
#
# Youngs Moduli (GPa) = 101.87693 101.75186 61.36386
#
# Poissons Ratio (x) = 0.10712 0.24679
# Poissons Ratio (y) = 0.10726 0.21644
# Poissons Ratio (z) = 0.40972 0.35890
#
# Static dielectric constant tensor:
#      x y z
#    x 1.461340 -0.000010 -0.532880 
#    y -0.000010 2.166060 0.000000 
#    z -0.532880 0.000000 1.722060 
# 
# From -- ./inp_files/281255.got.cif
#   From: 2010.05.17/outbox.cif.g08.bks.cpg/sg15_141_cif.got.tgz:281255.got - 2010.06.03 18:47:42.
