data_PCOD9293957
_publ_section_title
;
Structure prediction by ZEFSAII (Michael W. Deem and Ramdas Pophale) SiO2 
 PCOD9293957
Probable space group: C 2/C
;
_chemical_formula_sum "Si O2"
_cell_formula_units_Z 40
_cell_length_a 26.497159
_cell_length_b 8.569029
_cell_length_c 22.986643
_cell_angle_alpha 90.000000
_cell_angle_beta 163.651487
_cell_angle_gamma 90.000000
_cell_volume 1469.105271
_symmetry_space_group_name_H-M "C 2/C"
_symmetry_group_IT_number 15
_symmetry_cell_setting 'monoclinic'
loop_
_space_group_symop_operation_xyz
x,y,z
-x,y,1/2-z
-x,-y,-z
x,-y,1/2+z
1/2+x,1/2+y,z
1/2-x,1/2+y,1/2-z
1/2-x,1/2-y,-z
1/2+x,1/2-y,1/2+z
loop_
_atom_site_type_symbol
_atom_site_label
_atom_site_fract_x
_atom_site_fract_y
_atom_site_fract_z
Si Si1 0.769704 0.577647 0.292043
Si Si2 0.580846 0.579149 0.748389
Si Si3 0.255833 0.476395 0.451265
Si Si4 0.107410 0.779599 0.162793
Si Si5 0.638289 0.156871 0.986290
O O1 0.869316 0.615084 0.342374
O O2 0.756882 0.403058 0.303357
O O3 0.853259 0.686861 0.435300
O O4 0.572298 0.639536 0.059137
O O5 0.371477 0.558735 0.528590
O O6 0.680724 0.567935 0.920713
O O7 0.604529 0.718605 0.729508
O O8 0.679127 0.438075 0.824005
O O9 0.341703 0.302801 0.534911
O O10 0.044380 0.442375 0.223271
#
# Coordination Sequence:
#
# PCOD9293957 Si02
#       5
#     8   8   8   8   8
#     4  10  23  42  69 100 140 172 226 277 344 408
#     4  10  23  37  57  93 136 173 218 275 338 400
#     4  11  21  34  61  94 136 175 224 284 340 394
#     4  10  23  46  65 102 137 179 226 280 340 407
#     4  11  20  35  62 102 131 173 221 293 347 385
#
# _framework density 27.227457999999999
#
# number of rings (size 3 to 8) (size 9 to 14) (size 15 to 20)
#    0.000    1.600    2.000    2.400    8.400    0.800 
#    7.200    0.000    0.000    4.800    0.000    4.200 
#    0.000    0.000    0.000    0.000    0.000    0.000 
#
# Total GULP energy -111799.233787 kJ/mol
# GULP energy per Si atom -5589.961689 kJ/mol
# Density = 2.716549 g / cm^3
# Si number density = 27.227458 Si / 1000 Ang^3
#
#
#
# Elastic Constant Matrix: (Units=GPa)
#
#
# Indices 1 2 3 4 5 6 
#
# 1 190.5080 54.0267 59.6641 0.0005 -1.5573 0.0003
# 2 54.0267 98.5535 47.1117 0.0012 9.5171 0.0003
# 3 59.6641 47.1117 148.9422 0.0015 -2.1357 0.0011
# 4 0.0005 0.0012 0.0015 33.5635 -0.0002 9.0993
# 5 -1.5573 9.5171 -2.1357 -0.0002 41.5323 -0.0005
# 6 0.0003 0.0003 0.0011 9.0993 -0.0005 49.9241
#
#
#
# Elastic Compliance Matrix: (Units=1/GPa)
#
#
# Indices 1 2 3 4 5 6 
#
# 1 0.006613 -0.002879 -0.001727 0.000000 0.000819 0.000000
# 2 -0.002879 0.013576 -0.003190 0.000000 -0.003383 0.000000
# 3 -0.001727 -0.003190 0.008430 0.000000 0.001100 0.000000
# 4 0.000000 0.000000 0.000000 0.031343 0.000000 -0.005713
# 5 0.000819 -0.003383 0.001100 0.000000 0.024940 0.000000
# 6 0.000000 0.000000 0.000000 -0.005713 0.000000 0.021072
#
#
# Mechanical properties :
#
#
# Convention : Reuss Voigt Hill
#
# Bulk Modulus (GPa) = 76.74964 84.40097 80.57530
# Shear Modulus (GPa) = 39.71151 43.48406 41.59779
#
# Velocity S-wave (km/s) = 3.82319 4.00067 3.91293
# Velocity P-wave (km/s) = 6.90931 7.23921 7.07618
#
# Compressibility (1/GPa) = 0.01302938
#
# Stress axis : x y z
#
# Youngs Moduli (GPa) = 151.21659 73.65731 118.61857
#
# Poissons Ratio (x) = 0.21205 0.20482
# Poissons Ratio (y) = 0.43534 0.37835
# Poissons Ratio (z) = 0.26111 0.23494
#
# Static dielectric constant tensor:
#      x y z
#    x 2.148940 0.000000 0.011830 
#    y 0.000000 2.213300 0.000000 
#    z 0.011830 0.000000 2.096610 
# 
# From -- ./inp_files/255510.got.cif
#   From: 2010.05.17/outbox.cif.g08.bks.cpg/sg15_128_cif.got.tgz:255510.got - 2010.06.03 18:47:42.
