data_PCOD9293503
_publ_section_title
;
Structure prediction by ZEFSAII (Michael W. Deem and Ramdas Pophale) SiO2 
 PCOD9293503
Probable space group: C 2/C
;
_chemical_formula_sum "Si O2"
_cell_formula_units_Z 36
_cell_length_a 5.437218
_cell_length_b 24.541748
_cell_length_c 12.907318
_cell_angle_alpha 90.000000
_cell_angle_beta 109.514618
_cell_angle_gamma 90.000000
_cell_volume 1623.400019
_symmetry_space_group_name_H-M "C 2/C"
_symmetry_group_IT_number 15
_symmetry_cell_setting 'monoclinic'
loop_
_space_group_symop_operation_xyz
x,y,z
-x,y,1/2-z
-x,-y,-z
x,-y,1/2+z
1/2+x,1/2+y,z
1/2-x,1/2+y,1/2-z
1/2-x,1/2-y,-z
1/2+x,1/2-y,1/2+z
loop_
_atom_site_type_symbol
_atom_site_label
_atom_site_fract_x
_atom_site_fract_y
_atom_site_fract_z
Si Si1 0.660163 0.974507 0.929048
Si Si2 0.528564 0.681679 0.548605
Si Si3 0.500000 0.119135 0.250000
Si Si4 0.590449 0.193693 0.092297
Si Si5 0.093869 0.067810 0.646732
O O1 0.571848 0.923097 0.850204
O O2 0.900150 0.949456 0.026681
O O3 0.688144 0.024722 0.854164
O O4 0.500000 0.000000 0.000000
O O5 0.586048 0.741087 0.604335
O O6 0.706411 0.678762 0.469972
O O7 0.623964 0.632209 0.634466
O O8 0.214798 0.679269 0.480687
O O9 0.670855 0.161877 0.207663
O O10 0.000000 0.057087 0.750000
#
# Coordination Sequence:
#
# PCOD9293503 Si02
#       5
#     8   8   4   8   8
#     4  11  24  44  64  97 135 179 234 291 349 415
#     4  10  22  46  66 100 140 178 231 281 352 409
#     4  12  22  42  72 104 136 186 238 290 352 426
#     4  10  23  42  71 100 138 180 226 290 340 418
#     4  11  24  41  66  94 133 183 228 286 349 420
#
# _framework density 22.175678000000001
#
# number of rings (size 3 to 8) (size 9 to 14) (size 15 to 20)
#    0.000    1.333    2.222    2.667    1.556    2.667 
#    8.000    0.000    0.000    0.000    0.000    0.000 
#    0.000    0.000    0.000    0.000    0.000    0.000 
#
# Total GULP energy -100236.420878 kJ/mol
# GULP energy per Si atom -5568.690049 kJ/mol
# Density = 2.212520 g / cm^3
# Si number density = 22.175678 Si / 1000 Ang^3
#
#
#
# Elastic Constant Matrix: (Units=GPa)
#
#
# Indices 1 2 3 4 5 6 
#
# 1 92.1569 45.4799 33.5718 0.0000 -29.3586 0.0000
# 2 45.4799 170.3270 81.9931 0.0000 -40.6992 0.0000
# 3 33.5718 81.9931 113.7003 0.0000 -43.2620 0.0000
# 4 0.0000 0.0000 0.0000 59.1683 0.0000 -15.1322
# 5 -29.3586 -40.6992 -43.2620 0.0000 40.0918 0.0000
# 6 0.0000 0.0000 0.0000 -15.1322 0.0000 10.6896
#
#
#
# Elastic Compliance Matrix: (Units=1/GPa)
#
#
# Indices 1 2 3 4 5 6 
#
# 1 0.014573 -0.001982 0.000715 0.000000 0.009431 0.000000
# 2 -0.001982 0.009582 -0.005388 0.000000 0.002462 0.000000
# 3 0.000715 -0.005388 0.017963 0.000000 0.014436 0.000000
# 4 0.000000 0.000000 0.000000 0.026492 0.000000 0.037502
# 5 0.009431 0.002462 0.014436 0.000000 0.049926 0.000000
# 6 0.000000 0.000000 0.000000 0.037502 0.000000 0.146638
#
#
# Mechanical properties :
#
#
# Convention : Reuss Voigt Hill
#
# Bulk Modulus (GPa) = 34.71328 77.58597 56.14963
# Shear Modulus (GPa) = 17.35584 36.33254 26.84419
#
# Velocity S-wave (km/s) = 2.80063 4.05210 3.48303
# Velocity P-wave (km/s) = 5.11329 7.54690 6.44598
#
# Compressibility (1/GPa) = 0.02880742
#
# Stress axis : x y z
#
# Youngs Moduli (GPa) = 68.61901 104.35890 55.67116
#
# Poissons Ratio (x) = 0.20681 -0.03978
# Poissons Ratio (y) = 0.13598 0.29997
# Poissons Ratio (z) = -0.04903 0.56231
#
# Static dielectric constant tensor:
#      x y z
#    x 1.930750 0.000000 0.063760 
#    y 0.000000 1.904050 0.000000 
#    z 0.063760 0.000000 1.778920 
# 
# From -- ./inp_files/72456.got.cif
#   From: 2010.05.17/outbox.cif.g08.bks.cpg/sg15_37_cif.got.tgz:72456.got - 2010.06.03 18:47:42.
