data_PCOD9293761
_publ_section_title
;
Structure prediction by ZEFSAII (Michael W. Deem and Ramdas Pophale) SiO2 
 PCOD9293761
Probable space group: C 2/C
;
_chemical_formula_sum "Si O2"
_cell_formula_units_Z 44
_cell_length_a 10.955918
_cell_length_b 28.238140
_cell_length_c 5.365432
_cell_angle_alpha 90.000000
_cell_angle_beta 75.988749
_cell_angle_gamma 90.000000
_cell_volume 1610.543287
_symmetry_space_group_name_H-M "C 2/C"
_symmetry_group_IT_number 15
_symmetry_cell_setting 'monoclinic'
loop_
_space_group_symop_operation_xyz
x,y,z
-x,y,1/2-z
-x,-y,-z
x,-y,1/2+z
1/2+x,1/2+y,z
1/2-x,1/2+y,1/2-z
1/2-x,1/2-y,-z
1/2+x,1/2-y,1/2+z
loop_
_atom_site_type_symbol
_atom_site_label
_atom_site_fract_x
_atom_site_fract_y
_atom_site_fract_z
Si Si1 0.500000 0.389621 0.250000
Si Si2 0.363066 0.218360 0.524629
Si Si3 0.500000 0.709543 0.250000
Si Si4 0.780374 0.151769 0.551164
Si Si5 0.665329 0.530677 0.488302
Si Si6 0.500000 0.858628 0.750000
Si Si7 0.887305 0.571747 0.681568
O O1 0.612156 0.358473 0.295386
O O2 0.431732 0.425940 0.471806
O O3 0.250000 0.250000 0.500000
O O4 0.477812 0.253299 0.535841
O O5 0.318857 0.189136 0.790656
O O6 0.385611 0.177886 0.306485
O O7 0.375184 0.676865 0.310829
O O8 0.710992 0.099773 0.585671
O O9 0.647805 0.502216 0.242579
O O10 0.803599 0.550062 0.498982
O O11 0.527606 0.889525 0.499589
O O12 0.000000 0.541120 0.750000
#
# Coordination Sequence:
#
# PCOD9293761 Si02
#       7
#     4   8   4   8   8   4   8
#     4  10  22  47  69 104 138 192 236 302 369 445
#     4  11  23  39  61  93 135 184 236 298 357 413
#     4  12  24  38  67 100 143 192 243 310 365 416
#     4  10  23  40  64  97 137 181 245 288 356 433
#     4  11  26  47  76 111 146 186 237 304 374 450
#     4  10  24  41  66  92 139 184 243 292 348 429
#     4  10  25  44  71 100 140 192 240 292 365 442
#
# _framework density 27.319973000000001
#
# number of rings (size 3 to 8) (size 9 to 14) (size 15 to 20)
#    0.000    1.455    0.000    3.273   10.182    3.636 
#    0.000    0.000    0.000    0.000    0.000    0.000 
#    0.000    0.000    0.000    0.000    0.000    0.000 
#
# Total GULP energy -122882.419091 kJ/mol
# GULP energy per Si atom -5585.564504 kJ/mol
# Density = 2.725779 g / cm^3
# Si number density = 27.319973 Si / 1000 Ang^3
#
#
#
# Elastic Constant Matrix: (Units=GPa)
#
#
# Indices 1 2 3 4 5 6 
#
# 1 137.7522 16.1510 11.0916 0.0000 3.9263 0.0000
# 2 16.1510 67.5713 41.6953 0.0000 5.9291 0.0000
# 3 11.0916 41.6953 101.7395 0.0000 -8.8109 0.0000
# 4 0.0000 0.0000 0.0000 39.1531 0.0000 -5.9773
# 5 3.9263 5.9291 -8.8109 0.0000 32.1061 0.0000
# 6 0.0000 0.0000 0.0000 -5.9773 0.0000 27.8876
#
#
#
# Elastic Compliance Matrix: (Units=1/GPa)
#
#
# Indices 1 2 3 4 5 6 
#
# 1 0.007483 -0.001591 -0.000223 0.000000 -0.000682 0.000000
# 2 -0.001591 0.021356 -0.009120 0.000000 -0.006252 0.000000
# 3 -0.000223 -0.009120 0.014074 0.000000 0.005574 0.000000
# 4 0.000000 0.000000 0.000000 0.026405 0.000000 0.005659
# 5 -0.000682 -0.006252 0.005574 0.000000 0.033914 0.000000
# 6 0.000000 0.000000 0.000000 0.005659 0.000000 0.037071
#
#
# Mechanical properties :
#
#
# Convention : Reuss Voigt Hill
#
# Bulk Modulus (GPa) = 47.51856 49.43764 48.47810
# Shear Modulus (GPa) = 29.55327 35.70438 32.62882
#
# Velocity S-wave (km/s) = 3.29256 3.61902 3.45964
# Velocity P-wave (km/s) = 5.64674 5.96642 5.80878
#
# Compressibility (1/GPa) = 0.02104441
#
# Stress axis : x y z
#
# Youngs Moduli (GPa) = 133.62948 46.82592 71.05503
#
# Poissons Ratio (x) = 0.07452 0.01583
# Poissons Ratio (y) = 0.21265 0.64802
# Poissons Ratio (z) = 0.02977 0.42705
#
# Static dielectric constant tensor:
#      x y z
#    x 2.236120 0.000000 -0.010450 
#    y 0.000000 2.150160 0.000000 
#    z -0.010450 0.000000 2.205720 
# 
# From -- ./inp_files/5822.got.cif
#   From: 2010.05.17/outbox.cif.g08.bks.cpg/sg15_3_cif.got.tgz:5822.got - 2010.06.03 18:47:42.
