data_PCOD9293960
_publ_section_title
;
Structure prediction by ZEFSAII (Michael W. Deem and Ramdas Pophale) SiO2 
 PCOD9293960
Probable space group: C 2/C
;
_chemical_formula_sum "Si O2"
_cell_formula_units_Z 36
_cell_length_a 14.584035
_cell_length_b 19.940745
_cell_length_c 5.348337
_cell_angle_alpha 90.000000
_cell_angle_beta 80.978103
_cell_angle_gamma 90.000000
_cell_volume 1536.142301
_symmetry_space_group_name_H-M "C 2/C"
_symmetry_group_IT_number 15
_symmetry_cell_setting 'monoclinic'
loop_
_space_group_symop_operation_xyz
x,y,z
-x,y,1/2-z
-x,-y,-z
x,-y,1/2+z
1/2+x,1/2+y,z
1/2-x,1/2+y,1/2-z
1/2-x,1/2-y,-z
1/2+x,1/2-y,1/2+z
loop_
_atom_site_type_symbol
_atom_site_label
_atom_site_fract_x
_atom_site_fract_y
_atom_site_fract_z
Si Si1 0.000000 0.772541 0.750000
Si Si2 0.239979 0.384419 0.617518
Si Si3 0.048234 0.096333 0.478659
Si Si4 0.561007 0.065275 0.020070
Si Si5 0.660596 0.166598 0.660193
O O1 0.090609 0.728109 0.657585
O O2 0.971068 0.823581 0.543456
O O3 0.342183 0.413697 0.567498
O O4 0.222462 0.334687 0.387524
O O5 0.160895 0.441554 0.614216
O O6 0.219255 0.348001 0.888358
O O7 0.000000 0.073899 0.750000
O O8 0.000000 0.068851 0.250000
O O9 0.500000 0.107375 0.250000
O O10 0.407136 0.104247 0.740671
O O11 0.500000 0.000000 0.000000
#
# Coordination Sequence:
#
# PCOD9293960 Si02
#       5
#     4   8   8   8   8
#     4  10  24  34  60  88 130 174 212 250 308 366
#     4  10  23  41  60  89 127 172 206 261 316 370
#     4  10  23  40  62  89 125 169 224 255 304 362
#     4  10  24  36  62  91 127 160 199 255 321 383
#     4  10  23  37  58  85 132 161 209 250 320 364
#
# _framework density 23.435327999999998
#
# number of rings (size 3 to 8) (size 9 to 14) (size 15 to 20)
#    2.000    0.000    0.000    2.667    7.778    1.778 
#    0.000    0.000    0.000    0.000    0.000    4.667 
#    0.000    0.000    0.000    0.000    0.000    0.000 
#
# Total GULP energy -100400.470824 kJ/mol
# GULP energy per Si atom -5577.803935 kJ/mol
# Density = 2.338199 g / cm^3
# Si number density = 23.435328 Si / 1000 Ang^3
#
#
#
# Elastic Constant Matrix: (Units=GPa)
#
#
# Indices 1 2 3 4 5 6 
#
# 1 212.6238 31.5787 73.3084 0.0000 -5.8342 0.0000
# 2 31.5787 89.1662 21.0383 0.0000 -5.6643 0.0000
# 3 73.3084 21.0383 190.9268 0.0000 -17.3026 0.0000
# 4 0.0000 0.0000 0.0000 42.2338 0.0000 7.9785
# 5 -5.8342 -5.6643 -17.3026 0.0000 34.3334 0.0000
# 6 0.0000 0.0000 0.0000 7.9785 0.0000 23.4155
#
#
#
# Elastic Compliance Matrix: (Units=1/GPa)
#
#
# Indices 1 2 3 4 5 6 
#
# 1 0.005618 -0.001534 -0.002016 0.000000 -0.000315 0.000000
# 2 -0.001534 0.011991 -0.000604 0.000000 0.001413 0.000000
# 3 -0.002016 -0.000604 0.006327 0.000000 0.002746 0.000000
# 4 0.000000 0.000000 0.000000 0.025307 0.000000 -0.008623
# 5 -0.000315 0.001413 0.002746 0.000000 0.030690 0.000000
# 6 0.000000 0.000000 0.000000 -0.008623 0.000000 0.045645
#
#
# Mechanical properties :
#
#
# Convention : Reuss Voigt Hill
#
# Bulk Modulus (GPa) = 63.99386 82.72974 73.36180
# Shear Modulus (GPa) = 35.94676 44.44930 40.19803
#
# Velocity S-wave (km/s) = 3.92072 4.35981 4.14608
# Velocity P-wave (km/s) = 6.91823 7.79242 7.36830
#
# Compressibility (1/GPa) = 0.01562650
#
# Stress axis : x y z
#
# Youngs Moduli (GPa) = 178.01478 83.39918 158.04503
#
# Poissons Ratio (x) = 0.12791 0.31868
# Poissons Ratio (y) = 0.27302 0.09551
# Poissons Ratio (z) = 0.35895 0.05040
#
# Static dielectric constant tensor:
#      x y z
#    x 1.871600 0.000000 0.062210 
#    y 0.000000 1.927150 0.000000 
#    z 0.062210 0.000000 2.013030 
# 
# From -- ./inp_files/7137.got.cif
#   From: 2010.05.17/outbox.cif.g08.bks.cpg/sg15_4_cif.got.tgz:7137.got - 2010.06.03 18:47:42.
