data_PCOD9293790
_publ_section_title
;
Structure prediction by ZEFSAII (Michael W. Deem and Ramdas Pophale) SiO2 
 PCOD9293790
Probable space group: C 2/C
;
_chemical_formula_sum "Si O2"
_cell_formula_units_Z 56
_cell_length_a 25.858256
_cell_length_b 11.009435
_cell_length_c 8.852903
_cell_angle_alpha 90.000000
_cell_angle_beta 79.886827
_cell_angle_gamma 90.000000
_cell_volume 2481.128707
_symmetry_space_group_name_H-M "C 2/C"
_symmetry_group_IT_number 15
_symmetry_cell_setting 'monoclinic'
loop_
_space_group_symop_operation_xyz
x,y,z
-x,y,1/2-z
-x,-y,-z
x,-y,1/2+z
1/2+x,1/2+y,z
1/2-x,1/2+y,1/2-z
1/2-x,1/2-y,-z
1/2+x,1/2-y,1/2+z
loop_
_atom_site_type_symbol
_atom_site_label
_atom_site_fract_x
_atom_site_fract_y
_atom_site_fract_z
Si Si1 0.783147 0.214949 0.837861
Si Si2 0.924751 0.185471 0.508098
Si Si3 0.513118 0.129909 0.065758
Si Si4 0.310913 0.108057 0.735322
Si Si5 0.619330 0.734775 0.500457
Si Si6 0.062401 0.965862 0.198820
Si Si7 0.171813 0.369777 0.928077
O O1 0.749293 0.101981 0.794382
O O2 0.841290 0.223416 0.876677
O O3 0.784155 0.304453 0.695424
O O4 0.750000 0.250000 0.000000
O O5 0.918253 0.095199 0.655353
O O6 0.877190 0.279838 0.532070
O O7 0.977420 0.265459 0.505858
O O8 0.925449 0.103770 0.356400
O O9 0.500000 0.129429 0.250000
O O10 0.574416 0.163149 0.025129
O O11 0.500000 0.000000 0.000000
O O12 0.341887 0.227523 0.656975
O O13 0.341160 0.993174 0.652006
O O14 0.309802 0.101344 0.914050
O O15 0.584802 0.614036 0.547124
O O16 0.000000 0.956256 0.250000
#
# Coordination Sequence:
#
# PCOD9293790 Si02
#       7
#     8   8   8   8   8   8   8
#     4  10  22  47  73 102 144 197 243 313 385 455
#     4  12  27  46  75 107 153 203 249 313 392 460
#     4  12  25  45  71 112 150 192 250 316 377 465
#     4  11  26  44  76 106 151 197 256 323 390 460
#     4  11  22  46  72 104 148 200 252 309 387 447
#     4  12  25  47  74 102 155 202 254 312 381 466
#     4  12  25  49  73 112 149 198 255 319 394 462
#
# _framework density 22.570373
#
# number of rings (size 3 to 8) (size 9 to 14) (size 15 to 20)
#    0.000    0.571    4.286    3.429    2.000    4.000 
#   10.286    0.000    0.000    0.000    0.000    0.000 
#    0.000    0.000    0.000    0.000    0.000    0.000 
#
# Total GULP energy -156234.906513 kJ/mol
# GULP energy per Si atom -5579.818090 kJ/mol
# Density = 2.251900 g / cm^3
# Si number density = 22.570373 Si / 1000 Ang^3
#
#
#
# Elastic Constant Matrix: (Units=GPa)
#
#
# Indices 1 2 3 4 5 6 
#
# 1 110.4466 56.3145 40.8654 0.0000 2.9599 0.0000
# 2 56.3145 124.9990 38.9460 0.0000 0.8243 0.0000
# 3 40.8654 38.9460 108.0178 0.0000 -2.3051 0.0000
# 4 0.0000 0.0000 0.0000 39.1607 0.0000 -2.3872
# 5 2.9599 0.8243 -2.3051 0.0000 18.7479 0.0000
# 6 0.0000 0.0000 0.0000 -2.3872 0.0000 32.9254
#
#
#
# Elastic Compliance Matrix: (Units=1/GPa)
#
#
# Indices 1 2 3 4 5 6 
#
# 1 0.012682 -0.004720 -0.003143 0.000000 -0.002181 0.000000
# 2 -0.004720 0.010781 -0.002101 0.000000 0.000013 0.000000
# 3 -0.003143 -0.002101 0.011246 0.000000 0.001971 0.000000
# 4 0.000000 0.000000 0.000000 0.025649 0.000000 0.001860
# 5 -0.002181 0.000013 0.001971 0.000000 0.053926 0.000000
# 6 0.000000 0.000000 0.000000 0.001860 0.000000 0.030507
#
#
# Mechanical properties :
#
#
# Convention : Reuss Voigt Hill
#
# Bulk Modulus (GPa) = 67.65064 68.41280 68.03172
# Shear Modulus (GPa) = 29.47324 31.98930 30.73127
#
# Velocity S-wave (km/s) = 3.61756 3.76881 3.69396
# Velocity P-wave (km/s) = 6.89110 7.02248 6.95710
#
# Compressibility (1/GPa) = 0.01478183
#
# Stress axis : x y z
#
# Youngs Moduli (GPa) = 78.85201 92.75503 88.91806
#
# Poissons Ratio (x) = 0.43780 0.27944
# Poissons Ratio (y) = 0.37218 0.18683
# Poissons Ratio (z) = 0.24780 0.19490
#
# Static dielectric constant tensor:
#      x y z
#    x 1.932660 0.000000 0.035310 
#    y 0.000000 1.882440 0.000000 
#    z 0.035310 0.000000 1.837130 
# 
# From -- ./inp_files/65455.got.cif
#   From: 2010.05.17/outbox.cif.g08.bks.cpg/sg15_33_cif.got.tgz:65455.got - 2010.06.03 18:47:42.
