data_PCOD9293214
_publ_section_title
;
Structure prediction by ZEFSAII (Michael W. Deem and Ramdas Pophale) SiO2 
 PCOD9293214
Probable space group: C 2/C
;
_chemical_formula_sum "Si O2"
_cell_formula_units_Z 52
_cell_length_a 16.185849
_cell_length_b 14.085801
_cell_length_c 15.017932
_cell_angle_alpha 90.000000
_cell_angle_beta 135.156297
_cell_angle_gamma 90.000000
_cell_volume 2414.483380
_symmetry_space_group_name_H-M "C 2/C"
_symmetry_group_IT_number 15
_symmetry_cell_setting 'monoclinic'
loop_
_space_group_symop_operation_xyz
x,y,z
-x,y,1/2-z
-x,-y,-z
x,-y,1/2+z
1/2+x,1/2+y,z
1/2-x,1/2+y,1/2-z
1/2-x,1/2-y,-z
1/2+x,1/2-y,1/2+z
loop_
_atom_site_type_symbol
_atom_site_label
_atom_site_fract_x
_atom_site_fract_y
_atom_site_fract_z
Si Si1 0.540893 0.369116 0.134476
Si Si2 0.596373 0.315613 0.630604
Si Si3 0.698853 0.670311 0.394268
Si Si4 0.000000 0.972964 0.750000
Si Si5 0.330876 0.912281 0.837760
Si Si6 0.962087 0.669001 0.123689
Si Si7 0.307216 0.127255 0.868652
O O1 0.529175 0.462635 0.185916
O O2 0.466185 0.283461 0.120481
O O3 0.676533 0.343023 0.245989
O O4 0.504878 0.367235 0.002797
O O5 0.606445 0.300421 0.744525
O O6 0.712370 0.377729 0.698350
O O7 0.611391 0.210096 0.606211
O O8 0.750000 0.750000 0.500000
O O9 0.617278 0.585391 0.368690
O O10 0.808267 0.630793 0.419411
O O11 0.441190 0.873322 0.869748
O O12 0.333137 0.024973 0.848576
O O13 0.000000 0.639613 0.250000
O O14 0.837321 0.629158 0.996329
#
# Coordination Sequence:
#
# PCOD9293214 Si02
#       7
#     8   8   8   4   8   8   8
#     4  11  21  42  69 107 138 172 243 298 355 416
#     4   9  23  41  68 101 139 188 225 308 359 412
#     4  10  24  45  66 100 142 184 233 293 358 424
#     4  12  24  40  74 108 132 188 244 300 350 440
#     4  10  22  45  63  99 142 179 237 291 359 430
#     4  11  24  42  68 100 140 182 225 292 361 421
#     4  11  22  42  71  95 139 186 231 293 356 431
#
# _framework density 21.536698000000001
#
# number of rings (size 3 to 8) (size 9 to 14) (size 15 to 20)
#    0.923    0.615    3.846    0.462    0.000    9.231 
#    2.769    0.000    0.000    0.000    0.000    0.000 
#    0.000    0.000    0.000    0.000    0.000    0.000 
#
# Total GULP energy -144832.979763 kJ/mol
# GULP energy per Si atom -5570.499222 kJ/mol
# Density = 2.148768 g / cm^3
# Si number density = 21.536698 Si / 1000 Ang^3
#
#
#
# Elastic Constant Matrix: (Units=GPa)
#
#
# Indices 1 2 3 4 5 6 
#
# 1 56.2610 18.4854 27.4451 0.0000 -3.0044 0.0000
# 2 18.4854 103.1934 40.8431 0.0000 -6.1586 0.0000
# 3 27.4451 40.8431 175.5665 0.0000 2.5232 0.0000
# 4 0.0000 0.0000 0.0000 176.8440 0.0000 247.5786
# 5 -3.0044 -6.1586 2.5232 0.0000 23.7550 0.0000
# 6 0.0000 0.0000 0.0000 247.5786 0.0000 436.5073
#
#
#
# Elastic Compliance Matrix: (Units=1/GPa)
#
#
# Indices 1 2 3 4 5 6 
#
# 1 0.019947 -0.002420 -0.002586 0.000000 0.002170 0.000000
# 2 -0.002420 0.011190 -0.002266 0.000000 0.002836 0.000000
# 3 -0.002586 -0.002266 0.006651 0.000000 -0.001621 0.000000
# 4 0.000000 0.000000 0.000000 0.027456 0.000000 -0.015572
# 5 0.002170 0.002836 -0.001621 0.000000 0.043278 0.000000
# 6 0.000000 0.000000 0.000000 -0.015572 0.000000 0.011123
#
#
# Mechanical properties :
#
#
# Convention : Reuss Voigt Hill
#
# Bulk Modulus (GPa) = 43.02284 56.50757 49.76520
# Shear Modulus (GPa) = 35.22696 143.97108 89.59902
#
# Velocity S-wave (km/s) = 4.04873 8.18501 6.45703
# Velocity P-wave (km/s) = 6.47118 10.75270 8.87403
#
# Compressibility (1/GPa) = 0.02324347
#
# Stress axis : x y z
#
# Youngs Moduli (GPa) = 50.13283 89.36551 150.36404
#
# Poissons Ratio (x) = 0.21626 0.38890
# Poissons Ratio (y) = 0.12132 0.34067
# Poissons Ratio (z) = 0.12966 0.20247
#
# Static dielectric constant tensor:
#      x y z
#    x 1.849120 0.000000 -0.052680 
#    y 0.000000 1.808620 0.000000 
#    z -0.052680 0.000000 1.856440 
# 
# From -- ./inp_files/162623.got.cif
#   From: 2010.05.17/outbox.cif.g08.bks.cpg/sg15_82_cif.got.tgz:162623.got - 2010.06.03 18:47:42.
