data_PCOD9293938
_publ_section_title
;
Structure prediction by ZEFSAII (Michael W. Deem and Ramdas Pophale) SiO2 
 PCOD9293938
Probable space group: C 2/C
;
_chemical_formula_sum "Si O2"
_cell_formula_units_Z 44
_cell_length_a 11.243351
_cell_length_b 20.910051
_cell_length_c 8.640750
_cell_angle_alpha 90.000000
_cell_angle_beta 96.488074
_cell_angle_gamma 90.000000
_cell_volume 2018.421539
_symmetry_space_group_name_H-M "C 2/C"
_symmetry_group_IT_number 15
_symmetry_cell_setting 'monoclinic'
loop_
_space_group_symop_operation_xyz
x,y,z
-x,y,1/2-z
-x,-y,-z
x,-y,1/2+z
1/2+x,1/2+y,z
1/2-x,1/2+y,1/2-z
1/2-x,1/2-y,-z
1/2+x,1/2-y,1/2+z
loop_
_atom_site_type_symbol
_atom_site_label
_atom_site_fract_x
_atom_site_fract_y
_atom_site_fract_z
Si Si1 0.159682 0.941680 0.037485
Si Si2 0.338903 0.053534 0.970165
Si Si3 0.764025 0.198029 0.867276
Si Si4 0.500000 0.244364 0.250000
Si Si5 0.000000 0.013095 0.250000
Si Si6 0.500000 0.998475 0.750000
Si Si7 0.840590 0.304574 0.460939
O O1 0.220842 0.873288 0.064422
O O2 0.098213 0.967252 0.185060
O O3 0.249688 0.996644 0.995100
O O4 0.056916 0.943130 0.891483
O O5 0.397948 0.041679 0.812257
O O6 0.288580 0.124290 0.978382
O O7 0.445321 0.045266 0.109086
O O8 0.888087 0.214275 0.795220
O O9 0.656798 0.201904 0.725132
O O10 0.750000 0.250000 0.000000
O O11 0.546807 0.204552 0.407175
O O12 0.750000 0.250000 0.500000
#
# Coordination Sequence:
#
# PCOD9293938 Si02
#       7
#     8   8   8   4   4   4   8
#     4  11  23  42  64  93 126 161 207 261 308 368
#     4  11  22  40  63  91 126 160 206 258 307 369
#     4  11  25  42  65  94 124 165 211 255 312 371
#     4  10  24  44  64  88 130 166 204 260 308 370
#     4  10  23  38  66  94 121 164 208 252 317 368
#     4  10  23  36  62  94 121 164 206 250 313 368
#     4  10  23  42  65  92 126 167 207 255 314 369
#
# _framework density 21.799212000000001
#
# number of rings (size 3 to 8) (size 9 to 14) (size 15 to 20)
#    0.000    1.455    0.000    4.364    0.000   16.727 
#    0.000    0.000    0.000    1.091    0.000    0.000 
#    0.000    0.000    0.000    0.000    0.000    0.000 
#
# Total GULP energy -122900.640451 kJ/mol
# GULP energy per Si atom -5586.392748 kJ/mol
# Density = 2.174960 g / cm^3
# Si number density = 21.799212 Si / 1000 Ang^3
#
#
#
# Elastic Constant Matrix: (Units=GPa)
#
#
# Indices 1 2 3 4 5 6 
#
# 1 73.6838 41.1539 22.2131 0.0000 -14.8345 0.0000
# 2 41.1539 183.7729 62.1148 0.0000 -3.8970 0.0000
# 3 22.2131 62.1148 147.3017 0.0000 23.4361 0.0000
# 4 0.0000 0.0000 0.0000 23.3752 0.0000 3.2952
# 5 -14.8345 -3.8970 23.4361 0.0000 48.8668 0.0000
# 6 0.0000 0.0000 0.0000 3.2952 0.0000 30.5786
#
#
#
# Elastic Compliance Matrix: (Units=1/GPa)
#
#
# Indices 1 2 3 4 5 6 
#
# 1 0.017126 -0.002923 -0.002317 0.000000 0.006077 0.000000
# 2 -0.002923 0.007019 -0.002671 0.000000 0.000953 0.000000
# 3 -0.002317 -0.002671 0.009105 0.000000 -0.005283 0.000000
# 4 0.000000 0.000000 0.000000 0.043440 0.000000 -0.004681
# 5 0.006077 0.000953 -0.005283 0.000000 0.024918 0.000000
# 6 0.000000 0.000000 0.000000 -0.004681 0.000000 0.033207
#
#
# Mechanical properties :
#
#
# Convention : Reuss Voigt Hill
#
# Bulk Modulus (GPa) = 57.37697 72.85800 65.11749
# Shear Modulus (GPa) = 31.95982 39.18254 35.57118
#
# Velocity S-wave (km/s) = 3.83312 4.24421 4.04389
# Velocity P-wave (km/s) = 6.77999 7.58371 7.19308
#
# Compressibility (1/GPa) = 0.01742859
#
# Stress axis : x y z
#
# Youngs Moduli (GPa) = 58.39045 142.47026 109.83169
#
# Poissons Ratio (x) = 0.41648 0.25446
# Poissons Ratio (y) = 0.17069 0.29332
# Poissons Ratio (z) = 0.13528 0.38048
#
# Static dielectric constant tensor:
#      x y z
#    x 1.822460 0.000000 0.051730 
#    y 0.000000 1.743610 0.000000 
#    z 0.051730 0.000000 1.872130 
# 
# From -- ./inp_files/30978.got.cif
#   From: 2010.05.17/outbox.cif.g08.bks.cpg/sg15_16_cif.got.tgz:30978.got - 2010.06.03 18:47:42.
