data_PCOD9293107
_publ_section_title
;
Structure prediction by ZEFSAII (Michael W. Deem and Ramdas Pophale) SiO2 
 PCOD9293107
Probable space group: C 2/C
;
_chemical_formula_sum "Si O2"
_cell_formula_units_Z 48
_cell_length_a 7.989813
_cell_length_b 16.060587
_cell_length_c 25.313545
_cell_angle_alpha 90.000000
_cell_angle_beta 146.439212
_cell_angle_gamma 90.000000
_cell_volume 1795.708484
_symmetry_space_group_name_H-M "C 2/C"
_symmetry_group_IT_number 15
_symmetry_cell_setting 'monoclinic'
loop_
_space_group_symop_operation_xyz
x,y,z
-x,y,1/2-z
-x,-y,-z
x,-y,1/2+z
1/2+x,1/2+y,z
1/2-x,1/2+y,1/2-z
1/2-x,1/2-y,-z
1/2+x,1/2-y,1/2+z
loop_
_atom_site_type_symbol
_atom_site_label
_atom_site_fract_x
_atom_site_fract_y
_atom_site_fract_z
Si Si1 0.279627 0.925892 0.793829
Si Si2 0.808629 0.826749 0.398917
Si Si3 0.234794 0.274766 0.769271
Si Si4 0.692553 0.951770 0.464947
Si Si5 0.140812 0.962173 0.162921
Si Si6 0.834949 0.312001 0.974804
O O1 0.438490 0.845799 0.809138
O O2 0.000000 0.883710 0.750000
O O3 0.502022 0.973098 0.891460
O O4 0.122021 0.997584 0.715952
O O5 0.455448 0.795391 0.303106
O O6 0.800134 0.895705 0.443734
O O7 0.921700 0.868727 0.375173
O O8 0.973037 0.744798 0.465228
O O9 0.498736 0.332161 0.864872
O O10 0.000000 0.239199 0.750000
O O11 0.511442 0.891138 0.458179
O O12 0.957985 0.985760 0.571369
O O13 0.500000 0.972661 0.250000
O O14 0.750000 0.250000 0.000000
#
# Coordination Sequence:
#
# PCOD9293107 Si02
#       6
#     8   8   8   8   8   8
#     4  12  28  44  70 109 152 203 251 309 365 444
#     4   9  21  39  73 106 143 188 246 312 371 441
#     4  10  22  44  73 103 144 197 240 303 377 439
#     4  11  22  43  75 108 147 199 251 300 385 439
#     4  12  23  43  73 112 143 192 254 309 368 449
#     4   8  18  38  63 101 142 187 234 302 366 433
#
# _framework density 26.730395999999999
#
# number of rings (size 3 to 8) (size 9 to 14) (size 15 to 20)
#    1.000    0.667    3.333    1.000    0.000    3.333 
#    0.000    0.000    0.000    3.000    0.000    0.000 
#    0.000    0.000    0.000    0.000    0.000    0.000 
#
# Total GULP energy -133886.438444 kJ/mol
# GULP energy per Si atom -5578.601602 kJ/mol
# Density = 2.666956 g / cm^3
# Si number density = 26.730396 Si / 1000 Ang^3
#
#
#
# Elastic Constant Matrix: (Units=GPa)
#
#
# Indices 1 2 3 4 5 6 
#
# 1 81.0497 19.4613 15.1466 0.0005 0.5143 -0.0002
# 2 19.4613 91.8268 47.6439 -0.0008 -9.7552 -0.0010
# 3 15.1466 47.6439 124.5609 -0.0028 -32.9292 -0.0015
# 4 0.0005 -0.0008 -0.0028 53.3251 -0.0004 -11.2141
# 5 0.5143 -9.7552 -32.9292 -0.0004 35.6226 -0.0005
# 6 -0.0002 -0.0010 -0.0015 -11.2141 -0.0005 39.2845
#
#
#
# Elastic Compliance Matrix: (Units=1/GPa)
#
#
# Indices 1 2 3 4 5 6 
#
# 1 0.013145 -0.002365 -0.001211 0.000000 -0.001957 0.000000
# 2 -0.002365 0.014068 -0.005381 0.000000 -0.001087 0.000000
# 3 -0.001211 -0.005381 0.013034 0.000001 0.010592 0.000001
# 4 0.000000 0.000000 0.000001 0.019951 0.000001 0.005695
# 5 -0.001957 -0.001087 0.010592 0.000001 0.037594 0.000001
# 6 0.000000 0.000000 0.000001 0.005695 0.000001 0.027081
#
#
# Mechanical properties :
#
#
# Convention : Reuss Voigt Hill
#
# Bulk Modulus (GPa) = 44.77857 51.32677 48.05267
# Shear Modulus (GPa) = 33.28240 39.99214 36.63727
#
# Velocity S-wave (km/s) = 3.53245 3.87218 3.70621
# Velocity P-wave (km/s) = 5.78151 6.26379 6.02747
#
# Compressibility (1/GPa) = 0.02233211
#
# Stress axis : x y z
#
# Youngs Moduli (GPa) = 76.07559 71.08557 76.72439
#
# Poissons Ratio (x) = 0.16815 0.09291
# Poissons Ratio (y) = 0.17995 0.41282
# Poissons Ratio (z) = 0.09213 0.38248
#
# Static dielectric constant tensor:
#      x y z
#    x 2.177580 0.000000 -0.118380 
#    y 0.000000 2.159110 -0.000010 
#    z -0.118380 -0.000010 2.472960 
# 
# From -- ./inp_files/308847.got.cif
#   From: 2010.05.17/outbox.cif.g08.bks.cpg/sg15_155_cif.got.tgz:308847.got - 2010.06.03 18:47:42.
