data_PCOD9293064
_publ_section_title
;
Structure prediction by ZEFSAII (Michael W. Deem and Ramdas Pophale) SiO2 
 PCOD9293064
Probable space group: C 2/C
;
_chemical_formula_sum "Si O2"
_cell_formula_units_Z 52
_cell_length_a 5.687233
_cell_length_b 24.145730
_cell_length_c 19.428089
_cell_angle_alpha 90.000000
_cell_angle_beta 131.932654
_cell_angle_gamma 90.000000
_cell_volume 1984.741696
_symmetry_space_group_name_H-M "C 2/C"
_symmetry_group_IT_number 15
_symmetry_cell_setting 'monoclinic'
loop_
_space_group_symop_operation_xyz
x,y,z
-x,y,1/2-z
-x,-y,-z
x,-y,1/2+z
1/2+x,1/2+y,z
1/2-x,1/2+y,1/2-z
1/2-x,1/2-y,-z
1/2+x,1/2-y,1/2+z
loop_
_atom_site_type_symbol
_atom_site_label
_atom_site_fract_x
_atom_site_fract_y
_atom_site_fract_z
Si Si1 0.863496 0.646780 0.347482
Si Si2 0.199371 0.244859 0.408985
Si Si3 0.144051 0.639793 0.855615
Si Si4 0.000000 0.279916 0.750000
Si Si5 0.277239 0.989014 0.765087
Si Si6 0.288458 0.065257 0.881160
Si Si7 0.692275 0.445399 0.511033
O O1 0.500000 0.646162 0.250000
O O2 0.839060 0.686753 0.409419
O O3 0.039343 0.681918 0.324032
O O4 0.070264 0.590658 0.394087
O O5 0.250000 0.250000 0.500000
O O6 0.319082 0.300951 0.396935
O O7 0.832077 0.250633 0.313136
O O8 0.419876 0.598069 0.933701
O O9 0.000000 0.635014 0.750000
O O10 0.872574 0.622910 0.860217
O O11 0.500000 0.966271 0.750000
O O12 0.000000 0.956791 0.750000
O O13 0.070981 0.040188 0.691127
O O14 0.394931 0.055075 0.979158
O O15 0.440344 0.019962 0.859665
O O16 0.500000 0.500000 0.500000
#
# Coordination Sequence:
#
# PCOD9293064 Si02
#       7
#     8   8   8   4   8   8   8
#     4  10  24  49  77 107 154 212 272 336 412 509
#     4  11  24  42  75 118 161 204 266 332 427 508
#     4  12  24  42  72 116 163 203 265 356 430 505
#     4  10  22  44  72 106 150 212 254 318 402 504
#     4   8  16  32  62  95 139 198 248 315 417 478
#     4   9  20  35  64  93 151 191 252 334 404 480
#     4  12  27  47  74 107 152 212 286 345 417 501
#
# _framework density 26.199883
#
# number of rings (size 3 to 8) (size 9 to 14) (size 15 to 20)
#    0.923    0.615    0.000    6.462    0.000    9.231 
#    1.385    0.000    8.462    0.000    0.000    0.000 
#    0.000    0.000    0.000    0.000    0.000    0.000 
#
# Total GULP energy -144761.371541 kJ/mol
# GULP energy per Si atom -5567.745059 kJ/mol
# Density = 2.614025 g / cm^3
# Si number density = 26.199883 Si / 1000 Ang^3
#
#
#
# Elastic Constant Matrix: (Units=GPa)
#
#
# Indices 1 2 3 4 5 6 
#
# 1 110.6026 25.8223 55.0211 0.0000 -12.7052 0.0000
# 2 25.8223 152.2957 36.0982 0.0000 -0.4862 0.0000
# 3 55.0211 36.0982 136.2980 0.0000 -19.1994 0.0000
# 4 0.0000 0.0000 0.0000 20.6806 0.0000 -5.7937
# 5 -12.7052 -0.4862 -19.1994 0.0000 59.4705 0.0000
# 6 0.0000 0.0000 0.0000 -5.7937 0.0000 35.0911
#
#
#
# Elastic Compliance Matrix: (Units=1/GPa)
#
#
# Indices 1 2 3 4 5 6 
#
# 1 0.011494 -0.000941 -0.004239 0.000000 0.001079 0.000000
# 2 -0.000941 0.007101 -0.001594 0.000000 -0.000657 0.000000
# 3 -0.004239 -0.001594 0.009786 0.000000 0.002241 0.000000
# 4 0.000000 0.000000 0.000000 0.050700 0.000000 0.008371
# 5 0.001079 -0.000657 0.002241 0.000000 0.017764 0.000000
# 6 0.000000 0.000000 0.000000 0.008371 0.000000 0.029879
#
#
# Mechanical properties :
#
#
# Convention : Reuss Voigt Hill
#
# Bulk Modulus (GPa) = 67.40951 70.34217 68.87584
# Shear Modulus (GPa) = 34.43205 41.86542 38.14874
#
# Velocity S-wave (km/s) = 3.62913 4.00174 3.81998
# Velocity P-wave (km/s) = 6.58374 6.94683 6.76772
#
# Compressibility (1/GPa) = 0.01483470
#
# Stress axis : x y z
#
# Youngs Moduli (GPa) = 87.00550 140.81919 102.19112
#
# Poissons Ratio (x) = 0.13246 0.43314
# Poissons Ratio (y) = 0.08184 0.16286
# Poissons Ratio (z) = 0.36878 0.22441
#
# Static dielectric constant tensor:
#      x y z
#    x -2.039500 0.000000 4.589390 
#    y 0.000000 2.250890 0.000000 
#    z 4.589390 0.000000 -3.356620 
# 
# From -- ./inp_files/186304.got.cif
#   From: 2010.05.17/outbox.cif.g08.bks.cpg/sg15_94_cif.got.tgz:186304.got - 2010.06.03 18:47:42.
