data_PCOD9293497
_publ_section_title
;
Structure prediction by ZEFSAII (Michael W. Deem and Ramdas Pophale) SiO2 
 PCOD9293497
Probable space group: C 2/C
;
_chemical_formula_sum "Si O2"
_cell_formula_units_Z 36
_cell_length_a 7.558862
_cell_length_b 18.810025
_cell_length_c 10.751738
_cell_angle_alpha 90.000000
_cell_angle_beta 111.760720
_cell_angle_gamma 90.000000
_cell_volume 1419.772334
_symmetry_space_group_name_H-M "C 2/C"
_symmetry_group_IT_number 15
_symmetry_cell_setting 'monoclinic'
loop_
_space_group_symop_operation_xyz
x,y,z
-x,y,1/2-z
-x,-y,-z
x,-y,1/2+z
1/2+x,1/2+y,z
1/2-x,1/2+y,1/2-z
1/2-x,1/2-y,-z
1/2+x,1/2-y,1/2+z
loop_
_atom_site_type_symbol
_atom_site_label
_atom_site_fract_x
_atom_site_fract_y
_atom_site_fract_z
Si Si1 0.809324 0.034615 0.633522
Si Si2 0.532950 0.378398 0.023148
Si Si3 0.966575 0.269154 0.599144
Si Si4 0.050086 0.373234 0.395806
Si Si5 0.000000 0.103751 0.250000
O O1 0.612371 0.068861 0.619510
O O2 0.000000 0.066464 0.750000
O O3 0.870578 0.064579 0.514707
O O4 0.829509 0.953103 0.680418
O O5 0.479456 0.353231 0.869838
O O6 0.557328 0.308651 0.111778
O O7 0.745344 0.409384 0.072568
O O8 0.750000 0.250000 0.500000
O O9 0.049432 0.320908 0.514181
O O10 0.000000 0.294591 0.750000
O O11 0.000000 0.337574 0.250000
#
# Coordination Sequence:
#
# PCOD9293497 Si02
#       5
#     8   8   8   8   4
#     4  10  22  46  65 100 145 180 233 296 359 413
#     4  12  24  45  69 102 147 184 241 292 363 427
#     4  12  27  46  73 106 150 192 237 307 370 424
#     4  12  24  42  77 104 140 191 241 293 366 431
#     4  10  26  42  74 104 140 196 242 294 346 442
#
# _framework density 25.356176000000001
#
# number of rings (size 3 to 8) (size 9 to 14) (size 15 to 20)
#    0.667    0.000    4.444    3.333    4.667    0.889 
#    0.000    2.222    0.000    0.000    0.000    0.000 
#    0.000    0.000    0.000    0.000    0.000    0.000 
#
# Total GULP energy -100439.621538 kJ/mol
# GULP energy per Si atom -5579.978974 kJ/mol
# Density = 2.529846 g / cm^3
# Si number density = 25.356176 Si / 1000 Ang^3
#
#
#
# Elastic Constant Matrix: (Units=GPa)
#
#
# Indices 1 2 3 4 5 6 
#
# 1 157.8992 14.8756 1.8769 0.0000 8.8917 0.0000
# 2 14.8756 70.9475 3.2651 0.0000 -7.0834 0.0000
# 3 1.8769 3.2651 149.2698 0.0000 -30.4436 0.0000
# 4 0.0000 0.0000 0.0000 32.9283 0.0000 8.5075
# 5 8.8917 -7.0834 -30.4436 0.0000 37.2529 0.0000
# 6 0.0000 0.0000 0.0000 8.5075 0.0000 12.2506
#
#
#
# Elastic Compliance Matrix: (Units=1/GPa)
#
#
# Indices 1 2 3 4 5 6 
#
# 1 0.006619 -0.001594 -0.000519 0.000000 -0.002307 0.000000
# 2 -0.001594 0.014762 0.000417 0.000000 0.003528 0.000000
# 3 -0.000519 0.000417 0.008086 0.000000 0.006811 0.000000
# 4 0.000000 0.000000 0.000000 0.037009 0.000000 -0.025701
# 5 -0.002307 0.003528 0.006811 0.000000 0.033631 0.000000
# 6 0.000000 0.000000 0.000000 -0.025701 0.000000 0.099477
#
#
# Mechanical properties :
#
#
# Convention : Reuss Voigt Hill
#
# Bulk Modulus (GPa) = 38.35194 46.46130 42.40662
# Shear Modulus (GPa) = 23.62170 40.35962 31.99066
#
# Velocity S-wave (km/s) = 3.05552 3.99395 3.55583
# Velocity P-wave (km/s) = 5.25418 6.29540 5.79821
#
# Compressibility (1/GPa) = 0.02607430
#
# Stress axis : x y z
#
# Youngs Moduli (GPa) = 151.06995 67.74018 123.67406
#
# Poissons Ratio (x) = 0.10800 0.06417
# Poissons Ratio (y) = 0.24086 -0.05153
# Poissons Ratio (z) = 0.07839 -0.02823
#
# Static dielectric constant tensor:
#      x y z
#    x 2.173090 0.000000 -0.124380 
#    y 0.000000 2.023150 0.000000 
#    z -0.124380 0.000000 2.254750 
# 
# From -- ./inp_files/78523.got.cif
#   From: 2010.05.17/outbox.cif.g08.bks.cpg/sg15_40_cif.got.tgz:78523.got - 2010.06.03 18:47:42.
