data_PCOD9293227
_publ_section_title
;
Structure prediction by ZEFSAII (Michael W. Deem and Ramdas Pophale) SiO2 
 PCOD9293227
Probable space group: C 2/C
;
_chemical_formula_sum "Si O2"
_cell_formula_units_Z 48
_cell_length_a 8.506780
_cell_length_b 20.184954
_cell_length_c 13.328403
_cell_angle_alpha 90.000000
_cell_angle_beta 67.756875
_cell_angle_gamma 90.000000
_cell_volume 2118.301756
_symmetry_space_group_name_H-M "C 2/C"
_symmetry_group_IT_number 15
_symmetry_cell_setting 'monoclinic'
loop_
_space_group_symop_operation_xyz
x,y,z
-x,y,1/2-z
-x,-y,-z
x,-y,1/2+z
1/2+x,1/2+y,z
1/2-x,1/2+y,1/2-z
1/2-x,1/2-y,-z
1/2+x,1/2-y,1/2+z
loop_
_atom_site_type_symbol
_atom_site_label
_atom_site_fract_x
_atom_site_fract_y
_atom_site_fract_z
Si Si1 0.277437 0.367735 0.976530
Si Si2 0.000000 0.930000 0.250000
Si Si3 0.000000 0.881036 0.750000
Si Si4 0.481576 0.239149 0.006177
Si Si5 0.327309 0.485711 0.104389
Si Si6 0.810156 0.178663 0.918911
Si Si7 0.806132 0.629072 0.331943
O O1 0.382456 0.407583 0.867573
O O2 0.118405 0.329772 0.968098
O O3 0.384178 0.301966 0.982825
O O4 0.248504 0.419316 0.073197
O O5 0.114537 0.970818 0.297340
O O6 0.121707 0.883552 0.155248
O O7 0.840807 0.853337 0.716624
O O8 0.537418 0.269997 0.098867
O O9 0.652979 0.216535 0.907776
O O10 0.211605 0.550209 0.140070
O O11 0.500000 0.500000 0.000000
O O12 0.748789 0.158309 0.045848
O O13 0.000000 0.642592 0.250000
#
# Coordination Sequence:
#
# PCOD9293227 Si02
#       7
#     8   4   4   8   8   8   8
#     4  11  23  42  67  98 135 181 231 281 352 417
#     4  12  23  42  74 102 134 192 225 280 370 406
#     4  12  21  42  68 102 130 188 221 284 360 396
#     4  10  22  45  65  95 144 174 230 293 337 425
#     4  12  23  45  69  99 144 181 231 291 354 416
#     4  11  23  46  67 103 137 182 232 287 354 414
#     4  12  26  45  71 104 138 181 237 287 349 428
#
# _framework density 22.659659999999999
#
# number of rings (size 3 to 8) (size 9 to 14) (size 15 to 20)
#    0.000    0.667    6.667    1.500    0.000    2.667 
#    6.000    2.500    0.000    0.000    0.000    0.000 
#    0.000    0.000    0.000    0.000    0.000    0.000 
#
# Total GULP energy -133642.939344 kJ/mol
# GULP energy per Si atom -5568.455806 kJ/mol
# Density = 2.260809 g / cm^3
# Si number density = 22.659660 Si / 1000 Ang^3
#
#
#
# Elastic Constant Matrix: (Units=GPa)
#
#
# Indices 1 2 3 4 5 6 
#
# 1 96.2358 32.4848 31.0343 0.0000 -3.5003 0.0000
# 2 32.4848 131.3894 34.1473 0.0000 8.6090 0.0000
# 3 31.0343 34.1473 105.8973 0.0000 7.4884 0.0000
# 4 0.0000 0.0000 0.0000 31.8554 0.0000 -3.5591
# 5 -3.5003 8.6090 7.4884 0.0000 29.8132 0.0000
# 6 0.0000 0.0000 0.0000 -3.5591 0.0000 74.4132
#
#
#
# Elastic Compliance Matrix: (Units=1/GPa)
#
#
# Indices 1 2 3 4 5 6 
#
# 1 0.012297 -0.002446 -0.003021 0.000000 0.002909 0.000000
# 2 -0.002446 0.008885 -0.001982 0.000000 -0.002355 0.000000
# 3 -0.003021 -0.001982 0.011150 0.000000 -0.002583 0.000000
# 4 0.000000 0.000000 0.000000 0.031561 0.000000 0.001510
# 5 0.002909 -0.002355 -0.002583 0.000000 0.035213 0.000000
# 6 0.000000 0.000000 0.000000 0.001510 0.000000 0.013511
#
#
# Mechanical properties :
#
#
# Convention : Reuss Voigt Hill
#
# Bulk Modulus (GPa) = 57.35487 58.76168 58.05827
# Shear Modulus (GPa) = 37.50276 42.94011 40.22143
#
# Velocity S-wave (km/s) = 4.07264 4.35788 4.21767
# Velocity P-wave (km/s) = 6.89069 7.16311 7.02822
#
# Compressibility (1/GPa) = 0.01743531
#
# Stress axis : x y z
#
# Youngs Moduli (GPa) = 81.32308 112.54920 89.68577
#
# Poissons Ratio (x) = 0.27527 0.27091
# Poissons Ratio (y) = 0.19890 0.17773
# Poissons Ratio (z) = 0.24565 0.22304
#
# Static dielectric constant tensor:
#      x y z
#    x 1.969120 0.000000 0.026750 
#    y 0.000000 1.917200 0.000000 
#    z 0.026750 0.000000 1.834510 
# 
# From -- ./inp_files/135949.got.cif
#   From: 2010.05.17/outbox.cif.g08.bks.cpg/sg15_68_cif.got.tgz:135949.got - 2010.06.03 18:47:42.
