data_PCOD9293346
_publ_section_title
;
Structure prediction by ZEFSAII (Michael W. Deem and Ramdas Pophale) SiO2 
 PCOD9293346
Probable space group: C 2/C
;
_chemical_formula_sum "Si O2"
_cell_formula_units_Z 40
_cell_length_a 12.760185
_cell_length_b 13.522545
_cell_length_c 9.605256
_cell_angle_alpha 90.000000
_cell_angle_beta 73.445424
_cell_angle_gamma 90.000000
_cell_volume 1588.687810
_symmetry_space_group_name_H-M "C 2/C"
_symmetry_group_IT_number 15
_symmetry_cell_setting 'monoclinic'
loop_
_space_group_symop_operation_xyz
x,y,z
-x,y,1/2-z
-x,-y,-z
x,-y,1/2+z
1/2+x,1/2+y,z
1/2-x,1/2+y,1/2-z
1/2-x,1/2-y,-z
1/2+x,1/2-y,1/2+z
loop_
_atom_site_type_symbol
_atom_site_label
_atom_site_fract_x
_atom_site_fract_y
_atom_site_fract_z
Si Si1 0.618874 0.112975 0.988103
Si Si2 0.780807 0.283736 0.286422
Si Si3 0.681917 0.989766 0.215884
Si Si4 0.971990 0.208210 0.597665
Si Si5 0.408367 0.414017 0.678199
O O1 0.665760 0.879559 0.159935
O O2 0.521402 0.188553 0.026522
O O3 0.714677 0.177758 0.876932
O O4 0.617020 0.019471 0.884930
O O5 0.643436 0.075731 0.131351
O O6 0.656631 0.281312 0.377235
O O7 0.848130 0.183186 0.266930
O O8 0.810690 0.009062 0.190960
O O9 0.000000 0.196619 0.750000
O O10 0.030833 0.123447 0.483920
O O11 0.500000 0.449684 0.750000
#
# Coordination Sequence:
#
# PCOD9293346 Si02
#       5
#     8   8   8   8   8
#     4   9  22  44  67 101 130 175 221 272 328 392
#     4   9  23  43  69  95 135 173 215 276 328 390
#     4  10  22  45  70  97 136 172 222 274 325 394
#     4  11  22  42  71  98 129 179 217 273 333 394
#     4  11  25  44  68 103 134 171 225 275 330 390
#
# _framework density 25.178011000000001
#
# number of rings (size 3 to 8) (size 9 to 14) (size 15 to 20)
#    1.200    0.800    0.000    2.400    2.800    5.600 
#    3.600    7.000    0.000    0.000    0.000    0.000 
#    0.000    0.000    0.000    0.000    0.000    0.000 
#
# Total GULP energy -111910.825112 kJ/mol
# GULP energy per Si atom -5595.541256 kJ/mol
# Density = 2.512070 g / cm^3
# Si number density = 25.178011 Si / 1000 Ang^3
#
#
#
# Elastic Constant Matrix: (Units=GPa)
#
#
# Indices 1 2 3 4 5 6 
#
# 1 52.0100 29.4853 32.7900 0.0000 -19.1746 0.0000
# 2 29.4853 87.4166 28.1085 0.0000 -13.8928 0.0000
# 3 32.7900 28.1085 127.9801 0.0000 -15.1480 0.0000
# 4 0.0000 0.0000 0.0000 34.3634 0.0000 -12.7421
# 5 -19.1746 -13.8928 -15.1480 0.0000 40.7797 0.0000
# 6 0.0000 0.0000 0.0000 -12.7421 0.0000 32.0778
#
#
#
# Elastic Compliance Matrix: (Units=1/GPa)
#
#
# Indices 1 2 3 4 5 6 
#
# 1 0.029930 -0.006926 -0.004980 0.000000 0.009864 0.000000
# 2 -0.006926 0.014361 -0.001241 0.000000 0.001175 0.000000
# 3 -0.004980 -0.001241 0.009450 0.000000 0.000746 0.000000
# 4 0.000000 0.000000 0.000000 0.034127 0.000000 0.013556
# 5 0.009864 0.001175 0.000746 0.000000 0.029837 0.000000
# 6 0.000000 0.000000 0.000000 0.013556 0.000000 0.036559
#
#
# Mechanical properties :
#
#
# Convention : Reuss Voigt Hill
#
# Bulk Modulus (GPa) = 36.43214 49.79713 43.11464
# Shear Modulus (GPa) = 26.35635 33.24572 29.80103
#
# Velocity S-wave (km/s) = 3.23894 3.63771 3.44410
# Velocity P-wave (km/s) = 5.33750 6.12086 5.74255
#
# Compressibility (1/GPa) = 0.02744829
#
# Stress axis : x y z
#
# Youngs Moduli (GPa) = 33.41177 69.63139 105.81631
#
# Poissons Ratio (x) = 0.48229 0.52692
# Poissons Ratio (y) = 0.23142 0.13127
# Poissons Ratio (z) = 0.16638 0.08638
#
# Static dielectric constant tensor:
#      x y z
#    x 1.942840 0.000000 0.018950 
#    y 0.000000 2.021080 0.000000 
#    z 0.018950 0.000000 2.019820 
# 
# From -- ./inp_files/37798.got.cif
#   From: 2010.05.17/outbox.cif.g08.bks.cpg/sg15_19_cif.got.tgz:37798.got - 2010.06.03 18:47:42.
