data_PCOD9293570
_publ_section_title
;
Structure prediction by ZEFSAII (Michael W. Deem and Ramdas Pophale) SiO2 
 PCOD9293570
Probable space group: C 2/C
;
_chemical_formula_sum "Si O2"
_cell_formula_units_Z 40
_cell_length_a 11.674443
_cell_length_b 9.095593
_cell_length_c 16.850755
_cell_angle_alpha 90.000000
_cell_angle_beta 108.454661
_cell_angle_gamma 90.000000
_cell_volume 1697.297506
_symmetry_space_group_name_H-M "C 2/C"
_symmetry_group_IT_number 15
_symmetry_cell_setting 'monoclinic'
loop_
_space_group_symop_operation_xyz
x,y,z
-x,y,1/2-z
-x,-y,-z
x,-y,1/2+z
1/2+x,1/2+y,z
1/2-x,1/2+y,1/2-z
1/2-x,1/2-y,-z
1/2+x,1/2-y,1/2+z
loop_
_atom_site_type_symbol
_atom_site_label
_atom_site_fract_x
_atom_site_fract_y
_atom_site_fract_z
Si Si1 0.075564 0.210694 0.160080
Si Si2 0.500000 0.527729 0.750000
Si Si3 0.000000 0.516313 0.750000
Si Si4 0.019529 0.706179 0.144844
Si Si5 0.364298 0.331606 0.487648
Si Si6 0.757047 0.358161 0.575386
O O1 0.195704 0.225474 0.135117
O O2 0.028408 0.358705 0.189234
O O3 0.094038 0.086476 0.231968
O O4 0.970299 0.160639 0.075882
O O5 0.525417 0.639962 0.827293
O O6 0.912620 0.389980 0.773734
O O7 0.899003 0.606778 0.110422
O O8 0.086606 0.743763 0.078687
O O9 0.250000 0.250000 0.500000
O O10 0.318099 0.492544 0.452327
O O11 0.750000 0.250000 0.500000
#
# Coordination Sequence:
#
# PCOD9293570 Si02
#       6
#     8   4   4   8   8   8
#     4  11  23  46  68 103 137 180 236 281 359 412
#     4  10  22  46  68  96 146 178 228 296 346 428
#     4  10  26  44  66 100 142 180 222 292 348 422
#     4  11  24  47  67 102 138 181 237 284 357 410
#     4  12  26  45  71 100 138 187 237 289 342 421
#     4  12  24  41  75 102 135 179 235 296 341 417
#
# _framework density 23.566876000000001
#
# number of rings (size 3 to 8) (size 9 to 14) (size 15 to 20)
#    0.000    0.800    4.000    3.000    2.800    3.200 
#   14.400    0.000    0.000    0.000    0.000    0.000 
#    0.000    0.000    0.000    0.000    0.000    0.000 
#
# Total GULP energy -111388.072179 kJ/mol
# GULP energy per Si atom -5569.403609 kJ/mol
# Density = 2.351324 g / cm^3
# Si number density = 23.566876 Si / 1000 Ang^3
#
#
#
# Elastic Constant Matrix: (Units=GPa)
#
#
# Indices 1 2 3 4 5 6 
#
# 1 159.8351 51.8735 74.8115 0.0000 -34.2376 0.0000
# 2 51.8735 164.6577 59.2167 0.0000 -31.0939 0.0000
# 3 74.8115 59.2167 92.1270 0.0000 -55.6594 0.0000
# 4 0.0000 0.0000 0.0000 -28.7264 0.0000 -14.2337
# 5 -34.2376 -31.0939 -55.6594 0.0000 52.5512 0.0000
# 6 0.0000 0.0000 0.0000 -14.2337 0.0000 31.2358
#
#
#
# Elastic Compliance Matrix: (Units=1/GPa)
#
#
# Indices 1 2 3 4 5 6 
#
# 1 0.010784 -0.000092 -0.012458 0.000000 -0.006223 0.000000
# 2 -0.000092 0.007973 -0.006209 0.000000 -0.001919 0.000000
# 3 -0.012458 -0.006209 0.049537 0.000000 0.040677 0.000000
# 4 0.000000 0.000000 0.000000 -0.028399 0.000000 -0.012941
# 5 -0.006223 -0.001919 0.040677 0.000000 0.056922 0.000000
# 6 0.000000 0.000000 0.000000 -0.012941 0.000000 0.026117
#
#
# Mechanical properties :
#
#
# Convention : Reuss Voigt Hill
#
# Bulk Modulus (GPa) = 32.49310 87.60259 60.04784
# Shear Modulus (GPa) = 29.28903 26.39333 27.84118
#
# Velocity S-wave (km/s) = 3.52917 3.35017 3.44083
# Velocity P-wave (km/s) = 5.51582 7.22617 6.42813
#
# Compressibility (1/GPa) = 0.03077576
#
# Stress axis : x y z
#
# Youngs Moduli (GPa) = 92.72729 125.42385 20.18679
#
# Poissons Ratio (x) = 0.01159 0.25148
# Poissons Ratio (y) = 0.00857 0.12535
# Poissons Ratio (z) = 1.15517 0.77879
#
# Static dielectric constant tensor:
#      x y z
#    x 1.651820 0.000000 -0.334470 
#    y 0.000000 1.906410 0.000000 
#    z -0.334470 0.000000 1.319440 
# 
# From -- ./inp_files/195195.got.cif
#   From: 2010.05.17/outbox.cif.g08.bks.cpg/sg15_98_cif.got.tgz:195195.got - 2010.06.03 18:47:42.
