data_PCOD9293269
_publ_section_title
;
Structure prediction by ZEFSAII (Michael W. Deem and Ramdas Pophale) SiO2 
 PCOD9293269
Probable space group: C 2/C
;
_chemical_formula_sum "Si O2"
_cell_formula_units_Z 28
_cell_length_a 8.094379
_cell_length_b 11.068773
_cell_length_c 13.737969
_cell_angle_alpha 90.000000
_cell_angle_beta 113.125110
_cell_angle_gamma 90.000000
_cell_volume 1131.951636
_symmetry_space_group_name_H-M "C 2/C"
_symmetry_group_IT_number 15
_symmetry_cell_setting 'monoclinic'
loop_
_space_group_symop_operation_xyz
x,y,z
-x,y,1/2-z
-x,-y,-z
x,-y,1/2+z
1/2+x,1/2+y,z
1/2-x,1/2+y,1/2-z
1/2-x,1/2-y,-z
1/2+x,1/2-y,1/2+z
loop_
_atom_site_type_symbol
_atom_site_label
_atom_site_fract_x
_atom_site_fract_y
_atom_site_fract_z
Si Si1 0.761892 0.433407 0.930187
Si Si2 0.400938 0.937169 0.624861
Si Si3 0.292845 0.304342 0.170448
Si Si4 0.000000 0.767942 0.750000
O O1 0.729733 0.572272 0.892389
O O2 0.603118 0.351907 0.853041
O O3 0.942485 0.397543 0.914159
O O4 0.804159 0.446772 0.054401
O O5 0.500000 0.960245 0.750000
O O6 0.269856 0.823709 0.610571
O O7 0.500000 0.301898 0.250000
O O8 0.153627 0.302095 0.226946
#
# Coordination Sequence:
#
# PCOD9293269 Si02
#       4
#     8   8   8   4
#     4  11  23  43  71  95 134 176 213 273 332 379
#     4  10  22  45  67  96 135 170 220 273 320 393
#     4  11  23  42  67  98 137 167 219 272 321 391
#     4  12  24  40  70 104 124 178 226 252 338 400
#
# _framework density 24.736039000000002
#
# number of rings (size 3 to 8) (size 9 to 14) (size 15 to 20)
#    0.000    1.143    7.143    0.857    2.000    1.143 
#    0.000    5.714    0.000    0.000    0.000    0.000 
#    0.000    0.000    0.000    0.000    0.000    0.000 
#
# Total GULP energy -78371.773264 kJ/mol
# GULP energy per Si atom -5597.983805 kJ/mol
# Density = 2.467974 g / cm^3
# Si number density = 24.736039 Si / 1000 Ang^3
#
#
#
# Elastic Constant Matrix: (Units=GPa)
#
#
# Indices 1 2 3 4 5 6 
#
# 1 128.8254 31.0962 25.0752 0.0000 0.7040 0.0000
# 2 31.0962 83.9729 36.8738 0.0000 -10.9850 0.0000
# 3 25.0752 36.8738 122.1882 0.0000 -1.7595 0.0000
# 4 0.0000 0.0000 0.0000 7.8051 0.0000 -0.3052
# 5 0.7040 -10.9850 -1.7595 0.0000 37.5806 0.0000
# 6 0.0000 0.0000 0.0000 -0.3052 0.0000 30.4502
#
#
#
# Elastic Compliance Matrix: (Units=1/GPa)
#
#
# Indices 1 2 3 4 5 6 
#
# 1 0.008656 -0.002949 -0.000902 0.000000 -0.001066 0.000000
# 2 -0.002949 0.015304 -0.003951 0.000000 0.004344 0.000000
# 3 -0.000902 -0.003951 0.009551 0.000000 -0.000691 0.000000
# 4 0.000000 0.000000 0.000000 0.128172 0.000000 0.001285
# 5 -0.001066 0.004344 -0.000691 0.000000 0.027867 0.000000
# 6 0.000000 0.000000 0.000000 0.001285 0.000000 0.032853
#
#
# Mechanical properties :
#
#
# Convention : Reuss Voigt Hill
#
# Bulk Modulus (GPa) = 55.84010 57.89742 56.86876
# Shear Modulus (GPa) = 20.49396 31.29659 25.89527
#
# Velocity S-wave (km/s) = 2.88150 3.56086 3.23904
# Velocity P-wave (km/s) = 5.80466 6.35320 6.08512
#
# Compressibility (1/GPa) = 0.01790828
#
# Stress axis : x y z
#
# Youngs Moduli (GPa) = 115.53245 65.34431 104.69651
#
# Poissons Ratio (x) = 0.19269 0.09441
# Poissons Ratio (y) = 0.34068 0.41361
# Poissons Ratio (z) = 0.10418 0.25815
#
# Static dielectric constant tensor:
#      x y z
#    x 1.902180 0.000000 0.021950 
#    y 0.000000 2.011980 0.000000 
#    z 0.021950 0.000000 2.107690 
# 
# From -- ./inp_files/131587.got.cif
#   From: 2010.05.17/outbox.cif.g08.bks.cpg/sg15_66_cif.got.tgz:131587.got - 2010.06.03 18:47:42.
