data_PCOD9293060
_publ_section_title
;
Structure prediction by ZEFSAII (Michael W. Deem and Ramdas Pophale) SiO2 
 PCOD9293060
Probable space group: C 2/C
;
_chemical_formula_sum "Si O2"
_cell_formula_units_Z 28
_cell_length_a 11.658439
_cell_length_b 7.853222
_cell_length_c 25.201291
_cell_angle_alpha 90.000000
_cell_angle_beta 149.202641
_cell_angle_gamma 90.000000
_cell_volume 1181.364195
_symmetry_space_group_name_H-M "C 2/C"
_symmetry_group_IT_number 15
_symmetry_cell_setting 'monoclinic'
loop_
_space_group_symop_operation_xyz
x,y,z
-x,y,1/2-z
-x,-y,-z
x,-y,1/2+z
1/2+x,1/2+y,z
1/2-x,1/2+y,1/2-z
1/2-x,1/2-y,-z
1/2+x,1/2-y,1/2+z
loop_
_atom_site_type_symbol
_atom_site_label
_atom_site_fract_x
_atom_site_fract_y
_atom_site_fract_z
Si Si1 0.929938 0.557996 0.878267
Si Si2 0.366669 0.401856 0.077584
Si Si3 0.000000 0.960849 0.250000
Si Si4 0.194182 0.569807 0.283636
O O1 0.732517 0.447900 0.828102
O O2 0.931572 0.480018 0.820559
O O3 0.824446 0.747673 0.838375
O O4 0.174377 0.546967 0.000149
O O5 0.428712 0.377018 0.164377
O O6 0.590371 0.446509 0.134211
O O7 0.250000 0.250000 0.000000
O O8 0.000000 0.553011 0.250000
#
# Coordination Sequence:
#
# PCOD9293060 Si02
#       4
#     8   8   4   8
#     4  11  22  46  72 107 149 194 243 304 368 435
#     4  11  25  47  75 109 147 199 245 304 374 437
#     4  10  22  44  72 104 146 184 248 296 360 442
#     4  11  25  47  74 109 151 191 250 306 363 444
#
# _framework density 23.701412999999999
#
# number of rings (size 3 to 8) (size 9 to 14) (size 15 to 20)
#    0.000    1.143    1.429    5.143    0.000    1.143 
#   28.286    0.000    0.000    1.714    0.000    0.000 
#    0.000    0.000    0.000    0.000    0.000    0.000 
#
# Total GULP energy -77969.237389 kJ/mol
# GULP energy per Si atom -5569.231242 kJ/mol
# Density = 2.364747 g / cm^3
# Si number density = 23.701413 Si / 1000 Ang^3
#
#
#
# Elastic Constant Matrix: (Units=GPa)
#
#
# Indices 1 2 3 4 5 6 
#
# 1 235.9444 62.5311 82.6789 0.0000 17.2544 0.0000
# 2 62.5311 80.0240 59.9946 0.0000 -8.0818 0.0000
# 3 82.6789 59.9946 189.4609 0.0001 5.3872 0.0001
# 4 0.0000 0.0000 0.0001 29.9481 0.0000 5.6658
# 5 17.2544 -8.0818 5.3872 0.0000 31.7581 0.0000
# 6 0.0000 0.0000 0.0001 5.6658 0.0000 27.5015
#
#
#
# Elastic Compliance Matrix: (Units=1/GPa)
#
#
# Indices 1 2 3 4 5 6 
#
# 1 0.006101 -0.004310 -0.001178 0.000000 -0.004212 0.000000
# 2 -0.004310 0.020287 -0.004780 0.000000 0.008315 0.000000
# 3 -0.001178 -0.004780 0.007358 0.000000 -0.001824 0.000000
# 4 0.000000 0.000000 0.000000 0.034745 0.000000 -0.007158
# 5 -0.004212 0.008315 -0.001824 0.000000 0.036202 0.000000
# 6 0.000000 0.000000 0.000000 -0.007158 0.000000 0.037836
#
#
# Mechanical properties :
#
#
# Convention : Reuss Voigt Hill
#
# Bulk Modulus (GPa) = 75.69534 101.75985 88.72759
# Shear Modulus (GPa) = 29.85635 37.85650 33.85643
#
# Velocity S-wave (km/s) = 3.55306 4.00087 3.78359
# Velocity P-wave (km/s) = 6.98847 8.02308 7.52358
#
# Compressibility (1/GPa) = 0.01321085
#
# Stress axis : x y z
#
# Youngs Moduli (GPa) = 163.89971 49.29239 135.91237
#
# Poissons Ratio (x) = 0.21244 0.16011
# Poissons Ratio (y) = 0.70636 0.64964
# Poissons Ratio (z) = 0.19308 0.23561
#
# Static dielectric constant tensor:
#      x y z
#    x 1.935130 0.000000 0.071200 
#    y 0.000000 2.144020 0.000000 
#    z 0.071200 0.000000 1.968650 
# 
# From -- ./inp_files/140633.got.cif
#   From: 2010.05.17/outbox.cif.g08.bks.cpg/sg15_71_cif.got.tgz:140633.got - 2010.06.03 18:47:42.
