data_PCOD9293134
_publ_section_title
;
Structure prediction by ZEFSAII (Michael W. Deem and Ramdas Pophale) SiO2 
 PCOD9293134
Probable space group: C 2/C
;
_chemical_formula_sum "Si O2"
_cell_formula_units_Z 44
_cell_length_a 8.436790
_cell_length_b 28.112932
_cell_length_c 8.491708
_cell_angle_alpha 90.000000
_cell_angle_beta 61.724510
_cell_angle_gamma 90.000000
_cell_volume 1773.767142
_symmetry_space_group_name_H-M "C 2/C"
_symmetry_group_IT_number 15
_symmetry_cell_setting 'monoclinic'
loop_
_space_group_symop_operation_xyz
x,y,z
-x,y,1/2-z
-x,-y,-z
x,-y,1/2+z
1/2+x,1/2+y,z
1/2-x,1/2+y,1/2-z
1/2-x,1/2-y,-z
1/2+x,1/2-y,1/2+z
loop_
_atom_site_type_symbol
_atom_site_label
_atom_site_fract_x
_atom_site_fract_y
_atom_site_fract_z
Si Si1 0.892846 0.261151 0.131971
Si Si2 0.000000 0.255860 0.750000
Si Si3 0.308702 0.887989 0.292430
Si Si4 0.141647 0.023271 0.050055
Si Si5 0.453005 0.350716 0.590277
Si Si6 0.821853 0.575786 0.438994
O O1 0.682348 0.272735 0.205623
O O2 0.889085 0.203616 0.108349
O O3 0.000000 0.267494 0.250000
O O4 0.978293 0.282470 0.930161
O O5 0.500000 0.867645 0.250000
O O6 0.137977 0.856313 0.409223
O O7 0.260315 0.935484 0.416486
O O8 0.332921 0.897989 0.098777
O O9 0.000000 0.038988 0.250000
O O10 0.266278 0.977499 0.021213
O O11 0.000000 0.000000 0.000000
O O12 0.500000 0.357822 0.750000
O O13 0.320836 0.392194 0.591399
O O14 0.000000 0.572749 0.250000
#
# Coordination Sequence:
#
# PCOD9293134 Si02
#       6
#     8   4   8   8   8   8
#     4  10  23  43  72 105 143 178 228 275 335 412
#     4  10  22  44  74 106 138 186 218 278 338 412
#     4  12  26  42  64  93 130 172 227 274 337 400
#     4  12  23  41  66  88 122 170 220 277 332 391
#     4  11  24  44  66  95 135 172 215 277 331 390
#     4  12  26  41  64  92 125 173 221 274 333 392
#
# _framework density 24.805961
#
# number of rings (size 3 to 8) (size 9 to 14) (size 15 to 20)
#    0.000    0.727    3.636    3.273    6.364    1.455 
#    0.000    0.909    0.000    0.000    0.000    0.000 
#    0.000    0.000    0.000    0.000    0.000    0.000 
#
# Total GULP energy -122874.564956 kJ/mol
# GULP energy per Si atom -5585.207498 kJ/mol
# Density = 2.474950 g / cm^3
# Si number density = 24.805961 Si / 1000 Ang^3
#
#
#
# Elastic Constant Matrix: (Units=GPa)
#
#
# Indices 1 2 3 4 5 6 
#
# 1 142.7843 30.7696 70.4999 0.0000 -3.5500 0.0000
# 2 30.7696 159.8535 35.7818 0.0000 -0.8360 0.0000
# 3 70.4999 35.7818 198.8048 0.0000 -4.6513 0.0000
# 4 0.0000 0.0000 0.0000 8.7166 0.0000 7.3491
# 5 -3.5500 -0.8360 -4.6513 0.0000 64.2717 0.0000
# 6 0.0000 0.0000 0.0000 7.3491 0.0000 -13.1764
#
#
#
# Elastic Compliance Matrix: (Units=1/GPa)
#
#
# Indices 1 2 3 4 5 6 
#
# 1 0.008651 -0.001020 -0.002878 0.000000 0.000256 0.000000
# 2 -0.001020 0.006638 -0.000834 0.000000 -0.000030 0.000000
# 3 -0.002878 -0.000834 0.006207 0.000000 0.000279 0.000000
# 4 0.000000 0.000000 0.000000 0.078030 0.000000 0.043521
# 5 0.000256 -0.000030 0.000279 0.000000 0.015593 0.000000
# 6 0.000000 0.000000 0.000000 0.043521 0.000000 -0.051619
#
#
# Mechanical properties :
#
#
# Convention : Reuss Voigt Hill
#
# Bulk Modulus (GPa) = 83.10394 86.17170 84.63782
# Shear Modulus (GPa) = 64.95592 36.25513 50.60552
#
# Velocity S-wave (km/s) = 5.12274 3.82717 4.52160
# Velocity P-wave (km/s) = 8.28035 7.37179 7.83925
#
# Compressibility (1/GPa) = 0.01203312
#
# Stress axis : x y z
#
# Youngs Moduli (GPa) = 115.59652 150.63646 161.09870
#
# Poissons Ratio (x) = 0.15358 0.46368
# Poissons Ratio (y) = 0.11786 0.13435
# Poissons Ratio (z) = 0.33271 0.12563
#
# Static dielectric constant tensor:
#      x y z
#    x 1.874910 0.000000 -0.153300 
#    y 0.000000 2.077990 0.000000 
#    z -0.153300 0.000000 1.873730 
# 
# From -- ./inp_files/26011.got.cif
#   From: 2010.05.17/outbox.cif.g08.bks.cpg/sg15_14_cif.got.tgz:26011.got - 2010.06.03 18:47:42.
