data_PCOD9293097
_publ_section_title
;
Structure prediction by ZEFSAII (Michael W. Deem and Ramdas Pophale) SiO2 
 PCOD9293097
Probable space group: C 2/C
;
_chemical_formula_sum "Si O2"
_cell_formula_units_Z 56
_cell_length_a 25.658429
_cell_length_b 11.251851
_cell_length_c 9.061093
_cell_angle_alpha 90.000000
_cell_angle_beta 74.475344
_cell_angle_gamma 90.000000
_cell_volume 2520.538100
_symmetry_space_group_name_H-M "C 2/C"
_symmetry_group_IT_number 15
_symmetry_cell_setting 'monoclinic'
loop_
_space_group_symop_operation_xyz
x,y,z
-x,y,1/2-z
-x,-y,-z
x,-y,1/2+z
1/2+x,1/2+y,z
1/2-x,1/2+y,1/2-z
1/2-x,1/2-y,-z
1/2+x,1/2-y,1/2+z
loop_
_atom_site_type_symbol
_atom_site_label
_atom_site_fract_x
_atom_site_fract_y
_atom_site_fract_z
Si Si1 0.205250 0.341658 0.587498
Si Si2 0.555215 0.757086 0.297648
Si Si3 0.496989 0.625216 0.580729
Si Si4 0.227010 0.419467 0.912434
Si Si5 0.541238 0.971656 0.839867
Si Si6 0.667635 0.301839 0.571250
Si Si7 0.615043 0.755565 0.819974
O O1 0.250000 0.250000 0.500000
O O2 0.216293 0.389088 0.747726
O O3 0.206472 0.451501 0.474730
O O4 0.148398 0.271710 0.644694
O O5 0.500000 0.725557 0.250000
O O6 0.540641 0.713027 0.472806
O O7 0.610117 0.699338 0.196543
O O8 0.561881 0.899138 0.273402
O O9 0.500000 0.604471 0.750000
O O10 0.500000 0.500000 0.500000
O O11 0.438394 0.681999 0.613486
O O12 0.290439 0.397506 0.898622
O O13 0.197139 0.327053 0.047175
O O14 0.500000 0.915553 0.750000
O O15 0.589975 0.888985 0.857728
O O16 0.500000 0.000000 0.000000
O O17 0.654984 0.306375 0.406723
#
# Coordination Sequence:
#
# PCOD9293097 Si02
#       7
#     8   8   8   8   8   8   8
#     4  11  27  48  75 107 143 183 250 304 365 441
#     4  11  21  41  69 101 140 182 229 282 362 427
#     4  12  27  46  66  99 143 190 236 285 340 436
#     4  10  25  47  74 104 143 187 245 304 372 419
#     4  11  21  37  66 101 141 174 219 282 350 416
#     4  10  22  44  73 101 136 193 232 296 362 434
#     4  11  23  45  70 105 140 180 238 293 357 423
#
# _framework density 22.217479000000001
#
# number of rings (size 3 to 8) (size 9 to 14) (size 15 to 20)
#    0.000    1.143    2.857    2.571    6.000    3.429 
#    0.000    0.000    0.000    0.000    0.000    0.000 
#    0.000    0.000    0.000    0.000    0.000    0.000 
#
# Total GULP energy -156240.294321 kJ/mol
# GULP energy per Si atom -5580.010511 kJ/mol
# Density = 2.216691 g / cm^3
# Si number density = 22.217479 Si / 1000 Ang^3
#
#
#
# Elastic Constant Matrix: (Units=GPa)
#
#
# Indices 1 2 3 4 5 6 
#
# 1 76.7141 5.7831 31.6194 0.0000 -26.2879 0.0000
# 2 5.7831 70.0768 27.5297 0.0000 -14.1947 0.0000
# 3 31.6194 27.5297 122.2043 0.0000 -14.9931 0.0000
# 4 0.0000 0.0000 0.0000 37.3389 0.0000 1.7636
# 5 -26.2879 -14.1947 -14.9931 0.0000 51.5662 0.0000
# 6 0.0000 0.0000 0.0000 1.7636 0.0000 15.6062
#
#
#
# Elastic Compliance Matrix: (Units=1/GPa)
#
#
# Indices 1 2 3 4 5 6 
#
# 1 0.017299 0.001747 -0.003867 0.000000 0.008176 0.000000
# 2 0.001747 0.016431 -0.003618 0.000000 0.004362 0.000000
# 3 -0.003867 -0.003618 0.009991 0.000000 -0.000062 0.000000
# 4 0.000000 0.000000 0.000000 0.026925 0.000000 -0.003043
# 5 0.008176 0.004362 -0.000062 0.000000 0.024743 0.000000
# 6 0.000000 0.000000 0.000000 -0.003043 0.000000 0.064421
#
#
# Mechanical properties :
#
#
# Convention : Reuss Voigt Hill
#
# Bulk Modulus (GPa) = 31.01201 44.31772 37.66487
# Shear Modulus (GPa) = 27.46743 34.50648 30.98696
#
# Velocity S-wave (km/s) = 3.51992 3.94524 3.73863
# Velocity P-wave (km/s) = 5.52345 6.38309 5.96876
#
# Compressibility (1/GPa) = 0.03224557
#
# Stress axis : x y z
#
# Youngs Moduli (GPa) = 57.80697 60.86108 100.09027
#
# Poissons Ratio (x) = -0.10635 0.38701
# Poissons Ratio (y) = -0.10101 0.36217
# Poissons Ratio (z) = 0.22351 0.22022
#
# Static dielectric constant tensor:
#      x y z
#    x 1.816340 0.000000 0.065600 
#    y 0.000000 1.837460 0.000000 
#    z 0.065600 0.000000 1.844670 
# 
# From -- ./inp_files/65418.got.cif
#   From: 2010.05.17/outbox.cif.g08.bks.cpg/sg15_33_cif.got.tgz:65418.got - 2010.06.03 18:47:42.
