data_PCOD9293142
_publ_section_title
;
Structure prediction by ZEFSAII (Michael W. Deem and Ramdas Pophale) SiO2 
 PCOD9293142
Probable space group: C 2/C
;
_chemical_formula_sum "Si O2"
_cell_formula_units_Z 44
_cell_length_a 8.444336
_cell_length_b 26.036790
_cell_length_c 9.503400
_cell_angle_alpha 90.000000
_cell_angle_beta 67.959564
_cell_angle_gamma 90.000000
_cell_volume 1936.751298
_symmetry_space_group_name_H-M "C 2/C"
_symmetry_group_IT_number 15
_symmetry_cell_setting 'monoclinic'
loop_
_space_group_symop_operation_xyz
x,y,z
-x,y,1/2-z
-x,-y,-z
x,-y,1/2+z
1/2+x,1/2+y,z
1/2-x,1/2+y,1/2-z
1/2-x,1/2-y,-z
1/2+x,1/2-y,1/2+z
loop_
_atom_site_type_symbol
_atom_site_label
_atom_site_fract_x
_atom_site_fract_y
_atom_site_fract_z
Si Si1 0.681340 0.019470 0.998878
Si Si2 0.500000 0.741673 0.750000
Si Si3 0.163481 0.090499 0.042153
Si Si4 0.761012 0.105860 0.181465
Si Si5 0.842642 0.598450 0.718170
Si Si6 0.346072 0.812931 0.015575
O O1 0.745888 0.057941 0.855052
O O2 0.797872 0.970171 0.982267
O O3 0.678531 0.055724 0.136657
O O4 0.500000 0.000000 0.000000
O O5 0.489778 0.776145 0.897603
O O6 0.679747 0.711718 0.653484
O O7 0.271099 0.109110 0.141610
O O8 0.963284 0.098063 0.116057
O O9 0.218924 0.117136 0.880319
O O10 0.716560 0.154511 0.100258
O O11 0.910784 0.645271 0.604249
O O12 0.000000 0.573289 0.750000
#
# Coordination Sequence:
#
# PCOD9293142 Si02
#       6
#     8   4   8   8   8   8
#     4  11  22  38  58  91 133 176 221 256 301 365
#     4  10  22  44  74  94 114 164 210 276 328 422
#     4  11  22  38  61  90 136 171 218 252 308 368
#     4  10  24  39  62  93 128 175 209 266 312 383
#     4  11  23  39  62  93 128 169 210 266 307 376
#     4  10  23  43  70  92 127 161 217 260 343 389
#
# _framework density 22.718454999999999
#
# number of rings (size 3 to 8) (size 9 to 14) (size 15 to 20)
#    0.000    1.455    1.818    2.727    2.545    3.636 
#    0.000    0.909   16.000    0.000    0.000    0.000 
#    0.000    0.000    0.000    0.000    0.000    0.000 
#
# Total GULP energy -122718.330876 kJ/mol
# GULP energy per Si atom -5578.105949 kJ/mol
# Density = 2.266675 g / cm^3
# Si number density = 22.718455 Si / 1000 Ang^3
#
#
#
# Elastic Constant Matrix: (Units=GPa)
#
#
# Indices 1 2 3 4 5 6 
#
# 1 63.3483 12.2697 44.0620 0.0000 -1.7529 0.0000
# 2 12.2697 68.4018 51.1463 0.0000 -2.1273 0.0000
# 3 44.0620 51.1463 185.0021 0.0000 -4.8915 0.0000
# 4 0.0000 0.0000 0.0000 20.6384 0.0000 -12.8400
# 5 -1.7529 -2.1273 -4.8915 0.0000 41.2590 0.0000
# 6 0.0000 0.0000 0.0000 -12.8400 0.0000 37.7460
#
#
#
# Elastic Compliance Matrix: (Units=1/GPa)
#
#
# Indices 1 2 3 4 5 6 
#
# 1 0.018923 -0.000027 -0.004492 0.000000 0.000270 0.000000
# 2 -0.000027 0.018434 -0.005081 0.000000 0.000347 0.000000
# 3 -0.004492 -0.005081 0.007893 0.000000 0.000483 0.000000
# 4 0.000000 0.000000 0.000000 0.061460 0.000000 0.020907
# 5 0.000270 0.000347 0.000483 0.000000 0.024324 0.000000
# 6 0.000000 0.000000 0.000000 0.020907 0.000000 0.033605
#
#
# Mechanical properties :
#
#
# Convention : Reuss Voigt Hill
#
# Bulk Modulus (GPa) = 38.38780 59.07867 48.73324
# Shear Modulus (GPa) = 25.97106 33.88030 29.92568
#
# Velocity S-wave (km/s) = 3.38475 3.86594 3.63332
# Velocity P-wave (km/s) = 5.67532 6.78148 6.25291
#
# Compressibility (1/GPa) = 0.02604994
#
# Stress axis : x y z
#
# Youngs Moduli (GPa) = 52.84550 54.24699 126.69917
#
# Poissons Ratio (x) = 0.00146 0.56918
# Poissons Ratio (y) = 0.00142 0.64373
# Poissons Ratio (z) = 0.23740 0.27562
#
# Static dielectric constant tensor:
#      x y z
#    x 1.824340 0.000000 -0.075010 
#    y 0.000000 1.889440 0.000000 
#    z -0.075010 0.000000 1.987990 
# 
# From -- ./inp_files/25474.got.cif
#   From: 2010.05.17/outbox.cif.g08.bks.cpg/sg15_13_cif.got.tgz:25474.got - 2010.06.03 18:47:42.
