data_PCOD9293132
_publ_section_title
;
Structure prediction by ZEFSAII (Michael W. Deem and Ramdas Pophale) SiO2 
 PCOD9293132
Probable space group: C 2/C
;
_chemical_formula_sum "Si O2"
_cell_formula_units_Z 56
_cell_length_a 18.342283
_cell_length_b 12.826949
_cell_length_c 20.324090
_cell_angle_alpha 90.000000
_cell_angle_beta 153.562483
_cell_angle_gamma 90.000000
_cell_volume 2128.943251
_symmetry_space_group_name_H-M "C 2/C"
_symmetry_group_IT_number 15
_symmetry_cell_setting 'monoclinic'
loop_
_space_group_symop_operation_xyz
x,y,z
-x,y,1/2-z
-x,-y,-z
x,-y,1/2+z
1/2+x,1/2+y,z
1/2-x,1/2+y,1/2-z
1/2-x,1/2-y,-z
1/2+x,1/2-y,1/2+z
loop_
_atom_site_type_symbol
_atom_site_label
_atom_site_fract_x
_atom_site_fract_y
_atom_site_fract_z
Si Si1 0.226919 0.174241 0.336003
Si Si2 0.608040 0.219348 0.474778
Si Si3 0.137872 0.624717 0.308789
Si Si4 0.755739 0.342223 0.057748
Si Si5 0.686230 0.484377 0.393389
Si Si6 0.668742 0.452404 0.111432
Si Si7 0.391784 0.202559 0.870295
O O1 0.137960 0.272542 0.302617
O O2 0.172003 0.067179 0.322469
O O3 0.423953 0.175719 0.504777
O O4 0.185813 0.196905 0.227855
O O5 0.708712 0.319963 0.533364
O O6 0.439649 0.214023 0.299734
O O7 0.588558 0.222819 0.536984
O O8 0.697397 0.110734 0.530466
O O9 0.200855 0.534182 0.312738
O O10 0.000000 0.596403 0.250000
O O11 0.635966 0.384033 0.018758
O O12 0.750000 0.250000 0.000000
O O13 0.758588 0.444360 0.012463
O O14 0.500000 0.447286 0.250000
O O15 0.763867 0.387421 0.244586
O O16 0.500000 0.500000 0.000000
#
# Coordination Sequence:
#
# PCOD9293132 Si02
#       7
#     8   8   8   8   8   8   8
#     4  10  22  44  74 105 148 192 240 312 381 459
#     4  12  28  46  76 106 147 201 252 317 375 466
#     4  12  28  51  76 106 154 202 262 314 386 462
#     4   9  21  43  71 107 145 190 243 305 379 453
#     4  11  23  41  70 108 143 189 252 309 375 455
#     4  11  27  46  79 113 155 203 254 325 399 470
#     4  11  25  45  70 110 148 192 249 306 392 459
#
# _framework density 26.304130000000001
#
# number of rings (size 3 to 8) (size 9 to 14) (size 15 to 20)
#    0.000    1.143    0.000    4.286    8.000    4.571 
#    0.000    7.143    0.000    0.000    0.000    0.000 
#    0.000    0.000    0.000    0.000    0.000    0.000 
#
# Total GULP energy -156487.246872 kJ/mol
# GULP energy per Si atom -5588.830245 kJ/mol
# Density = 2.624426 g / cm^3
# Si number density = 26.304130 Si / 1000 Ang^3
#
#
#
# Elastic Constant Matrix: (Units=GPa)
#
#
# Indices 1 2 3 4 5 6 
#
# 1 133.4606 8.0446 40.6025 -0.0054 -12.6459 -0.0008
# 2 8.0446 64.9940 2.9590 -0.0121 6.5746 -0.0011
# 3 40.6025 2.9590 119.2692 -0.0055 6.9130 -0.0007
# 4 -0.0054 -0.0121 -0.0055 39.0501 -0.0016 -4.9207
# 5 -12.6459 6.5746 6.9130 -0.0016 47.1696 0.0007
# 6 -0.0008 -0.0011 -0.0007 -4.9207 0.0007 40.7209
#
#
#
# Elastic Compliance Matrix: (Units=1/GPa)
#
#
# Indices 1 2 3 4 5 6 
#
# 1 0.008808 -0.001250 -0.003141 0.000001 0.002996 0.000000
# 2 -0.001250 0.015792 0.000182 0.000005 -0.002563 0.000001
# 3 -0.003141 0.000182 0.009581 0.000001 -0.002272 0.000000
# 4 0.000001 0.000005 0.000001 0.026004 0.000000 0.003142
# 5 0.002996 -0.002563 -0.002272 0.000000 0.022693 0.000000
# 6 0.000000 0.000001 0.000000 0.003142 0.000000 0.024937
#
#
# Mechanical properties :
#
#
# Convention : Reuss Voigt Hill
#
# Bulk Modulus (GPa) = 38.81605 46.77068 42.79336
# Shear Modulus (GPa) = 40.05765 43.12928 41.59346
#
# Velocity S-wave (km/s) = 3.90662 4.05364 3.98081
# Velocity P-wave (km/s) = 5.92770 6.30307 6.11826
#
# Compressibility (1/GPa) = 0.02576254
#
# Stress axis : x y z
#
# Youngs Moduli (GPa) = 113.53755 63.32423 104.37521
#
# Poissons Ratio (x) = 0.07917 0.32784
# Poissons Ratio (y) = 0.14195 -0.01904
# Poissons Ratio (z) = 0.35662 -0.01155
#
# Static dielectric constant tensor:
#      x y z
#    x 2.114120 0.000000 0.019530 
#    y 0.000000 2.091320 0.000000 
#    z 0.019530 0.000000 2.092940 
# 
# From -- ./inp_files/249303.got.cif
#   From: 2010.05.17/outbox.cif.g08.bks.cpg/sg15_125_cif.got.tgz:249303.got - 2010.06.03 18:47:42.
