data_PCOD9293728
_publ_section_title
;
Structure prediction by ZEFSAII (Michael W. Deem and Ramdas Pophale) SiO2 
 PCOD9293728
Probable space group: C 2/C
;
_chemical_formula_sum "Si O2"
_cell_formula_units_Z 32
_cell_length_a 7.979362
_cell_length_b 13.482301
_cell_length_c 12.836980
_cell_angle_alpha 90.000000
_cell_angle_beta 125.798651
_cell_angle_gamma 90.000000
_cell_volume 1120.101695
_symmetry_space_group_name_H-M "C 2/C"
_symmetry_group_IT_number 15
_symmetry_cell_setting 'monoclinic'
loop_
_space_group_symop_operation_xyz
x,y,z
-x,y,1/2-z
-x,-y,-z
x,-y,1/2+z
1/2+x,1/2+y,z
1/2-x,1/2+y,1/2-z
1/2-x,1/2-y,-z
1/2+x,1/2-y,1/2+z
loop_
_atom_site_type_symbol
_atom_site_label
_atom_site_fract_x
_atom_site_fract_y
_atom_site_fract_z
Si Si1 0.029054 0.273299 0.639252
Si Si2 0.617933 0.097308 0.581723
Si Si3 0.165323 0.047005 0.200499
Si Si4 0.725971 0.389684 0.058507
O O1 0.198771 0.360703 0.715259
O O2 0.122911 0.188192 0.599798
O O3 0.000000 0.244255 0.750000
O O4 0.853528 0.329680 0.504940
O O5 0.448073 0.145558 0.597853
O O6 0.500000 0.000000 0.500000
O O7 0.800152 0.045650 0.710290
O O8 0.248411 0.996043 0.124060
O O9 0.937971 0.087363 0.092479
#
# Coordination Sequence:
#
# PCOD9293728 Si02
#       4
#     8   8   8   8
#     4  11  25  46  73 112 159 199 252 314 387 462
#     4  10  22  46  78 105 151 198 253 323 373 449
#     4  10  24  47  76 109 151 199 258 316 383 448
#     4  11  24  46  76 113 148 203 262 311 382 458
#
# _framework density 28.568832
#
# number of rings (size 3 to 8) (size 9 to 14) (size 15 to 20)
#    0.000    1.500    0.000    4.500    3.500    5.000 
#   22.500    0.000    0.000    0.000    0.000    0.000 
#    0.000    0.000    0.000    0.000    0.000    0.000 
#
# Total GULP energy -89697.285099 kJ/mol
# GULP energy per Si atom -5606.080319 kJ/mol
# Density = 2.850381 g / cm^3
# Si number density = 28.568832 Si / 1000 Ang^3
#
#
#
# Elastic Constant Matrix: (Units=GPa)
#
#
# Indices 1 2 3 4 5 6 
#
# 1 152.9523 71.2176 62.3829 0.0000 -30.4561 0.0000
# 2 71.2176 177.6814 76.7281 0.0000 -25.9711 0.0000
# 3 62.3829 76.7281 204.5553 0.0000 1.1241 0.0000
# 4 0.0000 0.0000 0.0000 68.7274 0.0000 -22.4797
# 5 -30.4561 -25.9711 1.1241 0.0000 42.8171 0.0000
# 6 0.0000 0.0000 0.0000 -22.4797 0.0000 61.4358
#
#
#
# Elastic Compliance Matrix: (Units=1/GPa)
#
#
# Indices 1 2 3 4 5 6 
#
# 1 0.009478 -0.002060 -0.002148 0.000000 0.005549 0.000000
# 2 -0.002060 0.007988 -0.002387 0.000000 0.003442 0.000000
# 3 -0.002148 -0.002387 0.006456 0.000000 -0.003145 0.000000
# 4 0.000000 0.000000 0.000000 0.016528 0.000000 0.006048
# 5 0.005549 0.003442 -0.003145 0.000000 0.029472 0.000000
# 6 0.000000 0.000000 0.000000 0.006048 0.000000 0.018490
#
#
# Mechanical properties :
#
#
# Convention : Reuss Voigt Hill
#
# Bulk Modulus (GPa) = 93.18197 106.20513 99.69355
# Shear Modulus (GPa) = 47.53700 56.25341 51.89521
#
# Velocity S-wave (km/s) = 4.08358 4.44221 4.26666
# Velocity P-wave (km/s) = 7.41091 7.97288 7.69703
#
# Compressibility (1/GPa) = 0.01073169
#
# Stress axis : x y z
#
# Youngs Moduli (GPa) = 105.50313 125.19317 154.88655
#
# Poissons Ratio (x) = 0.25794 0.33274
# Poissons Ratio (y) = 0.21738 0.36967
# Poissons Ratio (z) = 0.22665 0.29880
#
# Static dielectric constant tensor:
#      x y z
#    x 2.362060 0.000000 -0.020640 
#    y 0.000000 2.115270 0.000000 
#    z -0.020640 0.000000 2.276890 
# 
# From -- ./inp_files/84029.got.cif
#   From: 2010.05.17/outbox.cif.g08.bks.cpg/sg15_43_cif.got.tgz:84029.got - 2010.06.03 18:47:42.
