data_PCOD9293437
_publ_section_title
;
Structure prediction by ZEFSAII (Michael W. Deem and Ramdas Pophale) SiO2 
 PCOD9293437
Probable space group: C 2/C
;
_chemical_formula_sum "Si O2"
_cell_formula_units_Z 56
_cell_length_a 16.526123
_cell_length_b 5.405817
_cell_length_c 25.430672
_cell_angle_alpha 90.000000
_cell_angle_beta 120.768202
_cell_angle_gamma 90.000000
_cell_volume 1952.120552
_symmetry_space_group_name_H-M "C 2/C"
_symmetry_group_IT_number 15
_symmetry_cell_setting 'monoclinic'
loop_
_space_group_symop_operation_xyz
x,y,z
-x,y,1/2-z
-x,-y,-z
x,-y,1/2+z
1/2+x,1/2+y,z
1/2-x,1/2+y,1/2-z
1/2-x,1/2-y,-z
1/2+x,1/2-y,1/2+z
loop_
_atom_site_type_symbol
_atom_site_label
_atom_site_fract_x
_atom_site_fract_y
_atom_site_fract_z
Si Si1 0.207627 0.473730 0.993661
Si Si2 0.607611 0.460712 0.290887
Si Si3 0.259843 0.404675 0.839854
Si Si4 0.434444 0.399296 0.053176
Si Si5 0.107809 0.726392 0.052551
Si Si6 0.359361 0.817638 0.285541
Si Si7 0.936370 0.688539 0.636300
O O1 0.181022 0.160067 0.981841
O O2 0.124530 0.514574 0.920684
O O3 0.250000 0.750000 0.000000
O O4 0.161379 0.505878 0.038925
O O5 0.500000 0.381400 0.250000
O O6 0.677172 0.258328 0.337534
O O7 0.636316 0.553510 0.242806
O O8 0.612134 0.709798 0.327443
O O9 0.315469 0.602989 0.892380
O O10 0.332933 0.212515 0.837551
O O11 0.210846 0.523454 0.772481
O O12 0.516896 0.210057 0.061508
O O13 0.457607 0.551053 0.113188
O O14 0.433743 0.612263 0.008968
O O15 0.463805 0.926846 0.316647
#
# Coordination Sequence:
#
# PCOD9293437 Si02
#       7
#     8   8   8   8   8   8   8
#     4  11  26  47  76 110 149 194 253 312 387 452
#     4  10  25  47  72 108 153 195 246 303 378 445
#     4  12  24  45  76 110 149 192 251 307 375 449
#     4  10  22  45  75 103 145 194 254 305 376 445
#     4  10  24  45  73 109 147 196 249 314 369 449
#     4  11  24  43  72 111 146 193 248 308 368 453
#     4  10  24  47  75 106 153 196 243 315 382 452
#
# _framework density 28.686751999999998
#
# number of rings (size 3 to 8) (size 9 to 14) (size 15 to 20)
#    0.000    1.429    2.857    0.429    0.000   13.143 
#    0.000    3.571    0.000    0.000    0.000    0.000 
#    0.000    0.000    0.000    0.000    0.000    0.000 
#
# Total GULP energy -156861.031792 kJ/mol
# GULP energy per Si atom -5602.179707 kJ/mol
# Density = 2.862146 g / cm^3
# Si number density = 28.686752 Si / 1000 Ang^3
#
#
#
# Elastic Constant Matrix: (Units=GPa)
#
#
# Indices 1 2 3 4 5 6 
#
# 1 199.8657 68.0381 53.3413 -0.0001 -0.4172 0.0000
# 2 68.0381 155.9079 34.8238 -0.0002 12.7712 0.0002
# 3 53.3413 34.8238 136.3754 -0.0001 8.5884 0.0001
# 4 -0.0001 -0.0002 -0.0001 49.7741 0.0000 5.5438
# 5 -0.4172 12.7712 8.5884 0.0000 49.5048 0.0000
# 6 0.0000 0.0002 0.0001 5.5438 0.0000 52.6947
#
#
#
# Elastic Compliance Matrix: (Units=1/GPa)
#
#
# Indices 1 2 3 4 5 6 
#
# 1 0.006344 -0.002421 -0.001927 0.000000 0.001012 0.000000
# 2 -0.002421 0.007833 -0.000935 0.000000 -0.001879 0.000000
# 3 -0.001927 -0.000935 0.008403 0.000000 -0.001233 0.000000
# 4 0.000000 0.000000 0.000000 0.020329 0.000000 -0.002139
# 5 0.001012 -0.001879 -0.001233 0.000000 0.020907 0.000000
# 6 0.000000 0.000000 0.000000 -0.002139 0.000000 0.019202
#
#
# Mechanical properties :
#
#
# Convention : Reuss Voigt Hill
#
# Bulk Modulus (GPa) = 83.23443 89.39505 86.31474
# Shear Modulus (GPa) = 51.23536 52.79111 52.01323
#
# Velocity S-wave (km/s) = 4.23073 4.29448 4.26272
# Velocity P-wave (km/s) = 7.27622 7.47129 7.37440
#
# Compressibility (1/GPa) = 0.01201426
#
# Stress axis : x y z
#
# Youngs Moduli (GPa) = 157.63222 127.65968 119.00866
#
# Poissons Ratio (x) = 0.30906 0.22931
# Poissons Ratio (y) = 0.38163 0.11127
# Poissons Ratio (z) = 0.30374 0.11936
#
# Static dielectric constant tensor:
#      x y z
#    x 2.441810 0.000000 0.016980 
#    y 0.000000 2.318250 0.000000 
#    z 0.016980 0.000000 2.229160 
# 
# From -- ./inp_files/315140.got.cif
#   From: 2010.05.17/outbox.cif.g08.bks.cpg/sg15_158_cif.got.tgz:315140.got - 2010.06.03 18:47:42.
