data_PCOD9293850
_publ_section_title
;
Structure prediction by ZEFSAII (Michael W. Deem and Ramdas Pophale) SiO2 
 PCOD9293850
Probable space group: C 2/C
;
_chemical_formula_sum "Si O2"
_cell_formula_units_Z 44
_cell_length_a 17.659082
_cell_length_b 8.816457
_cell_length_c 18.254852
_cell_angle_alpha 90.000000
_cell_angle_beta 141.216894
_cell_angle_gamma 90.000000
_cell_volume 1780.222353
_symmetry_space_group_name_H-M "C 2/C"
_symmetry_group_IT_number 15
_symmetry_cell_setting 'monoclinic'
loop_
_space_group_symop_operation_xyz
x,y,z
-x,y,1/2-z
-x,-y,-z
x,-y,1/2+z
1/2+x,1/2+y,z
1/2-x,1/2+y,1/2-z
1/2-x,1/2-y,-z
1/2+x,1/2-y,1/2+z
loop_
_atom_site_type_symbol
_atom_site_label
_atom_site_fract_x
_atom_site_fract_y
_atom_site_fract_z
Si Si1 0.997177 0.127713 0.563519
Si Si2 0.593209 0.957627 0.984151
Si Si3 0.711905 0.449710 0.755977
Si Si4 0.750000 0.750000 0.000000
Si Si5 0.569967 0.807135 0.231033
Si Si6 0.239047 0.434894 0.877019
O O1 0.128880 0.100155 0.695051
O O2 0.873335 0.086542 0.515312
O O3 0.000000 0.000000 0.500000
O O4 0.972866 0.305922 0.533699
O O5 0.329774 0.966783 0.893538
O O6 0.507229 0.074556 0.876311
O O7 0.690460 0.892387 0.000455
O O8 0.623194 0.322288 0.720427
O O9 0.744700 0.415722 0.696807
O O10 0.830194 0.696190 0.133805
O O11 0.500000 0.751271 0.250000
O O12 0.683473 0.902638 0.346479
#
# Coordination Sequence:
#
# PCOD9293850 Si02
#       6
#     8   8   8   4   8   8
#     4   9  23  46  74 110 150 199 267 330 391 478
#     4  11  26  47  79 109 157 215 264 328 416 476
#     4  11  28  48  78 115 162 207 271 346 397 481
#     4  10  22  48  74 108 146 212 262 324 396 494
#     4  12  28  48  77 116 166 209 271 334 408 487
#     4  10  24  47  75 107 154 208 267 323 399 484
#
# _framework density 24.716011999999999
#
# number of rings (size 3 to 8) (size 9 to 14) (size 15 to 20)
#    0.000    1.455    1.818    0.000   15.273    5.818 
#    0.000    0.000    0.000    0.000    0.000    0.000 
#    0.000    0.000    0.000    0.000    0.000    0.000 
#
# Total GULP energy -122485.913421 kJ/mol
# GULP energy per Si atom -5567.541519 kJ/mol
# Density = 2.465976 g / cm^3
# Si number density = 24.716012 Si / 1000 Ang^3
#
#
#
# Elastic Constant Matrix: (Units=GPa)
#
#
# Indices 1 2 3 4 5 6 
#
# 1 118.2107 42.9248 13.3194 0.0000 -22.4488 0.0000
# 2 42.9248 90.2836 11.6733 0.0000 -1.9366 0.0000
# 3 13.3194 11.6733 55.9438 0.0000 -1.8903 0.0000
# 4 0.0000 0.0000 0.0000 57.8727 0.0000 10.4811
# 5 -22.4488 -1.9366 -1.8903 0.0000 38.9578 0.0000
# 6 0.0000 0.0000 0.0000 10.4811 0.0000 37.1126
#
#
#
# Elastic Compliance Matrix: (Units=1/GPa)
#
#
# Indices 1 2 3 4 5 6 
#
# 1 0.011761 -0.005262 -0.001485 0.000000 0.006443 0.000000
# 2 -0.005262 0.013745 -0.001698 0.000000 -0.002431 0.000000
# 3 -0.001485 -0.001698 0.018581 0.000000 -0.000038 0.000000
# 4 0.000000 0.000000 0.000000 0.018211 0.000000 -0.005143
# 5 0.006443 -0.002431 -0.000038 0.000000 0.029259 0.000000
# 6 0.000000 0.000000 0.000000 -0.005143 0.000000 0.028397
#
#
# Mechanical properties :
#
#
# Convention : Reuss Voigt Hill
#
# Bulk Modulus (GPa) = 36.76415 44.47476 40.61945
# Shear Modulus (GPa) = 34.26801 39.88999 37.07900
#
# Velocity S-wave (km/s) = 3.72757 4.02174 3.87745
# Velocity P-wave (km/s) = 5.78215 6.29279 6.04287
#
# Compressibility (1/GPa) = 0.02720041
#
# Stress axis : x y z
#
# Youngs Moduli (GPa) = 85.02706 72.75318 53.81712
#
# Poissons Ratio (x) = 0.38279 0.07989
# Poissons Ratio (y) = 0.44737 0.09136
# Poissons Ratio (z) = 0.12622 0.12350
#
# Static dielectric constant tensor:
#      x y z
#    x 1.617290 0.000000 -0.055760 
#    y 0.000000 1.705610 0.000000 
#    z -0.055760 0.000000 2.086050 
# 
# From -- ./inp_files/276671.got.cif
#   From: 2010.05.17/outbox.cif.g08.bks.cpg/sg15_139_cif.got.tgz:276671.got - 2010.06.03 18:47:42.
