data_PCOD9293655
_publ_section_title
;
Structure prediction by ZEFSAII (Michael W. Deem and Ramdas Pophale) SiO2 
 PCOD9293655
Probable space group: C 2/C
;
_chemical_formula_sum "Si O2"
_cell_formula_units_Z 36
_cell_length_a 7.325906
_cell_length_b 9.550385
_cell_length_c 25.803565
_cell_angle_alpha 90.000000
_cell_angle_beta 52.422040
_cell_angle_gamma 90.000000
_cell_volume 1430.785449
_symmetry_space_group_name_H-M "C 2/C"
_symmetry_group_IT_number 15
_symmetry_cell_setting 'monoclinic'
loop_
_space_group_symop_operation_xyz
x,y,z
-x,y,1/2-z
-x,-y,-z
x,-y,1/2+z
1/2+x,1/2+y,z
1/2-x,1/2+y,1/2-z
1/2-x,1/2-y,-z
1/2+x,1/2-y,1/2+z
loop_
_atom_site_type_symbol
_atom_site_label
_atom_site_fract_x
_atom_site_fract_y
_atom_site_fract_z
Si Si1 0.138844 0.936966 0.126332
Si Si2 0.486020 0.711533 0.191128
Si Si3 0.230630 0.936914 0.403239
Si Si4 0.000000 0.241897 0.750000
Si Si5 0.385162 0.719321 0.029193
O O1 0.163393 0.098059 0.137930
O O2 0.867025 0.358789 0.066546
O O3 0.955120 0.929123 0.111294
O O4 0.037191 0.855176 0.193274
O O5 0.500000 0.716971 0.250000
O O6 0.543057 0.861342 0.156580
O O7 0.229410 0.669349 0.219092
O O8 0.124491 0.849302 0.469966
O O9 0.248432 0.097240 0.416722
O O10 0.250000 0.750000 0.000000
#
# Coordination Sequence:
#
# PCOD9293655 Si02
#       5
#     8   8   8   4   8
#     4  11  23  44  69 105 144 186 243 294 362 431
#     4  12  26  45  71 107 142 192 238 294 362 429
#     4  10  22  46  72 103 149 187 240 303 361 428
#     4  12  26  42  68 106 146 186 244 294 356 436
#     4   9  21  43  74 106 143 190 239 303 360 430
#
# _framework density 25.161003999999998
#
# number of rings (size 3 to 8) (size 9 to 14) (size 15 to 20)
#    0.000    1.333    3.333    1.333    0.000    8.000 
#    2.000   15.556    0.000    1.333    0.000    0.000 
#    0.000    0.000    0.000    0.000    0.000    0.000 
#
# Total GULP energy -100887.523230 kJ/mol
# GULP energy per Si atom -5604.862402 kJ/mol
# Density = 2.510374 g / cm^3
# Si number density = 25.161004 Si / 1000 Ang^3
#
#
#
# Elastic Constant Matrix: (Units=GPa)
#
#
# Indices 1 2 3 4 5 6 
#
# 1 100.0621 25.2692 30.9500 0.0000 4.6452 0.0000
# 2 25.2692 103.0314 59.6633 0.0000 5.2056 0.0000
# 3 30.9500 59.6633 119.7818 0.0000 27.3619 0.0000
# 4 0.0000 0.0000 0.0000 49.2130 0.0000 -7.7910
# 5 4.6452 5.2056 27.3619 0.0000 27.6017 0.0000
# 6 0.0000 0.0000 0.0000 -7.7910 0.0000 17.9195
#
#
#
# Elastic Compliance Matrix: (Units=1/GPa)
#
#
# Indices 1 2 3 4 5 6 
#
# 1 0.011030 -0.001402 -0.002312 0.000000 0.000700 0.000000
# 2 -0.001402 0.014466 -0.008110 0.000000 0.005548 0.000000
# 3 -0.002312 -0.008110 0.016220 0.000000 -0.014161 0.000000
# 4 0.000000 0.000000 0.000000 0.021822 0.000000 0.009488
# 5 0.000700 0.005548 -0.014161 0.000000 0.049103 0.000000
# 6 0.000000 0.000000 0.000000 0.009488 0.000000 0.059930
#
#
# Mechanical properties :
#
#
# Convention : Reuss Voigt Hill
#
# Bulk Modulus (GPa) = 55.34480 61.62671 58.48575
# Shear Modulus (GPa) = 24.72274 32.74636 28.73455
#
# Velocity S-wave (km/s) = 3.13802 3.61151 3.38306
# Velocity P-wave (km/s) = 5.93073 6.47586 6.20928
#
# Compressibility (1/GPa) = 0.01806854
#
# Stress axis : x y z
#
# Youngs Moduli (GPa) = 90.65883 69.12777 61.65088
#
# Poissons Ratio (x) = 0.09692 0.14251
# Poissons Ratio (y) = 0.12711 0.50002
# Poissons Ratio (z) = 0.20956 0.56066
#
# Static dielectric constant tensor:
#      x y z
#    x 1.974840 0.000000 -0.039500 
#    y 0.000000 1.958160 0.000000 
#    z -0.039500 0.000000 1.971940 
# 
# From -- ./inp_files/229763.got.cif
#   From: 2010.05.17/outbox.cif.g08.bks.cpg/sg15_115_cif.got.tgz:229763.got - 2010.06.03 18:47:42.
