data_PCOD9293281
_publ_section_title
;
Structure prediction by ZEFSAII (Michael W. Deem and Ramdas Pophale) SiO2 
 PCOD9293281
Probable space group: C 2/C
;
_chemical_formula_sum "Si O2"
_cell_formula_units_Z 56
_cell_length_a 11.997276
_cell_length_b 15.079778
_cell_length_c 16.748657
_cell_angle_alpha 90.000000
_cell_angle_beta 121.734789
_cell_angle_gamma 90.000000
_cell_volume 2577.079202
_symmetry_space_group_name_H-M "C 2/C"
_symmetry_group_IT_number 15
_symmetry_cell_setting 'monoclinic'
loop_
_space_group_symop_operation_xyz
x,y,z
-x,y,1/2-z
-x,-y,-z
x,-y,1/2+z
1/2+x,1/2+y,z
1/2-x,1/2+y,1/2-z
1/2-x,1/2-y,-z
1/2+x,1/2-y,1/2+z
loop_
_atom_site_type_symbol
_atom_site_label
_atom_site_fract_x
_atom_site_fract_y
_atom_site_fract_z
Si Si1 0.552797 0.133030 0.642145
Si Si2 0.677872 0.054118 0.148062
Si Si3 0.591323 0.499699 0.361949
Si Si4 0.344590 0.667327 0.522042
Si Si5 0.287437 0.859786 0.139775
Si Si6 0.433942 0.228356 0.455012
Si Si7 0.345626 0.543942 0.370675
O O1 0.653852 0.160624 0.749829
O O2 0.412140 0.119171 0.631506
O O3 0.524922 0.207116 0.565360
O O4 0.605046 0.040628 0.624994
O O5 0.787371 0.059046 0.119762
O O6 0.583699 0.135258 0.095636
O O7 0.754465 0.064320 0.260225
O O8 0.500000 0.487107 0.250000
O O9 0.657052 0.407497 0.411622
O O10 0.494869 0.535947 0.394410
O O11 0.250000 0.750000 0.500000
O O12 0.490710 0.705316 0.574391
O O13 0.324388 0.615620 0.431313
O O14 0.201820 0.777464 0.077193
O O15 0.200379 0.948045 0.114870
#
# Coordination Sequence:
#
# PCOD9293281 Si02
#       7
#     8   8   8   8   8   8   8
#     4  10  23  43  66  96 140 176 225 285 338 415
#     4  10  24  43  70  98 135 181 228 277 347 402
#     4  10  22  45  68  93 135 184 226 275 336 412
#     4  12  27  41  68 104 136 176 226 287 345 408
#     4  10  23  43  67  98 132 181 227 277 345 402
#     4  12  25  40  67 102 134 176 227 282 342 401
#     4  10  23  45  68  93 140 184 226 273 345 414
#
# _framework density 21.730027
#
# number of rings (size 3 to 8) (size 9 to 14) (size 15 to 20)
#    0.000    1.429    1.429    2.143    6.000    2.286 
#    5.143    0.000    0.000    0.000    0.000    0.000 
#    0.000    0.000    0.000    0.000    0.000    0.000 
#
# Total GULP energy -156603.978707 kJ/mol
# GULP energy per Si atom -5592.999240 kJ/mol
# Density = 2.168057 g / cm^3
# Si number density = 21.730027 Si / 1000 Ang^3
#
#
#
# Elastic Constant Matrix: (Units=GPa)
#
#
# Indices 1 2 3 4 5 6 
#
# 1 64.3787 26.6192 20.2910 0.0000 3.2919 0.0000
# 2 26.6192 89.7735 45.1123 0.0000 1.1975 0.0000
# 3 20.2910 45.1123 70.4848 0.0000 9.5910 0.0000
# 4 0.0000 0.0000 0.0000 25.0110 0.0000 10.2276
# 5 3.2919 1.1975 9.5910 0.0000 22.5458 0.0000
# 6 0.0000 0.0000 0.0000 10.2276 0.0000 36.7833
#
#
#
# Elastic Compliance Matrix: (Units=1/GPa)
#
#
# Indices 1 2 3 4 5 6 
#
# 1 0.018064 -0.004159 -0.002346 0.000000 -0.001419 0.000000
# 2 -0.004159 0.017694 -0.010701 0.000000 0.004220 0.000000
# 3 -0.002346 -0.010701 0.022914 0.000000 -0.008837 0.000000
# 4 0.000000 0.000000 0.000000 0.045112 0.000000 -0.012543
# 5 -0.001419 0.004220 -0.008837 0.000000 0.048096 0.000000
# 6 0.000000 0.000000 0.000000 -0.012543 0.000000 0.030674
#
#
# Mechanical properties :
#
#
# Convention : Reuss Voigt Hill
#
# Bulk Modulus (GPa) = 41.21845 45.40910 43.31378
# Shear Modulus (GPa) = 22.21702 25.70900 23.96301
#
# Velocity S-wave (km/s) = 3.20099 3.44337 3.32439
# Velocity P-wave (km/s) = 5.71589 6.06229 5.89163
#
# Compressibility (1/GPa) = 0.02426098
#
# Stress axis : x y z
#
# Youngs Moduli (GPa) = 55.35725 56.51767 43.64083
#
# Poissons Ratio (x) = 0.23505 0.10236
# Poissons Ratio (y) = 0.23022 0.46702
# Poissons Ratio (z) = 0.12984 0.60482
#
# Static dielectric constant tensor:
#      x y z
#    x 1.829840 0.000000 -0.019130 
#    y 0.000000 1.744070 0.000000 
#    z -0.019130 0.000000 1.807700 
# 
# From -- ./inp_files/197933.got.cif
#   From: 2010.05.17/outbox.cif.g08.bks.cpg/sg15_99_cif.got.tgz:197933.got - 2010.06.03 18:47:42.
