data_PCOD9293329
_publ_section_title
;
Structure prediction by ZEFSAII (Michael W. Deem and Ramdas Pophale) SiO2 
 PCOD9293329
Probable space group: C 2/C
;
_chemical_formula_sum "Si O2"
_cell_formula_units_Z 28
_cell_length_a 6.897428
_cell_length_b 17.244625
_cell_length_c 10.229978
_cell_angle_alpha 90.000000
_cell_angle_beta 110.213893
_cell_angle_gamma 90.000000
_cell_volume 1141.847008
_symmetry_space_group_name_H-M "C 2/C"
_symmetry_group_IT_number 15
_symmetry_cell_setting 'monoclinic'
loop_
_space_group_symop_operation_xyz
x,y,z
-x,y,1/2-z
-x,-y,-z
x,-y,1/2+z
1/2+x,1/2+y,z
1/2-x,1/2+y,1/2-z
1/2-x,1/2-y,-z
1/2+x,1/2-y,1/2+z
loop_
_atom_site_type_symbol
_atom_site_label
_atom_site_fract_x
_atom_site_fract_y
_atom_site_fract_z
Si Si1 0.000000 0.744629 0.750000
Si Si2 0.014456 0.620791 0.941788
Si Si3 0.759318 0.020778 0.207721
Si Si4 0.208639 0.660032 0.366530
O O1 0.880194 0.682733 0.629786
O O2 0.113729 0.798401 0.672539
O O3 0.881581 0.554385 0.840470
O O4 0.842330 0.663883 0.992896
O O5 0.178652 0.579996 0.076019
O O6 0.729423 0.068479 0.335182
O O7 0.000000 0.002407 0.250000
O O8 0.000000 0.689675 0.250000
#
# Coordination Sequence:
#
# PCOD9293329 Si02
#       4
#     4   8   8   8
#     4  12  24  46  68 104 140 188 214 290 358 394
#     4  10  25  42  72 101 143 174 236 285 333 420
#     4  10  22  45  70 102 137 182 230 285 344 400
#     4  10  23  45  68 102 142 175 233 285 337 417
#
# _framework density 24.521674999999998
#
# number of rings (size 3 to 8) (size 9 to 14) (size 15 to 20)
#    0.000    1.714    1.429    0.857   10.000    6.857 
#    5.143    0.000    0.000    0.000    0.000    0.000 
#    0.000    0.000    0.000    0.000    0.000    0.000 
#
# Total GULP energy -78228.318296 kJ/mol
# GULP energy per Si atom -5587.737021 kJ/mol
# Density = 2.446586 g / cm^3
# Si number density = 24.521675 Si / 1000 Ang^3
#
#
#
# Elastic Constant Matrix: (Units=GPa)
#
#
# Indices 1 2 3 4 5 6 
#
# 1 80.3675 29.7080 34.6649 0.0000 1.0818 0.0000
# 2 29.7080 100.4085 41.6184 0.0000 -17.2089 0.0000
# 3 34.6649 41.6184 64.2655 0.0000 -24.0962 0.0000
# 4 0.0000 0.0000 0.0000 39.4273 0.0000 -11.0680
# 5 1.0818 -17.2089 -24.0962 0.0000 42.0357 0.0000
# 6 0.0000 0.0000 0.0000 -11.0680 0.0000 18.4568
#
#
#
# Elastic Compliance Matrix: (Units=1/GPa)
#
#
# Indices 1 2 3 4 5 6 
#
# 1 0.018247 -0.001975 -0.011518 0.000000 -0.007881 0.000000
# 2 -0.001975 0.013842 -0.007330 0.000000 0.001516 0.000000
# 3 -0.011518 -0.007330 0.032490 0.000000 0.015920 0.000000
# 4 0.000000 0.000000 0.000000 0.030497 0.000000 0.018288
# 5 -0.007881 0.001516 0.015920 0.000000 0.033738 0.000000
# 6 0.000000 0.000000 0.000000 0.018288 0.000000 0.065147
#
#
# Mechanical properties :
#
#
# Convention : Reuss Voigt Hill
#
# Bulk Modulus (GPa) = 43.60933 50.78047 47.19490
# Shear Modulus (GPa) = 20.55476 29.25398 24.90437
#
# Velocity S-wave (km/s) = 2.89836 3.45771 3.19032
# Velocity P-wave (km/s) = 5.38732 6.05759 5.73226
#
# Compressibility (1/GPa) = 0.02293087
#
# Stress axis : x y z
#
# Youngs Moduli (GPa) = 54.80255 72.24479 30.77912
#
# Poissons Ratio (x) = 0.14271 0.35453
# Poissons Ratio (y) = 0.10825 0.22562
# Poissons Ratio (z) = 0.63124 0.52957
#
# Static dielectric constant tensor:
#      x y z
#    x 2.000720 0.000000 -0.050850 
#    y 0.000000 1.986870 0.000000 
#    z -0.050850 0.000000 1.980980 
# 
# From -- ./inp_files/75413.got.cif
#   From: 2010.05.17/outbox.cif.g08.bks.cpg/sg15_38_cif.got.tgz:75413.got - 2010.06.03 18:47:42.
