data_PCOD9293242
_publ_section_title
;
Structure prediction by ZEFSAII (Michael W. Deem and Ramdas Pophale) SiO2 
 PCOD9293242
Probable space group: C 2/C
;
_chemical_formula_sum "Si O2"
_cell_formula_units_Z 60
_cell_length_a 6.422137
_cell_length_b 15.856564
_cell_length_c 25.816597
_cell_angle_alpha 90.000000
_cell_angle_beta 96.572505
_cell_angle_gamma 90.000000
_cell_volume 2611.704024
_symmetry_space_group_name_H-M "C 2/C"
_symmetry_group_IT_number 15
_symmetry_cell_setting 'monoclinic'
loop_
_space_group_symop_operation_xyz
x,y,z
-x,y,1/2-z
-x,-y,-z
x,-y,1/2+z
1/2+x,1/2+y,z
1/2-x,1/2+y,1/2-z
1/2-x,1/2-y,-z
1/2+x,1/2-y,1/2+z
loop_
_atom_site_type_symbol
_atom_site_label
_atom_site_fract_x
_atom_site_fract_y
_atom_site_fract_z
Si Si1 0.783984 0.441082 0.153353
Si Si2 0.664982 0.191830 0.934023
Si Si3 0.694549 0.208542 0.295332
Si Si4 0.567551 0.310091 0.517508
Si Si5 0.546531 0.890540 0.633202
Si Si6 0.000000 0.343296 0.250000
Si Si7 0.982508 0.946493 0.692433
Si Si8 0.062166 0.408826 0.983884
O O1 0.802847 0.362221 0.115719
O O2 0.865935 0.403909 0.209529
O O3 0.555128 0.481821 0.154345
O O4 0.923496 0.521090 0.139573
O O5 0.538918 0.280525 0.931506
O O6 0.512435 0.142560 0.968537
O O7 0.883594 0.193997 0.970503
O O8 0.500000 0.205260 0.250000
O O9 0.576661 0.190922 0.346984
O O10 0.844629 0.285603 0.281500
O O11 0.845562 0.127467 0.297662
O O12 0.750000 0.250000 0.500000
O O13 0.692478 0.397516 0.522937
O O14 0.557571 0.882255 0.571801
O O15 0.765601 0.904659 0.668862
O O16 0.000000 0.986384 0.750000
O O17 0.000000 0.500000 0.000000
#
# Coordination Sequence:
#
# PCOD9293242 Si02
#       8
#     8   8   8   8   8   4   8   8
#     4  11  26  41  69  99 135 178 224 284 347 409
#     4  10  22  45  66  95 137 177 226 276 344 405
#     4  11  23  46  67  97 134 175 229 280 335 411
#     4   9  22  43  64  89 134 179 218 282 332 400
#     4  11  24  43  70  98 134 185 220 280 348 411
#     4  12  26  44  68 106 134 176 236 288 344 414
#     4  11  22  44  69  96 135 176 223 284 344 411
#     4  11  23  41  67 102 132 173 228 276 332 411
#
# _framework density 22.973507000000001
#
# number of rings (size 3 to 8) (size 9 to 14) (size 15 to 20)
#    0.000    1.333    3.333    0.800    5.600    4.267 
#   12.000    0.000    0.000    0.000    0.000    0.000 
#    0.000    0.000    0.000    0.000    0.000    0.000 
#
# Total GULP energy -167404.621477 kJ/mol
# GULP energy per Si atom -5580.154049 kJ/mol
# Density = 2.292122 g / cm^3
# Si number density = 22.973507 Si / 1000 Ang^3
#
#
#
# Elastic Constant Matrix: (Units=GPa)
#
#
# Indices 1 2 3 4 5 6 
#
# 1 110.7746 24.7551 -4.6899 0.0000 0.4220 0.0000
# 2 24.7551 62.8812 1.1872 0.0000 -16.0387 0.0000
# 3 -4.6899 1.1872 64.4531 0.0000 -8.0310 0.0000
# 4 0.0000 0.0000 0.0000 29.9684 0.0000 -0.9843
# 5 0.4220 -16.0387 -8.0310 0.0000 27.3101 0.0000
# 6 0.0000 0.0000 0.0000 -0.9843 0.0000 27.9068
#
#
#
# Elastic Compliance Matrix: (Units=1/GPa)
#
#
# Indices 1 2 3 4 5 6 
#
# 1 0.010107 -0.004696 0.000476 0.000000 -0.002774 0.000000
# 2 -0.004696 0.020957 0.000846 0.000000 0.012629 0.000000
# 3 0.000476 0.000846 0.016188 0.000000 0.005250 0.000000
# 4 0.000000 0.000000 0.000000 0.033407 0.000000 0.001178
# 5 -0.002774 0.012629 0.005250 0.000000 0.045620 0.000000
# 6 0.000000 0.000000 0.000000 0.001178 0.000000 0.035875
#
#
# Mechanical properties :
#
#
# Convention : Reuss Voigt Hill
#
# Bulk Modulus (GPa) = 24.68777 31.17931 27.93354
# Shear Modulus (GPa) = 27.41178 31.49415 29.45297
#
# Velocity S-wave (km/s) = 3.45801 3.70657 3.58444
# Velocity P-wave (km/s) = 5.16849 5.64974 5.41446
#
# Compressibility (1/GPa) = 0.04050588
#
# Stress axis : x y z
#
# Youngs Moduli (GPa) = 98.93740 47.71738 61.77272
#
# Poissons Ratio (x) = 0.22406 -0.02942
# Poissons Ratio (y) = 0.46457 -0.05225
# Poissons Ratio (z) = -0.04713 -0.04036
#
# Static dielectric constant tensor:
#      x y z
#    x 1.836460 0.000000 -0.109120 
#    y 0.000000 1.465910 0.000000 
#    z -0.109120 0.000000 1.838930 
# 
# From -- ./inp_files/286076.got.cif
#   From: 2010.05.17/outbox.cif.g08.bks.cpg/sg15_144_cif.got.tgz:286076.got - 2010.06.03 18:47:42.
