data_PCOD9293631
_publ_section_title
;
Structure prediction by ZEFSAII (Michael W. Deem and Ramdas Pophale) SiO2 
 PCOD9293631
Probable space group: C 2/C
;
_chemical_formula_sum "Si O2"
_cell_formula_units_Z 60
_cell_length_a 8.959556
_cell_length_b 20.123547
_cell_length_c 17.707471
_cell_angle_alpha 90.000000
_cell_angle_beta 57.171939
_cell_angle_gamma 90.000000
_cell_volume 2682.764447
_symmetry_space_group_name_H-M "C 2/C"
_symmetry_group_IT_number 15
_symmetry_cell_setting 'monoclinic'
loop_
_space_group_symop_operation_xyz
x,y,z
-x,y,1/2-z
-x,-y,-z
x,-y,1/2+z
1/2+x,1/2+y,z
1/2-x,1/2+y,1/2-z
1/2-x,1/2-y,-z
1/2+x,1/2-y,1/2+z
loop_
_atom_site_type_symbol
_atom_site_label
_atom_site_fract_x
_atom_site_fract_y
_atom_site_fract_z
Si Si1 0.174221 0.086425 0.747030
Si Si2 0.000000 0.347847 0.250000
Si Si3 0.876391 0.277291 0.033380
Si Si4 0.620588 0.065664 0.958983
Si Si5 0.472668 0.380737 0.844182
Si Si6 0.301302 0.205895 0.281648
Si Si7 0.939735 0.989244 0.432859
Si Si8 0.255322 0.752419 0.620589
O O1 0.336000 0.118945 0.750337
O O2 0.279386 0.055389 0.648185
O O3 0.000000 0.119285 0.750000
O O4 0.082109 0.039778 0.834717
O O5 0.893455 0.303789 0.340165
O O6 0.928635 0.356042 0.020242
O O7 0.774672 0.258984 0.137901
O O8 0.750000 0.250000 0.000000
O O9 0.063634 0.239371 0.972596
O O10 0.772910 0.058982 0.979870
O O11 0.500000 0.000000 0.000000
O O12 0.500000 0.402243 0.750000
O O13 0.663941 0.355426 0.820410
O O14 0.389509 0.439172 0.914337
O O15 0.342600 0.318379 0.879319
O O16 0.500000 0.187223 0.250000
O O17 0.300517 0.235078 0.196948
O O18 0.000000 0.000000 0.500000
#
# Coordination Sequence:
#
# PCOD9293631 Si02
#       8
#     8   4   8   8   8   8   8   8
#     4  10  26  49  76 106 150 201 246 312 379 456
#     4  12  24  46  78 112 144 192 256 306 388 448
#     4  12  27  42  74 111 145 191 247 316 381 452
#     4  11  26  49  73 104 148 202 246 303 387 456
#     4  10  22  46  71 102 142 192 236 301 375 439
#     4  11  23  44  71 106 143 189 236 305 374 452
#     4  11  26  46  76 105 146 190 249 310 364 455
#     4  11  24  45  69 105 145 185 241 303 373 459
#
# _framework density 22.364989999999999
#
# number of rings (size 3 to 8) (size 9 to 14) (size 15 to 20)
#    0.000    1.067    3.333    2.800    7.467    3.733 
#    3.600    0.000    0.000    0.000    0.000    0.000 
#    0.000    0.000    0.000    0.000    0.000    0.000 
#
# Total GULP energy -167478.740420 kJ/mol
# GULP energy per Si atom -5582.624681 kJ/mol
# Density = 2.231409 g / cm^3
# Si number density = 22.364990 Si / 1000 Ang^3
#
#
#
# Elastic Constant Matrix: (Units=GPa)
#
#
# Indices 1 2 3 4 5 6 
#
# 1 150.0870 54.9103 51.3772 0.0000 -7.2657 0.0000
# 2 54.9103 83.5359 32.1010 0.0000 -0.2656 0.0000
# 3 51.3772 32.1010 88.7782 0.0000 -13.0327 0.0000
# 4 0.0000 0.0000 0.0000 20.9033 0.0000 -1.2971
# 5 -7.2657 -0.2656 -13.0327 0.0000 41.2253 0.0000
# 6 0.0000 0.0000 0.0000 -1.2971 0.0000 30.4189
#
#
#
# Elastic Compliance Matrix: (Units=1/GPa)
#
#
# Indices 1 2 3 4 5 6 
#
# 1 0.009813 -0.004988 -0.003803 0.000000 0.000495 0.000000
# 2 -0.004988 0.016535 -0.003362 0.000000 -0.001835 0.000000
# 3 -0.003803 -0.003362 0.015288 0.000000 0.004141 0.000000
# 4 0.000000 0.000000 0.000000 0.047966 0.000000 0.002045
# 5 0.000495 -0.001835 0.004141 0.000000 0.025642 0.000000
# 6 0.000000 0.000000 0.000000 0.002045 0.000000 0.032961
#
#
# Mechanical properties :
#
#
# Convention : Reuss Voigt Hill
#
# Bulk Modulus (GPa) = 57.69652 66.57535 62.13593
# Shear Modulus (GPa) = 28.04432 30.77702 29.41067
#
# Velocity S-wave (km/s) = 3.54494 3.71364 3.63027
# Velocity P-wave (km/s) = 6.52757 6.94409 6.73905
#
# Compressibility (1/GPa) = 0.01733207
#
# Stress axis : x y z
#
# Youngs Moduli (GPa) = 101.90214 60.47596 65.40875
#
# Poissons Ratio (x) = 0.30163 0.24875
# Poissons Ratio (y) = 0.50825 0.21991
# Poissons Ratio (z) = 0.38753 0.20332
#
# Static dielectric constant tensor:
#      x y z
#    x 1.864230 0.000000 0.011610 
#    y 0.000000 1.856040 0.000000 
#    z 0.011610 0.000000 1.787950 
# 
# From -- ./inp_files/192547.got.cif
#   From: 2010.05.17/outbox.cif.g08.bks.cpg/sg15_97_cif.got.tgz:192547.got - 2010.06.03 18:47:42.
