data_PCOD9293457
_publ_section_title
;
Structure prediction by ZEFSAII (Michael W. Deem and Ramdas Pophale) SiO2 
 PCOD9293457
Probable space group: C 2/C
;
_chemical_formula_sum "Si O2"
_cell_formula_units_Z 52
_cell_length_a 7.125560
_cell_length_b 21.202565
_cell_length_c 15.030622
_cell_angle_alpha 90.000000
_cell_angle_beta 113.311241
_cell_angle_gamma 90.000000
_cell_volume 2085.458058
_symmetry_space_group_name_H-M "C 2/C"
_symmetry_group_IT_number 15
_symmetry_cell_setting 'monoclinic'
loop_
_space_group_symop_operation_xyz
x,y,z
-x,y,1/2-z
-x,-y,-z
x,-y,1/2+z
1/2+x,1/2+y,z
1/2-x,1/2+y,1/2-z
1/2-x,1/2-y,-z
1/2+x,1/2-y,1/2+z
loop_
_atom_site_type_symbol
_atom_site_label
_atom_site_fract_x
_atom_site_fract_y
_atom_site_fract_z
Si Si1 0.588795 0.951339 0.417587
Si Si2 0.258686 0.261938 0.190667
Si Si3 0.748353 0.361854 0.441945
Si Si4 0.600903 0.548222 0.370623
Si Si5 0.000000 0.636705 0.750000
Si Si6 0.343582 0.082567 0.144945
Si Si7 0.500000 0.431250 0.250000
Si Si8 0.000000 0.837765 0.750000
O O1 0.431245 0.906750 0.440858
O O2 0.784004 0.957615 0.516137
O O3 0.622939 0.910622 0.335937
O O4 0.546706 0.022887 0.381107
O O5 0.500000 0.252312 0.250000
O O6 0.220745 0.289996 0.085061
O O7 0.159830 0.319240 0.229808
O O8 0.127416 0.203569 0.203721
O O9 0.761410 0.371776 0.550520
O O10 0.552248 0.385209 0.344680
O O11 0.360573 0.553771 0.348985
O O12 0.644900 0.487671 0.317636
O O13 0.646233 0.614690 0.331668
O O14 0.500000 0.106583 0.250000
#
# Coordination Sequence:
#
# PCOD9293457 Si02
#       8
#     8   8   8   8   4   8   4   4
#     4  11  22  40  66 104 146 188 221 290 361 438
#     4  10  22  45  77  97 132 187 248 308 349 428
#     4  11  24  40  69 108 140 180 244 291 357 423
#     4  11  26  41  69  99 148 190 224 296 368 430
#     4   9  22  39  70 104 143 180 239 290 358 429
#     4  12  25  39  66 106 150 190 231 281 359 442
#     4  11  22  39  68 104 141 177 232 294 358 447
#     4  10  26  52  66 104 138 191 247 302 366 414
#
# _framework density 24.934571999999999
#
# number of rings (size 3 to 8) (size 9 to 14) (size 15 to 20)
#    0.000    1.231    3.077    1.846    8.615    0.615 
#    0.000    7.692    0.000    0.000    0.000    0.000 
#    0.000    0.000    0.000    0.000    0.000    0.000 
#
# Total GULP energy -144959.177221 kJ/mol
# GULP energy per Si atom -5575.352970 kJ/mol
# Density = 2.487782 g / cm^3
# Si number density = 24.934572 Si / 1000 Ang^3
#
#
#
# Elastic Constant Matrix: (Units=GPa)
#
#
# Indices 1 2 3 4 5 6 
#
# 1 98.0837 13.4461 34.3235 0.0000 8.9627 0.0000
# 2 13.4461 144.1159 56.9761 0.0000 -8.2356 0.0000
# 3 34.3235 56.9761 209.2531 0.0000 8.3218 0.0000
# 4 0.0000 0.0000 0.0000 -364.8729 0.0000 299.4358
# 5 8.9627 -8.2356 8.3218 0.0000 36.9613 0.0000
# 6 0.0000 0.0000 0.0000 299.4358 0.0000 -215.5290
#
#
#
# Elastic Compliance Matrix: (Units=1/GPa)
#
#
# Indices 1 2 3 4 5 6 
#
# 1 0.011042 -0.000552 -0.001564 0.000000 -0.002449 0.000000
# 2 -0.000552 0.007990 -0.002181 0.000000 0.002405 0.000000
# 3 -0.001564 -0.002181 0.005684 0.000000 -0.001387 0.000000
# 4 0.000000 0.000000 0.000000 0.019556 0.000000 0.027169
# 5 -0.002449 0.002405 -0.001387 0.000000 0.028497 0.000000
# 6 0.000000 0.000000 0.000000 0.027169 0.000000 0.033107
#
#
# Mechanical properties :
#
#
# Convention : Reuss Voigt Hill
#
# Bulk Modulus (GPa) = 62.02010 73.43823 67.72917
# Shear Modulus (GPa) = 41.72135 -85.57431 -21.92648
#
# Velocity S-wave (km/s) = 4.09495 -5.86464 -2.96862
# Velocity P-wave (km/s) = 6.87643 4.04258 3.93338
#
# Compressibility (1/GPa) = 0.01612380
#
# Stress axis : x y z
#
# Youngs Moduli (GPa) = 90.56388 125.15786 175.92465
#
# Poissons Ratio (x) = 0.06909 0.27506
# Poissons Ratio (y) = 0.04999 0.38363
# Poissons Ratio (z) = 0.14160 0.27292
#
# Static dielectric constant tensor:
#      x y z
#    x 2.085790 0.000000 -0.060680 
#    y 0.000000 2.014350 0.000000 
#    z -0.060680 0.000000 2.035050 
# 
# From -- ./inp_files/137554.got.cif
#   From: 2010.05.17/outbox.cif.g08.bks.cpg/sg15_69_cif.got.tgz:137554.got - 2010.06.03 18:47:42.
