data_PCOD9293161
_publ_section_title
;
Structure prediction by ZEFSAII (Michael W. Deem and Ramdas Pophale) SiO2 
 PCOD9293161
Probable space group: C 2/C
;
_chemical_formula_sum "Si O2"
_cell_formula_units_Z 40
_cell_length_a 8.804221
_cell_length_b 16.870109
_cell_length_c 10.564798
_cell_angle_alpha 90.000000
_cell_angle_beta 90.651199
_cell_angle_gamma 90.000000
_cell_volume 1569.068743
_symmetry_space_group_name_H-M "C 2/C"
_symmetry_group_IT_number 15
_symmetry_cell_setting 'monoclinic'
loop_
_space_group_symop_operation_xyz
x,y,z
-x,y,1/2-z
-x,-y,-z
x,-y,1/2+z
1/2+x,1/2+y,z
1/2-x,1/2+y,1/2-z
1/2-x,1/2-y,-z
1/2+x,1/2-y,1/2+z
loop_
_atom_site_type_symbol
_atom_site_label
_atom_site_fract_x
_atom_site_fract_y
_atom_site_fract_z
Si Si1 0.604467 0.721307 0.871710
Si Si2 0.861473 0.360695 0.152248
Si Si3 0.643346 0.874651 0.001964
Si Si4 0.904438 0.815494 0.621864
Si Si5 0.329647 0.466337 0.486391
O O1 0.500000 0.708821 0.750000
O O2 0.757085 0.669057 0.886295
O O3 0.654725 0.812914 0.886239
O O4 0.512069 0.699230 0.999727
O O5 0.817566 0.268033 0.139200
O O6 0.000000 0.374762 0.250000
O O7 0.965751 0.379165 0.029013
O O8 0.719998 0.419535 0.141731
O O9 0.718773 0.959237 0.990534
O O10 0.820451 0.897131 0.591631
O O11 0.000000 0.825057 0.750000
O O12 0.500000 0.500000 0.500000
#
# Coordination Sequence:
#
# PCOD9293161 Si02
#       5
#     8   8   8   8   8
#     4  10  22  44  75  99 137 192 238 291 355 432
#     4  10  24  44  69  99 143 186 236 293 358 428
#     4  10  23  44  65 104 140 179 243 290 353 428
#     4  10  23  46  70 106 142 185 240 294 355 426
#     4  12  24  43  70 106 142 187 238 299 361 421
#
# _framework density 25.492830999999999
#
# number of rings (size 3 to 8) (size 9 to 14) (size 15 to 20)
#    0.000    1.600    2.000    1.200    2.800    3.200 
#   18.000    0.000    0.000    0.000    0.000    0.000 
#    0.000    0.000    0.000    0.000    0.000    0.000 
#
# Total GULP energy -111857.560793 kJ/mol
# GULP energy per Si atom -5592.878040 kJ/mol
# Density = 2.543481 g / cm^3
# Si number density = 25.492831 Si / 1000 Ang^3
#
#
#
# Elastic Constant Matrix: (Units=GPa)
#
#
# Indices 1 2 3 4 5 6 
#
# 1 124.8762 57.9665 53.9809 0.0000 38.2844 0.0000
# 2 57.9665 227.2960 48.7892 0.0000 29.1771 0.0000
# 3 53.9809 48.7892 138.3228 0.0000 43.1936 0.0000
# 4 0.0000 0.0000 0.0000 33.6777 0.0000 26.0236
# 5 38.2844 29.1771 43.1936 0.0000 42.0077 0.0000
# 6 0.0000 0.0000 0.0000 26.0236 0.0000 37.1399
#
#
#
# Elastic Compliance Matrix: (Units=1/GPa)
#
#
# Indices 1 2 3 4 5 6 
#
# 1 0.011943 -0.001672 -0.001524 0.000000 -0.008156 0.000000
# 2 -0.001672 0.005154 -0.000771 0.000000 -0.001263 0.000000
# 3 -0.001524 -0.000771 0.011040 0.000000 -0.009427 0.000000
# 4 0.000000 0.000000 0.000000 0.064753 0.000000 -0.045372
# 5 -0.008156 -0.001263 -0.009427 0.000000 0.041809 0.000000
# 6 0.000000 0.000000 0.000000 -0.045372 0.000000 0.058717
#
#
# Mechanical properties :
#
#
# Convention : Reuss Voigt Hill
#
# Bulk Modulus (GPa) = 49.49754 90.21869 69.85811
# Shear Modulus (GPa) = 24.02870 44.54896 34.28883
#
# Velocity S-wave (km/s) = 3.07346 4.18486 3.67145
# Velocity P-wave (km/s) = 5.66156 7.66925 6.74057
#
# Compressibility (1/GPa) = 0.02020303
#
# Stress axis : x y z
#
# Youngs Moduli (GPa) = 83.72815 194.04272 90.57985
#
# Poissons Ratio (x) = 0.32438 0.13808
# Poissons Ratio (y) = 0.13997 0.06983
# Poissons Ratio (z) = 0.12763 0.14958
#
# Static dielectric constant tensor:
#      x y z
#    x 2.033790 0.000000 -0.103450 
#    y 0.000000 1.989890 0.000000 
#    z -0.103450 0.000000 2.219850 
# 
# From -- ./inp_files/76939.got.cif
#   From: 2010.05.17/outbox.cif.g08.bks.cpg/sg15_39_cif.got.tgz:76939.got - 2010.06.03 18:47:42.
