data_PCOD9293652
_publ_section_title
;
Structure prediction by ZEFSAII (Michael W. Deem and Ramdas Pophale) SiO2 
 PCOD9293652
Probable space group: C 2/C
;
_chemical_formula_sum "Si O2"
_cell_formula_units_Z 44
_cell_length_a 19.916955
_cell_length_b 4.935541
_cell_length_c 24.024684
_cell_angle_alpha 90.000000
_cell_angle_beta 132.708522
_cell_angle_gamma 90.000000
_cell_volume 1735.372242
_symmetry_space_group_name_H-M "C 2/C"
_symmetry_group_IT_number 15
_symmetry_cell_setting 'monoclinic'
loop_
_space_group_symop_operation_xyz
x,y,z
-x,y,1/2-z
-x,-y,-z
x,-y,1/2+z
1/2+x,1/2+y,z
1/2-x,1/2+y,1/2-z
1/2-x,1/2-y,-z
1/2+x,1/2-y,1/2+z
loop_
_atom_site_type_symbol
_atom_site_label
_atom_site_fract_x
_atom_site_fract_y
_atom_site_fract_z
Si Si1 0.500000 0.867260 0.750000
Si Si2 0.689455 0.411650 0.510562
Si Si3 0.398660 0.109766 0.938268
Si Si4 0.578528 0.400650 0.851387
Si Si5 0.717871 0.288741 0.851254
Si Si6 0.811040 0.818958 0.781967
O O1 0.501914 0.632552 0.800558
O O2 0.553923 0.103032 0.815510
O O3 0.750000 0.250000 0.500000
O O4 0.625542 0.250214 0.517043
O O5 0.623745 0.603055 0.437045
O O6 0.756706 0.566742 0.589510
O O7 0.380936 0.285878 0.872127
O O8 0.317356 0.890037 0.888437
O O9 0.500000 0.000000 0.000000
O O10 0.657665 0.499164 0.852153
O O11 0.662472 0.211065 0.764613
O O12 0.723462 0.625545 0.745700
#
# Coordination Sequence:
#
# PCOD9293652 Si02
#       6
#     4   8   8   8   8   8
#     4  10  26  46  64 114 156 206 250 318 392 470
#     4  12  24  45  77 115 150 201 264 324 397 471
#     4  11  26  47  74 114 156 206 264 327 389 463
#     4  11  24  44  76 110 160 197 259 325 401 472
#     4  11  24  45  79 108 151 207 263 316 398 478
#     4  10  22  46  72 102 144 205 259 311 376 466
#
# _framework density 25.354793000000001
#
# number of rings (size 3 to 8) (size 9 to 14) (size 15 to 20)
#    0.000    1.091    3.636    1.636    2.545    2.182 
#    3.273    5.455    0.000    0.000    0.000    0.000 
#    0.000    0.000    0.000    0.000    0.000    0.000 
#
# Total GULP energy -122615.698542 kJ/mol
# GULP energy per Si atom -5573.440843 kJ/mol
# Density = 2.529708 g / cm^3
# Si number density = 25.354793 Si / 1000 Ang^3
#
#
#
# Elastic Constant Matrix: (Units=GPa)
#
#
# Indices 1 2 3 4 5 6 
#
# 1 92.0751 34.4057 135.6890 -0.0048 -7.7400 0.0060
# 2 34.4057 98.1211 22.2268 -0.0039 2.5576 -0.0028
# 3 135.6890 22.2268 17.0010 -0.0005 -29.2414 -0.0217
# 4 -0.0048 -0.0039 -0.0005 22.5362 0.0002 -12.5890
# 5 -7.7400 2.5576 -29.2414 0.0002 55.9570 -0.0007
# 6 0.0060 -0.0028 -0.0217 -12.5890 -0.0007 32.0191
#
#
#
# Elastic Compliance Matrix: (Units=1/GPa)
#
#
# Indices 1 2 3 4 5 6 
#
# 1 0.000254 -0.002001 0.007949 0.000004 0.004280 0.000007
# 2 -0.002001 0.011298 -0.001600 0.000002 -0.001629 0.000001
# 3 0.007949 -0.001600 -0.005073 -0.000002 -0.001478 -0.000006
# 4 0.000004 0.000002 -0.000002 0.056862 -0.000001 0.022357
# 5 0.004280 -0.001629 -0.001478 -0.000001 0.017765 -0.000002
# 6 0.000007 0.000001 -0.000006 0.022357 -0.000002 0.040021
#
#
# Mechanical properties :
#
#
# Convention : Reuss Voigt Hill
#
# Bulk Modulus (GPa) = 65.89557 65.76002 65.82779
# Shear Modulus (GPa) = 42.55655 23.09417 32.82536
#
# Velocity S-wave (km/s) = 4.10132 3.02129 3.60202
# Velocity P-wave (km/s) = 6.96230 6.17763 6.58167
#
# Compressibility (1/GPa) = 0.01517553
#
# Stress axis : x y z
#
# Youngs Moduli (GPa) = 3931.50606 88.51069 -197.13783
#
# Poissons Ratio (x) = 0.17714 1.56702
# Poissons Ratio (y) = 7.86838 -0.31535
# Poissons Ratio (z) = -31.25089 0.14158
#
# Static dielectric constant tensor:
#      x y z
#    x 2.211840 -0.000010 0.067130 
#    y -0.000010 2.137500 0.000000 
#    z 0.067130 0.000000 2.113750 
# 
# From -- ./inp_files/278729.got.cif
#   From: 2010.05.17/outbox.cif.g08.bks.cpg/sg15_140_cif.got.tgz:278729.got - 2010.06.03 18:47:42.
