data_PCOD9293476
_publ_section_title
;
Structure prediction by ZEFSAII (Michael W. Deem and Ramdas Pophale) SiO2 
 PCOD9293476
Probable space group: C 2/C
;
_chemical_formula_sum "Si O2"
_cell_formula_units_Z 44
_cell_length_a 9.644766
_cell_length_b 14.073603
_cell_length_c 14.023904
_cell_angle_alpha 90.000000
_cell_angle_beta 64.145629
_cell_angle_gamma 90.000000
_cell_volume 1713.021273
_symmetry_space_group_name_H-M "C 2/C"
_symmetry_group_IT_number 15
_symmetry_cell_setting 'monoclinic'
loop_
_space_group_symop_operation_xyz
x,y,z
-x,y,1/2-z
-x,-y,-z
x,-y,1/2+z
1/2+x,1/2+y,z
1/2-x,1/2+y,1/2-z
1/2-x,1/2-y,-z
1/2+x,1/2-y,1/2+z
loop_
_atom_site_type_symbol
_atom_site_label
_atom_site_fract_x
_atom_site_fract_y
_atom_site_fract_z
Si Si1 0.326057 0.037547 0.286972
Si Si2 0.313692 0.178257 0.735997
Si Si3 0.000000 0.893292 0.250000
Si Si4 0.385715 0.193899 0.515020
Si Si5 0.204638 0.987118 0.030996
Si Si6 0.768689 0.663152 0.126311
O O1 0.500000 0.077515 0.250000
O O2 0.353462 0.929851 0.245242
O O3 0.219827 0.033260 0.413613
O O4 0.249215 0.094958 0.224221
O O5 0.139476 0.169458 0.746918
O O6 0.395431 0.224870 0.621210
O O7 0.326562 0.242724 0.824671
O O8 0.938369 0.952660 0.360436
O O9 0.250000 0.250000 0.500000
O O10 0.555524 0.198031 0.424768
O O11 0.339566 0.082407 0.528915
O O12 0.234671 0.096670 0.046614
#
# Coordination Sequence:
#
# PCOD9293476 Si02
#       6
#     8   8   4   8   8   8
#     4  12  24  43  70  97 132 180 225 273 346 409
#     4  11  25  41  64 101 132 174 226 282 335 402
#     4  10  22  46  62  96 136 172 234 282 320 396
#     4  11  21  40  68 100 131 173 230 289 329 389
#     4  11  23  41  68  96 137 182 219 278 339 407
#     4  12  23  44  67 101 137 178 229 279 345 398
#
# _framework density 25.685613
#
# number of rings (size 3 to 8) (size 9 to 14) (size 15 to 20)
#    0.000    0.727    5.455    4.909    1.273    1.455 
#    4.909    0.000    0.000    0.000    0.000    0.000 
#    0.000    0.000    0.000    0.000    0.000    0.000 
#
# Total GULP energy -123106.266985 kJ/mol
# GULP energy per Si atom -5595.739408 kJ/mol
# Density = 2.562715 g / cm^3
# Si number density = 25.685613 Si / 1000 Ang^3
#
#
#
# Elastic Constant Matrix: (Units=GPa)
#
#
# Indices 1 2 3 4 5 6 
#
# 1 75.6981 1.9692 36.4073 0.0000 0.3220 0.0000
# 2 1.9692 75.2100 20.1326 0.0000 1.4691 0.0000
# 3 36.4073 20.1326 196.6000 0.0000 -6.4119 0.0000
# 4 0.0000 0.0000 0.0000 48.5557 0.0000 11.6017
# 5 0.3220 1.4691 -6.4119 0.0000 22.2698 0.0000
# 6 0.0000 0.0000 0.0000 11.6017 0.0000 20.2521
#
#
#
# Elastic Compliance Matrix: (Units=1/GPa)
#
#
# Indices 1 2 3 4 5 6 
#
# 1 0.014534 0.000379 -0.002764 0.000000 -0.001031 0.000000
# 2 0.000379 0.013719 -0.001519 0.000000 -0.001348 0.000000
# 3 -0.002764 -0.001519 0.005813 0.000000 0.001814 0.000000
# 4 0.000000 0.000000 0.000000 0.023861 0.000000 -0.013669
# 5 -0.001031 -0.001348 0.001814 0.000000 0.045530 0.000000
# 6 0.000000 0.000000 0.000000 -0.013669 0.000000 0.057208
#
#
# Mechanical properties :
#
#
# Convention : Reuss Voigt Hill
#
# Bulk Modulus (GPa) = 38.08198 51.61401 44.84800
# Shear Modulus (GPa) = 28.21258 37.48211 32.84735
#
# Velocity S-wave (km/s) = 3.31778 3.82418 3.57994
# Velocity P-wave (km/s) = 5.43463 6.29581 5.88101
#
# Compressibility (1/GPa) = 0.02625914
#
# Stress axis : x y z
#
# Youngs Moduli (GPa) = 68.80308 72.89079 172.02691
#
# Poissons Ratio (x) = -0.02766 0.47548
# Poissons Ratio (y) = -0.02611 0.26133
# Poissons Ratio (z) = 0.19017 0.11073
#
# Static dielectric constant tensor:
#      x y z
#    x 2.033530 0.000000 -0.008890 
#    y 0.000000 2.001780 0.000000 
#    z -0.008890 0.000000 2.115270 
# 
# From -- ./inp_files/143349.got.cif
#   From: 2010.05.17/outbox.cif.g08.bks.cpg/sg15_72_cif.got.tgz:143349.got - 2010.06.03 18:47:42.
