data_PCOD9293710
_publ_section_title
;
Structure prediction by ZEFSAII (Michael W. Deem and Ramdas Pophale) SiO2 
 PCOD9293710
Probable space group: C 2/C
;
_chemical_formula_sum "Si O2"
_cell_formula_units_Z 32
_cell_length_a 12.947623
_cell_length_b 14.163946
_cell_length_c 8.739516
_cell_angle_alpha 90.000000
_cell_angle_beta 112.385792
_cell_angle_gamma 90.000000
_cell_volume 1481.953587
_symmetry_space_group_name_H-M "C 2/C"
_symmetry_group_IT_number 15
_symmetry_cell_setting 'monoclinic'
loop_
_space_group_symop_operation_xyz
x,y,z
-x,y,1/2-z
-x,-y,-z
x,-y,1/2+z
1/2+x,1/2+y,z
1/2-x,1/2+y,1/2-z
1/2-x,1/2-y,-z
1/2+x,1/2-y,1/2+z
loop_
_atom_site_type_symbol
_atom_site_label
_atom_site_fract_x
_atom_site_fract_y
_atom_site_fract_z
Si Si1 0.386515 0.970213 0.015904
Si Si2 0.863794 0.265457 0.971691
Si Si3 0.225741 0.607470 0.315245
Si Si4 0.477370 0.395976 0.054642
O O1 0.280604 0.042138 0.341267
O O2 0.408865 0.861656 0.074841
O O3 0.351679 0.049022 0.114712
O O4 0.500000 0.000000 0.000000
O O5 0.831208 0.298026 0.780577
O O6 0.946079 0.178234 0.997009
O O7 0.750000 0.250000 0.000000
O O8 0.347539 0.624665 0.447513
O O9 0.500000 0.392367 0.250000
O O10 0.500000 0.500000 0.000000
#
# Coordination Sequence:
#
# PCOD9293710 Si02
#       4
#     8   8   8   8
#     4  10  22  46  75 105 148 187 247 306 374 445
#     4  10  26  47  72 111 148 194 248 310 378 443
#     4  10  24  46  72 109 147 193 251 301 380 444
#     4  12  27  48  76 107 154 199 251 311 380 450
#
# _framework density 21.593119000000002
#
# number of rings (size 3 to 8) (size 9 to 14) (size 15 to 20)
#    1.500    0.000    0.000    3.750    7.000    1.000 
#   13.500    0.000    0.000    0.000    0.000    0.000 
#    0.000    0.000    0.000    0.000    0.000    0.000 
#
# Total GULP energy -89185.639955 kJ/mol
# GULP energy per Si atom -5574.102497 kJ/mol
# Density = 2.154397 g / cm^3
# Si number density = 21.593119 Si / 1000 Ang^3
#
#
#
# Elastic Constant Matrix: (Units=GPa)
#
#
# Indices 1 2 3 4 5 6 
#
# 1 126.2137 111.1635 52.2418 0.0000 -1.5043 0.0000
# 2 111.1635 161.6875 27.8560 0.0000 -23.4569 0.0000
# 3 52.2418 27.8560 97.4932 0.0000 13.6005 0.0000
# 4 0.0000 0.0000 0.0000 39.3066 0.0000 -7.8283
# 5 -1.5043 -23.4569 13.6005 0.0000 45.5999 0.0000
# 6 0.0000 0.0000 0.0000 -7.8283 0.0000 50.1921
#
#
#
# Elastic Compliance Matrix: (Units=1/GPa)
#
#
# Indices 1 2 3 4 5 6 
#
# 1 0.027632 -0.018352 -0.008737 0.000000 -0.005923 0.000000
# 2 -0.018352 0.019508 0.003072 0.000000 0.008513 0.000000
# 3 -0.008737 0.003072 0.014483 0.000000 -0.003027 0.000000
# 4 0.000000 0.000000 0.000000 0.026257 0.000000 0.004095
# 5 -0.005923 0.008513 -0.003027 0.000000 0.027017 0.000000
# 6 0.000000 0.000000 0.000000 0.004095 0.000000 0.020562
#
#
# Mechanical properties :
#
#
# Convention : Reuss Voigt Hill
#
# Bulk Modulus (GPa) = 73.58025 85.32408 79.45216
# Shear Modulus (GPa) = 26.59265 39.96195 33.27730
#
# Velocity S-wave (km/s) = 3.51313 4.30662 3.92995
# Velocity P-wave (km/s) = 7.11378 8.02057 7.58075
#
# Compressibility (1/GPa) = 0.01359060
#
# Stress axis : x y z
#
# Youngs Moduli (GPa) = 36.18947 51.26167 69.04484
#
# Poissons Ratio (x) = 0.94075 0.60325
# Poissons Ratio (y) = 0.66414 -0.21214
# Poissons Ratio (z) = 0.31619 -0.15750
#
# Static dielectric constant tensor:
#      x y z
#    x 1.764410 0.000000 0.036410 
#    y 0.000000 1.805650 0.000000 
#    z 0.036410 0.000000 1.914840 
# 
# From -- ./inp_files/27955.got.cif
#   From: 2010.05.17/outbox.cif.g08.bks.cpg/sg15_14_cif.got.tgz:27955.got - 2010.06.03 18:47:42.
