data_PCOD9293695
_publ_section_title
;
Structure prediction by ZEFSAII (Michael W. Deem and Ramdas Pophale) SiO2 
 PCOD9293695
Probable space group: C 2/C
;
_chemical_formula_sum "Si O2"
_cell_formula_units_Z 28
_cell_length_a 5.003906
_cell_length_b 17.336751
_cell_length_c 14.048768
_cell_angle_alpha 90.000000
_cell_angle_beta 80.159085
_cell_angle_gamma 90.000000
_cell_volume 1200.818724
_symmetry_space_group_name_H-M "C 2/C"
_symmetry_group_IT_number 15
_symmetry_cell_setting 'monoclinic'
loop_
_space_group_symop_operation_xyz
x,y,z
-x,y,1/2-z
-x,-y,-z
x,-y,1/2+z
1/2+x,1/2+y,z
1/2-x,1/2+y,1/2-z
1/2-x,1/2-y,-z
1/2+x,1/2-y,1/2+z
loop_
_atom_site_type_symbol
_atom_site_label
_atom_site_fract_x
_atom_site_fract_y
_atom_site_fract_z
Si Si1 0.644790 0.190915 0.642258
Si Si2 0.792836 0.652691 0.181113
Si Si3 0.562158 0.411175 0.507608
Si Si4 0.250000 0.250000 0.500000
O O1 0.500000 0.178793 0.750000
O O2 0.871843 0.260154 0.638159
O O3 0.773204 0.114156 0.595679
O O4 0.447414 0.222363 0.574164
O O5 0.500000 0.662399 0.250000
O O6 0.000000 0.627841 0.250000
O O7 0.736158 0.601018 0.093429
O O8 0.500000 0.500000 0.500000
O O9 0.331023 0.344771 0.522040
#
# Coordination Sequence:
#
# PCOD9293695 Si02
#       4
#     8   8   8   4
#     4  10  24  41  77 105 144 198 255 310 382 462
#     4  10  23  44  76 108 148 200 256 318 385 461
#     4  11  26  46  73 109 152 198 254 321 390 467
#     4  10  22  46  74 100 144 194 248 312 378 450
#
# _framework density 23.317425
#
# number of rings (size 3 to 8) (size 9 to 14) (size 15 to 20)
#    0.000    1.714    0.000    3.429   24.000    1.143 
#    5.143    0.000    6.286    0.000    0.000    0.000 
#    0.000    0.000    0.000    0.000    0.000    0.000 
#
# Total GULP energy -77938.245129 kJ/mol
# GULP energy per Si atom -5567.017509 kJ/mol
# Density = 2.326435 g / cm^3
# Si number density = 23.317425 Si / 1000 Ang^3
#
#
#
# Elastic Constant Matrix: (Units=GPa)
#
#
# Indices 1 2 3 4 5 6 
#
# 1 105.9410 62.0312 38.3301 0.0000 27.9715 0.0000
# 2 62.0312 245.6746 92.7213 0.0000 -2.3859 0.0000
# 3 38.3301 92.7213 168.5675 0.0000 14.5551 0.0000
# 4 0.0000 0.0000 0.0000 18.4718 0.0000 0.2132
# 5 27.9715 -2.3859 14.5551 0.0000 35.1956 0.0000
# 6 0.0000 0.0000 0.0000 0.2132 0.0000 19.4907
#
#
#
# Elastic Compliance Matrix: (Units=1/GPa)
#
#
# Indices 1 2 3 4 5 6 
#
# 1 0.014921 -0.003779 -0.000278 0.000000 -0.011999 0.000000
# 2 -0.003779 0.006179 -0.002940 0.000000 0.004638 0.000000
# 3 -0.000278 -0.002940 0.007893 0.000000 -0.003242 0.000000
# 4 0.000000 0.000000 0.000000 0.054143 0.000000 -0.000592
# 5 -0.011999 0.004638 -0.003242 0.000000 0.039604 0.000000
# 6 0.000000 0.000000 0.000000 -0.000592 0.000000 0.051313
#
#
# Mechanical properties :
#
#
# Convention : Reuss Voigt Hill
#
# Bulk Modulus (GPa) = 66.67366 100.70534 83.68950
# Shear Modulus (GPa) = 25.90041 36.43833 31.16937
#
# Velocity S-wave (km/s) = 3.33644 3.95740 3.66011
# Velocity P-wave (km/s) = 6.59534 8.01024 7.33698
#
# Compressibility (1/GPa) = 0.01499843
#
# Stress axis : x y z
#
# Youngs Moduli (GPa) = 67.02121 161.83108 126.69831
#
# Poissons Ratio (x) = 0.61155 0.03523
# Poissons Ratio (y) = 0.25327 0.37251
# Poissons Ratio (z) = 0.01863 0.47581
#
# Static dielectric constant tensor:
#      x y z
#    x 1.699660 0.000000 0.039610 
#    y 0.000000 1.843960 0.000000 
#    z 0.039610 0.000000 1.767710 
# 
# From -- ./inp_files/128016.got.cif
#   From: 2010.05.17/outbox.cif.g08.bks.cpg/sg15_65_cif.got.tgz:128016.got - 2010.06.03 18:47:42.
