data_PCOD9293337
_publ_section_title
;
Structure prediction by ZEFSAII (Michael W. Deem and Ramdas Pophale) SiO2 
 PCOD9293337
Probable space group: C 2/C
;
_chemical_formula_sum "Si O2"
_cell_formula_units_Z 52
_cell_length_a 33.839873
_cell_length_b 15.616372
_cell_length_c 9.297607
_cell_angle_alpha 90.000000
_cell_angle_beta 23.746994
_cell_angle_gamma 90.000000
_cell_volume 1978.610222
_symmetry_space_group_name_H-M "C 2/C"
_symmetry_group_IT_number 15
_symmetry_cell_setting 'monoclinic'
loop_
_space_group_symop_operation_xyz
x,y,z
-x,y,1/2-z
-x,-y,-z
x,-y,1/2+z
1/2+x,1/2+y,z
1/2-x,1/2+y,1/2-z
1/2-x,1/2-y,-z
1/2+x,1/2-y,1/2+z
loop_
_atom_site_type_symbol
_atom_site_label
_atom_site_fract_x
_atom_site_fract_y
_atom_site_fract_z
Si Si1 0.165184 0.571793 0.470250
Si Si2 0.364093 0.929969 0.745977
Si Si3 0.867010 0.038306 0.517066
Si Si4 0.057563 0.712964 0.300293
Si Si5 0.351547 0.227316 0.812090
Si Si6 0.500000 0.338037 0.750000
Si Si7 0.327265 0.575892 0.372669
O O1 0.107789 0.524781 0.791625
O O2 0.108348 0.589548 0.510984
O O3 0.210882 0.655297 0.394465
O O4 0.240439 0.495516 0.173818
O O5 0.405466 0.866588 0.727076
O O6 0.244931 0.926876 0.132702
O O7 0.917853 0.102467 0.454288
O O8 0.907136 0.043922 0.222775
O O9 0.863649 0.943550 0.591433
O O10 0.045000 0.783566 0.468044
O O11 0.952819 0.715589 0.565419
O O12 0.129077 0.715160 0.922161
O O13 0.184172 0.175541 0.059821
#
# Coordination Sequence:
#
# PCOD9293337 Si02
#       7
#     8   8   8   8   8   4   8
#     4  10  22  45  74 109 152 195 252 310 377 442
#     4  10  22  45  70 109 150 195 251 312 377 443
#     4  10  24  43  69 101 152 192 257 299 375 442
#     4  11  25  43  76 113 148 197 248 314 383 442
#     4  11  24  47  76 111 154 195 258 311 380 458
#     4  12  24  44  70 106 144 208 242 308 376 448
#     4  10  23  47  70 108 150 200 248 315 369 450
#
# _framework density 26.281074
#
# number of rings (size 3 to 8) (size 9 to 14) (size 15 to 20)
#    0.000    1.538    1.538    1.846    2.154    4.308 
#    8.308   11.538    0.000    0.000    0.000    0.000 
#    0.000    0.000    0.000    0.000    0.000    0.000 
#
# Total GULP energy -145126.095052 kJ/mol
# GULP energy per Si atom -5581.772887 kJ/mol
# Density = 2.622126 g / cm^3
# Si number density = 26.281074 Si / 1000 Ang^3
#
#
#
# Elastic Constant Matrix: (Units=GPa)
#
#
# Indices 1 2 3 4 5 6 
#
# 1 248.4278 103.7164 44.8716 0.0000 26.8709 0.0000
# 2 103.7164 193.6837 28.3901 0.0000 26.2942 0.0000
# 3 44.8716 28.3901 70.1178 0.0000 7.5624 0.0000
# 4 0.0000 0.0000 0.0000 24.0647 0.0000 6.4661
# 5 26.8709 26.2942 7.5624 0.0000 40.3173 0.0000
# 6 0.0000 0.0000 0.0000 6.4661 0.0000 58.3792
#
#
#
# Elastic Compliance Matrix: (Units=1/GPa)
#
#
# Indices 1 2 3 4 5 6 
#
# 1 0.005677 -0.002445 -0.002456 0.000000 -0.001728 0.000000
# 2 -0.002445 0.006987 -0.000968 0.000000 -0.002746 0.000000
# 3 -0.002456 -0.000968 0.016311 0.000000 -0.000791 0.000000
# 4 0.000000 0.000000 0.000000 0.042829 0.000000 -0.004744
# 5 -0.001728 -0.002746 -0.000791 0.000000 0.027894 0.000000
# 6 0.000000 0.000000 0.000000 -0.004744 0.000000 0.017655
#
#
# Mechanical properties :
#
#
# Convention : Reuss Voigt Hill
#
# Bulk Modulus (GPa) = 58.02012 96.24283 77.13147
# Shear Modulus (GPa) = 37.08172 46.90232 41.99202
#
# Velocity S-wave (km/s) = 3.76036 4.22909 4.00159
# Velocity P-wave (km/s) = 6.40144 7.78119 7.12479
#
# Compressibility (1/GPa) = 0.01723540
#
# Stress axis : x y z
#
# Youngs Moduli (GPa) = 176.15679 143.12110 61.30845
#
# Poissons Ratio (x) = 0.34996 0.15060
# Poissons Ratio (y) = 0.43074 0.05935
# Poissons Ratio (z) = 0.43271 0.13855
#
# Static dielectric constant tensor:
#      x y z
#    x 2.276890 0.000000 0.265560 
#    y 0.000000 2.068330 0.000000 
#    z 0.265560 0.000000 2.551820 
# 
# From -- ./inp_files/70798.got.cif
#   From: 2010.05.17/outbox.cif.g08.bks.cpg/sg15_36_cif.got.tgz:70798.got - 2010.06.03 18:47:42.
