data_PCOD9293452
_publ_section_title
;
Structure prediction by ZEFSAII (Michael W. Deem and Ramdas Pophale) SiO2 
 PCOD9293452
Probable space group: C 2/C
;
_chemical_formula_sum "Si O2"
_cell_formula_units_Z 40
_cell_length_a 11.181104
_cell_length_b 18.756976
_cell_length_c 12.026220
_cell_angle_alpha 90.000000
_cell_angle_beta 139.169525
_cell_angle_gamma 90.000000
_cell_volume 1649.061859
_symmetry_space_group_name_H-M "C 2/C"
_symmetry_group_IT_number 15
_symmetry_cell_setting 'monoclinic'
loop_
_space_group_symop_operation_xyz
x,y,z
-x,y,1/2-z
-x,-y,-z
x,-y,1/2+z
1/2+x,1/2+y,z
1/2-x,1/2+y,1/2-z
1/2-x,1/2-y,-z
1/2+x,1/2-y,1/2+z
loop_
_atom_site_type_symbol
_atom_site_label
_atom_site_fract_x
_atom_site_fract_y
_atom_site_fract_z
Si Si1 0.150218 0.403619 0.142337
Si Si2 0.418963 0.202538 0.575065
Si Si3 0.917826 0.020449 0.315812
Si Si4 0.198802 0.668393 0.442998
Si Si5 0.496811 0.655629 0.016951
O O1 0.215988 0.485546 0.186425
O O2 0.298655 0.363956 0.327744
O O3 0.950561 0.372523 0.033905
O O4 0.194354 0.374667 0.052404
O O5 0.500000 0.183992 0.750000
O O6 0.250000 0.250000 0.500000
O O7 0.514458 0.261968 0.564363
O O8 0.953034 0.104991 0.345257
O O9 0.000000 0.997964 0.250000
O O10 0.000000 0.000000 0.500000
O O11 0.250000 0.750000 0.500000
O O12 0.353961 0.639295 0.471339
O O13 0.000000 0.664825 0.250000
#
# Coordination Sequence:
#
# PCOD9293452 Si02
#       5
#     8   8   8   8   8
#     4  11  23  44  71 104 141 191 251 311 380 462
#     4  12  25  41  67 105 145 187 244 309 386 455
#     4  10  22  45  77 108 148 204 256 313 387 464
#     4  12  25  41  69 107 146 188 255 324 389 452
#     4  11  23  44  73 105 144 192 249 318 385 459
#
# _framework density 24.256215999999998
#
# number of rings (size 3 to 8) (size 9 to 14) (size 15 to 20)
#    0.000    0.800    4.000    4.800    2.800    0.000 
#    0.000    2.000    0.000    0.000    0.000    0.000 
#    0.000    0.000    0.000    0.000    0.000    0.000 
#
# Total GULP energy -111435.667365 kJ/mol
# GULP energy per Si atom -5571.783368 kJ/mol
# Density = 2.420101 g / cm^3
# Si number density = 24.256216 Si / 1000 Ang^3
#
#
#
# Elastic Constant Matrix: (Units=GPa)
#
#
# Indices 1 2 3 4 5 6 
#
# 1 150.3864 0.2536 53.8755 0.0000 -6.9347 0.0000
# 2 0.2536 94.8796 46.4464 0.0000 -3.7472 0.0000
# 3 53.8755 46.4464 88.0538 0.0000 -6.0781 0.0000
# 4 0.0000 0.0000 0.0000 29.3037 0.0000 -14.9474
# 5 -6.9347 -3.7472 -6.0781 0.0000 41.0905 0.0000
# 6 0.0000 0.0000 0.0000 -14.9474 0.0000 26.7618
#
#
#
# Elastic Compliance Matrix: (Units=1/GPa)
#
#
# Indices 1 2 3 4 5 6 
#
# 1 0.009446 0.003786 -0.007722 0.000000 0.000797 0.000000
# 2 0.003786 0.015728 -0.010578 0.000000 0.000509 0.000000
# 3 -0.007722 -0.010578 0.021726 0.000000 0.000946 0.000000
# 4 0.000000 0.000000 0.000000 0.047721 0.000000 0.026654
# 5 0.000797 0.000509 0.000946 0.000000 0.024657 0.000000
# 6 0.000000 0.000000 0.000000 0.026654 0.000000 0.052254
#
#
# Mechanical properties :
#
#
# Convention : Reuss Voigt Hill
#
# Bulk Modulus (GPa) = 55.94784 59.38567 57.66675
# Shear Modulus (GPa) = 24.21114 34.94749 29.57932
#
# Velocity S-wave (km/s) = 3.16277 3.79986 3.49586
# Velocity P-wave (km/s) = 6.03762 6.61723 6.33406
#
# Compressibility (1/GPa) = 0.01787379
#
# Stress axis : x y z
#
# Youngs Moduli (GPa) = 105.86231 63.58230 46.02790
#
# Poissons Ratio (x) = -0.24074 0.35542
# Poissons Ratio (y) = -0.40083 0.48686
# Poissons Ratio (z) = 0.81745 0.67254
#
# Static dielectric constant tensor:
#      x y z
#    x 2.023140 0.000000 0.044770 
#    y 0.000000 1.962470 0.000000 
#    z 0.044770 0.000000 2.036860 
# 
# From -- ./inp_files/89859.got.cif
#   From: 2010.05.17/outbox.cif.g08.bks.cpg/sg15_45_cif.got.tgz:89859.got - 2010.06.03 18:47:42.
