data_PCOD9293609
_publ_section_title
;
Structure prediction by ZEFSAII (Michael W. Deem and Ramdas Pophale) SiO2 
 PCOD9293609
Probable space group: C 2/C
;
_chemical_formula_sum "Si O2"
_cell_formula_units_Z 36
_cell_length_a 27.867079
_cell_length_b 4.982994
_cell_length_c 9.616174
_cell_angle_alpha 90.000000
_cell_angle_beta 114.493697
_cell_angle_gamma 90.000000
_cell_volume 1215.146959
_symmetry_space_group_name_H-M "C 2/C"
_symmetry_group_IT_number 15
_symmetry_cell_setting 'monoclinic'
loop_
_space_group_symop_operation_xyz
x,y,z
-x,y,1/2-z
-x,-y,-z
x,-y,1/2+z
1/2+x,1/2+y,z
1/2-x,1/2+y,1/2-z
1/2-x,1/2-y,-z
1/2+x,1/2-y,1/2+z
loop_
_atom_site_type_symbol
_atom_site_label
_atom_site_fract_x
_atom_site_fract_y
_atom_site_fract_z
Si Si1 0.968428 0.188917 0.852044
Si Si2 0.125135 0.804075 0.797646
Si Si3 0.113760 0.546810 0.059253
Si Si4 0.229382 0.259351 0.747227
Si Si5 0.250000 0.250000 0.500000
O O1 0.918741 0.023083 0.733123
O O2 0.000000 0.269794 0.750000
O O3 0.940112 0.395102 0.923105
O O4 0.000000 0.000000 0.000000
O O5 0.126529 0.742671 0.634746
O O6 0.107786 0.578161 0.889542
O O7 0.185171 0.817022 0.909384
O O8 0.165412 0.717460 0.176488
O O9 0.242068 0.504585 0.626531
O O10 0.250046 0.033375 0.645043
#
# Coordination Sequence:
#
# PCOD9293609 Si02
#       5
#     8   8   8   8   4
#     4  12  27  51  74 107 150 204 266 331 397 475
#     4  11  25  48  74 114 150 203 260 323 409 475
#     4  11  26  45  75 110 149 206 257 330 393 480
#     4  11  23  44  71 111 156 205 257 319 401 478
#     4  10  22  46  70 112 154 204 254 326 396 494
#
# _framework density 29.626045000000001
#
# number of rings (size 3 to 8) (size 9 to 14) (size 15 to 20)
#    0.000    0.889    4.444    1.333    3.111    2.667 
#   12.000    0.000    0.000    0.000    0.000    0.000 
#    0.000    0.000    0.000    0.000    0.000    0.000 
#
# Total GULP energy -100446.310651 kJ/mol
# GULP energy per Si atom -5580.350592 kJ/mol
# Density = 2.955861 g / cm^3
# Si number density = 29.626045 Si / 1000 Ang^3
#
#
#
# Elastic Constant Matrix: (Units=GPa)
#
#
# Indices 1 2 3 4 5 6 
#
# 1 233.3965 47.2443 55.4857 0.0000 2.0029 0.0000
# 2 47.2443 209.1926 27.7052 0.0000 22.0740 0.0000
# 3 55.4857 27.7052 162.1679 0.0000 -35.1478 0.0000
# 4 0.0000 0.0000 0.0000 52.4227 0.0000 10.4535
# 5 2.0029 22.0740 -35.1478 0.0000 65.1553 0.0000
# 6 0.0000 0.0000 0.0000 10.4535 0.0000 45.6857
#
#
#
# Elastic Compliance Matrix: (Units=1/GPa)
#
#
# Indices 1 2 3 4 5 6 
#
# 1 0.004855 -0.000787 -0.001700 0.000000 -0.000800 0.000000
# 2 -0.000787 0.005370 -0.001175 0.000000 -0.002429 0.000000
# 3 -0.001700 -0.001175 0.007979 0.000000 0.004755 0.000000
# 4 0.000000 0.000000 0.000000 0.019988 0.000000 -0.004573
# 5 -0.000800 -0.002429 0.004755 0.000000 0.018760 0.000000
# 6 0.000000 0.000000 0.000000 -0.004573 0.000000 0.022935
#
#
# Mechanical properties :
#
#
# Convention : Reuss Voigt Hill
#
# Bulk Modulus (GPa) = 91.90249 96.18080 94.04165
# Shear Modulus (GPa) = 55.04378 64.27419 59.65898
#
# Velocity S-wave (km/s) = 4.31507 4.66286 4.49233
# Velocity P-wave (km/s) = 7.47761 7.84379 7.66289
#
# Compressibility (1/GPa) = 0.01088110
#
# Stress axis : x y z
#
# Youngs Moduli (GPa) = 205.98010 186.22581 125.32519
#
# Poissons Ratio (x) = 0.14654 0.21305
# Poissons Ratio (y) = 0.16209 0.14720
# Poissons Ratio (z) = 0.35016 0.21873
#
# Static dielectric constant tensor:
#      x y z
#    x 2.274290 0.000000 -0.161300 
#    y 0.000000 2.439820 0.000000 
#    z -0.161300 0.000000 2.358040 
# 
# From -- ./inp_files/120925.got.cif
#   From: 2010.05.17/outbox.cif.g08.bks.cpg/sg15_61_cif.got.tgz:120925.got - 2010.06.03 18:47:42.
