data_PCOD9293273
_publ_section_title
;
Structure prediction by ZEFSAII (Michael W. Deem and Ramdas Pophale) SiO2 
 PCOD9293273
Probable space group: C 2/C
;
_chemical_formula_sum "Si O2"
_cell_formula_units_Z 60
_cell_length_a 11.805289
_cell_length_b 7.850604
_cell_length_c 27.008198
_cell_angle_alpha 90.000000
_cell_angle_beta 105.453103
_cell_angle_gamma 90.000000
_cell_volume 2412.594006
_symmetry_space_group_name_H-M "C 2/C"
_symmetry_group_IT_number 15
_symmetry_cell_setting 'monoclinic'
loop_
_space_group_symop_operation_xyz
x,y,z
-x,y,1/2-z
-x,-y,-z
x,-y,1/2+z
1/2+x,1/2+y,z
1/2-x,1/2+y,1/2-z
1/2-x,1/2-y,-z
1/2+x,1/2-y,1/2+z
loop_
_atom_site_type_symbol
_atom_site_label
_atom_site_fract_x
_atom_site_fract_y
_atom_site_fract_z
Si Si1 0.109912 0.897445 0.078664
Si Si2 0.000000 0.882299 0.250000
Si Si3 0.027577 0.725613 0.354199
Si Si4 0.669693 0.760042 0.441940
Si Si5 0.044899 0.738828 0.525520
Si Si6 0.371103 0.702705 0.252134
Si Si7 0.179190 0.489320 0.176035
Si Si8 0.728579 0.395612 0.420688
O O1 0.059974 0.854410 0.126582
O O2 0.246332 0.845949 0.088496
O O3 0.091652 0.086562 0.055779
O O4 0.030822 0.782160 0.031677
O O5 0.942467 0.778910 0.198795
O O6 0.084793 0.011454 0.230154
O O7 0.953606 0.556033 0.340985
O O8 0.144036 0.737048 0.400806
O O9 0.750000 0.750000 0.500000
O O10 0.546267 0.836304 0.444912
O O11 0.653351 0.560973 0.426306
O O12 0.162553 0.632582 0.530178
O O13 0.500000 0.776553 0.250000
O O14 0.266049 0.644135 0.203041
O O15 0.320436 0.828910 0.286916
O O16 0.214972 0.436570 0.125541
#
# Coordination Sequence:
#
# PCOD9293273 Si02
#       8
#     8   4   8   8   8   8   8   8
#     4  10  22  45  68 100 140 188 229 287 348 416
#     4  10  24  46  74  94 144 184 226 306 344 414
#     4  12  25  46  70 102 145 181 238 294 352 415
#     4  10  22  45  68  98 141 183 226 284 340 410
#     4  10  24  43  71 100 143 186 230 285 351 410
#     4  10  25  47  71 100 133 183 234 286 361 416
#     4  12  26  45  72 102 138 182 237 292 360 423
#     4  12  25  44  70 105 139 182 234 288 351 418
#
# _framework density 24.869498
#
# number of rings (size 3 to 8) (size 9 to 14) (size 15 to 20)
#    0.400    0.800    4.000    0.800    2.800    4.800 
#    2.400    0.000    0.000    0.000    0.000    0.000 
#    0.000    0.000    0.000    0.000    0.000    0.000 
#
# Total GULP energy -167518.816594 kJ/mol
# GULP energy per Si atom -5583.960553 kJ/mol
# Density = 2.481289 g / cm^3
# Si number density = 24.869498 Si / 1000 Ang^3
#
#
#
# Elastic Constant Matrix: (Units=GPa)
#
#
# Indices 1 2 3 4 5 6 
#
# 1 118.8629 27.8514 34.9358 0.0000 11.9057 0.0000
# 2 27.8514 54.5342 26.1327 0.0000 2.1422 0.0000
# 3 34.9358 26.1327 86.3247 0.0000 -6.6610 0.0000
# 4 0.0000 0.0000 0.0000 35.5125 0.0000 2.6815
# 5 11.9057 2.1422 -6.6610 0.0000 43.3411 0.0000
# 6 0.0000 0.0000 0.0000 2.6815 0.0000 23.2366
#
#
#
# Elastic Compliance Matrix: (Units=1/GPa)
#
#
# Indices 1 2 3 4 5 6 
#
# 1 0.010604 -0.003638 -0.003442 0.000000 -0.003262 0.000000
# 2 -0.003638 0.022884 -0.005531 0.000000 -0.000982 0.000000
# 3 -0.003442 -0.005531 0.014922 0.000000 0.003512 0.000000
# 4 0.000000 0.000000 0.000000 0.028407 0.000000 -0.003278
# 5 -0.003262 -0.000982 0.003512 0.000000 0.024557 0.000000
# 6 0.000000 0.000000 0.000000 -0.003278 0.000000 0.043414
#
#
# Mechanical properties :
#
#
# Convention : Reuss Voigt Hill
#
# Bulk Modulus (GPa) = 43.12450 48.61797 45.87123
# Shear Modulus (GPa) = 28.13108 31.80484 29.96796
#
# Velocity S-wave (km/s) = 3.36690 3.58001 3.47509
# Velocity P-wave (km/s) = 5.70023 6.05642 5.88103
#
# Compressibility (1/GPa) = 0.02318868
#
# Stress axis : x y z
#
# Youngs Moduli (GPa) = 94.30552 43.69834 67.01309
#
# Poissons Ratio (x) = 0.15898 0.23064
# Poissons Ratio (y) = 0.34309 0.37065
# Poissons Ratio (z) = 0.32458 0.24170
#
# Static dielectric constant tensor:
#      x y z
#    x 2.033470 0.000000 0.046710 
#    y 0.000000 2.042760 0.000000 
#    z 0.046710 0.000000 1.939530 
# 
# From -- ./inp_files/310337.got.cif
#   From: 2010.05.17/outbox.cif.g08.bks.cpg/sg15_156_cif.got.tgz:310337.got - 2010.06.03 18:47:42.
