data_PCOD9293202
_publ_section_title
;
Structure prediction by ZEFSAII (Michael W. Deem and Ramdas Pophale) SiO2 
 PCOD9293202
Probable space group: C 2/C
;
_chemical_formula_sum "Si O2"
_cell_formula_units_Z 44
_cell_length_a 19.589753
_cell_length_b 6.235230
_cell_length_c 14.406423
_cell_angle_alpha 90.000000
_cell_angle_beta 92.554079
_cell_angle_gamma 90.000000
_cell_volume 1757.947741
_symmetry_space_group_name_H-M "C 2/C"
_symmetry_group_IT_number 15
_symmetry_cell_setting 'monoclinic'
loop_
_space_group_symop_operation_xyz
x,y,z
-x,y,1/2-z
-x,-y,-z
x,-y,1/2+z
1/2+x,1/2+y,z
1/2-x,1/2+y,1/2-z
1/2-x,1/2-y,-z
1/2+x,1/2-y,1/2+z
loop_
_atom_site_type_symbol
_atom_site_label
_atom_site_fract_x
_atom_site_fract_y
_atom_site_fract_z
Si Si1 0.707607 0.822561 0.862309
Si Si2 0.391482 0.435007 0.238334
Si Si3 0.456061 0.762399 0.385338
Si Si4 0.114841 0.718030 0.922053
Si Si5 0.835330 0.081071 0.464297
Si Si6 0.000000 0.613081 0.250000
O O1 0.660815 0.018092 0.895098
O O2 0.676432 0.713760 0.768580
O O3 0.786598 0.890093 0.872602
O O4 0.703100 0.645005 0.943644
O O5 0.431855 0.548595 0.326012
O O6 0.379749 0.626405 0.166706
O O7 0.446326 0.268518 0.197909
O O8 0.532460 0.785828 0.429006
O O9 0.398836 0.745030 0.459866
O O10 0.455867 0.960176 0.313963
O O11 0.142570 0.838017 0.014987
#
# Coordination Sequence:
#
# PCOD9293202 Si02
#       6
#     8   8   8   8   8   4
#     4  10  22  45  62  90 127 179 206 261 328 388
#     4  11  21  40  64  88 128 163 213 264 319 379
#     4  12  22  39  62 100 123 167 217 272 324 377
#     4  11  20  40  67  89 123 168 212 265 318 378
#     4  10  25  40  63  94 131 164 219 260 321 392
#     4  12  20  40  64  90 128 164 206 276 330 366
#
# _framework density 25.029184999999998
#
# number of rings (size 3 to 8) (size 9 to 14) (size 15 to 20)
#    0.000    1.091    5.455    1.091    0.000    2.182 
#    6.545    0.000    0.000    0.000    0.000    0.000 
#    0.000    0.000    0.000    0.000    0.000    0.000 
#
# Total GULP energy -122667.214373 kJ/mol
# GULP energy per Si atom -5575.782472 kJ/mol
# Density = 2.497222 g / cm^3
# Si number density = 25.029185 Si / 1000 Ang^3
#
#
#
# Elastic Constant Matrix: (Units=GPa)
#
#
# Indices 1 2 3 4 5 6 
#
# 1 100.0143 28.5391 2.5486 0.0000 39.7992 0.0000
# 2 28.5391 85.6305 14.4325 0.0000 15.2492 0.0000
# 3 2.5486 14.4325 32.9862 0.0000 8.5505 0.0000
# 4 0.0000 0.0000 0.0000 27.3631 0.0000 4.8860
# 5 39.7992 15.2492 8.5505 0.0000 39.1472 0.0000
# 6 0.0000 0.0000 0.0000 4.8860 0.0000 16.6856
#
#
#
# Elastic Compliance Matrix: (Units=1/GPa)
#
#
# Indices 1 2 3 4 5 6 
#
# 1 0.018091 -0.003638 0.004870 0.000000 -0.018039 0.000000
# 2 -0.003638 0.013936 -0.005690 0.000000 -0.000488 0.000000
# 3 0.004870 -0.005690 0.035127 0.000000 -0.010407 0.000000
# 4 0.000000 0.000000 0.000000 0.038562 0.000000 -0.011292
# 5 -0.018039 -0.000488 -0.010407 0.000000 0.046347 0.000000
# 6 0.000000 0.000000 0.000000 -0.011292 0.000000 0.063238
#
#
# Mechanical properties :
#
#
# Convention : Reuss Voigt Hill
#
# Bulk Modulus (GPa) = 17.17109 34.40795 25.78952
# Shear Modulus (GPa) = 20.52298 28.17990 24.35144
#
# Velocity S-wave (km/s) = 2.86660 3.35906 3.12255
# Velocity P-wave (km/s) = 4.22278 5.36855 4.82976
#
# Compressibility (1/GPa) = 0.05823743
#
# Stress axis : x y z
#
# Youngs Moduli (GPa) = 55.27695 71.75488 28.46843
#
# Poissons Ratio (x) = 0.26103 -0.13864
# Poissons Ratio (y) = 0.20108 0.16199
# Poissons Ratio (z) = -0.26919 0.40830
#
# Static dielectric constant tensor:
#      x y z
#    x 2.094370 0.000000 0.001200 
#    y 0.000000 1.986950 0.000000 
#    z 0.001200 0.000000 2.041830 
# 
# From -- ./inp_files/250640.got.cif
#   From: 2010.05.17/outbox.cif.g08.bks.cpg/sg15_126_cif.got.tgz:250640.got - 2010.06.03 18:47:42.
