data_PCOD9293304
_publ_section_title
;
Structure prediction by ZEFSAII (Michael W. Deem and Ramdas Pophale) SiO2 
 PCOD9293304
Probable space group: C 2/C
;
_chemical_formula_sum "Si O2"
_cell_formula_units_Z 60
_cell_length_a 19.254875
_cell_length_b 9.100037
_cell_length_c 24.661821
_cell_angle_alpha 90.000000
_cell_angle_beta 39.617113
_cell_angle_gamma 90.000000
_cell_volume 2755.460294
_symmetry_space_group_name_H-M "C 2/C"
_symmetry_group_IT_number 15
_symmetry_cell_setting 'monoclinic'
loop_
_space_group_symop_operation_xyz
x,y,z
-x,y,1/2-z
-x,-y,-z
x,-y,1/2+z
1/2+x,1/2+y,z
1/2-x,1/2+y,1/2-z
1/2-x,1/2-y,-z
1/2+x,1/2-y,1/2+z
loop_
_atom_site_type_symbol
_atom_site_label
_atom_site_fract_x
_atom_site_fract_y
_atom_site_fract_z
Si Si1 0.767350 0.178532 0.668248
Si Si2 0.829265 0.816369 0.877921
Si Si3 0.500000 0.562075 0.750000
Si Si4 0.569482 0.900150 0.416948
Si Si5 0.515937 0.344177 0.018632
Si Si6 0.214892 0.598915 0.261506
Si Si7 0.485632 0.769448 0.862987
Si Si8 0.605987 0.092470 0.570845
O O1 0.708901 0.212196 0.647889
O O2 0.718503 0.278792 0.746040
O O3 0.893744 0.221228 0.587242
O O4 0.765384 0.010543 0.687886
O O5 0.894922 0.710749 0.879892
O O6 0.722847 0.882402 0.971990
O O7 0.898089 0.950600 0.812450
O O8 0.486470 0.665982 0.810430
O O9 0.595257 0.755159 0.435103
O O10 0.489623 0.871778 0.414312
O O11 0.500000 0.000000 0.500000
O O12 0.672097 0.989829 0.334472
O O13 0.545465 0.324525 0.064164
O O14 0.500000 0.500000 0.000000
O O15 0.109145 0.674930 0.298889
O O16 0.415116 0.920602 0.901029
#
# Coordination Sequence:
#
# PCOD9293304 Si02
#       8
#     8   8   4   8   8   8   8   8
#     4  11  24  43  62 101 127 167 219 261 337 384
#     4  11  26  42  69  95 127 174 227 273 317 403
#     4  12  30  42  64  96 140 168 224 276 324 398
#     4  11  18  43  66  91 123 171 210 266 317 379
#     4  11  24  40  70 100 129 162 220 273 322 387
#     4  10  24  39  67  91 131 165 206 273 325 390
#     4  10  25  47  63  96 133 174 214 265 339 391
#     4  10  22  45  69  90 128 175 222 262 328 395
#
# _framework density 21.774947000000001
#
# number of rings (size 3 to 8) (size 9 to 14) (size 15 to 20)
#    0.000    1.333    5.333    0.000   13.067    0.533 
#    2.400    0.000    0.000    0.000    0.000    0.000 
#    0.000    0.000    0.000    0.000    0.000    0.000 
#
# Total GULP energy -167567.940910 kJ/mol
# GULP energy per Si atom -5585.598030 kJ/mol
# Density = 2.172539 g / cm^3
# Si number density = 21.774947 Si / 1000 Ang^3
#
#
#
# Elastic Constant Matrix: (Units=GPa)
#
#
# Indices 1 2 3 4 5 6 
#
# 1 98.4681 46.9257 27.1740 0.0000 32.7855 0.0000
# 2 46.9257 147.1557 49.5815 0.0000 29.8604 0.0000
# 3 27.1740 49.5815 60.9059 0.0000 14.7613 0.0000
# 4 0.0000 0.0000 0.0000 48.4553 0.0000 10.8774
# 5 32.7855 29.8604 14.7613 0.0000 31.2766 0.0000
# 6 0.0000 0.0000 0.0000 10.8774 0.0000 31.2789
#
#
#
# Elastic Compliance Matrix: (Units=1/GPa)
#
#
# Indices 1 2 3 4 5 6 
#
# 1 0.016419 -0.001366 -0.002663 0.000000 -0.014651 0.000000
# 2 -0.001366 0.010607 -0.006682 0.000000 -0.005541 0.000000
# 3 -0.002663 -0.006682 0.023514 0.000000 -0.001926 0.000000
# 4 0.000000 0.000000 0.000000 0.022385 0.000000 -0.007784
# 5 -0.014651 -0.005541 -0.001926 0.000000 0.053530 0.000000
# 6 0.000000 0.000000 0.000000 -0.007784 0.000000 0.034678
#
#
# Mechanical properties :
#
#
# Convention : Reuss Voigt Hill
#
# Bulk Modulus (GPa) = 34.34359 61.54356 47.94358
# Shear Modulus (GPa) = 26.00630 34.39206 30.19918
#
# Velocity S-wave (km/s) = 3.45965 3.97852 3.72812
# Velocity P-wave (km/s) = 5.63606 7.03062 6.37161
#
# Compressibility (1/GPa) = 0.02911751
#
# Stress axis : x y z
#
# Youngs Moduli (GPa) = 60.90352 94.27758 42.52831
#
# Poissons Ratio (x) = 0.12875 0.11326
# Poissons Ratio (y) = 0.08318 0.28419
# Poissons Ratio (z) = 0.16220 0.63001
#
# Static dielectric constant tensor:
#      x y z
#    x 1.756970 0.000000 0.022840 
#    y 0.000000 1.655960 0.000000 
#    z 0.022840 0.000000 1.878870 
# 
# From -- ./inp_files/300504.got.cif
#   From: 2010.05.17/outbox.cif.g08.bks.cpg/sg15_151_cif.got.tgz:300504.got - 2010.06.03 18:47:42.
