data_PCOD9293002
_publ_section_title
;
Structure prediction by ZEFSAII (Michael W. Deem and Ramdas Pophale) SiO2 
 PCOD9293002
Probable space group: C 2/C
;
_chemical_formula_sum "Si O2"
_cell_formula_units_Z 56
_cell_length_a 21.824399
_cell_length_b 26.599148
_cell_length_c 8.790107
_cell_angle_alpha 90.000000
_cell_angle_beta 31.401315
_cell_angle_gamma 90.000000
_cell_volume 2658.681182
_symmetry_space_group_name_H-M "C 2/C"
_symmetry_group_IT_number 15
_symmetry_cell_setting 'monoclinic'
loop_
_space_group_symop_operation_xyz
x,y,z
-x,y,1/2-z
-x,-y,-z
x,-y,1/2+z
1/2+x,1/2+y,z
1/2-x,1/2+y,1/2-z
1/2-x,1/2-y,-z
1/2+x,1/2-y,1/2+z
loop_
_atom_site_type_symbol
_atom_site_label
_atom_site_fract_x
_atom_site_fract_y
_atom_site_fract_z
Si Si1 0.500000 0.898692 0.250000
Si Si2 0.697571 0.450852 0.111592
Si Si3 0.362420 0.296071 0.584266
Si Si4 0.715388 0.036227 0.406004
Si Si5 0.500000 0.432543 0.750000
Si Si6 0.793957 0.342092 0.854850
Si Si7 0.686439 0.617449 0.072917
Si Si8 0.361314 0.185240 0.537212
O O1 0.406281 0.934896 0.366169
O O2 0.417999 0.863479 0.528418
O O3 0.795808 0.481372 0.997507
O O4 0.578443 0.461399 0.457682
O O5 0.712520 0.467091 0.904928
O O6 0.720351 0.391511 0.058808
O O7 0.278669 0.314994 0.624360
O O8 0.350098 0.335713 0.745450
O O9 0.332518 0.237969 0.679842
O O10 0.500000 0.296438 0.250000
O O11 0.784914 0.070809 0.378488
O O12 0.411095 0.399028 0.840094
O O13 0.818517 0.310386 0.953510
O O14 0.799445 0.637731 0.744285
O O15 0.500000 0.178037 0.250000
#
# Coordination Sequence:
#
# PCOD9293002 Si02
#       8
#     4   8   8   8   4   8   8   8
#     4  10  22  44  71 100 134 174 219 274 334 392
#     4  11  24  44  65 102 130 180 217 274 328 406
#     4  11  24  44  69  96 135 176 226 279 337 395
#     4  11  25  43  71  98 139 174 225 268 339 400
#     4  12  26  44  71  98 138 172 229 272 344 390
#     4  11  22  46  69  99 136 175 224 276 337 398
#     4  12  24  44  68 101 136 177 222 282 333 401
#     4  11  25  43  68  99 134 175 229 276 334 397
#
# _framework density 21.063072999999999
#
# number of rings (size 3 to 8) (size 9 to 14) (size 15 to 20)
#    0.000    0.857    4.286    3.429    0.000    4.571 
#    1.286    0.000    0.000    0.000    0.000    0.000 
#    0.000    0.000    0.000    0.000    0.000    0.000 
#
# Total GULP energy -156484.973904 kJ/mol
# GULP energy per Si atom -5588.749068 kJ/mol
# Density = 2.101513 g / cm^3
# Si number density = 21.063073 Si / 1000 Ang^3
#
#
#
# Elastic Constant Matrix: (Units=GPa)
#
#
# Indices 1 2 3 4 5 6 
#
# 1 137.8196 29.0353 46.0211 -0.0009 0.4140 0.0009
# 2 29.0353 58.9777 16.0187 -0.0005 -5.2349 0.0006
# 3 46.0211 16.0187 102.6512 -0.0026 4.1708 0.0033
# 4 -0.0009 -0.0005 -0.0026 49.0286 0.0011 -44.0194
# 5 0.4140 -5.2349 4.1708 0.0011 23.8906 -0.0012
# 6 0.0009 0.0006 0.0033 -44.0194 -0.0012 92.6276
#
#
#
# Elastic Compliance Matrix: (Units=1/GPa)
#
#
# Indices 1 2 3 4 5 6 
#
# 1 0.009199 -0.003594 -0.003550 0.000000 -0.000327 0.000000
# 2 -0.003594 0.019580 -0.001633 0.000000 0.004638 0.000000
# 3 -0.003550 -0.001633 0.011683 0.000000 -0.002336 0.000000
# 4 0.000000 0.000000 0.000000 0.035575 -0.000001 0.016907
# 5 -0.000327 0.004638 -0.002336 -0.000001 0.043287 0.000000
# 6 0.000000 0.000000 0.000000 0.016907 0.000000 0.018830
#
#
# Mechanical properties :
#
#
# Convention : Reuss Voigt Hill
#
# Bulk Modulus (GPa) = 43.65093 53.51099 48.58096
# Shear Modulus (GPa) = 30.61004 47.00094 38.80549
#
# Velocity S-wave (km/s) = 3.81630 4.72893 4.29691
# Velocity P-wave (km/s) = 6.33938 7.43488 6.90887
#
# Compressibility (1/GPa) = 0.02290902
#
# Stress axis : x y z
#
# Youngs Moduli (GPa) = 108.70186 51.07279 85.59386
#
# Poissons Ratio (x) = 0.18354 0.30388
# Poissons Ratio (y) = 0.39065 0.13975
# Poissons Ratio (z) = 0.38592 0.08339
#
# Static dielectric constant tensor:
#      x y z
#    x 1.779270 0.000000 0.067930 
#    y 0.000000 1.724590 0.000000 
#    z 0.067930 0.000000 1.812790 
# 
# From -- ./inp_files/59360.got.cif
#   From: 2010.05.17/outbox.cif.g08.bks.cpg/sg15_30_cif.got.tgz:59360.got - 2010.06.03 18:47:42.
