data_PCOD9293811
_publ_section_title
;
Structure prediction by ZEFSAII (Michael W. Deem and Ramdas Pophale) SiO2 
 PCOD9293811
Probable space group: C 2/C
;
_chemical_formula_sum "Si O2"
_cell_formula_units_Z 40
_cell_length_a 23.591194
_cell_length_b 7.184988
_cell_length_c 14.717773
_cell_angle_alpha 90.000000
_cell_angle_beta 143.518275
_cell_angle_gamma 90.000000
_cell_volume 1483.263816
_symmetry_space_group_name_H-M "C 2/C"
_symmetry_group_IT_number 15
_symmetry_cell_setting 'monoclinic'
loop_
_space_group_symop_operation_xyz
x,y,z
-x,y,1/2-z
-x,-y,-z
x,-y,1/2+z
1/2+x,1/2+y,z
1/2-x,1/2+y,1/2-z
1/2-x,1/2-y,-z
1/2+x,1/2-y,1/2+z
loop_
_atom_site_type_symbol
_atom_site_label
_atom_site_fract_x
_atom_site_fract_y
_atom_site_fract_z
Si Si1 0.096624 0.784866 0.753630
Si Si2 0.288265 0.349404 0.414464
Si Si3 0.112424 0.198733 0.749108
Si Si4 0.671430 0.220943 0.522039
Si Si5 0.409788 0.092444 0.459378
O O1 0.147247 0.793580 0.916266
O O2 0.003124 0.663282 0.630771
O O3 0.065516 0.995139 0.686609
O O4 0.179599 0.698119 0.797953
O O5 0.309614 0.565360 0.427959
O O6 0.324205 0.230073 0.377775
O O7 0.111662 0.277604 0.850600
O O8 0.075748 0.345577 0.627223
O O9 0.224062 0.148108 0.873348
O O10 0.622943 0.101815 0.538517
#
# Coordination Sequence:
#
# PCOD9293811 Si02
#       5
#     8   8   8   8   8
#     4  10  22  47  79 113 155 207 258 332 387 465
#     4  10  23  46  77 107 161 201 259 320 398 461
#     4  10  23  47  77 112 161 206 258 332 383 464
#     4  10  24  48  76 110 159 209 255 320 397 464
#     4  12  24  46  83 115 154 212 268 311 394 475
#
# _framework density 26.967555000000001
#
# number of rings (size 3 to 8) (size 9 to 14) (size 15 to 20)
#    0.000    1.600    2.000    1.200    5.600    0.000 
#    3.600    3.000   13.200    0.000    0.000    4.200 
#    0.000    0.000    0.000    0.000    0.000    0.000 
#
# Total GULP energy -112273.464239 kJ/mol
# GULP energy per Si atom -5613.673212 kJ/mol
# Density = 2.690618 g / cm^3
# Si number density = 26.967555 Si / 1000 Ang^3
#
#
#
# Elastic Constant Matrix: (Units=GPa)
#
#
# Indices 1 2 3 4 5 6 
#
# 1 139.7373 68.6390 50.5986 0.0000 -16.8983 0.0000
# 2 68.6390 160.1850 44.3049 0.0000 -23.2059 0.0000
# 3 50.5986 44.3049 123.0324 0.0000 -16.5907 0.0000
# 4 0.0000 0.0000 0.0000 26.3806 0.0000 -7.7747
# 5 -16.8983 -23.2059 -16.5907 0.0000 59.8997 0.0000
# 6 0.0000 0.0000 0.0000 -7.7747 0.0000 36.9673
#
#
#
# Elastic Compliance Matrix: (Units=1/GPa)
#
#
# Indices 1 2 3 4 5 6 
#
# 1 0.009900 -0.003375 -0.002759 0.000000 0.000721 0.000000
# 2 -0.003375 0.008340 -0.001359 0.000000 0.001903 0.000000
# 3 -0.002759 -0.001359 0.009948 0.000000 0.001450 0.000000
# 4 0.000000 0.000000 0.000000 0.040411 0.000000 0.008499
# 5 0.000721 0.001903 0.001450 0.000000 0.018037 0.000000
# 6 0.000000 0.000000 0.000000 0.008499 0.000000 0.028838
#
#
# Mechanical properties :
#
#
# Convention : Reuss Voigt Hill
#
# Bulk Modulus (GPa) = 75.74156 83.33773 79.53965
# Shear Modulus (GPa) = 37.07516 41.94365 39.50940
#
# Velocity S-wave (km/s) = 3.71186 3.94806 3.83178
# Velocity P-wave (km/s) = 6.82039 7.19395 7.00966
#
# Compressibility (1/GPa) = 0.01320279
#
# Stress axis : x y z
#
# Youngs Moduli (GPa) = 101.00830 119.89960 100.52666
#
# Poissons Ratio (x) = 0.40461 0.27736
# Poissons Ratio (y) = 0.34086 0.13662
# Poissons Ratio (z) = 0.27869 0.16294
#
# Static dielectric constant tensor:
#      x y z
#    x 2.145230 0.000000 -0.045450 
#    y 0.000000 2.110570 0.000000 
#    z -0.045450 0.000000 2.082010 
# 
# From -- ./inp_files/224302.got.cif
#   From: 2010.05.17/outbox.cif.g08.bks.cpg/sg15_113_cif.got.tgz:224302.got - 2010.06.03 18:47:42.
