data_PCOD9293806
_publ_section_title
;
Structure prediction by ZEFSAII (Michael W. Deem and Ramdas Pophale) SiO2 
 PCOD9293806
Probable space group: C 2/C
;
_chemical_formula_sum "Si O2"
_cell_formula_units_Z 44
_cell_length_a 15.563366
_cell_length_b 21.711630
_cell_length_c 4.706856
_cell_angle_alpha 90.000000
_cell_angle_beta 99.412929
_cell_angle_gamma 90.000000
_cell_volume 1569.059792
_symmetry_space_group_name_H-M "C 2/C"
_symmetry_group_IT_number 15
_symmetry_cell_setting 'monoclinic'
loop_
_space_group_symop_operation_xyz
x,y,z
-x,y,1/2-z
-x,-y,-z
x,-y,1/2+z
1/2+x,1/2+y,z
1/2-x,1/2+y,1/2-z
1/2-x,1/2-y,-z
1/2+x,1/2-y,1/2+z
loop_
_atom_site_type_symbol
_atom_site_label
_atom_site_fract_x
_atom_site_fract_y
_atom_site_fract_z
Si Si1 0.101405 0.042124 0.881144
Si Si2 0.697445 0.955169 0.459392
Si Si3 0.647152 0.363116 0.896514
Si Si4 0.940881 0.635431 0.482921
Si Si5 0.662894 0.249548 0.268987
Si Si6 0.500000 0.673758 0.750000
O O1 0.000000 0.038216 0.750000
O O2 0.131214 0.013836 0.598495
O O3 0.126927 0.102905 0.081441
O O4 0.767912 0.900551 0.446921
O O5 0.605335 0.921066 0.386234
O O6 0.701311 0.017282 0.277631
O O7 0.671994 0.293142 0.994778
O O8 0.556134 0.363400 0.035678
O O9 0.867509 0.681721 0.328261
O O10 0.000000 0.616944 0.250000
O O11 0.000000 0.668703 0.750000
O O12 0.750000 0.250000 0.500000
O O13 0.578545 0.280390 0.386846
#
# Coordination Sequence:
#
# PCOD9293806 Si02
#       6
#     8   8   8   8   8   4
#     4  10  22  47  75 110 164 233 294 349 420 515
#     4  12  29  51  88 127 175 233 298 367 452 538
#     4  10  23  50  84 126 184 226 297 368 451 542
#     4  12  28  55  92 128 175 227 303 380 457 543
#     4  10  24  52  95 132 182 237 299 379 467 548
#     4   8  22  48  88 136 174 228 310 360 458 554
#
# _framework density 28.042269000000001
#
# number of rings (size 3 to 8) (size 9 to 14) (size 15 to 20)
#    1.091    0.364    0.909    2.182    5.091    2.909 
#    8.182   10.000   20.000    0.000    0.000    0.000 
#    0.000    0.000    0.000    0.000    0.000    0.000 
#
# Total GULP energy -122713.763391 kJ/mol
# GULP energy per Si atom -5577.898336 kJ/mol
# Density = 2.797844 g / cm^3
# Si number density = 28.042269 Si / 1000 Ang^3
#
#
#
# Elastic Constant Matrix: (Units=GPa)
#
#
# Indices 1 2 3 4 5 6 
#
# 1 136.9308 62.1622 50.6355 0.0000 19.2663 0.0000
# 2 62.1622 108.6620 -0.7451 0.0000 3.6798 0.0000
# 3 50.6355 -0.7451 157.6521 0.0000 21.7577 0.0000
# 4 0.0000 0.0000 0.0000 38.6683 0.0000 -0.5738
# 5 19.2663 3.6798 21.7577 0.0000 52.5843 0.0000
# 6 0.0000 0.0000 0.0000 -0.5738 0.0000 49.4522
#
#
#
# Elastic Compliance Matrix: (Units=1/GPa)
#
#
# Indices 1 2 3 4 5 6 
#
# 1 0.012082 -0.006853 -0.003572 0.000000 -0.002469 0.000000
# 2 -0.006853 0.013114 0.002167 0.000000 0.000696 0.000000
# 3 -0.003572 0.002167 0.007786 0.000000 -0.002064 0.000000
# 4 0.000000 0.000000 0.000000 0.025865 0.000000 0.000300
# 5 -0.002469 0.000696 -0.002064 0.000000 0.020727 0.000000
# 6 0.000000 0.000000 0.000000 0.000300 0.000000 0.020225
#
#
# Mechanical properties :
#
#
# Convention : Reuss Voigt Hill
#
# Bulk Modulus (GPa) = 60.73158 69.70555 65.21857
# Shear Modulus (GPa) = 41.04924 47.55378 44.30151
#
# Velocity S-wave (km/s) = 3.83016 4.12246 3.97900
# Velocity P-wave (km/s) = 6.42373 6.89717 6.66465
#
# Compressibility (1/GPa) = 0.01646590
#
# Stress axis : x y z
#
# Youngs Moduli (GPa) = 82.76556 76.25198 128.44278
#
# Poissons Ratio (x) = 0.52254 0.45883
# Poissons Ratio (y) = 0.56718 -0.27832
# Poissons Ratio (z) = 0.29566 -0.16523
#
# Static dielectric constant tensor:
#      x y z
#    x 2.385700 0.000000 -0.084300 
#    y 0.000000 2.332050 0.000000 
#    z -0.084300 0.000000 2.389840 
# 
# From -- ./inp_files/10961.got.cif
#   From: 2010.05.17/outbox.cif.g08.bks.cpg/sg15_6_cif.got.tgz:10961.got - 2010.06.03 18:47:42.
