data_PCOD9293810
_publ_section_title
;
Structure prediction by ZEFSAII (Michael W. Deem and Ramdas Pophale) SiO2 
 PCOD9293810
Probable space group: C 2/C
;
_chemical_formula_sum "Si O2"
_cell_formula_units_Z 40
_cell_length_a 21.135833
_cell_length_b 8.940211
_cell_length_c 13.687832
_cell_angle_alpha 90.000000
_cell_angle_beta 141.603297
_cell_angle_gamma 90.000000
_cell_volume 1606.442587
_symmetry_space_group_name_H-M "C 2/C"
_symmetry_group_IT_number 15
_symmetry_cell_setting 'monoclinic'
loop_
_space_group_symop_operation_xyz
x,y,z
-x,y,1/2-z
-x,-y,-z
x,-y,1/2+z
1/2+x,1/2+y,z
1/2-x,1/2+y,1/2-z
1/2-x,1/2-y,-z
1/2+x,1/2-y,1/2+z
loop_
_atom_site_type_symbol
_atom_site_label
_atom_site_fract_x
_atom_site_fract_y
_atom_site_fract_z
Si Si1 0.807153 0.503156 0.601365
Si Si2 0.902742 0.315095 0.566327
Si Si3 0.131060 0.234297 0.437545
Si Si4 0.192759 0.539073 0.178420
Si Si5 0.078520 0.993708 0.007776
O O1 0.811416 0.374936 0.524925
O O2 0.885291 0.634279 0.660650
O O3 0.704291 0.603318 0.483830
O O4 0.826657 0.432294 0.730752
O O5 0.889307 0.417476 0.455405
O O6 0.911556 0.146319 0.541651
O O7 0.000000 0.346982 0.750000
O O8 0.186513 0.326932 0.593194
O O9 0.048956 0.141105 0.399702
O O10 0.192881 0.973879 0.187348
O O11 0.000000 0.000000 0.000000
#
# Coordination Sequence:
#
# PCOD9293810 Si02
#       5
#     8   8   8   8   8
#     4   9  20  43  72  97 139 184 245 282 348 431
#     4  11  26  48  69 112 140 191 240 293 365 419
#     4   9  20  42  70 102 129 192 234 293 349 425
#     4  10  22  47  76  96 141 194 241 287 364 428
#     4  11  24  45  68 107 148 184 237 306 359 422
#
# _framework density 24.899737999999999
#
# number of rings (size 3 to 8) (size 9 to 14) (size 15 to 20)
#    0.000    2.000    0.000    2.400    2.800    4.000 
#   32.400    1.000    0.000    0.000    0.000    0.000 
#    0.000    0.000    0.000    0.000    0.000    0.000 
#
# Total GULP energy -111713.620400 kJ/mol
# GULP energy per Si atom -5585.681020 kJ/mol
# Density = 2.484307 g / cm^3
# Si number density = 24.899738 Si / 1000 Ang^3
#
#
#
# Elastic Constant Matrix: (Units=GPa)
#
#
# Indices 1 2 3 4 5 6 
#
# 1 128.6347 70.1031 24.0155 0.0000 -38.6677 0.0000
# 2 70.1031 117.1978 16.1562 0.0000 0.0314 0.0000
# 3 24.0155 16.1562 97.3379 0.0000 -11.5931 0.0000
# 4 0.0000 0.0000 0.0000 28.3685 0.0000 -15.3572
# 5 -38.6677 0.0314 -11.5931 0.0000 40.0961 0.0000
# 6 0.0000 0.0000 0.0000 -15.3572 0.0000 44.7801
#
#
#
# Elastic Compliance Matrix: (Units=1/GPa)
#
#
# Indices 1 2 3 4 5 6 
#
# 1 0.020298 -0.012050 -0.000699 0.000000 0.019382 0.000000
# 2 -0.012050 0.015894 -0.001088 0.000000 -0.011948 0.000000
# 3 -0.000699 -0.001088 0.010923 0.000000 0.002484 0.000000
# 4 0.000000 0.000000 0.000000 0.043287 0.000000 0.014845
# 5 0.019382 -0.011948 0.002484 0.000000 0.044359 0.000000
# 6 0.000000 0.000000 0.000000 0.014845 0.000000 0.027422
#
#
# Mechanical properties :
#
#
# Convention : Reuss Voigt Hill
#
# Bulk Modulus (GPa) = 51.44323 62.63555 57.03939
# Shear Modulus (GPa) = 25.46639 38.17531 31.82085
#
# Velocity S-wave (km/s) = 3.20153 3.91981 3.57873
# Velocity P-wave (km/s) = 5.86271 6.75990 6.32723
#
# Compressibility (1/GPa) = 0.01943890
#
# Stress axis : x y z
#
# Youngs Moduli (GPa) = 49.26643 62.91813 91.55377
#
# Poissons Ratio (x) = 0.75817 0.06404
# Poissons Ratio (y) = 0.59367 0.09961
# Poissons Ratio (z) = 0.03446 0.06846
#
# Static dielectric constant tensor:
#      x y z
#    x 2.081440 0.000000 0.089290 
#    y 0.000000 1.998740 0.000000 
#    z 0.089290 0.000000 2.059840 
# 
# From -- ./inp_files/175954.got.cif
#   From: 2010.05.17/outbox.cif.g08.bks.cpg/sg15_88_cif.got.tgz:175954.got - 2010.06.03 18:47:42.
