data_PCOD9293953
_publ_section_title
;
Structure prediction by ZEFSAII (Michael W. Deem and Ramdas Pophale) SiO2 
 PCOD9293953
Probable space group: C 2/C
;
_chemical_formula_sum "Si O2"
_cell_formula_units_Z 40
_cell_length_a 12.845340
_cell_length_b 25.646350
_cell_length_c 5.599371
_cell_angle_alpha 90.000000
_cell_angle_beta 88.827477
_cell_angle_gamma 90.000000
_cell_volume 1844.248619
_symmetry_space_group_name_H-M "C 2/C"
_symmetry_group_IT_number 15
_symmetry_cell_setting 'monoclinic'
loop_
_space_group_symop_operation_xyz
x,y,z
-x,y,1/2-z
-x,-y,-z
x,-y,1/2+z
1/2+x,1/2+y,z
1/2-x,1/2+y,1/2-z
1/2-x,1/2-y,-z
1/2+x,1/2-y,1/2+z
loop_
_atom_site_type_symbol
_atom_site_label
_atom_site_fract_x
_atom_site_fract_y
_atom_site_fract_z
Si Si1 0.382180 0.520349 0.009156
Si Si2 0.878627 0.531776 0.237957
Si Si3 0.246039 0.794074 0.201822
Si Si4 0.607785 0.715246 0.101473
Si Si5 0.220969 0.120557 0.364202
O O1 0.336956 0.494148 0.252279
O O2 0.370826 0.581637 0.050326
O O3 0.500000 0.500000 0.000000
O O4 0.862762 0.500183 0.490448
O O5 0.805956 0.582998 0.243242
O O6 0.000000 0.547167 0.250000
O O7 0.335564 0.771493 0.368592
O O8 0.130036 0.794265 0.320394
O O9 0.250000 0.750000 0.000000
O O10 0.268014 0.849933 0.090158
O O11 0.500000 0.715748 0.250000
O O12 0.673645 0.666579 0.206726
#
# Coordination Sequence:
#
# PCOD9293953 Si02
#       5
#     8   8   8   8   8
#     4  10  23  37  56  92 135 167 214 259 314 394
#     4  10  23  44  66  96 136 178 227 282 335 394
#     4   9  22  44  61  94 129 169 224 274 340 401
#     4  10  23  42  67  95 133 170 219 284 347 407
#     4  11  23  38  66  92 131 175 218 274 335 406
#
# _framework density 21.689048
#
# number of rings (size 3 to 8) (size 9 to 14) (size 15 to 20)
#    0.000    2.000    0.000    1.200    8.400    4.800 
#   10.800    0.000    0.000    0.000    0.000    0.000 
#    0.000    0.000    0.000    0.000    0.000    0.000 
#
# Total GULP energy -111393.886421 kJ/mol
# GULP energy per Si atom -5569.694321 kJ/mol
# Density = 2.163968 g / cm^3
# Si number density = 21.689048 Si / 1000 Ang^3
#
#
#
# Elastic Constant Matrix: (Units=GPa)
#
#
# Indices 1 2 3 4 5 6 
#
# 1 109.7201 43.3692 43.5890 0.0000 -34.4963 0.0000
# 2 43.3692 129.7553 36.9781 0.0000 -19.9627 0.0000
# 3 43.5890 36.9781 137.0300 0.0000 -26.6092 0.0000
# 4 0.0000 0.0000 0.0000 35.5262 0.0000 1.2653
# 5 -34.4963 -19.9627 -26.6092 0.0000 43.9711 0.0000
# 6 0.0000 0.0000 0.0000 1.2653 0.0000 34.8552
#
#
#
# Elastic Compliance Matrix: (Units=1/GPa)
#
#
# Indices 1 2 3 4 5 6 
#
# 1 0.013550 -0.002700 -0.001989 0.000000 0.008201 0.000000
# 2 -0.002700 0.009191 -0.001385 0.000000 0.001216 0.000000
# 3 -0.001989 -0.001385 0.008928 0.000000 0.003214 0.000000
# 4 0.000000 0.000000 0.000000 0.028185 0.000000 -0.001023
# 5 0.008201 0.001216 0.003214 0.000000 0.031672 0.000000
# 6 0.000000 0.000000 0.000000 -0.001023 0.000000 0.028727
#
#
# Mechanical properties :
#
#
# Convention : Reuss Voigt Hill
#
# Bulk Modulus (GPa) = 51.22923 69.37534 60.30229
# Shear Modulus (GPa) = 35.99455 39.70844 37.85150
#
# Velocity S-wave (km/s) = 4.07820 4.28343 4.18208
# Velocity P-wave (km/s) = 6.77103 7.51795 7.15424
#
# Compressibility (1/GPa) = 0.01952011
#
# Stress axis : x y z
#
# Youngs Moduli (GPa) = 73.80071 108.79938 112.00450
#
# Poissons Ratio (x) = 0.29381 0.22279
# Poissons Ratio (y) = 0.19929 0.15514
# Poissons Ratio (z) = 0.14680 0.15070
#
# Static dielectric constant tensor:
#      x y z
#    x 1.707730 0.000000 0.122070 
#    y 0.000000 1.736110 0.000000 
#    z 0.122070 0.000000 1.950030 
# 
# From -- ./inp_files/7281.got.cif
#   From: 2010.05.17/outbox.cif.g08.bks.cpg/sg15_4_cif.got.tgz:7281.got - 2010.06.03 18:47:42.
