data_PCOD9293915
_publ_section_title
;
Structure prediction by ZEFSAII (Michael W. Deem and Ramdas Pophale) SiO2 
 PCOD9293915
Probable space group: C 2/C
;
_chemical_formula_sum "Si O2"
_cell_formula_units_Z 48
_cell_length_a 25.026928
_cell_length_b 10.384411
_cell_length_c 9.387133
_cell_angle_alpha 90.000000
_cell_angle_beta 96.512333
_cell_angle_gamma 90.000000
_cell_volume 2423.879377
_symmetry_space_group_name_H-M "C 2/C"
_symmetry_group_IT_number 15
_symmetry_cell_setting 'monoclinic'
loop_
_space_group_symop_operation_xyz
x,y,z
-x,y,1/2-z
-x,-y,-z
x,-y,1/2+z
1/2+x,1/2+y,z
1/2-x,1/2+y,1/2-z
1/2-x,1/2-y,-z
1/2+x,1/2-y,1/2+z
loop_
_atom_site_type_symbol
_atom_site_label
_atom_site_fract_x
_atom_site_fract_y
_atom_site_fract_z
Si Si1 0.360334 0.977636 0.195469
Si Si2 0.747990 0.563879 0.252759
Si Si3 0.614922 0.251346 0.012267
Si Si4 0.326119 0.240141 0.165522
Si Si5 0.822899 0.987896 0.518302
Si Si6 0.465128 0.919811 0.878590
O O1 0.303046 0.981123 0.260372
O O2 0.354536 0.113611 0.106735
O O3 0.366430 0.855362 0.096350
O O4 0.412628 0.000573 0.809676
O O5 0.764962 0.695507 0.177598
O O6 0.725368 0.574946 0.403508
O O7 0.700469 0.502352 0.146563
O O8 0.649553 0.244829 0.167922
O O9 0.556630 0.206558 0.047168
O O10 0.626429 0.393398 0.957991
O O11 0.333084 0.370423 0.083389
O O12 0.500000 0.890011 0.750000
O O13 0.500000 0.000000 0.000000
#
# Coordination Sequence:
#
# PCOD9293915 Si02
#       6
#     8   8   8   8   8   8
#     4   9  22  38  64 100 129 165 225 265 332 393
#     4  10  23  35  63  88 141 180 218 250 321 391
#     4  11  22  42  64 100 128 176 223 278 324 400
#     4   9  22  39  55  91 134 178 218 256 312 382
#     4  12  22  40  60  93 139 188 217 259 323 393
#     4  11  22  43  70 101 128 162 221 294 349 382
#
# _framework density 19.802966000000001
#
# number of rings (size 3 to 8) (size 9 to 14) (size 15 to 20)
#    1.000    0.667    3.333    1.500    2.333    1.333 
#    6.000    0.000    0.000    4.000    8.667    0.000 
#    0.000    0.000    0.000    0.000    0.000    0.000 
#
# Total GULP energy -133736.811312 kJ/mol
# GULP energy per Si atom -5572.367138 kJ/mol
# Density = 1.975789 g / cm^3
# Si number density = 19.802966 Si / 1000 Ang^3
#
#
#
# Elastic Constant Matrix: (Units=GPa)
#
#
# Indices 1 2 3 4 5 6 
#
# 1 73.1608 32.4906 14.4328 0.0000 3.3318 0.0000
# 2 32.4906 111.7096 7.7289 0.0000 9.0057 0.0000
# 3 14.4328 7.7289 37.9038 0.0000 0.3748 0.0000
# 4 0.0000 0.0000 0.0000 11.9458 0.0000 -11.1212
# 5 3.3318 9.0057 0.3748 0.0000 30.0565 0.0000
# 6 0.0000 0.0000 0.0000 -11.1212 0.0000 28.1979
#
#
#
# Elastic Compliance Matrix: (Units=1/GPa)
#
#
# Indices 1 2 3 4 5 6 
#
# 1 0.016746 -0.004456 -0.005463 0.000000 -0.000453 0.000000
# 2 -0.004456 0.010490 -0.000416 0.000000 -0.002644 0.000000
# 3 -0.005463 -0.000416 0.028544 0.000000 0.000374 0.000000
# 4 0.000000 0.000000 0.000000 0.132282 0.000000 0.052172
# 5 -0.000453 -0.002644 0.000374 0.000000 0.034108 0.000000
# 6 0.000000 0.000000 0.000000 0.052172 0.000000 0.056040
#
#
# Mechanical properties :
#
#
# Convention : Reuss Voigt Hill
#
# Bulk Modulus (GPa) = 28.48283 36.89763 32.69023
# Shear Modulus (GPa) = 16.09872 25.24818 20.67345
#
# Velocity S-wave (km/s) = 2.85431 3.57455 3.23454
# Velocity P-wave (km/s) = 5.02764 5.97573 5.52207
#
# Compressibility (1/GPa) = 0.03510887
#
# Stress axis : x y z
#
# Youngs Moduli (GPa) = 59.71639 95.33144 35.03361
#
# Poissons Ratio (x) = 0.42479 0.19140
# Poissons Ratio (y) = 0.26610 0.01458
# Poissons Ratio (z) = 0.32625 0.03966
#
# Static dielectric constant tensor:
#      x y z
#    x 1.725730 0.000000 -0.006860 
#    y 0.000000 1.765890 0.000000 
#    z -0.006860 0.000000 1.727080 
# 
# From -- ./inp_files/121119.got.cif
#   From: 2010.05.17/outbox.cif.g08.bks.cpg/sg15_61_cif.got.tgz:121119.got - 2010.06.03 18:47:42.
