data_PCOD9293125
_publ_section_title
;
Structure prediction by ZEFSAII (Michael W. Deem and Ramdas Pophale) SiO2 
 PCOD9293125
Probable space group: C 2/C
;
_chemical_formula_sum "Si O2"
_cell_formula_units_Z 60
_cell_length_a 11.911773
_cell_length_b 8.860157
_cell_length_c 26.892656
_cell_angle_alpha 90.000000
_cell_angle_beta 60.205234
_cell_angle_gamma 90.000000
_cell_volume 2463.069110
_symmetry_space_group_name_H-M "C 2/C"
_symmetry_group_IT_number 15
_symmetry_cell_setting 'monoclinic'
loop_
_space_group_symop_operation_xyz
x,y,z
-x,y,1/2-z
-x,-y,-z
x,-y,1/2+z
1/2+x,1/2+y,z
1/2-x,1/2+y,1/2-z
1/2-x,1/2-y,-z
1/2+x,1/2-y,1/2+z
loop_
_atom_site_type_symbol
_atom_site_label
_atom_site_fract_x
_atom_site_fract_y
_atom_site_fract_z
Si Si1 0.148262 0.940526 0.226441
Si Si2 0.454776 0.661303 0.532233
Si Si3 0.750000 0.250000 0.500000
Si Si4 0.696559 0.760939 0.232131
Si Si5 0.751750 0.768290 0.617872
Si Si6 0.989568 0.820101 0.633535
Si Si7 0.839782 0.072543 0.944669
Si Si8 0.183008 0.599068 0.632833
O O1 0.188922 0.857283 0.268330
O O2 0.182441 0.823344 0.176501
O O3 0.000000 0.982979 0.250000
O O4 0.231321 0.094147 0.204925
O O5 0.500000 0.500000 0.500000
O O6 0.385434 0.760266 0.505382
O O7 0.577972 0.689957 0.540331
O O8 0.333159 0.638947 0.595837
O O9 0.776021 0.065189 0.488541
O O10 0.595042 0.721131 0.299007
O O11 0.642442 0.853847 0.197317
O O12 0.891379 0.805565 0.609808
O O13 0.755023 0.663330 0.569746
O O14 0.674107 0.922352 0.625748
O O15 0.058885 0.980940 0.613856
O O16 0.109125 0.701168 0.608138
#
# Coordination Sequence:
#
# PCOD9293125 Si02
#       8
#     8   8   4   8   8   8   8   8
#     4  11  24  41  64  93 139 182 222 280 327 394
#     4  10  23  42  75  99 130 174 227 283 349 408
#     4  10  22  44  74 104 118 180 226 276 358 414
#     4  11  24  41  67 101 135 185 234 270 332 406
#     4  11  26  40  65 106 133 175 231 273 337 411
#     4  11  23  44  66  98 144 179 225 278 329 408
#     4  11  22  45  74  96 135 175 224 283 346 409
#     4  12  23  42  70  96 140 183 220 288 339 393
#
# _framework density 24.359853000000001
#
# number of rings (size 3 to 8) (size 9 to 14) (size 15 to 20)
#    0.000    1.067    2.667    4.400    1.867    4.267 
#    0.000    4.000    0.000    0.000    0.000    0.000 
#    0.000    0.000    0.000    0.000    0.000    0.000 
#
# Total GULP energy -167276.981695 kJ/mol
# GULP energy per Si atom -5575.899390 kJ/mol
# Density = 2.430441 g / cm^3
# Si number density = 24.359853 Si / 1000 Ang^3
#
#
#
# Elastic Constant Matrix: (Units=GPa)
#
#
# Indices 1 2 3 4 5 6 
#
# 1 141.0743 58.2959 26.8860 0.0000 31.0918 0.0000
# 2 58.2959 136.5706 18.1019 0.0000 23.3075 0.0000
# 3 26.8860 18.1019 79.2817 0.0000 1.8389 0.0000
# 4 0.0000 0.0000 0.0000 43.9528 0.0000 10.7586
# 5 31.0918 23.3075 1.8389 0.0000 36.8614 0.0000
# 6 0.0000 0.0000 0.0000 10.7586 0.0000 52.3007
#
#
#
# Elastic Compliance Matrix: (Units=1/GPa)
#
#
# Indices 1 2 3 4 5 6 
#
# 1 0.010266 -0.002885 -0.002667 0.000000 -0.006702 0.000000
# 2 -0.002885 0.009270 -0.001060 0.000000 -0.003375 0.000000
# 3 -0.002667 -0.001060 0.013708 0.000000 0.002236 0.000000
# 4 0.000000 0.000000 0.000000 0.023958 0.000000 -0.004928
# 5 -0.006702 -0.003375 0.002236 0.000000 0.034804 0.000000
# 6 0.000000 0.000000 0.000000 -0.004928 0.000000 0.020134
#
#
# Mechanical properties :
#
#
# Convention : Reuss Voigt Hill
#
# Bulk Modulus (GPa) = 49.95025 62.61047 56.28036
# Shear Modulus (GPa) = 37.86790 43.53247 40.70019
#
# Velocity S-wave (km/s) = 3.94702 4.23195 4.09196
# Velocity P-wave (km/s) = 6.42819 7.04537 6.74385
#
# Compressibility (1/GPa) = 0.02001992
#
# Stress axis : x y z
#
# Youngs Moduli (GPa) = 97.40954 107.87306 72.95039
#
# Poissons Ratio (x) = 0.31119 0.19458
# Poissons Ratio (y) = 0.28100 0.07733
# Poissons Ratio (z) = 0.25982 0.11435
#
# Static dielectric constant tensor:
#      x y z
#    x 1.923680 0.000000 0.080180 
#    y 0.000000 1.869000 0.000000 
#    z 0.080180 0.000000 1.794920 
# 
# From -- ./inp_files/310292.got.cif
#   From: 2010.05.17/outbox.cif.g08.bks.cpg/sg15_156_cif.got.tgz:310292.got - 2010.06.03 18:47:42.
