data_PCOD9293453
_publ_section_title
;
Structure prediction by ZEFSAII (Michael W. Deem and Ramdas Pophale) SiO2 
 PCOD9293453
Probable space group: C 2/C
;
_chemical_formula_sum "Si O2"
_cell_formula_units_Z 48
_cell_length_a 13.739520
_cell_length_b 7.990431
_cell_length_c 26.664733
_cell_angle_alpha 90.000000
_cell_angle_beta 40.532042
_cell_angle_gamma 90.000000
_cell_volume 1902.425374
_symmetry_space_group_name_H-M "C 2/C"
_symmetry_group_IT_number 15
_symmetry_cell_setting 'monoclinic'
loop_
_space_group_symop_operation_xyz
x,y,z
-x,y,1/2-z
-x,-y,-z
x,-y,1/2+z
1/2+x,1/2+y,z
1/2-x,1/2+y,1/2-z
1/2-x,1/2-y,-z
1/2+x,1/2-y,1/2+z
loop_
_atom_site_type_symbol
_atom_site_label
_atom_site_fract_x
_atom_site_fract_y
_atom_site_fract_z
Si Si1 0.079207 0.499207 0.648779
Si Si2 0.965106 0.135672 0.333612
Si Si3 0.019983 0.252907 0.964958
Si Si4 0.281652 0.325550 0.362741
Si Si5 0.196484 0.536903 0.313085
Si Si6 0.870463 0.926157 0.982555
O O1 0.078891 0.684754 0.671574
O O2 0.137224 0.351208 0.661223
O O3 0.203226 0.503983 0.555557
O O4 0.917877 0.469178 0.687878
O O5 0.906204 0.135678 0.413630
O O6 0.143140 0.111968 0.263129
O O7 0.889503 0.977620 0.336185
O O8 0.861497 0.329501 0.044213
O O9 0.102086 0.210887 0.985003
O O10 0.115005 0.361170 0.889515
O O11 0.982588 0.077552 0.952414
O O12 0.227975 0.358125 0.327223
#
# Coordination Sequence:
#
# PCOD9293453 Si02
#       6
#     8   8   8   8   8   8
#     4  11  26  47  77 106 151 200 254 317 377 462
#     4  12  26  45  74 110 155 192 252 320 390 451
#     4  10  22  45  78 107 148 202 261 308 377 464
#     4  11  25  49  73 107 149 201 257 310 377 463
#     4  12  26  45  75 112 151 203 250 321 390 458
#     4  10  22  45  77 111 146 202 259 313 376 463
#
# _framework density 25.23095
#
# number of rings (size 3 to 8) (size 9 to 14) (size 15 to 20)
#    0.000    1.000    0.000    5.500    4.667    2.667 
#    3.000    8.333    0.000    0.000    0.000    0.000 
#    0.000    0.000    0.000    0.000    0.000    0.000 
#
# Total GULP energy -134687.891822 kJ/mol
# GULP energy per Si atom -5611.995493 kJ/mol
# Density = 2.517352 g / cm^3
# Si number density = 25.230950 Si / 1000 Ang^3
#
#
#
# Elastic Constant Matrix: (Units=GPa)
#
#
# Indices 1 2 3 4 5 6 
#
# 1 100.1479 45.5806 33.1430 0.0000 -23.4699 0.0003
# 2 45.5806 149.3645 35.0953 0.0000 -9.9925 0.0008
# 3 33.1430 35.0953 129.4779 0.0000 -22.1725 -0.0001
# 4 0.0000 0.0000 0.0000 3.6843 0.0000 -6.1258
# 5 -23.4699 -9.9925 -22.1725 0.0000 50.5699 0.0001
# 6 0.0003 0.0008 -0.0001 -6.1258 0.0001 37.3083
#
#
#
# Elastic Compliance Matrix: (Units=1/GPa)
#
#
# Indices 1 2 3 4 5 6 
#
# 1 0.013145 -0.003306 -0.001661 0.000000 0.004720 0.000000
# 2 -0.003306 0.007999 -0.001421 0.000000 -0.000576 0.000000
# 3 -0.001661 -0.001421 0.009032 0.000000 0.002908 0.000000
# 4 0.000000 0.000000 0.000000 0.373342 0.000000 0.061300
# 5 0.004720 -0.000576 0.002908 0.000000 0.023126 0.000000
# 6 0.000000 0.000000 0.000000 0.061300 0.000000 0.036869
#
#
# Mechanical properties :
#
#
# Convention : Reuss Voigt Hill
#
# Bulk Modulus (GPa) = 57.46470 67.40311 62.43391
# Shear Modulus (GPa) = 10.37157 35.99061 23.18109
#
# Velocity S-wave (km/s) = 2.02967 3.78093 3.03439
# Velocity P-wave (km/s) = 5.32144 6.77001 6.08895
#
# Compressibility (1/GPa) = 0.01740199
#
# Stress axis : x y z
#
# Youngs Moduli (GPa) = 76.07273 125.01540 110.72274
#
# Poissons Ratio (x) = 0.41324 0.18388
# Poissons Ratio (y) = 0.25146 0.15731
# Poissons Ratio (z) = 0.12633 0.17761
#
# Static dielectric constant tensor:
#      x y z
#    x 1.976250 0.000000 -0.020520 
#    y 0.000000 2.004640 0.000000 
#    z -0.020520 0.000000 1.963810 
# 
# From -- ./inp_files/295389.got.cif
#   From: 2010.05.17/outbox.cif.g08.bks.cpg/sg15_148_cif.got.tgz:295389.got - 2010.06.03 18:47:42.
