data_PCOD9293566
_publ_section_title
;
Structure prediction by ZEFSAII (Michael W. Deem and Ramdas Pophale) SiO2 
 PCOD9293566
Probable space group: C 2/C
;
_chemical_formula_sum "Si O2"
_cell_formula_units_Z 36
_cell_length_a 16.522375
_cell_length_b 10.535528
_cell_length_c 14.388437
_cell_angle_alpha 90.000000
_cell_angle_beta 42.717171
_cell_angle_gamma 90.000000
_cell_volume 1699.086006
_symmetry_space_group_name_H-M "C 2/C"
_symmetry_group_IT_number 15
_symmetry_cell_setting 'monoclinic'
loop_
_space_group_symop_operation_xyz
x,y,z
-x,y,1/2-z
-x,-y,-z
x,-y,1/2+z
1/2+x,1/2+y,z
1/2-x,1/2+y,1/2-z
1/2-x,1/2-y,-z
1/2+x,1/2-y,1/2+z
loop_
_atom_site_type_symbol
_atom_site_label
_atom_site_fract_x
_atom_site_fract_y
_atom_site_fract_z
Si Si1 0.178777 0.410157 0.154232
Si Si2 0.123877 0.322094 0.605091
Si Si3 0.451457 0.391652 0.973382
Si Si4 0.500000 0.711562 0.250000
Si Si5 0.946519 0.361467 0.046183
O O1 0.136604 0.547731 0.153874
O O2 0.112646 0.307436 0.143587
O O3 0.136917 0.368318 0.292623
O O4 0.320186 0.415339 0.044622
O O5 0.250000 0.250000 0.500000
O O6 0.108073 0.344511 0.508890
O O7 0.000000 0.261151 0.750000
O O8 0.527241 0.374652 0.815439
O O9 0.463085 0.255342 0.013836
O O10 0.500000 0.500000 0.000000
O O11 0.000000 0.500000 0.000000
#
# Coordination Sequence:
#
# PCOD9293566 Si02
#       5
#     8   8   8   4   8
#     4  11  23  46  69  96 141 192 242 286 362 440
#     4  12  25  45  73 108 148 190 240 303 370 425
#     4  11  25  42  67 105 136 176 240 300 352 416
#     4  10  22  46  68  94 138 194 234 284 364 442
#     4  11  24  45  72  96 139 190 239 288 360 437
#
# _framework density 21.187861000000002
#
# number of rings (size 3 to 8) (size 9 to 14) (size 15 to 20)
#    0.000    0.889    3.333    3.333    3.111    5.333 
#    4.000    0.000    0.000    0.000    0.000    0.000 
#    0.000    0.000    0.000    0.000    0.000    0.000 
#
# Total GULP energy -100398.463836 kJ/mol
# GULP energy per Si atom -5577.692435 kJ/mol
# Density = 2.113964 g / cm^3
# Si number density = 21.187861 Si / 1000 Ang^3
#
#
#
# Elastic Constant Matrix: (Units=GPa)
#
#
# Indices 1 2 3 4 5 6 
#
# 1 155.8885 56.3048 31.6154 0.0000 4.8212 0.0000
# 2 56.3048 101.8757 28.8036 0.0000 -5.2119 0.0000
# 3 31.6154 28.8036 64.4217 0.0000 -2.5290 0.0000
# 4 0.0000 0.0000 0.0000 29.7342 0.0000 10.8169
# 5 4.8212 -5.2119 -2.5290 0.0000 47.2149 0.0000
# 6 0.0000 0.0000 0.0000 10.8169 0.0000 24.6190
#
#
#
# Elastic Compliance Matrix: (Units=1/GPa)
#
#
# Indices 1 2 3 4 5 6 
#
# 1 0.008401 -0.004046 -0.002370 0.000000 -0.001431 0.000000
# 2 -0.004046 0.013230 -0.003864 0.000000 0.001667 0.000000
# 3 -0.002370 -0.003864 0.018445 0.000000 0.000803 0.000000
# 4 0.000000 0.000000 0.000000 0.040029 0.000000 -0.017588
# 5 -0.001431 0.001667 0.000803 0.000000 0.021553 0.000000
# 6 0.000000 0.000000 0.000000 -0.017588 0.000000 0.048347
#
#
# Mechanical properties :
#
#
# Convention : Reuss Voigt Hill
#
# Bulk Modulus (GPa) = 51.24154 61.73705 56.48930
# Shear Modulus (GPa) = 28.23721 34.01109 31.12415
#
# Velocity S-wave (km/s) = 3.65459 4.01086 3.83686
# Velocity P-wave (km/s) = 6.48420 7.11692 6.80792
#
# Compressibility (1/GPa) = 0.01951542
#
# Stress axis : x y z
#
# Youngs Moduli (GPa) = 119.02964 75.58577 54.21524
#
# Poissons Ratio (x) = 0.30585 0.12849
# Poissons Ratio (y) = 0.48164 0.20949
# Poissons Ratio (z) = 0.28210 0.29207
#
# Static dielectric constant tensor:
#      x y z
#    x 1.715520 0.000000 -0.239270 
#    y 0.000000 1.747840 0.000000 
#    z -0.239270 0.000000 0.456260 
# 
# From -- ./inp_files/152407.got.cif
#   From: 2010.05.17/outbox.cif.g08.bks.cpg/sg15_77_cif.got.tgz:152407.got - 2010.06.03 18:47:42.
