data_PCOD9293360
_publ_section_title
;
Structure prediction by ZEFSAII (Michael W. Deem and Ramdas Pophale) SiO2 
 PCOD9293360
Probable space group: C 2/C
;
_chemical_formula_sum "Si O2"
_cell_formula_units_Z 44
_cell_length_a 11.852892
_cell_length_b 8.728280
_cell_length_c 17.171134
_cell_angle_alpha 90.000000
_cell_angle_beta 109.481147
_cell_angle_gamma 90.000000
_cell_volume 1674.746598
_symmetry_space_group_name_H-M "C 2/C"
_symmetry_group_IT_number 15
_symmetry_cell_setting 'monoclinic'
loop_
_space_group_symop_operation_xyz
x,y,z
-x,y,1/2-z
-x,-y,-z
x,-y,1/2+z
1/2+x,1/2+y,z
1/2-x,1/2+y,1/2-z
1/2-x,1/2-y,-z
1/2+x,1/2-y,1/2+z
loop_
_atom_site_type_symbol
_atom_site_label
_atom_site_fract_x
_atom_site_fract_y
_atom_site_fract_z
Si Si1 0.000000 0.500000 0.000000
Si Si2 0.963064 0.825759 0.072512
Si Si3 0.321662 0.549258 0.390843
Si Si4 0.584818 0.854592 0.346555
Si Si5 0.125683 0.984451 0.821212
Si Si6 0.344840 0.115111 0.868227
O O1 0.148779 0.459720 0.045457
O O2 0.011777 0.665507 0.054750
O O3 0.884861 0.857225 0.131673
O O4 0.879957 0.895095 0.985646
O O5 0.079433 0.929980 0.114843
O O6 0.194008 0.469844 0.367899
O O7 0.323471 0.709026 0.344402
O O8 0.500000 0.868343 0.250000
O O9 0.629680 0.680239 0.364816
O O10 0.492968 0.895248 0.395838
O O11 0.247838 0.014209 0.801475
O O12 0.000000 0.973779 0.750000
#
# Coordination Sequence:
#
# PCOD9293360 Si02
#       6
#     4   8   8   8   8   8
#     4  10  24  42  72 104 134 180 234 290 350 410
#     4  10  22  45  71 103 141 183 235 293 347 415
#     4  10  23  44  71 100 139 183 237 293 343 414
#     4  11  26  44  69 100 141 189 233 289 355 422
#     4  11  26  46  70 102 146 186 227 293 352 423
#     4  11  25  44  67 106 135 181 238 288 349 423
#
# _framework density 26.272629999999999
#
# number of rings (size 3 to 8) (size 9 to 14) (size 15 to 20)
#    0.000    1.455    1.818    1.091    7.636    2.909 
#    0.000    0.000    0.000    0.000    0.000    0.000 
#    0.000    0.000    0.000    0.000    0.000    0.000 
#
# Total GULP energy -122554.247844 kJ/mol
# GULP energy per Si atom -5570.647629 kJ/mol
# Density = 2.621283 g / cm^3
# Si number density = 26.272630 Si / 1000 Ang^3
#
#
#
# Elastic Constant Matrix: (Units=GPa)
#
#
# Indices 1 2 3 4 5 6 
#
# 1 140.8714 97.6225 25.4793 0.0000 32.3603 0.0000
# 2 97.6225 221.7047 58.4351 0.0000 28.7968 0.0000
# 3 25.4793 58.4351 55.2267 0.0000 21.1121 0.0000
# 4 0.0000 0.0000 0.0000 37.9062 0.0000 14.8856
# 5 32.3603 28.7968 21.1121 0.0000 51.8281 0.0000
# 6 0.0000 0.0000 0.0000 14.8856 0.0000 41.5933
#
#
#
# Elastic Compliance Matrix: (Units=1/GPa)
#
#
# Indices 1 2 3 4 5 6 
#
# 1 0.011248 -0.004765 0.001806 0.000000 -0.005111 0.000000
# 2 -0.004765 0.008311 -0.007068 0.000000 0.001237 0.000000
# 3 0.001806 -0.007068 0.028051 0.000000 -0.008627 0.000000
# 4 0.000000 0.000000 0.000000 0.030695 0.000000 -0.010985
# 5 -0.005111 0.001237 -0.008627 0.000000 0.025313 0.000000
# 6 0.000000 0.000000 0.000000 -0.010985 0.000000 0.027974
#
#
# Mechanical properties :
#
#
# Convention : Reuss Voigt Hill
#
# Bulk Modulus (GPa) = 36.28957 86.76407 61.52682
# Shear Modulus (GPa) = 31.08859 42.01658 36.55259
#
# Velocity S-wave (km/s) = 3.44366 4.00340 3.73403
# Velocity P-wave (km/s) = 5.44558 7.38010 6.48538
#
# Compressibility (1/GPa) = 0.02755613
#
# Stress axis : x y z
#
# Youngs Moduli (GPa) = 88.90221 120.32122 35.64994
#
# Poissons Ratio (x) = 0.57335 -0.06440
# Poissons Ratio (y) = 0.42363 0.25198
# Poissons Ratio (z) = -0.16060 0.85046
#
# Static dielectric constant tensor:
#      x y z
#    x 2.452770 0.000000 -0.383950 
#    y 0.000000 2.080360 0.000000 
#    z -0.383950 0.000000 2.795180 
# 
# From -- ./inp_files/268147.got.cif
#   From: 2010.05.17/outbox.cif.g08.bks.cpg/sg15_135_cif.got.tgz:268147.got - 2010.06.03 18:47:42.
