data_PCOD9293553
_publ_section_title
;
Structure prediction by ZEFSAII (Michael W. Deem and Ramdas Pophale) SiO2 
 PCOD9293553
Probable space group: C 2/C
;
_chemical_formula_sum "Si O2"
_cell_formula_units_Z 32
_cell_length_a 12.580487
_cell_length_b 8.754817
_cell_length_c 10.757035
_cell_angle_alpha 90.000000
_cell_angle_beta 105.022068
_cell_angle_gamma 90.000000
_cell_volume 1144.289810
_symmetry_space_group_name_H-M "C 2/C"
_symmetry_group_IT_number 15
_symmetry_cell_setting 'monoclinic'
loop_
_space_group_symop_operation_xyz
x,y,z
-x,y,1/2-z
-x,-y,-z
x,-y,1/2+z
1/2+x,1/2+y,z
1/2-x,1/2+y,1/2-z
1/2-x,1/2-y,-z
1/2+x,1/2-y,1/2+z
loop_
_atom_site_type_symbol
_atom_site_label
_atom_site_fract_x
_atom_site_fract_y
_atom_site_fract_z
Si Si1 0.742251 0.438942 0.587309
Si Si2 0.883271 0.327112 0.355434
Si Si3 0.126617 0.942922 0.805163
Si Si4 0.989517 0.365617 0.615341
O O1 0.718126 0.259038 0.608977
O O2 0.696998 0.505541 0.706392
O O3 0.675873 0.510843 0.452107
O O4 0.870286 0.447589 0.592526
O O5 0.877004 0.240726 0.222610
O O6 0.979161 0.273089 0.484609
O O7 0.917336 0.503774 0.359619
O O8 0.000000 0.983228 0.750000
O O9 0.000000 0.284383 0.750000
#
# Coordination Sequence:
#
# PCOD9293553 Si02
#       4
#     8   8   8   8
#     4  10  24  44  76 107 151 204 259 316 390 457
#     4   9  24  40  73 103 152 200 255 314 384 459
#     4  10  22  46  68 107 148 196 261 314 381 465
#     4  11  23  46  72 112 161 200 259 325 382 464
#
# _framework density 27.964945
#
# number of rings (size 3 to 8) (size 9 to 14) (size 15 to 20)
#    1.500    0.500    0.000    2.250    7.000    1.000 
#    0.000    7.500    0.000    0.000    0.000    0.000 
#    0.000    0.000    0.000    0.000    0.000    0.000 
#
# Total GULP energy -89160.946442 kJ/mol
# GULP energy per Si atom -5572.559153 kJ/mol
# Density = 2.790130 g / cm^3
# Si number density = 27.964945 Si / 1000 Ang^3
#
#
#
# Elastic Constant Matrix: (Units=GPa)
#
#
# Indices 1 2 3 4 5 6 
#
# 1 193.7032 19.1064 42.6726 0.0000 -11.0100 0.0000
# 2 19.1064 121.7823 18.4076 0.0000 -15.8338 0.0000
# 3 42.6726 18.4076 183.1568 0.0000 -7.9912 0.0000
# 4 0.0000 0.0000 0.0000 53.6570 0.0000 2.7369
# 5 -11.0100 -15.8338 -7.9912 0.0000 49.4781 0.0000
# 6 0.0000 0.0000 0.0000 2.7369 0.0000 23.0723
#
#
#
# Elastic Compliance Matrix: (Units=1/GPa)
#
#
# Indices 1 2 3 4 5 6 
#
# 1 0.005531 -0.000576 -0.001193 0.000000 0.000854 0.000000
# 2 -0.000576 0.008731 -0.000631 0.000000 0.002564 0.000000
# 3 -0.001193 -0.000631 0.005822 0.000000 0.000473 0.000000
# 4 0.000000 0.000000 0.000000 0.018750 0.000000 -0.002224
# 5 0.000854 0.002564 0.000473 0.000000 0.021298 0.000000
# 6 0.000000 0.000000 0.000000 -0.002224 0.000000 0.043606
#
#
# Mechanical properties :
#
#
# Convention : Reuss Voigt Hill
#
# Bulk Modulus (GPa) = 65.44029 73.22396 69.33212
# Shear Modulus (GPa) = 44.00128 53.13852 48.56990
#
# Velocity S-wave (km/s) = 3.97097 4.36384 4.17203
# Velocity P-wave (km/s) = 6.66907 7.18553 6.93211
#
# Compressibility (1/GPa) = 0.01528111
#
# Stress axis : x y z
#
# Youngs Moduli (GPa) = 180.80523 114.54035 171.76451
#
# Poissons Ratio (x) = 0.06602 0.20499
# Poissons Ratio (y) = 0.10421 0.10843
# Poissons Ratio (z) = 0.21578 0.07231
#
# Static dielectric constant tensor:
#      x y z
#    x 2.225800 0.000000 -0.056460 
#    y 0.000000 2.227140 0.000000 
#    z -0.056460 0.000000 2.426160 
# 
# From -- ./inp_files/94143.got.cif
#   From: 2010.05.17/outbox.cif.g08.bks.cpg/sg15_48_cif.got.tgz:94143.got - 2010.06.03 18:47:42.
