data_PCOD9293192
_publ_section_title
;
Structure prediction by ZEFSAII (Michael W. Deem and Ramdas Pophale) SiO2 
 PCOD9293192
Probable space group: C 2/C
;
_chemical_formula_sum "Si O2"
_cell_formula_units_Z 28
_cell_length_a 11.251782
_cell_length_b 9.635691
_cell_length_c 10.063658
_cell_angle_alpha 90.000000
_cell_angle_beta 119.935556
_cell_angle_gamma 90.000000
_cell_volume 945.523508
_symmetry_space_group_name_H-M "C 2/C"
_symmetry_group_IT_number 15
_symmetry_cell_setting 'monoclinic'
loop_
_space_group_symop_operation_xyz
x,y,z
-x,y,1/2-z
-x,-y,-z
x,-y,1/2+z
1/2+x,1/2+y,z
1/2-x,1/2+y,1/2-z
1/2-x,1/2-y,-z
1/2+x,1/2-y,1/2+z
loop_
_atom_site_type_symbol
_atom_site_label
_atom_site_fract_x
_atom_site_fract_y
_atom_site_fract_z
Si Si1 0.130314 0.361947 0.420912
Si Si2 0.792200 0.978205 0.790706
Si Si3 0.617550 0.806434 0.045982
Si Si4 0.500000 0.350946 0.250000
O O1 0.250000 0.250000 0.500000
O O2 0.434307 0.447886 0.327127
O O3 0.000000 0.338470 0.250000
O O4 0.040223 0.340785 0.505552
O O5 0.699572 0.051478 0.623267
O O6 0.824757 0.816689 0.827873
O O7 0.713853 0.024604 0.879188
O O8 0.895293 0.754328 0.109917
#
# Coordination Sequence:
#
# PCOD9293192 Si02
#       4
#     8   8   8   4
#     4  10  22  44  78 117 157 217 275 335 420 496
#     4  11  26  47  81 120 167 221 283 343 427 509
#     4  11  26  50  83 119 168 224 277 355 422 510
#     4  12  24  46  80 122 162 214 288 348 420 504
#
# _framework density 29.613223999999999
#
# number of rings (size 3 to 8) (size 9 to 14) (size 15 to 20)
#    0.000    1.143    2.857    1.714    6.000    0.000 
#    7.714    1.429    0.000    1.714    0.000    0.000 
#    0.000    0.000    0.000    0.000    0.000    0.000 
#
# Total GULP energy -78272.235430 kJ/mol
# GULP energy per Si atom -5590.873959 kJ/mol
# Density = 2.954582 g / cm^3
# Si number density = 29.613224 Si / 1000 Ang^3
#
#
#
# Elastic Constant Matrix: (Units=GPa)
#
#
# Indices 1 2 3 4 5 6 
#
# 1 190.8856 89.8317 49.4446 0.0000 -7.8699 0.0000
# 2 89.8317 146.4870 80.1284 0.0000 25.1885 0.0000
# 3 49.4446 80.1284 98.1737 0.0000 17.7219 0.0000
# 4 0.0000 0.0000 0.0000 54.7677 0.0000 14.2253
# 5 -7.8699 25.1885 17.7219 0.0000 70.5257 0.0000
# 6 0.0000 0.0000 0.0000 14.2253 0.0000 59.5228
#
#
#
# Elastic Compliance Matrix: (Units=1/GPa)
#
#
# Indices 1 2 3 4 5 6 
#
# 1 0.007841 -0.005152 -0.000246 0.000000 0.002777 0.000000
# 2 -0.005152 0.015982 -0.009759 0.000000 -0.003831 0.000000
# 3 -0.000246 -0.009759 0.018489 0.000000 -0.001188 0.000000
# 4 0.000000 0.000000 0.000000 0.019467 0.000000 -0.004652
# 5 0.002777 -0.003831 -0.001188 0.000000 0.016156 0.000000
# 6 0.000000 0.000000 0.000000 -0.004652 0.000000 0.017912
#
#
# Mechanical properties :
#
#
# Convention : Reuss Voigt Hill
#
# Bulk Modulus (GPa) = 83.32690 97.15064 90.23877
# Shear Modulus (GPa) = 38.41427 51.37268 44.89348
#
# Velocity S-wave (km/s) = 3.60557 4.16960 3.89780
# Velocity P-wave (km/s) = 6.74782 7.48722 7.12711
#
# Compressibility (1/GPa) = 0.01200093
#
# Stress axis : x y z
#
# Youngs Moduli (GPa) = 127.53094 62.56917 54.08605
#
# Poissons Ratio (x) = 0.32233 0.01329
# Poissons Ratio (y) = 0.65699 0.52780
# Poissons Ratio (z) = 0.03134 0.61058
#
# Static dielectric constant tensor:
#      x y z
#    x 2.305890 0.000000 -0.012580 
#    y 0.000000 -36.350820 0.000000 
#    z -0.012580 0.000000 2.349650 
# 
# From -- ./inp_files/236381.got.cif
#   From: 2010.05.17/outbox.cif.g08.bks.cpg/sg15_119_cif.got.tgz:236381.got - 2010.06.03 18:47:42.
