data_PCOD9293516
_publ_section_title
;
Structure prediction by ZEFSAII (Michael W. Deem and Ramdas Pophale) SiO2 
 PCOD9293516
Probable space group: C 2/C
;
_chemical_formula_sum "Si O2"
_cell_formula_units_Z 44
_cell_length_a 6.891560
_cell_length_b 12.899902
_cell_length_c 26.401105
_cell_angle_alpha 90.000000
_cell_angle_beta 104.801973
_cell_angle_gamma 90.000000
_cell_volume 2269.181600
_symmetry_space_group_name_H-M "C 2/C"
_symmetry_group_IT_number 15
_symmetry_cell_setting 'monoclinic'
loop_
_space_group_symop_operation_xyz
x,y,z
-x,y,1/2-z
-x,-y,-z
x,-y,1/2+z
1/2+x,1/2+y,z
1/2-x,1/2+y,1/2-z
1/2-x,1/2-y,-z
1/2+x,1/2-y,1/2+z
loop_
_atom_site_type_symbol
_atom_site_label
_atom_site_fract_x
_atom_site_fract_y
_atom_site_fract_z
Si Si1 0.299367 0.150074 0.340671
Si Si2 0.967596 0.517823 0.578293
Si Si3 0.570365 0.513628 0.200382
Si Si4 0.381284 0.372890 0.390308
Si Si5 0.756502 0.629891 0.983976
Si Si6 0.000000 0.603447 0.250000
O O1 0.343149 0.253788 0.374289
O O2 0.411590 0.160024 0.293882
O O3 0.389487 0.055674 0.379308
O O4 0.067354 0.116499 0.316867
O O5 0.828341 0.579711 0.606974
O O6 0.827068 0.442899 0.534696
O O7 0.087549 0.597150 0.550028
O O8 0.500000 0.470859 0.250000
O O9 0.537716 0.433460 0.153189
O O10 0.805950 0.539094 0.218877
O O11 0.537864 0.390016 0.446129
O O12 0.750000 0.750000 0.000000
#
# Coordination Sequence:
#
# PCOD9293516 Si02
#       6
#     8   8   8   8   8   4
#     4  11  23  42  65  99 127 168 216 261 321 387
#     4  11  24  43  65  96 134 167 220 265 315 385
#     4  10  23  44  65  94 132 165 214 269 321 384
#     4  12  24  41  70  95 128 178 213 259 327 384
#     4  11  24  44  66  96 133 174 213 269 324 378
#     4  10  22  46  66  90 136 164 208 280 316 376
#
# _framework density 19.390250999999999
#
# number of rings (size 3 to 8) (size 9 to 14) (size 15 to 20)
#    0.000    1.091    5.455    0.545    1.273    3.636 
#    4.909    0.000    0.000    0.000    0.000    0.000 
#    0.000    0.000    0.000    0.000    0.000    0.000 
#
# Total GULP energy -122787.837822 kJ/mol
# GULP energy per Si atom -5581.265356 kJ/mol
# Density = 1.934612 g / cm^3
# Si number density = 19.390251 Si / 1000 Ang^3
#
#
#
# Elastic Constant Matrix: (Units=GPa)
#
#
# Indices 1 2 3 4 5 6 
#
# 1 102.1625 52.3054 27.1132 0.0000 10.5444 0.0000
# 2 52.3054 89.2268 19.3702 0.0000 -7.1305 0.0000
# 3 27.1132 19.3702 71.1436 0.0000 7.8313 0.0000
# 4 0.0000 0.0000 0.0000 36.6533 0.0000 -1.4334
# 5 10.5444 -7.1305 7.8313 0.0000 42.1084 0.0000
# 6 0.0000 0.0000 0.0000 -1.4334 0.0000 29.4108
#
#
#
# Elastic Compliance Matrix: (Units=1/GPa)
#
#
# Indices 1 2 3 4 5 6 
#
# 1 0.015650 -0.008912 -0.003002 0.000000 -0.004870 0.000000
# 2 -0.008912 0.017289 -0.001918 0.000000 0.005516 0.000000
# 3 -0.003002 -0.001918 0.016003 0.000000 -0.002549 0.000000
# 4 0.000000 0.000000 0.000000 0.027335 0.000000 0.001332
# 5 -0.004870 0.005516 -0.002549 0.000000 0.026376 0.000000
# 6 0.000000 0.000000 0.000000 0.001332 0.000000 0.034066
#
#
# Mechanical properties :
#
#
# Convention : Reuss Voigt Hill
#
# Bulk Modulus (GPa) = 46.99591 51.12339 49.05965
# Shear Modulus (GPa) = 29.15874 32.55077 30.85476
#
# Velocity S-wave (km/s) = 3.88207 4.10166 3.99338
# Velocity P-wave (km/s) = 6.66209 6.98958 6.82780
#
# Compressibility (1/GPa) = 0.02127845
#
# Stress axis : x y z
#
# Youngs Moduli (GPa) = 63.89647 57.84107 62.48840
#
# Poissons Ratio (x) = 0.51547 0.18759
# Poissons Ratio (y) = 0.56943 0.11986
# Poissons Ratio (z) = 0.19181 0.11094
#
# Static dielectric constant tensor:
#      x y z
#    x 1.674010 0.000000 0.002630 
#    y 0.000000 1.635360 0.000000 
#    z 0.002630 0.000000 1.702340 
# 
# From -- ./inp_files/285459.got.cif
#   From: 2010.05.17/outbox.cif.g08.bks.cpg/sg15_143_cif.got.tgz:285459.got - 2010.06.03 18:47:42.
