data_PCOD9293166
_publ_section_title
;
Structure prediction by ZEFSAII (Michael W. Deem and Ramdas Pophale) SiO2 
 PCOD9293166
Probable space group: C 2/C
;
_chemical_formula_sum "Si O2"
_cell_formula_units_Z 36
_cell_length_a 13.685910
_cell_length_b 12.894658
_cell_length_c 14.295857
_cell_angle_alpha 90.000000
_cell_angle_beta 39.113062
_cell_angle_gamma 90.000000
_cell_volume 1591.555091
_symmetry_space_group_name_H-M "C 2/C"
_symmetry_group_IT_number 15
_symmetry_cell_setting 'monoclinic'
loop_
_space_group_symop_operation_xyz
x,y,z
-x,y,1/2-z
-x,-y,-z
x,-y,1/2+z
1/2+x,1/2+y,z
1/2-x,1/2+y,1/2-z
1/2-x,1/2-y,-z
1/2+x,1/2-y,1/2+z
loop_
_atom_site_type_symbol
_atom_site_label
_atom_site_fract_x
_atom_site_fract_y
_atom_site_fract_z
Si Si1 0.000000 0.837602 0.750000
Si Si2 0.441427 0.137129 0.695499
Si Si3 0.209649 0.459479 0.890636
Si Si4 0.177509 0.140024 0.581236
Si Si5 0.821370 0.992669 0.609290
O O1 0.011459 0.756909 0.827852
O O2 0.154226 0.904313 0.648363
O O3 0.500000 0.088131 0.750000
O O4 0.544720 0.085653 0.540349
O O5 0.263021 0.104991 0.828189
O O6 0.229659 0.578993 0.906387
O O7 0.243658 0.439359 0.757106
O O8 0.250000 0.250000 0.500000
O O9 0.191380 0.069889 0.477265
O O10 0.000000 0.148492 0.750000
O O11 0.000000 0.000000 0.500000
#
# Coordination Sequence:
#
# PCOD9293166 Si02
#       5
#     4   8   8   8   8
#     4  10  22  44  76 102 146 188 240 298 378 416
#     4  10  24  42  74 104 146 186 240 300 376 428
#     4  12  23  46  73 106 146 190 244 307 355 439
#     4  12  27  49  72 103 152 197 238 300 372 436
#     4  12  25  47  76 107 143 193 249 301 366 433
#
# _framework density 22.619387
#
# number of rings (size 3 to 8) (size 9 to 14) (size 15 to 20)
#    0.667    0.000    5.556    1.333    3.111    1.778 
#    4.000    0.000    0.000    0.000    0.000    0.000 
#    0.000    0.000    0.000    0.000    0.000    0.000 
#
# Total GULP energy -100534.726970 kJ/mol
# GULP energy per Si atom -5585.262609 kJ/mol
# Density = 2.256790 g / cm^3
# Si number density = 22.619387 Si / 1000 Ang^3
#
#
#
# Elastic Constant Matrix: (Units=GPa)
#
#
# Indices 1 2 3 4 5 6 
#
# 1 78.1138 17.5121 39.5275 0.0000 1.9225 0.0000
# 2 17.5121 96.0105 45.4715 0.0000 3.8877 0.0000
# 3 39.5275 45.4715 173.0215 0.0000 17.9984 0.0000
# 4 0.0000 0.0000 0.0000 39.1153 0.0000 -7.6667
# 5 1.9225 3.8877 17.9984 0.0000 50.3131 0.0000
# 6 0.0000 0.0000 0.0000 -7.6667 0.0000 23.5869
#
#
#
# Elastic Compliance Matrix: (Units=1/GPa)
#
#
# Indices 1 2 3 4 5 6 
#
# 1 0.014623 -0.001233 -0.003083 0.000000 0.000639 0.000000
# 2 -0.001233 0.012002 -0.002889 0.000000 0.000153 0.000000
# 3 -0.003083 -0.002889 0.007486 0.000000 -0.002337 0.000000
# 4 0.000000 0.000000 0.000000 0.027305 0.000000 0.008875
# 5 0.000639 0.000153 -0.002337 0.000000 0.020675 0.000000
# 6 0.000000 0.000000 0.000000 0.008875 0.000000 0.045281
#
#
# Mechanical properties :
#
#
# Convention : Reuss Voigt Hill
#
# Bulk Modulus (GPa) = 50.75608 61.35200 56.05404
# Shear Modulus (GPa) = 33.70430 38.91204 36.30817
#
# Velocity S-wave (km/s) = 3.86432 4.15214 4.01082
# Velocity P-wave (km/s) = 6.51142 7.08305 6.80324
#
# Compressibility (1/GPa) = 0.01970207
#
# Stress axis : x y z
#
# Youngs Moduli (GPa) = 68.38719 83.31767 133.57868
#
# Poissons Ratio (x) = 0.10272 0.41184
# Poissons Ratio (y) = 0.08431 0.38585
# Poissons Ratio (z) = 0.21085 0.24067
#
# Static dielectric constant tensor:
#      x y z
#    x 1.878230 0.000000 -0.006510 
#    y 0.000000 1.872420 0.000000 
#    z -0.006510 0.000000 1.722230 
# 
# From -- ./inp_files/152397.got.cif
#   From: 2010.05.17/outbox.cif.g08.bks.cpg/sg15_77_cif.got.tgz:152397.got - 2010.06.03 18:47:42.
