data_PCOD9293137
_publ_section_title
;
Structure prediction by ZEFSAII (Michael W. Deem and Ramdas Pophale) SiO2 
 PCOD9293137
Probable space group: C 2/C
;
_chemical_formula_sum "Si O2"
_cell_formula_units_Z 48
_cell_length_a 9.135418
_cell_length_b 13.300986
_cell_length_c 22.149178
_cell_angle_alpha 90.000000
_cell_angle_beta 45.139774
_cell_angle_gamma 90.000000
_cell_volume 1907.707397
_symmetry_space_group_name_H-M "C 2/C"
_symmetry_group_IT_number 15
_symmetry_cell_setting 'monoclinic'
loop_
_space_group_symop_operation_xyz
x,y,z
-x,y,1/2-z
-x,-y,-z
x,-y,1/2+z
1/2+x,1/2+y,z
1/2-x,1/2+y,1/2-z
1/2-x,1/2-y,-z
1/2+x,1/2-y,1/2+z
loop_
_atom_site_type_symbol
_atom_site_label
_atom_site_fract_x
_atom_site_fract_y
_atom_site_fract_z
Si Si1 0.190762 0.768676 0.423318
Si Si2 0.278037 0.311746 0.284534
Si Si3 0.721073 0.050781 0.684249
Si Si4 0.924387 0.891146 0.943077
Si Si5 0.987673 0.465627 0.074146
Si Si6 0.258869 0.643434 0.298213
O O1 0.122824 0.710098 0.384148
O O2 0.310205 0.862218 0.357604
O O3 0.025962 0.821977 0.513856
O O4 0.258940 0.701764 0.234671
O O5 0.500000 0.312513 0.250000
O O6 0.274633 0.385778 0.228072
O O7 0.116934 0.357775 0.380108
O O8 0.500000 0.997779 0.750000
O O9 0.899406 0.969568 0.623769
O O10 0.727638 0.958591 0.019897
O O11 0.821714 0.813249 0.924067
O O12 0.849410 0.538313 0.156122
O O13 0.000000 0.500000 0.000000
O O14 0.500000 0.639546 0.250000
#
# Coordination Sequence:
#
# PCOD9293137 Si02
#       6
#     8   8   8   8   8   8
#     4  10  22  44  74 108 152 204 255 325 401 476
#     4  11  25  48  74 113 156 204 270 324 388 487
#     4  11  24  48  80 110 157 209 267 330 407 485
#     4  11  23  43  77 113 157 206 262 326 411 480
#     4  12  24  45  74 115 152 207 262 321 403 481
#     4  11  24  47  78 107 154 211 256 327 401 466
#
# _framework density 25.161092
#
# number of rings (size 3 to 8) (size 9 to 14) (size 15 to 20)
#    0.000    1.000    1.667    6.000    2.333    0.000 
#    3.000    7.500    3.667    4.000    0.000    0.000 
#    0.000    0.000    0.000    0.000    0.000    0.000 
#
# Total GULP energy -134035.744039 kJ/mol
# GULP energy per Si atom -5584.822668 kJ/mol
# Density = 2.510382 g / cm^3
# Si number density = 25.161092 Si / 1000 Ang^3
#
#
#
# Elastic Constant Matrix: (Units=GPa)
#
#
# Indices 1 2 3 4 5 6 
#
# 1 125.9902 51.5321 39.7118 -0.0002 -25.4052 0.0003
# 2 51.5321 150.3304 72.5328 0.0000 -15.4610 0.0001
# 3 39.7118 72.5328 90.9144 0.0002 -4.9116 0.0000
# 4 -0.0002 0.0000 0.0002 62.0854 0.0000 -2.9996
# 5 -25.4052 -15.4610 -4.9116 0.0000 49.6303 -0.0001
# 6 0.0003 0.0001 0.0000 -2.9996 -0.0001 31.8586
#
#
#
# Elastic Compliance Matrix: (Units=1/GPa)
#
#
# Indices 1 2 3 4 5 6 
#
# 1 0.010485 -0.001683 -0.002991 0.000000 0.004547 0.000000
# 2 -0.001683 0.011411 -0.008267 0.000000 0.001875 0.000000
# 3 -0.002991 -0.008267 0.018780 0.000000 -0.002248 0.000000
# 4 0.000000 0.000000 0.000000 0.016180 0.000000 0.001523
# 5 0.004547 0.001875 -0.002248 0.000000 0.022838 0.000000
# 6 0.000000 0.000000 0.000000 0.001523 0.000000 0.031532
#
#
# Mechanical properties :
#
#
# Convention : Reuss Voigt Hill
#
# Bulk Modulus (GPa) = 67.60134 77.19871 72.40002
# Shear Modulus (GPa) = 35.20108 42.27874 38.73991
#
# Velocity S-wave (km/s) = 3.74442 4.10362 3.92813
# Velocity P-wave (km/s) = 6.75425 7.29392 7.02927
#
# Compressibility (1/GPa) = 0.01479261
#
# Stress axis : x y z
#
# Youngs Moduli (GPa) = 95.37078 87.63782 53.24790
#
# Poissons Ratio (x) = 0.14752 0.15929
# Poissons Ratio (y) = 0.16054 0.44020
# Poissons Ratio (z) = 0.28529 0.72450
#
# Static dielectric constant tensor:
#      x y z
#    x 1.955060 0.000000 0.049940 
#    y 0.000000 2.051800 0.000000 
#    z 0.049940 0.000000 2.083090 
# 
# From -- ./inp_files/239235.got.cif
#   From: 2010.05.17/outbox.cif.g08.bks.cpg/sg15_120_cif.got.tgz:239235.got - 2010.06.03 18:47:42.
