data_PCOD9293588
_publ_section_title
;
Structure prediction by ZEFSAII (Michael W. Deem and Ramdas Pophale) SiO2 
 PCOD9293588
Probable space group: C 2/C
;
_chemical_formula_sum "Si O2"
_cell_formula_units_Z 44
_cell_length_a 25.960634
_cell_length_b 11.315671
_cell_length_c 14.878580
_cell_angle_alpha 90.000000
_cell_angle_beta 150.811335
_cell_angle_gamma 90.000000
_cell_volume 2131.563286
_symmetry_space_group_name_H-M "C 2/C"
_symmetry_group_IT_number 15
_symmetry_cell_setting 'monoclinic'
loop_
_space_group_symop_operation_xyz
x,y,z
-x,y,1/2-z
-x,-y,-z
x,-y,1/2+z
1/2+x,1/2+y,z
1/2-x,1/2+y,1/2-z
1/2-x,1/2-y,-z
1/2+x,1/2-y,1/2+z
loop_
_atom_site_type_symbol
_atom_site_label
_atom_site_fract_x
_atom_site_fract_y
_atom_site_fract_z
Si Si1 0.136587 0.799309 0.806250
Si Si2 0.374147 0.486466 0.314060
Si Si3 0.500000 0.808162 0.250000
Si Si4 0.544967 0.119213 0.519345
Si Si5 0.315058 0.939768 0.852749
Si Si6 0.831909 0.276746 0.703083
O O1 0.156044 0.937203 0.818984
O O2 0.091177 0.720330 0.654787
O O3 0.055833 0.772965 0.762020
O O4 0.250000 0.750000 0.000000
O O5 0.500000 0.500000 0.500000
O O6 0.299330 0.545931 0.275591
O O7 0.352322 0.348974 0.280062
O O8 0.594402 0.881484 0.444086
O O9 0.438741 0.175496 0.318438
O O10 0.500000 0.000000 0.500000
O O11 0.636359 0.068579 0.595806
O O12 0.305498 0.866076 0.744964
O O13 0.750000 0.250000 0.500000
#
# Coordination Sequence:
#
# PCOD9293588 Si02
#       6
#     8   8   4   8   8   8
#     4  12  25  42  73 103 140 182 235 295 346 416
#     4  12  26  46  68 103 147 177 234 301 350 408
#     4  12  22  46  72 106 130 190 248 276 350 430
#     4  10  22  46  69  98 138 185 234 280 340 431
#     4  11  26  43  78 100 138 193 239 283 350 433
#     4  11  26  47  69 107 146 184 233 292 359 421
#
# _framework density 20.642126999999999
#
# number of rings (size 3 to 8) (size 9 to 14) (size 15 to 20)
#    0.000    0.727    7.273    0.000   10.182    1.455 
#    0.000    1.818    0.000    0.000    0.000    0.000 
#    0.000    0.000    0.000    0.000    0.000    0.000 
#
# Total GULP energy -122647.893181 kJ/mol
# GULP energy per Si atom -5574.904236 kJ/mol
# Density = 2.059514 g / cm^3
# Si number density = 20.642127 Si / 1000 Ang^3
#
#
#
# Elastic Constant Matrix: (Units=GPa)
#
#
# Indices 1 2 3 4 5 6 
#
# 1 147.6713 41.8411 44.1049 0.0000 28.2085 0.0000
# 2 41.8411 85.5160 20.4029 0.0000 8.0890 0.0000
# 3 44.1049 20.4029 136.4750 0.0000 17.3884 0.0000
# 4 0.0000 0.0000 0.0000 34.3934 0.0000 6.5389
# 5 28.2085 8.0890 17.3884 0.0000 35.1327 0.0000
# 6 0.0000 0.0000 0.0000 6.5389 0.0000 28.1143
#
#
#
# Elastic Compliance Matrix: (Units=1/GPa)
#
#
# Indices 1 2 3 4 5 6 
#
# 1 0.009455 -0.003650 -0.001761 0.000000 -0.005880 0.000000
# 2 -0.003650 0.013671 -0.000893 0.000000 0.000225 0.000000
# 3 -0.001761 -0.000893 0.008350 0.000000 -0.002513 0.000000
# 4 0.000000 0.000000 0.000000 0.030420 0.000000 -0.007075
# 5 -0.005880 0.000225 -0.002513 0.000000 0.034377 0.000000
# 6 0.000000 0.000000 0.000000 -0.007075 0.000000 0.037215
#
#
# Mechanical properties :
#
#
# Convention : Reuss Voigt Hill
#
# Bulk Modulus (GPa) = 52.99646 64.70668 58.85157
# Shear Modulus (GPa) = 32.81160 37.08231 34.94696
#
# Velocity S-wave (km/s) = 3.99124 4.24304 4.11906
# Velocity P-wave (km/s) = 6.85344 7.44443 7.15504
#
# Compressibility (1/GPa) = 0.01886919
#
# Stress axis : x y z
#
# Youngs Moduli (GPa) = 105.76413 73.14594 119.75875
#
# Poissons Ratio (x) = 0.26697 0.21087
# Poissons Ratio (y) = 0.38602 0.10694
# Poissons Ratio (z) = 0.18623 0.06532
#
# Static dielectric constant tensor:
#      x y z
#    x 1.760920 0.000000 0.000640 
#    y 0.000000 1.760490 0.000000 
#    z 0.000640 0.000000 1.735950 
# 
# From -- ./inp_files/177677.got.cif
#   From: 2010.05.17/outbox.cif.g08.bks.cpg/sg15_89_cif.got.tgz:177677.got - 2010.06.03 18:47:42.
