data_PCOD9293888
_publ_section_title
;
Structure prediction by ZEFSAII (Michael W. Deem and Ramdas Pophale) SiO2 
 PCOD9293888
Probable space group: C 2/C
;
_chemical_formula_sum "Si O2"
_cell_formula_units_Z 36
_cell_length_a 22.832003
_cell_length_b 8.247456
_cell_length_c 19.957517
_cell_angle_alpha 90.000000
_cell_angle_beta 21.651120
_cell_angle_gamma 90.000000
_cell_volume 1386.572903
_symmetry_space_group_name_H-M "C 2/C"
_symmetry_group_IT_number 15
_symmetry_cell_setting 'monoclinic'
loop_
_space_group_symop_operation_xyz
x,y,z
-x,y,1/2-z
-x,-y,-z
x,-y,1/2+z
1/2+x,1/2+y,z
1/2-x,1/2+y,1/2-z
1/2-x,1/2-y,-z
1/2+x,1/2-y,1/2+z
loop_
_atom_site_type_symbol
_atom_site_label
_atom_site_fract_x
_atom_site_fract_y
_atom_site_fract_z
Si Si1 0.868214 0.112410 0.175560
Si Si2 0.098796 0.360714 0.474831
Si Si3 0.213119 0.261568 0.960934
Si Si4 0.500000 0.983044 0.750000
Si Si5 0.233886 0.397922 0.613196
O O1 0.864482 0.261399 0.130555
O O2 0.862325 0.175927 0.258248
O O3 0.704211 0.016910 0.352142
O O4 0.000000 0.000000 0.000000
O O5 0.154952 0.248196 0.478807
O O6 0.913542 0.390678 0.679129
O O7 0.183150 0.074503 0.971411
O O8 0.250000 0.250000 0.000000
O O9 0.076815 0.399493 0.111450
O O10 0.642494 0.891393 0.638016
#
# Coordination Sequence:
#
# PCOD9293888 Si02
#       5
#     8   8   8   4   8
#     4  12  26  45  73 111 148 196 252 314 388 448
#     4  12  26  45  72 109 151 191 252 314 374 455
#     4  10  24  46  75 100 147 199 249 308 373 458
#     4  10  22  50  74 106 146 194 258 302 382 456
#     4  11  25  47  72 109 146 198 245 310 381 451
#
# _framework density 25.963294000000001
#
# number of rings (size 3 to 8) (size 9 to 14) (size 15 to 20)
#    0.000    0.889    4.444    1.333    3.111    6.222 
#    0.000    0.000    0.000    0.000    0.000    0.000 
#    0.000    0.000    0.000    0.000    0.000    0.000 
#
# Total GULP energy -100600.777883 kJ/mol
# GULP energy per Si atom -5588.932105 kJ/mol
# Density = 2.590420 g / cm^3
# Si number density = 25.963294 Si / 1000 Ang^3
#
#
#
# Elastic Constant Matrix: (Units=GPa)
#
#
# Indices 1 2 3 4 5 6 
#
# 1 117.2723 29.8714 56.0323 -0.0001 30.9948 0.0000
# 2 29.8714 72.6497 43.3846 0.0000 9.6005 0.0000
# 3 56.0323 43.3846 101.8983 0.0001 31.3037 0.0000
# 4 -0.0001 0.0000 0.0001 63.9827 0.0001 4.6114
# 5 30.9948 9.6005 31.3037 0.0001 53.6111 0.0000
# 6 0.0000 0.0000 0.0000 4.6114 0.0000 50.5180
#
#
#
# Elastic Compliance Matrix: (Units=1/GPa)
#
#
# Indices 1 2 3 4 5 6 
#
# 1 0.012317 -0.001643 -0.004846 0.000000 -0.003998 0.000000
# 2 -0.001643 0.018785 -0.007742 0.000000 0.002106 0.000000
# 3 -0.004846 -0.007742 0.017655 0.000000 -0.006121 0.000000
# 4 0.000000 0.000000 0.000000 0.015733 0.000000 -0.001436
# 5 -0.003998 0.002106 -0.006121 0.000000 0.024161 0.000000
# 6 0.000000 0.000000 0.000000 -0.001436 0.000000 0.019926
#
#
# Mechanical properties :
#
#
# Convention : Reuss Voigt Hill
#
# Bulk Modulus (GPa) = 49.26812 61.15523 55.21167
# Shear Modulus (GPa) = 34.76993 44.45781 39.61387
#
# Velocity S-wave (km/s) = 3.66347 4.14252 3.91034
# Velocity P-wave (km/s) = 6.07552 6.81809 6.45749
#
# Compressibility (1/GPa) = 0.02029710
#
# Stress axis : x y z
#
# Youngs Moduli (GPa) = 81.18613 53.23422 56.64180
#
# Poissons Ratio (x) = 0.08744 0.27447
# Poissons Ratio (y) = 0.13335 0.43851
# Poissons Ratio (z) = 0.39341 0.41213
#
# Static dielectric constant tensor:
#      x y z
#    x 2.108820 0.000000 0.018770 
#    y 0.000000 2.235120 0.000000 
#    z 0.018770 0.000000 1.958760 
# 
# From -- ./inp_files/214202.got.cif
#   From: 2010.05.17/outbox.cif.g08.bks.cpg/sg15_108_cif.got.tgz:214202.got - 2010.06.03 18:47:42.
