data_PCOD9293701
_publ_section_title
;
Structure prediction by ZEFSAII (Michael W. Deem and Ramdas Pophale) SiO2 
 PCOD9293701
Probable space group: C 2/C
;
_chemical_formula_sum "Si O2"
_cell_formula_units_Z 36
_cell_length_a 17.070184
_cell_length_b 7.154002
_cell_length_c 16.944053
_cell_angle_alpha 90.000000
_cell_angle_beta 56.121349
_cell_angle_gamma 90.000000
_cell_volume 1717.899597
_symmetry_space_group_name_H-M "C 2/C"
_symmetry_group_IT_number 15
_symmetry_cell_setting 'monoclinic'
loop_
_space_group_symop_operation_xyz
x,y,z
-x,y,1/2-z
-x,-y,-z
x,-y,1/2+z
1/2+x,1/2+y,z
1/2-x,1/2+y,1/2-z
1/2-x,1/2-y,-z
1/2+x,1/2-y,1/2+z
loop_
_atom_site_type_symbol
_atom_site_label
_atom_site_fract_x
_atom_site_fract_y
_atom_site_fract_z
Si Si1 0.000000 0.945317 0.750000
Si Si2 0.911397 0.320013 0.747447
Si Si3 0.645032 0.321196 0.534875
Si Si4 0.784982 0.809692 0.566370
Si Si5 0.893591 0.533422 0.080556
O O1 0.931313 0.094530 0.742281
O O2 0.932193 0.832879 0.849879
O O3 0.812468 0.375206 0.841061
O O4 0.898774 0.394363 0.666724
O O5 0.000000 0.395065 0.750000
O O6 0.750000 0.250000 0.500000
O O7 0.644116 0.526366 0.495968
O O8 0.630254 0.188271 0.469661
O O9 0.750000 0.750000 0.500000
O O10 0.669642 0.852017 0.405287
O O11 0.000000 0.500000 0.000000
#
# Coordination Sequence:
#
# PCOD9293701 Si02
#       5
#     4   8   8   8   8
#     4  10  22  46  74 106 142 192 248 298 362 440
#     4  10  24  46  74 102 146 194 241 303 364 429
#     4  12  26  46  78 106 149 197 242 301 374 434
#     4  12  23  49  74 106 150 186 247 307 360 442
#     4  12  27  46  73 111 142 196 243 299 369 437
#
# _framework density 20.955822000000001
#
# number of rings (size 3 to 8) (size 9 to 14) (size 15 to 20)
#    0.667    0.000    4.444    2.667    3.111    5.333 
#    0.000    0.000    0.000    0.000    0.000    0.000 
#    0.000    0.000    0.000    0.000    0.000    0.000 
#
# Total GULP energy -100247.968961 kJ/mol
# GULP energy per Si atom -5569.331609 kJ/mol
# Density = 2.090813 g / cm^3
# Si number density = 20.955822 Si / 1000 Ang^3
#
#
#
# Elastic Constant Matrix: (Units=GPa)
#
#
# Indices 1 2 3 4 5 6 
#
# 1 118.6707 30.0757 67.8398 -0.0001 30.6874 0.0000
# 2 30.0757 77.6686 35.2324 -0.0002 21.2906 0.0000
# 3 67.8398 35.2324 218.9573 0.0001 8.0301 0.0001
# 4 -0.0001 -0.0002 0.0001 -69.2641 0.0001 -47.5858
# 5 30.6874 21.2906 8.0301 0.0001 45.2197 0.0001
# 6 0.0000 0.0000 0.0001 -47.5858 0.0001 11.9965
#
#
#
# Elastic Compliance Matrix: (Units=1/GPa)
#
#
# Indices 1 2 3 4 5 6 
#
# 1 0.012617 -0.001321 -0.003428 0.000000 -0.007331 0.000000
# 2 -0.001321 0.015987 -0.001933 0.000000 -0.006287 0.000000
# 3 -0.003428 -0.001933 0.005860 0.000000 0.002195 0.000000
# 4 0.000000 0.000000 0.000000 -0.003876 0.000000 -0.015373
# 5 -0.007331 -0.006287 0.002195 0.000000 0.029660 0.000000
# 6 0.000000 0.000000 0.000000 -0.015373 0.000000 0.022377
#
#
# Mechanical properties :
#
#
# Convention : Reuss Voigt Hill
#
# Bulk Modulus (GPa) = 47.39166 75.73249 61.56208
# Shear Modulus (GPa) = 48.53402 16.40035 32.46718
#
# Velocity S-wave (km/s) = 4.81772 2.80056 3.94040
# Velocity P-wave (km/s) = 7.32198 6.83192 7.08119
#
# Compressibility (1/GPa) = 0.02110076
#
# Stress axis : x y z
#
# Youngs Moduli (GPa) = 79.25948 62.55112 170.66190
#
# Poissons Ratio (x) = 0.08263 0.58497
# Poissons Ratio (y) = 0.10471 0.32982
# Poissons Ratio (z) = 0.27167 0.12088
#
# Static dielectric constant tensor:
#      x y z
#    x 1.776960 0.000000 0.007780 
#    y 0.000000 1.773190 0.000000 
#    z 0.007780 0.000000 1.660900 
# 
# From -- ./inp_files/150188.got.cif
#   From: 2010.05.17/outbox.cif.g08.bks.cpg/sg15_76_cif.got.tgz:150188.got - 2010.06.03 18:47:42.
