data_PCOD9293611
_publ_section_title
;
Structure prediction by ZEFSAII (Michael W. Deem and Ramdas Pophale) SiO2 
 PCOD9293611
Probable space group: C 2/C
;
_chemical_formula_sum "Si O2"
_cell_formula_units_Z 52
_cell_length_a 11.052793
_cell_length_b 8.608360
_cell_length_c 26.044351
_cell_angle_alpha 90.000000
_cell_angle_beta 64.535344
_cell_angle_gamma 90.000000
_cell_volume 2237.288175
_symmetry_space_group_name_H-M "C 2/C"
_symmetry_group_IT_number 15
_symmetry_cell_setting 'monoclinic'
loop_
_space_group_symop_operation_xyz
x,y,z
-x,y,1/2-z
-x,-y,-z
x,-y,1/2+z
1/2+x,1/2+y,z
1/2-x,1/2+y,1/2-z
1/2-x,1/2-y,-z
1/2+x,1/2-y,1/2+z
loop_
_atom_site_type_symbol
_atom_site_label
_atom_site_fract_x
_atom_site_fract_y
_atom_site_fract_z
Si Si1 0.551574 0.022854 0.352540
Si Si2 0.500000 0.108128 0.250000
Si Si3 0.771797 0.069595 0.989093
Si Si4 0.100589 0.329766 0.032131
Si Si5 0.984885 0.890605 0.129162
Si Si6 0.320714 0.350262 0.323796
Si Si7 0.851532 0.114386 0.082656
O O1 0.502339 0.016221 0.302648
O O2 0.541013 0.205398 0.370598
O O3 0.462803 0.908549 0.404466
O O4 0.705341 0.965937 0.327503
O O5 0.372096 0.224381 0.273577
O O6 0.802530 0.021192 0.042193
O O7 0.641028 0.982459 0.992127
O O8 0.750000 0.250000 0.000000
O O9 0.896628 0.053458 0.929885
O O10 0.985758 0.206400 0.040406
O O11 0.250000 0.250000 0.000000
O O12 0.046515 0.922400 0.174170
O O13 0.868951 0.999968 0.128150
O O14 0.253320 0.245433 0.380985
#
# Coordination Sequence:
#
# PCOD9293611 Si02
#       7
#     8   4   8   8   8   8   8
#     4  10  23  43  69  95 127 172 216 275 339 393
#     4  10  22  46  70  90 124 164 220 284 336 396
#     4  12  21  39  60  89 135 182 211 251 309 380
#     4  11  23  38  62  99 138 173 215 264 317 400
#     4  11  22  39  62  92 129 169 212 257 315 387
#     4  10  23  43  65  92 123 159 215 276 327 384
#     4  11  24  39  62  96 131 174 218 259 320 385
#
# _framework density 23.242422999999999
#
# number of rings (size 3 to 8) (size 9 to 14) (size 15 to 20)
#    0.000    1.231    4.615    1.385    0.000    5.538 
#    0.000    3.077    0.000    1.846    0.000    0.000 
#    0.000    0.000    0.000    0.000    0.000    0.000 
#
# Total GULP energy -144977.430439 kJ/mol
# GULP energy per Si atom -5576.055017 kJ/mol
# Density = 2.318952 g / cm^3
# Si number density = 23.242423 Si / 1000 Ang^3
#
#
#
# Elastic Constant Matrix: (Units=GPa)
#
#
# Indices 1 2 3 4 5 6 
#
# 1 108.9395 54.9484 15.5846 0.0000 -0.6123 0.0000
# 2 54.9484 80.7955 0.4984 0.0000 3.3102 0.0000
# 3 15.5846 0.4984 55.4092 0.0000 -1.7692 0.0000
# 4 0.0000 0.0000 0.0000 36.7415 0.0000 -6.8005
# 5 -0.6123 3.3102 -1.7692 0.0000 38.5549 0.0000
# 6 0.0000 0.0000 0.0000 -6.8005 0.0000 48.2418
#
#
#
# Elastic Compliance Matrix: (Units=1/GPa)
#
#
# Indices 1 2 3 4 5 6 
#
# 1 0.014875 -0.010129 -0.004063 0.000000 0.000919 0.000000
# 2 -0.010129 0.019319 0.002621 0.000000 -0.001699 0.000000
# 3 -0.004063 0.002621 0.019186 0.000000 0.000591 0.000000
# 4 0.000000 0.000000 0.000000 0.027946 0.000000 0.003939
# 5 0.000919 -0.001699 0.000591 0.000000 0.026125 0.000000
# 6 0.000000 0.000000 0.000000 0.003939 0.000000 0.021284
#
#
# Mechanical properties :
#
#
# Convention : Reuss Voigt Hill
#
# Bulk Modulus (GPa) = 33.07220 43.02299 38.04759
# Shear Modulus (GPa) = 30.87258 36.31517 33.59388
#
# Velocity S-wave (km/s) = 3.64852 3.95707 3.80593
# Velocity P-wave (km/s) = 5.65765 6.27922 5.97653
#
# Compressibility (1/GPa) = 0.03023688
#
# Stress axis : x y z
#
# Youngs Moduli (GPa) = 67.22796 51.76280 52.12215
#
# Poissons Ratio (x) = 0.52430 0.21179
# Poissons Ratio (y) = 0.68094 -0.13660
# Poissons Ratio (z) = 0.27317 -0.13566
#
# Static dielectric constant tensor:
#      x y z
#    x 1.967980 0.000000 0.006000 
#    y 0.000000 2.007860 0.000000 
#    z 0.006000 0.000000 1.910210 
# 
# From -- ./inp_files/291469.got.cif
#   From: 2010.05.17/outbox.cif.g08.bks.cpg/sg15_146_cif.got.tgz:291469.got - 2010.06.03 18:47:42.
