data_PCOD9293706
_publ_section_title
;
Structure prediction by ZEFSAII (Michael W. Deem and Ramdas Pophale) SiO2 
 PCOD9293706
Probable space group: C 2/C
;
_chemical_formula_sum "Si O2"
_cell_formula_units_Z 60
_cell_length_a 20.139785
_cell_length_b 8.861997
_cell_length_c 25.699739
_cell_angle_alpha 90.000000
_cell_angle_beta 148.943186
_cell_angle_gamma 90.000000
_cell_volume 2366.303157
_symmetry_space_group_name_H-M "C 2/C"
_symmetry_group_IT_number 15
_symmetry_cell_setting 'monoclinic'
loop_
_space_group_symop_operation_xyz
x,y,z
-x,y,1/2-z
-x,-y,-z
x,-y,1/2+z
1/2+x,1/2+y,z
1/2-x,1/2+y,1/2-z
1/2-x,1/2-y,-z
1/2+x,1/2-y,1/2+z
loop_
_atom_site_type_symbol
_atom_site_label
_atom_site_fract_x
_atom_site_fract_y
_atom_site_fract_z
Si Si1 0.201423 0.123946 0.543878
Si Si2 0.000000 0.696208 0.250000
Si Si3 0.466729 0.152157 0.380729
Si Si4 0.428848 0.579860 0.618722
Si Si5 0.464247 0.159737 0.869513
Si Si6 0.361589 0.097655 0.913345
Si Si7 0.154241 0.846777 0.799202
Si Si8 0.780844 0.604386 0.173553
O O1 0.315568 0.246544 0.628923
O O2 0.071720 0.217811 0.452007
O O3 0.189962 0.008580 0.487465
O O4 0.193519 0.025009 0.591378
O O5 0.088617 0.802886 0.346001
O O6 0.089887 0.596889 0.274049
O O7 0.508975 0.310894 0.384443
O O8 0.504679 0.131077 0.466207
O O9 0.323967 0.116388 0.262569
O O10 0.534016 0.999494 0.403691
O O11 0.533985 0.461093 0.711926
O O12 0.384894 0.131803 0.868785
O O13 0.373564 0.222428 0.763725
O O14 0.275987 0.233858 0.877379
O O15 0.279676 0.948971 0.871720
#
# Coordination Sequence:
#
# PCOD9293706 Si02
#       8
#     8   4   8   8   8   8   8   8
#     4  11  23  43  64 100 137 172 207 274 336 376
#     4  10  22  46  74  94 122 168 234 268 322 408
#     4  11  21  42  63  95 128 170 226 258 314 395
#     4  10  23  44  70  96 128 172 228 271 321 407
#     4  11  26  37  66  98 137 175 220 264 322 401
#     4  12  24  41  65  95 134 181 219 265 322 395
#     4  11  23  41  64  96 142 173 215 273 334 375
#     4  11  24  44  69  92 132 171 218 280 321 392
#
# _framework density 25.356006000000001
#
# number of rings (size 3 to 8) (size 9 to 14) (size 15 to 20)
#    0.000    1.067    6.667    0.400    1.867    1.067 
#    0.000    1.333    0.000    0.000    0.000    0.000 
#    0.000    0.000    0.000    0.000    0.000    0.000 
#
# Total GULP energy -167418.556049 kJ/mol
# GULP energy per Si atom -5580.618535 kJ/mol
# Density = 2.529829 g / cm^3
# Si number density = 25.356006 Si / 1000 Ang^3
#
#
#
# Elastic Constant Matrix: (Units=GPa)
#
#
# Indices 1 2 3 4 5 6 
#
# 1 32.2826 7.8999 11.0539 0.0000 -5.8345 0.0000
# 2 7.8999 123.2937 49.7501 0.0000 -6.5647 0.0000
# 3 11.0539 49.7501 163.7645 -0.0001 -28.1116 -0.0001
# 4 0.0000 0.0000 -0.0001 67.7329 -0.0001 -16.9155
# 5 -5.8345 -6.5647 -28.1116 -0.0001 25.5068 0.0000
# 6 0.0000 0.0000 -0.0001 -16.9155 0.0000 18.8515
#
#
#
# Elastic Compliance Matrix: (Units=1/GPa)
#
#
# Indices 1 2 3 4 5 6 
#
# 1 0.032719 -0.001490 -0.000662 0.000000 0.006371 0.000000
# 2 -0.001490 0.009328 -0.002935 0.000000 -0.001175 0.000000
# 3 -0.000662 -0.002935 0.008494 0.000000 0.008454 0.000000
# 4 0.000000 0.000000 0.000000 0.019028 0.000000 0.017074
# 5 0.006371 -0.001175 0.008454 0.000000 0.049678 0.000000
# 6 0.000000 0.000000 0.000000 0.017074 0.000000 0.068366
#
#
# Mechanical properties :
#
#
# Convention : Reuss Voigt Hill
#
# Bulk Modulus (GPa) = 24.77270 50.74984 37.76127
# Shear Modulus (GPa) = 23.66944 39.12737 31.39840
#
# Velocity S-wave (km/s) = 3.05861 3.93252 3.52277
# Velocity P-wave (km/s) = 4.71854 6.37793 5.60993
#
# Compressibility (1/GPa) = 0.04036702
#
# Stress axis : x y z
#
# Youngs Moduli (GPa) = 30.56301 107.20590 117.73197
#
# Poissons Ratio (x) = 0.15974 0.07796
# Poissons Ratio (y) = 0.04554 0.34552
# Poissons Ratio (z) = 0.02024 0.31462
#
# Static dielectric constant tensor:
#      x y z
#    x 1.991770 0.000000 0.012930 
#    y 0.000000 2.091710 0.000000 
#    z 0.012930 0.000000 2.113040 
# 
# From -- ./inp_files/302074.got.cif
#   From: 2010.05.17/outbox.cif.g08.bks.cpg/sg15_152_cif.got.tgz:302074.got - 2010.06.03 18:47:42.
