data_PCOD9293610
_publ_section_title
;
Structure prediction by ZEFSAII (Michael W. Deem and Ramdas Pophale) SiO2 
 PCOD9293610
Probable space group: C 2/C
;
_chemical_formula_sum "Si O2"
_cell_formula_units_Z 28
_cell_length_a 15.793795
_cell_length_b 7.773207
_cell_length_c 14.015892
_cell_angle_alpha 90.000000
_cell_angle_beta 144.606303
_cell_angle_gamma 90.000000
_cell_volume 996.620120
_symmetry_space_group_name_H-M "C 2/C"
_symmetry_group_IT_number 15
_symmetry_cell_setting 'monoclinic'
loop_
_space_group_symop_operation_xyz
x,y,z
-x,y,1/2-z
-x,-y,-z
x,-y,1/2+z
1/2+x,1/2+y,z
1/2-x,1/2+y,1/2-z
1/2-x,1/2-y,-z
1/2+x,1/2-y,1/2+z
loop_
_atom_site_type_symbol
_atom_site_label
_atom_site_fract_x
_atom_site_fract_y
_atom_site_fract_z
Si Si1 0.259767 0.715556 0.152455
Si Si2 0.000000 0.990612 0.750000
Si Si3 0.085588 0.848070 0.520703
Si Si4 0.518729 0.995353 0.157444
O O1 0.372952 0.610420 0.189973
O O2 0.281608 0.681949 0.284695
O O3 0.177999 0.408036 0.298751
O O4 0.100773 0.656568 0.972740
O O5 0.917091 0.094563 0.591358
O O6 0.020863 0.654320 0.446907
O O7 0.000000 0.000000 0.500000
O O8 0.500000 0.048946 0.250000
#
# Coordination Sequence:
#
# PCOD9293610 Si02
#       4
#     8   4   8   8
#     4  11  26  46  76 113 162 204 272 319 399 468
#     4  10  22  46  70 114 154 208 264 326 390 472
#     4  10  24  49  76 116 157 210 266 327 398 471
#     4  12  25  50  80 117 160 213 260 333 394 474
#
# _framework density 28.094957000000001
#
# number of rings (size 3 to 8) (size 9 to 14) (size 15 to 20)
#    0.000    1.143    2.857    1.714    0.000    8.000 
#    5.143    0.000    0.000    0.000    0.000    0.000 
#    0.000    0.000    0.000    0.000    0.000    0.000 
#
# Total GULP energy -78404.247340 kJ/mol
# GULP energy per Si atom -5600.303381 kJ/mol
# Density = 2.803101 g / cm^3
# Si number density = 28.094957 Si / 1000 Ang^3
#
#
#
# Elastic Constant Matrix: (Units=GPa)
#
#
# Indices 1 2 3 4 5 6 
#
# 1 136.4031 49.0033 74.2070 0.0000 -40.9809 0.0000
# 2 49.0033 178.3514 74.8633 0.0000 -5.0393 0.0000
# 3 74.2070 74.8633 229.2238 0.0000 -25.1706 0.0000
# 4 0.0000 0.0000 0.0000 53.0550 0.0000 -32.3035
# 5 -40.9809 -5.0393 -25.1706 0.0000 63.1885 0.0000
# 6 0.0000 0.0000 0.0000 -32.3035 0.0000 33.7642
#
#
#
# Elastic Compliance Matrix: (Units=1/GPa)
#
#
# Indices 1 2 3 4 5 6 
#
# 1 0.011114 -0.001916 -0.002298 0.000000 0.006140 0.000000
# 2 -0.001916 0.006835 -0.001766 0.000000 -0.001401 0.000000
# 3 -0.002298 -0.001766 0.005756 0.000000 0.000661 0.000000
# 4 0.000000 0.000000 0.000000 0.045149 0.000000 0.043196
# 5 0.006140 -0.001401 0.000661 0.000000 0.019960 0.000000
# 6 0.000000 0.000000 0.000000 0.043196 0.000000 0.070944
#
#
# Mechanical properties :
#
#
# Convention : Reuss Voigt Hill
#
# Bulk Modulus (GPa) = 85.13720 104.45839 94.79779
# Shear Modulus (GPa) = 28.46852 53.06185 40.76519
#
# Velocity S-wave (km/s) = 3.18669 4.35059 3.81330
# Velocity P-wave (km/s) = 6.62639 7.90557 7.29408
#
# Compressibility (1/GPa) = 0.01174575
#
# Stress axis : x y z
#
# Youngs Moduli (GPa) = 89.97341 146.30804 173.73364
#
# Poissons Ratio (x) = 0.28026 0.39928
# Poissons Ratio (y) = 0.17235 0.30680
# Poissons Ratio (z) = 0.20678 0.25837
#
# Static dielectric constant tensor:
#      x y z
#    x 2.170340 0.000000 0.051810 
#    y 0.000000 2.269740 0.000000 
#    z 0.051810 0.000000 2.077260 
# 
# From -- ./inp_files/150843.got.cif
#   From: 2010.05.17/outbox.cif.g08.bks.cpg/sg15_76_cif.got.tgz:150843.got - 2010.06.03 18:47:42.
