data_PCOD9293111
_publ_section_title
;
Structure prediction by ZEFSAII (Michael W. Deem and Ramdas Pophale) SiO2 
 PCOD9293111
Probable space group: C 2/C
;
_chemical_formula_sum "Si O2"
_cell_formula_units_Z 40
_cell_length_a 5.302690
_cell_length_b 17.260914
_cell_length_c 19.481231
_cell_angle_alpha 90.000000
_cell_angle_beta 66.952390
_cell_angle_gamma 90.000000
_cell_volume 1640.775436
_symmetry_space_group_name_H-M "C 2/C"
_symmetry_group_IT_number 15
_symmetry_cell_setting 'monoclinic'
loop_
_space_group_symop_operation_xyz
x,y,z
-x,y,1/2-z
-x,-y,-z
x,-y,1/2+z
1/2+x,1/2+y,z
1/2-x,1/2+y,1/2-z
1/2-x,1/2-y,-z
1/2+x,1/2-y,1/2+z
loop_
_atom_site_type_symbol
_atom_site_label
_atom_site_fract_x
_atom_site_fract_y
_atom_site_fract_z
Si Si1 0.828935 0.299125 0.199980
Si Si2 0.748833 0.035308 0.827558
Si Si3 0.464302 0.870522 0.834209
Si Si4 0.575745 0.539938 0.061559
Si Si5 0.772346 0.801802 0.928613
O O1 0.500000 0.300916 0.250000
O O2 0.917278 0.385951 0.166213
O O3 0.000000 0.283649 0.250000
O O4 0.946519 0.235539 0.134315
O O5 0.000000 0.043228 0.750000
O O6 0.639566 0.949977 0.822893
O O7 0.840382 0.027089 0.895799
O O8 0.500000 0.849177 0.750000
O O9 0.172025 0.909078 0.881818
O O10 0.575864 0.810298 0.880731
O O11 0.784012 0.611151 0.035363
O O12 0.500000 0.500000 0.000000
O O13 0.750000 0.750000 0.000000
#
# Coordination Sequence:
#
# PCOD9293111 Si02
#       5
#     8   8   8   8   8
#     4  11  28  48  79 115 159 209 267 331 406 486
#     4  10  22  44  73 111 143 196 263 332 384 473
#     4  11  24  46  81 106 151 206 275 321 397 478
#     4  11  27  45  75 106 149 206 262 329 394 475
#     4  11  30  48  71 112 162 206 262 334 411 481
#
# _framework density 24.378717999999999
#
# number of rings (size 3 to 8) (size 9 to 14) (size 15 to 20)
#    0.000    1.200    2.000    0.600   14.000    2.400 
#    0.000    0.000    0.000    0.000    0.000    0.000 
#    0.000    0.000    0.000    0.000    0.000    0.000 
#
# Total GULP energy -111426.694548 kJ/mol
# GULP energy per Si atom -5571.334727 kJ/mol
# Density = 2.432323 g / cm^3
# Si number density = 24.378718 Si / 1000 Ang^3
#
#
#
# Elastic Constant Matrix: (Units=GPa)
#
#
# Indices 1 2 3 4 5 6 
#
# 1 54.8120 17.7252 29.1525 0.0000 15.7882 0.0000
# 2 17.7252 95.5010 68.7805 0.0000 11.6565 0.0000
# 3 29.1525 68.7805 182.9351 0.0000 37.1620 0.0000
# 4 0.0000 0.0000 0.0000 57.7352 0.0000 13.8347
# 5 15.7882 11.6565 37.1620 0.0000 42.1574 0.0000
# 6 0.0000 0.0000 0.0000 13.8347 0.0000 38.0965
#
#
#
# Elastic Compliance Matrix: (Units=1/GPa)
#
#
# Indices 1 2 3 4 5 6 
#
# 1 0.021477 -0.002295 -0.001285 0.000000 -0.006276 0.000000
# 2 -0.002295 0.014637 -0.005469 0.000000 0.001634 0.000000
# 3 -0.001285 -0.005469 0.008920 0.000000 -0.005869 0.000000
# 4 0.000000 0.000000 0.000000 0.018971 0.000000 -0.006889
# 5 -0.006276 0.001634 -0.005869 0.000000 0.030793 0.000000
# 6 0.000000 0.000000 0.000000 -0.006889 0.000000 0.028751
#
#
# Mechanical properties :
#
#
# Convention : Reuss Voigt Hill
#
# Bulk Modulus (GPa) = 37.12495 62.72939 49.92717
# Shear Modulus (GPa) = 33.19472 42.10381 37.64927
#
# Velocity S-wave (km/s) = 3.69403 4.16031 3.93408
# Velocity P-wave (km/s) = 5.78411 6.99033 6.41563
#
# Compressibility (1/GPa) = 0.02693607
#
# Stress axis : x y z
#
# Youngs Moduli (GPa) = 46.56041 68.32170 112.10932
#
# Poissons Ratio (x) = 0.15679 0.14404
# Poissons Ratio (y) = 0.10685 0.61316
# Poissons Ratio (z) = 0.05982 0.37367
#
# Static dielectric constant tensor:
#      x y z
#    x 2.620980 0.000000 -0.079580 
#    y 0.000000 2.363020 0.000000 
#    z -0.079580 0.000000 1.831630 
# 
# From -- ./inp_files/184231.got.cif
#   From: 2010.05.17/outbox.cif.g08.bks.cpg/sg15_93_cif.got.tgz:184231.got - 2010.06.03 18:47:42.
