data_PCOD9293383
_publ_section_title
;
Structure prediction by ZEFSAII (Michael W. Deem and Ramdas Pophale) SiO2 
 PCOD9293383
Probable space group: C 2/C
;
_chemical_formula_sum "Si O2"
_cell_formula_units_Z 52
_cell_length_a 20.074190
_cell_length_b 26.112422
_cell_length_c 5.385024
_cell_angle_alpha 90.000000
_cell_angle_beta 57.005049
_cell_angle_gamma 90.000000
_cell_volume 2367.495066
_symmetry_space_group_name_H-M "C 2/C"
_symmetry_group_IT_number 15
_symmetry_cell_setting 'monoclinic'
loop_
_space_group_symop_operation_xyz
x,y,z
-x,y,1/2-z
-x,-y,-z
x,-y,1/2+z
1/2+x,1/2+y,z
1/2-x,1/2+y,1/2-z
1/2-x,1/2-y,-z
1/2+x,1/2-y,1/2+z
loop_
_atom_site_type_symbol
_atom_site_label
_atom_site_fract_x
_atom_site_fract_y
_atom_site_fract_z
Si Si1 0.184711 0.613303 0.212074
Si Si2 0.500000 0.333974 0.750000
Si Si3 0.466167 0.058148 0.065692
Si Si4 0.306784 0.175352 0.789234
Si Si5 0.635570 0.709514 0.274444
Si Si6 0.588290 0.483194 0.230894
Si Si7 0.866964 0.121261 0.833668
O O1 0.127703 0.564786 0.280901
O O2 0.177772 0.639500 0.499562
O O3 0.164010 0.651676 0.028376
O O4 0.277326 0.603078 0.981112
O O5 0.451848 0.299226 0.655962
O O6 0.570500 0.369410 0.509311
O O7 0.500000 0.081529 0.250000
O O8 0.500000 0.084188 0.750000
O O9 0.500000 0.000000 0.000000
O O10 0.345595 0.230931 0.741947
O O11 0.211049 0.185802 0.969556
O O12 0.637855 0.675703 0.518763
O O13 0.500000 0.500000 0.500000
O O14 0.626144 0.483519 0.432236
O O15 0.593097 0.426321 0.105558
#
# Coordination Sequence:
#
# PCOD9293383 Si02
#       7
#     8   4   8   8   8   8   8
#     4  11  23  45  72 103 136 188 228 291 351 420
#     4  12  22  40  64 100 136 188 238 274 344 400
#     4  10  22  45  72 100 134 174 230 296 360 414
#     4  10  23  44  68 100 142 183 239 282 350 407
#     4  10  24  40  67  96 142 191 233 289 336 419
#     4  10  23  40  59  88 129 178 218 279 329 385
#     4  11  25  41  68  98 141 186 237 278 350 417
#
# _framework density 21.964141999999999
#
# number of rings (size 3 to 8) (size 9 to 14) (size 15 to 20)
#    0.000    1.538    1.538    2.308    8.615    1.846 
#    9.692    0.000    0.000    0.000    0.000    0.000 
#    0.000    0.000    0.000    0.000    0.000    0.000 
#
# Total GULP energy -144791.496638 kJ/mol
# GULP energy per Si atom -5568.903717 kJ/mol
# Density = 2.191415 g / cm^3
# Si number density = 21.964142 Si / 1000 Ang^3
#
#
#
# Elastic Constant Matrix: (Units=GPa)
#
#
# Indices 1 2 3 4 5 6 
#
# 1 147.8816 36.4570 44.7748 0.0000 -19.3229 0.0000
# 2 36.4570 77.6766 12.2392 0.0000 -17.7592 0.0000
# 3 44.7748 12.2392 85.3783 0.0000 9.8569 0.0000
# 4 0.0000 0.0000 0.0000 11.8100 0.0000 -0.7696
# 5 -19.3229 -17.7592 9.8569 0.0000 48.1570 0.0000
# 6 0.0000 0.0000 0.0000 -0.7696 0.0000 -1.4036
#
#
#
# Elastic Compliance Matrix: (Units=1/GPa)
#
#
# Indices 1 2 3 4 5 6 
#
# 1 0.009457 -0.002784 -0.004998 0.000000 0.003791 0.000000
# 2 -0.002784 0.015503 -0.001325 0.000000 0.004871 0.000000
# 3 -0.004998 -0.001325 0.015170 0.000000 -0.005599 0.000000
# 4 0.000000 0.000000 0.000000 0.081753 0.000000 -0.044824
# 5 0.003791 0.004871 -0.005599 0.000000 0.025229 0.000000
# 6 0.000000 0.000000 0.000000 -0.044824 0.000000 -0.687874
#
#
# Mechanical properties :
#
#
# Convention : Reuss Voigt Hill
#
# Bulk Modulus (GPa) = 45.62849 55.31983 50.47416
# Shear Modulus (GPa) = -9.70418 26.21037 8.25310
#
# Velocity S-wave (km/s) = -2.10423 3.45820 1.94054
# Velocity P-wave (km/s) = 3.86206 6.41768 5.29633
#
# Compressibility (1/GPa) = 0.02191613
#
# Stress axis : x y z
#
# Youngs Moduli (GPa) = 105.73890 64.50319 65.91950
#
# Poissons Ratio (x) = 0.17961 0.32948
# Poissons Ratio (y) = 0.29442 0.08731
# Poissons Ratio (z) = 0.52850 0.08544
#
# Static dielectric constant tensor:
#      x y z
#    x 2.011810 0.000000 0.093060 
#    y 0.000000 1.866830 0.000000 
#    z 0.093060 0.000000 1.881900 
# 
# From -- ./inp_files/11457.got.cif
#   From: 2010.05.17/outbox.cif.g08.bks.cpg/sg15_6_cif.got.tgz:11457.got - 2010.06.03 18:47:42.
