data_PCOD9293380
_publ_section_title
;
Structure prediction by ZEFSAII (Michael W. Deem and Ramdas Pophale) SiO2 
 PCOD9293380
Probable space group: C 2/C
;
_chemical_formula_sum "Si O2"
_cell_formula_units_Z 36
_cell_length_a 16.588401
_cell_length_b 7.826641
_cell_length_c 24.232775
_cell_angle_alpha 90.000000
_cell_angle_beta 32.373003
_cell_angle_gamma 90.000000
_cell_volume 1684.553844
_symmetry_space_group_name_H-M "C 2/C"
_symmetry_group_IT_number 15
_symmetry_cell_setting 'monoclinic'
loop_
_space_group_symop_operation_xyz
x,y,z
-x,y,1/2-z
-x,-y,-z
x,-y,1/2+z
1/2+x,1/2+y,z
1/2-x,1/2+y,1/2-z
1/2-x,1/2-y,-z
1/2+x,1/2-y,1/2+z
loop_
_atom_site_type_symbol
_atom_site_label
_atom_site_fract_x
_atom_site_fract_y
_atom_site_fract_z
Si Si1 0.759680 0.756360 0.327844
Si Si2 0.000000 0.556415 0.250000
Si Si3 0.598281 0.854154 0.097706
Si Si4 0.807151 0.129109 0.246454
Si Si5 0.975690 0.385586 0.959473
O O1 0.913534 0.670032 0.256151
O O2 0.679050 0.643099 0.327711
O O3 0.660117 0.769159 0.440894
O O4 0.795238 0.941797 0.280409
O O5 0.888920 0.442241 0.350312
O O6 0.447754 0.736688 0.187358
O O7 0.569580 0.991793 0.065208
O O8 0.750000 0.750000 0.000000
O O9 0.637263 0.200561 0.354997
O O10 0.000000 0.500000 0.000000
#
# Coordination Sequence:
#
# PCOD9293380 Si02
#       5
#     8   4   8   8   8
#     4  11  24  44  75 100 143 186 239 295 346 424
#     4  12  28  46  68 112 142 180 240 290 364 418
#     4  12  28  46  70 109 145 187 233 297 360 424
#     4  11  22  47  72 100 141 189 237 286 348 423
#     4  10  22  45  71  99 137 181 245 279 351 418
#
# _framework density 21.370643999999999
#
# number of rings (size 3 to 8) (size 9 to 14) (size 15 to 20)
#    0.000    0.889    6.667    0.000    9.333    2.667 
#    0.000    3.333    0.000    0.000    0.000    0.000 
#    0.000    0.000    0.000    0.000    0.000    0.000 
#
# Total GULP energy -100458.307129 kJ/mol
# GULP energy per Si atom -5581.017063 kJ/mol
# Density = 2.132200 g / cm^3
# Si number density = 21.370644 Si / 1000 Ang^3
#
#
#
# Elastic Constant Matrix: (Units=GPa)
#
#
# Indices 1 2 3 4 5 6 
#
# 1 73.0933 38.2898 17.7281 0.0000 7.8707 0.0000
# 2 38.2898 84.5974 63.8996 0.0000 0.9502 0.0000
# 3 17.7281 63.8996 145.0613 -0.0001 -1.2792 0.0000
# 4 0.0000 0.0000 -0.0001 39.8702 0.0000 -2.3447
# 5 7.8707 0.9502 -1.2792 0.0000 41.5915 0.0000
# 6 0.0000 0.0000 0.0000 -2.3447 0.0000 28.0861
#
#
#
# Elastic Compliance Matrix: (Units=1/GPa)
#
#
# Indices 1 2 3 4 5 6 
#
# 1 0.018791 -0.010059 0.002106 0.000000 -0.003261 0.000000
# 2 -0.010059 0.023117 -0.008944 0.000000 0.001100 0.000000
# 3 0.002106 -0.008944 0.010577 0.000000 0.000131 0.000000
# 4 0.000000 0.000000 0.000000 0.025205 0.000000 0.002104
# 5 -0.003261 0.001100 0.000131 0.000000 0.024639 0.000000
# 6 0.000000 0.000000 0.000000 0.002104 0.000000 0.035780
#
#
# Mechanical properties :
#
#
# Convention : Reuss Voigt Hill
#
# Bulk Modulus (GPa) = 53.50235 60.28743 56.89489
# Shear Modulus (GPa) = 28.06867 34.09855 31.08361
#
# Velocity S-wave (km/s) = 3.62805 3.99880 3.81793
# Velocity P-wave (km/s) = 6.52994 7.04217 6.79089
#
# Compressibility (1/GPa) = 0.01869077
#
# Stress axis : x y z
#
# Youngs Moduli (GPa) = 53.21706 43.25854 94.54237
#
# Poissons Ratio (x) = 0.43513 -0.19908
# Poissons Ratio (y) = 0.53531 0.84558
# Poissons Ratio (z) = -0.11206 0.38690
#
# Static dielectric constant tensor:
#      x y z
#    x 1.754840 0.000000 -0.015320 
#    y 0.000000 1.822690 0.000000 
#    z -0.015320 0.000000 1.951650 
# 
# From -- ./inp_files/102510.got.cif
#   From: 2010.05.17/outbox.cif.g08.bks.cpg/sg15_52_cif.got.tgz:102510.got - 2010.06.03 18:47:42.
