data_PCOD9293047
_publ_section_title
;
Structure prediction by ZEFSAII (Michael W. Deem and Ramdas Pophale) SiO2 
 PCOD9293047
Probable space group: C 2/C
;
_chemical_formula_sum "Si O2"
_cell_formula_units_Z 48
_cell_length_a 18.449273
_cell_length_b 5.441233
_cell_length_c 18.869851
_cell_angle_alpha 90.000000
_cell_angle_beta 83.248571
_cell_angle_gamma 90.000000
_cell_volume 1881.147964
_symmetry_space_group_name_H-M "C 2/C"
_symmetry_group_IT_number 15
_symmetry_cell_setting 'monoclinic'
loop_
_space_group_symop_operation_xyz
x,y,z
-x,y,1/2-z
-x,-y,-z
x,-y,1/2+z
1/2+x,1/2+y,z
1/2-x,1/2+y,1/2-z
1/2-x,1/2-y,-z
1/2+x,1/2-y,1/2+z
loop_
_atom_site_type_symbol
_atom_site_label
_atom_site_fract_x
_atom_site_fract_y
_atom_site_fract_z
Si Si1 0.500000 0.595295 0.750000
Si Si2 0.693966 0.490107 0.046106
Si Si3 0.010720 0.729689 0.867912
Si Si4 0.658536 0.801939 0.929148
Si Si5 0.868581 0.436258 0.717370
Si Si6 0.139687 0.504672 0.625729
Si Si7 0.500000 0.000000 0.000000
O O1 0.478599 0.433841 0.820415
O O2 0.431961 0.752736 0.734170
O O3 0.780696 0.512629 0.046846
O O4 0.664094 0.244051 0.084504
O O5 0.663709 0.738690 0.087775
O O6 0.674451 0.545327 0.966640
O O7 0.949403 0.511241 0.871552
O O8 0.087034 0.663403 0.822109
O O9 0.014311 0.753704 0.950945
O O10 0.671209 0.809158 0.843447
O O11 0.576793 0.887280 0.957130
O O12 0.833344 0.504158 0.796054
#
# Coordination Sequence:
#
# PCOD9293047 Si02
#       7
#     4   8   8   8   8   8   4
#     4  12  20  40  66 106 154 184 234 314 362 428
#     4  11  27  49  76 100 153 190 250 298 381 433
#     4  11  22  39  65 106 139 185 241 300 358 431
#     4  10  25  48  69 111 140 197 241 314 359 453
#     4  11  24  40  69 105 147 187 247 300 365 430
#     4  12  23  46  74 103 141 201 235 300 368 443
#     4  10  22  44  72 102 142 186 250 298 370 434
#
# _framework density 25.516332999999999
#
# number of rings (size 3 to 8) (size 9 to 14) (size 15 to 20)
#    0.000    1.000    5.000    1.000    0.000    5.333 
#    6.000    3.333    0.000    0.000    0.000    0.000 
#    0.000    0.000    0.000    0.000    0.000    0.000 
#
# Total GULP energy -133747.434481 kJ/mol
# GULP energy per Si atom -5572.809770 kJ/mol
# Density = 2.545826 g / cm^3
# Si number density = 25.516333 Si / 1000 Ang^3
#
#
#
# Elastic Constant Matrix: (Units=GPa)
#
#
# Indices 1 2 3 4 5 6 
#
# 1 79.4904 24.3263 3.1667 0.0000 0.1690 0.0000
# 2 24.3263 110.1920 44.8283 0.0000 -9.3648 0.0000
# 3 3.1667 44.8283 72.9004 0.0000 7.9786 0.0000
# 4 0.0000 0.0000 0.0000 23.5349 0.0000 -28.0371
# 5 0.1690 -9.3648 7.9786 0.0000 31.0592 0.0000
# 6 0.0000 0.0000 0.0000 -28.0371 0.0000 20.3792
#
#
#
# Elastic Compliance Matrix: (Units=1/GPa)
#
#
# Indices 1 2 3 4 5 6 
#
# 1 0.013736 -0.004036 0.002085 0.000000 -0.001827 0.000000
# 2 -0.004036 0.014365 -0.009399 0.000000 0.006768 0.000000
# 3 0.002085 -0.009399 0.020288 0.000000 -0.008057 0.000000
# 4 0.000000 0.000000 0.000000 -0.066499 0.000000 -0.091488
# 5 -0.001827 0.006768 -0.008057 0.000000 0.036317 0.000000
# 6 0.000000 0.000000 0.000000 -0.091488 0.000000 -0.076797
#
#
# Mechanical properties :
#
#
# Convention : Reuss Voigt Hill
#
# Bulk Modulus (GPa) = 38.92576 45.24727 42.08651
# Shear Modulus (GPa) = -182.95846 27.67877 -77.63985
#
# Velocity S-wave (km/s) = -8.47692 3.29712 -5.52210
# Velocity P-wave (km/s) = 8.97343 5.68030 4.91206
#
# Compressibility (1/GPa) = 0.02568993
#
# Stress axis : x y z
#
# Youngs Moduli (GPa) = 72.80102 69.61488 49.29023
#
# Poissons Ratio (x) = 0.28096 -0.10278
# Poissons Ratio (y) = 0.29382 0.46326
# Poissons Ratio (z) = -0.15180 0.65428
#
# Static dielectric constant tensor:
#      x y z
#    x 1.741130 0.000000 -0.651940 
#    y 0.000000 1.983520 0.000000 
#    z -0.651940 0.000000 0.606410 
# 
# From -- ./inp_files/250810.got.cif
#   From: 2010.05.17/outbox.cif.g08.bks.cpg/sg15_126_cif.got.tgz:250810.got - 2010.06.03 18:47:42.
