data_PCOD9293731
_publ_section_title
;
Structure prediction by ZEFSAII (Michael W. Deem and Ramdas Pophale) SiO2 
 PCOD9293731
Probable space group: C 2/C
;
_chemical_formula_sum "Si O2"
_cell_formula_units_Z 32
_cell_length_a 11.458938
_cell_length_b 17.837326
_cell_length_c 5.868144
_cell_angle_alpha 90.000000
_cell_angle_beta 90.866421
_cell_angle_gamma 90.000000
_cell_volume 1199.292795
_symmetry_space_group_name_H-M "C 2/C"
_symmetry_group_IT_number 15
_symmetry_cell_setting 'monoclinic'
loop_
_space_group_symop_operation_xyz
x,y,z
-x,y,1/2-z
-x,-y,-z
x,-y,1/2+z
1/2+x,1/2+y,z
1/2-x,1/2+y,1/2-z
1/2-x,1/2-y,-z
1/2+x,1/2-y,1/2+z
loop_
_atom_site_type_symbol
_atom_site_label
_atom_site_fract_x
_atom_site_fract_y
_atom_site_fract_z
Si Si1 0.872489 0.558905 0.124036
Si Si2 0.345092 0.210427 0.353919
Si Si3 0.500000 0.331367 0.250000
Si Si4 0.859224 0.032456 0.909469
Si Si5 0.000000 0.643307 0.750000
O O1 0.812463 0.631003 0.242731
O O2 0.779203 0.507506 0.590689
O O3 0.000000 0.547034 0.250000
O O4 0.907907 0.592847 0.881935
O O5 0.250000 0.250000 0.500000
O O6 0.397966 0.271620 0.179792
O O7 0.439726 0.189284 0.549022
O O8 0.422017 0.385919 0.407978
O O9 0.892756 0.996874 0.154825
#
# Coordination Sequence:
#
# PCOD9293731 Si02
#       5
#     8   8   4   8   4
#     4  10  24  48  76 113 152 212 268 327 397 490
#     4  11  24  45  79 116 155 205 272 333 404 476
#     4  12  26  52  77 123 162 204 270 344 404 472
#     4  12  30  51  77 116 165 215 263 328 412 481
#     4  10  22  46  79 109 156 206 276 330 398 478
#
# _framework density 26.682390999999999
#
# number of rings (size 3 to 8) (size 9 to 14) (size 15 to 20)
#    0.000    1.000    3.750    2.250   10.500    6.000 
#    0.000    0.000    0.000    0.000    0.000    0.000 
#    0.000    0.000    0.000    0.000    0.000    0.000 
#
# Total GULP energy -89153.208782 kJ/mol
# GULP energy per Si atom -5572.075549 kJ/mol
# Density = 2.662166 g / cm^3
# Si number density = 26.682391 Si / 1000 Ang^3
#
#
#
# Elastic Constant Matrix: (Units=GPa)
#
#
# Indices 1 2 3 4 5 6 
#
# 1 147.2605 84.4208 41.7602 0.0000 -10.2066 0.0000
# 2 84.4208 146.5674 39.7055 0.0000 -29.1334 0.0000
# 3 41.7602 39.7055 149.1190 0.0000 -12.0416 0.0000
# 4 0.0000 0.0000 0.0000 21.9393 0.0000 -34.0558
# 5 -10.2066 -29.1334 -12.0416 0.0000 57.8759 0.0000
# 6 0.0000 0.0000 0.0000 -34.0558 0.0000 49.8153
#
#
#
# Elastic Compliance Matrix: (Units=1/GPa)
#
#
# Indices 1 2 3 4 5 6 
#
# 1 0.010518 -0.005945 -0.001479 0.000000 -0.001445 0.000000
# 2 -0.005945 0.011413 -0.001012 0.000000 0.004486 0.000000
# 3 -0.001479 -0.001012 0.007453 0.000000 0.000780 0.000000
# 4 0.000000 0.000000 0.000000 -0.744793 0.000000 -0.509171
# 5 -0.001445 0.004486 0.000780 0.000000 0.019444 0.000000
# 6 0.000000 0.000000 0.000000 -0.509171 0.000000 -0.328017
#
#
# Mechanical properties :
#
#
# Convention : Reuss Voigt Hill
#
# Bulk Modulus (GPa) = 79.92521 86.07999 83.00260
# Shear Modulus (GPa) = -4.98534 44.39678 19.70572
#
# Velocity S-wave (km/s) = -1.36838 4.08352 2.72054
# Velocity P-wave (km/s) = 5.24621 7.38678 6.40653
#
# Compressibility (1/GPa) = 0.01251170
#
# Stress axis : x y z
#
# Youngs Moduli (GPa) = 95.07496 87.62174 134.17857
#
# Poissons Ratio (x) = 0.52089 0.19850
# Poissons Ratio (y) = 0.56520 0.13576
# Poissons Ratio (z) = 0.14065 0.08865
#
# Static dielectric constant tensor:
#      x y z
#    x 2.401250 0.000000 -0.031750 
#    y 0.000000 2.229630 0.000000 
#    z -0.031750 0.000000 2.122850 
# 
# From -- ./inp_files/6517.got.cif
#   From: 2010.05.17/outbox.cif.g08.bks.cpg/sg15_4_cif.got.tgz:6517.got - 2010.06.03 18:47:42.
