data_PCOD9293778
_publ_section_title
;
Structure prediction by ZEFSAII (Michael W. Deem and Ramdas Pophale) SiO2 
 PCOD9293778
Probable space group: C 2/C
;
_chemical_formula_sum "Si O2"
_cell_formula_units_Z 60
_cell_length_a 28.171770
_cell_length_b 10.388589
_cell_length_c 8.964335
_cell_angle_alpha 90.000000
_cell_angle_beta 112.893303
_cell_angle_gamma 90.000000
_cell_volume 2416.892115
_symmetry_space_group_name_H-M "C 2/C"
_symmetry_group_IT_number 15
_symmetry_cell_setting 'monoclinic'
loop_
_space_group_symop_operation_xyz
x,y,z
-x,y,1/2-z
-x,-y,-z
x,-y,1/2+z
1/2+x,1/2+y,z
1/2-x,1/2+y,1/2-z
1/2-x,1/2-y,-z
1/2+x,1/2-y,1/2+z
loop_
_atom_site_type_symbol
_atom_site_label
_atom_site_fract_x
_atom_site_fract_y
_atom_site_fract_z
Si Si1 0.197724 0.830878 0.445799
Si Si2 0.466882 0.175433 0.423447
Si Si3 0.076479 0.744604 0.602559
Si Si4 0.345768 0.520394 0.362748
Si Si5 0.103468 0.797553 0.946534
Si Si6 0.798170 0.348228 0.058227
Si Si7 0.000000 0.512445 0.750000
Si Si8 0.338135 0.900555 0.432658
O O1 0.250000 0.750000 0.500000
O O2 0.178066 0.921557 0.287209
O O3 0.159190 0.716369 0.445579
O O4 0.200104 0.921837 0.594289
O O5 0.520070 0.254793 0.461979
O O6 0.419991 0.259290 0.423381
O O7 0.457943 0.082164 0.274302
O O8 0.479373 0.087836 0.582952
O O9 0.066930 0.750966 0.768646
O O10 0.105360 0.615403 0.579170
O O11 0.118313 0.860668 0.643738
O O12 0.383428 0.446149 0.522395
O O13 0.156846 0.732126 0.967933
O O14 0.805289 0.374726 0.242789
O O15 0.750000 0.250000 0.000000
O O16 0.809159 0.483177 0.983773
#
# Coordination Sequence:
#
# PCOD9293778 Si02
#       8
#     8   8   8   8   8   8   4   8
#     4  11  27  47  76 103 144 196 253 315 380 449
#     4  11  23  42  73 108 148 199 245 304 386 441
#     4  10  22  47  71 109 147 191 249 310 375 457
#     4  11  25  49  73 105 149 193 251 315 378 455
#     4  11  24  44  73 105 146 199 242 313 375 444
#     4  11  28  49  70 108 149 191 254 311 381 448
#     4  10  24  38  68 110 152 188 240 308 370 452
#     4  10  27  44  73 106 140 193 247 310 373 453
#
# _framework density 24.825268999999999
#
# number of rings (size 3 to 8) (size 9 to 14) (size 15 to 20)
#    0.000    1.333    2.667    0.000    9.333    2.667 
#    0.000    0.667    0.000    0.000    0.000    0.000 
#    0.000    0.000    0.000    0.000    0.000    0.000 
#
# Total GULP energy -167224.049559 kJ/mol
# GULP energy per Si atom -5574.134985 kJ/mol
# Density = 2.476877 g / cm^3
# Si number density = 24.825269 Si / 1000 Ang^3
#
#
#
# Elastic Constant Matrix: (Units=GPa)
#
#
# Indices 1 2 3 4 5 6 
#
# 1 104.6420 54.1764 44.5175 0.0000 -6.3573 0.0000
# 2 54.1764 125.7646 63.5446 0.0000 -8.5424 0.0000
# 3 44.5175 63.5446 120.9616 0.0000 -10.0252 0.0000
# 4 0.0000 0.0000 0.0000 39.6941 0.0000 -14.3715
# 5 -6.3573 -8.5424 -10.0252 0.0000 29.2021 0.0000
# 6 0.0000 0.0000 0.0000 -14.3715 0.0000 45.3693
#
#
#
# Elastic Compliance Matrix: (Units=1/GPa)
#
#
# Indices 1 2 3 4 5 6 
#
# 1 0.012836 -0.004253 -0.002431 0.000000 0.000716 0.000000
# 2 -0.004253 0.012278 -0.004801 0.000000 0.001018 0.000000
# 3 -0.002431 -0.004801 0.011861 0.000000 0.002138 0.000000
# 4 0.000000 0.000000 0.000000 0.028456 0.000000 0.009014
# 5 0.000716 0.001018 0.002138 0.000000 0.035432 0.000000
# 6 0.000000 0.000000 0.000000 0.009014 0.000000 0.024897
#
#
# Mechanical properties :
#
#
# Convention : Reuss Voigt Hill
#
# Bulk Modulus (GPa) = 71.39323 75.09389 73.24356
# Shear Modulus (GPa) = 32.59553 35.46174 34.02864
#
# Velocity S-wave (km/s) = 3.62746 3.78359 3.70635
# Velocity P-wave (km/s) = 6.80921 7.02866 6.91981
#
# Compressibility (1/GPa) = 0.01400693
#
# Stress axis : x y z
#
# Youngs Moduli (GPa) = 77.90837 81.44687 84.31209
#
# Poissons Ratio (x) = 0.34636 0.20493
# Poissons Ratio (y) = 0.33131 0.40474
# Poissons Ratio (z) = 0.18936 0.39099
#
# Static dielectric constant tensor:
#      x y z
#    x 1.939210 0.000000 -0.025360 
#    y 0.000000 2.153330 0.000000 
#    z -0.025360 0.000000 2.007570 
# 
# From -- ./inp_files/69396.got.cif
#   From: 2010.05.17/outbox.cif.g08.bks.cpg/sg15_35_cif.got.tgz:69396.got - 2010.06.03 18:47:42.
