data_PCOD9293425
_publ_section_title
;
Structure prediction by ZEFSAII (Michael W. Deem and Ramdas Pophale) SiO2 
 PCOD9293425
Probable space group: C 2/C
;
_chemical_formula_sum "Si O2"
_cell_formula_units_Z 52
_cell_length_a 22.342541
_cell_length_b 7.538248
_cell_length_c 14.729723
_cell_angle_alpha 90.000000
_cell_angle_beta 103.707702
_cell_angle_gamma 90.000000
_cell_volume 2410.172304
_symmetry_space_group_name_H-M "C 2/C"
_symmetry_group_IT_number 15
_symmetry_cell_setting 'monoclinic'
loop_
_space_group_symop_operation_xyz
x,y,z
-x,y,1/2-z
-x,-y,-z
x,-y,1/2+z
1/2+x,1/2+y,z
1/2-x,1/2+y,1/2-z
1/2-x,1/2-y,-z
1/2+x,1/2-y,1/2+z
loop_
_atom_site_type_symbol
_atom_site_label
_atom_site_fract_x
_atom_site_fract_y
_atom_site_fract_z
Si Si1 0.261483 0.320491 0.605688
Si Si2 0.500000 0.436031 0.250000
Si Si3 0.793421 0.702610 0.931961
Si Si4 0.073756 0.653733 0.575903
Si Si5 0.667301 0.564390 0.646680
Si Si6 0.041446 0.239676 0.576821
Si Si7 0.387388 0.644258 0.226756
O O1 0.250000 0.250000 0.500000
O O2 0.238765 0.521786 0.612267
O O3 0.218332 0.211353 0.656995
O O4 0.332799 0.277373 0.649115
O O5 0.479756 0.324267 0.330609
O O6 0.446103 0.568388 0.197860
O O7 0.866483 0.659960 0.968728
O O8 0.800888 0.883394 0.876859
O O9 0.750000 0.750000 0.000000
O O10 0.058132 0.448085 0.585013
O O11 0.092021 0.737291 0.679959
O O12 0.016617 0.762842 0.512773
O O13 0.603636 0.628335 0.574571
O O14 0.644818 0.526723 0.739276
#
# Coordination Sequence:
#
# PCOD9293425 Si02
#       7
#     8   4   8   8   8   8   8
#     4  12  25  44  66 100 137 177 225 279 339 398
#     4  10  24  46  66 100 134 174 224 282 340 392
#     4  11  23  41  65 103 129 173 226 273 337 400
#     4  10  23  45  71 100 132 181 228 276 338 414
#     4  10  23  43  67  97 135 176 216 278 334 410
#     4  10  22  45  73  99 135 178 227 279 341 405
#     4  10  26  42  67  96 134 179 222 281 335 400
#
# _framework density 21.575222
#
# number of rings (size 3 to 8) (size 9 to 14) (size 15 to 20)
#    0.000    1.538    3.077    0.000    6.462    7.385 
#    5.538    0.000    0.000    0.000    0.000    0.000 
#    0.000    0.000    0.000    0.000    0.000    0.000 
#
# Total GULP energy -144975.852820 kJ/mol
# GULP energy per Si atom -5575.994339 kJ/mol
# Density = 2.152612 g / cm^3
# Si number density = 21.575222 Si / 1000 Ang^3
#
#
#
# Elastic Constant Matrix: (Units=GPa)
#
#
# Indices 1 2 3 4 5 6 
#
# 1 130.3071 42.3220 37.9832 0.0000 12.4740 0.0000
# 2 42.3220 110.6307 27.7963 0.0000 11.1796 0.0000
# 3 37.9832 27.7963 94.0099 0.0000 32.9822 0.0000
# 4 0.0000 0.0000 0.0000 14.7174 0.0000 4.0794
# 5 12.4740 11.1796 32.9822 0.0000 39.0785 0.0000
# 6 0.0000 0.0000 0.0000 4.0794 0.0000 49.2119
#
#
#
# Elastic Compliance Matrix: (Units=1/GPa)
#
#
# Indices 1 2 3 4 5 6 
#
# 1 0.009482 -0.002885 -0.003134 0.000000 0.000443 0.000000
# 2 -0.002885 0.010649 -0.001758 0.000000 -0.000642 0.000000
# 3 -0.003134 -0.001758 0.016900 0.000000 -0.012760 0.000000
# 4 0.000000 0.000000 0.000000 0.069545 0.000000 -0.005765
# 5 0.000443 -0.000642 -0.012760 0.000000 0.036401 0.000000
# 6 0.000000 0.000000 0.000000 -0.005765 0.000000 0.020798
#
#
# Mechanical properties :
#
#
# Convention : Reuss Voigt Hill
#
# Bulk Modulus (GPa) = 46.55852 61.23897 53.89874
# Shear Modulus (GPa) = 26.81144 35.72463 31.26804
#
# Velocity S-wave (km/s) = 3.52901 4.07359 3.81104
# Velocity P-wave (km/s) = 6.18318 7.11133 6.66344
#
# Compressibility (1/GPa) = 0.02147834
#
# Stress axis : x y z
#
# Youngs Moduli (GPa) = 105.46141 93.90335 59.17222
#
# Poissons Ratio (x) = 0.27090 0.18543
# Poissons Ratio (y) = 0.30424 0.10402
# Poissons Ratio (z) = 0.33048 0.16507
#
# Static dielectric constant tensor:
#      x y z
#    x 1.983010 0.000000 -0.007090 
#    y 0.000000 1.807510 0.000000 
#    z -0.007090 0.000000 1.893480 
# 
# From -- ./inp_files/209243.got.cif
#   From: 2010.05.17/outbox.cif.g08.bks.cpg/sg15_105_cif.got.tgz:209243.got - 2010.06.03 18:47:42.
