data_PCOD9293059
_publ_section_title
;
Structure prediction by ZEFSAII (Michael W. Deem and Ramdas Pophale) SiO2 
 PCOD9293059
Probable space group: C 2/C
;
_chemical_formula_sum "Si O2"
_cell_formula_units_Z 32
_cell_length_a 16.248599
_cell_length_b 9.472217
_cell_length_c 22.428460
_cell_angle_alpha 90.000000
_cell_angle_beta 21.904479
_cell_angle_gamma 90.000000
_cell_volume 1287.793015
_symmetry_space_group_name_H-M "C 2/C"
_symmetry_group_IT_number 15
_symmetry_cell_setting 'monoclinic'
loop_
_space_group_symop_operation_xyz
x,y,z
-x,y,1/2-z
-x,-y,-z
x,-y,1/2+z
1/2+x,1/2+y,z
1/2-x,1/2+y,1/2-z
1/2-x,1/2-y,-z
1/2+x,1/2-y,1/2+z
loop_
_atom_site_type_symbol
_atom_site_label
_atom_site_fract_x
_atom_site_fract_y
_atom_site_fract_z
Si Si1 0.418493 0.584320 0.997570
Si Si2 0.179950 0.348871 0.492290
Si Si3 0.309544 0.971760 0.675593
Si Si4 0.367441 0.396020 0.929563
O O1 0.303891 0.737188 0.073746
O O2 0.649458 0.598261 0.804219
O O3 0.286120 0.475293 0.044626
O O4 0.500000 0.500000 0.000000
O O5 0.250000 0.250000 0.500000
O O6 0.317225 0.491137 0.411401
O O7 0.933557 0.408897 0.649499
O O8 0.500000 0.000000 0.500000
O O9 0.127355 0.873180 0.766650
O O10 0.250000 0.250000 0.000000
#
# Coordination Sequence:
#
# PCOD9293059 Si02
#       4
#     8   8   8   8
#     4   9  22  45  69 101 138 188 235 300 360 435
#     4  10  22  44  72 104 141 191 246 297 369 446
#     4  10  24  42  71 101 144 181 242 298 369 433
#     4   9  22  42  74 102 140 188 242 294 362 446
#
# _framework density 24.848714000000001
#
# number of rings (size 3 to 8) (size 9 to 14) (size 15 to 20)
#    1.500    1.000    0.000    0.000    3.500    5.000 
#    4.500    3.750    0.000    0.000    0.000    0.000 
#    0.000    0.000    0.000    0.000    0.000    0.000 
#
# Total GULP energy -89078.077420 kJ/mol
# GULP energy per Si atom -5567.379839 kJ/mol
# Density = 2.479216 g / cm^3
# Si number density = 24.848714 Si / 1000 Ang^3
#
#
#
# Elastic Constant Matrix: (Units=GPa)
#
#
# Indices 1 2 3 4 5 6 
#
# 1 139.2890 85.8751 50.4556 0.0027 -36.5813 -0.0033
# 2 85.8751 179.8771 38.7907 0.0257 -24.1087 0.0077
# 3 50.4556 38.7907 112.9556 0.0179 -33.6371 0.0023
# 4 0.0027 0.0257 0.0179 25.5449 0.0050 -13.0185
# 5 -36.5813 -24.1087 -33.6371 0.0050 53.0030 0.0038
# 6 -0.0033 0.0077 0.0023 -13.0185 0.0038 51.0705
#
#
#
# Elastic Compliance Matrix: (Units=1/GPa)
#
#
# Indices 1 2 3 4 5 6 
#
# 1 0.012173 -0.004652 -0.002427 0.000006 0.004745 0.000003
# 2 -0.004652 0.007917 -0.000647 -0.000009 -0.000020 -0.000004
# 3 -0.002427 -0.000647 0.011803 -0.000010 0.005522 -0.000004
# 4 0.000006 -0.000009 -0.000010 0.044992 -0.000012 0.011469
# 5 0.004745 -0.000020 0.005522 -0.000012 0.025637 -0.000005
# 6 0.000003 -0.000004 -0.000004 0.011469 -0.000005 0.022504
#
#
# Mechanical properties :
#
#
# Convention : Reuss Voigt Hill
#
# Bulk Modulus (GPa) = 60.81954 86.92939 73.87446
# Shear Modulus (GPa) = 34.25642 43.05704 38.65673
#
# Velocity S-wave (km/s) = 3.71698 4.16717 3.94849
# Velocity P-wave (km/s) = 6.55365 7.62975 7.11208
#
# Compressibility (1/GPa) = 0.01644208
#
# Stress axis : x y z
#
# Youngs Moduli (GPa) = 82.15119 126.30916 84.72096
#
# Poissons Ratio (x) = 0.58760 0.20559
# Poissons Ratio (y) = 0.38217 0.05480
# Poissons Ratio (z) = 0.19936 0.08170
#
# Static dielectric constant tensor:
#      x y z
#    x 2.117480 0.000010 0.121340 
#    y 0.000010 1.978820 0.000070 
#    z 0.121340 0.000070 2.194570 
# 
# From -- ./inp_files/273005.got.cif
#   From: 2010.05.17/outbox.cif.g08.bks.cpg/sg15_137_cif.got.tgz:273005.got - 2010.06.03 18:47:42.
