data_PCOD9293258
_publ_section_title
;
Structure prediction by ZEFSAII (Michael W. Deem and Ramdas Pophale) SiO2 
 PCOD9293258
Probable space group: C 2/C
;
_chemical_formula_sum "Si O2"
_cell_formula_units_Z 56
_cell_length_a 19.690548
_cell_length_b 22.178591
_cell_length_c 9.194700
_cell_angle_alpha 90.000000
_cell_angle_beta 146.055825
_cell_angle_gamma 90.000000
_cell_volume 2242.141258
_symmetry_space_group_name_H-M "C 2/C"
_symmetry_group_IT_number 15
_symmetry_cell_setting 'monoclinic'
loop_
_space_group_symop_operation_xyz
x,y,z
-x,y,1/2-z
-x,-y,-z
x,-y,1/2+z
1/2+x,1/2+y,z
1/2-x,1/2+y,1/2-z
1/2-x,1/2-y,-z
1/2+x,1/2-y,1/2+z
loop_
_atom_site_type_symbol
_atom_site_label
_atom_site_fract_x
_atom_site_fract_y
_atom_site_fract_z
Si Si1 0.274507 0.078872 0.911083
Si Si2 0.096399 0.678800 0.511387
Si Si3 0.902155 0.827355 0.272232
Si Si4 0.812551 0.999946 0.504750
Si Si5 0.202364 0.732220 0.208264
Si Si6 0.103735 0.369741 0.339391
Si Si7 0.877334 0.085021 0.361482
O O1 0.283313 0.033681 0.060942
O O2 0.376643 0.127400 0.060880
O O3 0.156561 0.118255 0.739590
O O4 0.252265 0.043450 0.723853
O O5 0.217836 0.718566 0.736082
O O6 0.067689 0.648620 0.612992
O O7 0.000000 0.719008 0.250000
O O8 0.890453 0.767675 0.350830
O O9 0.798495 0.810154 0.967745
O O10 0.965002 0.856179 0.022370
O O11 0.900566 0.961353 0.767653
O O12 0.874440 0.050017 0.510634
O O13 0.128949 0.691313 0.970773
O O14 0.236188 0.399770 0.577888
O O15 0.000000 0.402986 0.250000
#
# Coordination Sequence:
#
# PCOD9293258 Si02
#       7
#     8   8   8   8   8   8   8
#     4  10  22  45  67 103 143 185 238 305 368 439
#     4  11  26  47  73 102 145 195 251 313 371 449
#     4  10  24  44  76 110 150 197 239 312 369 462
#     4  10  23  44  73 109 149 192 246 314 373 451
#     4  10  25  47  74 110 150 198 251 299 387 448
#     4  12  28  47  72 108 147 199 256 318 365 462
#     4  11  25  47  77 111 156 194 257 307 392 437
#
# _framework density 24.976126000000001
#
# number of rings (size 3 to 8) (size 9 to 14) (size 15 to 20)
#    0.000    1.429    1.429    1.286   10.000    6.857 
#    0.000    4.286    3.143    0.000    0.000    0.000 
#    0.000    0.000    0.000    0.000    0.000    0.000 
#
# Total GULP energy -156556.361748 kJ/mol
# GULP energy per Si atom -5591.298634 kJ/mol
# Density = 2.491928 g / cm^3
# Si number density = 24.976126 Si / 1000 Ang^3
#
#
#
# Elastic Constant Matrix: (Units=GPa)
#
#
# Indices 1 2 3 4 5 6 
#
# 1 113.8587 41.9743 63.7832 0.0000 -8.4181 0.0000
# 2 41.9743 100.4287 45.4658 0.0000 -4.4846 0.0000
# 3 63.7832 45.4658 121.7564 0.0000 -13.9783 0.0000
# 4 0.0000 0.0000 0.0000 37.6106 0.0000 -8.8232
# 5 -8.4181 -4.4846 -13.9783 0.0000 53.8565 0.0000
# 6 0.0000 0.0000 0.0000 -8.8232 0.0000 49.3978
#
#
#
# Elastic Compliance Matrix: (Units=1/GPa)
#
#
# Indices 1 2 3 4 5 6 
#
# 1 0.013078 -0.002848 -0.005751 0.000000 0.000314 0.000000
# 2 -0.002848 0.012605 -0.003242 0.000000 -0.000237 0.000000
# 3 -0.005751 -0.003242 0.012680 0.000000 0.002122 0.000000
# 4 0.000000 0.000000 0.000000 0.027751 0.000000 0.004957
# 5 0.000314 -0.000237 0.002122 0.000000 0.019148 0.000000
# 6 0.000000 0.000000 0.000000 0.004957 0.000000 0.021129
#
#
# Mechanical properties :
#
#
# Convention : Reuss Voigt Hill
#
# Bulk Modulus (GPa) = 68.12013 70.94337 69.53175
# Shear Modulus (GPa) = 37.04587 40.49436 38.77012
#
# Velocity S-wave (km/s) = 3.85548 4.03093 3.94418
# Velocity P-wave (km/s) = 6.86680 7.08030 6.97437
#
# Compressibility (1/GPa) = 0.01467995
#
# Stress axis : x y z
#
# Youngs Moduli (GPa) = 76.46468 79.33455 78.86250
#
# Poissons Ratio (x) = 0.22596 0.45357
# Poissons Ratio (y) = 0.21778 0.25567
# Poissons Ratio (z) = 0.43978 0.25720
#
# Static dielectric constant tensor:
#      x y z
#    x 2.070570 0.000000 0.019460 
#    y 0.000000 2.017790 0.000000 
#    z 0.019460 0.000000 1.944170 
# 
# From -- ./inp_files/63864.got.cif
#   From: 2010.05.17/outbox.cif.g08.bks.cpg/sg15_32_cif.got.tgz:63864.got - 2010.06.03 18:47:42.
