data_PCOD9293229
_publ_section_title
;
Structure prediction by ZEFSAII (Michael W. Deem and Ramdas Pophale) SiO2 
 PCOD9293229
Probable space group: C 2/C
;
_chemical_formula_sum "Si O2"
_cell_formula_units_Z 56
_cell_length_a 9.643560
_cell_length_b 23.833985
_cell_length_c 17.533398
_cell_angle_alpha 90.000000
_cell_angle_beta 135.589023
_cell_angle_gamma 90.000000
_cell_volume 2820.162985
_symmetry_space_group_name_H-M "C 2/C"
_symmetry_group_IT_number 15
_symmetry_cell_setting 'monoclinic'
loop_
_space_group_symop_operation_xyz
x,y,z
-x,y,1/2-z
-x,-y,-z
x,-y,1/2+z
1/2+x,1/2+y,z
1/2-x,1/2+y,1/2-z
1/2-x,1/2-y,-z
1/2+x,1/2-y,1/2+z
loop_
_atom_site_type_symbol
_atom_site_label
_atom_site_fract_x
_atom_site_fract_y
_atom_site_fract_z
Si Si1 0.000000 0.658482 0.250000
Si Si2 0.031548 0.594211 0.534251
Si Si3 0.798570 0.421383 0.790354
Si Si4 0.637846 0.953716 0.230232
Si Si5 0.656733 0.784752 0.532903
Si Si6 0.346816 0.705552 0.482621
Si Si7 0.500000 0.648344 0.250000
Si Si8 0.040937 0.114022 0.850449
O O1 0.065109 0.620401 0.204528
O O2 0.191395 0.692043 0.354485
O O3 0.011265 0.561810 0.605376
O O4 0.253030 0.582559 0.588790
O O5 0.883853 0.575190 0.409666
O O6 0.989055 0.660741 0.535425
O O7 0.802449 0.481080 0.751456
O O8 0.586875 0.391618 0.717991
O O9 0.500000 0.942632 0.250000
O O10 0.844268 0.919422 0.299677
O O11 0.750000 0.750000 0.500000
O O12 0.539475 0.736330 0.529115
O O13 0.829195 0.812175 0.650825
O O14 0.250000 0.750000 0.500000
O O15 0.402572 0.653367 0.557214
O O16 0.000000 0.141292 0.750000
#
# Coordination Sequence:
#
# PCOD9293229 Si02
#       8
#     4   8   8   8   8   8   4   8
#     4  12  24  42  72  98 134 168 240 288 322 412
#     4  10  22  45  65  97 135 177 228 276 337 418
#     4  11  22  46  66  95 135 176 229 281 341 397
#     4  11  25  42  69 100 132 177 223 287 344 400
#     4  11  24  42  65  98 133 173 221 273 343 388
#     4  12  24  43  70  99 131 181 226 281 339 402
#     4  10  24  42  64  94 130 176 218 272 336 412
#     4  10  23  43  67  99 137 175 226 274 344 420
#
# _framework density 19.857006999999999
#
# number of rings (size 3 to 8) (size 9 to 14) (size 15 to 20)
#    0.000    1.143    3.571    2.143    6.000    2.286 
#    0.000    1.429    0.000    0.000    0.000    0.000 
#    0.000    0.000    0.000    0.000    0.000    0.000 
#
# Total GULP energy -156147.931831 kJ/mol
# GULP energy per Si atom -5576.711851 kJ/mol
# Density = 1.981181 g / cm^3
# Si number density = 19.857007 Si / 1000 Ang^3
#
#
#
# Elastic Constant Matrix: (Units=GPa)
#
#
# Indices 1 2 3 4 5 6 
#
# 1 166.3693 38.9769 34.1865 0.0000 -3.1754 0.0000
# 2 38.9769 60.2540 32.6515 0.0000 -4.4601 0.0000
# 3 34.1865 32.6515 105.2674 0.0000 4.5769 0.0000
# 4 0.0000 0.0000 0.0000 18.9602 0.0000 0.6375
# 5 -3.1754 -4.4601 4.5769 0.0000 24.2416 0.0000
# 6 0.0000 0.0000 0.0000 0.6375 0.0000 36.3894
#
#
#
# Elastic Compliance Matrix: (Units=1/GPa)
#
#
# Indices 1 2 3 4 5 6 
#
# 1 0.007187 -0.004020 -0.001105 0.000000 0.000410 0.000000
# 2 -0.004020 0.022787 -0.005971 0.000000 0.004793 0.000000
# 3 -0.001105 -0.005971 0.011862 0.000000 -0.003483 0.000000
# 4 0.000000 0.000000 0.000000 0.052773 0.000000 -0.000925
# 5 0.000410 0.004793 -0.003483 0.000000 0.042845 0.000000
# 6 0.000000 0.000000 0.000000 -0.000925 0.000000 0.027497
#
#
# Mechanical properties :
#
#
# Convention : Reuss Voigt Hill
#
# Bulk Modulus (GPa) = 50.90490 60.39116 55.64803
# Shear Modulus (GPa) = 25.81416 30.98996 28.40206
#
# Velocity S-wave (km/s) = 3.60947 3.95480 3.78607
# Velocity P-wave (km/s) = 6.56219 7.16470 6.87006
#
# Compressibility (1/GPa) = 0.01964448
#
# Stress axis : x y z
#
# Youngs Moduli (GPa) = 139.13082 43.88383 84.30295
#
# Poissons Ratio (x) = 0.17642 0.09316
# Poissons Ratio (y) = 0.55933 0.50337
# Poissons Ratio (z) = 0.15375 0.26203
#
# Static dielectric constant tensor:
#      x y z
#    x 1.697130 0.000000 0.001840 
#    y 0.000000 1.711720 0.000000 
#    z 0.001840 0.000000 1.675710 
# 
# From -- ./inp_files/193351.got.cif
#   From: 2010.05.17/outbox.cif.g08.bks.cpg/sg15_97_cif.got.tgz:193351.got - 2010.06.03 18:47:42.
