data_PCOD9293572
_publ_section_title
;
Structure prediction by ZEFSAII (Michael W. Deem and Ramdas Pophale) SiO2 
 PCOD9293572
Probable space group: C 2/C
;
_chemical_formula_sum "Si O2"
_cell_formula_units_Z 60
_cell_length_a 18.048961
_cell_length_b 13.980723
_cell_length_c 15.208397
_cell_angle_alpha 90.000000
_cell_angle_beta 43.525188
_cell_angle_gamma 90.000000
_cell_volume 2642.886929
_symmetry_space_group_name_H-M "C 2/C"
_symmetry_group_IT_number 15
_symmetry_cell_setting 'monoclinic'
loop_
_space_group_symop_operation_xyz
x,y,z
-x,y,1/2-z
-x,-y,-z
x,-y,1/2+z
1/2+x,1/2+y,z
1/2-x,1/2+y,1/2-z
1/2-x,1/2-y,-z
1/2+x,1/2-y,1/2+z
loop_
_atom_site_type_symbol
_atom_site_label
_atom_site_fract_x
_atom_site_fract_y
_atom_site_fract_z
Si Si1 0.749039 0.138362 0.520242
Si Si2 0.437984 0.134635 0.684965
Si Si3 0.475490 0.069989 0.374465
Si Si4 0.285571 0.135044 0.650350
Si Si5 0.652381 0.524703 0.212953
Si Si6 0.923483 0.243688 0.661261
Si Si7 0.965369 0.167587 0.430683
Si Si8 0.500000 0.378072 0.250000
O O1 0.750000 0.250000 0.500000
O O2 0.642806 0.112993 0.665290
O O3 0.764577 0.085581 0.415181
O O4 0.856865 0.122874 0.484751
O O5 0.362748 0.155286 0.665441
O O6 0.505065 0.231454 0.641336
O O7 0.505687 0.038744 0.611698
O O8 0.500000 0.076948 0.250000
O O9 0.358927 0.108821 0.503775
O O10 0.555628 0.143834 0.354048
O O11 0.199662 0.218622 0.709368
O O12 0.213660 0.040681 0.730140
O O13 0.562220 0.593854 0.330516
O O14 0.596311 0.449579 0.193694
O O15 0.947165 0.196901 0.546901
O O16 0.002005 0.192169 0.664332
#
# Coordination Sequence:
#
# PCOD9293572 Si02
#       8
#     8   8   8   8   8   8   8   4
#     4  12  25  43  68 106 140 183 231 282 354 415
#     4  12  27  43  71 105 142 186 232 282 353 420
#     4  12  27  48  69 101 139 185 231 287 345 418
#     4  11  26  47  69 103 136 182 233 289 349 412
#     4  11  24  44  71 102 142 179 229 294 346 411
#     4  11  25  47  73  99 139 184 239 287 347 414
#     4  12  25  44  72 105 142 185 230 293 353 415
#     4  10  22  46  68  98 134 176 230 292 340 412
#
# _framework density 22.702446999999999
#
# number of rings (size 3 to 8) (size 9 to 14) (size 15 to 20)
#    0.000    0.533    6.000    1.200    3.733    4.800 
#    2.400    0.000    0.000    0.000    0.000    0.000 
#    0.000    0.000    0.000    0.000    0.000    0.000 
#
# Total GULP energy -167900.209403 kJ/mol
# GULP energy per Si atom -5596.673647 kJ/mol
# Density = 2.265078 g / cm^3
# Si number density = 22.702447 Si / 1000 Ang^3
#
#
#
# Elastic Constant Matrix: (Units=GPa)
#
#
# Indices 1 2 3 4 5 6 
#
# 1 68.2073 11.5502 13.9587 0.0000 -2.8967 0.0000
# 2 11.5502 98.8641 16.5496 0.0000 -22.5357 0.0000
# 3 13.9587 16.5496 107.1255 0.0000 -19.9873 0.0000
# 4 0.0000 0.0000 0.0000 31.7638 0.0000 -8.7850
# 5 -2.8967 -22.5357 -19.9873 0.0000 32.6229 0.0000
# 6 0.0000 0.0000 0.0000 -8.7850 0.0000 35.7094
#
#
#
# Elastic Compliance Matrix: (Units=1/GPa)
#
#
# Indices 1 2 3 4 5 6 
#
# 1 0.015298 -0.001691 -0.001916 0.000000 -0.000983 0.000000
# 2 -0.001691 0.012204 -0.000136 0.000000 0.008197 0.000000
# 3 -0.001916 -0.000136 0.010790 0.000000 0.006347 0.000000
# 4 0.000000 0.000000 0.000000 0.033781 0.000000 0.008311
# 5 -0.000983 0.008197 0.006347 0.000000 0.040117 0.000000
# 6 0.000000 0.000000 0.000000 0.008311 0.000000 0.030048
#
#
# Mechanical properties :
#
#
# Convention : Reuss Voigt Hill
#
# Bulk Modulus (GPa) = 32.46006 39.81266 36.13636
# Shear Modulus (GPa) = 31.25199 35.49511 33.37355
#
# Velocity S-wave (km/s) = 3.71427 3.95839 3.83827
# Velocity P-wave (km/s) = 5.72044 6.20215 5.96616
#
# Compressibility (1/GPa) = 0.03080709
#
# Stress axis : x y z
#
# Youngs Moduli (GPa) = 65.36904 81.94319 92.68200
#
# Poissons Ratio (x) = 0.13854 0.17754
# Poissons Ratio (y) = 0.11052 0.01257
# Poissons Ratio (z) = 0.12522 0.01111
#
# Static dielectric constant tensor:
#      x y z
#    x 1.875630 0.000000 -0.016080 
#    y 0.000000 1.835080 0.000000 
#    z -0.016080 0.000000 1.845030 
# 
# From -- ./inp_files/215180.got.cif
#   From: 2010.05.17/outbox.cif.g08.bks.cpg/sg15_108_cif.got.tgz:215180.got - 2010.06.03 18:47:42.
