data_PCOD9293232
_publ_section_title
;
Structure prediction by ZEFSAII (Michael W. Deem and Ramdas Pophale) SiO2 
 PCOD9293232
Probable space group: C 2/C
;
_chemical_formula_sum "Si O2"
_cell_formula_units_Z 64
_cell_length_a 14.755256
_cell_length_b 16.524149
_cell_length_c 17.630806
_cell_angle_alpha 90.000000
_cell_angle_beta 142.066268
_cell_angle_gamma 90.000000
_cell_volume 2642.629698
_symmetry_space_group_name_H-M "C 2/C"
_symmetry_group_IT_number 15
_symmetry_cell_setting 'monoclinic'
loop_
_space_group_symop_operation_xyz
x,y,z
-x,y,1/2-z
-x,-y,-z
x,-y,1/2+z
1/2+x,1/2+y,z
1/2-x,1/2+y,1/2-z
1/2-x,1/2-y,-z
1/2+x,1/2-y,1/2+z
loop_
_atom_site_type_symbol
_atom_site_label
_atom_site_fract_x
_atom_site_fract_y
_atom_site_fract_z
Si Si1 0.081764 0.491211 0.460416
Si Si2 0.074043 0.622335 0.086189
Si Si3 0.105451 0.714511 0.251831
Si Si4 0.095746 0.806191 0.888879
Si Si5 0.899051 0.742050 0.887826
Si Si6 0.706637 0.469989 0.023347
Si Si7 0.732161 0.081564 0.767117
Si Si8 0.997488 0.105060 0.837877
O O1 0.143991 0.430123 0.564788
O O2 0.136591 0.481114 0.412708
O O3 0.083505 0.580531 0.496250
O O4 0.907760 0.474216 0.341463
O O5 0.133910 0.646995 0.206558
O O6 0.039135 0.706171 0.023271
O O7 0.276976 0.739854 0.371998
O O8 0.021404 0.797441 0.170069
O O9 0.000000 0.684704 0.250000
O O10 0.000000 0.786210 0.750000
O O11 0.976175 0.800097 0.878618
O O12 0.250000 0.750000 0.000000
O O13 0.138912 0.900469 0.924306
O O14 0.826608 0.672171 0.787023
O O15 0.712837 0.436496 0.112101
O O16 0.632061 0.557647 0.965086
O O17 0.859963 0.067802 0.791434
O O18 0.000000 0.086738 0.750000
#
# Coordination Sequence:
#
# PCOD9293232 Si02
#       8
#     8   8   8   8   8   8   8   8
#     4  10  24  42  73  99 141 183 238 290 366 441
#     4  10  23  43  69  99 136 186 239 290 366 435
#     4  10  24  44  69 100 139 185 239 301 364 429
#     4  12  27  45  72 112 150 192 245 300 374 451
#     4  10  24  42  70  97 142 184 232 303 364 434
#     4  12  25  42  73 104 141 183 237 299 360 435
#     4  10  22  45  66 100 141 184 229 297 362 428
#     4  10  24  43  68  96 141 183 233 290 361 427
#
# _framework density 24.218299999999999
#
# number of rings (size 3 to 8) (size 9 to 14) (size 15 to 20)
#    0.000    1.500    0.000    3.375   15.750    2.500 
#    2.250    0.000    0.000    0.000    0.000    0.000 
#    0.000    0.000    0.000    0.000    0.000    0.000 
#
# Total GULP energy -178337.712123 kJ/mol
# GULP energy per Si atom -5573.053504 kJ/mol
# Density = 2.416318 g / cm^3
# Si number density = 24.218300 Si / 1000 Ang^3
#
#
#
# Elastic Constant Matrix: (Units=GPa)
#
#
# Indices 1 2 3 4 5 6 
#
# 1 173.8310 8.4785 25.3861 0.0002 -3.3950 0.0001
# 2 8.4785 37.7137 8.2603 0.0002 -2.1001 0.0002
# 3 25.3861 8.2603 71.0770 0.0004 -15.3063 0.0004
# 4 0.0002 0.0002 0.0004 22.3319 0.0000 1.8812
# 5 -3.3950 -2.1001 -15.3063 0.0000 15.9171 0.0001
# 6 0.0001 0.0002 0.0004 1.8812 0.0001 23.0525
#
#
#
# Elastic Compliance Matrix: (Units=1/GPa)
#
#
# Indices 1 2 3 4 5 6 
#
# 1 0.006113 -0.000929 -0.002297 0.000000 -0.001027 0.000000
# 2 -0.000929 0.027355 -0.002665 0.000000 0.000849 0.000000
# 3 -0.002297 -0.002665 0.018940 0.000000 0.017372 0.000000
# 4 0.000000 0.000000 0.000000 0.045089 0.000000 -0.003680
# 5 -0.001027 0.000849 0.017372 0.000000 0.079424 -0.000001
# 6 0.000000 0.000000 0.000000 -0.003680 -0.000001 0.043680
#
#
# Mechanical properties :
#
#
# Convention : Reuss Voigt Hill
#
# Bulk Modulus (GPa) = 24.61302 40.76347 32.68824
# Shear Modulus (GPa) = 20.33150 28.29343 24.31246
#
# Velocity S-wave (km/s) = 2.90057 3.42170 3.17186
# Velocity P-wave (km/s) = 4.62632 5.69903 5.19046
#
# Compressibility (1/GPa) = 0.04062891
#
# Stress axis : x y z
#
# Youngs Moduli (GPa) = 163.57628 36.55609 52.79764
#
# Poissons Ratio (x) = 0.03394 0.12126
# Poissons Ratio (y) = 0.15188 0.14069
# Poissons Ratio (z) = 0.37569 0.09741
#
# Static dielectric constant tensor:
#      x y z
#    x 1.967920 0.000000 0.020000 
#    y 0.000000 2.070070 0.000000 
#    z 0.020000 0.000000 2.040150 
# 
# From -- ./inp_files/206469.got.cif
#   From: 2010.05.17/outbox.cif.g08.bks.cpg/sg15_104_cif.got.tgz:206469.got - 2010.06.03 18:47:42.
