data_PCOD9293970
_publ_section_title
;
Structure prediction by ZEFSAII (Michael W. Deem and Ramdas Pophale) SiO2 
 PCOD9293970
Probable space group: C 2/C
;
_chemical_formula_sum "Si O2"
_cell_formula_units_Z 40
_cell_length_a 18.532820
_cell_length_b 10.350541
_cell_length_c 9.664569
_cell_angle_alpha 90.000000
_cell_angle_beta 69.638219
_cell_angle_gamma 90.000000
_cell_volume 1738.060730
_symmetry_space_group_name_H-M "C 2/C"
_symmetry_group_IT_number 15
_symmetry_cell_setting 'monoclinic'
loop_
_space_group_symop_operation_xyz
x,y,z
-x,y,1/2-z
-x,-y,-z
x,-y,1/2+z
1/2+x,1/2+y,z
1/2-x,1/2+y,1/2-z
1/2-x,1/2-y,-z
1/2+x,1/2-y,1/2+z
loop_
_atom_site_type_symbol
_atom_site_label
_atom_site_fract_x
_atom_site_fract_y
_atom_site_fract_z
Si Si1 0.351650 0.843429 0.673310
Si Si2 0.420569 0.021009 0.869294
Si Si3 0.696709 0.679172 0.147901
Si Si4 0.146202 0.690596 0.926634
Si Si5 0.677522 0.392975 0.132664
O O1 0.376365 0.946969 0.772803
O O2 0.260257 0.859664 0.720319
O O3 0.360180 0.695850 0.721124
O O4 0.387067 0.873830 0.499391
O O5 0.500000 0.060613 0.750000
O O6 0.422973 0.898174 0.974397
O O7 0.642969 0.776896 0.267161
O O8 0.659854 0.543933 0.131963
O O9 0.750000 0.750000 0.000000
O O10 0.229006 0.621871 0.908293
O O11 0.149554 0.819627 0.014818
#
# Coordination Sequence:
#
# PCOD9293970 Si02
#       5
#     8   8   8   8   8
#     4  10  23  37  60  93 123 156 206 251 304 364
#     4  11  22  40  62  86 125 164 207 249 299 361
#     4  11  23  33  62  91 124 159 197 251 318 373
#     4   9  20  34  55  84 122 153 199 246 306 356
#     4   9  19  36  54  85 124 151 191 260 302 358
#
# _framework density 23.014154999999999
#
# number of rings (size 3 to 8) (size 9 to 14) (size 15 to 20)
#    0.000    2.000    2.000    1.800    8.400    0.000 
#    0.000    0.000    0.000    6.000    0.000    0.000 
#    0.000    0.000    0.000    0.000    0.000    0.000 
#
# Total GULP energy -111537.521593 kJ/mol
# GULP energy per Si atom -5576.876080 kJ/mol
# Density = 2.296177 g / cm^3
# Si number density = 23.014155 Si / 1000 Ang^3
#
#
#
# Elastic Constant Matrix: (Units=GPa)
#
#
# Indices 1 2 3 4 5 6 
#
# 1 31.0895 2.0796 22.6946 0.0000 -6.5996 0.0000
# 2 2.0796 138.1988 54.9410 0.0000 -14.1235 0.0000
# 3 22.6946 54.9410 184.6924 0.0000 -16.0025 0.0000
# 4 0.0000 0.0000 0.0000 41.4937 0.0000 -3.0994
# 5 -6.5996 -14.1235 -16.0025 0.0000 32.3513 0.0000
# 6 0.0000 0.0000 0.0000 -3.0994 0.0000 18.2726
#
#
#
# Elastic Compliance Matrix: (Units=1/GPa)
#
#
# Indices 1 2 3 4 5 6 
#
# 1 0.036633 0.001869 -0.004533 0.000000 0.006046 0.000000
# 2 0.001869 0.008497 -0.002510 0.000000 0.002849 0.000000
# 3 -0.004533 -0.002510 0.006836 0.000000 0.001361 0.000000
# 4 0.000000 0.000000 0.000000 0.024409 0.000000 0.004140
# 5 0.006046 0.002849 0.001361 0.000000 0.034061 0.000000
# 6 0.000000 0.000000 0.000000 0.004140 0.000000 0.055429
#
#
# Mechanical properties :
#
#
# Convention : Reuss Voigt Hill
#
# Bulk Modulus (GPa) = 24.02901 57.04568 40.53734
# Shear Modulus (GPa) = 26.30367 36.70789 31.50578
#
# Velocity S-wave (km/s) = 3.38440 3.99809 3.70398
# Velocity P-wave (km/s) = 5.07305 6.79368 5.99541
#
# Compressibility (1/GPa) = 0.04161636
#
# Stress axis : x y z
#
# Youngs Moduli (GPa) = 27.29775 117.68837 146.28096
#
# Poissons Ratio (x) = -0.21996 0.66316
# Poissons Ratio (y) = -0.05102 0.36723
# Poissons Ratio (z) = 0.12375 0.29545
#
# Static dielectric constant tensor:
#      x y z
#    x 1.868850 0.000000 0.060710 
#    y 0.000000 2.039110 0.000000 
#    z 0.060710 0.000000 1.943460 
# 
# From -- ./inp_files/54040.got.cif
#   From: 2010.05.17/outbox.cif.g08.bks.cpg/sg15_28_cif.got.tgz:54040.got - 2010.06.03 18:47:42.
