data_PCOD9293871
_publ_section_title
;
Structure prediction by ZEFSAII (Michael W. Deem and Ramdas Pophale) SiO2 
 PCOD9293871
Probable space group: C 2/C
;
_chemical_formula_sum "Si O2"
_cell_formula_units_Z 40
_cell_length_a 13.554624
_cell_length_b 23.950411
_cell_length_c 8.231257
_cell_angle_alpha 90.000000
_cell_angle_beta 135.096931
_cell_angle_gamma 90.000000
_cell_volume 1886.321178
_symmetry_space_group_name_H-M "C 2/C"
_symmetry_group_IT_number 15
_symmetry_cell_setting 'monoclinic'
loop_
_space_group_symop_operation_xyz
x,y,z
-x,y,1/2-z
-x,-y,-z
x,-y,1/2+z
1/2+x,1/2+y,z
1/2-x,1/2+y,1/2-z
1/2-x,1/2-y,-z
1/2+x,1/2-y,1/2+z
loop_
_atom_site_type_symbol
_atom_site_label
_atom_site_fract_x
_atom_site_fract_y
_atom_site_fract_z
Si Si1 0.500000 0.004219 0.250000
Si Si2 0.708593 0.745894 0.682065
Si Si3 0.500000 0.314693 0.750000
Si Si4 0.905989 0.852340 0.977405
Si Si5 0.976474 0.681503 0.040910
Si Si6 0.136101 0.421634 0.628073
O O1 0.432222 0.043063 0.306659
O O2 0.618480 0.962521 0.455960
O O3 0.630964 0.727247 0.425517
O O4 0.805639 0.798247 0.841484
O O5 0.570798 0.762634 0.626614
O O6 0.813647 0.694840 0.835644
O O7 0.488869 0.350358 0.901940
O O8 0.793440 0.902436 0.847005
O O9 0.000000 0.851770 0.250000
O O10 0.000000 0.661397 0.250000
O O11 0.040949 0.634439 0.999446
#
# Coordination Sequence:
#
# PCOD9293871 Si02
#       6
#     4   8   4   8   8   8
#     4  10  22  49  70  98 128 172 233 312 342 406
#     4  11  24  39  60  99 145 186 223 271 328 416
#     4  12  26  39  66  96 146 188 231 268 330 408
#     4  11  26  45  66 102 142 184 230 277 343 420
#     4  11  22  37  66 100 137 187 223 272 340 419
#     4  10  24  43  74 100 130 175 236 290 354 405
#
# _framework density 21.205297000000002
#
# number of rings (size 3 to 8) (size 9 to 14) (size 15 to 20)
#    0.000    1.200    3.000    1.800    8.400    1.600 
#    3.600    1.000    0.000    0.000    0.000    0.000 
#    0.000    0.000    0.000    0.000    0.000    0.000 
#
# Total GULP energy -111468.622952 kJ/mol
# GULP energy per Si atom -5573.431148 kJ/mol
# Density = 2.115703 g / cm^3
# Si number density = 21.205297 Si / 1000 Ang^3
#
#
#
# Elastic Constant Matrix: (Units=GPa)
#
#
# Indices 1 2 3 4 5 6 
#
# 1 75.7958 27.5014 43.5973 0.0000 8.5222 0.0000
# 2 27.5014 85.3028 55.3699 0.0000 11.1337 0.0000
# 3 43.5973 55.3699 177.1749 0.0000 11.4090 0.0000
# 4 0.0000 0.0000 0.0000 -25.7382 0.0000 35.7899
# 5 8.5222 11.1337 11.4090 0.0000 36.2938 0.0000
# 6 0.0000 0.0000 0.0000 35.7899 0.0000 -13.3019
#
#
#
# Elastic Compliance Matrix: (Units=1/GPa)
#
#
# Indices 1 2 3 4 5 6 
#
# 1 0.016198 -0.003089 -0.002895 0.000000 -0.001946 0.000000
# 2 -0.003089 0.015652 -0.003949 0.000000 -0.002835 0.000000
# 3 -0.002895 -0.003949 0.007623 0.000000 -0.000505 0.000000
# 4 0.000000 0.000000 0.000000 0.014173 0.000000 0.038133
# 5 -0.001946 -0.002835 -0.000505 0.000000 0.029038 0.000000
# 6 0.000000 0.000000 0.000000 0.038133 0.000000 0.027423
#
#
# Mechanical properties :
#
#
# Convention : Reuss Voigt Hill
#
# Bulk Modulus (GPa) = 51.00150 65.69009 58.34579
# Shear Modulus (GPa) = 36.62741 13.57106 25.09923
#
# Velocity S-wave (km/s) = 4.16056 2.53254 3.44413
# Velocity P-wave (km/s) = 6.86905 6.29262 6.58714
#
# Compressibility (1/GPa) = 0.01960727
#
# Stress axis : x y z
#
# Youngs Moduli (GPa) = 61.73507 63.88953 131.17902
#
# Poissons Ratio (x) = 0.19736 0.37979
# Poissons Ratio (y) = 0.19070 0.51801
# Poissons Ratio (z) = 0.17874 0.25229
#
# Static dielectric constant tensor:
#      x y z
#    x 1.933720 0.000000 -0.025080 
#    y 0.000000 1.777480 0.000000 
#    z -0.025080 0.000000 1.775870 
# 
# From -- ./inp_files/42462.got.cif
#   From: 2010.05.17/outbox.cif.g08.bks.cpg/sg15_22_cif.got.tgz:42462.got - 2010.06.03 18:47:42.
