data_PCOD9293629
_publ_section_title
;
Structure prediction by ZEFSAII (Michael W. Deem and Ramdas Pophale) SiO2 
 PCOD9293629
Probable space group: C 2/C
;
_chemical_formula_sum "Si O2"
_cell_formula_units_Z 36
_cell_length_a 21.562856
_cell_length_b 11.412968
_cell_length_c 9.690333
_cell_angle_alpha 90.000000
_cell_angle_beta 140.420496
_cell_angle_gamma 90.000000
_cell_volume 1519.441994
_symmetry_space_group_name_H-M "C 2/C"
_symmetry_group_IT_number 15
_symmetry_cell_setting 'monoclinic'
loop_
_space_group_symop_operation_xyz
x,y,z
-x,y,1/2-z
-x,-y,-z
x,-y,1/2+z
1/2+x,1/2+y,z
1/2-x,1/2+y,1/2-z
1/2-x,1/2-y,-z
1/2+x,1/2-y,1/2+z
loop_
_atom_site_type_symbol
_atom_site_label
_atom_site_fract_x
_atom_site_fract_y
_atom_site_fract_z
Si Si1 0.330448 0.140703 0.214491
Si Si2 0.000000 0.044761 0.250000
Si Si3 0.842737 0.440962 0.026972
Si Si4 0.030976 0.748905 0.596370
Si Si5 0.155679 0.849608 0.594693
O O1 0.357282 0.051091 0.387785
O O2 0.416972 0.231876 0.375217
O O3 0.223819 0.183317 0.081081
O O4 0.336631 0.064401 0.089596
O O5 0.036885 0.130213 0.191786
O O6 0.089144 0.961216 0.445899
O O7 0.920007 0.354184 0.229988
O O8 0.736276 0.380567 0.849237
O O9 0.085315 0.756508 0.543648
#
# Coordination Sequence:
#
# PCOD9293629 Si02
#       5
#     8   4   8   8   8
#     4  10  23  43  74 103 134 175 227 282 345 403
#     4  12  22  46  62  98 138 186 226 272 338 406
#     4  10  22  46  71 101 136 176 226 284 341 403
#     4  12  22  44  72  98 138 183 224 279 350 402
#     4  10  25  40  70  97 138 183 225 277 333 408
#
# _framework density 23.692907999999999
#
# number of rings (size 3 to 8) (size 9 to 14) (size 15 to 20)
#    1.333    0.000    2.222    3.333    0.000    1.778 
#    4.000    2.222    0.000    0.000    0.000    0.000 
#    0.000    0.000    0.000    0.000    0.000    0.000 
#
# Total GULP energy -100606.708897 kJ/mol
# GULP energy per Si atom -5589.261605 kJ/mol
# Density = 2.363898 g / cm^3
# Si number density = 23.692908 Si / 1000 Ang^3
#
#
#
# Elastic Constant Matrix: (Units=GPa)
#
#
# Indices 1 2 3 4 5 6 
#
# 1 94.4296 16.2178 34.6142 0.0000 20.1391 0.0000
# 2 16.2178 49.7525 16.5276 0.0000 9.3920 0.0000
# 3 34.6142 16.5276 96.2665 0.0000 23.2566 0.0000
# 4 0.0000 0.0000 0.0000 27.3597 0.0000 7.8903
# 5 20.1391 9.3920 23.2566 0.0000 36.2017 0.0000
# 6 0.0000 0.0000 0.0000 7.8903 0.0000 30.2308
#
#
#
# Elastic Compliance Matrix: (Units=1/GPa)
#
#
# Indices 1 2 3 4 5 6 
#
# 1 0.013160 -0.002347 -0.003205 0.000000 -0.004653 0.000000
# 2 -0.002347 0.022176 -0.002236 0.000000 -0.003011 0.000000
# 3 -0.003205 -0.002236 0.013439 0.000000 -0.006270 0.000000
# 4 0.000000 0.000000 0.000000 0.039525 0.000000 -0.010316
# 5 -0.004653 -0.003011 -0.006270 0.000000 0.035021 0.000000
# 6 0.000000 0.000000 0.000000 -0.010316 0.000000 0.035771
#
#
# Mechanical properties :
#
#
# Convention : Reuss Voigt Hill
#
# Bulk Modulus (GPa) = 30.12086 41.68532 35.90309
# Shear Modulus (GPa) = 26.92018 30.29768 28.60893
#
# Velocity S-wave (km/s) = 3.37443 3.57986 3.47866
# Velocity P-wave (km/s) = 5.28422 5.89232 5.59654
#
# Compressibility (1/GPa) = 0.03319958
#
# Stress axis : x y z
#
# Youngs Moduli (GPa) = 75.98699 45.09441 74.41069
#
# Poissons Ratio (x) = 0.10583 0.23848
# Poissons Ratio (y) = 0.17832 0.16638
# Poissons Ratio (z) = 0.24353 0.10083
#
# Static dielectric constant tensor:
#      x y z
#    x 1.943740 0.000000 -0.036960 
#    y 0.000000 1.854040 0.000000 
#    z -0.036960 0.000000 1.933400 
# 
# From -- ./inp_files/117286.got.cif
#   From: 2010.05.17/outbox.cif.g08.bks.cpg/sg15_59_cif.got.tgz:117286.got - 2010.06.03 18:47:42.
