data_PCOD9293959
_publ_section_title
;
Structure prediction by ZEFSAII (Michael W. Deem and Ramdas Pophale) SiO2 
 PCOD9293959
Probable space group: C 2/C
;
_chemical_formula_sum "Si O2"
_cell_formula_units_Z 56
_cell_length_a 21.070219
_cell_length_b 17.886927
_cell_length_c 8.366577
_cell_angle_alpha 90.000000
_cell_angle_beta 116.765077
_cell_angle_gamma 90.000000
_cell_volume 2815.374633
_symmetry_space_group_name_H-M "C 2/C"
_symmetry_group_IT_number 15
_symmetry_cell_setting 'monoclinic'
loop_
_space_group_symop_operation_xyz
x,y,z
-x,y,1/2-z
-x,-y,-z
x,-y,1/2+z
1/2+x,1/2+y,z
1/2-x,1/2+y,1/2-z
1/2-x,1/2-y,-z
1/2+x,1/2-y,1/2+z
loop_
_atom_site_type_symbol
_atom_site_label
_atom_site_fract_x
_atom_site_fract_y
_atom_site_fract_z
Si Si1 0.277500 0.659559 0.218946
Si Si2 0.695552 0.030576 0.985814
Si Si3 0.461158 0.230876 0.431698
Si Si4 0.284190 0.886462 0.329333
Si Si5 0.957900 0.565963 0.542131
Si Si6 0.832490 0.785793 0.440549
Si Si7 0.613204 0.745776 0.989647
O O1 0.205993 0.708562 0.155803
O O2 0.333301 0.677275 0.419939
O O3 0.254323 0.576269 0.153148
O O4 0.313047 0.695200 0.100208
O O5 0.695400 0.067551 0.809590
O O6 0.619819 0.041804 0.986383
O O7 0.712967 0.943281 0.019736
O O8 0.456432 0.141170 0.437898
O O9 0.415273 0.271771 0.514114
O O10 0.543125 0.253724 0.519800
O O11 0.419546 0.252604 0.223169
O O12 0.207747 0.849097 0.208211
O O13 0.339995 0.819564 0.420035
O O14 0.000000 0.585656 0.750000
O O15 0.000000 0.500000 0.500000
#
# Coordination Sequence:
#
# PCOD9293959 Si02
#       7
#     8   8   8   8   8   8   8
#     4   9  19  37  58  79 111 146 197 241 278 334
#     4  11  21  38  56  83 112 155 187 235 283 333
#     4  11  23  37  56  83 113 153 192 233 291 333
#     4  10  23  37  58  82 117 149 195 234 281 340
#     4  12  26  37  54  81 119 159 189 224 279 345
#     4   9  19  37  57  81 106 148 199 237 279 339
#     4  10  23  38  54  84 119 146 190 240 277 347
#
# _framework density 19.890779999999999
#
# number of rings (size 3 to 8) (size 9 to 14) (size 15 to 20)
#    0.000    1.714    1.429    3.429    8.000    3.429 
#    0.000    0.000    0.000    0.857    0.000    0.000 
#    0.000    0.000    0.000    0.000    0.000    0.000 
#
# Total GULP energy -156459.873572 kJ/mol
# GULP energy per Si atom -5587.852628 kJ/mol
# Density = 1.984551 g / cm^3
# Si number density = 19.890780 Si / 1000 Ang^3
#
#
#
# Elastic Constant Matrix: (Units=GPa)
#
#
# Indices 1 2 3 4 5 6 
#
# 1 74.9119 28.6485 -2.6963 0.0000 4.2812 0.0000
# 2 28.6485 40.0624 8.5381 0.0000 16.2803 0.0000
# 3 -2.6963 8.5381 68.6642 0.0000 17.0883 0.0000
# 4 0.0000 0.0000 0.0000 32.1690 0.0000 0.4773
# 5 4.2812 16.2803 17.0883 0.0000 21.6160 0.0000
# 6 0.0000 0.0000 0.0000 0.4773 0.0000 22.3924
#
#
#
# Elastic Compliance Matrix: (Units=1/GPa)
#
#
# Indices 1 2 3 4 5 6 
#
# 1 0.019712 -0.017907 0.000767 0.000000 0.008977 0.000000
# 2 -0.017907 0.052684 0.002164 0.000000 -0.037843 0.000000
# 3 0.000767 0.002164 0.018385 0.000000 -0.016316 0.000000
# 4 0.000000 0.000000 0.000000 0.031096 0.000000 -0.000663
# 5 0.008977 -0.037843 -0.016316 0.000000 0.085884 0.000000
# 6 0.000000 0.000000 0.000000 -0.000663 0.000000 0.044672
#
#
# Mechanical properties :
#
#
# Convention : Reuss Voigt Hill
#
# Bulk Modulus (GPa) = 16.43998 28.06879 22.25438
# Shear Modulus (GPa) = 16.52006 25.17869 20.84938
#
# Velocity S-wave (km/s) = 2.88503 3.56173 3.24109
# Velocity P-wave (km/s) = 4.40238 5.57285 5.02183
#
# Compressibility (1/GPa) = 0.06082733
#
# Stress axis : x y z
#
# Youngs Moduli (GPa) = 50.73103 18.98114 54.39173
#
# Poissons Ratio (x) = 0.33990 -0.04170
# Poissons Ratio (y) = 0.90845 -0.11769
# Poissons Ratio (z) = -0.03889 -0.04107
#
# Static dielectric constant tensor:
#      x y z
#    x 1.739990 0.000000 -0.045770 
#    y 0.000000 1.717460 0.000000 
#    z -0.045770 0.000000 1.741800 
# 
# From -- ./inp_files/56728.got.cif
#   From: 2010.05.17/outbox.cif.g08.bks.cpg/sg15_29_cif.got.tgz:56728.got - 2010.06.03 18:47:42.
