data_PCOD9293194
_publ_section_title
;
Structure prediction by ZEFSAII (Michael W. Deem and Ramdas Pophale) SiO2 
 PCOD9293194
Probable space group: C 2/C
;
_chemical_formula_sum "Si O2"
_cell_formula_units_Z 52
_cell_length_a 14.640575
_cell_length_b 7.499691
_cell_length_c 19.328259
_cell_angle_alpha 90.000000
_cell_angle_beta 112.308398
_cell_angle_gamma 90.000000
_cell_volume 1963.397862
_symmetry_space_group_name_H-M "C 2/C"
_symmetry_group_IT_number 15
_symmetry_cell_setting 'monoclinic'
loop_
_space_group_symop_operation_xyz
x,y,z
-x,y,1/2-z
-x,-y,-z
x,-y,1/2+z
1/2+x,1/2+y,z
1/2-x,1/2+y,1/2-z
1/2-x,1/2-y,-z
1/2+x,1/2-y,1/2+z
loop_
_atom_site_type_symbol
_atom_site_label
_atom_site_fract_x
_atom_site_fract_y
_atom_site_fract_z
Si Si1 0.965590 0.356947 0.045332
Si Si2 0.877924 0.127205 0.821753
Si Si3 0.755183 0.503611 0.459568
Si Si4 0.074308 0.403874 0.221927
Si Si5 0.135174 0.136570 0.053149
Si Si6 0.221113 0.871513 0.809213
Si Si7 0.000000 0.743974 0.250000
O O1 0.019835 0.396624 0.133299
O O2 0.019103 0.185637 0.027213
O O3 0.848733 0.386385 0.015696
O O4 0.000000 0.500000 0.000000
O O5 0.853436 0.990921 0.876635
O O6 0.824979 0.042860 0.739489
O O7 0.987321 0.154802 0.819132
O O8 0.836046 0.319397 0.833930
O O9 0.802124 0.325320 0.434545
O O10 0.678543 0.455647 0.497388
O O11 0.796850 0.885483 0.615393
O O12 0.172028 0.292869 0.255638
O O13 0.000000 0.294404 0.250000
O O14 0.085222 0.591722 0.266838
#
# Coordination Sequence:
#
# PCOD9293194 Si02
#       7
#     8   8   8   8   8   8   4
#     4  10  22  44  79 107 157 210 260 328 407 475
#     4  12  26  45  77 113 156 206 262 337 390 494
#     4  10  25  46  79 116 156 218 264 338 414 489
#     4  10  25  49  76 104 154 204 264 326 391 475
#     4  10  23  48  75 116 163 205 274 333 410 496
#     4  12  26  46  79 113 158 201 272 328 404 477
#     4  10  28  46  76 112 148 210 270 316 404 470
#
# _framework density 26.484698000000002
#
# number of rings (size 3 to 8) (size 9 to 14) (size 15 to 20)
#    0.462    0.923    1.538    1.846    9.692    4.308 
#    0.000    0.769    0.000    0.000    0.000    0.000 
#    0.000    0.000    0.000    0.000    0.000    0.000 
#
# Total GULP energy -145087.869171 kJ/mol
# GULP energy per Si atom -5580.302660 kJ/mol
# Density = 2.642442 g / cm^3
# Si number density = 26.484698 Si / 1000 Ang^3
#
#
#
# Elastic Constant Matrix: (Units=GPa)
#
#
# Indices 1 2 3 4 5 6 
#
# 1 106.3266 27.8078 66.5932 0.0000 -21.8089 0.0000
# 2 27.8078 91.1330 50.4106 0.0000 -0.7498 0.0000
# 3 66.5932 50.4106 199.6823 0.0000 -18.4646 0.0000
# 4 0.0000 0.0000 0.0000 -5.9329 0.0000 -37.8259
# 5 -21.8089 -0.7498 -18.4646 0.0000 49.6179 0.0000
# 6 0.0000 0.0000 0.0000 -37.8259 0.0000 34.3370
#
#
#
# Elastic Compliance Matrix: (Units=1/GPa)
#
#
# Indices 1 2 3 4 5 6 
#
# 1 0.012974 -0.002039 -0.003405 0.000000 0.004405 0.000000
# 2 -0.002039 0.013127 -0.002794 0.000000 -0.001738 0.000000
# 3 -0.003405 -0.002794 0.006946 0.000000 0.001046 0.000000
# 4 0.000000 0.000000 0.000000 -0.021007 0.000000 -0.023142
# 5 0.004405 -0.001738 0.001046 0.000000 0.022453 0.000000
# 6 0.000000 0.000000 0.000000 -0.023142 0.000000 0.003630
#
#
# Mechanical properties :
#
#
# Convention : Reuss Voigt Hill
#
# Bulk Modulus (GPa) = 60.35175 76.30724 68.32949
# Shear Modulus (GPa) = 83.16411 32.42641 57.79526
#
# Velocity S-wave (km/s) = 5.60972 3.50286 4.67648
# Velocity P-wave (km/s) = 8.04957 6.72565 7.41721
#
# Compressibility (1/GPa) = 0.01656953
#
# Stress axis : x y z
#
# Youngs Moduli (GPa) = 77.07609 76.18049 143.97571
#
# Poissons Ratio (x) = 0.15536 0.49019
# Poissons Ratio (y) = 0.15718 0.40234
# Poissons Ratio (z) = 0.26242 0.21289
#
# Static dielectric constant tensor:
#      x y z
#    x 2.299000 0.000000 0.106300 
#    y 0.000000 2.273870 0.000000 
#    z 0.106300 0.000000 2.006810 
# 
# From -- ./inp_files/242518.got.cif
#   From: 2010.05.17/outbox.cif.g08.bks.cpg/sg15_122_cif.got.tgz:242518.got - 2010.06.03 18:47:42.
