data_PCOD9293876
_publ_section_title
;
Structure prediction by ZEFSAII (Michael W. Deem and Ramdas Pophale) SiO2 
 PCOD9293876
Probable space group: C 2/C
;
_chemical_formula_sum "Si O2"
_cell_formula_units_Z 44
_cell_length_a 23.660385
_cell_length_b 6.907967
_cell_length_c 13.520115
_cell_angle_alpha 90.000000
_cell_angle_beta 44.373433
_cell_angle_gamma 90.000000
_cell_volume 1545.381946
_symmetry_space_group_name_H-M "C 2/C"
_symmetry_group_IT_number 15
_symmetry_cell_setting 'monoclinic'
loop_
_space_group_symop_operation_xyz
x,y,z
-x,y,1/2-z
-x,-y,-z
x,-y,1/2+z
1/2+x,1/2+y,z
1/2-x,1/2+y,1/2-z
1/2-x,1/2-y,-z
1/2+x,1/2-y,1/2+z
loop_
_atom_site_type_symbol
_atom_site_label
_atom_site_fract_x
_atom_site_fract_y
_atom_site_fract_z
Si Si1 0.172502 0.936982 0.503676
Si Si2 0.000000 0.127586 0.250000
Si Si3 0.181387 0.521899 0.043192
Si Si4 0.307390 0.044266 0.693790
Si Si5 0.429881 0.701758 0.136640
Si Si6 0.583347 0.759344 0.832588
O O1 0.079140 0.995392 0.623052
O O2 0.168740 0.707788 0.536435
O O3 0.232442 0.033071 0.508602
O O4 0.216709 0.977098 0.345483
O O5 0.976843 0.243862 0.180270
O O6 0.186305 0.604413 0.926811
O O7 0.115972 0.632183 0.193670
O O8 0.361054 0.856490 0.652277
O O9 0.085893 0.026889 0.836427
O O10 0.345163 0.801432 0.222977
O O11 0.488800 0.783763 0.977834
#
# Coordination Sequence:
#
# PCOD9293876 Si02
#       6
#     8   4   8   8   8   8
#     4  10  24  49  78 122 158 226 288 343 414 512
#     4  12  24  50  80 102 176 210 268 360 410 492
#     4  10  22  49  83 116 171 218 276 351 430 495
#     4  11  24  50  82 118 167 221 280 350 424 496
#     4  11  25  46  81 124 159 213 279 344 428 511
#     4  10  24  46  77 123 165 210 279 338 423 509
#
# _framework density 28.471926
#
# number of rings (size 3 to 8) (size 9 to 14) (size 15 to 20)
#    0.000    1.455    0.000    4.909    0.000    5.091 
#   22.909    5.455    0.000    0.000    0.000    0.000 
#    0.000    0.000    0.000    0.000    0.000    0.000 
#
# Total GULP energy -123435.394436 kJ/mol
# GULP energy per Si atom -5610.699747 kJ/mol
# Density = 2.840712 g / cm^3
# Si number density = 28.471926 Si / 1000 Ang^3
#
#
#
# Elastic Constant Matrix: (Units=GPa)
#
#
# Indices 1 2 3 4 5 6 
#
# 1 148.6936 41.6926 84.9852 0.0002 27.0084 0.0000
# 2 41.6926 181.1410 44.3838 0.0026 -1.3392 -0.0006
# 3 84.9852 44.3838 268.2611 0.0018 -7.7663 -0.0007
# 4 0.0002 0.0026 0.0018 34.3158 -0.0007 -15.7658
# 5 27.0084 -1.3392 -7.7663 -0.0007 70.4510 0.0002
# 6 0.0000 -0.0006 -0.0007 -15.7658 0.0002 47.9161
#
#
#
# Elastic Compliance Matrix: (Units=1/GPa)
#
#
# Indices 1 2 3 4 5 6 
#
# 1 0.009523 -0.001515 -0.002882 0.000000 -0.003997 0.000000
# 2 -0.001515 0.005995 -0.000493 0.000000 0.000641 0.000000
# 3 -0.002882 -0.000493 0.004769 0.000000 0.001621 0.000000
# 4 0.000000 0.000000 0.000000 0.034331 0.000000 0.011296
# 5 -0.003997 0.000641 0.001621 0.000000 0.015918 0.000000
# 6 0.000000 0.000000 0.000000 0.011296 0.000000 0.024586
#
#
# Mechanical properties :
#
#
# Convention : Reuss Voigt Hill
#
# Bulk Modulus (GPa) = 95.18046 104.46877 99.82461
# Shear Modulus (GPa) = 46.12291 59.00554 52.56422
#
# Velocity S-wave (km/s) = 4.02922 4.55731 4.30138
# Velocity P-wave (km/s) = 7.42619 8.02893 7.73343
#
# Compressibility (1/GPa) = 0.01050636
#
# Stress axis : x y z
#
# Youngs Moduli (GPa) = 105.00401 166.80725 209.67496
#
# Poissons Ratio (x) = 0.25277 0.60429
# Poissons Ratio (y) = 0.15912 0.10342
# Poissons Ratio (z) = 0.30263 0.08228
#
# Static dielectric constant tensor:
#      x y z
#    x 2.123960 0.000000 0.028250 
#    y 0.000000 2.312880 0.000000 
#    z 0.028250 0.000000 2.278020 
# 
# From -- ./inp_files/110835.got.cif
#   From: 2010.05.17/outbox.cif.g08.bks.cpg/sg15_56_cif.got.tgz:110835.got - 2010.06.03 18:47:42.
