data_PCOD9293086
_publ_section_title
;
Structure prediction by ZEFSAII (Michael W. Deem and Ramdas Pophale) SiO2 
 PCOD9293086
Probable space group: C 2/C
;
_chemical_formula_sum "Si O2"
_cell_formula_units_Z 48
_cell_length_a 25.479346
_cell_length_b 5.900098
_cell_length_c 29.185358
_cell_angle_alpha 90.000000
_cell_angle_beta 148.750627
_cell_angle_gamma 90.000000
_cell_volume 2276.052500
_symmetry_space_group_name_H-M "C 2/C"
_symmetry_group_IT_number 15
_symmetry_cell_setting 'monoclinic'
loop_
_space_group_symop_operation_xyz
x,y,z
-x,y,1/2-z
-x,-y,-z
x,-y,1/2+z
1/2+x,1/2+y,z
1/2-x,1/2+y,1/2-z
1/2-x,1/2-y,-z
1/2+x,1/2-y,1/2+z
loop_
_atom_site_type_symbol
_atom_site_label
_atom_site_fract_x
_atom_site_fract_y
_atom_site_fract_z
Si Si1 0.919284 0.203629 0.224822
Si Si2 0.212564 0.542128 0.943153
Si Si3 0.911944 0.556689 0.294208
Si Si4 0.882085 0.254388 0.545658
Si Si5 0.201226 0.498411 0.702636
Si Si6 0.743620 0.116125 0.632747
O O1 0.870374 0.392462 0.155494
O O2 0.952429 0.345421 0.294356
O O3 0.000000 0.091174 0.250000
O O4 0.831400 0.036319 0.175440
O O5 0.162025 0.373134 0.941688
O O6 0.250000 0.750000 0.000000
O O7 0.315312 0.469270 0.994848
O O8 0.892288 0.489500 0.332069
O O9 0.806972 0.656536 0.194928
O O10 0.998356 0.748818 0.359416
O O11 0.844118 0.368890 0.470543
O O12 0.257911 0.739063 0.757832
O O13 0.197439 0.516736 0.644997
#
# Coordination Sequence:
#
# PCOD9293086 Si02
#       6
#     8   8   8   8   8   8
#     4  12  23  38  65  93 128 176 219 272 336 407
#     4  11  23  39  57  90 135 170 213 275 332 398
#     4  11  24  42  64  96 130 171 228 271 337 410
#     4  11  24  39  63  94 130 174 222 272 335 401
#     4  10  22  44  72  97 135 179 226 284 342 402
#     4  11  24  42  66  92 131 174 219 281 339 398
#
# _framework density 21.089143
#
# number of rings (size 3 to 8) (size 9 to 14) (size 15 to 20)
#    0.000    1.000    6.667    0.000    2.333    1.333 
#    0.000    0.000    0.000    6.000    0.000    0.000 
#    0.000    0.000    0.000    0.000    0.000    0.000 
#
# Total GULP energy -133625.962297 kJ/mol
# GULP energy per Si atom -5567.748429 kJ/mol
# Density = 2.104114 g / cm^3
# Si number density = 21.089143 Si / 1000 Ang^3
#
#
#
# Elastic Constant Matrix: (Units=GPa)
#
#
# Indices 1 2 3 4 5 6 
#
# 1 149.4732 3.6896 14.8056 -0.0013 -17.3833 -0.0115
# 2 3.6896 29.8121 -9.1201 0.0008 -3.4057 -0.0157
# 3 14.8056 -9.1201 58.9573 -0.0014 -3.9055 -0.0043
# 4 -0.0013 0.0008 -0.0014 22.7599 0.0016 -0.1474
# 5 -17.3833 -3.4057 -3.9055 0.0016 25.5613 0.0013
# 6 -0.0115 -0.0157 -0.0043 -0.1474 0.0013 30.2470
#
#
#
# Elastic Compliance Matrix: (Units=1/GPa)
#
#
# Indices 1 2 3 4 5 6 
#
# 1 0.007423 -0.000904 -0.001695 0.000000 0.004669 0.000002
# 2 -0.000904 0.036126 0.006156 -0.000001 0.005139 0.000019
# 3 -0.001695 0.006156 0.018505 0.000001 0.002495 0.000005
# 4 0.000000 -0.000001 0.000001 0.043938 -0.000003 0.000214
# 5 0.004669 0.005139 0.002495 -0.000003 0.043363 0.000003
# 6 0.000002 0.000019 0.000005 0.000214 0.000003 0.033062
#
#
# Mechanical properties :
#
#
# Convention : Reuss Voigt Hill
#
# Bulk Modulus (GPa) = 14.45760 28.55475 21.50618
# Shear Modulus (GPa) = 25.20694 30.97148 28.08921
#
# Velocity S-wave (km/s) = 3.46100 3.83639 3.65352
# Velocity P-wave (km/s) = 4.77930 5.76136 5.29315
#
# Compressibility (1/GPa) = 0.06916776
#
# Stress axis : x y z
#
# Youngs Moduli (GPa) = 134.71055 27.68124 54.04088
#
# Poissons Ratio (x) = 0.02502 0.09158
# Poissons Ratio (y) = 0.12175 -0.33266
# Poissons Ratio (z) = 0.22829 -0.17040
#
# Static dielectric constant tensor:
#      x y z
#    x 1.750590 0.000010 0.065980 
#    y 0.000010 1.869830 -0.000030 
#    z 0.065980 -0.000030 1.597320 
# 
# From -- ./inp_files/175682.got.cif
#   From: 2010.05.17/outbox.cif.g08.bks.cpg/sg15_88_cif.got.tgz:175682.got - 2010.06.03 18:47:42.
