data_PCOD9293181
_publ_section_title
;
Structure prediction by ZEFSAII (Michael W. Deem and Ramdas Pophale) SiO2 
 PCOD9293181
Probable space group: C 2/C
;
_chemical_formula_sum "Si O2"
_cell_formula_units_Z 44
_cell_length_a 11.399740
_cell_length_b 26.829324
_cell_length_c 9.113769
_cell_angle_alpha 90.000000
_cell_angle_beta 51.800910
_cell_angle_gamma 90.000000
_cell_volume 2190.542017
_symmetry_space_group_name_H-M "C 2/C"
_symmetry_group_IT_number 15
_symmetry_cell_setting 'monoclinic'
loop_
_space_group_symop_operation_xyz
x,y,z
-x,y,1/2-z
-x,-y,-z
x,-y,1/2+z
1/2+x,1/2+y,z
1/2-x,1/2+y,1/2-z
1/2-x,1/2-y,-z
1/2+x,1/2-y,1/2+z
loop_
_atom_site_type_symbol
_atom_site_label
_atom_site_fract_x
_atom_site_fract_y
_atom_site_fract_z
Si Si1 0.500000 0.734216 0.750000
Si Si2 0.160300 0.973662 0.891921
Si Si3 0.751121 0.312126 0.857322
Si Si4 0.354977 0.070554 0.767440
Si Si5 0.330117 0.618993 0.339556
Si Si6 0.150206 0.411154 0.557249
O O1 0.594478 0.703703 0.555016
O O2 0.372138 0.768047 0.772365
O O3 0.177521 0.931320 0.754530
O O4 0.208151 0.945496 0.005877
O O5 0.274626 0.018860 0.793455
O O6 0.000000 0.000000 0.000000
O O7 0.729386 0.335822 0.713517
O O8 0.815825 0.357159 0.904254
O O9 0.500000 0.060413 0.750000
O O10 0.383498 0.093606 0.587218
O O11 0.256133 0.106506 0.944994
O O12 0.500000 0.628239 0.250000
O O13 0.000000 0.431320 0.750000
#
# Coordination Sequence:
#
# PCOD9293181 Si02
#       6
#     4   8   8   8   8   8
#     4  10  22  44  76  96 120 166 218 270 328 420
#     4  11  23  41  61  94 136 181 226 265 310 382
#     4  10  23  43  71  96 127 164 219 262 336 397
#     4  12  25  39  64  94 134 182 221 266 321 373
#     4  11  24  43  64  96 138 167 216 274 322 380
#     4  11  24  42  67  93 133 176 225 270 321 393
#
# _framework density 20.086352000000002
#
# number of rings (size 3 to 8) (size 9 to 14) (size 15 to 20)
#    0.000    1.091    2.727    3.818    2.545    2.182 
#    0.000    0.909    0.000    0.000    0.000    0.000 
#    0.000    0.000    0.000    0.000    0.000    0.000 
#
# Total GULP energy -122939.870432 kJ/mol
# GULP energy per Si atom -5588.175929 kJ/mol
# Density = 2.004063 g / cm^3
# Si number density = 20.086352 Si / 1000 Ang^3
#
#
#
# Elastic Constant Matrix: (Units=GPa)
#
#
# Indices 1 2 3 4 5 6 
#
# 1 133.0738 22.0237 52.2336 0.0000 6.8237 0.0000
# 2 22.0237 52.7491 17.5681 0.0000 1.5297 0.0000
# 3 52.2336 17.5681 109.4514 0.0000 13.5674 0.0000
# 4 0.0000 0.0000 0.0000 53.1360 0.0000 3.4288
# 5 6.8237 1.5297 13.5674 0.0000 45.9328 0.0000
# 6 0.0000 0.0000 0.0000 3.4288 0.0000 33.1907
#
#
#
# Elastic Compliance Matrix: (Units=1/GPa)
#
#
# Indices 1 2 3 4 5 6 
#
# 1 0.009577 -0.002618 -0.004136 0.000000 -0.000114 0.000000
# 2 -0.002618 0.020748 -0.002121 0.000000 0.000324 0.000000
# 3 -0.004136 -0.002121 0.011798 0.000000 -0.002800 0.000000
# 4 0.000000 0.000000 0.000000 0.018946 0.000000 -0.001957
# 5 -0.000114 0.000324 -0.002800 0.000000 0.022604 0.000000
# 6 0.000000 0.000000 0.000000 -0.001957 0.000000 0.030331
#
#
# Mechanical properties :
#
#
# Convention : Reuss Voigt Hill
#
# Bulk Modulus (GPa) = 41.02992 53.21391 47.12192
# Shear Modulus (GPa) = 35.74529 40.01515 37.88022
#
# Velocity S-wave (km/s) = 4.22308 4.46820 4.34737
# Velocity P-wave (km/s) = 6.65210 7.29176 6.97926
#
# Compressibility (1/GPa) = 0.02437246
#
# Stress axis : x y z
#
# Youngs Moduli (GPa) = 104.41392 48.19815 84.76049
#
# Poissons Ratio (x) = 0.12617 0.35059
# Poissons Ratio (y) = 0.27333 0.17979
# Poissons Ratio (z) = 0.43188 0.10224
#
# Static dielectric constant tensor:
#      x y z
#    x 1.701800 0.000000 0.003580 
#    y 0.000000 1.704520 0.000000 
#    z 0.003580 0.000000 1.712140 
# 
# From -- ./inp_files/34008.got.cif
#   From: 2010.05.17/outbox.cif.g08.bks.cpg/sg15_18_cif.got.tgz:34008.got - 2010.06.03 18:47:42.
