data_PCOD9293164
_publ_section_title
;
Structure prediction by ZEFSAII (Michael W. Deem and Ramdas Pophale) SiO2 
 PCOD9293164
Probable space group: C 2/C
;
_chemical_formula_sum "Si O2"
_cell_formula_units_Z 52
_cell_length_a 18.173224
_cell_length_b 5.493911
_cell_length_c 24.724785
_cell_angle_alpha 90.000000
_cell_angle_beta 104.219806
_cell_angle_gamma 90.000000
_cell_volume 2392.937961
_symmetry_space_group_name_H-M "C 2/C"
_symmetry_group_IT_number 15
_symmetry_cell_setting 'monoclinic'
loop_
_space_group_symop_operation_xyz
x,y,z
-x,y,1/2-z
-x,-y,-z
x,-y,1/2+z
1/2+x,1/2+y,z
1/2-x,1/2+y,1/2-z
1/2-x,1/2-y,-z
1/2+x,1/2-y,1/2+z
loop_
_atom_site_type_symbol
_atom_site_label
_atom_site_fract_x
_atom_site_fract_y
_atom_site_fract_z
Si Si1 0.833291 0.284911 0.491370
Si Si2 0.356493 0.711569 0.929401
Si Si3 0.858902 0.730864 0.238778
Si Si4 0.787983 0.007771 0.320417
Si Si5 0.511198 0.098200 0.440611
Si Si6 0.500000 0.485149 0.750000
Si Si7 0.070738 0.662492 0.668079
O O1 0.750000 0.250000 0.500000
O O2 0.838621 0.537829 0.458018
O O3 0.902896 0.310897 0.546414
O O4 0.846768 0.034459 0.461481
O O5 0.303571 0.696227 0.867546
O O6 0.443658 0.706980 0.924713
O O7 0.798664 0.587742 0.192294
O O8 0.900138 0.565648 0.291343
O O9 0.806522 0.917293 0.263270
O O10 0.927259 0.856628 0.219805
O O11 0.853014 0.211095 0.341219
O O12 0.500000 0.000000 0.500000
O O13 0.486233 0.909077 0.390123
O O14 0.529340 0.332358 0.704368
#
# Coordination Sequence:
#
# PCOD9293164 Si02
#       7
#     8   8   8   8   8   4   8
#     4  11  25  47  69 105 146 184 234 300 367 436
#     4  11  23  45  73 102 139 184 243 294 358 434
#     4  11  22  43  66 100 136 186 235 295 362 428
#     4  11  22  39  72 100 133 182 242 300 348 424
#     4  10  22  44  76 101 135 187 238 295 357 424
#     4  10  26  44  68  96 150 190 238 296 372 442
#     4  11  22  45  67 101 144 181 244 297 359 438
#
# _framework density 21.730609000000001
#
# number of rings (size 3 to 8) (size 9 to 14) (size 15 to 20)
#    0.000    1.231    3.077    3.231    0.000    1.231 
#    5.538    0.000    0.000    0.000    0.000    0.000 
#    0.000    0.000    0.000    0.000    0.000    0.000 
#
# Total GULP energy -145232.145354 kJ/mol
# GULP energy per Si atom -5585.851744 kJ/mol
# Density = 2.168115 g / cm^3
# Si number density = 21.730609 Si / 1000 Ang^3
#
#
#
# Elastic Constant Matrix: (Units=GPa)
#
#
# Indices 1 2 3 4 5 6 
#
# 1 168.2803 52.2340 60.0015 0.0000 32.5199 0.0000
# 2 52.2340 99.4284 31.8531 -0.0001 0.0638 0.0000
# 3 60.0015 31.8531 98.0511 0.0000 26.4592 0.0000
# 4 0.0000 -0.0001 0.0000 29.3569 0.0000 -5.5993
# 5 32.5199 0.0638 26.4592 0.0000 21.9410 0.0000
# 6 0.0000 0.0000 0.0000 -5.5993 0.0000 27.8213
#
#
#
# Elastic Compliance Matrix: (Units=1/GPa)
#
#
# Indices 1 2 3 4 5 6 
#
# 1 0.010818 -0.005419 -0.000796 0.000000 -0.015058 0.000000
# 2 -0.005419 0.014596 -0.005309 0.000000 0.014391 0.000000
# 3 -0.000796 -0.005309 0.017920 0.000000 -0.020414 0.000000
# 4 0.000000 0.000000 0.000000 0.035423 0.000000 0.007129
# 5 -0.015058 0.014391 -0.020414 0.000000 0.092471 0.000000
# 6 0.000000 0.000000 0.000000 0.007129 0.000000 0.037378
#
#
# Mechanical properties :
#
#
# Convention : Reuss Voigt Hill
#
# Bulk Modulus (GPa) = 49.29705 72.65967 60.97836
# Shear Modulus (GPa) = 20.97169 30.60192 25.78680
#
# Velocity S-wave (km/s) = 3.10994 3.75672 3.44853
# Velocity P-wave (km/s) = 5.96912 7.23370 6.63162
#
# Compressibility (1/GPa) = 0.02028519
#
# Stress axis : x y z
#
# Youngs Moduli (GPa) = 92.43574 68.51311 55.80481
#
# Poissons Ratio (x) = 0.37124 0.04444
# Poissons Ratio (y) = 0.50087 0.29628
# Poissons Ratio (z) = 0.07362 0.36376
#
# Static dielectric constant tensor:
#      x y z
#    x 1.783510 0.000000 0.013270 
#    y 0.000000 1.871450 0.000000 
#    z 0.013270 0.000000 1.827270 
# 
# From -- ./inp_files/297528.got.cif
#   From: 2010.05.17/outbox.cif.g08.bks.cpg/sg15_149_cif.got.tgz:297528.got - 2010.06.03 18:47:42.
