data_PCOD9293049
_publ_section_title
;
Structure prediction by ZEFSAII (Michael W. Deem and Ramdas Pophale) SiO2 
 PCOD9293049
Probable space group: C 2/C
;
_chemical_formula_sum "Si O2"
_cell_formula_units_Z 36
_cell_length_a 7.770195
_cell_length_b 18.214701
_cell_length_c 11.657559
_cell_angle_alpha 90.000000
_cell_angle_beta 119.210929
_cell_angle_gamma 90.000000
_cell_volume 1440.093718
_symmetry_space_group_name_H-M "C 2/C"
_symmetry_group_IT_number 15
_symmetry_cell_setting 'monoclinic'
loop_
_space_group_symop_operation_xyz
x,y,z
-x,y,1/2-z
-x,-y,-z
x,-y,1/2+z
1/2+x,1/2+y,z
1/2-x,1/2+y,1/2-z
1/2-x,1/2-y,-z
1/2+x,1/2-y,1/2+z
loop_
_atom_site_type_symbol
_atom_site_label
_atom_site_fract_x
_atom_site_fract_y
_atom_site_fract_z
Si Si1 0.327226 0.703853 0.753737
Si Si2 0.429084 0.176744 0.032452
Si Si3 0.000000 0.488781 0.750000
Si Si4 0.222922 0.384555 0.444270
Si Si5 0.637266 0.571685 0.083405
O O1 0.500000 0.654804 0.750000
O O2 0.442189 0.772455 0.843239
O O3 0.225765 0.660180 0.824178
O O4 0.190539 0.723591 0.602143
O O5 0.278167 0.117378 0.040004
O O6 0.589424 0.141801 0.002266
O O7 0.806699 0.446130 0.732520
O O8 0.115724 0.461406 0.377881
O O9 0.450591 0.380019 0.557354
O O10 0.500000 0.500000 0.000000
#
# Coordination Sequence:
#
# PCOD9293049 Si02
#       5
#     8   8   4   8   8
#     4  12  25  46  76 107 154 203 245 317 388 457
#     4  12  26  47  76 111 157 199 255 320 386 455
#     4  10  22  44  72 102 152 192 256 312 376 450
#     4  11  23  47  73 108 149 201 254 312 392 452
#     4  10  25  46  72 107 147 201 259 308 380 452
#
# _framework density 24.998373000000001
#
# number of rings (size 3 to 8) (size 9 to 14) (size 15 to 20)
#    0.000    0.889    4.444    1.333    1.556    3.556 
#    0.000    5.556    0.000    0.000    0.000    0.000 
#    0.000    0.000    0.000    0.000    0.000    0.000 
#
# Total GULP energy -100241.505628 kJ/mol
# GULP energy per Si atom -5568.972535 kJ/mol
# Density = 2.494148 g / cm^3
# Si number density = 24.998373 Si / 1000 Ang^3
#
#
#
# Elastic Constant Matrix: (Units=GPa)
#
#
# Indices 1 2 3 4 5 6 
#
# 1 217.1521 53.4050 62.8058 0.0000 32.8138 0.0000
# 2 53.4050 93.1295 53.2870 0.0000 4.6425 0.0000
# 3 62.8058 53.2870 157.0816 0.0000 37.9026 0.0000
# 4 0.0000 0.0000 0.0000 11.9538 0.0000 -18.2431
# 5 32.8138 4.6425 37.9026 0.0000 54.4682 0.0000
# 6 0.0000 0.0000 0.0000 -18.2431 0.0000 65.2494
#
#
#
# Elastic Compliance Matrix: (Units=1/GPa)
#
#
# Indices 1 2 3 4 5 6 
#
# 1 0.005945 -0.002853 -0.000725 0.000000 -0.002833 0.000000
# 2 -0.002853 0.014962 -0.004858 0.000000 0.003824 0.000000
# 3 -0.000725 -0.004858 0.009733 0.000000 -0.005922 0.000000
# 4 0.000000 0.000000 0.000000 0.145918 0.000000 0.040797
# 5 -0.002833 0.003824 -0.005922 0.000000 0.023861 0.000000
# 6 0.000000 0.000000 0.000000 0.040797 0.000000 0.026732
#
#
# Mechanical properties :
#
#
# Convention : Reuss Voigt Hill
#
# Bulk Modulus (GPa) = 72.63046 89.59542 81.11294
# Shear Modulus (GPa) = 20.11162 46.19196 33.15179
#
# Velocity S-wave (km/s) = 2.83948 4.30327 3.64560
# Velocity P-wave (km/s) = 6.31406 7.78519 7.08789
#
# Compressibility (1/GPa) = 0.01376833
#
# Stress axis : x y z
#
# Youngs Moduli (GPa) = 168.22069 66.83385 102.74335
#
# Poissons Ratio (x) = 0.19065 0.07454
# Poissons Ratio (y) = 0.47986 0.49911
# Poissons Ratio (z) = 0.12204 0.32467
#
# Static dielectric constant tensor:
#      x y z
#    x 2.040080 0.000000 0.000780 
#    y 0.000000 2.357150 0.000000 
#    z 0.000780 0.000000 1.961900 
# 
# From -- ./inp_files/78013.got.cif
#   From: 2010.05.17/outbox.cif.g08.bks.cpg/sg15_40_cif.got.tgz:78013.got - 2010.06.03 18:47:42.
