data_PCOD9293586
_publ_section_title
;
Structure prediction by ZEFSAII (Michael W. Deem and Ramdas Pophale) SiO2 
 PCOD9293586
Probable space group: C 2/C
;
_chemical_formula_sum "Si O2"
_cell_formula_units_Z 64
_cell_length_a 26.042298
_cell_length_b 11.140316
_cell_length_c 16.356184
_cell_angle_alpha 90.000000
_cell_angle_beta 33.611061
_cell_angle_gamma 90.000000
_cell_volume 2626.742427
_symmetry_space_group_name_H-M "C 2/C"
_symmetry_group_IT_number 15
_symmetry_cell_setting 'monoclinic'
loop_
_space_group_symop_operation_xyz
x,y,z
-x,y,1/2-z
-x,-y,-z
x,-y,1/2+z
1/2+x,1/2+y,z
1/2-x,1/2+y,1/2-z
1/2-x,1/2-y,-z
1/2+x,1/2-y,1/2+z
loop_
_atom_site_type_symbol
_atom_site_label
_atom_site_fract_x
_atom_site_fract_y
_atom_site_fract_z
Si Si1 0.716384 0.027320 0.050739
Si Si2 0.692152 0.775365 0.367337
Si Si3 0.951303 0.914491 0.476989
Si Si4 0.920299 0.476137 0.908548
Si Si5 0.179208 0.704991 0.703950
Si Si6 0.519617 0.883885 0.027619
Si Si7 0.362422 0.249541 0.246988
Si Si8 0.110359 0.055548 0.253421
O O1 0.658235 0.983847 0.049445
O O2 0.668445 0.150749 0.145044
O O3 0.706329 0.923174 0.131699
O O4 0.823225 0.038930 0.881875
O O5 0.630321 0.655130 0.461942
O O6 0.622024 0.886567 0.469504
O O7 0.727468 0.773040 0.227107
O O8 0.767214 0.802667 0.337027
O O9 0.904646 0.950494 0.626973
O O10 0.042535 0.825545 0.363451
O O11 0.003387 0.030864 0.369426
O O12 0.968066 0.582397 0.894815
O O13 0.000000 0.413090 0.750000
O O14 0.171230 0.823512 0.658536
O O15 0.069138 0.697432 0.867574
O O16 0.609576 0.826261 0.870889
O O17 0.500000 0.000000 0.000000
#
# Coordination Sequence:
#
# PCOD9293586 Si02
#       8
#     8   8   8   8   8   8   8   8
#     4  12  25  42  69 107 142 173 241 317 355 409
#     4  11  24  41  72 102 132 190 240 281 353 438
#     4  10  22  46  69  96 142 190 232 283 352 447
#     4  12  23  37  67 104 136 179 229 296 365 404
#     4  11  22  46  68  96 141 186 236 296 351 431
#     4  12  20  43  69  96 137 187 237 292 346 429
#     4  12  24  44  74 103 135 189 243 293 352 436
#     4  10  23  42  67  92 139 190 217 286 367 418
#
# _framework density 24.36478
#
# number of rings (size 3 to 8) (size 9 to 14) (size 15 to 20)
#    0.000    0.750    6.250    1.875    3.500    3.000 
#    6.750    0.000    2.750    0.000    0.000    0.000 
#    0.000    0.000    0.000    0.000    0.000    0.000 
#
# Total GULP energy -178437.712114 kJ/mol
# GULP energy per Si atom -5576.178504 kJ/mol
# Density = 2.430932 g / cm^3
# Si number density = 24.364780 Si / 1000 Ang^3
#
#
#
# Elastic Constant Matrix: (Units=GPa)
#
#
# Indices 1 2 3 4 5 6 
#
# 1 81.0668 6.8745 -1.4430 0.0000 1.2883 0.0000
# 2 6.8745 47.3404 11.3775 0.0000 0.5921 0.0000
# 3 -1.4430 11.3775 112.2353 0.0000 -4.0488 0.0000
# 4 0.0000 0.0000 0.0000 43.4375 0.0000 2.8492
# 5 1.2883 0.5921 -4.0488 0.0000 20.7576 0.0000
# 6 0.0000 0.0000 0.0000 2.8492 0.0000 25.8969
#
#
#
# Elastic Compliance Matrix: (Units=1/GPa)
#
#
# Indices 1 2 3 4 5 6 
#
# 1 0.012512 -0.001888 0.000328 0.000000 -0.000659 0.000000
# 2 -0.001888 0.021959 -0.002285 0.000000 -0.000955 0.000000
# 3 0.000328 -0.002285 0.009212 0.000000 0.001842 0.000000
# 4 0.000000 0.000000 0.000000 0.023189 0.000000 -0.002551
# 5 -0.000659 -0.000955 0.001842 0.000000 0.048602 0.000000
# 6 0.000000 0.000000 0.000000 -0.002551 0.000000 0.038895
#
#
# Mechanical properties :
#
#
# Convention : Reuss Voigt Hill
#
# Bulk Modulus (GPa) = 27.78164 30.47341 29.12752
# Shear Modulus (GPa) = 28.72648 32.94063 30.83356
#
# Velocity S-wave (km/s) = 3.43741 3.68091 3.56124
# Velocity P-wave (km/s) = 5.21359 5.53171 5.37500
#
# Compressibility (1/GPa) = 0.03599500
#
# Stress axis : x y z
#
# Youngs Moduli (GPa) = 79.92398 45.53995 108.55265
#
# Poissons Ratio (x) = 0.08596 -0.03565
# Poissons Ratio (y) = 0.15087 0.24801
# Poissons Ratio (z) = -0.02625 0.10405
#
# Static dielectric constant tensor:
#      x y z
#    x 0.015350 0.000000 1.954010 
#    y 0.000000 2.091310 0.000000 
#    z 1.954010 0.000000 -0.093240 
# 
# From -- ./inp_files/225144.got.cif
#   From: 2010.05.17/outbox.cif.g08.bks.cpg/sg15_113_cif.got.tgz:225144.got - 2010.06.03 18:47:42.
