data_PCOD9293422
_publ_section_title
;
Structure prediction by ZEFSAII (Michael W. Deem and Ramdas Pophale) SiO2 
 PCOD9293422
Probable space group: C 2/C
;
_chemical_formula_sum "Si O2"
_cell_formula_units_Z 48
_cell_length_a 13.162527
_cell_length_b 26.471894
_cell_length_c 8.802645
_cell_angle_alpha 90.000000
_cell_angle_beta 133.084785
_cell_angle_gamma 90.000000
_cell_volume 2240.086365
_symmetry_space_group_name_H-M "C 2/C"
_symmetry_group_IT_number 15
_symmetry_cell_setting 'monoclinic'
loop_
_space_group_symop_operation_xyz
x,y,z
-x,y,1/2-z
-x,-y,-z
x,-y,1/2+z
1/2+x,1/2+y,z
1/2-x,1/2+y,1/2-z
1/2-x,1/2-y,-z
1/2+x,1/2-y,1/2+z
loop_
_atom_site_type_symbol
_atom_site_label
_atom_site_fract_x
_atom_site_fract_y
_atom_site_fract_z
Si Si1 0.447979 0.341850 0.351791
Si Si2 0.646005 0.488348 0.937745
Si Si3 0.753160 0.935374 0.160304
Si Si4 0.200944 0.110343 0.302880
Si Si5 0.659574 0.703628 0.466139
Si Si6 0.016508 0.442806 0.450845
O O1 0.500000 0.317120 0.250000
O O2 0.347878 0.388707 0.213480
O O3 0.582553 0.366155 0.574270
O O4 0.361524 0.306133 0.376805
O O5 0.500000 0.514553 0.750000
O O6 0.762955 0.526569 0.997177
O O7 0.643830 0.438273 0.833401
O O8 0.672076 0.470056 0.133942
O O9 0.613026 0.916917 0.097011
O O10 0.222653 0.153485 0.451864
O O11 0.342261 0.088484 0.374871
O O12 0.500000 0.709605 0.250000
O O13 0.750000 0.750000 0.500000
O O14 0.000000 0.442947 0.250000
O O15 0.000000 0.500000 0.500000
#
# Coordination Sequence:
#
# PCOD9293422 Si02
#       6
#     8   8   8   8   8   8
#     4  11  24  42  65  97 129 165 217 273 323 389
#     4  12  21  35  56  86 126 169 225 259 314 376
#     4  12  23  35  56  88 126 176 218 262 310 382
#     4  11  22  42  62  89 131 167 215 273 320 399
#     4  10  22  45  73  98 122 165 218 274 338 402
#     4  12  23  37  55  84 128 175 221 270 319 383
#
# _framework density 21.427745000000002
#
# number of rings (size 3 to 8) (size 9 to 14) (size 15 to 20)
#    0.000    0.667    6.667    1.500    2.333    3.333 
#    0.000    3.333    0.000    1.000    0.000    0.000 
#    0.000    0.000    0.000    0.000    0.000    0.000 
#
# Total GULP energy -134140.858028 kJ/mol
# GULP energy per Si atom -5589.202418 kJ/mol
# Density = 2.137897 g / cm^3
# Si number density = 21.427745 Si / 1000 Ang^3
#
#
#
# Elastic Constant Matrix: (Units=GPa)
#
#
# Indices 1 2 3 4 5 6 
#
# 1 157.3645 66.9094 27.5250 0.0000 -2.8381 0.0000
# 2 66.9094 81.9140 15.4272 0.0000 -7.0821 0.0000
# 3 27.5250 15.4272 35.4967 0.0000 -6.8912 0.0000
# 4 0.0000 0.0000 0.0000 10.5515 0.0000 0.0196
# 5 -2.8381 -7.0821 -6.8912 0.0000 44.9196 0.0000
# 6 0.0000 0.0000 0.0000 0.0196 0.0000 50.2460
#
#
#
# Elastic Compliance Matrix: (Units=1/GPa)
#
#
# Indices 1 2 3 4 5 6 
#
# 1 0.010506 -0.007748 -0.005038 0.000000 -0.001331 0.000000
# 2 -0.007748 0.019078 -0.001850 0.000000 0.002235 0.000000
# 3 -0.005038 -0.001850 0.033769 0.000000 0.004571 0.000000
# 4 0.000000 0.000000 0.000000 0.094773 0.000000 -0.000037
# 5 -0.001331 0.002235 0.004571 0.000000 0.023231 0.000000
# 6 0.000000 0.000000 0.000000 -0.000037 0.000000 0.019902
#
#
# Mechanical properties :
#
#
# Convention : Reuss Voigt Hill
#
# Bulk Modulus (GPa) = 29.34034 54.94427 42.14231
# Shear Modulus (GPa) = 20.67034 32.13766 26.40400
#
# Velocity S-wave (km/s) = 3.10926 3.87695 3.51413
# Velocity P-wave (km/s) = 5.15872 6.76301 6.01459
#
# Compressibility (1/GPa) = 0.03408276
#
# Stress axis : x y z
#
# Youngs Moduli (GPa) = 95.18198 52.41571 29.61267
#
# Poissons Ratio (x) = 0.40612 0.14918
# Poissons Ratio (y) = 0.73747 0.05478
# Poissons Ratio (z) = 0.47950 0.09696
#
# Static dielectric constant tensor:
#      x y z
#    x 1.869810 0.000000 0.030590 
#    y 0.000000 1.737840 0.000000 
#    z 0.030590 0.000000 1.860000 
# 
# From -- ./inp_files/33787.got.cif
#   From: 2010.05.17/outbox.cif.g08.bks.cpg/sg15_17_cif.got.tgz:33787.got - 2010.06.03 18:47:42.
