data_PCOD9293311
_publ_section_title
;
Structure prediction by ZEFSAII (Michael W. Deem and Ramdas Pophale) SiO2 
 PCOD9293311
Probable space group: C 2/C
;
_chemical_formula_sum "Si O2"
_cell_formula_units_Z 56
_cell_length_a 14.697468
_cell_length_b 11.541684
_cell_length_c 14.563764
_cell_angle_alpha 90.000000
_cell_angle_beta 88.354030
_cell_angle_gamma 90.000000
_cell_volume 2469.483364
_symmetry_space_group_name_H-M "C 2/C"
_symmetry_group_IT_number 15
_symmetry_cell_setting 'monoclinic'
loop_
_space_group_symop_operation_xyz
x,y,z
-x,y,1/2-z
-x,-y,-z
x,-y,1/2+z
1/2+x,1/2+y,z
1/2-x,1/2+y,1/2-z
1/2-x,1/2-y,-z
1/2+x,1/2-y,1/2+z
loop_
_atom_site_type_symbol
_atom_site_label
_atom_site_fract_x
_atom_site_fract_y
_atom_site_fract_z
Si Si1 0.033141 0.483585 0.101563
Si Si2 0.226578 0.420017 0.775095
Si Si3 0.219301 0.480230 0.563985
Si Si4 0.149956 0.368941 0.378748
Si Si5 0.453831 0.218158 0.163349
Si Si6 0.095883 0.142566 0.287240
Si Si7 0.579043 0.552934 0.934735
O O1 0.134037 0.434169 0.088504
O O2 0.951581 0.411811 0.145719
O O3 0.023657 0.612316 0.142842
O O4 0.000000 0.500000 0.000000
O O5 0.224463 0.422951 0.664431
O O6 0.213198 0.550324 0.813235
O O7 0.144467 0.341363 0.815540
O O8 0.327488 0.374705 0.792933
O O9 0.182825 0.399478 0.481426
O O10 0.316329 0.534379 0.535237
O O11 0.139263 0.235145 0.356892
O O12 0.500000 0.277725 0.250000
O O13 0.442468 0.313310 0.085318
O O14 0.000000 0.181624 0.250000
O O15 0.078682 0.022388 0.340970
O O16 0.500000 0.500000 0.000000
#
# Coordination Sequence:
#
# PCOD9293311 Si02
#       7
#     8   8   8   8   8   8   8
#     4   9  20  40  68 103 127 167 233 287 349 396
#     4  10  24  42  70 105 130 180 238 278 361 408
#     4  10  22  45  69  97 135 176 240 287 335 417
#     4  10  24  42  72 100 135 177 225 302 351 412
#     4  11  22  42  72  96 136 183 231 294 342 424
#     4  11  27  44  67 100 140 184 229 292 352 417
#     4  11  28  43  63  98 140 190 233 277 359 419
#
# _framework density 22.676808000000001
#
# number of rings (size 3 to 8) (size 9 to 14) (size 15 to 20)
#    0.000    1.714    1.429    0.429   12.000    3.429 
#    0.000    6.429    0.000    0.000    0.000    0.000 
#    0.000    0.000    0.000    0.000    0.000    0.000 
#
# Total GULP energy -156060.611424 kJ/mol
# GULP energy per Si atom -5573.593265 kJ/mol
# Density = 2.262519 g / cm^3
# Si number density = 22.676808 Si / 1000 Ang^3
#
#
#
# Elastic Constant Matrix: (Units=GPa)
#
#
# Indices 1 2 3 4 5 6 
#
# 1 151.0490 -2.1360 21.1249 0.0000 -26.5020 0.0000
# 2 -2.1360 48.4730 10.5405 0.0000 -7.9885 0.0000
# 3 21.1249 10.5405 66.9622 0.0000 -0.3245 0.0000
# 4 0.0000 0.0000 0.0000 32.2946 0.0000 4.7007
# 5 -26.5020 -7.9885 -0.3245 0.0000 32.1488 0.0000
# 6 0.0000 0.0000 0.0000 4.7007 0.0000 -1.6846
#
#
#
# Elastic Compliance Matrix: (Units=1/GPa)
#
#
# Indices 1 2 3 4 5 6 
#
# 1 0.008368 0.002235 -0.002956 0.000000 0.007424 0.000000
# 2 0.002235 0.022891 -0.004272 0.000000 0.007487 0.000000
# 3 -0.002956 -0.004272 0.016523 0.000000 -0.003331 0.000000
# 4 0.000000 0.000000 0.000000 0.022021 0.000000 0.061447
# 5 0.007424 0.007487 -0.003331 0.000000 0.039052 0.000000
# 6 0.000000 0.000000 0.000000 0.061447 0.000000 -0.422152
#
#
# Mechanical properties :
#
#
# Convention : Reuss Voigt Hill
#
# Bulk Modulus (GPa) = 26.45777 36.17145 31.31461
# Shear Modulus (GPa) = -17.19910 28.34874 5.57482
#
# Velocity S-wave (km/s) = -2.75697 3.53954 1.56962
# Velocity P-wave (km/s) = 1.24824 5.71751 4.13812
#
# Compressibility (1/GPa) = 0.03779609
#
# Stress axis : x y z
#
# Youngs Moduli (GPa) = 119.50552 43.68440 60.52335
#
# Poissons Ratio (x) = -0.09763 0.17889
# Poissons Ratio (y) = -0.26708 0.25856
# Poissons Ratio (z) = 0.35322 0.18662
#
# Static dielectric constant tensor:
#      x y z
#    x 1.985570 0.000000 0.100330 
#    y 0.000000 1.859310 0.000000 
#    z 0.100330 0.000000 2.129150 
# 
# From -- ./inp_files/152612.got.cif
#   From: 2010.05.17/outbox.cif.g08.bks.cpg/sg15_77_cif.got.tgz:152612.got - 2010.06.03 18:47:42.
