data_PCOD9293023
_publ_section_title
;
Structure prediction by ZEFSAII (Michael W. Deem and Ramdas Pophale) SiO2 
 PCOD9293023
Probable space group: C 2/C
;
_chemical_formula_sum "Si O2"
_cell_formula_units_Z 40
_cell_length_a 5.709123
_cell_length_b 27.942549
_cell_length_c 12.535549
_cell_angle_alpha 90.000000
_cell_angle_beta 67.180828
_cell_angle_gamma 90.000000
_cell_volume 1843.249478
_symmetry_space_group_name_H-M "C 2/C"
_symmetry_group_IT_number 15
_symmetry_cell_setting 'monoclinic'
loop_
_space_group_symop_operation_xyz
x,y,z
-x,y,1/2-z
-x,-y,-z
x,-y,1/2+z
1/2+x,1/2+y,z
1/2-x,1/2+y,1/2-z
1/2-x,1/2-y,-z
1/2+x,1/2-y,1/2+z
loop_
_atom_site_type_symbol
_atom_site_label
_atom_site_fract_x
_atom_site_fract_y
_atom_site_fract_z
Si Si1 0.549629 0.358322 0.949484
Si Si2 0.055445 0.237706 0.937265
Si Si3 0.156144 0.488349 0.814708
Si Si4 0.000000 0.301194 0.750000
Si Si5 0.500000 0.596592 0.250000
Si Si6 0.172300 0.040802 0.523410
O O1 0.398696 0.372690 0.867109
O O2 0.583643 0.406830 0.008593
O O3 0.801126 0.334806 0.849101
O O4 0.441646 0.319555 0.050731
O O5 0.128529 0.265954 0.815955
O O6 0.250000 0.250000 0.000000
O O7 0.750000 0.250000 0.000000
O O8 0.299100 0.442164 0.741061
O O9 0.000000 0.513738 0.750000
O O10 0.956629 0.464359 0.929718
O O11 0.312884 0.525112 0.857143
O O12 0.000000 0.000000 0.500000
#
# Coordination Sequence:
#
# PCOD9293023 Si02
#       6
#     8   8   8   4   4   8
#     4  11  21  38  69  97 127 174 224 264 335 403
#     4  10  23  43  67 101 135 164 222 293 331 393
#     4  11  21  37  59  88 133 171 216 269 313 378
#     4  10  22  44  71  96 126 175 224 276 344 396
#     4  12  20  36  65  94 120 175 220 254 324 400
#     4  11  22  38  58  92 134 168 214 269 315 394
#
# _framework density 21.700809
#
# number of rings (size 3 to 8) (size 9 to 14) (size 15 to 20)
#    0.000    1.200    4.000    2.400    0.000    4.000 
#    0.000    3.000    0.000    0.000    0.000    0.000 
#    0.000    0.000    0.000    0.000    0.000    0.000 
#
# Total GULP energy -111420.041956 kJ/mol
# GULP energy per Si atom -5571.002098 kJ/mol
# Density = 2.165142 g / cm^3
# Si number density = 21.700809 Si / 1000 Ang^3
#
#
#
# Elastic Constant Matrix: (Units=GPa)
#
#
# Indices 1 2 3 4 5 6 
#
# 1 94.2849 45.0193 29.1881 0.0000 40.3378 0.0000
# 2 45.0193 193.2982 44.4275 0.0000 30.1450 0.0000
# 3 29.1881 44.4275 68.8921 0.0000 24.9260 0.0000
# 4 0.0000 0.0000 0.0000 38.2841 0.0000 11.5233
# 5 40.3378 30.1450 24.9260 0.0000 56.6343 0.0000
# 6 0.0000 0.0000 0.0000 11.5233 0.0000 26.3317
#
#
#
# Elastic Compliance Matrix: (Units=1/GPa)
#
#
# Indices 1 2 3 4 5 6 
#
# 1 0.016284 -0.001765 -0.002265 0.000000 -0.009662 0.000000
# 2 -0.001765 0.006422 -0.003107 0.000000 -0.000794 0.000000
# 3 -0.002265 -0.003107 0.019383 0.000000 -0.005264 0.000000
# 4 0.000000 0.000000 0.000000 0.030083 0.000000 -0.013165
# 5 -0.009662 -0.000794 -0.005264 0.000000 0.027278 0.000000
# 6 0.000000 0.000000 0.000000 -0.013165 0.000000 0.043738
#
#
# Mechanical properties :
#
#
# Convention : Reuss Voigt Hill
#
# Bulk Modulus (GPa) = 35.95101 65.97168 50.96134
# Shear Modulus (GPa) = 29.98794 40.10606 35.04700
#
# Velocity S-wave (km/s) = 3.72140 4.30366 4.02308
# Velocity P-wave (km/s) = 5.92180 7.42710 6.71675
#
# Compressibility (1/GPa) = 0.02781563
#
# Stress axis : x y z
#
# Youngs Moduli (GPa) = 61.41109 155.70808 51.59139
#
# Poissons Ratio (x) = 0.27485 0.11686
# Poissons Ratio (y) = 0.10840 0.16027
# Poissons Ratio (z) = 0.13910 0.48371
#
# Static dielectric constant tensor:
#      x y z
#    x 1.858360 0.000000 0.072090 
#    y 0.000000 1.778770 0.000000 
#    z 0.072090 0.000000 1.747090 
# 
# From -- ./inp_files/73236.got.cif
#   From: 2010.05.17/outbox.cif.g08.bks.cpg/sg15_37_cif.got.tgz:73236.got - 2010.06.03 18:47:42.
