data_PCOD9293225
_publ_section_title
;
Structure prediction by ZEFSAII (Michael W. Deem and Ramdas Pophale) SiO2 
 PCOD9293225
Probable space group: C 2/C
;
_chemical_formula_sum "Si O2"
_cell_formula_units_Z 48
_cell_length_a 23.040018
_cell_length_b 8.281956
_cell_length_c 11.579157
_cell_angle_alpha 90.000000
_cell_angle_beta 75.670412
_cell_angle_gamma 90.000000
_cell_volume 2140.751588
_symmetry_space_group_name_H-M "C 2/C"
_symmetry_group_IT_number 15
_symmetry_cell_setting 'monoclinic'
loop_
_space_group_symop_operation_xyz
x,y,z
-x,y,1/2-z
-x,-y,-z
x,-y,1/2+z
1/2+x,1/2+y,z
1/2-x,1/2+y,1/2-z
1/2-x,1/2-y,-z
1/2+x,1/2-y,1/2+z
loop_
_atom_site_type_symbol
_atom_site_label
_atom_site_fract_x
_atom_site_fract_y
_atom_site_fract_z
Si Si1 0.886404 0.402458 0.409425
Si Si2 0.170334 0.251579 0.272387
Si Si3 0.294297 0.110137 0.156992
Si Si4 0.967085 0.754315 0.037975
Si Si5 0.616684 0.240611 0.210146
Si Si6 0.593282 0.590651 0.503107
O O1 0.879896 0.294102 0.298363
O O2 0.830391 0.365700 0.520890
O O3 0.945838 0.376618 0.455723
O O4 0.881068 0.585932 0.373090
O O5 0.225463 0.157749 0.187685
O O6 0.193038 0.426303 0.308159
O O7 0.144370 0.146811 0.390129
O O8 0.326055 0.226853 0.235512
O O9 0.940060 0.722596 0.177527
O O10 0.931744 0.914746 0.013054
O O11 0.036567 0.791839 0.009830
O O12 0.612537 0.391295 0.126747
#
# Coordination Sequence:
#
# PCOD9293225 Si02
#       6
#     8   8   8   8   8   8
#     4  10  22  45  65  95 131 168 221 266 329 387
#     4  11  24  41  65  94 131 173 217 271 322 386
#     4  10  23  42  63  97 129 172 219 266 327 384
#     4  10  25  43  68  96 131 173 215 267 332 388
#     4  10  22  45  66  95 131 166 218 270 320 394
#     4  11  24  44  65  97 132 169 221 267 325 392
#
# _framework density 22.422029999999999
#
# number of rings (size 3 to 8) (size 9 to 14) (size 15 to 20)
#    0.000    1.667    1.667    1.000    7.000    2.000 
#    6.000    0.000    0.000    0.000    0.000    0.000 
#    0.000    0.000    0.000    0.000    0.000    0.000 
#
# Total GULP energy -134309.714689 kJ/mol
# GULP energy per Si atom -5596.238112 kJ/mol
# Density = 2.237100 g / cm^3
# Si number density = 22.422030 Si / 1000 Ang^3
#
#
#
# Elastic Constant Matrix: (Units=GPa)
#
#
# Indices 1 2 3 4 5 6 
#
# 1 47.5487 10.2527 8.8745 0.0000 -5.8832 0.0000
# 2 10.2527 26.1801 3.4742 0.0000 10.0574 0.0000
# 3 8.8745 3.4742 73.5497 0.0000 19.3304 0.0000
# 4 0.0000 0.0000 0.0000 13.7306 0.0000 0.6321
# 5 -5.8832 10.0574 19.3304 0.0000 26.3050 0.0000
# 6 0.0000 0.0000 0.0000 0.6321 0.0000 37.2280
#
#
#
# Elastic Compliance Matrix: (Units=1/GPa)
#
#
# Indices 1 2 3 4 5 6 
#
# 1 0.028412 -0.017211 -0.007454 0.000000 0.018413 0.000000
# 2 -0.017211 0.055723 0.007505 0.000000 -0.030670 0.000000
# 3 -0.007454 0.007505 0.019004 0.000000 -0.018502 0.000000
# 4 0.000000 0.000000 0.000000 0.072887 0.000000 -0.001238
# 5 0.018413 -0.030670 -0.018502 0.000000 0.067456 0.000000
# 6 0.000000 0.000000 0.000000 -0.001238 0.000000 0.026883
#
#
# Mechanical properties :
#
#
# Convention : Reuss Voigt Hill
#
# Bulk Modulus (GPa) = 14.53100 21.38683 17.95892
# Shear Modulus (GPa) = 15.26138 23.76452 19.51295
#
# Velocity S-wave (km/s) = 2.61174 3.25910 2.95321
# Velocity P-wave (km/s) = 3.94838 4.87046 4.43345
#
# Compressibility (1/GPa) = 0.06881838
#
# Stress axis : x y z
#
# Youngs Moduli (GPa) = 35.19676 17.94584 52.62093
#
# Poissons Ratio (x) = 0.30886 0.39226
# Poissons Ratio (y) = 0.60577 -0.39493
# Poissons Ratio (z) = 0.26237 -0.13469
#
# Static dielectric constant tensor:
#      x y z
#    x 1.798000 0.000000 0.026950 
#    y 0.000000 1.870530 0.000000 
#    z 0.026950 0.000000 1.799870 
# 
# From -- ./inp_files/116711.got.cif
#   From: 2010.05.17/outbox.cif.g08.bks.cpg/sg15_59_cif.got.tgz:116711.got - 2010.06.03 18:47:42.
