data_PCOD9293567
_publ_section_title
;
Structure prediction by ZEFSAII (Michael W. Deem and Ramdas Pophale) SiO2 
 PCOD9293567
Probable space group: C 2/C
;
_chemical_formula_sum "Si O2"
_cell_formula_units_Z 56
_cell_length_a 20.300202
_cell_length_b 8.098231
_cell_length_c 31.325418
_cell_angle_alpha 90.000000
_cell_angle_beta 152.064399
_cell_angle_gamma 90.000000
_cell_volume 2412.555925
_symmetry_space_group_name_H-M "C 2/C"
_symmetry_group_IT_number 15
_symmetry_cell_setting 'monoclinic'
loop_
_space_group_symop_operation_xyz
x,y,z
-x,y,1/2-z
-x,-y,-z
x,-y,1/2+z
1/2+x,1/2+y,z
1/2-x,1/2+y,1/2-z
1/2-x,1/2-y,-z
1/2+x,1/2-y,1/2+z
loop_
_atom_site_type_symbol
_atom_site_label
_atom_site_fract_x
_atom_site_fract_y
_atom_site_fract_z
Si Si1 0.335398 0.021994 0.394340
Si Si2 0.516727 0.526297 0.060369
Si Si3 0.258333 0.332598 0.050508
Si Si4 0.216175 0.688044 0.303930
Si Si5 0.303171 0.990728 0.620878
Si Si6 0.430627 0.810844 0.868473
Si Si7 0.858068 0.152905 0.146790
O O1 0.237560 0.860245 0.340760
O O2 0.500000 0.000000 0.500000
O O3 0.335729 0.080133 0.345514
O O4 0.266013 0.146951 0.388548
O O5 0.627644 0.671721 0.127797
O O6 0.588263 0.373285 0.124724
O O7 0.500000 0.500000 0.000000
O O8 0.357797 0.529515 0.985258
O O9 0.321507 0.515509 0.090577
O O10 0.339622 0.188702 0.122870
O O11 0.250000 0.250000 0.000000
O O12 0.095175 0.349199 0.971337
O O13 0.191772 0.545184 0.325245
O O14 0.107879 0.680526 0.203173
O O15 0.380357 0.154216 0.648652
O O16 0.000000 0.094737 0.250000
#
# Coordination Sequence:
#
# PCOD9293567 Si02
#       7
#     8   8   8   8   8   8   8
#     4  12  21  42  71 101 141 185 242 289 366 434
#     4   9  18  37  61  93 136 182 230 283 355 437
#     4  11  26  47  71  99 142 189 239 296 361 442
#     4  11  21  37  67 102 140 182 231 306 359 427
#     4  10  22  46  68  95 138 191 232 287 369 429
#     4  11  23  39  67 106 137 187 239 299 369 425
#     4  12  27  45  73 106 136 190 245 296 362 446
#
# _framework density 23.211898000000001
#
# number of rings (size 3 to 8) (size 9 to 14) (size 15 to 20)
#    0.000    1.143    2.857    5.143    2.000    2.286 
#    0.000    0.000    0.000    0.000    0.000    0.000 
#    0.000    0.000    0.000    0.000    0.000    0.000 
#
# Total GULP energy -156315.992712 kJ/mol
# GULP energy per Si atom -5582.714025 kJ/mol
# Density = 2.315907 g / cm^3
# Si number density = 23.211898 Si / 1000 Ang^3
#
#
#
# Elastic Constant Matrix: (Units=GPa)
#
#
# Indices 1 2 3 4 5 6 
#
# 1 62.5102 21.3480 11.5595 0.0000 -16.7784 0.0000
# 2 21.3480 139.7975 31.6140 0.0002 -22.3195 -0.0003
# 3 11.5595 31.6140 89.4896 0.0000 -19.1611 0.0001
# 4 0.0000 0.0002 0.0000 32.6210 0.0000 -6.2095
# 5 -16.7784 -22.3195 -19.1611 0.0000 38.5710 0.0000
# 6 0.0000 -0.0003 0.0001 -6.2095 0.0000 24.5182
#
#
#
# Elastic Compliance Matrix: (Units=1/GPa)
#
#
# Indices 1 2 3 4 5 6 
#
# 1 0.018477 -0.001643 -0.000323 0.000000 0.006926 0.000000
# 2 -0.001643 0.008369 -0.002082 0.000000 0.003094 0.000000
# 3 -0.000323 -0.002082 0.013052 0.000000 0.005139 0.000000
# 4 0.000000 0.000000 0.000000 0.032208 0.000000 0.008157
# 5 0.006926 0.003094 0.005139 0.000000 0.033282 0.000000
# 6 0.000000 0.000000 0.000000 0.008157 0.000000 0.042852
#
#
# Mechanical properties :
#
#
# Convention : Reuss Voigt Hill
#
# Bulk Modulus (GPa) = 31.44417 46.76004 39.10211
# Shear Modulus (GPa) = 29.95155 34.29378 32.12266
#
# Velocity S-wave (km/s) = 3.59605 3.84790 3.72410
# Velocity P-wave (km/s) = 5.55140 6.31904 5.94762
#
# Compressibility (1/GPa) = 0.03180239
#
# Stress axis : x y z
#
# Youngs Moduli (GPa) = 54.12048 119.49150 76.61706
#
# Poissons Ratio (x) = 0.19628 0.02478
# Poissons Ratio (y) = 0.08890 0.15950
# Poissons Ratio (z) = 0.01750 0.24876
#
# Static dielectric constant tensor:
#      x y z
#    x 1.827310 0.000000 -0.057600 
#    y 0.000000 1.770720 0.000000 
#    z -0.057600 0.000000 1.816960 
# 
# From -- ./inp_files/317540.got.cif
#   From: 2010.05.17/outbox.cif.g08.bks.cpg/sg15_159_cif.got.tgz:317540.got - 2010.06.03 18:47:42.
