data_PCOD9293073
_publ_section_title
;
Structure prediction by ZEFSAII (Michael W. Deem and Ramdas Pophale) SiO2 
 PCOD9293073
Probable space group: C 2/C
;
_chemical_formula_sum "Si O2"
_cell_formula_units_Z 52
_cell_length_a 22.160342
_cell_length_b 7.145214
_cell_length_c 13.603355
_cell_angle_alpha 90.000000
_cell_angle_beta 99.900142
_cell_angle_gamma 90.000000
_cell_volume 2121.885639
_symmetry_space_group_name_H-M "C 2/C"
_symmetry_group_IT_number 15
_symmetry_cell_setting 'monoclinic'
loop_
_space_group_symop_operation_xyz
x,y,z
-x,y,1/2-z
-x,-y,-z
x,-y,1/2+z
1/2+x,1/2+y,z
1/2-x,1/2+y,1/2-z
1/2-x,1/2-y,-z
1/2+x,1/2-y,1/2+z
loop_
_atom_site_type_symbol
_atom_site_label
_atom_site_fract_x
_atom_site_fract_y
_atom_site_fract_z
Si Si1 0.317198 0.825517 0.739036
Si Si2 0.000000 0.408406 0.250000
Si Si3 0.810640 0.692279 0.461777
Si Si4 0.555243 0.727007 0.830201
Si Si5 0.308848 0.175624 0.861585
Si Si6 0.437196 0.649428 0.367520
Si Si7 0.933736 0.118428 0.021487
O O1 0.309899 0.740636 0.847411
O O2 0.380290 0.760823 0.707544
O O3 0.256563 0.772963 0.662397
O O4 0.315920 0.044503 0.766408
O O5 0.026959 0.563379 0.335343
O O6 0.053085 0.265112 0.230437
O O7 0.750000 0.750000 0.500000
O O8 0.811423 0.468742 0.452295
O O9 0.873150 0.766482 0.525043
O O10 0.500000 0.634797 0.750000
O O11 0.568788 0.576969 0.918690
O O12 0.369653 0.295029 0.882357
O O13 0.501873 0.713982 0.434637
O O14 0.437255 0.435935 0.407254
#
# Coordination Sequence:
#
# PCOD9293073 Si02
#       7
#     8   4   8   8   8   8   8
#     4  10  23  43  70  97 137 185 231 284 336 418
#     4  10  22  44  72  92 146 170 242 264 354 402
#     4  10  24  46  66 102 140 181 228 293 341 412
#     4  10  23  45  68 102 135 185 227 289 339 420
#     4  10  23  43  71  93 139 177 237 269 345 405
#     4  11  26  45  67 108 131 193 218 298 333 419
#     4  11  27  40  72 100 145 172 238 280 353 395
#
# _framework density 24.506504
#
# number of rings (size 3 to 8) (size 9 to 14) (size 15 to 20)
#    1.385    0.308    1.538    0.923    7.538    3.692 
#    2.769    1.538    0.000    0.000    0.000    0.000 
#    0.000    0.000    0.000    0.000    0.000    0.000 
#
# Total GULP energy -144841.070980 kJ/mol
# GULP energy per Si atom -5570.810422 kJ/mol
# Density = 2.445073 g / cm^3
# Si number density = 24.506504 Si / 1000 Ang^3
#
#
#
# Elastic Constant Matrix: (Units=GPa)
#
#
# Indices 1 2 3 4 5 6 
#
# 1 208.8274 25.3660 32.0753 0.0000 18.5600 0.0000
# 2 25.3660 57.7121 30.5662 0.0000 18.6900 0.0000
# 3 32.0753 30.5662 50.0257 0.0000 2.8504 0.0000
# 4 0.0000 0.0000 0.0000 41.3019 0.0000 14.9840
# 5 18.5600 18.6900 2.8504 0.0000 39.6025 0.0000
# 6 0.0000 0.0000 0.0000 14.9840 0.0000 45.0427
#
#
#
# Elastic Compliance Matrix: (Units=1/GPa)
#
#
# Indices 1 2 3 4 5 6 
#
# 1 0.005522 0.000247 -0.003552 0.000000 -0.002449 0.000000
# 2 0.000247 0.031504 -0.018631 0.000000 -0.013643 0.000000
# 3 -0.003552 -0.018631 0.033191 0.000000 0.008068 0.000000
# 4 0.000000 0.000000 0.000000 0.027535 0.000000 -0.009160
# 5 -0.002449 -0.013643 0.008068 0.000000 0.032257 0.000000
# 6 0.000000 0.000000 0.000000 -0.009160 0.000000 0.025248
#
#
# Mechanical properties :
#
#
# Convention : Reuss Voigt Hill
#
# Bulk Modulus (GPa) = 37.95578 54.73112 46.34345
# Shear Modulus (GPa) = 24.04881 40.42662 32.23771
#
# Velocity S-wave (km/s) = 3.13601 4.06597 3.63088
# Velocity P-wave (km/s) = 5.35111 6.66518 6.04396
#
# Compressibility (1/GPa) = 0.02634645
#
# Stress axis : x y z
#
# Youngs Moduli (GPa) = 181.09909 31.74154 30.12858
#
# Poissons Ratio (x) = -0.00785 0.10702
# Poissons Ratio (y) = -0.04480 0.56132
# Poissons Ratio (z) = 0.64328 0.59137
#
# Static dielectric constant tensor:
#      x y z
#    x 1.940020 0.000000 0.035500 
#    y 0.000000 1.975000 0.000000 
#    z 0.035500 0.000000 2.231130 
# 
# From -- ./inp_files/209142.got.cif
#   From: 2010.05.17/outbox.cif.g08.bks.cpg/sg15_105_cif.got.tgz:209142.got - 2010.06.03 18:47:42.
