data_PCOD9293977
_publ_section_title
;
Structure prediction by ZEFSAII (Michael W. Deem and Ramdas Pophale) SiO2 
 PCOD9293977
Probable space group: C 2/C
;
_chemical_formula_sum "Si O2"
_cell_formula_units_Z 44
_cell_length_a 11.756426
_cell_length_b 20.455048
_cell_length_c 8.641707
_cell_angle_alpha 90.000000
_cell_angle_beta 97.297339
_cell_angle_gamma 90.000000
_cell_volume 2061.310404
_symmetry_space_group_name_H-M "C 2/C"
_symmetry_group_IT_number 15
_symmetry_cell_setting 'monoclinic'
loop_
_space_group_symop_operation_xyz
x,y,z
-x,y,1/2-z
-x,-y,-z
x,-y,1/2+z
1/2+x,1/2+y,z
1/2-x,1/2+y,1/2-z
1/2-x,1/2-y,-z
1/2+x,1/2-y,1/2+z
loop_
_atom_site_type_symbol
_atom_site_label
_atom_site_fract_x
_atom_site_fract_y
_atom_site_fract_z
Si Si1 0.596764 0.729843 0.530222
Si Si2 0.863419 0.461218 0.717326
Si Si3 0.807170 0.589232 0.865318
Si Si4 0.842437 0.191177 0.516884
Si Si5 0.000000 0.321754 0.250000
Si Si6 0.245170 0.838563 0.827988
O O1 0.471882 0.711980 0.568210
O O2 0.571504 0.776588 0.378108
O O3 0.671522 0.775135 0.655521
O O4 0.669864 0.670445 0.469800
O O5 0.800056 0.528057 0.750431
O O6 0.835256 0.438891 0.539643
O O7 0.821956 0.403335 0.824991
O O8 0.000000 0.471268 0.750000
O O9 0.912790 0.633952 0.830297
O O10 0.699384 0.636503 0.870340
O O11 0.750000 0.250000 0.500000
O O12 0.833039 0.163858 0.339043
#
# Coordination Sequence:
#
# PCOD9293977 Si02
#       6
#     8   8   8   8   4   8
#     4  11  21  39  64  92 128 160 208 261 315 374
#     4  11  23  39  59  89 126 163 210 261 303 372
#     4  11  24  37  63  88 125 165 209 253 317 362
#     4  11  21  40  61  93 125 166 204 262 314 373
#     4  12  20  38  62  90 122 164 200 262 318 364
#     4  10  23  37  61  93 124 166 205 256 317 370
#
# _framework density 21.345645999999999
#
# number of rings (size 3 to 8) (size 9 to 14) (size 15 to 20)
#    0.000    1.091    4.545    1.636    5.091    0.000 
#    0.000    0.909    0.000    0.000    0.000    0.000 
#    0.000    0.000    0.000    0.000    0.000    0.000 
#
# Total GULP energy -123110.043229 kJ/mol
# GULP energy per Si atom -5595.911056 kJ/mol
# Density = 2.129706 g / cm^3
# Si number density = 21.345646 Si / 1000 Ang^3
#
#
#
# Elastic Constant Matrix: (Units=GPa)
#
#
# Indices 1 2 3 4 5 6 
#
# 1 150.7193 51.8898 25.4433 0.0000 -21.9528 0.0000
# 2 51.8898 104.7073 29.0378 0.0000 -29.5677 0.0000
# 3 25.4433 29.0378 74.0247 0.0000 -9.0168 0.0000
# 4 0.0000 0.0000 0.0000 33.2226 0.0000 -25.3133
# 5 -21.9528 -29.5677 -9.0168 0.0000 30.4270 0.0000
# 6 0.0000 0.0000 0.0000 -25.3133 0.0000 45.8220
#
#
#
# Elastic Compliance Matrix: (Units=1/GPa)
#
#
# Indices 1 2 3 4 5 6 
#
# 1 0.008276 -0.002968 -0.001353 0.000000 0.002686 0.000000
# 2 -0.002968 0.015306 -0.003562 0.000000 0.011678 0.000000
# 3 -0.001353 -0.003562 0.015386 0.000000 0.000122 0.000000
# 4 0.000000 0.000000 0.000000 0.051978 0.000000 0.028714
# 5 0.002686 0.011678 0.000122 0.000000 0.046188 0.000000
# 6 0.000000 0.000000 0.000000 0.028714 0.000000 0.037686
#
#
# Mechanical properties :
#
#
# Convention : Reuss Voigt Hill
#
# Bulk Modulus (GPa) = 43.09708 60.24368 51.67038
# Shear Modulus (GPa) = 25.21164 36.76634 30.98899
#
# Velocity S-wave (km/s) = 3.44046 4.15472 3.81434
# Velocity P-wave (km/s) = 6.00136 7.16239 6.60742
#
# Compressibility (1/GPa) = 0.02320343
#
# Stress axis : x y z
#
# Youngs Moduli (GPa) = 120.82732 65.33203 64.99315
#
# Poissons Ratio (x) = 0.19388 0.08796
# Poissons Ratio (y) = 0.35856 0.23150
# Poissons Ratio (z) = 0.16352 0.23270
#
# Static dielectric constant tensor:
#      x y z
#    x 1.756760 0.000000 -0.026280 
#    y 0.000000 1.774200 0.000000 
#    z -0.026280 0.000000 1.802610 
# 
# From -- ./inp_files/30830.got.cif
#   From: 2010.05.17/outbox.cif.g08.bks.cpg/sg15_16_cif.got.tgz:30830.got - 2010.06.03 18:47:42.
