data_PCOD9293718
_publ_section_title
;
Structure prediction by ZEFSAII (Michael W. Deem and Ramdas Pophale) SiO2 
 PCOD9293718
Probable space group: C 2/C
;
_chemical_formula_sum "Si O2"
_cell_formula_units_Z 40
_cell_length_a 10.514989
_cell_length_b 25.270872
_cell_length_c 7.140440
_cell_angle_alpha 90.000000
_cell_angle_beta 125.556277
_cell_angle_gamma 90.000000
_cell_volume 1543.602491
_symmetry_space_group_name_H-M "C 2/C"
_symmetry_group_IT_number 15
_symmetry_cell_setting 'monoclinic'
loop_
_space_group_symop_operation_xyz
x,y,z
-x,y,1/2-z
-x,-y,-z
x,-y,1/2+z
1/2+x,1/2+y,z
1/2-x,1/2+y,1/2-z
1/2-x,1/2-y,-z
1/2+x,1/2-y,1/2+z
loop_
_atom_site_type_symbol
_atom_site_label
_atom_site_fract_x
_atom_site_fract_y
_atom_site_fract_z
Si Si1 0.711928 0.217875 0.152802
Si Si2 0.904097 0.449696 0.491062
Si Si3 0.793527 0.619453 0.547120
Si Si4 0.631296 0.527063 0.242967
Si Si5 0.457253 0.319107 0.407800
O O1 0.627288 0.262228 0.204253
O O2 0.875145 0.196055 0.366809
O O3 0.750000 0.250000 0.000000
O O4 0.623162 0.166318 0.999579
O O5 0.873533 0.412859 0.285824
O O6 0.737397 0.477522 0.405975
O O7 0.000000 0.500000 0.500000
O O8 0.000000 0.427486 0.750000
O O9 0.750086 0.576277 0.348885
O O10 0.652872 0.648199 0.545696
O O11 0.500000 0.556395 0.250000
O O12 0.500000 0.500000 0.000000
O O13 0.500000 0.347993 0.250000
#
# Coordination Sequence:
#
# PCOD9293718 Si02
#       5
#     8   8   8   8   8
#     4  10  22  46  76 105 144 187 237 306 374 447
#     4  12  25  48  67 104 154 196 249 311 362 435
#     4  11  24  46  73 108 147 198 248 290 378 438
#     4  12  23  43  74 103 145 195 250 301 368 438
#     4  11  24  47  76 112 146 182 244 311 373 450
#
# _framework density 25.913408
#
# number of rings (size 3 to 8) (size 9 to 14) (size 15 to 20)
#    0.000    0.800    4.000    4.200    0.000    0.800 
#   21.600    4.000    0.000    0.000    0.000    0.000 
#    0.000    0.000    0.000    0.000    0.000    0.000 
#
# Total GULP energy -111388.522041 kJ/mol
# GULP energy per Si atom -5569.426102 kJ/mol
# Density = 2.585443 g / cm^3
# Si number density = 25.913408 Si / 1000 Ang^3
#
#
#
# Elastic Constant Matrix: (Units=GPa)
#
#
# Indices 1 2 3 4 5 6 
#
# 1 98.5665 19.1935 14.2424 0.0000 5.2241 0.0000
# 2 19.1935 166.5529 61.6992 0.0000 5.6397 0.0000
# 3 14.2424 61.6992 178.2991 0.0000 22.6353 0.0000
# 4 0.0000 0.0000 0.0000 42.4801 0.0000 9.9021
# 5 5.2241 5.6397 22.6353 0.0000 39.0309 0.0000
# 6 0.0000 0.0000 0.0000 9.9021 0.0000 44.2676
#
#
#
# Elastic Compliance Matrix: (Units=1/GPa)
#
#
# Indices 1 2 3 4 5 6 
#
# 1 0.010453 -0.001043 -0.000341 0.000000 -0.001051 0.000000
# 2 -0.001043 0.006997 -0.002404 0.000000 0.000523 0.000000
# 3 -0.000341 -0.002404 0.006928 0.000000 -0.003625 0.000000
# 4 0.000000 0.000000 0.000000 0.024835 0.000000 -0.005555
# 5 -0.001051 0.000523 -0.003625 0.000000 0.027788 0.000000
# 6 0.000000 0.000000 0.000000 -0.005555 0.000000 0.023833
#
#
# Mechanical properties :
#
#
# Convention : Reuss Voigt Hill
#
# Bulk Modulus (GPa) = 59.51441 70.40984 64.96213
# Shear Modulus (GPa) = 43.85524 48.37463 46.11494
#
# Velocity S-wave (km/s) = 4.11831 4.32531 4.22308
# Velocity P-wave (km/s) = 6.75504 7.22320 6.99304
#
# Compressibility (1/GPa) = 0.01680265
#
# Stress axis : x y z
#
# Youngs Moduli (GPa) = 95.66230 142.91239 144.34224
#
# Poissons Ratio (x) = 0.14904 0.04918
# Poissons Ratio (y) = 0.09976 0.34706
# Poissons Ratio (z) = 0.03260 0.34363
#
# Static dielectric constant tensor:
#      x y z
#    x 2.161340 0.000000 -0.024530 
#    y 0.000000 1.976220 0.000000 
#    z -0.024530 0.000000 2.221290 
# 
# From -- ./inp_files/42425.got.cif
#   From: 2010.05.17/outbox.cif.g08.bks.cpg/sg15_22_cif.got.tgz:42425.got - 2010.06.03 18:47:42.
