data_PCOD9293878
_publ_section_title
;
Structure prediction by ZEFSAII (Michael W. Deem and Ramdas Pophale) SiO2 
 PCOD9293878
Probable space group: C 2/C
;
_chemical_formula_sum "Si O2"
_cell_formula_units_Z 56
_cell_length_a 11.234621
_cell_length_b 8.580584
_cell_length_c 29.641013
_cell_angle_alpha 90.000000
_cell_angle_beta 111.171067
_cell_angle_gamma 90.000000
_cell_volume 2664.526764
_symmetry_space_group_name_H-M "C 2/C"
_symmetry_group_IT_number 15
_symmetry_cell_setting 'monoclinic'
loop_
_space_group_symop_operation_xyz
x,y,z
-x,y,1/2-z
-x,-y,-z
x,-y,1/2+z
1/2+x,1/2+y,z
1/2-x,1/2+y,1/2-z
1/2-x,1/2-y,-z
1/2+x,1/2-y,1/2+z
loop_
_atom_site_type_symbol
_atom_site_label
_atom_site_fract_x
_atom_site_fract_y
_atom_site_fract_z
Si Si1 0.664745 0.626545 0.923013
Si Si2 0.500000 0.740727 0.250000
Si Si3 0.362354 0.987511 0.591938
Si Si4 0.469965 0.492313 0.324016
Si Si5 0.000000 0.745784 0.250000
Si Si6 0.154503 0.888455 0.003272
Si Si7 0.682652 0.007743 0.810074
Si Si8 0.035029 0.634666 0.540851
O O1 0.619244 0.805993 0.918882
O O2 0.583856 0.533646 0.874713
O O3 0.654340 0.527729 0.967304
O O4 0.814300 0.636654 0.931750
O O5 0.485350 0.638497 0.292935
O O6 0.376153 0.847081 0.224916
O O7 0.370743 0.007935 0.646388
O O8 0.221947 0.045603 0.557026
O O9 0.463458 0.088821 0.577374
O O10 0.472449 0.348496 0.289836
O O11 0.334575 0.497152 0.330381
O O12 0.122328 0.640982 0.277348
O O13 0.020631 0.797982 0.985549
O O14 0.250000 0.750000 0.000000
O O15 0.000000 0.500000 0.500000
#
# Coordination Sequence:
#
# PCOD9293878 Si02
#       8
#     8   4   8   8   4   8   8   8
#     4  12  25  44  69 102 137 180 231 279 342 404
#     4  10  26  44  74  98 130 182 222 272 348 412
#     4  11  25  44  68 103 134 182 230 280 340 403
#     4  11  25  44  70 101 133 175 224 278 342 403
#     4  10  22  50  64  98 136 168 224 284 344 398
#     4  10  23  43  65  97 137 179 227 275 334 408
#     4  11  24  46  69 100 136 171 226 280 341 404
#     4  11  25  46  68  95 144 183 222 286 334 400
#
# _framework density 21.016866
#
# number of rings (size 3 to 8) (size 9 to 14) (size 15 to 20)
#    0.000    1.143    4.286    1.286    6.000    2.857 
#   10.286    0.000    0.000    0.000    0.000    0.000 
#    0.000    0.000    0.000    0.000    0.000    0.000 
#
# Total GULP energy -156629.751948 kJ/mol
# GULP energy per Si atom -5593.919712 kJ/mol
# Density = 2.096903 g / cm^3
# Si number density = 21.016866 Si / 1000 Ang^3
#
#
#
# Elastic Constant Matrix: (Units=GPa)
#
#
# Indices 1 2 3 4 5 6 
#
# 1 102.0267 11.6527 14.0602 0.0000 16.8637 0.0000
# 2 11.6527 85.2106 9.7877 0.0000 3.9096 0.0000
# 3 14.0602 9.7877 84.8524 0.0000 16.3570 0.0000
# 4 0.0000 0.0000 0.0000 -1.9872 0.0000 -8.5417
# 5 16.8637 3.9096 16.3570 0.0000 30.0455 0.0000
# 6 0.0000 0.0000 0.0000 -8.5417 0.0000 10.8476
#
#
#
# Elastic Compliance Matrix: (Units=1/GPa)
#
#
# Indices 1 2 3 4 5 6 
#
# 1 0.010954 -0.001170 -0.000586 0.000000 -0.005677 0.000000
# 2 -0.001170 0.012040 -0.001139 0.000000 -0.000290 0.000000
# 3 -0.000586 -0.001139 0.013319 0.000000 -0.006774 0.000000
# 4 0.000000 0.000000 0.000000 -0.114769 0.000000 -0.090372
# 5 -0.005677 -0.000290 -0.006774 0.000000 0.040195 0.000000
# 6 0.000000 0.000000 0.000000 -0.090372 0.000000 0.021025
#
#
# Mechanical properties :
#
#
# Convention : Reuss Voigt Hill
#
# Bulk Modulus (GPa) = 32.76185 38.12122 35.44153
# Shear Modulus (GPa) = -3932.81389 23.55378 -1954.63006
#
# Velocity S-wave (km/s) = -43.30506 3.35133 -30.52947
# Velocity P-wave (km/s) = 49.84792 5.75786 35.01187
#
# Compressibility (1/GPa) = 0.03052331
#
# Stress axis : x y z
#
# Youngs Moduli (GPa) = 91.29016 83.05796 75.07792
#
# Poissons Ratio (x) = 0.09720 0.04398
# Poissons Ratio (y) = 0.10683 0.08552
# Poissons Ratio (z) = 0.05347 0.09461
#
# Static dielectric constant tensor:
#      x y z
#    x 1.744710 0.000000 0.022380 
#    y 0.000000 1.772310 0.000000 
#    z 0.022380 0.000000 1.639350 
# 
# From -- ./inp_files/310409.got.cif
#   From: 2010.05.17/outbox.cif.g08.bks.cpg/sg15_156_cif.got.tgz:310409.got - 2010.06.03 18:47:42.
