data_PCOD9293473
_publ_section_title
;
Structure prediction by ZEFSAII (Michael W. Deem and Ramdas Pophale) SiO2 
 PCOD9293473
Probable space group: C 2/C
;
_chemical_formula_sum "Si O2"
_cell_formula_units_Z 44
_cell_length_a 14.873264
_cell_length_b 24.586802
_cell_length_c 5.436944
_cell_angle_alpha 90.000000
_cell_angle_beta 102.330737
_cell_angle_gamma 90.000000
_cell_volume 1942.348473
_symmetry_space_group_name_H-M "C 2/C"
_symmetry_group_IT_number 15
_symmetry_cell_setting 'monoclinic'
loop_
_space_group_symop_operation_xyz
x,y,z
-x,y,1/2-z
-x,-y,-z
x,-y,1/2+z
1/2+x,1/2+y,z
1/2-x,1/2+y,1/2-z
1/2-x,1/2-y,-z
1/2+x,1/2-y,1/2+z
loop_
_atom_site_type_symbol
_atom_site_label
_atom_site_fract_x
_atom_site_fract_y
_atom_site_fract_z
Si Si1 0.000000 0.754206 0.250000
Si Si2 0.900114 0.817737 0.580399
Si Si3 0.328869 0.776406 0.377093
Si Si4 0.603477 0.464626 0.349115
Si Si5 0.259178 0.390822 0.317998
Si Si6 0.595607 0.033824 0.875376
O O1 0.067673 0.718130 0.452950
O O2 0.926445 0.794613 0.330227
O O3 0.847207 0.768046 0.676686
O O4 0.839154 0.870905 0.547321
O O5 0.000000 0.827453 0.750000
O O6 0.250000 0.750000 0.500000
O O7 0.291685 0.835302 0.284187
O O8 0.500000 0.440880 0.250000
O O9 0.611350 0.494775 0.616325
O O10 0.684831 0.421172 0.364109
O O11 0.185287 0.430571 0.389876
O O12 0.500000 0.064058 0.750000
O O13 0.595816 0.988717 0.654494
#
# Coordination Sequence:
#
# PCOD9293473 Si02
#       6
#     4   8   8   8   8   8
#     4  10  22  46  62  86 146 178 218 282 340 400
#     4  10  24  43  65  96 140 180 223 282 344 417
#     4  11  24  42  66 100 139 180 226 284 336 417
#     4  10  24  45  68 101 141 178 226 290 353 419
#     4  12  24  41  73 103 131 181 240 277 353 416
#     4  10  24  49  71 100 141 184 236 298 355 415
#
# _framework density 22.652989999999999
#
# number of rings (size 3 to 8) (size 9 to 14) (size 15 to 20)
#    0.000    1.455    1.818    1.636    1.273    7.273 
#    4.909    0.000    0.000    0.000    0.000    0.000 
#    0.000    0.000    0.000    0.000    0.000    0.000 
#
# Total GULP energy -122884.308616 kJ/mol
# GULP energy per Si atom -5585.650392 kJ/mol
# Density = 2.260143 g / cm^3
# Si number density = 22.652990 Si / 1000 Ang^3
#
#
#
# Elastic Constant Matrix: (Units=GPa)
#
#
# Indices 1 2 3 4 5 6 
#
# 1 148.1000 38.5763 16.6955 0.0000 -1.6431 0.0000
# 2 38.5763 41.9778 9.9212 0.0000 4.2678 0.0000
# 3 16.6955 9.9212 58.1326 0.0000 -9.2429 0.0000
# 4 0.0000 0.0000 0.0000 1.0218 0.0000 9.0480
# 5 -1.6431 4.2678 -9.2429 0.0000 43.7568 0.0000
# 6 0.0000 0.0000 0.0000 9.0480 0.0000 36.9679
#
#
#
# Elastic Compliance Matrix: (Units=1/GPa)
#
#
# Indices 1 2 3 4 5 6 
#
# 1 0.008993 -0.008107 -0.001055 0.000000 0.000905 0.000000
# 2 -0.008107 0.032640 -0.003929 0.000000 -0.004318 0.000000
# 3 -0.001055 -0.003929 0.018864 0.000000 0.004328 0.000000
# 4 0.000000 0.000000 0.000000 -0.838407 0.000000 0.205203
# 5 0.000905 -0.004318 0.004328 0.000000 0.024223 0.000000
# 6 0.000000 0.000000 0.000000 0.205203 0.000000 -0.023174
#
#
# Mechanical properties :
#
#
# Convention : Reuss Voigt Hill
#
# Bulk Modulus (GPa) = 29.14200 42.06628 35.60414
# Shear Modulus (GPa) = -6.76369 28.55046 10.89339
#
# Velocity S-wave (km/s) = -1.72982 3.55398 2.19528
# Velocity P-wave (km/s) = 2.98375 5.95409 4.70924
#
# Compressibility (1/GPa) = 0.03431473
#
# Stress axis : x y z
#
# Youngs Moduli (GPa) = 111.20000 30.63771 53.01167
#
# Poissons Ratio (x) = 0.24837 0.05594
# Poissons Ratio (y) = 0.90147 0.20827
# Poissons Ratio (z) = 0.11734 0.12037
#
# Static dielectric constant tensor:
#      x y z
#    x 1.837570 0.000000 0.051760 
#    y 0.000000 1.808990 0.000000 
#    z 0.051760 0.000000 1.995110 
# 
# From -- ./inp_files/7620.got.cif
#   From: 2010.05.17/outbox.cif.g08.bks.cpg/sg15_4_cif.got.tgz:7620.got - 2010.06.03 18:47:42.
