data_PCOD9293058
_publ_section_title
;
Structure prediction by ZEFSAII (Michael W. Deem and Ramdas Pophale) SiO2 
 PCOD9293058
Probable space group: C 2/C
;
_chemical_formula_sum "Si O2"
_cell_formula_units_Z 36
_cell_length_a 13.341801
_cell_length_b 21.832351
_cell_length_c 8.628990
_cell_angle_alpha 90.000000
_cell_angle_beta 35.603128
_cell_angle_gamma 90.000000
_cell_volume 1463.264315
_symmetry_space_group_name_H-M "C 2/C"
_symmetry_group_IT_number 15
_symmetry_cell_setting 'monoclinic'
loop_
_space_group_symop_operation_xyz
x,y,z
-x,y,1/2-z
-x,-y,-z
x,-y,1/2+z
1/2+x,1/2+y,z
1/2-x,1/2+y,1/2-z
1/2-x,1/2-y,-z
1/2+x,1/2-y,1/2+z
loop_
_atom_site_type_symbol
_atom_site_label
_atom_site_fract_x
_atom_site_fract_y
_atom_site_fract_z
Si Si1 0.279644 0.422466 0.357764
Si Si2 0.426378 0.229130 0.013984
Si Si3 0.704188 0.549289 0.009196
Si Si4 0.000000 0.325481 0.750000
Si Si5 0.598348 0.650216 0.368112
O O1 0.234867 0.485080 0.500984
O O2 0.165432 0.367950 0.562440
O O3 0.228523 0.434590 0.243714
O O4 0.479254 0.399539 0.107210
O O5 0.511387 0.209070 0.071010
O O6 0.240699 0.196459 0.255856
O O7 0.500000 0.211958 0.750000
O O8 0.453442 0.303131 0.981514
O O9 0.500000 0.539497 0.250000
O O10 0.710454 0.607581 0.112976
#
# Coordination Sequence:
#
# PCOD9293058 Si02
#       5
#     8   8   8   4   8
#     4  11  25  45  71 107 144 190 243 297 357 429
#     4  12  26  48  75 107 148 193 232 301 362 427
#     4  10  22  44  72 104 138 193 242 292 358 433
#     4  12  30  46  70 116 148 182 248 298 360 432
#     4  11  24  46  77 104 146 190 244 289 364 433
#
# _framework density 24.602528
#
# number of rings (size 3 to 8) (size 9 to 14) (size 15 to 20)
#    0.000    0.889    0.000    8.000    6.222    4.444 
#    2.000    0.000    0.000    0.000    0.000    0.000 
#    0.000    0.000    0.000    0.000    0.000    0.000 
#
# Total GULP energy -100453.657324 kJ/mol
# GULP energy per Si atom -5580.758740 kJ/mol
# Density = 2.454653 g / cm^3
# Si number density = 24.602528 Si / 1000 Ang^3
#
#
#
# Elastic Constant Matrix: (Units=GPa)
#
#
# Indices 1 2 3 4 5 6 
#
# 1 77.7471 65.2187 46.3438 0.0000 22.7798 0.0000
# 2 65.2187 161.1943 64.5383 0.0000 32.0797 0.0000
# 3 46.3438 64.5383 82.8959 0.0000 30.6821 0.0000
# 4 0.0000 0.0000 0.0000 38.8861 0.0000 13.7236
# 5 22.7798 32.0797 30.6821 0.0000 42.4592 0.0000
# 6 0.0000 0.0000 0.0000 13.7236 0.0000 28.2500
#
#
#
# Elastic Compliance Matrix: (Units=1/GPa)
#
#
# Indices 1 2 3 4 5 6 
#
# 1 0.022836 -0.005805 -0.007284 0.000000 -0.002602 0.000000
# 2 -0.005805 0.010668 -0.004409 0.000000 -0.001760 0.000000
# 3 -0.007284 -0.004409 0.023055 0.000000 -0.009421 0.000000
# 4 0.000000 0.000000 0.000000 0.031037 0.000000 -0.015078
# 5 -0.002602 -0.001760 -0.009421 0.000000 0.033086 0.000000
# 6 0.000000 0.000000 0.000000 -0.015078 0.000000 0.042723
#
#
# Mechanical properties :
#
#
# Convention : Reuss Voigt Hill
#
# Bulk Modulus (GPa) = 46.37544 74.89322 60.63433
# Shear Modulus (GPa) = 24.32045 31.63483 27.97764
#
# Velocity S-wave (km/s) = 3.14751 3.58975 3.37588
# Velocity P-wave (km/s) = 5.66567 6.90573 6.31621
#
# Compressibility (1/GPa) = 0.02156314
#
# Stress axis : x y z
#
# Youngs Moduli (GPa) = 43.78972 93.74039 43.37478
#
# Poissons Ratio (x) = 0.54419 0.31595
# Poissons Ratio (y) = 0.25421 0.19122
# Poissons Ratio (z) = 0.31897 0.41326
#
# Static dielectric constant tensor:
#      x y z
#    x 2.152480 0.000000 0.076530 
#    y 0.000000 2.024890 0.000000 
#    z 0.076530 0.000000 2.040420 
# 
# From -- ./inp_files/41172.got.cif
#   From: 2010.05.17/outbox.cif.g08.bks.cpg/sg15_21_cif.got.tgz:41172.got - 2010.06.03 18:47:42.
