data_PCOD9293077
_publ_section_title
;
Structure prediction by ZEFSAII (Michael W. Deem and Ramdas Pophale) SiO2 
 PCOD9293077
Probable space group: C 2/C
;
_chemical_formula_sum "Si O2"
_cell_formula_units_Z 44
_cell_length_a 8.560427
_cell_length_b 30.591042
_cell_length_c 10.219432
_cell_angle_alpha 90.000000
_cell_angle_beta 49.990972
_cell_angle_gamma 90.000000
_cell_volume 2049.807102
_symmetry_space_group_name_H-M "C 2/C"
_symmetry_group_IT_number 15
_symmetry_cell_setting 'monoclinic'
loop_
_space_group_symop_operation_xyz
x,y,z
-x,y,1/2-z
-x,-y,-z
x,-y,1/2+z
1/2+x,1/2+y,z
1/2-x,1/2+y,1/2-z
1/2-x,1/2-y,-z
1/2+x,1/2-y,1/2+z
loop_
_atom_site_type_symbol
_atom_site_label
_atom_site_fract_x
_atom_site_fract_y
_atom_site_fract_z
Si Si1 0.899646 0.285917 0.088420
Si Si2 0.887293 0.553991 0.947012
Si Si3 0.500000 0.903615 0.750000
Si Si4 0.000000 0.216824 0.250000
Si Si5 0.500000 0.754900 0.750000
Si Si6 0.775103 0.960532 0.429996
Si Si7 0.657851 0.857296 0.922480
O O1 0.664629 0.275788 0.229332
O O2 0.006755 0.248626 0.119687
O O3 0.925844 0.281969 0.915941
O O4 0.964948 0.334015 0.094827
O O5 0.000000 0.555254 0.750000
O O6 0.081293 0.548679 0.939704
O O7 0.739925 0.512320 0.034582
O O8 0.775039 0.599420 0.038394
O O9 0.692945 0.933373 0.599579
O O10 0.586098 0.874071 0.820227
O O11 0.187532 0.183310 0.165216
O O12 0.000000 0.949721 0.250000
#
# Coordination Sequence:
#
# PCOD9293077 Si02
#       7
#     8   8   4   4   4   8   8
#     4  11  23  45  64  96 130 181 221 284 334 398
#     4  10  23  42  64 101 136 166 224 280 328 415
#     4  10  23  48  67  98 140 170 233 284 320 421
#     4  12  26  40  67  98 137 177 225 282 348 388
#     4  10  23  40  72  88 121 181 228 264 338 403
#     4  10  22  44  72  96 131 182 216 273 352 396
#     4  11  25  41  66  96 137 174 223 279 333 399
#
# _framework density 21.465433000000001
#
# number of rings (size 3 to 8) (size 9 to 14) (size 15 to 20)
#    0.000    1.455    2.727    1.091    5.091    2.182 
#    6.545    0.000    0.000    0.000    0.000    0.000 
#    0.000    0.000    0.000    0.000    0.000    0.000 
#
# Total GULP energy -122607.657535 kJ/mol
# GULP energy per Si atom -5573.075342 kJ/mol
# Density = 2.141658 g / cm^3
# Si number density = 21.465433 Si / 1000 Ang^3
#
#
#
# Elastic Constant Matrix: (Units=GPa)
#
#
# Indices 1 2 3 4 5 6 
#
# 1 51.4433 31.7477 9.0065 0.0000 -1.8439 0.0000
# 2 31.7477 157.3419 41.5847 0.0000 1.5299 0.0000
# 3 9.0065 41.5847 80.2983 0.0000 -1.5795 0.0000
# 4 0.0000 0.0000 0.0000 31.9626 0.0000 14.3155
# 5 -1.8439 1.5299 -1.5795 0.0000 35.5044 0.0000
# 6 0.0000 0.0000 0.0000 14.3155 0.0000 23.3706
#
#
#
# Elastic Compliance Matrix: (Units=1/GPa)
#
#
# Indices 1 2 3 4 5 6 
#
# 1 0.022270 -0.004464 -0.000159 0.000000 0.001342 0.000000
# 2 -0.004464 0.008267 -0.003795 0.000000 -0.000757 0.000000
# 3 -0.000159 -0.003795 0.014453 0.000000 0.000798 0.000000
# 4 0.000000 0.000000 0.000000 0.043115 0.000000 -0.026410
# 5 0.001342 -0.000757 0.000798 0.000000 0.028303 0.000000
# 6 0.000000 0.000000 0.000000 -0.026410 0.000000 0.058966
#
#
# Mechanical properties :
#
#
# Convention : Reuss Voigt Hill
#
# Bulk Modulus (GPa) = 35.52259 50.41792 42.97025
# Shear Modulus (GPa) = 24.80200 31.95049 28.37624
#
# Velocity S-wave (km/s) = 3.40286 3.86225 3.63981
# Velocity P-wave (km/s) = 5.65897 6.59001 6.14216
#
# Compressibility (1/GPa) = 0.02815110
#
# Stress axis : x y z
#
# Youngs Moduli (GPa) = 44.90336 120.96497 69.19127
#
# Poissons Ratio (x) = 0.54004 0.01103
# Poissons Ratio (y) = 0.20047 0.26261
# Poissons Ratio (z) = 0.00716 0.45911
#
# Static dielectric constant tensor:
#      x y z
#    x 1.855840 0.000000 -0.014480 
#    y 0.000000 1.782310 0.000000 
#    z -0.014480 0.000000 1.873750 
# 
# From -- ./inp_files/81132.got.cif
#   From: 2010.05.17/outbox.cif.g08.bks.cpg/sg15_41_cif.got.tgz:81132.got - 2010.06.03 18:47:42.
