data_PCOD9293474
_publ_section_title
;
Structure prediction by ZEFSAII (Michael W. Deem and Ramdas Pophale) SiO2 
 PCOD9293474
Probable space group: C 2/C
;
_chemical_formula_sum "Si O2"
_cell_formula_units_Z 44
_cell_length_a 7.711238
_cell_length_b 12.577422
_cell_length_c 25.375329
_cell_angle_alpha 90.000000
_cell_angle_beta 126.410655
_cell_angle_gamma 90.000000
_cell_volume 1980.644111
_symmetry_space_group_name_H-M "C 2/C"
_symmetry_group_IT_number 15
_symmetry_cell_setting 'monoclinic'
loop_
_space_group_symop_operation_xyz
x,y,z
-x,y,1/2-z
-x,-y,-z
x,-y,1/2+z
1/2+x,1/2+y,z
1/2-x,1/2+y,1/2-z
1/2-x,1/2-y,-z
1/2+x,1/2-y,1/2+z
loop_
_atom_site_type_symbol
_atom_site_label
_atom_site_fract_x
_atom_site_fract_y
_atom_site_fract_z
Si Si1 0.953811 0.755462 0.303477
Si Si2 0.625481 0.953061 0.826234
Si Si3 0.000000 0.654704 0.750000
Si Si4 0.284661 0.622200 0.567493
Si Si5 0.621873 0.608049 0.427660
Si Si6 0.585005 0.713819 0.531956
O O1 0.706065 0.779023 0.270381
O O2 0.000000 0.769913 0.250000
O O3 0.021025 0.640915 0.342082
O O4 0.103980 0.841412 0.358903
O O5 0.500000 0.926076 0.750000
O O6 0.876391 0.924550 0.869997
O O7 0.574164 0.078396 0.813414
O O8 0.243569 0.497160 0.560534
O O9 0.461364 0.649181 0.554251
O O10 0.081654 0.696686 0.519369
O O11 0.635386 0.636696 0.492159
O O12 0.709026 0.714577 0.415332
#
# Coordination Sequence:
#
# PCOD9293474 Si02
#       6
#     8   8   4   8   8   8
#     4  11  23  43  67  94 129 168 216 269 324 389
#     4   9  20  40  63  89 130 158 209 270 311 382
#     4  10  22  46  62  92 128 170 210 264 340 372
#     4  11  21  42  60  92 130 162 217 262 316 387
#     4  11  20  42  64  91 129 165 213 267 317 383
#     4  10  24  37  65  94 124 176 209 260 322 375
#
# _framework density 22.214994000000001
#
# number of rings (size 3 to 8) (size 9 to 14) (size 15 to 20)
#    0.545    1.091    3.636    1.091    0.000    2.909 
#    4.909    0.000    0.000    0.000    0.000    0.000 
#    0.000    0.000    0.000    0.000    0.000    0.000 
#
# Total GULP energy -122583.688044 kJ/mol
# GULP energy per Si atom -5571.985820 kJ/mol
# Density = 2.216443 g / cm^3
# Si number density = 22.214994 Si / 1000 Ang^3
#
#
#
# Elastic Constant Matrix: (Units=GPa)
#
#
# Indices 1 2 3 4 5 6 
#
# 1 70.1616 18.3208 14.4513 0.0000 15.7909 0.0000
# 2 18.3208 68.7169 12.6170 0.0000 7.1874 0.0000
# 3 14.4513 12.6170 65.3799 0.0000 20.1908 0.0000
# 4 0.0000 0.0000 0.0000 -183.0834 0.0000 139.3831
# 5 15.7909 7.1874 20.1908 0.0000 47.5777 0.0000
# 6 0.0000 0.0000 0.0000 139.3831 0.0000 -40.8373
#
#
#
# Elastic Compliance Matrix: (Units=1/GPa)
#
#
# Indices 1 2 3 4 5 6 
#
# 1 0.016496 -0.003656 -0.001635 0.000000 -0.004229 0.000000
# 2 -0.003656 0.015957 -0.002188 0.000000 -0.000269 0.000000
# 3 -0.001635 -0.002188 0.018194 0.000000 -0.006848 0.000000
# 4 0.000000 0.000000 0.000000 0.003417 0.000000 0.011663
# 5 -0.004229 -0.000269 -0.006848 0.000000 0.025368 0.000000
# 6 0.000000 0.000000 0.000000 0.011663 0.000000 0.015319
#
#
# Mechanical properties :
#
#
# Convention : Reuss Voigt Hill
#
# Bulk Modulus (GPa) = 28.01977 32.78185 30.40081
# Shear Modulus (GPa) = 41.11669 -24.67730 8.21969
#
# Velocity S-wave (km/s) = 4.30682 -3.33654 1.92564
# Velocity P-wave (km/s) = 6.11326 0.23386 4.31957
#
# Compressibility (1/GPa) = 0.03568909
#
# Stress axis : x y z
#
# Youngs Moduli (GPa) = 60.62135 62.66853 54.96431
#
# Poissons Ratio (x) = 0.22909 0.08985
# Poissons Ratio (y) = 0.22160 0.12029
# Poissons Ratio (z) = 0.09910 0.13715
#
# Static dielectric constant tensor:
#      x y z
#    x 1.872150 0.000000 0.007100 
#    y 0.000000 1.962570 0.000000 
#    z 0.007100 0.000000 1.816890 
# 
# From -- ./inp_files/263044.got.cif
#   From: 2010.05.17/outbox.cif.g08.bks.cpg/sg15_132_cif.got.tgz:263044.got - 2010.06.03 18:47:42.
