data_PCOD9293939
_publ_section_title
;
Structure prediction by ZEFSAII (Michael W. Deem and Ramdas Pophale) SiO2 
 PCOD9293939
Probable space group: C 2/C
;
_chemical_formula_sum "Si O2"
_cell_formula_units_Z 64
_cell_length_a 8.891063
_cell_length_b 19.546315
_cell_length_c 24.558607
_cell_angle_alpha 90.000000
_cell_angle_beta 137.885124
_cell_angle_gamma 90.000000
_cell_volume 2862.189071
_symmetry_space_group_name_H-M "C 2/C"
_symmetry_group_IT_number 15
_symmetry_cell_setting 'monoclinic'
loop_
_space_group_symop_operation_xyz
x,y,z
-x,y,1/2-z
-x,-y,-z
x,-y,1/2+z
1/2+x,1/2+y,z
1/2-x,1/2+y,1/2-z
1/2-x,1/2-y,-z
1/2+x,1/2-y,1/2+z
loop_
_atom_site_type_symbol
_atom_site_label
_atom_site_fract_x
_atom_site_fract_y
_atom_site_fract_z
Si Si1 0.441822 0.068374 0.449428
Si Si2 0.018543 0.752381 0.691245
Si Si3 0.462321 0.296912 0.440960
Si Si4 0.761018 0.974545 0.712075
Si Si5 0.112294 0.622721 0.652162
Si Si6 0.248338 0.812166 0.423842
Si Si7 0.406862 0.574458 0.991079
Si Si8 0.436924 0.609013 0.350581
O O1 0.621360 0.127220 0.508955
O O2 0.194236 0.092629 0.401258
O O3 0.500000 0.000000 0.500000
O O4 0.422657 0.052805 0.379939
O O5 0.761335 0.743299 0.604525
O O6 0.000000 0.767468 0.750000
O O7 0.110970 0.678545 0.699448
O O8 0.121016 0.815081 0.685526
O O9 0.635667 0.258523 0.526895
O O10 0.511783 0.298703 0.389786
O O11 0.452829 0.375336 0.453969
O O12 0.744992 0.056035 0.706463
O O13 0.000000 0.954996 0.750000
O O14 0.771126 0.942405 0.774420
O O15 0.219312 0.662237 0.628959
O O16 0.860503 0.592588 0.570515
O O17 0.547608 0.598491 0.081251
O O18 0.500000 0.500000 0.000000
#
# Coordination Sequence:
#
# PCOD9293939 Si02
#       8
#     8   8   8   8   8   8   8   8
#     4  11  19  35  66  93 121 161 213 263 312 377
#     4  11  23  43  64  91 132 175 213 261 336 396
#     4  10  24  38  62  99 125 163 219 270 317 383
#     4  10  23  36  62  98 122 161 214 268 318 387
#     4  11  23  42  67  92 128 172 216 266 323 394
#     4  11  21  39  67  93 127 159 217 276 309 377
#     4  11  24  41  65  94 128 170 214 269 327 385
#     4  11  22  41  66  90 127 170 214 261 325 403
#
# _framework density 22.360507999999999
#
# number of rings (size 3 to 8) (size 9 to 14) (size 15 to 20)
#    0.000    1.250    3.750    1.875    3.500    5.000 
#    0.000    0.000    0.000    1.500    0.000    0.000 
#    0.000    0.000    0.000    0.000    0.000    0.000 
#
# Total GULP energy -178527.430770 kJ/mol
# GULP energy per Si atom -5578.982212 kJ/mol
# Density = 2.230961 g / cm^3
# Si number density = 22.360508 Si / 1000 Ang^3
#
#
#
# Elastic Constant Matrix: (Units=GPa)
#
#
# Indices 1 2 3 4 5 6 
#
# 1 39.6322 4.9664 -5.2979 0.0000 -12.5075 0.0001
# 2 4.9664 102.4080 15.7882 0.0000 -3.5192 0.0000
# 3 -5.2979 15.7882 73.2350 -0.0003 -15.2304 -0.0002
# 4 0.0000 0.0000 -0.0003 37.6259 -0.0001 -2.7023
# 5 -12.5075 -3.5192 -15.2304 -0.0001 18.6784 0.0000
# 6 0.0001 0.0000 -0.0002 -2.7023 0.0000 30.1777
#
#
#
# Elastic Compliance Matrix: (Units=1/GPa)
#
#
# Indices 1 2 3 4 5 6 
#
# 1 0.037097 -0.002211 0.009922 0.000000 0.032515 0.000000
# 2 -0.002211 0.010233 -0.002737 0.000000 -0.001785 0.000000
# 3 0.009922 -0.002737 0.019553 0.000000 0.022072 0.000000
# 4 0.000000 0.000000 0.000000 0.026749 0.000000 0.002395
# 5 0.032515 -0.001785 0.022072 0.000000 0.092972 0.000000
# 6 0.000000 0.000000 0.000000 0.002395 0.000000 0.033352
#
#
# Mechanical properties :
#
#
# Convention : Reuss Voigt Hill
#
# Bulk Modulus (GPa) = 13.01574 27.35429 20.18502
# Shear Modulus (GPa) = 21.22081 30.61764 25.91922
#
# Velocity S-wave (km/s) = 3.08398 3.70438 3.40833
# Velocity P-wave (km/s) = 4.30287 5.52779 4.95334
#
# Compressibility (1/GPa) = 0.07683003
#
# Stress axis : x y z
#
# Youngs Moduli (GPa) = 26.95642 97.72528 51.14369
#
# Poissons Ratio (x) = 0.21611 -0.50747
# Poissons Ratio (y) = 0.05961 0.13999
# Poissons Ratio (z) = -0.26747 0.26749
#
# Static dielectric constant tensor:
#      x y z
#    x 1.916600 0.000000 0.031450 
#    y 0.000000 1.797110 0.000000 
#    z 0.031450 0.000000 1.848610 
# 
# From -- ./inp_files/266143.got.cif
#   From: 2010.05.17/outbox.cif.g08.bks.cpg/sg15_134_cif.got.tgz:266143.got - 2010.06.03 18:47:42.
