data_PCOD9293559
_publ_section_title
;
Structure prediction by ZEFSAII (Michael W. Deem and Ramdas Pophale) SiO2 
 PCOD9293559
Probable space group: C 2/C
;
_chemical_formula_sum "Si O2"
_cell_formula_units_Z 56
_cell_length_a 7.238267
_cell_length_b 13.700865
_cell_length_c 24.289054
_cell_angle_alpha 90.000000
_cell_angle_beta 69.963989
_cell_angle_gamma 90.000000
_cell_volume 2262.973962
_symmetry_space_group_name_H-M "C 2/C"
_symmetry_group_IT_number 15
_symmetry_cell_setting 'monoclinic'
loop_
_space_group_symop_operation_xyz
x,y,z
-x,y,1/2-z
-x,-y,-z
x,-y,1/2+z
1/2+x,1/2+y,z
1/2-x,1/2+y,1/2-z
1/2-x,1/2-y,-z
1/2+x,1/2-y,1/2+z
loop_
_atom_site_type_symbol
_atom_site_label
_atom_site_fract_x
_atom_site_fract_y
_atom_site_fract_z
Si Si1 0.072110 0.331152 0.048326
Si Si2 0.865426 0.367946 0.588250
Si Si3 0.690948 0.704357 0.832355
Si Si4 0.537898 0.581862 0.935029
Si Si5 0.500000 0.945651 0.250000
Si Si6 0.177762 0.868690 0.941827
Si Si7 0.000000 0.806841 0.250000
Si Si8 0.693287 0.048507 0.839427
O O1 0.290255 0.362254 0.048059
O O2 0.954502 0.226544 0.058105
O O3 0.948592 0.391032 0.105784
O O4 0.101044 0.361203 0.980659
O O5 0.743695 0.280727 0.628791
O O6 0.757425 0.461806 0.623693
O O7 0.088459 0.358672 0.590276
O O8 0.528538 0.638565 0.879444
O O9 0.609180 0.753008 0.785710
O O10 0.849069 0.627233 0.795755
O O11 0.595281 0.468812 0.923529
O O12 0.347857 0.603335 0.990791
O O13 0.404545 0.997096 0.206643
O O14 0.151561 0.878453 0.203779
#
# Coordination Sequence:
#
# PCOD9293559 Si02
#       8
#     8   8   8   8   4   8   4   8
#     4  12  23  43  70 104 142 177 224 293 354 426
#     4  12  25  41  69 103 138 175 224 291 357 419
#     4  11  23  45  65  97 134 177 235 285 344 413
#     4  11  24  42  65  98 140 178 225 273 348 432
#     4  10  22  46  68  86 134 188 232 286 334 402
#     4  11  24  40  66 101 137 183 211 278 357 422
#     4  10  26  44  68  94 130 188 232 294 332 410
#     4  11  24  44  69  97 137 181 233 285 346 419
#
# _framework density 24.746196000000001
#
# number of rings (size 3 to 8) (size 9 to 14) (size 15 to 20)
#    0.000    0.857    4.286    2.143    2.000    2.286 
#    0.000    5.714    0.000    0.000    0.000    0.000 
#    0.000    0.000    0.000    0.000    0.000    0.000 
#
# Total GULP energy -156209.621362 kJ/mol
# GULP energy per Si atom -5578.915049 kJ/mol
# Density = 2.468987 g / cm^3
# Si number density = 24.746196 Si / 1000 Ang^3
#
#
#
# Elastic Constant Matrix: (Units=GPa)
#
#
# Indices 1 2 3 4 5 6 
#
# 1 61.7560 -7.2847 25.1162 0.0000 24.6447 0.0000
# 2 -7.2847 89.1004 25.2258 0.0000 17.5853 0.0000
# 3 25.1162 25.2258 147.0831 0.0000 20.1205 0.0000
# 4 0.0000 0.0000 0.0000 18.1698 0.0000 -7.7668
# 5 24.6447 17.5853 20.1205 0.0000 49.9467 0.0000
# 6 0.0000 0.0000 0.0000 -7.7668 0.0000 11.5591
#
#
#
# Elastic Compliance Matrix: (Units=1/GPa)
#
#
# Indices 1 2 3 4 5 6 
#
# 1 0.022759 0.005071 -0.003149 0.000000 -0.011747 0.000000
# 2 0.005071 0.013546 -0.002322 0.000000 -0.006336 0.000000
# 3 -0.003149 -0.002322 0.007843 0.000000 -0.000788 0.000000
# 4 0.000000 0.000000 0.000000 0.077214 0.000000 0.051882
# 5 -0.011747 -0.006336 -0.000788 0.000000 0.028365 0.000000
# 6 0.000000 0.000000 0.000000 0.051882 0.000000 0.121373
#
#
# Mechanical properties :
#
#
# Convention : Reuss Voigt Hill
#
# Bulk Modulus (GPa) = 23.07013 42.67269 32.87141
# Shear Modulus (GPa) = 17.46111 32.92726 25.19419
#
# Velocity S-wave (km/s) = 2.65921 3.65169 3.19423
# Velocity P-wave (km/s) = 4.33260 5.92127 5.18811
#
# Compressibility (1/GPa) = 0.04334610
#
# Stress axis : x y z
#
# Youngs Moduli (GPa) = 43.93807 73.82357 127.50679
#
# Poissons Ratio (x) = -0.37434 0.40154
# Poissons Ratio (y) = -0.22280 0.29612
# Poissons Ratio (z) = 0.13837 0.17145
#
# Static dielectric constant tensor:
#      x y z
#    x 2.077900 0.000000 -0.003230 
#    y 0.000000 2.092300 0.000000 
#    z -0.003230 0.000000 1.960050 
# 
# From -- ./inp_files/264620.got.cif
#   From: 2010.05.17/outbox.cif.g08.bks.cpg/sg15_133_cif.got.tgz:264620.got - 2010.06.03 18:47:42.
