data_PCOD9293513
_publ_section_title
;
Structure prediction by ZEFSAII (Michael W. Deem and Ramdas Pophale) SiO2 
 PCOD9293513
Probable space group: C 2/C
;
_chemical_formula_sum "Si O2"
_cell_formula_units_Z 60
_cell_length_a 23.799039
_cell_length_b 24.930435
_cell_length_c 17.678853
_cell_angle_alpha 90.000000
_cell_angle_beta 165.133552
_cell_angle_gamma 90.000000
_cell_volume 2691.187131
_symmetry_space_group_name_H-M "C 2/C"
_symmetry_group_IT_number 15
_symmetry_cell_setting 'monoclinic'
loop_
_space_group_symop_operation_xyz
x,y,z
-x,y,1/2-z
-x,-y,-z
x,-y,1/2+z
1/2+x,1/2+y,z
1/2-x,1/2+y,1/2-z
1/2-x,1/2-y,-z
1/2+x,1/2-y,1/2+z
loop_
_atom_site_type_symbol
_atom_site_label
_atom_site_fract_x
_atom_site_fract_y
_atom_site_fract_z
Si Si1 0.167380 0.298088 0.334865
Si Si2 0.783446 0.232038 0.814046
Si Si3 0.873662 0.415885 0.162175
Si Si4 0.829307 0.955784 0.810745
Si Si5 0.500000 0.914267 0.750000
Si Si6 0.410034 0.518704 0.714709
Si Si7 0.368843 0.357565 0.309861
Si Si8 0.951103 0.789174 0.271450
O O1 0.250000 0.250000 0.500000
O O2 0.228475 0.289515 0.326032
O O3 0.207379 0.359430 0.409072
O O4 0.910792 0.286345 0.999349
O O5 0.898425 0.184906 0.915829
O O6 0.620144 0.251442 0.536044
O O7 0.000000 0.401201 0.250000
O O8 0.070761 0.449617 0.459919
O O9 0.674097 0.457147 0.891120
O O10 0.877967 0.966561 0.960713
O O11 0.946638 0.901510 0.937918
O O12 0.000000 0.000000 0.000000
O O13 0.301521 0.948975 0.527945
O O14 0.377186 0.881693 0.522320
O O15 0.500000 0.531669 0.750000
O O16 0.404633 0.334187 0.272374
O O17 0.000000 0.808601 0.250000
O O18 0.750000 0.750000 0.000000
#
# Coordination Sequence:
#
# PCOD9293513 Si02
#       8
#     8   8   8   8   4   8   8   8
#     4  12  28  45  66  98 142 192 248 300 349 425
#     4  12  24  45  64  99 142 185 242 299 351 436
#     4  12  24  46  75 102 140 192 241 300 379 427
#     4  11  24  45  72 103 142 190 236 304 370 432
#     4  10  22  46  66 110 150 188 228 306 368 444
#     4  11  25  46  76 108 145 183 244 302 368 449
#     4  11  23  38  73  99 145 193 237 293 374 432
#     4  12  22  40  68 102 142 186 234 293 365 444
#
# _framework density 22.294993000000002
#
# number of rings (size 3 to 8) (size 9 to 14) (size 15 to 20)
#    0.000    0.533    4.667    3.600    1.867    5.867 
#    0.000    0.000    0.000    0.000    0.000    0.000 
#    0.000    0.000    0.000    0.000    0.000    0.000 
#
# Total GULP energy -167168.151720 kJ/mol
# GULP energy per Si atom -5572.271724 kJ/mol
# Density = 2.224425 g / cm^3
# Si number density = 22.294993 Si / 1000 Ang^3
#
#
#
# Elastic Constant Matrix: (Units=GPa)
#
#
# Indices 1 2 3 4 5 6 
#
# 1 145.8516 23.5171 -3.7923 0.0003 -21.8161 -0.0008
# 2 23.5171 115.1950 23.7375 0.0003 -5.3410 -0.0001
# 3 -3.7923 23.7375 66.7387 0.0001 -10.2466 -0.0012
# 4 0.0003 0.0003 0.0001 27.1109 0.0001 -14.7903
# 5 -21.8161 -5.3410 -10.2466 0.0001 26.1833 -0.0011
# 6 -0.0008 -0.0001 -0.0012 -14.7903 -0.0011 6.1927
#
#
#
# Elastic Compliance Matrix: (Units=1/GPa)
#
#
# Indices 1 2 3 4 5 6 
#
# 1 0.008323 -0.001820 0.002264 -0.000005 0.007449 -0.000008
# 2 -0.001820 0.009776 -0.003731 0.000002 -0.000983 0.000004
# 3 0.002264 -0.003731 0.017674 -0.000009 0.008042 -0.000016
# 4 -0.000005 0.000002 -0.000009 -0.121749 -0.000018 -0.290780
# 5 0.007449 -0.000983 0.008042 -0.000018 0.047346 -0.000033
# 6 -0.000008 0.000004 -0.000016 -0.290780 -0.000033 -0.533005
#
#
# Mechanical properties :
#
#
# Convention : Reuss Voigt Hill
#
# Bulk Modulus (GPa) = 34.24893 46.07890 40.16392
# Shear Modulus (GPa) = -9.00371 30.85223 10.92426
#
# Velocity S-wave (km/s) = -2.01177 3.72401 2.21597
# Velocity P-wave (km/s) = 3.16208 6.26128 4.95996
#
# Compressibility (1/GPa) = 0.02919799
#
# Stress axis : x y z
#
# Youngs Moduli (GPa) = 120.15002 102.29248 56.57917
#
# Poissons Ratio (x) = 0.18620 -0.12810
# Poissons Ratio (y) = 0.21871 0.21112
# Poissons Ratio (z) = -0.27203 0.38169
#
# Static dielectric constant tensor:
#      x y z
#    x 1.798010 0.000000 0.155340 
#    y 0.000000 1.929780 0.000000 
#    z 0.155340 0.000000 1.677180 
# 
# From -- ./inp_files/169964.got.cif
#   From: 2010.05.17/outbox.cif.g08.bks.cpg/sg15_85_cif.got.tgz:169964.got - 2010.06.03 18:47:42.
