data_PCOD9293238
_publ_section_title
;
Structure prediction by ZEFSAII (Michael W. Deem and Ramdas Pophale) SiO2 
 PCOD9293238
Probable space group: C 2/C
;
_chemical_formula_sum "Si O2"
_cell_formula_units_Z 32
_cell_length_a 4.832920
_cell_length_b 14.159745
_cell_length_c 20.479217
_cell_angle_alpha 90.000000
_cell_angle_beta 78.795503
_cell_angle_gamma 90.000000
_cell_volume 1374.740698
_symmetry_space_group_name_H-M "C 2/C"
_symmetry_group_IT_number 15
_symmetry_cell_setting 'monoclinic'
loop_
_space_group_symop_operation_xyz
x,y,z
-x,y,1/2-z
-x,-y,-z
x,-y,1/2+z
1/2+x,1/2+y,z
1/2-x,1/2+y,1/2-z
1/2-x,1/2-y,-z
1/2+x,1/2-y,1/2+z
loop_
_atom_site_type_symbol
_atom_site_label
_atom_site_fract_x
_atom_site_fract_y
_atom_site_fract_z
Si Si1 0.512886 0.815032 0.114438
Si Si2 0.767796 0.002327 0.067092
Si Si3 0.734102 0.440085 0.293769
Si Si4 0.435430 0.788776 0.931221
O O1 0.610814 0.849494 0.180902
O O2 0.207920 0.770173 0.121425
O O3 0.741265 0.739951 0.078949
O O4 0.561986 0.911292 0.070601
O O5 0.607913 0.100783 0.073219
O O6 0.889138 0.989397 0.135291
O O7 0.000000 0.000000 0.000000
O O8 0.500000 0.425425 0.250000
O O9 0.000000 0.495490 0.250000
O O10 0.250000 0.750000 0.000000
#
# Coordination Sequence:
#
# PCOD9293238 Si02
#       4
#     8   8   8   8
#     4  10  25  40  65  94 132 171 218 271 332 383
#     4  10  24  42  71  97 136 175 220 280 335 388
#     4  10  22  45  66  91 134 177 219 275 340 398
#     4  12  22  41  65 103 132 171 221 272 334 403
#
# _framework density 23.277118000000002
#
# number of rings (size 3 to 8) (size 9 to 14) (size 15 to 20)
#    1.500    0.000    2.500    2.250    0.000    5.000 
#    0.000    7.500    0.000    0.000    0.000    0.000 
#    0.000    0.000    0.000    0.000    0.000    0.000 
#
# Total GULP energy -89386.930968 kJ/mol
# GULP energy per Si atom -5586.683186 kJ/mol
# Density = 2.322414 g / cm^3
# Si number density = 23.277118 Si / 1000 Ang^3
#
#
#
# Elastic Constant Matrix: (Units=GPa)
#
#
# Indices 1 2 3 4 5 6 
#
# 1 110.6682 22.4513 33.4974 0.0000 11.8468 0.0000
# 2 22.4513 153.6400 10.5596 0.0000 2.9112 0.0000
# 3 33.4974 10.5596 152.7738 0.0000 11.8854 0.0000
# 4 0.0000 0.0000 0.0000 19.0860 0.0000 -1.4298
# 5 11.8468 2.9112 11.8854 0.0000 47.8190 0.0000
# 6 0.0000 0.0000 0.0000 -1.4298 0.0000 20.1252
#
#
#
# Elastic Compliance Matrix: (Units=1/GPa)
#
#
# Indices 1 2 3 4 5 6 
#
# 1 0.010105 -0.001304 -0.001975 0.000000 -0.001933 0.000000
# 2 -0.001304 0.006712 -0.000175 0.000000 -0.000042 0.000000
# 3 -0.001975 -0.000175 0.007089 0.000000 -0.001262 0.000000
# 4 0.000000 0.000000 0.000000 0.052675 0.000000 0.003742
# 5 -0.001933 -0.000042 -0.001262 0.000000 0.021707 0.000000
# 6 0.000000 0.000000 0.000000 0.003742 0.000000 0.049955
#
#
# Mechanical properties :
#
#
# Convention : Reuss Voigt Hill
#
# Bulk Modulus (GPa) = 58.82988 61.12207 59.97597
# Shear Modulus (GPa) = 31.09111 40.77763 35.93437
#
# Velocity S-wave (km/s) = 3.65868 4.19003 3.93334
# Velocity P-wave (km/s) = 6.57088 7.05152 6.81544
#
# Compressibility (1/GPa) = 0.01699817
#
# Stress axis : x y z
#
# Youngs Moduli (GPa) = 98.95674 148.98414 141.06446
#
# Poissons Ratio (x) = 0.19432 0.27863
# Poissons Ratio (y) = 0.12907 0.02464
# Poissons Ratio (z) = 0.19546 0.02602
#
# Static dielectric constant tensor:
#      x y z
#    x 1.943070 0.000000 -0.029640 
#    y 0.000000 1.862790 0.000000 
#    z -0.029640 0.000000 2.042580 
# 
# From -- ./inp_files/226332.got.cif
#   From: 2010.05.17/outbox.cif.g08.bks.cpg/sg15_114_cif.got.tgz:226332.got - 2010.06.03 18:47:42.
