data_PCOD9293126
_publ_section_title
;
Structure prediction by ZEFSAII (Michael W. Deem and Ramdas Pophale) SiO2 
 PCOD9293126
Probable space group: C 2/C
;
_chemical_formula_sum "Si O2"
_cell_formula_units_Z 36
_cell_length_a 9.900027
_cell_length_b 25.037698
_cell_length_c 10.414240
_cell_angle_alpha 90.000000
_cell_angle_beta 142.162217
_cell_angle_gamma 90.000000
_cell_volume 1583.514112
_symmetry_space_group_name_H-M "C 2/C"
_symmetry_group_IT_number 15
_symmetry_cell_setting 'monoclinic'
loop_
_space_group_symop_operation_xyz
x,y,z
-x,y,1/2-z
-x,-y,-z
x,-y,1/2+z
1/2+x,1/2+y,z
1/2-x,1/2+y,1/2-z
1/2-x,1/2-y,-z
1/2+x,1/2-y,1/2+z
loop_
_atom_site_type_symbol
_atom_site_label
_atom_site_fract_x
_atom_site_fract_y
_atom_site_fract_z
Si Si1 0.153271 0.362170 0.131330
Si Si2 0.500000 0.908253 0.750000
Si Si3 0.694069 0.751296 0.827756
Si Si4 0.457829 0.562062 0.486906
Si Si5 0.685329 0.341487 0.792506
O O1 0.279314 0.306678 0.220697
O O2 0.325664 0.408912 0.292873
O O3 0.063268 0.374097 0.920998
O O4 0.924126 0.353869 0.034928
O O5 0.271542 0.937581 0.606450
O O6 0.416332 0.755293 0.595729
O O7 0.776419 0.799237 0.794688
O O8 0.500000 0.500000 0.500000
O O9 0.401483 0.601539 0.326374
O O10 0.500000 0.320581 0.750000
#
# Coordination Sequence:
#
# PCOD9293126 Si02
#       5
#     8   4   8   8   8
#     4  11  23  44  70 104 140 184 237 295 365 428
#     4  10  22  44  74 104 134 176 248 298 354 424
#     4  12  21  41  71 102 138 185 240 293 354 441
#     4  11  26  45  70 101 138 193 243 298 358 436
#     4  11  27  44  65 106 149 188 241 302 373 431
#
# _framework density 22.734245999999999
#
# number of rings (size 3 to 8) (size 9 to 14) (size 15 to 20)
#    0.000    0.889    2.222    6.000    1.556    8.889 
#    0.000    0.000    0.000    0.000    0.000    0.000 
#    0.000    0.000    0.000    0.000    0.000    0.000 
#
# Total GULP energy -100407.697404 kJ/mol
# GULP energy per Si atom -5578.205411 kJ/mol
# Density = 2.268250 g / cm^3
# Si number density = 22.734246 Si / 1000 Ang^3
#
#
#
# Elastic Constant Matrix: (Units=GPa)
#
#
# Indices 1 2 3 4 5 6 
#
# 1 161.1092 67.1363 75.6913 0.0000 50.1676 0.0000
# 2 67.1363 213.6647 75.0928 0.0000 21.0489 0.0000
# 3 75.6913 75.0928 185.6827 0.0000 46.6362 0.0000
# 4 0.0000 0.0000 0.0000 24.8873 0.0000 33.5345
# 5 50.1676 21.0489 46.6362 0.0000 45.4203 0.0000
# 6 0.0000 0.0000 0.0000 33.5345 0.0000 -94.6674
#
#
#
# Elastic Compliance Matrix: (Units=1/GPa)
#
#
# Indices 1 2 3 4 5 6 
#
# 1 0.010531 -0.001984 -0.001078 0.000000 -0.009606 0.000000
# 2 -0.001984 0.005834 -0.001916 0.000000 0.001455 0.000000
# 3 -0.001078 -0.001916 0.008190 0.000000 -0.006330 0.000000
# 4 0.000000 0.000000 0.000000 0.027199 0.000000 0.009635
# 5 -0.009606 0.001455 -0.006330 0.000000 0.038452 0.000000
# 6 0.000000 0.000000 0.000000 0.009635 0.000000 -0.007150
#
#
# Mechanical properties :
#
#
# Convention : Reuss Voigt Hill
#
# Bulk Modulus (GPa) = 68.49840 110.69971 89.59906
# Shear Modulus (GPa) = 51.08456 17.96379 34.52417
#
# Velocity S-wave (km/s) = 4.74543 2.81404 3.90115
# Velocity P-wave (km/s) = 7.76021 7.70435 7.73233
#
# Compressibility (1/GPa) = 0.01459888
#
# Stress axis : x y z
#
# Youngs Moduli (GPa) = 94.95527 171.42032 122.10376
#
# Poissons Ratio (x) = 0.34008 0.13163
# Poissons Ratio (y) = 0.18838 0.23394
# Poissons Ratio (z) = 0.10237 0.32843
#
# Static dielectric constant tensor:
#      x y z
#    x 1.927660 0.000000 -0.054930 
#    y 0.000000 1.755310 0.000000 
#    z -0.054930 0.000000 1.742150 
# 
# From -- ./inp_files/4270.got.cif
#   From: 2010.05.17/outbox.cif.g08.bks.cpg/sg15_3_cif.got.tgz:4270.got - 2010.06.03 18:47:42.
