data_PCOD9293591
_publ_section_title
;
Structure prediction by ZEFSAII (Michael W. Deem and Ramdas Pophale) SiO2 
 PCOD9293591
Probable space group: C 2/C
;
_chemical_formula_sum "Si O2"
_cell_formula_units_Z 20
_cell_length_a 22.641563
_cell_length_b 7.514622
_cell_length_c 7.090218
_cell_angle_alpha 90.000000
_cell_angle_beta 144.528873
_cell_angle_gamma 90.000000
_cell_volume 700.035692
_symmetry_space_group_name_H-M "C 2/C"
_symmetry_group_IT_number 15
_symmetry_cell_setting 'monoclinic'
loop_
_space_group_symop_operation_xyz
x,y,z
-x,y,1/2-z
-x,-y,-z
x,-y,1/2+z
1/2+x,1/2+y,z
1/2-x,1/2+y,1/2-z
1/2-x,1/2-y,-z
1/2+x,1/2-y,1/2+z
loop_
_atom_site_type_symbol
_atom_site_label
_atom_site_fract_x
_atom_site_fract_y
_atom_site_fract_z
Si Si1 0.096211 0.129219 0.363150
Si Si2 0.500000 0.818551 0.750000
Si Si3 0.302148 0.752980 0.343405
O O1 0.200060 0.222678 0.698400
O O2 0.000000 0.142411 0.250000
O O3 0.141735 0.930352 0.458522
O O4 0.053142 0.208606 0.056496
O O5 0.396963 0.895310 0.581530
O O6 0.250000 0.750000 0.000000
#
# Coordination Sequence:
#
# PCOD9293591 Si02
#       3
#     8   4   8
#     4  11  24  47  73  97 141 186 222 286 348 397
#     4  10  22  46  70 100 140 178 232 280 336 420
#     4  10  23  43  71 103 137 178 234 281 335 417
#
# _framework density 28.569970999999999
#
# number of rings (size 3 to 8) (size 9 to 14) (size 15 to 20)
#    0.000    1.600    2.000    1.200    5.600    1.600 
#    3.600    4.000    0.000    2.400    0.000    0.000 
#    0.000    0.000    0.000    0.000    0.000    0.000 
#
# Total GULP energy -55779.024782 kJ/mol
# GULP energy per Si atom -5577.902478 kJ/mol
# Density = 2.850494 g / cm^3
# Si number density = 28.569971 Si / 1000 Ang^3
#
#
#
# Elastic Constant Matrix: (Units=GPa)
#
#
# Indices 1 2 3 4 5 6 
#
# 1 174.6859 42.2358 108.9225 0.0000 71.5253 0.0000
# 2 42.2358 48.9928 36.2001 0.0000 20.2001 0.0000
# 3 108.9225 36.2001 278.3095 0.0000 76.4590 0.0000
# 4 0.0000 0.0000 0.0000 38.5520 0.0000 14.1927
# 5 71.5253 20.2001 76.4590 0.0000 123.8009 0.0000
# 6 0.0000 0.0000 0.0000 14.1927 0.0000 26.0211
#
#
#
# Elastic Compliance Matrix: (Units=1/GPa)
#
#
# Indices 1 2 3 4 5 6 
#
# 1 0.009804 -0.005420 -0.002191 0.000000 -0.003427 0.000000
# 2 -0.005420 0.026112 -0.001162 0.000000 -0.000411 0.000000
# 3 -0.002191 -0.001162 0.005060 0.000000 -0.001670 0.000000
# 4 0.000000 0.000000 0.000000 0.032456 0.000000 -0.017702
# 5 -0.003427 -0.000411 -0.001670 0.000000 0.011156 0.000000
# 6 0.000000 0.000000 0.000000 -0.017702 0.000000 0.048086
#
#
# Mechanical properties :
#
#
# Convention : Reuss Voigt Hill
#
# Bulk Modulus (GPa) = 42.67901 97.41169 70.04535
# Shear Modulus (GPa) = 31.63935 58.65013 45.14474
#
# Velocity S-wave (km/s) = 3.33142 4.53576 3.97942
# Velocity P-wave (km/s) = 5.45607 7.84861 6.75905
#
# Compressibility (1/GPa) = 0.02343072
#
# Stress axis : x y z
#
# Youngs Moduli (GPa) = 101.99709 38.29623 197.61226
#
# Poissons Ratio (x) = 0.20758 0.43288
# Poissons Ratio (y) = 0.55287 0.22963
# Poissons Ratio (z) = 0.22343 0.04450
#
# Static dielectric constant tensor:
#      x y z
#    x 2.649940 0.000000 0.116550 
#    y 0.000000 2.441300 0.000000 
#    z 0.116550 0.000000 2.148060 
# 
# From -- ./inp_files/45257.got.cif
#   From: 2010.05.17/outbox.cif.g08.bks.cpg/sg15_23_cif.got.tgz:45257.got - 2010.06.03 18:47:42.
