data_PCOD9293973
_publ_section_title
;
Structure prediction by ZEFSAII (Michael W. Deem and Ramdas Pophale) SiO2 
 PCOD9293973
Probable space group: C 2/C
;
_chemical_formula_sum "Si O2"
_cell_formula_units_Z 48
_cell_length_a 23.430059
_cell_length_b 13.276199
_cell_length_c 13.664476
_cell_angle_alpha 90.000000
_cell_angle_beta 29.290631
_cell_angle_gamma 90.000000
_cell_volume 2079.514426
_symmetry_space_group_name_H-M "C 2/C"
_symmetry_group_IT_number 15
_symmetry_cell_setting 'monoclinic'
loop_
_space_group_symop_operation_xyz
x,y,z
-x,y,1/2-z
-x,-y,-z
x,-y,1/2+z
1/2+x,1/2+y,z
1/2-x,1/2+y,1/2-z
1/2-x,1/2-y,-z
1/2+x,1/2-y,1/2+z
loop_
_atom_site_type_symbol
_atom_site_label
_atom_site_fract_x
_atom_site_fract_y
_atom_site_fract_z
Si Si1 0.692721 0.036296 0.711722
Si Si2 0.057041 0.038971 0.073838
Si Si3 0.216941 0.241615 0.234632
Si Si4 0.023583 0.138067 0.915231
Si Si5 0.394312 0.818275 0.629151
Si Si6 0.595516 0.854856 0.182733
O O1 0.670608 0.144110 0.797942
O O2 0.674993 0.067142 0.624618
O O3 0.817578 0.009716 0.571370
O O4 0.614949 0.937412 0.842425
O O5 0.000000 0.098801 0.250000
O O6 0.972367 0.945143 0.174897
O O7 0.066591 0.093503 0.954913
O O8 0.113299 0.163577 0.373439
O O9 0.281610 0.218181 0.238709
O O10 0.316582 0.219869 0.004198
O O11 0.088361 0.244287 0.805169
O O12 0.508583 0.802194 0.389902
O O13 0.500000 0.900395 0.250000
#
# Coordination Sequence:
#
# PCOD9293973 Si02
#       6
#     8   8   8   8   8   8
#     4  12  22  39  65  97 127 170 213 271 340 394
#     4  11  25  41  68  96 124 176 228 271 323 402
#     4  11  22  39  64  96 131 168 220 272 331 392
#     4  11  23  43  65  95 135 168 219 277 329 390
#     4  11  23  39  63  97 132 169 214 271 339 391
#     4  10  23  37  60  97 134 167 213 277 329 393
#
# _framework density 23.08231
#
# number of rings (size 3 to 8) (size 9 to 14) (size 15 to 20)
#    0.000    1.000    5.000    2.000    2.333    0.000 
#    0.000    1.667    0.000    0.000    0.000    0.000 
#    0.000    0.000    0.000    0.000    0.000    0.000 
#
# Total GULP energy -133878.190453 kJ/mol
# GULP energy per Si atom -5578.257936 kJ/mol
# Density = 2.302977 g / cm^3
# Si number density = 23.082310 Si / 1000 Ang^3
#
#
#
# Elastic Constant Matrix: (Units=GPa)
#
#
# Indices 1 2 3 4 5 6 
#
# 1 143.7283 38.5897 11.5181 0.0000 -33.2047 0.0000
# 2 38.5897 123.3176 11.3591 0.0000 -5.2164 0.0000
# 3 11.5181 11.3591 25.0836 0.0000 -13.9485 0.0000
# 4 0.0000 0.0000 0.0000 12.5688 0.0000 -17.3051
# 5 -33.2047 -5.2164 -13.9485 0.0000 29.5915 0.0000
# 6 0.0000 0.0000 0.0000 -17.3051 0.0000 41.1438
#
#
#
# Elastic Compliance Matrix: (Units=1/GPa)
#
#
# Indices 1 2 3 4 5 6 
#
# 1 0.010489 -0.003084 0.003825 0.000000 0.013029 0.000000
# 2 -0.003084 0.009373 -0.005196 0.000000 -0.004257 0.000000
# 3 0.003825 -0.005196 0.057381 0.000000 0.030424 0.000000
# 4 0.000000 0.000000 0.000000 0.189025 0.000000 0.079504
# 5 0.013029 -0.004257 0.030424 0.000000 0.062004 0.000000
# 6 0.000000 0.000000 0.000000 0.079504 0.000000 0.057744
#
#
# Mechanical properties :
#
#
# Convention : Reuss Voigt Hill
#
# Bulk Modulus (GPa) = 14.63372 46.11814 30.37593
# Shear Modulus (GPa) = 11.97022 32.03834 22.00428
#
# Velocity S-wave (km/s) = 2.27972 3.72963 3.09090
# Velocity P-wave (km/s) = 3.64460 6.21049 5.09182
#
# Compressibility (1/GPa) = 0.06833531
#
# Stress axis : x y z
#
# Youngs Moduli (GPa) = 95.33799 106.69407 17.42723
#
# Poissons Ratio (x) = 0.32900 -0.06666
# Poissons Ratio (y) = 0.29398 0.09055
# Poissons Ratio (z) = -0.36470 0.55435
#
# Static dielectric constant tensor:
#      x y z
#    x 1.905250 0.000000 -0.001970 
#    y 0.000000 1.918070 0.000000 
#    z -0.001970 0.000000 1.881270 
# 
# From -- ./inp_files/173617.got.cif
#   From: 2010.05.17/outbox.cif.g08.bks.cpg/sg15_87_cif.got.tgz:173617.got - 2010.06.03 18:47:42.
