data_PCOD9293796
_publ_section_title
;
Structure prediction by ZEFSAII (Michael W. Deem and Ramdas Pophale) SiO2 
 PCOD9293796
Probable space group: C 2/C
;
_chemical_formula_sum "Si O2"
_cell_formula_units_Z 48
_cell_length_a 21.469196
_cell_length_b 10.811314
_cell_length_c 8.599978
_cell_angle_alpha 90.000000
_cell_angle_beta 104.167110
_cell_angle_gamma 90.000000
_cell_volume 1935.432105
_symmetry_space_group_name_H-M "C 2/C"
_symmetry_group_IT_number 15
_symmetry_cell_setting 'monoclinic'
loop_
_space_group_symop_operation_xyz
x,y,z
-x,y,1/2-z
-x,-y,-z
x,-y,1/2+z
1/2+x,1/2+y,z
1/2-x,1/2+y,1/2-z
1/2-x,1/2-y,-z
1/2+x,1/2-y,1/2+z
loop_
_atom_site_type_symbol
_atom_site_label
_atom_site_fract_x
_atom_site_fract_y
_atom_site_fract_z
Si Si1 0.500000 0.417261 0.750000
Si Si2 0.650902 0.722051 0.889546
Si Si3 0.594209 0.084042 0.560355
Si Si4 0.289012 0.086228 0.292427
Si Si5 0.500000 0.024519 0.750000
Si Si6 0.297086 0.452109 0.486329
Si Si7 0.426705 0.626567 0.904300
O O1 0.452259 0.507935 0.820731
O O2 0.468550 0.347632 0.583500
O O3 0.700034 0.802413 0.819291
O O4 0.586692 0.720945 0.742640
O O5 0.633305 0.795626 0.033466
O O6 0.675714 0.585108 0.938470
O O7 0.540400 0.053940 0.399002
O O8 0.644363 0.969489 0.602062
O O9 0.554978 0.099392 0.693944
O O10 0.258308 0.977674 0.171210
O O11 0.236918 0.115830 0.391965
O O12 0.356718 0.391832 0.436970
#
# Coordination Sequence:
#
# PCOD9293796 Si02
#       7
#     4   8   8   8   4   8   8
#     4  10  22  47  75  98 154 176 242 308 348 422
#     4  12  25  44  76 104 142 197 234 287 387 419
#     4  11  23  45  73 106 143 191 237 300 355 429
#     4  12  24  44  73 104 143 183 240 301 354 431
#     4  10  22  47  73  98 150 182 238 308 344 422
#     4  12  24  46  71 104 144 181 242 301 354 432
#     4  11  23  46  73 106 139 195 233 301 356 432
#
# _framework density 24.800664999999999
#
# number of rings (size 3 to 8) (size 9 to 14) (size 15 to 20)
#    0.000    0.667    6.667    0.500    0.000    1.333 
#    0.000    6.667    0.000    0.000    0.000    0.000 
#    0.000    0.000    0.000    0.000    0.000    0.000 
#
# Total GULP energy -134264.008050 kJ/mol
# GULP energy per Si atom -5594.333669 kJ/mol
# Density = 2.474422 g / cm^3
# Si number density = 24.800665 Si / 1000 Ang^3
#
#
#
# Elastic Constant Matrix: (Units=GPa)
#
#
# Indices 1 2 3 4 5 6 
#
# 1 112.2035 18.7178 22.8836 0.0000 -28.1087 0.0000
# 2 18.7178 34.1848 -2.8794 0.0000 -16.0819 0.0000
# 3 22.8836 -2.8794 95.5100 0.0000 -5.5485 0.0000
# 4 0.0000 0.0000 0.0000 25.9444 0.0000 -17.5343
# 5 -28.1087 -16.0819 -5.5485 0.0000 69.3776 0.0000
# 6 0.0000 0.0000 0.0000 -17.5343 0.0000 0.1971
#
#
#
# Elastic Compliance Matrix: (Units=1/GPa)
#
#
# Indices 1 2 3 4 5 6 
#
# 1 0.011030 -0.004775 -0.002603 0.000000 0.003154 0.000000
# 2 -0.004775 0.035098 0.002574 0.000000 0.006407 0.000000
# 3 -0.002603 0.002574 0.011197 0.000000 0.000437 0.000000
# 4 0.000000 0.000000 0.000000 -0.000652 0.000000 -0.057996
# 5 0.003154 0.006407 0.000437 0.000000 0.017212 0.000000
# 6 0.000000 0.000000 0.000000 -0.057996 0.000000 -0.085812
#
#
# Mechanical properties :
#
#
# Convention : Reuss Voigt Hill
#
# Bulk Modulus (GPa) = 20.95688 35.48248 28.21968
# Shear Modulus (GPa) = 368.00786 32.64892 200.32839
#
# Velocity S-wave (km/s) = 12.19461 3.63223 8.99726
# Velocity P-wave (km/s) = 14.37868 5.65057 10.92418
#
# Compressibility (1/GPa) = 0.04771704
#
# Stress axis : x y z
#
# Youngs Moduli (GPa) = 90.66186 28.49137 89.31034
#
# Poissons Ratio (x) = 0.13605 0.23252
# Poissons Ratio (y) = 0.43292 -0.22992
# Poissons Ratio (z) = 0.23604 -0.07335
#
# Static dielectric constant tensor:
#      x y z
#    x 1.984000 0.000000 0.037470 
#    y 0.000000 1.958190 0.000000 
#    z 0.037470 0.000000 1.985140 
# 
# From -- ./inp_files/60696.got.cif
#   From: 2010.05.17/outbox.cif.g08.bks.cpg/sg15_31_cif.got.tgz:60696.got - 2010.06.03 18:47:42.
