data_PCOD9293744
_publ_section_title
;
Structure prediction by ZEFSAII (Michael W. Deem and Ramdas Pophale) SiO2 
 PCOD9293744
Probable space group: C 2/C
;
_chemical_formula_sum "Si O2"
_cell_formula_units_Z 44
_cell_length_a 15.270696
_cell_length_b 20.025603
_cell_length_c 11.764059
_cell_angle_alpha 90.000000
_cell_angle_beta 146.312625
_cell_angle_gamma 90.000000
_cell_volume 1995.397079
_symmetry_space_group_name_H-M "C 2/C"
_symmetry_group_IT_number 15
_symmetry_cell_setting 'monoclinic'
loop_
_space_group_symop_operation_xyz
x,y,z
-x,y,1/2-z
-x,-y,-z
x,-y,1/2+z
1/2+x,1/2+y,z
1/2-x,1/2+y,1/2-z
1/2-x,1/2-y,-z
1/2+x,1/2-y,1/2+z
loop_
_atom_site_type_symbol
_atom_site_label
_atom_site_fract_x
_atom_site_fract_y
_atom_site_fract_z
Si Si1 0.116423 0.604033 0.638157
Si Si2 0.000000 0.439358 0.250000
Si Si3 0.000000 0.242825 0.750000
Si Si4 0.788519 0.010890 0.196118
Si Si5 0.500000 0.438353 0.250000
Si Si6 0.225258 0.219802 0.812926
Si Si7 0.235199 0.377489 0.808244
O O1 0.223256 0.541127 0.718899
O O2 0.220696 0.668844 0.723250
O O3 0.062625 0.601907 0.710145
O O4 0.950590 0.601779 0.388666
O O5 0.146075 0.481839 0.452917
O O6 0.063621 0.206316 0.705775
O O7 0.858067 0.287816 0.553612
O O8 0.805733 0.081948 0.276951
O O9 0.935504 0.982783 0.284951
O O10 0.652324 0.398160 0.464700
O O11 0.226777 0.297591 0.781368
#
# Coordination Sequence:
#
# PCOD9293744 Si02
#       7
#     8   4   4   8   4   8   8
#     4  11  24  43  67  92 127 170 219 260 316 385
#     4  10  22  47  66  88 123 176 218 260 314 383
#     4  10  23  39  62  98 133 165 204 264 335 369
#     4  11  24  42  66  95 129 167 212 262 319 389
#     4  12  25  38  64  98 132 163 206 268 335 370
#     4  11  23  40  63  98 128 166 211 268 319 381
#     4  11  24  42  62  95 129 167 212 262 316 387
#
# _framework density 22.050747999999999
#
# number of rings (size 3 to 8) (size 9 to 14) (size 15 to 20)
#    0.000    1.091    1.818    5.455    7.636    0.727 
#    0.000    4.545    0.000    0.000    0.000    0.000 
#    0.000    0.000    0.000    0.000    0.000    0.000 
#
# Total GULP energy -122917.572522 kJ/mol
# GULP energy per Si atom -5587.162387 kJ/mol
# Density = 2.200056 g / cm^3
# Si number density = 22.050748 Si / 1000 Ang^3
#
#
#
# Elastic Constant Matrix: (Units=GPa)
#
#
# Indices 1 2 3 4 5 6 
#
# 1 190.4384 83.8078 29.7478 0.0000 15.8562 0.0000
# 2 83.8078 135.4581 13.6320 0.0000 -3.2998 0.0000
# 3 29.7478 13.6320 67.7646 0.0000 0.7641 0.0000
# 4 0.0000 0.0000 0.0000 23.7461 0.0000 5.3378
# 5 15.8562 -3.2998 0.7641 0.0000 30.7227 0.0000
# 6 0.0000 0.0000 0.0000 5.3378 0.0000 46.6251
#
#
#
# Elastic Compliance Matrix: (Units=1/GPa)
#
#
# Indices 1 2 3 4 5 6 
#
# 1 0.008217 -0.004941 -0.002560 0.000000 -0.004708 0.000000
# 2 -0.004941 0.010528 0.000010 0.000000 0.003681 0.000000
# 3 -0.002560 0.000010 0.015868 0.000000 0.000928 0.000000
# 4 0.000000 0.000000 0.000000 0.043225 0.000000 -0.004949
# 5 -0.004708 0.003681 0.000928 0.000000 0.035351 0.000000
# 6 0.000000 0.000000 0.000000 -0.004949 0.000000 0.022014
#
#
# Mechanical properties :
#
#
# Convention : Reuss Voigt Hill
#
# Bulk Modulus (GPa) = 50.94092 72.00404 61.47248
# Shear Modulus (GPa) = 31.90172 37.98367 34.94269
#
# Velocity S-wave (km/s) = 3.80773 4.15487 3.98508
# Velocity P-wave (km/s) = 6.51794 7.46605 7.00805
#
# Compressibility (1/GPa) = 0.01963058
#
# Stress axis : x y z
#
# Youngs Moduli (GPa) = 121.69165 94.98347 63.01799
#
# Poissons Ratio (x) = 0.46933 0.16134
# Poissons Ratio (y) = 0.60130 -0.00061
# Poissons Ratio (z) = 0.31157 -0.00092
#
# Static dielectric constant tensor:
#      x y z
#    x 1.842840 0.000000 0.020660 
#    y 0.000000 1.848410 0.000000 
#    z 0.020660 0.000000 1.853940 
# 
# From -- ./inp_files/99907.got.cif
#   From: 2010.05.17/outbox.cif.g08.bks.cpg/sg15_50_cif.got.tgz:99907.got - 2010.06.03 18:47:42.
