data_PCOD9293581
_publ_section_title
;
Structure prediction by ZEFSAII (Michael W. Deem and Ramdas Pophale) SiO2 
 PCOD9293581
Probable space group: C 2/C
;
_chemical_formula_sum "Si O2"
_cell_formula_units_Z 44
_cell_length_a 14.291080
_cell_length_b 5.096718
_cell_length_c 22.922353
_cell_angle_alpha 90.000000
_cell_angle_beta 91.021442
_cell_angle_gamma 90.000000
_cell_volume 1669.343975
_symmetry_space_group_name_H-M "C 2/C"
_symmetry_group_IT_number 15
_symmetry_cell_setting 'monoclinic'
loop_
_space_group_symop_operation_xyz
x,y,z
-x,y,1/2-z
-x,-y,-z
x,-y,1/2+z
1/2+x,1/2+y,z
1/2-x,1/2+y,1/2-z
1/2-x,1/2-y,-z
1/2+x,1/2-y,1/2+z
loop_
_atom_site_type_symbol
_atom_site_label
_atom_site_fract_x
_atom_site_fract_y
_atom_site_fract_z
Si Si1 0.304710 0.257363 0.226916
Si Si2 0.500000 0.998438 0.250000
Si Si3 0.972259 0.750351 0.869553
Si Si4 0.999993 0.728332 0.059262
Si Si5 0.760696 0.676129 0.900609
Si Si6 0.162104 0.037246 0.501519
O O1 0.266768 0.526892 0.254179
O O2 0.406890 0.174971 0.250309
O O3 0.303511 0.279125 0.156489
O O4 0.494198 0.810465 0.194245
O O5 0.864202 0.657035 0.874305
O O6 0.023762 0.546131 0.912407
O O7 0.985637 0.045140 0.891680
O O8 0.919115 0.827860 0.015944
O O9 0.098566 0.731134 0.026191
O O10 0.718638 0.448768 0.941666
O O11 0.774636 0.910562 0.947307
#
# Coordination Sequence:
#
# PCOD9293581 Si02
#       6
#     8   4   8   8   8   8
#     4  12  29  51  77 111 151 202 260 317 377 455
#     4  12  28  50  80 108 150 212 252 320 382 440
#     4  11  25  44  70 103 149 190 249 305 368 446
#     4  10  23  44  68 107 141 190 245 297 376 453
#     4  10  22  46  69 107 148 189 247 309 371 449
#     4   9  21  41  74 103 146 192 234 309 375 442
#
# _framework density 26.357659999999999
#
# number of rings (size 3 to 8) (size 9 to 14) (size 15 to 20)
#    0.000    1.455    1.818    1.091    5.091   11.636 
#    0.000    7.273    0.000    0.000    0.000    0.000 
#    0.000    0.000    0.000    0.000    0.000    0.000 
#
# Total GULP energy -123357.355938 kJ/mol
# GULP energy per Si atom -5607.152543 kJ/mol
# Density = 2.629767 g / cm^3
# Si number density = 26.357660 Si / 1000 Ang^3
#
#
#
# Elastic Constant Matrix: (Units=GPa)
#
#
# Indices 1 2 3 4 5 6 
#
# 1 85.2501 -0.5641 9.4833 0.0000 -17.4789 0.0000
# 2 -0.5641 78.6426 38.3133 0.0000 -18.0005 0.0000
# 3 9.4833 38.3133 166.2541 0.0000 -1.1000 0.0000
# 4 0.0000 0.0000 0.0000 -1.1811 0.0000 15.6362
# 5 -17.4789 -18.0005 -1.1000 0.0000 36.4785 0.0000
# 6 0.0000 0.0000 0.0000 15.6362 0.0000 27.1253
#
#
#
# Elastic Compliance Matrix: (Units=1/GPa)
#
#
# Indices 1 2 3 4 5 6 
#
# 1 0.013453 0.002468 -0.001286 0.000000 0.007625 0.000000
# 2 0.002468 0.016799 -0.003950 0.000000 0.009353 0.000000
# 3 -0.001286 -0.003950 0.006983 0.000000 -0.002355 0.000000
# 4 0.000000 0.000000 0.000000 -0.098092 0.000000 0.056545
# 5 0.007625 0.009353 -0.002355 0.000000 0.035611 0.000000
# 6 0.000000 0.000000 0.000000 0.056545 0.000000 0.004271
#
#
# Mechanical properties :
#
#
# Convention : Reuss Voigt Hill
#
# Bulk Modulus (GPa) = 31.54646 47.17910 39.36278
# Shear Modulus (GPa) = -1025.92107 31.34548 -497.28779
#
# Velocity S-wave (km/s) = -19.75033 3.45227 -13.75059
# Velocity P-wave (km/s) = 22.54121 5.81630 15.39930
#
# Compressibility (1/GPa) = 0.03169928
#
# Stress axis : x y z
#
# Youngs Moduli (GPa) = 74.33306 59.52838 143.20560
#
# Poissons Ratio (x) = -0.14693 0.18412
# Poissons Ratio (y) = -0.18347 0.56569
# Poissons Ratio (z) = 0.09557 0.23515
#
# Static dielectric constant tensor:
#      x y z
#    x 2.112040 0.000000 -0.030020 
#    y 0.000000 2.050360 0.000000 
#    z -0.030020 0.000000 2.040430 
# 
# From -- ./inp_files/271877.got.cif
#   From: 2010.05.17/outbox.cif.g08.bks.cpg/sg15_136_cif.got.tgz:271877.got - 2010.06.03 18:47:42.
