data_PCOD9293393
_publ_section_title
;
Structure prediction by ZEFSAII (Michael W. Deem and Ramdas Pophale) SiO2 
 PCOD9293393
Probable space group: C 2/C
;
_chemical_formula_sum "Si O2"
_cell_formula_units_Z 56
_cell_length_a 12.319455
_cell_length_b 8.628251
_cell_length_c 28.688568
_cell_angle_alpha 90.000000
_cell_angle_beta 58.504682
_cell_angle_gamma 90.000000
_cell_volume 2600.223441
_symmetry_space_group_name_H-M "C 2/C"
_symmetry_group_IT_number 15
_symmetry_cell_setting 'monoclinic'
loop_
_space_group_symop_operation_xyz
x,y,z
-x,y,1/2-z
-x,-y,-z
x,-y,1/2+z
1/2+x,1/2+y,z
1/2-x,1/2+y,1/2-z
1/2-x,1/2-y,-z
1/2+x,1/2-y,1/2+z
loop_
_atom_site_type_symbol
_atom_site_label
_atom_site_fract_x
_atom_site_fract_y
_atom_site_fract_z
Si Si1 0.197874 0.498458 0.424732
Si Si2 0.453914 0.286476 0.862842
Si Si3 0.578986 0.028258 0.775126
Si Si4 0.763401 0.355298 0.915843
Si Si5 0.186135 0.592024 0.529675
Si Si6 0.054818 0.660327 0.374340
Si Si7 0.817563 0.988224 0.159528
O O1 0.332422 0.595087 0.386619
O O2 0.209018 0.313429 0.418627
O O3 0.148396 0.524353 0.488323
O O4 0.105935 0.562445 0.405926
O O5 0.502485 0.184064 0.807884
O O6 0.413696 0.155528 0.909656
O O7 0.575357 0.386678 0.851022
O O8 0.500000 0.955010 0.750000
O O9 0.719150 0.049919 0.722802
O O10 0.591899 0.919191 0.817114
O O11 0.715670 0.474755 0.966358
O O12 0.756551 0.447904 0.869038
O O13 0.903587 0.325888 0.904926
O O14 0.250000 0.750000 0.500000
O O15 0.113241 0.829096 0.367519
#
# Coordination Sequence:
#
# PCOD9293393 Si02
#       7
#     8   8   8   8   8   8   8
#     4  11  25  46  73 104 144 186 235 290 354 420
#     4  11  23  45  73 105 143 185 236 291 351 423
#     4  12  23  45  70  99 142 183 233 295 352 410
#     4  12  24  47  71 104 143 186 237 289 348 425
#     4  10  22  45  72 105 143 187 234 289 354 416
#     4  12  25  46  72 103 141 185 236 291 351 419
#     4  12  25  45  71 103 144 184 237 296 348 417
#
# _framework density 21.536608999999999
#
# number of rings (size 3 to 8) (size 9 to 14) (size 15 to 20)
#    0.000    0.571    4.286    4.714    0.000    0.571 
#    2.571    2.857    0.000    0.000    0.000    0.000 
#    0.000    0.000    0.000    0.000    0.000    0.000 
#
# Total GULP energy -156367.732913 kJ/mol
# GULP energy per Si atom -5584.561890 kJ/mol
# Density = 2.148759 g / cm^3
# Si number density = 21.536609 Si / 1000 Ang^3
#
#
#
# Elastic Constant Matrix: (Units=GPa)
#
#
# Indices 1 2 3 4 5 6 
#
# 1 68.8305 14.8100 32.0937 0.0000 10.2380 0.0000
# 2 14.8100 141.8919 40.2021 0.0000 14.5456 0.0000
# 3 32.0937 40.2021 109.1637 0.0000 24.3522 0.0000
# 4 0.0000 0.0000 0.0000 24.8896 0.0000 6.9388
# 5 10.2380 14.5456 24.3522 0.0000 37.7473 0.0000
# 6 0.0000 0.0000 0.0000 6.9388 0.0000 41.1557
#
#
#
# Elastic Compliance Matrix: (Units=1/GPa)
#
#
# Indices 1 2 3 4 5 6 
#
# 1 0.016934 -0.000330 -0.004510 0.000000 -0.001556 0.000000
# 2 -0.000330 0.007935 -0.002527 0.000000 -0.001338 0.000000
# 3 -0.004510 -0.002527 0.012764 0.000000 -0.006038 0.000000
# 4 0.000000 0.000000 0.000000 0.042159 0.000000 -0.007108
# 5 -0.001556 -0.001338 -0.006038 0.000000 0.031325 0.000000
# 6 0.000000 0.000000 0.000000 -0.007108 0.000000 0.025496
#
#
# Mechanical properties :
#
#
# Convention : Reuss Voigt Hill
#
# Bulk Modulus (GPa) = 43.66926 54.89975 49.28451
# Shear Modulus (GPa) = 31.45065 36.27719 33.86392
#
# Velocity S-wave (km/s) = 3.82558 4.10865 3.96964
# Velocity P-wave (km/s) = 6.31143 6.93215 6.62906
#
# Compressibility (1/GPa) = 0.02289940
#
# Stress axis : x y z
#
# Youngs Moduli (GPa) = 59.05381 126.02159 78.34678
#
# Poissons Ratio (x) = 0.04161 0.35332
# Poissons Ratio (y) = 0.01950 0.19796
# Poissons Ratio (z) = 0.26631 0.31842
#
# Static dielectric constant tensor:
#      x y z
#    x 1.794520 0.000000 -0.039640 
#    y 0.000000 1.815900 0.000000 
#    z -0.039640 0.000000 1.736330 
# 
# From -- ./inp_files/291491.got.cif
#   From: 2010.05.17/outbox.cif.g08.bks.cpg/sg15_146_cif.got.tgz:291491.got - 2010.06.03 18:47:42.
