data_PCOD9293886
_publ_section_title
;
Structure prediction by ZEFSAII (Michael W. Deem and Ramdas Pophale) SiO2 
 PCOD9293886
Probable space group: C 2/C
;
_chemical_formula_sum "Si O2"
_cell_formula_units_Z 44
_cell_length_a 12.214856
_cell_length_b 29.386961
_cell_length_c 4.848684
_cell_angle_alpha 90.000000
_cell_angle_beta 94.576340
_cell_angle_gamma 90.000000
_cell_volume 1734.922694
_symmetry_space_group_name_H-M "C 2/C"
_symmetry_group_IT_number 15
_symmetry_cell_setting 'monoclinic'
loop_
_space_group_symop_operation_xyz
x,y,z
-x,y,1/2-z
-x,-y,-z
x,-y,1/2+z
1/2+x,1/2+y,z
1/2-x,1/2+y,1/2-z
1/2-x,1/2-y,-z
1/2+x,1/2-y,1/2+z
loop_
_atom_site_type_symbol
_atom_site_label
_atom_site_fract_x
_atom_site_fract_y
_atom_site_fract_z
Si Si1 0.204852 0.469476 0.559921
Si Si2 0.621061 0.839110 0.854337
Si Si3 0.158504 0.153302 0.247214
Si Si4 0.924027 0.249838 0.473869
Si Si5 0.000000 0.423828 0.750000
Si Si6 0.116420 0.906395 0.205340
O O1 0.220570 0.514537 0.377526
O O2 0.294251 0.435877 0.443724
O O3 0.079781 0.450792 0.557861
O O4 0.500000 0.822814 0.750000
O O5 0.712570 0.845787 0.640322
O O6 0.583633 0.889934 0.935429
O O7 0.659534 0.792531 0.007874
O O8 0.123040 0.203081 0.153728
O O9 0.088892 0.133723 0.483215
O O10 0.159441 0.118722 0.987402
O O11 0.000000 0.269072 0.250000
O O12 0.000000 0.236567 0.750000
O O13 0.000000 0.930443 0.250000
#
# Coordination Sequence:
#
# PCOD9293886 Si02
#       6
#     8   8   8   8   4   8
#     4  12  27  48  75 106 137 182 239 302 368 435
#     4   9  22  42  68 100 142 189 234 292 347 416
#     4  12  23  44  70 103 144 193 241 289 348 425
#     4  11  23  41  64 103 144 191 243 287 344 409
#     4  10  22  50  72 104 148 186 240 286 372 420
#     4  12  26  46  74 105 141 189 235 297 363 425
#
# _framework density 25.361362
#
# number of rings (size 3 to 8) (size 9 to 14) (size 15 to 20)
#    0.545    0.364    1.818    5.455    0.000    5.091 
#    0.000    6.364    0.000    0.000    0.000    0.000 
#    0.000    0.000    0.000    0.000    0.000    0.000 
#
# Total GULP energy -122560.530113 kJ/mol
# GULP energy per Si atom -5570.933187 kJ/mol
# Density = 2.530364 g / cm^3
# Si number density = 25.361362 Si / 1000 Ang^3
#
#
#
# Elastic Constant Matrix: (Units=GPa)
#
#
# Indices 1 2 3 4 5 6 
#
# 1 111.6019 27.1002 26.5874 0.0000 -48.4491 0.0000
# 2 27.1002 116.3908 25.3059 0.0000 -24.5720 0.0000
# 3 26.5874 25.3059 110.7163 0.0000 -15.5302 0.0000
# 4 0.0000 0.0000 0.0000 25.9135 0.0000 -29.2897
# 5 -48.4491 -24.5720 -15.5302 0.0000 44.6398 0.0000
# 6 0.0000 0.0000 0.0000 -29.2897 0.0000 6.7199
#
#
#
# Elastic Compliance Matrix: (Units=1/GPa)
#
#
# Indices 1 2 3 4 5 6 
#
# 1 0.017210 0.000192 -0.001621 0.000000 0.018220 0.000000
# 2 0.000192 0.009982 -0.001606 0.000000 0.005144 0.000000
# 3 -0.001621 -0.001606 0.009901 0.000000 0.000801 0.000000
# 4 0.000000 0.000000 0.000000 -0.009828 0.000000 -0.042837
# 5 0.018220 0.005144 0.000801 0.000000 0.045287 0.000000
# 6 0.000000 0.000000 0.000000 -0.042837 0.000000 -0.037899
#
#
# Mechanical properties :
#
#
# Convention : Reuss Voigt Hill
#
# Bulk Modulus (GPa) = 32.23444 55.18846 43.71145
# Shear Modulus (GPa) = 97.91687 32.76901 65.34294
#
# Velocity S-wave (km/s) = 6.22033 3.59846 5.08141
# Velocity P-wave (km/s) = 8.02045 6.25086 7.19030
#
# Compressibility (1/GPa) = 0.03102272
#
# Stress axis : x y z
#
# Youngs Moduli (GPa) = 58.10657 100.17726 101.00176
#
# Poissons Ratio (x) = -0.01922 0.16371
# Poissons Ratio (y) = -0.01115 0.16222
# Poissons Ratio (z) = 0.09418 0.16089
#
# Static dielectric constant tensor:
#      x y z
#    x 1.970320 0.000000 -0.018060 
#    y 0.000000 2.105920 0.000000 
#    z -0.018060 0.000000 1.973840 
# 
# From -- ./inp_files/5811.got.cif
#   From: 2010.05.17/outbox.cif.g08.bks.cpg/sg15_3_cif.got.tgz:5811.got - 2010.06.03 18:47:42.
