data_PCOD9293933
_publ_section_title
;
Structure prediction by ZEFSAII (Michael W. Deem and Ramdas Pophale) SiO2 
 PCOD9293933
Probable space group: C 2/C
;
_chemical_formula_sum "Si O2"
_cell_formula_units_Z 56
_cell_length_a 13.886977
_cell_length_b 19.221863
_cell_length_c 7.393070
_cell_angle_alpha 90.000000
_cell_angle_beta 76.725194
_cell_angle_gamma 90.000000
_cell_volume 1920.727624
_symmetry_space_group_name_H-M "C 2/C"
_symmetry_group_IT_number 15
_symmetry_cell_setting 'monoclinic'
loop_
_space_group_symop_operation_xyz
x,y,z
-x,y,1/2-z
-x,-y,-z
x,-y,1/2+z
1/2+x,1/2+y,z
1/2-x,1/2+y,1/2-z
1/2-x,1/2-y,-z
1/2+x,1/2-y,1/2+z
loop_
_atom_site_type_symbol
_atom_site_label
_atom_site_fract_x
_atom_site_fract_y
_atom_site_fract_z
Si Si1 0.886425 0.055093 0.951636
Si Si2 0.000000 0.213548 0.250000
Si Si3 0.418535 0.816926 0.593630
Si Si4 0.500000 0.668662 0.750000
Si Si5 0.783398 0.766359 0.286479
Si Si6 0.552211 0.080440 0.072009
Si Si7 0.720060 0.090512 0.738541
Si Si8 0.652623 0.587421 0.148208
O O1 0.823693 0.065037 0.158449
O O2 0.970296 0.114341 0.918163
O O3 0.819830 0.078018 0.811949
O O4 0.915856 0.976223 0.900777
O O5 0.094088 0.160320 0.189367
O O6 0.984733 0.262827 0.435306
O O7 0.402497 0.713997 0.752312
O O8 0.304122 0.794566 0.636855
O O9 0.462306 0.887961 0.494264
O O10 0.750000 0.750000 0.500000
O O11 0.912946 0.647840 0.314029
O O12 0.711537 0.825822 0.250696
O O13 0.500000 0.034612 0.250000
O O14 0.636624 0.058235 0.900789
O O15 0.753371 0.076323 0.521706
#
# Coordination Sequence:
#
# PCOD9293933 Si02
#       8
#     8   4   8   4   8   8   8   8
#     4  11  25  43  64  92 129 170 224 270 326 386
#     4  12  23  38  58  96 140 166 213 256 320 388
#     4   9  19  35  56  89 125 164 205 257 304 389
#     4  10  23  36  60  92 126 172 213 256 318 384
#     4  11  18  34  58  87 123 168 211 251 313 384
#     4   8  19  40  66  88 123 176 214 259 327 393
#     4  11  22  42  65  92 126 174 214 269 335 377
#     4  12  25  41  64  95 127 174 216 274 320 395
#
# _framework density 29.155618
#
# number of rings (size 3 to 8) (size 9 to 14) (size 15 to 20)
#    0.857    0.571    4.286    2.143    2.000    3.429 
#    2.571    0.714    0.000    0.857    0.000    0.000 
#    0.000    0.000    0.000    0.000    0.000    0.000 
#
# Total GULP energy -155877.828244 kJ/mol
# GULP energy per Si atom -5567.065294 kJ/mol
# Density = 2.908926 g / cm^3
# Si number density = 29.155618 Si / 1000 Ang^3
#
#
#
# Elastic Constant Matrix: (Units=GPa)
#
#
# Indices 1 2 3 4 5 6 
#
# 1 87.8324 28.8169 56.2677 0.0000 -29.0517 0.0000
# 2 28.8169 89.9856 61.3604 0.0000 10.6193 0.0000
# 3 56.2677 61.3604 283.0808 0.0000 -46.8272 0.0000
# 4 0.0000 0.0000 0.0000 23.5443 0.0000 11.9050
# 5 -29.0517 10.6193 -46.8272 0.0000 60.9781 0.0000
# 6 0.0000 0.0000 0.0000 11.9050 0.0000 28.8094
#
#
#
# Elastic Compliance Matrix: (Units=1/GPa)
#
#
# Indices 1 2 3 4 5 6 
#
# 1 0.016475 -0.005843 -0.000620 0.000000 0.008390 0.000000
# 2 -0.005843 0.016654 -0.003882 0.000000 -0.008665 0.000000
# 3 -0.000620 -0.003882 0.005224 0.000000 0.004392 0.000000
# 4 0.000000 0.000000 0.000000 0.053692 0.000000 -0.022187
# 5 0.008390 -0.008665 0.004392 0.000000 0.025279 0.000000
# 6 0.000000 0.000000 0.000000 -0.022187 0.000000 0.043879
#
#
# Mechanical properties :
#
#
# Convention : Reuss Voigt Hill
#
# Bulk Modulus (GPa) = 56.61846 83.75431 70.18639
# Shear Modulus (GPa) = 26.62691 43.62994 35.12842
#
# Velocity S-wave (km/s) = 3.02531 3.87259 3.47487
# Velocity P-wave (km/s) = 5.62716 6.98463 6.34231
#
# Compressibility (1/GPa) = 0.01766209
#
# Stress axis : x y z
#
# Youngs Moduli (GPa) = 60.69813 60.04712 191.43253
#
# Poissons Ratio (x) = 0.35087 0.11873
# Poissons Ratio (y) = 0.35467 0.74309
# Poissons Ratio (z) = 0.03765 0.23309
#
# Static dielectric constant tensor:
#      x y z
#    x 2.501780 0.000000 0.102730 
#    y 0.000000 3.150040 0.000000 
#    z 0.102730 0.000000 2.386470 
# 
# From -- ./inp_files/50154.got.cif
#   From: 2010.05.17/outbox.cif.g08.bks.cpg/sg15_26_cif.got.tgz:50154.got - 2010.06.03 18:47:42.
