data_PCOD9293751
_publ_section_title
;
Structure prediction by ZEFSAII (Michael W. Deem and Ramdas Pophale) SiO2 
 PCOD9293751
Probable space group: C 2/C
;
_chemical_formula_sum "Si O2"
_cell_formula_units_Z 32
_cell_length_a 21.814006
_cell_length_b 12.605022
_cell_length_c 10.466031
_cell_angle_alpha 90.000000
_cell_angle_beta 25.609514
_cell_angle_gamma 90.000000
_cell_volume 1243.888575
_symmetry_space_group_name_H-M "C 2/C"
_symmetry_group_IT_number 15
_symmetry_cell_setting 'monoclinic'
loop_
_space_group_symop_operation_xyz
x,y,z
-x,y,1/2-z
-x,-y,-z
x,-y,1/2+z
1/2+x,1/2+y,z
1/2-x,1/2+y,1/2-z
1/2-x,1/2-y,-z
1/2+x,1/2-y,1/2+z
loop_
_atom_site_type_symbol
_atom_site_label
_atom_site_fract_x
_atom_site_fract_y
_atom_site_fract_z
Si Si1 0.594429 0.229064 0.701448
Si Si2 0.000000 0.540059 0.750000
Si Si3 0.890650 0.767126 0.314728
Si Si4 0.272974 0.891887 0.249160
Si Si5 0.500000 0.470256 0.250000
O O1 0.500000 0.259008 0.750000
O O2 0.612079 0.108235 0.622736
O O3 0.710410 0.321534 0.481338
O O4 0.507931 0.231506 0.993426
O O5 0.100798 0.474407 0.466743
O O6 0.750000 0.750000 0.500000
O O7 0.848920 0.695225 0.515046
O O8 0.932285 0.886582 0.276372
O O9 0.135418 0.957520 0.454987
#
# Coordination Sequence:
#
# PCOD9293751 Si02
#       5
#     8   4   8   8   4
#     4  10  22  47  67  99 146 183 230 298 346 415
#     4  10  24  44  70 100 146 182 238 292 348 422
#     4  12  24  45  75 104 148 184 233 305 348 417
#     4  12  23  45  71 107 140 187 242 286 357 429
#     4  12  26  44  76 110 136 192 244 278 366 430
#
# _framework density 25.725777999999998
#
# number of rings (size 3 to 8) (size 9 to 14) (size 15 to 20)
#    0.750    0.000    3.750    3.750    0.000    7.000 
#    0.000   11.250    0.000    0.000    0.000    0.000 
#    0.000    0.000    0.000    0.000    0.000    0.000 
#
# Total GULP energy -89255.905216 kJ/mol
# GULP energy per Si atom -5578.494076 kJ/mol
# Density = 2.566723 g / cm^3
# Si number density = 25.725778 Si / 1000 Ang^3
#
#
#
# Elastic Constant Matrix: (Units=GPa)
#
#
# Indices 1 2 3 4 5 6 
#
# 1 70.1373 31.5499 34.4808 0.0000 3.8826 0.0000
# 2 31.5499 152.3885 92.7728 0.0000 4.7022 0.0000
# 3 34.4808 92.7728 186.4308 0.0000 -5.7120 0.0000
# 4 0.0000 0.0000 0.0000 11.6197 0.0000 -29.5359
# 5 3.8826 4.7022 -5.7120 0.0000 57.0900 0.0000
# 6 0.0000 0.0000 0.0000 -29.5359 0.0000 8.1748
#
#
#
# Elastic Compliance Matrix: (Units=1/GPa)
#
#
# Indices 1 2 3 4 5 6 
#
# 1 0.016250 -0.002121 -0.001984 0.000000 -0.001129 0.000000
# 2 -0.002121 0.009781 -0.004509 0.000000 -0.001112 0.000000
# 3 -0.001984 -0.004509 0.008015 0.000000 0.001308 0.000000
# 4 0.000000 0.000000 0.000000 -0.010516 0.000000 -0.037994
# 5 -0.001129 -0.001112 0.001308 0.000000 0.017815 0.000000
# 6 0.000000 0.000000 0.000000 -0.037994 0.000000 -0.014947
#
#
# Mechanical properties :
#
#
# Convention : Reuss Voigt Hill
#
# Bulk Modulus (GPa) = 59.46663 80.72929 70.09796
# Shear Modulus (GPa) = 101.55847 32.05377 66.80612
#
# Velocity S-wave (km/s) = 6.28991 3.53367 5.10146
# Velocity P-wave (km/s) = 8.71300 6.93527 7.87446
#
# Compressibility (1/GPa) = 0.01681615
#
# Stress axis : x y z
#
# Youngs Moduli (GPa) = 61.53813 102.24279 124.77026
#
# Poissons Ratio (x) = 0.21690 0.24760
# Poissons Ratio (y) = 0.13055 0.56257
# Poissons Ratio (z) = 0.12212 0.46099
#
# Static dielectric constant tensor:
#      x y z
#    x 2.190310 0.000000 -0.015990 
#    y 0.000000 2.130060 0.000000 
#    z -0.015990 0.000000 1.888600 
# 
# From -- ./inp_files/123236.got.cif
#   From: 2010.05.17/outbox.cif.g08.bks.cpg/sg15_62_cif.got.tgz:123236.got - 2010.06.03 18:47:42.
