data_PCOD9293738
_publ_section_title
;
Structure prediction by ZEFSAII (Michael W. Deem and Ramdas Pophale) SiO2 
 PCOD9293738
Probable space group: C 2/C
;
_chemical_formula_sum "Si O2"
_cell_formula_units_Z 40
_cell_length_a 14.741667
_cell_length_b 18.501873
_cell_length_c 8.061255
_cell_angle_alpha 90.000000
_cell_angle_beta 52.982913
_cell_angle_gamma 90.000000
_cell_volume 1755.561061
_symmetry_space_group_name_H-M "C 2/C"
_symmetry_group_IT_number 15
_symmetry_cell_setting 'monoclinic'
loop_
_space_group_symop_operation_xyz
x,y,z
-x,y,1/2-z
-x,-y,-z
x,-y,1/2+z
1/2+x,1/2+y,z
1/2-x,1/2+y,1/2-z
1/2-x,1/2-y,-z
1/2+x,1/2-y,1/2+z
loop_
_atom_site_type_symbol
_atom_site_label
_atom_site_fract_x
_atom_site_fract_y
_atom_site_fract_z
Si Si1 0.336290 0.270805 0.048592
Si Si2 0.376429 0.425781 0.871356
Si Si3 0.545001 0.858931 0.936846
Si Si4 0.248129 0.949383 0.830659
Si Si5 0.815466 0.348546 0.034623
O O1 0.422726 0.205020 0.975161
O O2 0.259937 0.288951 0.294147
O O3 0.250000 0.250000 0.000000
O O4 0.387691 0.347323 0.940208
O O5 0.500000 0.462276 0.750000
O O6 0.332189 0.422830 0.730741
O O7 0.286340 0.470456 0.080226
O O8 0.623841 0.930217 0.872575
O O9 0.602899 0.826103 0.706315
O O10 0.412650 0.874688 0.057976
O O11 0.239757 0.906674 0.016566
#
# Coordination Sequence:
#
# PCOD9293738 Si02
#       5
#     8   8   8   8   8
#     4  12  23  40  67 101 144 179 228 288 335 421
#     4  12  26  43  69 101 139 183 230 287 358 407
#     4   9  21  42  70  96 138 177 233 274 350 403
#     4  10  22  47  64  98 137 177 235 282 338 419
#     4   9  21  43  68  99 134 180 228 278 344 401
#
# _framework density 22.784738999999998
#
# number of rings (size 3 to 8) (size 9 to 14) (size 15 to 20)
#    1.200    0.400    2.000    2.400    2.800    0.000 
#    3.600    9.000    0.000    0.000    0.000    0.000 
#    0.000    0.000    0.000    0.000    0.000    0.000 
#
# Total GULP energy -111387.180237 kJ/mol
# GULP energy per Si atom -5569.359012 kJ/mol
# Density = 2.273288 g / cm^3
# Si number density = 22.784739 Si / 1000 Ang^3
#
#
#
# Elastic Constant Matrix: (Units=GPa)
#
#
# Indices 1 2 3 4 5 6 
#
# 1 150.9661 35.4804 35.8649 0.0000 -8.5736 0.0000
# 2 35.4804 93.2249 33.8866 0.0000 -10.5929 0.0000
# 3 35.8649 33.8866 93.5822 0.0000 -5.2393 0.0000
# 4 0.0000 0.0000 0.0000 16.9713 0.0000 11.5024
# 5 -8.5736 -10.5929 -5.2393 0.0000 30.4411 0.0000
# 6 0.0000 0.0000 0.0000 11.5024 0.0000 20.8517
#
#
#
# Elastic Compliance Matrix: (Units=1/GPa)
#
#
# Indices 1 2 3 4 5 6 
#
# 1 0.007670 -0.002014 -0.002149 0.000000 0.001089 0.000000
# 2 -0.002014 0.013276 -0.003846 0.000000 0.003391 0.000000
# 3 -0.002149 -0.003846 0.012918 0.000000 0.000280 0.000000
# 4 0.000000 0.000000 0.000000 0.094107 0.000000 -0.051912
# 5 0.001089 0.003391 0.000280 0.000000 0.034385 0.000000
# 6 0.000000 0.000000 0.000000 -0.051912 0.000000 0.076594
#
#
# Mechanical properties :
#
#
# Convention : Reuss Voigt Hill
#
# Bulk Modulus (GPa) = 56.03484 60.91523 58.47504
# Shear Modulus (GPa) = 19.16326 29.15557 24.15941
#
# Velocity S-wave (km/s) = 2.90324 3.58104 3.25981
# Velocity P-wave (km/s) = 5.99041 6.62508 6.31572
#
# Compressibility (1/GPa) = 0.01784604
#
# Stress axis : x y z
#
# Youngs Moduli (GPa) = 130.38169 75.32121 77.41338
#
# Poissons Ratio (x) = 0.15170 0.16637
# Poissons Ratio (y) = 0.26260 0.29771
# Poissons Ratio (z) = 0.28020 0.28967
#
# Static dielectric constant tensor:
#      x y z
#    x 1.954530 0.000000 -0.005800 
#    y 0.000000 1.994390 0.000000 
#    z -0.005800 0.000000 1.934010 
# 
# From -- ./inp_files/40557.got.cif
#   From: 2010.05.17/outbox.cif.g08.bks.cpg/sg15_21_cif.got.tgz:40557.got - 2010.06.03 18:47:42.
