data_PCOD9293755
_publ_section_title
;
Structure prediction by ZEFSAII (Michael W. Deem and Ramdas Pophale) SiO2 
 PCOD9293755
Probable space group: C 2/C
;
_chemical_formula_sum "Si O2"
_cell_formula_units_Z 48
_cell_length_a 8.805650
_cell_length_b 25.799028
_cell_length_c 11.321019
_cell_angle_alpha 90.000000
_cell_angle_beta 61.218934
_cell_angle_gamma 90.000000
_cell_volume 2254.162773
_symmetry_space_group_name_H-M "C 2/C"
_symmetry_group_IT_number 15
_symmetry_cell_setting 'monoclinic'
loop_
_space_group_symop_operation_xyz
x,y,z
-x,y,1/2-z
-x,-y,-z
x,-y,1/2+z
1/2+x,1/2+y,z
1/2-x,1/2+y,1/2-z
1/2-x,1/2-y,-z
1/2+x,1/2-y,1/2+z
loop_
_atom_site_type_symbol
_atom_site_label
_atom_site_fract_x
_atom_site_fract_y
_atom_site_fract_z
Si Si1 0.321148 0.106939 0.252172
Si Si2 0.312375 0.593217 0.763335
Si Si3 0.053746 0.444154 0.027350
Si Si4 0.798155 0.318582 0.364367
Si Si5 0.193699 0.000764 0.883383
Si Si6 0.293992 0.295524 0.830215
O O1 0.500000 0.116517 0.250000
O O2 0.241818 0.163011 0.258614
O O3 0.243820 0.059188 0.355663
O O4 0.336101 0.082882 0.115642
O O5 0.500000 0.605729 0.750000
O O6 0.297020 0.632726 0.658971
O O7 0.319057 0.531990 0.733048
O O8 0.117003 0.592489 0.892947
O O9 0.170115 0.463018 0.095142
O O10 0.000000 0.500000 0.000000
O O11 0.772509 0.314904 0.515738
O O12 0.727452 0.263454 0.341569
O O13 0.000000 0.323015 0.250000
O O14 0.000000 0.000000 0.000000
O O15 0.500000 0.290514 0.750000
#
# Coordination Sequence:
#
# PCOD9293755 Si02
#       6
#     8   8   8   8   8   8
#     4  12  25  40  65  95 134 172 212 271 331 384
#     4  12  25  40  67  95 125 173 220 265 318 393
#     4  12  23  45  61  90 135 175 214 264 322 393
#     4  10  22  47  68  93 128 176 219 269 335 396
#     4  12  26  40  62  94 132 174 215 262 326 392
#     4  10  24  42  69  97 128 168 223 275 329 392
#
# _framework density 21.293935999999999
#
# number of rings (size 3 to 8) (size 9 to 14) (size 15 to 20)
#    0.000    0.667    3.333    4.500    4.667    0.667 
#    0.000    0.000    0.000    8.000    0.000    0.000 
#    0.000    0.000    0.000    0.000    0.000    0.000 
#
# Total GULP energy -133668.483308 kJ/mol
# GULP energy per Si atom -5569.520138 kJ/mol
# Density = 2.124547 g / cm^3
# Si number density = 21.293936 Si / 1000 Ang^3
#
#
#
# Elastic Constant Matrix: (Units=GPa)
#
#
# Indices 1 2 3 4 5 6 
#
# 1 107.2444 62.0188 22.4806 0.0000 -5.9374 0.0000
# 2 62.0188 138.4719 -10.6213 0.0000 16.6091 0.0000
# 3 22.4806 -10.6213 53.8450 0.0000 -15.1125 0.0000
# 4 0.0000 0.0000 0.0000 6.0909 0.0000 -0.2428
# 5 -5.9374 16.6091 -15.1125 0.0000 22.2931 0.0000
# 6 0.0000 0.0000 0.0000 -0.2428 0.0000 -1.2497
#
#
#
# Elastic Compliance Matrix: (Units=1/GPa)
#
#
# Indices 1 2 3 4 5 6 
#
# 1 0.015842 -0.008314 -0.006584 0.000000 0.005950 0.000000
# 2 -0.008314 0.012294 0.003339 0.000000 -0.009110 0.000000
# 3 -0.006584 0.003339 0.025674 0.000000 0.013163 0.000000
# 4 0.000000 0.000000 0.000000 0.162916 0.000000 -0.031652
# 5 0.005950 -0.009110 0.013163 0.000000 0.062152 0.000000
# 6 0.000000 0.000000 0.000000 -0.031652 0.000000 -0.794060
#
#
# Mechanical properties :
#
#
# Convention : Reuss Voigt Hill
#
# Bulk Modulus (GPa) = 32.58133 49.70194 41.14164
# Shear Modulus (GPa) = -10.37704 20.47244 5.04770
#
# Velocity S-wave (km/s) = -2.20994 3.10404 1.54131
# Velocity P-wave (km/s) = 2.97022 6.01983 4.74661
#
# Compressibility (1/GPa) = 0.03069242
#
# Stress axis : x y z
#
# Youngs Moduli (GPa) = 63.12315 81.33893 38.95023
#
# Poissons Ratio (x) = 0.67626 0.25645
# Poissons Ratio (y) = 0.52481 -0.13007
# Poissons Ratio (z) = 0.41561 -0.27162
#
# Static dielectric constant tensor:
#      x y z
#    x 2.115800 0.000000 -0.240490 
#    y 0.000000 1.958100 0.000000 
#    z -0.240490 0.000000 2.091980 
# 
# From -- ./inp_files/80536.got.cif
#   From: 2010.05.17/outbox.cif.g08.bks.cpg/sg15_41_cif.got.tgz:80536.got - 2010.06.03 18:47:42.
