data_PCOD9293067
_publ_section_title
;
Structure prediction by ZEFSAII (Michael W. Deem and Ramdas Pophale) SiO2 
 PCOD9293067
Probable space group: C 2/C
;
_chemical_formula_sum "Si O2"
_cell_formula_units_Z 60
_cell_length_a 20.353071
_cell_length_b 17.294476
_cell_length_c 11.191955
_cell_angle_alpha 90.000000
_cell_angle_beta 136.664864
_cell_angle_gamma 90.000000
_cell_volume 2703.552820
_symmetry_space_group_name_H-M "C 2/C"
_symmetry_group_IT_number 15
_symmetry_cell_setting 'monoclinic'
loop_
_space_group_symop_operation_xyz
x,y,z
-x,y,1/2-z
-x,-y,-z
x,-y,1/2+z
1/2+x,1/2+y,z
1/2-x,1/2+y,1/2-z
1/2-x,1/2-y,-z
1/2+x,1/2-y,1/2+z
loop_
_atom_site_type_symbol
_atom_site_label
_atom_site_fract_x
_atom_site_fract_y
_atom_site_fract_z
Si Si1 0.396151 0.768921 0.402030
Si Si2 0.587484 0.074882 0.706922
Si Si3 0.000000 0.188743 0.750000
Si Si4 0.120556 0.584108 0.122485
Si Si5 0.761314 0.954142 0.610962
Si Si6 0.214678 0.738725 0.316182
Si Si7 0.542203 0.633388 0.173262
Si Si8 0.119152 0.106013 0.721317
O O1 0.390443 0.859238 0.363688
O O2 0.467078 0.744834 0.601649
O O3 0.297636 0.735071 0.326219
O O4 0.435426 0.720667 0.341230
O O5 0.475270 0.091242 0.585287
O O6 0.593654 0.985779 0.673830
O O7 0.673964 0.076476 0.914690
O O8 0.079560 0.132755 0.798110
O O9 0.216884 0.558625 0.182551
O O10 0.146504 0.664831 0.217763
O O11 0.855581 0.907413 0.701652
O O12 0.799225 0.042194 0.654882
O O13 0.250000 0.750000 0.500000
O O14 0.161354 0.817721 0.216631
O O15 0.500000 0.630121 0.250000
O O16 0.471466 0.590300 0.985053
#
# Coordination Sequence:
#
# PCOD9293067 Si02
#       8
#     8   8   4   8   8   8   8   8
#     4  11  24  47  72 109 145 189 247 302 378 429
#     4  11  27  44  74 103 144 197 236 302 364 452
#     4  10  22  44  72 110 144 186 242 324 362 428
#     4  11  25  49  68 107 147 187 247 299 368 431
#     4  12  26  47  71 105 148 190 244 299 370 448
#     4  12  23  44  75 105 141 190 240 306 364 432
#     4  11  27  46  72 107 146 193 239 307 375 447
#     4  11  25  44  74 109 144 189 245 305 371 439
#
# _framework density 22.193019
#
# number of rings (size 3 to 8) (size 9 to 14) (size 15 to 20)
#    0.000    0.800    2.667    4.000    4.667    2.667 
#    2.400    0.000    0.000    0.000    0.000    0.000 
#    0.000    0.000    0.000    0.000    0.000    0.000 
#
# Total GULP energy -167492.048364 kJ/mol
# GULP energy per Si atom -5583.068279 kJ/mol
# Density = 2.214251 g / cm^3
# Si number density = 22.193019 Si / 1000 Ang^3
#
#
#
# Elastic Constant Matrix: (Units=GPa)
#
#
# Indices 1 2 3 4 5 6 
#
# 1 111.7235 33.9412 32.4180 0.0000 28.5154 0.0000
# 2 33.9412 146.7777 49.2504 0.0000 13.9305 0.0000
# 3 32.4180 49.2504 101.0849 0.0000 21.3017 0.0000
# 4 0.0000 0.0000 0.0000 44.1111 0.0000 46.3805
# 5 28.5154 13.9305 21.3017 0.0000 28.1728 0.0000
# 6 0.0000 0.0000 0.0000 46.3805 0.0000 129.5736
#
#
#
# Elastic Compliance Matrix: (Units=1/GPa)
#
#
# Indices 1 2 3 4 5 6 
#
# 1 0.012553 -0.001529 -0.000907 0.000000 -0.011264 0.000000
# 2 -0.001529 0.008366 -0.003616 0.000000 0.000146 0.000000
# 3 -0.000907 -0.003616 0.013531 0.000000 -0.007525 0.000000
# 4 0.000000 0.000000 0.000000 0.036351 0.000000 -0.013012
# 5 -0.011264 0.000146 -0.007525 0.000000 0.052514 0.000000
# 6 0.000000 0.000000 0.000000 -0.013012 0.000000 0.012375
#
#
# Mechanical properties :
#
#
# Convention : Reuss Voigt Hill
#
# Bulk Modulus (GPa) = 44.75230 65.64502 55.19866
# Shear Modulus (GPa) = 32.20700 56.63660 44.42180
#
# Velocity S-wave (km/s) = 3.81362 5.05721 4.47879
# Velocity P-wave (km/s) = 6.29289 7.98398 7.18834
#
# Compressibility (1/GPa) = 0.02234522
#
# Stress axis : x y z
#
# Youngs Moduli (GPa) = 79.65940 119.52639 73.90290
#
# Poissons Ratio (x) = 0.18281 0.06703
# Poissons Ratio (y) = 0.12184 0.26726
# Poissons Ratio (z) = 0.07225 0.43226
#
# Static dielectric constant tensor:
#      x y z
#    x 2.271920 0.000000 0.505050 
#    y 0.000000 1.811570 0.000000 
#    z 0.505050 0.000000 2.453120 
# 
# From -- ./inp_files/113826.got.cif
#   From: 2010.05.17/outbox.cif.g08.bks.cpg/sg15_57_cif.got.tgz:113826.got - 2010.06.03 18:47:42.
