data_PCOD9293044
_publ_section_title
;
Structure prediction by ZEFSAII (Michael W. Deem and Ramdas Pophale) SiO2 
 PCOD9293044
Probable space group: C 2/C
;
_chemical_formula_sum "Si O2"
_cell_formula_units_Z 40
_cell_length_a 9.294955
_cell_length_b 25.240813
_cell_length_c 7.627541
_cell_angle_alpha 90.000000
_cell_angle_beta 71.161385
_cell_angle_gamma 90.000000
_cell_volume 1693.653365
_symmetry_space_group_name_H-M "C 2/C"
_symmetry_group_IT_number 15
_symmetry_cell_setting 'monoclinic'
loop_
_space_group_symop_operation_xyz
x,y,z
-x,y,1/2-z
-x,-y,-z
x,-y,1/2+z
1/2+x,1/2+y,z
1/2-x,1/2+y,1/2-z
1/2-x,1/2-y,-z
1/2+x,1/2-y,1/2+z
loop_
_atom_site_type_symbol
_atom_site_label
_atom_site_fract_x
_atom_site_fract_y
_atom_site_fract_z
Si Si1 0.606451 0.808281 0.941628
Si Si2 0.127824 0.570747 0.412300
Si Si3 0.940044 0.942605 0.965658
Si Si4 0.500000 0.638535 0.750000
Si Si5 0.778643 0.712462 0.712338
Si Si6 0.500000 0.010841 0.750000
O O1 0.678209 0.808343 0.109271
O O2 0.434117 0.787920 0.040116
O O3 0.612497 0.868320 0.873746
O O4 0.704695 0.769551 0.781642
O O5 0.261182 0.559639 0.498346
O O6 0.132737 0.532413 0.242805
O O7 0.990141 0.549136 0.585882
O O8 0.000000 0.928663 0.750000
O O9 0.988312 0.899266 0.086848
O O10 0.000000 0.000000 0.000000
O O11 0.649425 0.674993 0.684608
#
# Coordination Sequence:
#
# PCOD9293044 Si02
#       6
#     8   8   8   4   8   4
#     4  10  22  44  72 101 148 192 251 317 381 452
#     4  11  23  44  68 105 141 196 240 311 374 451
#     4  12  26  44  71 106 154 201 256 306 377 459
#     4  12  26  45  74 112 151 206 252 316 386 456
#     4  10  23  43  72 106 142 197 254 313 385 458
#     4  10  24  39  72 102 139 182 250 298 372 458
#
# _framework density 23.617584000000001
#
# number of rings (size 3 to 8) (size 9 to 14) (size 15 to 20)
#    0.000    1.200    3.000    2.400    0.000    6.400 
#    0.000    0.000    0.000    0.000    0.000    0.000 
#    0.000    0.000    0.000    0.000    0.000    0.000 
#
# Total GULP energy -111850.748709 kJ/mol
# GULP energy per Si atom -5592.537435 kJ/mol
# Density = 2.356383 g / cm^3
# Si number density = 23.617584 Si / 1000 Ang^3
#
#
#
# Elastic Constant Matrix: (Units=GPa)
#
#
# Indices 1 2 3 4 5 6 
#
# 1 141.5215 68.8079 31.9407 0.0000 12.5449 0.0000
# 2 68.8079 189.4833 36.9144 0.0000 -0.5951 0.0000
# 3 31.9407 36.9144 78.4713 0.0000 25.3178 0.0000
# 4 0.0000 0.0000 0.0000 10.4163 0.0000 25.6517
# 5 12.5449 -0.5951 25.3178 0.0000 45.6461 0.0000
# 6 0.0000 0.0000 0.0000 25.6517 0.0000 20.2570
#
#
#
# Elastic Compliance Matrix: (Units=1/GPa)
#
#
# Indices 1 2 3 4 5 6 
#
# 1 0.009035 -0.002934 -0.001808 0.000000 -0.001519 0.000000
# 2 -0.002934 0.006907 -0.002855 0.000000 0.002480 0.000000
# 3 -0.001808 -0.002855 0.017872 0.000000 -0.009453 0.000000
# 4 0.000000 0.000000 0.000000 -0.045317 0.000000 0.057386
# 5 -0.001519 0.002480 -0.009453 0.000000 0.027601 0.000000
# 6 0.000000 0.000000 0.000000 0.057386 0.000000 -0.023302
#
#
# Mechanical properties :
#
#
# Convention : Reuss Voigt Hill
#
# Bulk Modulus (GPa) = 53.70079 76.08913 64.89496
# Shear Modulus (GPa) = 352.23060 33.38474 192.80767
#
# Velocity S-wave (km/s) = 12.22550 3.76381 9.04514
# Velocity P-wave (km/s) = 14.90204 7.15370 11.68859
#
# Compressibility (1/GPa) = 0.01862170
#
# Stress axis : x y z
#
# Youngs Moduli (GPa) = 110.68154 144.78505 55.95215
#
# Poissons Ratio (x) = 0.42473 0.10114
# Poissons Ratio (y) = 0.32469 0.15975
# Poissons Ratio (z) = 0.20006 0.41338
#
# Static dielectric constant tensor:
#      x y z
#    x 1.972980 0.000000 -0.148690 
#    y 0.000000 1.835120 0.000000 
#    z -0.148690 0.000000 2.148900 
# 
# From -- ./inp_files/23516.got.cif
#   From: 2010.05.17/outbox.cif.g08.bks.cpg/sg15_12_cif.got.tgz:23516.got - 2010.06.03 18:47:42.
