data_PCOD9293284
_publ_section_title
;
Structure prediction by ZEFSAII (Michael W. Deem and Ramdas Pophale) SiO2 
 PCOD9293284
Probable space group: C 2/C
;
_chemical_formula_sum "Si O2"
_cell_formula_units_Z 56
_cell_length_a 14.630027
_cell_length_b 11.826824
_cell_length_c 18.278178
_cell_angle_alpha 90.000000
_cell_angle_beta 66.790684
_cell_angle_gamma 90.000000
_cell_volume 2906.667510
_symmetry_space_group_name_H-M "C 2/C"
_symmetry_group_IT_number 15
_symmetry_cell_setting 'monoclinic'
loop_
_space_group_symop_operation_xyz
x,y,z
-x,y,1/2-z
-x,-y,-z
x,-y,1/2+z
1/2+x,1/2+y,z
1/2-x,1/2+y,1/2-z
1/2-x,1/2-y,-z
1/2+x,1/2-y,1/2+z
loop_
_atom_site_type_symbol
_atom_site_label
_atom_site_fract_x
_atom_site_fract_y
_atom_site_fract_z
Si Si1 0.617452 0.895877 0.699248
Si Si2 0.534514 0.627235 0.471459
Si Si3 0.851699 0.222016 0.926811
Si Si4 0.884855 0.005345 0.816661
Si Si5 0.146390 0.798407 0.562231
Si Si6 0.810585 0.152396 0.212240
Si Si7 0.616200 0.853343 0.209854
O O1 0.500000 0.889060 0.750000
O O2 0.624356 0.840663 0.618053
O O3 0.695229 0.832114 0.727396
O O4 0.660873 0.022411 0.692207
O O5 0.500000 0.500000 0.500000
O O6 0.574055 0.680452 0.533887
O O7 0.438876 0.694258 0.471585
O O8 0.620211 0.630835 0.381260
O O9 0.854039 0.126155 0.861539
O O10 0.750000 0.250000 0.000000
O O11 0.000000 0.007910 0.750000
O O12 0.864183 0.917933 0.890551
O O13 0.826723 0.948884 0.766251
O O14 0.250000 0.750000 0.500000
O O15 0.125648 0.709234 0.631175
O O16 0.847590 0.267918 0.239209
O O17 0.500000 0.873611 0.250000
#
# Coordination Sequence:
#
# PCOD9293284 Si02
#       7
#     8   8   8   8   8   8   8
#     4  11  27  44  66  99 141 179 228 286 354 416
#     4  12  23  43  72 104 138 185 233 288 355 417
#     4  12  26  42  68 104 148 173 227 297 361 398
#     4  11  22  45  71 101 136 182 243 291 335 424
#     4  11  23  39  70 106 134 172 232 290 346 407
#     4  11  22  43  75  95 129 189 239 272 349 418
#     4  10  22  45  68  94 136 177 230 282 343 428
#
# _framework density 19.266048000000001
#
# number of rings (size 3 to 8) (size 9 to 14) (size 15 to 20)
#    0.000    0.857    5.714    1.286    6.000    2.286 
#    0.000    0.714    0.000    0.000    0.000    0.000 
#    0.000    0.000    0.000    0.000    0.000    0.000 
#
# Total GULP energy -156001.627260 kJ/mol
# GULP energy per Si atom -5571.486688 kJ/mol
# Density = 1.922220 g / cm^3
# Si number density = 19.266048 Si / 1000 Ang^3
#
#
#
# Elastic Constant Matrix: (Units=GPa)
#
#
# Indices 1 2 3 4 5 6 
#
# 1 127.5068 37.0461 30.3095 0.0000 12.5152 0.0000
# 2 37.0461 85.6574 62.6554 0.0000 1.0774 0.0000
# 3 30.3095 62.6554 97.8843 0.0000 0.6905 0.0000
# 4 0.0000 0.0000 0.0000 142.6885 0.0000 -9.7172
# 5 12.5152 1.0774 0.6905 0.0000 40.2724 0.0000
# 6 0.0000 0.0000 0.0000 -9.7172 0.0000 15.7263
#
#
#
# Elastic Compliance Matrix: (Units=1/GPa)
#
#
# Indices 1 2 3 4 5 6 
#
# 1 0.009287 -0.003559 -0.000578 0.000000 -0.002781 0.000000
# 2 -0.003559 0.023321 -0.013831 0.000000 0.000719 0.000000
# 3 -0.000578 -0.013831 0.019247 0.000000 0.000220 0.000000
# 4 0.000000 0.000000 0.000000 0.007316 0.000000 0.004521
# 5 -0.002781 0.000719 0.000220 0.000000 0.025672 0.000000
# 6 0.000000 0.000000 0.000000 0.004521 0.000000 0.066381
#
#
# Mechanical properties :
#
#
# Convention : Reuss Voigt Hill
#
# Bulk Modulus (GPa) = 62.81635 63.45228 63.13432
# Shear Modulus (GPa) = 25.97843 51.80658 38.89250
#
# Velocity S-wave (km/s) = 3.67605 5.19119 4.49788
# Velocity P-wave (km/s) = 7.11992 8.30286 7.73404
#
# Compressibility (1/GPa) = 0.01591942
#
# Stress axis : x y z
#
# Youngs Moduli (GPa) = 107.67659 42.87895 51.95639
#
# Poissons Ratio (x) = 0.15259 0.03004
# Poissons Ratio (y) = 0.38319 0.71862
# Poissons Ratio (z) = 0.06226 0.59307
#
# Static dielectric constant tensor:
#      x y z
#    x 1.646980 0.000000 0.039390 
#    y 0.000000 1.579840 0.000000 
#    z 0.039390 0.000000 1.604520 
# 
# From -- ./inp_files/204353.got.cif
#   From: 2010.05.17/outbox.cif.g08.bks.cpg/sg15_103_cif.got.tgz:204353.got - 2010.06.03 18:47:42.
