data_PCOD9293364
_publ_section_title
;
Structure prediction by ZEFSAII (Michael W. Deem and Ramdas Pophale) SiO2 
 PCOD9293364
Probable space group: C 2/C
;
_chemical_formula_sum "Si O2"
_cell_formula_units_Z 40
_cell_length_a 21.680678
_cell_length_b 6.619214
_cell_length_c 11.102988
_cell_angle_alpha 90.000000
_cell_angle_beta 95.463812
_cell_angle_gamma 90.000000
_cell_volume 1586.139769
_symmetry_space_group_name_H-M "C 2/C"
_symmetry_group_IT_number 15
_symmetry_cell_setting 'monoclinic'
loop_
_space_group_symop_operation_xyz
x,y,z
-x,y,1/2-z
-x,-y,-z
x,-y,1/2+z
1/2+x,1/2+y,z
1/2-x,1/2+y,1/2-z
1/2-x,1/2-y,-z
1/2+x,1/2-y,1/2+z
loop_
_atom_site_type_symbol
_atom_site_label
_atom_site_fract_x
_atom_site_fract_y
_atom_site_fract_z
Si Si1 0.631856 0.175119 0.158945
Si Si2 0.999654 0.323633 0.600920
Si Si3 0.775574 0.016244 0.897904
Si Si4 0.337783 0.217181 0.724345
Si Si5 0.377774 0.583654 0.601299
O O1 0.568338 0.265394 0.096203
O O2 0.689915 0.267284 0.103164
O O3 0.635429 0.269362 0.290902
O O4 0.631371 0.935374 0.174681
O O5 0.942094 0.175491 0.564810
O O6 0.000000 0.374146 0.750000
O O7 0.000000 0.500000 0.500000
O O8 0.704733 0.077706 0.868987
O O9 0.794068 0.872301 0.789413
O O10 0.813962 0.916099 0.013257
O O11 0.383884 0.358386 0.658283
#
# Coordination Sequence:
#
# PCOD9293364 Si02
#       5
#     8   8   8   8   8
#     4  10  23  43  66  98 139 181 238 292 364 428
#     4  10  22  45  71 104 143 189 243 295 357 430
#     4  11  22  40  64  97 135 179 232 293 360 432
#     4  11  22  41  64  98 136 181 230 295 358 434
#     4  10  24  41  65 101 134 187 234 293 360 433
#
# _framework density 25.218457000000001
#
# number of rings (size 3 to 8) (size 9 to 14) (size 15 to 20)
#    0.000    1.600    2.000    1.800    0.000    6.400 
#    0.000   19.000    0.000    0.000    0.000    0.000 
#    0.000    0.000    0.000    0.000    0.000    0.000 
#
# Total GULP energy -111586.174919 kJ/mol
# GULP energy per Si atom -5579.308746 kJ/mol
# Density = 2.516106 g / cm^3
# Si number density = 25.218457 Si / 1000 Ang^3
#
#
#
# Elastic Constant Matrix: (Units=GPa)
#
#
# Indices 1 2 3 4 5 6 
#
# 1 75.6797 52.4055 22.6556 0.0000 23.3023 0.0000
# 2 52.4055 137.6404 49.3330 0.0000 6.5741 0.0000
# 3 22.6556 49.3330 99.9703 0.0000 21.9861 0.0000
# 4 0.0000 0.0000 0.0000 53.4279 0.0000 0.1098
# 5 23.3023 6.5741 21.9861 0.0000 31.4138 0.0000
# 6 0.0000 0.0000 0.0000 0.1098 0.0000 41.9559
#
#
#
# Elastic Compliance Matrix: (Units=1/GPa)
#
#
# Indices 1 2 3 4 5 6 
#
# 1 0.024636 -0.009664 0.003262 0.000000 -0.018536 0.000000
# 2 -0.009664 0.012671 -0.005976 0.000000 0.008699 0.000000
# 3 0.003262 -0.005976 0.014738 0.000000 -0.011485 0.000000
# 4 0.000000 0.000000 0.000000 0.018717 0.000000 -0.000049
# 5 -0.018536 0.008699 -0.011485 0.000000 0.051800 0.000000
# 6 0.000000 0.000000 0.000000 -0.000049 0.000000 0.023835
#
#
# Mechanical properties :
#
#
# Convention : Reuss Voigt Hill
#
# Bulk Modulus (GPa) = 36.64314 62.45319 49.54817
# Shear Modulus (GPa) = 27.73929 37.95260 32.84595
#
# Velocity S-wave (km/s) = 3.32016 3.88358 3.61287
# Velocity P-wave (km/s) = 5.40923 6.70285 6.09049
#
# Compressibility (1/GPa) = 0.02729024
#
# Stress axis : x y z
#
# Youngs Moduli (GPa) = 40.59067 78.91880 67.84963
#
# Poissons Ratio (x) = 0.76267 -0.22134
# Poissons Ratio (y) = 0.39227 0.40548
# Poissons Ratio (z) = -0.13242 0.47163
#
# Static dielectric constant tensor:
#      x y z
#    x 2.048670 0.000000 0.011000 
#    y 0.000000 2.003650 0.000000 
#    z 0.011000 0.000000 2.119090 
# 
# From -- ./inp_files/120895.got.cif
#   From: 2010.05.17/outbox.cif.g08.bks.cpg/sg15_61_cif.got.tgz:120895.got - 2010.06.03 18:47:42.
