data_PCOD9293335
_publ_section_title
;
Structure prediction by ZEFSAII (Michael W. Deem and Ramdas Pophale) SiO2 
 PCOD9293335
Probable space group: C 2/C
;
_chemical_formula_sum "Si O2"
_cell_formula_units_Z 28
_cell_length_a 9.762315
_cell_length_b 9.424689
_cell_length_c 13.984929
_cell_angle_alpha 90.000000
_cell_angle_beta 57.817612
_cell_angle_gamma 90.000000
_cell_volume 1089.014502
_symmetry_space_group_name_H-M "C 2/C"
_symmetry_group_IT_number 15
_symmetry_cell_setting 'monoclinic'
loop_
_space_group_symop_operation_xyz
x,y,z
-x,y,1/2-z
-x,-y,-z
x,-y,1/2+z
1/2+x,1/2+y,z
1/2-x,1/2+y,1/2-z
1/2-x,1/2-y,-z
1/2+x,1/2-y,1/2+z
loop_
_atom_site_type_symbol
_atom_site_label
_atom_site_fract_x
_atom_site_fract_y
_atom_site_fract_z
Si Si1 0.750000 0.250000 0.000000
Si Si2 0.337730 0.503841 0.428473
Si Si3 0.701044 0.522814 0.342569
Si Si4 0.128066 0.694969 0.379116
O O1 0.830645 0.145328 0.878809
O O2 0.938615 0.296346 0.963448
O O3 0.517856 0.560102 0.377039
O O4 0.280069 0.431637 0.552606
O O5 0.218500 0.618640 0.433556
O O6 0.825313 0.597344 0.227983
O O7 0.701829 0.353009 0.344717
#
# Coordination Sequence:
#
# PCOD9293335 Si02
#       4
#     4   8   8   8
#     4  10  24  42  72 102 148 192 252 310 384 450
#     4  10  22  45  70 103 150 198 248 322 382 446
#     4  10  24  43  73 109 141 201 260 309 382 467
#     4  11  23  46  72 108 153 199 252 318 383 460
#
# _framework density 25.711321999999999
#
# number of rings (size 3 to 8) (size 9 to 14) (size 15 to 20)
#    0.000    1.714    0.000    2.571    4.000    1.143 
#   15.429    0.000    0.000    3.429    0.000    0.000 
#    0.000    0.000    0.000    0.000    0.000    0.000 
#
# Total GULP energy -78126.146520 kJ/mol
# GULP energy per Si atom -5580.439037 kJ/mol
# Density = 2.565280 g / cm^3
# Si number density = 25.711322 Si / 1000 Ang^3
#
#
#
# Elastic Constant Matrix: (Units=GPa)
#
#
# Indices 1 2 3 4 5 6 
#
# 1 172.2217 105.2197 52.7168 0.0000 -6.5771 0.0000
# 2 105.2197 151.8508 45.1789 0.0000 -7.0517 0.0000
# 3 52.7168 45.1789 117.6836 0.0000 -1.3311 0.0000
# 4 0.0000 0.0000 0.0000 36.0126 0.0000 0.5593
# 5 -6.5771 -7.0517 -1.3311 0.0000 22.6512 0.0000
# 6 0.0000 0.0000 0.0000 0.5593 0.0000 66.8236
#
#
#
# Elastic Compliance Matrix: (Units=1/GPa)
#
#
# Indices 1 2 3 4 5 6 
#
# 1 0.010553 -0.006625 -0.002174 0.000000 0.000874 0.000000
# 2 -0.006625 0.011699 -0.001505 0.000000 0.001630 0.000000
# 3 -0.002174 -0.001505 0.010043 0.000000 -0.000510 0.000000
# 4 0.000000 0.000000 0.000000 0.027772 0.000000 -0.000232
# 5 0.000874 0.001630 -0.000510 0.000000 0.044879 0.000000
# 6 0.000000 0.000000 0.000000 -0.000232 0.000000 0.014967
#
#
# Mechanical properties :
#
#
# Convention : Reuss Voigt Hill
#
# Bulk Modulus (GPa) = 85.56362 94.22075 89.89219
# Shear Modulus (GPa) = 34.62199 41.00687 37.81443
#
# Velocity S-wave (km/s) = 3.67354 3.99795 3.83917
# Velocity P-wave (km/s) = 7.16547 7.61818 7.39529
#
# Compressibility (1/GPa) = 0.01168721
#
# Stress axis : x y z
#
# Youngs Moduli (GPa) = 94.76228 85.47457 99.56823
#
# Poissons Ratio (x) = 0.56625 0.21646
# Poissons Ratio (y) = 0.62778 0.14989
# Poissons Ratio (z) = 0.20601 0.12867
#
# Static dielectric constant tensor:
#      x y z
#    x 2.024280 0.000000 0.182350 
#    y 0.000000 2.374440 0.000000 
#    z 0.182350 0.000000 2.145540 
# 
# From -- ./inp_files/131901.got.cif
#   From: 2010.05.17/outbox.cif.g08.bks.cpg/sg15_66_cif.got.tgz:131901.got - 2010.06.03 18:47:42.
