data_PCOD9293206
_publ_section_title
;
Structure prediction by ZEFSAII (Michael W. Deem and Ramdas Pophale) SiO2 
 PCOD9293206
Probable space group: C 2/C
;
_chemical_formula_sum "Si O2"
_cell_formula_units_Z 56
_cell_length_a 28.858654
_cell_length_b 9.196248
_cell_length_c 11.885012
_cell_angle_alpha 90.000000
_cell_angle_beta 125.717985
_cell_angle_gamma 90.000000
_cell_volume 2560.879126
_symmetry_space_group_name_H-M "C 2/C"
_symmetry_group_IT_number 15
_symmetry_cell_setting 'monoclinic'
loop_
_space_group_symop_operation_xyz
x,y,z
-x,y,1/2-z
-x,-y,-z
x,-y,1/2+z
1/2+x,1/2+y,z
1/2-x,1/2+y,1/2-z
1/2-x,1/2-y,-z
1/2+x,1/2-y,1/2+z
loop_
_atom_site_type_symbol
_atom_site_label
_atom_site_fract_x
_atom_site_fract_y
_atom_site_fract_z
Si Si1 0.789781 0.043499 0.902616
Si Si2 0.438865 0.858353 0.921982
Si Si3 0.312290 0.242823 0.031548
Si Si4 0.631500 0.613471 0.688826
Si Si5 0.644319 0.303156 0.811497
Si Si6 0.164448 0.564267 0.649494
Si Si7 0.955571 0.406568 0.286821
O O1 0.818633 0.106540 0.831963
O O2 0.724165 0.004303 0.783747
O O3 0.819291 0.890627 0.970661
O O4 0.805258 0.150633 0.029233
O O5 0.423675 0.693235 0.934558
O O6 0.391256 0.961907 0.917852
O O7 0.437077 0.931075 0.794935
O O8 0.505390 0.863496 0.051325
O O9 0.323835 0.111729 0.962749
O O10 0.250000 0.250000 0.000000
O O11 0.352070 0.267806 0.194152
O O12 0.623380 0.457573 0.733351
O O13 0.658535 0.204766 0.722956
O O14 0.596081 0.205404 0.803062
O O15 0.000000 0.407214 0.250000
#
# Coordination Sequence:
#
# PCOD9293206 Si02
#       7
#     8   8   8   8   8   8   8
#     4  11  22  39  63  93 131 166 210 256 314 387
#     4  10  24  40  65  93 121 167 209 272 313 384
#     4  11  22  38  59  91 132 169 205 260 305 389
#     4  11  22  40  61  95 127 162 212 252 327 373
#     4  10  23  41  64  89 124 167 210 268 313 382
#     4  11  22  40  63  93 128 172 210 253 324 381
#     4  10  22  45  63  88 122 160 221 266 320 370
#
# _framework density 21.867491000000001
#
# number of rings (size 3 to 8) (size 9 to 14) (size 15 to 20)
#    0.000    1.429    2.857    2.143    2.000    0.571 
#    2.571    0.714    0.000    0.000    0.000    0.000 
#    0.000    0.000    0.000    0.000    0.000    0.000 
#
# Total GULP energy -156038.126273 kJ/mol
# GULP energy per Si atom -5572.790224 kJ/mol
# Density = 2.181772 g / cm^3
# Si number density = 21.867491 Si / 1000 Ang^3
#
#
#
# Elastic Constant Matrix: (Units=GPa)
#
#
# Indices 1 2 3 4 5 6 
#
# 1 62.3897 1.7470 1.6035 0.0000 -15.4477 0.0000
# 2 1.7470 52.7133 12.2238 0.0000 -5.0241 0.0000
# 3 1.6035 12.2238 47.9762 0.0000 -4.5785 0.0000
# 4 0.0000 0.0000 0.0000 16.2097 0.0000 4.7661
# 5 -15.4477 -5.0241 -4.5785 0.0000 39.3394 0.0000
# 6 0.0000 0.0000 0.0000 4.7661 0.0000 19.3061
#
#
#
# Elastic Compliance Matrix: (Units=1/GPa)
#
#
# Indices 1 2 3 4 5 6 
#
# 1 0.017755 0.000064 0.000057 0.000000 0.006987 0.000000
# 2 0.000064 0.020319 -0.004984 0.000000 0.002040 0.000000
# 3 0.000057 -0.004984 0.022301 0.000000 0.001981 0.000000
# 4 0.000000 0.000000 0.000000 0.066520 0.000000 -0.016422
# 5 0.006987 0.002040 0.001981 0.000000 0.028655 0.000000
# 6 0.000000 0.000000 0.000000 -0.016422 0.000000 0.055851
#
#
# Mechanical properties :
#
#
# Convention : Reuss Voigt Hill
#
# Bulk Modulus (GPa) = 19.74407 21.58087 20.66247
# Shear Modulus (GPa) = 21.00762 24.80471 22.90616
#
# Velocity S-wave (km/s) = 3.10284 3.37162 3.24002
# Velocity P-wave (km/s) = 4.67818 5.00474 4.84422
#
# Compressibility (1/GPa) = 0.05064811
#
# Stress axis : x y z
#
# Youngs Moduli (GPa) = 56.32226 49.21578 44.84137
#
# Poissons Ratio (x) = -0.00316 -0.00256
# Poissons Ratio (y) = -0.00362 0.22351
# Poissons Ratio (z) = -0.00321 0.24531
#
# Static dielectric constant tensor:
#      x y z
#    x 1.838260 0.000000 0.031540 
#    y 0.000000 1.862440 0.000000 
#    z 0.031540 0.000000 1.958820 
# 
# From -- ./inp_files/121996.got.cif
#   From: 2010.05.17/outbox.cif.g08.bks.cpg/sg15_61_cif.got.tgz:121996.got - 2010.06.03 18:47:42.
