data_PCOD9293356
_publ_section_title
;
Structure prediction by ZEFSAII (Michael W. Deem and Ramdas Pophale) SiO2 
 PCOD9293356
Probable space group: C 2/C
;
_chemical_formula_sum "Si O2"
_cell_formula_units_Z 60
_cell_length_a 17.563665
_cell_length_b 25.430062
_cell_length_c 12.527704
_cell_angle_alpha 90.000000
_cell_angle_beta 150.794536
_cell_angle_gamma 90.000000
_cell_volume 2730.254007
_symmetry_space_group_name_H-M "C 2/C"
_symmetry_group_IT_number 15
_symmetry_cell_setting 'monoclinic'
loop_
_space_group_symop_operation_xyz
x,y,z
-x,y,1/2-z
-x,-y,-z
x,-y,1/2+z
1/2+x,1/2+y,z
1/2-x,1/2+y,1/2-z
1/2-x,1/2-y,-z
1/2+x,1/2-y,1/2+z
loop_
_atom_site_type_symbol
_atom_site_label
_atom_site_fract_x
_atom_site_fract_y
_atom_site_fract_z
Si Si1 0.820876 0.499955 0.247829
Si Si2 0.407397 0.292202 0.741083
Si Si3 0.100933 0.326659 0.265549
Si Si4 0.314760 0.448741 0.209030
Si Si5 0.582404 0.626983 0.086377
Si Si6 0.500000 0.893097 0.750000
Si Si7 0.143405 0.947979 0.852890
Si Si8 0.373210 0.123349 0.315816
O O1 0.715535 0.474745 0.212152
O O2 0.804871 0.563260 0.217562
O O3 0.000000 0.500000 0.500000
O O4 0.789679 0.461768 0.108316
O O5 0.500000 0.278937 0.750000
O O6 0.272932 0.330550 0.527681
O O7 0.378557 0.233802 0.751685
O O8 0.487466 0.326491 0.927994
O O9 0.000000 0.331489 0.250000
O O10 0.016106 0.363069 0.073186
O O11 0.437145 0.401872 0.357078
O O12 0.389964 0.493064 0.227581
O O13 0.144293 0.429272 0.964730
O O14 0.658655 0.584905 0.263085
O O15 0.720148 0.649516 0.181000
O O16 0.563075 0.862442 0.723348
O O17 0.000000 0.928207 0.750000
#
# Coordination Sequence:
#
# PCOD9293356 Si02
#       8
#     8   8   8   8   8   4   8   8
#     4  12  24  39  61  93 134 181 228 276 331 397
#     4  10  23  41  69 110 131 171 211 289 353 419
#     4  10  22  45  71 101 141 164 219 286 363 403
#     4  12  24  43  60  95 135 187 228 279 330 401
#     4  12  25  39  69  98 133 178 232 277 351 404
#     4  12  28  44  62  92 136 184 232 274 334 406
#     4  12  23  39  61  94 137 177 224 278 329 398
#     4  12  25  43  66  96 130 187 222 280 334 413
#
# _framework density 21.975978000000001
#
# number of rings (size 3 to 8) (size 9 to 14) (size 15 to 20)
#    0.000    0.533    6.667    1.600    3.733    0.000 
#    1.200    0.000    0.000    3.200    0.000    0.000 
#    0.000    0.000    0.000    0.000    0.000    0.000 
#
# Total GULP energy -167098.917122 kJ/mol
# GULP energy per Si atom -5569.963904 kJ/mol
# Density = 2.192596 g / cm^3
# Si number density = 21.975978 Si / 1000 Ang^3
#
#
#
# Elastic Constant Matrix: (Units=GPa)
#
#
# Indices 1 2 3 4 5 6 
#
# 1 104.8776 6.7288 18.0047 0.0000 -14.6825 0.0000
# 2 6.7288 39.6338 25.1004 0.0000 -3.0461 0.0000
# 3 18.0047 25.1004 113.7196 0.0000 1.5682 0.0000
# 4 0.0000 0.0000 0.0000 35.1021 0.0000 -0.2777
# 5 -14.6825 -3.0461 1.5682 0.0000 27.6712 0.0000
# 6 0.0000 0.0000 0.0000 -0.2777 0.0000 11.3598
#
#
#
# Elastic Compliance Matrix: (Units=1/GPa)
#
#
# Indices 1 2 3 4 5 6 
#
# 1 0.010645 -0.000292 -0.001700 0.000000 0.005713 0.000000
# 2 -0.000292 0.029701 -0.006558 0.000000 0.003486 0.000000
# 3 -0.001700 -0.006558 0.010541 0.000000 -0.002221 0.000000
# 4 0.000000 0.000000 0.000000 0.028494 0.000000 0.000696
# 5 0.005713 0.003486 -0.002221 0.000000 0.039679 0.000000
# 6 0.000000 0.000000 0.000000 0.000696 0.000000 0.088047
#
#
# Mechanical properties :
#
#
# Convention : Reuss Voigt Hill
#
# Bulk Modulus (GPa) = 29.59540 39.76651 34.68095
# Shear Modulus (GPa) = 21.23420 28.71974 24.97697
#
# Velocity S-wave (km/s) = 3.11182 3.61899 3.37494
# Velocity P-wave (km/s) = 5.13884 5.96636 5.56799
#
# Compressibility (1/GPa) = 0.03378904
#
# Stress axis : x y z
#
# Youngs Moduli (GPa) = 93.93908 33.66835 94.87011
#
# Poissons Ratio (x) = 0.00982 0.16126
# Poissons Ratio (y) = 0.02741 0.62213
# Poissons Ratio (z) = 0.15968 0.22079
#
# Static dielectric constant tensor:
#      x y z
#    x 1.861900 0.000000 0.007850 
#    y 0.000000 1.909200 0.000000 
#    z 0.007850 0.000000 1.889290 
# 
# From -- ./inp_files/108449.got.cif
#   From: 2010.05.17/outbox.cif.g08.bks.cpg/sg15_55_cif.got.tgz:108449.got - 2010.06.03 18:47:42.
