data_PCOD9293856
_publ_section_title
;
Structure prediction by ZEFSAII (Michael W. Deem and Ramdas Pophale) SiO2 
 PCOD9293856
Probable space group: C 2/C
;
_chemical_formula_sum "Si O2"
_cell_formula_units_Z 60
_cell_length_a 21.885085
_cell_length_b 13.629508
_cell_length_c 28.210007
_cell_angle_alpha 90.000000
_cell_angle_beta 161.460726
_cell_angle_gamma 90.000000
_cell_volume 2675.449456
_symmetry_space_group_name_H-M "C 2/C"
_symmetry_group_IT_number 15
_symmetry_cell_setting 'monoclinic'
loop_
_space_group_symop_operation_xyz
x,y,z
-x,y,1/2-z
-x,-y,-z
x,-y,1/2+z
1/2+x,1/2+y,z
1/2-x,1/2+y,1/2-z
1/2-x,1/2-y,-z
1/2+x,1/2-y,1/2+z
loop_
_atom_site_type_symbol
_atom_site_label
_atom_site_fract_x
_atom_site_fract_y
_atom_site_fract_z
Si Si1 0.144086 0.359619 0.224635
Si Si2 0.816835 0.342689 0.403583
Si Si3 0.630487 0.452976 0.744966
Si Si4 0.587722 0.219988 0.025848
Si Si5 0.000000 0.017687 0.250000
Si Si6 0.868672 0.342281 0.697817
Si Si7 0.926984 0.439393 0.569112
Si Si8 0.487345 0.533349 0.935386
O O1 0.257103 0.303315 0.348900
O O2 0.304648 0.394125 0.304881
O O3 0.032588 0.457937 0.156820
O O4 0.994902 0.289915 0.087453
O O5 0.687162 0.431972 0.290168
O O6 0.700867 0.269201 0.351832
O O7 0.974963 0.397297 0.552493
O O8 0.911772 0.275090 0.433345
O O9 0.813094 0.383358 0.886920
O O10 0.513601 0.430322 0.707967
O O11 0.546105 0.450171 0.629539
O O12 0.199923 0.959583 0.401572
O O13 0.680257 0.410062 0.562918
O O14 0.000000 0.365974 0.750000
O O15 0.000841 0.362075 0.840318
O O16 0.500000 0.500000 0.000000
#
# Coordination Sequence:
#
# PCOD9293856 Si02
#       8
#     8   8   8   8   4   8   8   8
#     4  12  25  45  72 108 142 189 255 319 374 437
#     4  11  24  40  68 102 141 195 233 295 363 452
#     4  11  24  44  73  99 144 193 250 303 378 458
#     4  12  25  43  73 104 139 190 257 313 374 434
#     4  10  22  48  74  98 136 200 238 304 386 464
#     4  12  28  43  69 114 152 193 238 299 374 466
#     4  11  25  47  69  97 147 189 244 299 373 446
#     4  12  25  44  72 108 152 200 247 312 378 437
#
# _framework density 22.426138999999999
#
# number of rings (size 3 to 8) (size 9 to 14) (size 15 to 20)
#    0.000    0.533    6.667    2.000    9.333    0.533 
#    0.000    0.667    1.467    0.000    0.000    0.000 
#    0.000    0.000    0.000    0.000    0.000    0.000 
#
# Total GULP energy -167528.254313 kJ/mol
# GULP energy per Si atom -5584.275144 kJ/mol
# Density = 2.237510 g / cm^3
# Si number density = 22.426139 Si / 1000 Ang^3
#
#
#
# Elastic Constant Matrix: (Units=GPa)
#
#
# Indices 1 2 3 4 5 6 
#
# 1 94.1579 10.7196 21.6761 0.0036 -6.2261 0.0003
# 2 10.7196 73.0370 29.9000 0.0055 0.3195 0.0000
# 3 21.6761 29.9000 98.4377 -0.0150 -1.3633 -0.0059
# 4 0.0036 0.0055 -0.0150 31.1941 -0.0033 -4.8335
# 5 -6.2261 0.3195 -1.3633 -0.0033 48.6917 0.0014
# 6 0.0003 0.0000 -0.0059 -4.8335 0.0014 26.7894
#
#
#
# Elastic Compliance Matrix: (Units=1/GPa)
#
#
# Indices 1 2 3 4 5 6 
#
# 1 0.011314 -0.000748 -0.002245 -0.000002 0.001389 -0.000001
# 2 -0.000748 0.015688 -0.004605 -0.000005 -0.000327 -0.000002
# 3 -0.002245 -0.004605 0.012053 0.000008 0.000081 0.000004
# 4 -0.000002 -0.000005 0.000008 0.032979 0.000002 0.005950
# 5 0.001389 -0.000327 0.000081 0.000002 0.020719 -0.000001
# 6 -0.000001 -0.000002 0.000004 0.005950 -0.000001 0.038402
#
#
# Mechanical properties :
#
#
# Convention : Reuss Voigt Hill
#
# Bulk Modulus (GPa) = 41.91157 43.35824 42.63491
# Shear Modulus (GPa) = 32.40346 34.89084 33.64715
#
# Velocity S-wave (km/s) = 3.80530 3.94866 3.87764
# Velocity P-wave (km/s) = 6.16737 6.33758 6.25305
#
# Compressibility (1/GPa) = 0.02385976
#
# Stress axis : x y z
#
# Youngs Moduli (GPa) = 88.38421 63.74266 82.96693
#
# Poissons Ratio (x) = 0.04765 0.18627
# Poissons Ratio (y) = 0.06607 0.38207
# Poissons Ratio (z) = 0.19843 0.29354
#
# Static dielectric constant tensor:
#      x y z
#    x 1.928600 0.000000 -0.030670 
#    y 0.000000 1.853490 -0.000010 
#    z -0.030670 -0.000010 1.853370 
# 
# From -- ./inp_files/301198.got.cif
#   From: 2010.05.17/outbox.cif.g08.bks.cpg/sg15_151_cif.got.tgz:301198.got - 2010.06.03 18:47:42.
