data_PCOD9293147
_publ_section_title
;
Structure prediction by ZEFSAII (Michael W. Deem and Ramdas Pophale) SiO2 
 PCOD9293147
Probable space group: C 2/C
;
_chemical_formula_sum "Si O2"
_cell_formula_units_Z 44
_cell_length_a 25.727749
_cell_length_b 9.013084
_cell_length_c 20.059971
_cell_angle_alpha 90.000000
_cell_angle_beta 159.023030
_cell_angle_gamma 90.000000
_cell_volume 1665.250767
_symmetry_space_group_name_H-M "C 2/C"
_symmetry_group_IT_number 15
_symmetry_cell_setting 'monoclinic'
loop_
_space_group_symop_operation_xyz
x,y,z
-x,y,1/2-z
-x,-y,-z
x,-y,1/2+z
1/2+x,1/2+y,z
1/2-x,1/2+y,1/2-z
1/2-x,1/2-y,-z
1/2+x,1/2-y,1/2+z
loop_
_atom_site_type_symbol
_atom_site_label
_atom_site_fract_x
_atom_site_fract_y
_atom_site_fract_z
Si Si1 0.775036 0.926416 0.035934
Si Si2 0.676032 0.933863 0.288941
Si Si3 0.549776 0.333801 0.688025
Si Si4 0.087804 0.848451 0.107838
Si Si5 0.000000 0.384369 0.250000
Si Si6 0.393950 0.900423 0.442920
O O1 0.782375 0.987232 0.968092
O O2 0.637197 0.006837 0.904961
O O3 0.750000 0.750000 0.000000
O O4 0.905874 0.000997 0.235716
O O5 0.679143 0.757293 0.305408
O O6 0.670932 0.969576 0.204002
O O7 0.515311 0.992819 0.117825
O O8 0.421545 0.310459 0.481761
O O9 0.518281 0.234164 0.713042
O O10 0.257903 0.861813 0.326380
O O11 0.992020 0.738204 0.036936
O O12 0.000000 0.000000 0.000000
#
# Coordination Sequence:
#
# PCOD9293147 Si02
#       6
#     8   8   8   8   4   8
#     4  11  25  44  67 113 144 186 244 321 386 441
#     4   9  21  45  70  93 145 197 247 308 367 459
#     4  10  24  43  72 101 139 201 248 300 381 463
#     4  11  27  42  74 107 150 196 256 319 385 460
#     4  10  22  44  74  96 142 200 242 302 364 476
#     4  10  24  45  68 105 141 202 251 310 377 448
#
# _framework density 26.422446000000001
#
# number of rings (size 3 to 8) (size 9 to 14) (size 15 to 20)
#    0.000    1.818    0.000    2.182   17.818    2.182 
#    0.000    0.000    0.000    0.000    0.000    0.000 
#    0.000    0.000    0.000    0.000    0.000    0.000 
#
# Total GULP energy -122938.410146 kJ/mol
# GULP energy per Si atom -5588.109552 kJ/mol
# Density = 2.636231 g / cm^3
# Si number density = 26.422446 Si / 1000 Ang^3
#
#
#
# Elastic Constant Matrix: (Units=GPa)
#
#
# Indices 1 2 3 4 5 6 
#
# 1 65.9525 14.7005 24.5967 0.0000 1.9315 0.0000
# 2 14.7005 170.8648 36.1844 0.0000 5.5504 0.0000
# 3 24.5967 36.1844 94.2208 0.0000 28.6127 0.0000
# 4 0.0000 0.0000 0.0000 45.5994 0.0000 -9.4344
# 5 1.9315 5.5504 28.6127 0.0000 62.5777 0.0000
# 6 0.0000 0.0000 0.0000 -9.4344 0.0000 33.3511
#
#
#
# Elastic Compliance Matrix: (Units=1/GPa)
#
#
# Indices 1 2 3 4 5 6 
#
# 1 0.017001 -0.000510 -0.004757 0.000000 0.001696 0.000000
# 2 -0.000510 0.006408 -0.002508 0.000000 0.000594 0.000000
# 3 -0.004757 -0.002508 0.014755 0.000000 -0.006377 0.000000
# 4 0.000000 0.000000 0.000000 0.023293 0.000000 0.006589
# 5 0.001696 0.000594 -0.006377 0.000000 0.018791 0.000000
# 6 0.000000 0.000000 0.000000 0.006589 0.000000 0.031848
#
#
# Mechanical properties :
#
#
# Convention : Reuss Voigt Hill
#
# Bulk Modulus (GPa) = 44.22267 53.55570 48.88918
# Shear Modulus (GPa) = 36.98628 45.34274 41.16451
#
# Velocity S-wave (km/s) = 3.74546 4.14704 3.95135
# Velocity P-wave (km/s) = 5.95632 6.57599 6.27381
#
# Compressibility (1/GPa) = 0.02261283
#
# Stress axis : x y z
#
# Youngs Moduli (GPa) = 58.82141 156.04594 67.77327
#
# Poissons Ratio (x) = 0.07964 0.32240
# Poissons Ratio (y) = 0.03002 0.16999
# Poissons Ratio (z) = 0.27981 0.39141
#
# Static dielectric constant tensor:
#      x y z
#    x 2.267320 0.000000 -0.071610 
#    y 0.000000 2.137080 0.000000 
#    z -0.071610 0.000000 2.222610 
# 
# From -- ./inp_files/284475.got.cif
#   From: 2010.05.17/outbox.cif.g08.bks.cpg/sg15_143_cif.got.tgz:284475.got - 2010.06.03 18:47:42.
