data_PCOD9293070
_publ_section_title
;
Structure prediction by ZEFSAII (Michael W. Deem and Ramdas Pophale) SiO2 
 PCOD9293070
Probable space group: C 2/C
;
_chemical_formula_sum "Si O2"
_cell_formula_units_Z 44
_cell_length_a 10.616175
_cell_length_b 13.144862
_cell_length_c 14.123823
_cell_angle_alpha 90.000000
_cell_angle_beta 97.077220
_cell_angle_gamma 90.000000
_cell_volume 1955.936755
_symmetry_space_group_name_H-M "C 2/C"
_symmetry_group_IT_number 15
_symmetry_cell_setting 'monoclinic'
loop_
_space_group_symop_operation_xyz
x,y,z
-x,y,1/2-z
-x,-y,-z
x,-y,1/2+z
1/2+x,1/2+y,z
1/2-x,1/2+y,1/2-z
1/2-x,1/2-y,-z
1/2+x,1/2-y,1/2+z
loop_
_atom_site_type_symbol
_atom_site_label
_atom_site_fract_x
_atom_site_fract_y
_atom_site_fract_z
Si Si1 0.500000 0.351963 0.750000
Si Si2 0.716960 0.909046 0.386986
Si Si3 0.907470 0.387575 0.656616
Si Si4 0.533981 0.826715 0.041671
Si Si5 0.055386 0.899923 0.958082
Si Si6 0.268201 0.209393 0.798390
O O1 0.549277 0.412951 0.844879
O O2 0.382661 0.281924 0.772088
O O3 0.578483 0.865639 0.401197
O O4 0.806733 0.885319 0.483495
O O5 0.765918 0.858663 0.294835
O O6 0.701255 0.028468 0.367008
O O7 0.974867 0.377629 0.561536
O O8 0.845332 0.280341 0.678119
O O9 0.000000 0.419968 0.750000
O O10 0.519118 0.705079 0.027563
O O11 0.667138 0.848025 0.106876
O O12 0.000000 0.000000 0.000000
#
# Coordination Sequence:
#
# PCOD9293070 Si02
#       6
#     4   8   8   8   8   8
#     4  10  22  44  72  90 134 174 230 272 338 404
#     4  12  23  44  74  96 135 185 227 276 342 414
#     4  12  27  42  65 105 141 174 228 284 343 402
#     4  11  23  46  67 101 137 174 229 281 343 406
#     4  11  24  44  67 101 134 179 231 273 340 404
#     4  11  22  45  71  99 134 177 224 284 336 410
#
# _framework density 22.495614
#
# number of rings (size 3 to 8) (size 9 to 14) (size 15 to 20)
#    0.000    0.727    3.636    6.000    2.545    0.000 
#   11.455    0.000    0.000    0.000    0.000    0.000 
#    0.000    0.000    0.000    0.000    0.000    0.000 
#
# Total GULP energy -123135.249508 kJ/mol
# GULP energy per Si atom -5597.056796 kJ/mol
# Density = 2.244441 g / cm^3
# Si number density = 22.495614 Si / 1000 Ang^3
#
#
#
# Elastic Constant Matrix: (Units=GPa)
#
#
# Indices 1 2 3 4 5 6 
#
# 1 27.1300 -10.5512 12.6559 0.0000 11.8160 0.0000
# 2 -10.5512 63.5576 32.3047 0.0000 -1.3072 0.0000
# 3 12.6559 32.3047 185.5195 0.0000 26.3630 0.0000
# 4 0.0000 0.0000 0.0000 12.9173 0.0000 5.6791
# 5 11.8160 -1.3072 26.3630 0.0000 41.6719 0.0000
# 6 0.0000 0.0000 0.0000 5.6791 0.0000 31.3097
#
#
#
# Elastic Compliance Matrix: (Units=1/GPa)
#
#
# Indices 1 2 3 4 5 6 
#
# 1 0.046682 0.009168 -0.003231 0.000000 -0.010905 0.000000
# 2 0.009168 0.019340 -0.004076 0.000000 0.000586 0.000000
# 3 -0.003231 -0.004076 0.006822 0.000000 -0.003527 0.000000
# 4 0.000000 0.000000 0.000000 0.084124 0.000000 -0.015259
# 5 -0.010905 0.000586 -0.003527 0.000000 0.029339 0.000000
# 6 0.000000 0.000000 0.000000 -0.015259 0.000000 0.034707
#
#
# Mechanical properties :
#
#
# Convention : Reuss Voigt Hill
#
# Bulk Modulus (GPa) = 13.06109 38.33621 25.69865
# Shear Modulus (GPa) = 20.59192 33.29962 26.94577
#
# Velocity S-wave (km/s) = 3.02880 3.85160 3.46471
# Velocity P-wave (km/s) = 4.24855 6.07111 5.23968
#
# Compressibility (1/GPa) = 0.07656328
#
# Stress axis : x y z
#
# Youngs Moduli (GPa) = 21.42168 51.70726 146.58960
#
# Poissons Ratio (x) = -0.47404 0.47368
# Poissons Ratio (y) = -0.19639 0.59755
# Poissons Ratio (z) = 0.06922 0.21078
#
# Static dielectric constant tensor:
#      x y z
#    x 1.821780 0.000000 0.028640 
#    y 0.000000 1.832800 0.000000 
#    z 0.028640 0.000000 1.845870 
# 
# From -- ./inp_files/86153.got.cif
#   From: 2010.05.17/outbox.cif.g08.bks.cpg/sg15_44_cif.got.tgz:86153.got - 2010.06.03 18:47:42.
