data_PCOD9293135
_publ_section_title
;
Structure prediction by ZEFSAII (Michael W. Deem and Ramdas Pophale) SiO2 
 PCOD9293135
Probable space group: C 2/C
;
_chemical_formula_sum "Si O2"
_cell_formula_units_Z 40
_cell_length_a 5.201072
_cell_length_b 13.165936
_cell_length_c 22.818768
_cell_angle_alpha 90.000000
_cell_angle_beta 75.740171
_cell_angle_gamma 90.000000
_cell_volume 1514.415780
_symmetry_space_group_name_H-M "C 2/C"
_symmetry_group_IT_number 15
_symmetry_cell_setting 'monoclinic'
loop_
_space_group_symop_operation_xyz
x,y,z
-x,y,1/2-z
-x,-y,-z
x,-y,1/2+z
1/2+x,1/2+y,z
1/2-x,1/2+y,1/2-z
1/2-x,1/2-y,-z
1/2+x,1/2-y,1/2+z
loop_
_atom_site_type_symbol
_atom_site_label
_atom_site_fract_x
_atom_site_fract_y
_atom_site_fract_z
Si Si1 0.694527 0.171342 0.289214
Si Si2 0.562043 0.559199 0.567675
Si Si3 0.741584 0.551628 0.692014
Si Si4 0.486739 0.327649 0.968250
Si Si5 0.105987 0.303868 0.127637
O O1 0.500000 0.209587 0.250000
O O2 0.688049 0.233139 0.349773
O O3 0.000000 0.164936 0.250000
O O4 0.615505 0.055516 0.307442
O O5 0.657180 0.562017 0.628857
O O6 0.596301 0.442808 0.545803
O O7 0.674599 0.639827 0.512843
O O8 0.260293 0.603151 0.587510
O O9 0.500000 0.556710 0.750000
O O10 0.940636 0.643308 0.687631
O O11 0.566583 0.269480 0.904275
O O12 0.250000 0.250000 0.000000
#
# Coordination Sequence:
#
# PCOD9293135 Si02
#       5
#     8   8   8   8   8
#     4  11  28  48  72 108 156 203 256 314 382 464
#     4  10  22  44  74 106 152 191 257 316 380 457
#     4  11  27  46  72 112 155 202 255 321 383 468
#     4   9  20  46  74 107 147 197 254 318 384 454
#     4  11  25  44  74 104 148 200 256 314 391 454
#
# _framework density 26.412825999999999
#
# number of rings (size 3 to 8) (size 9 to 14) (size 15 to 20)
#    0.000    1.600    2.000    0.000   11.200    0.800 
#    0.000    9.000    0.000    0.000    0.000    0.000 
#    0.000    0.000    0.000    0.000    0.000    0.000 
#
# Total GULP energy -111797.516667 kJ/mol
# GULP energy per Si atom -5589.875833 kJ/mol
# Density = 2.635271 g / cm^3
# Si number density = 26.412826 Si / 1000 Ang^3
#
#
#
# Elastic Constant Matrix: (Units=GPa)
#
#
# Indices 1 2 3 4 5 6 
#
# 1 72.0148 34.5147 32.5383 0.0000 13.0697 0.0000
# 2 34.5147 214.4952 66.1668 0.0000 -3.7490 0.0000
# 3 32.5383 66.1668 138.5801 0.0000 37.4581 0.0000
# 4 0.0000 0.0000 0.0000 51.1901 0.0000 -10.1238
# 5 13.0697 -3.7490 37.4581 0.0000 47.4514 0.0000
# 6 0.0000 0.0000 0.0000 -10.1238 0.0000 22.0486
#
#
#
# Elastic Compliance Matrix: (Units=1/GPa)
#
#
# Indices 1 2 3 4 5 6 
#
# 1 0.016344 -0.002058 -0.002026 0.000000 -0.003065 0.000000
# 2 -0.002058 0.006129 -0.003467 0.000000 0.003788 0.000000
# 3 -0.002026 -0.003467 0.011785 0.000000 -0.009019 0.000000
# 4 0.000000 0.000000 0.000000 0.021486 0.000000 0.009866
# 5 -0.003065 0.003788 -0.009019 0.000000 0.029337 0.000000
# 6 0.000000 0.000000 0.000000 0.009866 0.000000 0.049884
#
#
# Mechanical properties :
#
#
# Convention : Reuss Voigt Hill
#
# Bulk Modulus (GPa) = 52.20629 76.83663 64.52146
# Shear Modulus (GPa) = 31.95825 43.59606 37.77715
#
# Velocity S-wave (km/s) = 3.48221 4.06712 3.78598
# Velocity P-wave (km/s) = 5.99801 7.15605 6.60247
#
# Compressibility (1/GPa) = 0.01915478
#
# Stress axis : x y z
#
# Youngs Moduli (GPa) = 61.18309 163.15816 84.85407
#
# Poissons Ratio (x) = 0.33586 0.17194
# Poissons Ratio (y) = 0.12594 0.29418
# Poissons Ratio (z) = 0.12398 0.56566
#
# Static dielectric constant tensor:
#      x y z
#    x 2.164050 0.000000 -0.012590 
#    y 0.000000 2.010100 0.000000 
#    z -0.012590 0.000000 2.231140 
# 
# From -- ./inp_files/260128.got.cif
#   From: 2010.05.17/outbox.cif.g08.bks.cpg/sg15_131_cif.got.tgz:260128.got - 2010.06.03 18:47:42.
