data_PCOD9293245
_publ_section_title
;
Structure prediction by ZEFSAII (Michael W. Deem and Ramdas Pophale) SiO2 
 PCOD9293245
Probable space group: C 2/C
;
_chemical_formula_sum "Si O2"
_cell_formula_units_Z 44
_cell_length_a 19.910195
_cell_length_b 8.736461
_cell_length_c 13.030640
_cell_angle_alpha 90.000000
_cell_angle_beta 88.600722
_cell_angle_gamma 90.000000
_cell_volume 2265.934103
_symmetry_space_group_name_H-M "C 2/C"
_symmetry_group_IT_number 15
_symmetry_cell_setting 'monoclinic'
loop_
_space_group_symop_operation_xyz
x,y,z
-x,y,1/2-z
-x,-y,-z
x,-y,1/2+z
1/2+x,1/2+y,z
1/2-x,1/2+y,1/2-z
1/2-x,1/2-y,-z
1/2+x,1/2-y,1/2+z
loop_
_atom_site_type_symbol
_atom_site_label
_atom_site_fract_x
_atom_site_fract_y
_atom_site_fract_z
Si Si1 0.619641 0.334806 0.253304
Si Si2 0.818303 0.172336 0.962366
Si Si3 0.055941 0.355067 0.594122
Si Si4 0.680235 0.327560 0.470170
Si Si5 0.954075 0.714189 0.937187
Si Si6 0.000000 0.922796 0.750000
O O1 0.673082 0.365568 0.159378
O O2 0.575429 0.197135 0.207108
O O3 0.657988 0.293219 0.354793
O O4 0.566387 0.473116 0.263788
O O5 0.880384 0.291010 0.974752
O O6 0.821817 0.011001 0.019374
O O7 0.750000 0.250000 0.000000
O O8 0.044782 0.534975 0.589589
O O9 0.992891 0.270662 0.544450
O O10 0.750000 0.250000 0.500000
O O11 0.622083 0.264341 0.545592
O O12 0.988209 0.817656 0.849783
#
# Coordination Sequence:
#
# PCOD9293245 Si02
#       6
#     8   8   8   8   8   4
#     4  10  24  42  68  96 132 177 215 273 340 391
#     4  10  22  45  66  96 133 177 220 274 335 397
#     4   9  22  42  66  98 131 175 213 277 334 383
#     4  12  25  43  67  97 134 175 227 275 330 398
#     4  11  22  42  66 101 133 170 227 277 325 399
#     4  12  22  40  70 102 130 176 224 272 338 396
#
# _framework density 19.418040000000001
#
# number of rings (size 3 to 8) (size 9 to 14) (size 15 to 20)
#    1.091    0.364    1.818    3.273    0.000    7.273 
#    3.273    0.000    0.000    0.000    0.000    0.000 
#    0.000    0.000    0.000    0.000    0.000    0.000 
#
# Total GULP energy -122697.769674 kJ/mol
# GULP energy per Si atom -5577.171349 kJ/mol
# Density = 1.937384 g / cm^3
# Si number density = 19.418040 Si / 1000 Ang^3
#
#
#
# Elastic Constant Matrix: (Units=GPa)
#
#
# Indices 1 2 3 4 5 6 
#
# 1 133.1059 34.9506 44.9461 0.0000 -6.9894 0.0000
# 2 34.9506 81.7417 36.1073 0.0000 5.7216 0.0000
# 3 44.9461 36.1073 125.3650 0.0000 14.7892 0.0000
# 4 0.0000 0.0000 0.0000 27.8856 0.0000 -4.8400
# 5 -6.9894 5.7216 14.7892 0.0000 35.2680 0.0000
# 6 0.0000 0.0000 0.0000 -4.8400 0.0000 38.1611
#
#
#
# Elastic Compliance Matrix: (Units=1/GPa)
#
#
# Indices 1 2 3 4 5 6 
#
# 1 0.009492 -0.003002 -0.002964 0.000000 0.003611 0.000000
# 2 -0.003002 0.014979 -0.003031 0.000000 -0.001754 0.000000
# 3 -0.002964 -0.003031 0.010440 0.000000 -0.004474 0.000000
# 4 0.000000 0.000000 0.000000 0.036668 0.000000 0.004651
# 5 0.003611 -0.001754 -0.004474 0.000000 0.031231 0.000000
# 6 0.000000 0.000000 0.000000 0.004651 0.000000 0.026795
#
#
# Mechanical properties :
#
#
# Convention : Reuss Voigt Hill
#
# Bulk Modulus (GPa) = 59.11450 63.58008 61.34729
# Shear Modulus (GPa) = 32.62922 35.21016 33.91969
#
# Velocity S-wave (km/s) = 4.10366 4.26287 4.18402
# Velocity P-wave (km/s) = 7.27754 7.55270 7.41640
#
# Compressibility (1/GPa) = 0.01691632
#
# Stress axis : x y z
#
# Youngs Moduli (GPa) = 105.35625 66.76116 95.78282
#
# Poissons Ratio (x) = 0.20040 0.28394
# Poissons Ratio (y) = 0.31625 0.29033
# Poissons Ratio (z) = 0.31232 0.20236
#
# Static dielectric constant tensor:
#      x y z
#    x 1.690620 0.000000 -0.014830 
#    y 0.000000 1.694080 0.000000 
#    z -0.014830 0.000000 1.696860 
# 
# From -- ./inp_files/110102.got.cif
#   From: 2010.05.17/outbox.cif.g08.bks.cpg/sg15_56_cif.got.tgz:110102.got - 2010.06.03 18:47:42.
