data_PCOD9293664
_publ_section_title
;
Structure prediction by ZEFSAII (Michael W. Deem and Ramdas Pophale) SiO2 
 PCOD9293664
Probable space group: C 2/C
;
_chemical_formula_sum "Si O2"
_cell_formula_units_Z 40
_cell_length_a 12.334103
_cell_length_b 7.665698
_cell_length_c 21.904446
_cell_angle_alpha 90.000000
_cell_angle_beta 52.864974
_cell_angle_gamma 90.000000
_cell_volume 1651.075856
_symmetry_space_group_name_H-M "C 2/C"
_symmetry_group_IT_number 15
_symmetry_cell_setting 'monoclinic'
loop_
_space_group_symop_operation_xyz
x,y,z
-x,y,1/2-z
-x,-y,-z
x,-y,1/2+z
1/2+x,1/2+y,z
1/2-x,1/2+y,1/2-z
1/2-x,1/2-y,-z
1/2+x,1/2-y,1/2+z
loop_
_atom_site_type_symbol
_atom_site_label
_atom_site_fract_x
_atom_site_fract_y
_atom_site_fract_z
Si Si1 0.400640 0.128291 0.178067
Si Si2 0.830472 0.040029 0.423538
Si Si3 0.179720 0.442920 0.098236
Si Si4 0.853050 0.930037 0.289706
Si Si5 0.575245 0.548739 0.911717
O O1 0.024245 0.499489 0.151098
O O2 0.261711 0.033745 0.207447
O O3 0.382231 0.259405 0.240619
O O4 0.436534 0.252455 0.107712
O O5 0.795826 0.234753 0.414220
O O6 0.745401 0.989366 0.512332
O O7 0.805906 0.909415 0.375958
O O8 0.988299 0.049561 0.390259
O O9 0.268955 0.495835 0.126666
O O10 0.000000 0.022259 0.250000
O O11 0.500000 0.500000 0.000000
#
# Coordination Sequence:
#
# PCOD9293664 Si02
#       5
#     8   8   8   8   8
#     4  12  28  46  72 105 146 200 235 297 367 428
#     4  10  22  49  75 105 144 183 245 304 358 431
#     4  10  24  47  77 107 140 187 243 308 359 419
#     4  12  28  50  67 106 148 193 247 290 363 441
#     4  10  22  46  72 107 142 180 240 302 358 427
#
# _framework density 24.226626
#
# number of rings (size 3 to 8) (size 9 to 14) (size 15 to 20)
#    0.000    1.200    4.000    0.000    2.800    7.200 
#    3.600    0.000    0.000    0.000    0.000    0.000 
#    0.000    0.000    0.000    0.000    0.000    0.000 
#
# Total GULP energy -111859.748179 kJ/mol
# GULP energy per Si atom -5592.987409 kJ/mol
# Density = 2.417149 g / cm^3
# Si number density = 24.226626 Si / 1000 Ang^3
#
#
#
# Elastic Constant Matrix: (Units=GPa)
#
#
# Indices 1 2 3 4 5 6 
#
# 1 203.6110 26.4059 51.5816 0.0000 10.9592 0.0000
# 2 26.4059 47.2608 29.0894 0.0000 4.0669 -0.0001
# 3 51.5816 29.0894 76.2875 0.0000 22.6122 0.0000
# 4 0.0000 0.0000 0.0000 42.8576 0.0000 -2.8087
# 5 10.9592 4.0669 22.6122 0.0000 45.5201 0.0000
# 6 0.0000 -0.0001 0.0000 -2.8087 0.0000 39.9528
#
#
#
# Elastic Compliance Matrix: (Units=1/GPa)
#
#
# Indices 1 2 3 4 5 6 
#
# 1 0.005982 -0.001046 -0.003808 0.000000 0.000545 0.000000
# 2 -0.001046 0.028246 -0.011011 0.000000 0.003198 0.000000
# 3 -0.003808 -0.011011 0.022654 0.000000 -0.009353 0.000000
# 4 0.000000 0.000000 0.000000 0.023441 0.000000 0.001648
# 5 0.000545 0.003198 -0.009353 0.000000 0.026198 0.000000
# 6 0.000000 0.000000 0.000000 0.001648 0.000000 0.025145
#
#
# Mechanical properties :
#
#
# Convention : Reuss Voigt Hill
#
# Bulk Modulus (GPa) = 39.75735 60.14591 49.95163
# Shear Modulus (GPa) = 29.10710 40.33824 34.72267
#
# Velocity S-wave (km/s) = 3.46996 4.08491 3.78993
# Velocity P-wave (km/s) = 5.70091 6.86505 6.30989
#
# Compressibility (1/GPa) = 0.02515258
#
# Stress axis : x y z
#
# Youngs Moduli (GPa) = 167.16240 35.40339 44.14275
#
# Poissons Ratio (x) = 0.03702 0.16807
# Poissons Ratio (y) = 0.17481 0.48607
# Poissons Ratio (z) = 0.63647 0.38984
#
# Static dielectric constant tensor:
#      x y z
#    x 1.934140 0.000000 -0.022590 
#    y 0.000000 1.915920 0.000000 
#    z -0.022590 0.000000 1.983410 
# 
# From -- ./inp_files/241736.got.cif
#   From: 2010.05.17/outbox.cif.g08.bks.cpg/sg15_121_cif.got.tgz:241736.got - 2010.06.03 18:47:42.
