data_PCOD9293969
_publ_section_title
;
Structure prediction by ZEFSAII (Michael W. Deem and Ramdas Pophale) SiO2 
 PCOD9293969
Probable space group: C 2/C
;
_chemical_formula_sum "Si O2"
_cell_formula_units_Z 40
_cell_length_a 14.276591
_cell_length_b 12.894779
_cell_length_c 11.819808
_cell_angle_alpha 90.000000
_cell_angle_beta 61.831425
_cell_angle_gamma 90.000000
_cell_volume 1918.235617
_symmetry_space_group_name_H-M "C 2/C"
_symmetry_group_IT_number 15
_symmetry_cell_setting 'monoclinic'
loop_
_space_group_symop_operation_xyz
x,y,z
-x,y,1/2-z
-x,-y,-z
x,-y,1/2+z
1/2+x,1/2+y,z
1/2-x,1/2+y,1/2-z
1/2-x,1/2-y,-z
1/2+x,1/2-y,1/2+z
loop_
_atom_site_type_symbol
_atom_site_label
_atom_site_fract_x
_atom_site_fract_y
_atom_site_fract_z
Si Si1 0.126362 0.102736 0.835883
Si Si2 0.226560 0.592642 0.958270
Si Si3 0.230161 0.128004 0.019508
Si Si4 0.080404 0.216481 0.542288
Si Si5 0.919527 0.875651 0.697634
O O1 0.230803 0.102976 0.696267
O O2 0.040109 0.190733 0.852265
O O3 0.065887 0.994314 0.848524
O O4 0.156694 0.109494 0.950459
O O5 0.198950 0.476971 0.017255
O O6 0.333495 0.632912 0.961225
O O7 0.131673 0.672251 0.036952
O O8 0.188508 0.122130 0.171756
O O9 0.250000 0.250000 0.000000
O O10 0.078317 0.199095 0.408719
O O11 0.000000 0.844928 0.750000
#
# Coordination Sequence:
#
# PCOD9293969 Si02
#       5
#     8   8   8   8   8
#     4  11  20  37  61  90 121 158 207 254 306 365
#     4  10  23  37  60  92 123 156 203 255 312 363
#     4  11  22  38  59  86 124 166 207 250 305 372
#     4  11  20  38  61  91 122 150 202 263 308 360
#     4  11  20  34  62  89 113 154 209 254 304 358
#
# _framework density 20.852494
#
# number of rings (size 3 to 8) (size 9 to 14) (size 15 to 20)
#    0.000    1.200    4.000    4.800    0.000    0.000 
#    0.000    1.000    0.000    0.000    0.000    0.000 
#    0.000    0.000    0.000    0.000    0.000    0.000 
#
# Total GULP energy -111347.695737 kJ/mol
# GULP energy per Si atom -5567.384787 kJ/mol
# Density = 2.080503 g / cm^3
# Si number density = 20.852494 Si / 1000 Ang^3
#
#
#
# Elastic Constant Matrix: (Units=GPa)
#
#
# Indices 1 2 3 4 5 6 
#
# 1 33.6157 33.0814 9.8700 0.0000 5.7440 0.0000
# 2 33.0814 156.1452 16.7579 0.0000 -10.0019 0.0000
# 3 9.8700 16.7579 64.3828 0.0000 14.7005 0.0000
# 4 0.0000 0.0000 0.0000 17.2582 0.0000 9.9626
# 5 5.7440 -10.0019 14.7005 0.0000 31.9559 0.0000
# 6 0.0000 0.0000 0.0000 9.9626 0.0000 19.6352
#
#
#
# Elastic Compliance Matrix: (Units=1/GPa)
#
#
# Indices 1 2 3 4 5 6 
#
# 1 0.040765 -0.009047 -0.001760 0.000000 -0.009349 0.000000
# 2 -0.009047 0.008900 -0.002164 0.000000 0.005407 0.000000
# 3 -0.001760 -0.002164 0.018378 0.000000 -0.008815 0.000000
# 4 0.000000 0.000000 0.000000 0.081945 0.000000 -0.041578
# 5 -0.009349 0.005407 -0.008815 0.000000 0.038721 0.000000
# 6 0.000000 0.000000 0.000000 -0.041578 0.000000 0.072025
#
#
# Mechanical properties :
#
#
# Convention : Reuss Voigt Hill
#
# Bulk Modulus (GPa) = 23.75225 41.50690 32.62958
# Shear Modulus (GPa) = 16.62738 26.73215 21.67977
#
# Velocity S-wave (km/s) = 2.82686 3.58434 3.22789
# Velocity P-wave (km/s) = 4.69789 6.08919 5.43821
#
# Compressibility (1/GPa) = 0.04210128
#
# Stress axis : x y z
#
# Youngs Moduli (GPa) = 24.53076 112.36514 54.41288
#
# Poissons Ratio (x) = 1.01652 0.09576
# Poissons Ratio (y) = 0.22192 0.11776
# Poissons Ratio (z) = 0.04317 0.24318
#
# Static dielectric constant tensor:
#      x y z
#    x 1.773600 0.000000 0.163980 
#    y 0.000000 1.918930 0.000000 
#    z 0.163980 0.000000 -2.874130 
# 
# From -- ./inp_files/94901.got.cif
#   From: 2010.05.17/outbox.cif.g08.bks.cpg/sg15_48_cif.got.tgz:94901.got - 2010.06.03 18:47:42.
