data_PCOD9293550
_publ_section_title
;
Structure prediction by ZEFSAII (Michael W. Deem and Ramdas Pophale) SiO2 
 PCOD9293550
Probable space group: C 2/C
;
_chemical_formula_sum "Si O2"
_cell_formula_units_Z 52
_cell_length_a 5.415663
_cell_length_b 18.064895
_cell_length_c 21.545705
_cell_angle_alpha 90.000000
_cell_angle_beta 67.257209
_cell_angle_gamma 90.000000
_cell_volume 1944.000033
_symmetry_space_group_name_H-M "C 2/C"
_symmetry_group_IT_number 15
_symmetry_cell_setting 'monoclinic'
loop_
_space_group_symop_operation_xyz
x,y,z
-x,y,1/2-z
-x,-y,-z
x,-y,1/2+z
1/2+x,1/2+y,z
1/2-x,1/2+y,1/2-z
1/2-x,1/2-y,-z
1/2+x,1/2-y,1/2+z
loop_
_atom_site_type_symbol
_atom_site_label
_atom_site_fract_x
_atom_site_fract_y
_atom_site_fract_z
Si Si1 0.585279 0.052416 0.367103
Si Si2 0.500000 0.130655 0.250000
Si Si3 0.500000 0.526104 0.750000
Si Si4 0.165420 0.138675 0.820872
Si Si5 0.657522 0.797251 0.415854
Si Si6 0.000000 0.229730 0.250000
Si Si7 0.742771 0.578060 0.943694
Si Si8 0.215435 0.148630 0.461234
O O1 0.449282 0.078436 0.314982
O O2 0.515588 0.122939 0.415974
O O3 0.868340 0.024491 0.315184
O O4 0.461658 0.986006 0.419914
O O5 0.760904 0.180338 0.243643
O O6 0.712050 0.583146 0.759254
O O7 0.355375 0.210054 0.808950
O O8 0.157918 0.085348 0.880578
O O9 0.869516 0.174577 0.844959
O O10 0.391776 0.844390 0.441043
O O11 0.790556 0.817754 0.469490
O O12 0.626404 0.709777 0.420756
O O13 0.492286 0.580161 0.014731
#
# Coordination Sequence:
#
# PCOD9293550 Si02
#       8
#     8   4   4   8   8   4   8   8
#     4  12  25  46  71 104 151 198 249 315 386 471
#     4  12  29  49  70 115 159 204 260 322 396 465
#     4  12  24  48  74 110 154 210 262 312 386 480
#     4  11  24  42  76 101 146 196 256 313 382 466
#     4  10  22  46  68 104 140 186 251 317 382 456
#     4  12  27  47  76 113 153 208 262 330 392 463
#     4  11  23  44  70 105 139 195 247 315 389 467
#     4  10  24  43  70 104 139 186 250 316 389 452
#
# _framework density 26.74897
#
# number of rings (size 3 to 8) (size 9 to 14) (size 15 to 20)
#    0.000    0.923    1.538    4.615    4.308    0.615 
#    8.308    0.000    0.000    0.000    0.000    0.000 
#    0.000    0.000    0.000    0.000    0.000    0.000 
#
# Total GULP energy -145332.401862 kJ/mol
# GULP energy per Si atom -5589.707764 kJ/mol
# Density = 2.668809 g / cm^3
# Si number density = 26.748970 Si / 1000 Ang^3
#
#
#
# Elastic Constant Matrix: (Units=GPa)
#
#
# Indices 1 2 3 4 5 6 
#
# 1 97.6115 23.0846 0.9604 0.0000 -22.9841 0.0000
# 2 23.0846 109.0260 25.7543 0.0000 -20.0518 0.0000
# 3 0.9604 25.7543 80.4278 0.0000 -31.0460 0.0000
# 4 0.0000 0.0000 0.0000 -10.5141 0.0000 -19.6240
# 5 -22.9841 -20.0518 -31.0460 0.0000 31.3311 0.0000
# 6 0.0000 0.0000 0.0000 -19.6240 0.0000 35.2704
#
#
#
# Elastic Compliance Matrix: (Units=1/GPa)
#
#
# Indices 1 2 3 4 5 6 
#
# 1 0.014304 -0.001642 0.006477 0.000000 0.015861 0.000000
# 2 -0.001642 0.010660 -0.001984 0.000000 0.003652 0.000000
# 3 0.006477 -0.001984 0.023215 0.000000 0.026486 0.000000
# 4 0.000000 0.000000 0.000000 -0.046658 0.000000 -0.025960
# 5 0.015861 0.003652 0.026486 0.000000 0.072135 0.000000
# 6 0.000000 0.000000 0.000000 -0.025960 0.000000 0.013909
#
#
# Mechanical properties :
#
#
# Convention : Reuss Voigt Hill
#
# Bulk Modulus (GPa) = 18.55890 42.96264 30.76077
# Shear Modulus (GPa) = 50.08866 27.03520 38.56193
#
# Velocity S-wave (km/s) = 4.33199 3.18260 3.80099
# Velocity P-wave (km/s) = 5.65462 5.44073 5.54871
#
# Compressibility (1/GPa) = 0.05388252
#
# Stress axis : x y z
#
# Youngs Moduli (GPa) = 69.91092 93.80776 43.07475
#
# Poissons Ratio (x) = 0.15400 -0.27901
# Poissons Ratio (y) = 0.11477 0.08547
# Poissons Ratio (z) = -0.45284 0.18614
#
# Static dielectric constant tensor:
#      x y z
#    x 2.130820 0.000000 0.012690 
#    y 0.000000 2.152890 0.000000 
#    z 0.012690 0.000000 2.103250 
# 
# From -- ./inp_files/261333.got.cif
#   From: 2010.05.17/outbox.cif.g08.bks.cpg/sg15_131_cif.got.tgz:261333.got - 2010.06.03 18:47:42.
