data_PCOD9293149
_publ_section_title
;
Structure prediction by ZEFSAII (Michael W. Deem and Ramdas Pophale) SiO2 
 PCOD9293149
Probable space group: C 2/C
;
_chemical_formula_sum "Si O2"
_cell_formula_units_Z 60
_cell_length_a 11.219636
_cell_length_b 28.488995
_cell_length_c 9.225176
_cell_angle_alpha 90.000000
_cell_angle_beta 96.645495
_cell_angle_gamma 90.000000
_cell_volume 2928.888016
_symmetry_space_group_name_H-M "C 2/C"
_symmetry_group_IT_number 15
_symmetry_cell_setting 'monoclinic'
loop_
_space_group_symop_operation_xyz
x,y,z
-x,y,1/2-z
-x,-y,-z
x,-y,1/2+z
1/2+x,1/2+y,z
1/2-x,1/2+y,1/2-z
1/2-x,1/2-y,-z
1/2+x,1/2-y,1/2+z
loop_
_atom_site_type_symbol
_atom_site_label
_atom_site_fract_x
_atom_site_fract_y
_atom_site_fract_z
Si Si1 0.639319 0.633621 0.281651
Si Si2 0.214524 0.538559 0.173960
Si Si3 0.182372 0.130639 0.972973
Si Si4 0.806753 0.202894 0.947695
Si Si5 0.921405 0.030880 0.597937
Si Si6 0.500000 0.310817 0.250000
Si Si7 0.856323 0.629577 0.747164
Si Si8 0.882976 0.468504 0.134285
O O1 0.500000 0.618537 0.250000
O O2 0.726284 0.589363 0.318378
O O3 0.648568 0.670489 0.413144
O O4 0.680343 0.653261 0.131225
O O5 0.314111 0.502308 0.133035
O O6 0.175112 0.517253 0.321821
O O7 0.110033 0.535626 0.037581
O O8 0.130406 0.078017 0.979329
O O9 0.308513 0.130081 0.905642
O O10 0.089589 0.157369 0.856543
O O11 0.915192 0.215029 0.853110
O O12 0.710120 0.171104 0.847721
O O13 0.750000 0.250000 0.000000
O O14 0.000000 0.043505 0.750000
O O15 0.000000 0.000000 0.500000
O O16 0.814135 0.579104 0.675132
O O17 0.000000 0.633724 0.750000
O O18 0.000000 0.465543 0.250000
#
# Coordination Sequence:
#
# PCOD9293149 Si02
#       8
#     8   8   8   8   8   4   8   8
#     4  12  24  42  66 105 141 169 223 289 346 406
#     4  12  23  38  58  96 133 178 224 271 334 395
#     4  11  21  40  66  98 138 180 220 280 341 406
#     4  11  25  49  75 102 136 175 222 289 348 414
#     4  12  23  33  55  94 135 178 222 270 331 402
#     4  10  22  44  74  98 132 174 220 272 354 408
#     4  10  23  46  68  93 134 186 234 278 339 408
#     4  11  23  41  63  87 134 184 235 276 323 395
#
# _framework density 20.485589999999998
#
# number of rings (size 3 to 8) (size 9 to 14) (size 15 to 20)
#    0.000    0.800    4.667    4.000    0.000    0.533 
#    2.400    1.333    0.000    0.000    0.000    0.000 
#    0.000    0.000    0.000    0.000    0.000    0.000 
#
# Total GULP energy -167626.991411 kJ/mol
# GULP energy per Si atom -5587.566380 kJ/mol
# Density = 2.043896 g / cm^3
# Si number density = 20.485590 Si / 1000 Ang^3
#
#
#
# Elastic Constant Matrix: (Units=GPa)
#
#
# Indices 1 2 3 4 5 6 
#
# 1 98.9036 31.3719 44.6085 0.0000 -11.6391 0.0000
# 2 31.3719 94.2356 30.8098 0.0000 -8.7706 0.0000
# 3 44.6085 30.8098 136.4854 0.0000 -10.5126 0.0000
# 4 0.0000 0.0000 0.0000 22.9695 0.0000 -10.0473
# 5 -11.6391 -8.7706 -10.5126 0.0000 41.3380 0.0000
# 6 0.0000 0.0000 0.0000 -10.0473 0.0000 15.1976
#
#
#
# Elastic Compliance Matrix: (Units=1/GPa)
#
#
# Indices 1 2 3 4 5 6 
#
# 1 0.012817 -0.002972 -0.003354 0.000000 0.002125 0.000000
# 2 -0.002972 0.012281 -0.001698 0.000000 0.001337 0.000000
# 3 -0.003354 -0.001698 0.008880 0.000000 0.000954 0.000000
# 4 0.000000 0.000000 0.000000 0.061248 0.000000 0.040491
# 5 0.002125 0.001337 0.000954 0.000000 0.025315 0.000000
# 6 0.000000 0.000000 0.000000 0.040491 0.000000 0.092569
#
#
# Mechanical properties :
#
#
# Convention : Reuss Voigt Hill
#
# Bulk Modulus (GPa) = 55.77765 60.35611 58.06688
# Shear Modulus (GPa) = 21.26444 30.75663 26.01053
#
# Velocity S-wave (km/s) = 3.22533 3.87897 3.56715
# Velocity P-wave (km/s) = 6.41538 7.04191 6.73594
#
# Compressibility (1/GPa) = 0.01792833
#
# Stress axis : x y z
#
# Youngs Moduli (GPa) = 78.02364 81.42841 112.61515
#
# Poissons Ratio (x) = 0.24203 0.37775
# Poissons Ratio (y) = 0.23191 0.19119
# Poissons Ratio (z) = 0.26172 0.13825
#
# Static dielectric constant tensor:
#      x y z
#    x 1.790390 0.000000 -0.027670 
#    y 0.000000 1.709490 0.000000 
#    z -0.027670 0.000000 1.798830 
# 
# From -- ./inp_files/34265.got.cif
#   From: 2010.05.17/outbox.cif.g08.bks.cpg/sg15_18_cif.got.tgz:34265.got - 2010.06.03 18:47:42.
