data_PCOD9293309
_publ_section_title
;
Structure prediction by ZEFSAII (Michael W. Deem and Ramdas Pophale) SiO2 
 PCOD9293309
Probable space group: C 2/C
;
_chemical_formula_sum "Si O2"
_cell_formula_units_Z 24
_cell_length_a 11.939464
_cell_length_b 9.106014
_cell_length_c 21.066933
_cell_angle_alpha 90.000000
_cell_angle_beta 157.639876
_cell_angle_gamma 90.000000
_cell_volume 871.335878
_symmetry_space_group_name_H-M "C 2/C"
_symmetry_group_IT_number 15
_symmetry_cell_setting 'monoclinic'
loop_
_space_group_symop_operation_xyz
x,y,z
-x,y,1/2-z
-x,-y,-z
x,-y,1/2+z
1/2+x,1/2+y,z
1/2-x,1/2+y,1/2-z
1/2-x,1/2-y,-z
1/2+x,1/2-y,1/2+z
loop_
_atom_site_type_symbol
_atom_site_label
_atom_site_fract_x
_atom_site_fract_y
_atom_site_fract_z
Si Si1 0.179207 0.910642 0.900017
Si Si2 0.424585 0.329032 0.963612
Si Si3 0.399896 0.843306 0.827725
O O1 0.334414 0.778320 0.943455
O O2 0.000000 0.995008 0.750000
O O3 0.933238 0.860886 0.820298
O O4 0.424287 0.009388 0.061909
O O5 0.451332 0.281976 0.051299
O O6 0.500000 0.500000 0.000000
O O7 0.148440 0.313941 0.771350
#
# Coordination Sequence:
#
# PCOD9293309 Si02
#       3
#     8   8   8
#     4  10  22  45  69  96 135 179 221 275 332 393
#     4  11  23  41  68 100 132 173 222 273 329 392
#     4  11  24  46  70  98 135 178 222 274 333 397
#
# _framework density 27.543914999999998
#
# number of rings (size 3 to 8) (size 9 to 14) (size 15 to 20)
#    0.000    1.333    0.000    7.000    0.000    5.333 
#    0.000   33.333    0.000    0.000    0.000    0.000 
#    0.000    0.000    0.000    0.000    0.000    0.000 
#
# Total GULP energy -67350.553445 kJ/mol
# GULP energy per Si atom -5612.546120 kJ/mol
# Density = 2.748122 g / cm^3
# Si number density = 27.543915 Si / 1000 Ang^3
#
#
#
# Elastic Constant Matrix: (Units=GPa)
#
#
# Indices 1 2 3 4 5 6 
#
# 1 172.2638 59.8816 78.2076 0.0042 -60.1398 0.0022
# 2 59.8816 190.3912 77.0318 0.0079 -21.7531 0.0024
# 3 78.2076 77.0318 231.4433 0.0406 -54.0853 0.0089
# 4 0.0042 0.0079 0.0406 52.7402 0.0082 -16.3377
# 5 -60.1398 -21.7531 -54.0853 0.0082 68.0855 0.0020
# 6 0.0022 0.0024 0.0089 -16.3377 0.0020 37.7316
#
#
#
# Elastic Compliance Matrix: (Units=1/GPa)
#
#
# Indices 1 2 3 4 5 6 
#
# 1 0.009227 -0.001740 -0.000938 -0.000001 0.006849 -0.000001
# 2 -0.001740 0.006407 -0.001750 0.000001 -0.000880 0.000001
# 3 -0.000938 -0.001750 0.006012 -0.000006 0.003388 -0.000004
# 4 -0.000001 0.000001 -0.000006 0.021898 -0.000009 0.009482
# 5 0.006849 -0.000880 0.003388 -0.000009 0.023147 -0.000006
# 6 -0.000001 0.000001 -0.000004 0.009482 -0.000006 0.030609
#
#
# Mechanical properties :
#
#
# Convention : Reuss Voigt Hill
#
# Bulk Modulus (GPa) = 78.19129 113.81558 96.00343
# Shear Modulus (GPa) = 45.28180 56.97662 51.12921
#
# Velocity S-wave (km/s) = 4.05901 4.55309 4.31313
# Velocity P-wave (km/s) = 7.10048 8.30976 7.72881
#
# Compressibility (1/GPa) = 0.01278915
#
# Stress axis : x y z
#
# Youngs Moduli (GPa) = 108.37904 156.07539 166.33408
#
# Poissons Ratio (x) = 0.27155 0.15607
# Poissons Ratio (y) = 0.18857 0.29113
# Poissons Ratio (z) = 0.10169 0.27317
#
# Static dielectric constant tensor:
#      x y z
#    x 2.259010 0.000000 0.043110 
#    y 0.000000 2.082670 -0.000010 
#    z 0.043110 -0.000010 2.165210 
# 
# From -- ./inp_files/93904.got.cif
#   From: 2010.05.17/outbox.cif.g08.bks.cpg/sg15_47_cif.got.tgz:93904.got - 2010.06.03 18:47:42.
