data_PCOD9293700
_publ_section_title
;
Structure prediction by ZEFSAII (Michael W. Deem and Ramdas Pophale) SiO2 
 PCOD9293700
Probable space group: C 2/C
;
_chemical_formula_sum "Si O2"
_cell_formula_units_Z 44
_cell_length_a 31.536598
_cell_length_b 5.502973
_cell_length_c 10.442759
_cell_angle_alpha 90.000000
_cell_angle_beta 70.807237
_cell_angle_gamma 90.000000
_cell_volume 1711.558273
_symmetry_space_group_name_H-M "C 2/C"
_symmetry_group_IT_number 15
_symmetry_cell_setting 'monoclinic'
loop_
_space_group_symop_operation_xyz
x,y,z
-x,y,1/2-z
-x,-y,-z
x,-y,1/2+z
1/2+x,1/2+y,z
1/2-x,1/2+y,1/2-z
1/2-x,1/2-y,-z
1/2+x,1/2-y,1/2+z
loop_
_atom_site_type_symbol
_atom_site_label
_atom_site_fract_x
_atom_site_fract_y
_atom_site_fract_z
Si Si1 0.455975 0.082296 0.220316
Si Si2 0.801504 0.632855 0.649539
Si Si3 0.500000 0.500000 0.500000
Si Si4 0.413540 0.545343 0.930377
Si Si5 0.115676 0.223552 0.285367
Si Si6 0.219405 0.143160 0.916288
O O1 0.500000 0.990574 0.250000
O O2 0.472690 0.296939 0.112721
O O3 0.420729 0.188524 0.358822
O O4 0.430211 0.882283 0.162094
O O5 0.836990 0.658193 0.730027
O O6 0.812533 0.373392 0.576764
O O7 0.751941 0.618265 0.759873
O O8 0.800486 0.869018 0.556122
O O9 0.536449 0.465847 0.582536
O O10 0.388788 0.395551 0.846923
O O11 0.388694 0.545528 0.089768
O O12 0.250000 0.250000 0.000000
#
# Coordination Sequence:
#
# PCOD9293700 Si02
#       6
#     8   8   4   8   8   8
#     4  10  25  44  71 103 140 199 246 308 373 446
#     4  10  25  43  72 108 147 190 251 301 384 448
#     4  10  22  48  66  96 142 194 248 306 364 456
#     4  11  26  44  68 101 145 187 251 312 372 446
#     4  12  28  44  73 108 150 194 251 317 383 449
#     4  10  22  46  74 105 144 198 241 307 373 462
#
# _framework density 25.707568999999999
#
# number of rings (size 3 to 8) (size 9 to 14) (size 15 to 20)
#    0.000    1.455    1.818    0.545   10.182    2.909 
#    0.000    0.000    0.000    0.000    0.000    0.000 
#    0.000    0.000    0.000    0.000    0.000    0.000 
#
# Total GULP energy -122493.116206 kJ/mol
# GULP energy per Si atom -5567.868918 kJ/mol
# Density = 2.564906 g / cm^3
# Si number density = 25.707569 Si / 1000 Ang^3
#
#
#
# Elastic Constant Matrix: (Units=GPa)
#
#
# Indices 1 2 3 4 5 6 
#
# 1 103.9523 36.9552 15.3169 0.0000 32.0708 0.0000
# 2 36.9552 110.8607 43.4642 0.0000 7.0123 0.0000
# 3 15.3169 43.4642 110.4735 0.0000 23.9401 0.0000
# 4 0.0000 0.0000 0.0000 -44.1796 0.0000 -80.0258
# 5 32.0708 7.0123 23.9401 0.0000 47.3050 0.0000
# 6 0.0000 0.0000 0.0000 -80.0258 0.0000 -67.0352
#
#
#
# Elastic Compliance Matrix: (Units=1/GPa)
#
#
# Indices 1 2 3 4 5 6 
#
# 1 0.014110 -0.004909 0.002123 0.000000 -0.009913 0.000000
# 2 -0.004909 0.012389 -0.005073 0.000000 0.004059 0.000000
# 3 0.002123 -0.005073 0.012246 0.000000 -0.006885 0.000000
# 4 0.000000 0.000000 0.000000 0.019473 0.000000 -0.023246
# 5 -0.009913 0.004059 -0.006885 0.000000 0.030743 0.000000
# 6 0.000000 0.000000 0.000000 -0.023246 0.000000 0.012833
#
#
# Mechanical properties :
#
#
# Convention : Reuss Voigt Hill
#
# Bulk Modulus (GPa) = 43.42774 57.41766 50.42270
# Shear Modulus (GPa) = 39.94009 2.52139 21.23074
#
# Velocity S-wave (km/s) = 3.94589 0.99143 2.87689
# Velocity P-wave (km/s) = 6.13919 4.86765 5.54002
#
# Compressibility (1/GPa) = 0.02302676
#
# Stress axis : x y z
#
# Youngs Moduli (GPa) = 70.86928 80.71635 81.66256
#
# Poissons Ratio (x) = 0.39625 -0.17339
# Poissons Ratio (y) = 0.34790 0.41430
# Poissons Ratio (z) = -0.15047 0.40950
#
# Static dielectric constant tensor:
#      x y z
#    x 2.136720 0.000000 -0.131360 
#    y 0.000000 2.116620 0.000000 
#    z -0.131360 0.000000 2.053290 
# 
# From -- ./inp_files/124993.got.cif
#   From: 2010.05.17/outbox.cif.g08.bks.cpg/sg15_63_cif.got.tgz:124993.got - 2010.06.03 18:47:42.
