data_PCOD9293021
_publ_section_title
;
Structure prediction by ZEFSAII (Michael W. Deem and Ramdas Pophale) SiO2 
 PCOD9293021
Probable space group: C 2/C
;
_chemical_formula_sum "Si O2"
_cell_formula_units_Z 64
_cell_length_a 30.728945
_cell_length_b 10.904753
_cell_length_c 8.627279
_cell_angle_alpha 90.000000
_cell_angle_beta 86.198685
_cell_angle_gamma 90.000000
_cell_volume 2884.568141
_symmetry_space_group_name_H-M "C 2/C"
_symmetry_group_IT_number 15
_symmetry_cell_setting 'monoclinic'
loop_
_space_group_symop_operation_xyz
x,y,z
-x,y,1/2-z
-x,-y,-z
x,-y,1/2+z
1/2+x,1/2+y,z
1/2-x,1/2+y,1/2-z
1/2-x,1/2-y,-z
1/2+x,1/2-y,1/2+z
loop_
_atom_site_type_symbol
_atom_site_label
_atom_site_fract_x
_atom_site_fract_y
_atom_site_fract_z
Si Si1 0.515019 0.302346 0.070054
Si Si2 0.043723 0.560969 0.146029
Si Si3 0.129310 0.192780 0.156804
Si Si4 0.456237 0.443120 0.866044
Si Si5 0.597828 0.114107 0.430619
Si Si6 0.270558 0.636344 0.401424
Si Si7 0.664940 0.100417 0.857224
Si Si8 0.723371 0.940524 0.613216
O O1 0.500000 0.284691 0.250000
O O2 0.534767 0.170793 0.025248
O O3 0.546503 0.420594 0.061467
O O4 0.472417 0.343725 0.987292
O O5 0.077499 0.615606 0.264244
O O6 0.000000 0.529342 0.250000
O O7 0.062360 0.443123 0.056103
O O8 0.088959 0.101210 0.195121
O O9 0.177453 0.138477 0.125426
O O10 0.135678 0.293381 0.290544
O O11 0.117416 0.264548 0.000900
O O12 0.500000 0.448382 0.750000
O O13 0.635479 0.012783 0.416663
O O14 0.250000 0.750000 0.500000
O O15 0.255920 0.515005 0.495554
O O16 0.248495 0.635464 0.237241
O O17 0.695440 0.043154 0.714777
O O18 0.692694 0.134885 0.002750
#
# Coordination Sequence:
#
# PCOD9293021 Si02
#       8
#     8   8   8   8   8   8   8   8
#     4   9  20  44  63  85 121 184 217 264 336 388
#     4  11  23  39  62  92 131 175 224 276 334 396
#     4  12  23  40  68 100 134 172 226 283 341 401
#     4  10  23  42  68  89 130 176 224 276 325 393
#     4  12  23  39  62  97 131 170 221 272 338 406
#     4  11  23  46  71 100 139 176 221 285 340 410
#     4  11  20  41  65  96 133 175 218 269 349 417
#     4  10  22  44  71  94 135 178 219 271 350 413
#
# _framework density 22.187031000000001
#
# number of rings (size 3 to 8) (size 9 to 14) (size 15 to 20)
#    0.000    1.250    3.750    2.625    1.750    1.000 
#    9.000    0.000    0.000    0.000    0.000    0.000 
#    0.000    0.000    0.000    0.000    0.000    0.000 
#
# Total GULP energy -178877.178066 kJ/mol
# GULP energy per Si atom -5589.911815 kJ/mol
# Density = 2.213653 g / cm^3
# Si number density = 22.187031 Si / 1000 Ang^3
#
#
#
# Elastic Constant Matrix: (Units=GPa)
#
#
# Indices 1 2 3 4 5 6 
#
# 1 135.3454 34.6766 25.6046 0.0000 10.8530 0.0000
# 2 34.6766 41.9163 3.7365 0.0000 9.5671 0.0000
# 3 25.6046 3.7365 73.2760 0.0000 21.8862 0.0000
# 4 0.0000 0.0000 0.0000 31.2785 0.0000 8.1304
# 5 10.8530 9.5671 21.8862 0.0000 45.2644 0.0000
# 6 0.0000 0.0000 0.0000 8.1304 0.0000 37.9139
#
#
#
# Elastic Compliance Matrix: (Units=1/GPa)
#
#
# Indices 1 2 3 4 5 6 
#
# 1 0.010064 -0.008244 -0.003385 0.000000 0.000966 0.000000
# 2 -0.008244 0.031828 0.003128 0.000000 -0.006263 0.000000
# 3 -0.003385 0.003128 0.017094 0.000000 -0.008115 0.000000
# 4 0.000000 0.000000 0.000000 0.033858 0.000000 -0.007261
# 5 0.000966 -0.006263 -0.008115 0.000000 0.027108 0.000000
# 6 0.000000 0.000000 0.000000 -0.007261 0.000000 0.027933
#
#
# Mechanical properties :
#
#
# Convention : Reuss Voigt Hill
#
# Bulk Modulus (GPa) = 23.81817 42.06370 32.94093
# Shear Modulus (GPa) = 27.95164 35.32603 31.63883
#
# Velocity S-wave (km/s) = 3.55324 3.99456 3.78035
# Velocity P-wave (km/s) = 5.25286 6.34627 5.82528
#
# Compressibility (1/GPa) = 0.04198476
#
# Stress axis : x y z
#
# Youngs Moduli (GPa) = 99.36820 31.41882 58.50010
#
# Poissons Ratio (x) = 0.25902 0.19800
# Poissons Ratio (y) = 0.81921 -0.18301
# Poissons Ratio (z) = 0.33633 -0.09829
#
# Static dielectric constant tensor:
#      x y z
#    x 1.814400 0.000000 0.012930 
#    y 0.000000 1.856650 0.000000 
#    z 0.012930 0.000000 1.846690 
# 
# From -- ./inp_files/69380.got.cif
#   From: 2010.05.17/outbox.cif.g08.bks.cpg/sg15_35_cif.got.tgz:69380.got - 2010.06.03 18:47:42.
