data_PCOD9293026
_publ_section_title
;
Structure prediction by ZEFSAII (Michael W. Deem and Ramdas Pophale) SiO2 
 PCOD9293026
Probable space group: C 2/C
;
_chemical_formula_sum "Si O2"
_cell_formula_units_Z 40
_cell_length_a 14.254582
_cell_length_b 8.667142
_cell_length_c 13.624372
_cell_angle_alpha 90.000000
_cell_angle_beta 64.849109
_cell_angle_gamma 90.000000
_cell_volume 1523.657789
_symmetry_space_group_name_H-M "C 2/C"
_symmetry_group_IT_number 15
_symmetry_cell_setting 'monoclinic'
loop_
_space_group_symop_operation_xyz
x,y,z
-x,y,1/2-z
-x,-y,-z
x,-y,1/2+z
1/2+x,1/2+y,z
1/2-x,1/2+y,1/2-z
1/2-x,1/2-y,-z
1/2+x,1/2-y,1/2+z
loop_
_atom_site_type_symbol
_atom_site_label
_atom_site_fract_x
_atom_site_fract_y
_atom_site_fract_z
Si Si1 0.143684 0.086435 0.954098
Si Si2 0.951506 0.590697 0.638408
Si Si3 0.582362 0.265061 0.296594
Si Si4 0.291253 0.756598 0.091985
Si Si5 0.863732 0.742594 0.864757
O O1 0.064905 0.152588 0.908793
O O2 0.244421 0.197751 0.906114
O O3 0.175366 0.918971 0.904910
O O4 0.117208 0.102046 0.081522
O O5 0.923732 0.419453 0.684173
O O6 0.889404 0.634054 0.568729
O O7 0.908793 0.715991 0.736755
O O8 0.073802 0.619656 0.594644
O O9 0.500000 0.304827 0.250000
O O10 0.696449 0.303842 0.204534
O O11 0.250000 0.750000 0.000000
#
# Coordination Sequence:
#
# PCOD9293026 Si02
#       5
#     8   8   8   8   8
#     4  11  25  44  69 100 138 174 226 277 343 390
#     4  11  23  45  71  95 136 175 230 276 342 400
#     4  12  24  46  71 100 129 180 233 279 331 407
#     4  12  27  44  66 103 139 180 223 279 339 406
#     4  10  22  44  71  97 131 179 219 277 338 402
#
# _framework density 26.252614000000001
#
# number of rings (size 3 to 8) (size 9 to 14) (size 15 to 20)
#    0.000    0.800    6.000    0.000    8.400    3.200 
#    3.600    0.000    0.000    0.000    0.000    0.000 
#    0.000    0.000    0.000    0.000    0.000    0.000 
#
# Total GULP energy -112022.472544 kJ/mol
# GULP energy per Si atom -5601.123627 kJ/mol
# Density = 2.619286 g / cm^3
# Si number density = 26.252614 Si / 1000 Ang^3
#
#
#
# Elastic Constant Matrix: (Units=GPa)
#
#
# Indices 1 2 3 4 5 6 
#
# 1 158.9763 23.7655 25.2939 0.0000 41.2901 0.0000
# 2 23.7655 52.7458 21.0639 0.0000 21.1850 0.0000
# 3 25.2939 21.0639 95.8495 0.0000 22.7401 0.0000
# 4 0.0000 0.0000 0.0000 40.7222 0.0000 14.6050
# 5 41.2901 21.1850 22.7401 0.0000 55.3503 0.0000
# 6 0.0000 0.0000 0.0000 14.6050 0.0000 22.3723
#
#
#
# Elastic Compliance Matrix: (Units=1/GPa)
#
#
# Indices 1 2 3 4 5 6 
#
# 1 0.007917 -0.001251 -0.000584 0.000000 -0.005188 0.000000
# 2 -0.001251 0.023523 -0.003241 0.000000 -0.006739 0.000000
# 3 -0.000584 -0.003241 0.012079 0.000000 -0.003287 0.000000
# 4 0.000000 0.000000 0.000000 0.032064 0.000000 -0.020932
# 5 -0.005188 -0.006739 -0.003287 0.000000 0.025866 0.000000
# 6 0.000000 0.000000 0.000000 -0.020932 0.000000 0.058363
#
#
# Mechanical properties :
#
#
# Convention : Reuss Voigt Hill
#
# Bulk Modulus (GPa) = 29.96723 49.75758 39.86240
# Shear Modulus (GPa) = 27.61123 39.51884 33.56503
#
# Velocity S-wave (km/s) = 3.24659 3.88407 3.57955
# Velocity P-wave (km/s) = 5.04911 6.25373 5.68343
#
# Compressibility (1/GPa) = 0.03336978
#
# Stress axis : x y z
#
# Youngs Moduli (GPa) = 126.30296 42.51126 82.78829
#
# Poissons Ratio (x) = 0.05316 0.04833
# Poissons Ratio (y) = 0.15795 0.26828
# Poissons Ratio (z) = 0.07373 0.13776
#
# Static dielectric constant tensor:
#      x y z
#    x 2.058570 0.000000 -0.049350 
#    y 0.000000 1.982220 0.000000 
#    z -0.049350 0.000000 2.201200 
# 
# From -- ./inp_files/150560.got.cif
#   From: 2010.05.17/outbox.cif.g08.bks.cpg/sg15_76_cif.got.tgz:150560.got - 2010.06.03 18:47:42.
