data_PCOD9293913
_publ_section_title
;
Structure prediction by ZEFSAII (Michael W. Deem and Ramdas Pophale) SiO2 
 PCOD9293913
Probable space group: C 2/C
;
_chemical_formula_sum "Si O2"
_cell_formula_units_Z 52
_cell_length_a 13.074181
_cell_length_b 25.669929
_cell_length_c 9.257933
_cell_angle_alpha 90.000000
_cell_angle_beta 55.976208
_cell_angle_gamma 90.000000
_cell_volume 2575.168860
_symmetry_space_group_name_H-M "C 2/C"
_symmetry_group_IT_number 15
_symmetry_cell_setting 'monoclinic'
loop_
_space_group_symop_operation_xyz
x,y,z
-x,y,1/2-z
-x,-y,-z
x,-y,1/2+z
1/2+x,1/2+y,z
1/2-x,1/2+y,1/2-z
1/2-x,1/2-y,-z
1/2+x,1/2-y,1/2+z
loop_
_atom_site_type_symbol
_atom_site_label
_atom_site_fract_x
_atom_site_fract_y
_atom_site_fract_z
Si Si1 0.493405 0.937450 0.527583
Si Si2 0.391731 0.378980 0.735018
Si Si3 0.748568 0.806064 0.074265
Si Si4 0.773271 0.935945 0.320565
Si Si5 0.745545 0.462340 0.847930
Si Si6 0.000000 0.632990 0.750000
Si Si7 0.442472 0.336232 0.140267
O O1 0.631221 0.916812 0.447245
O O2 0.383449 0.937461 0.730072
O O3 0.456358 0.905619 0.413134
O O4 0.500000 0.000000 0.500000
O O5 0.500000 0.400460 0.750000
O O6 0.328020 0.425568 0.702081
O O7 0.450642 0.342510 0.563745
O O8 0.309333 0.345680 0.910120
O O9 0.613239 0.830095 0.208606
O O10 0.834295 0.803059 0.149400
O O11 0.750000 0.750000 0.000000
O O12 0.802416 0.960664 0.452243
O O13 0.873162 0.891873 0.212000
O O14 0.764374 0.979270 0.203711
O O15 0.500000 0.321030 0.250000
#
# Coordination Sequence:
#
# PCOD9293913 Si02
#       7
#     8   8   8   8   8   4   8
#     4  10  23  35  61  92 136 172 216 277 339 393
#     4  10  23  40  63  90 130 168 216 270 328 391
#     4  11  26  46  74 100 128 172 230 283 344 404
#     4  11  24  37  61  95 133 181 223 264 331 402
#     4  11  23  38  60  91 136 176 223 268 328 395
#     4  12  22  42  72 104 130 176 230 282 332 414
#     4  11  23  44  65  95 136 173 217 278 337 396
#
# _framework density 20.192851999999998
#
# number of rings (size 3 to 8) (size 9 to 14) (size 15 to 20)
#    0.000    1.231    4.615    0.462   16.154    1.231 
#    0.000    0.769    3.385    0.000    0.000    0.000 
#    0.000    0.000    0.000    0.000    0.000    0.000 
#
# Total GULP energy -145051.319591 kJ/mol
# GULP energy per Si atom -5578.896907 kJ/mol
# Density = 2.014689 g / cm^3
# Si number density = 20.192852 Si / 1000 Ang^3
#
#
#
# Elastic Constant Matrix: (Units=GPa)
#
#
# Indices 1 2 3 4 5 6 
#
# 1 119.9512 31.0494 21.0836 0.0000 10.6168 0.0000
# 2 31.0494 64.9159 8.2483 0.0000 5.5674 0.0000
# 3 21.0836 8.2483 61.6760 0.0000 9.4336 0.0000
# 4 0.0000 0.0000 0.0000 18.2038 0.0000 8.8875
# 5 10.6168 5.5674 9.4336 0.0000 37.1529 0.0000
# 6 0.0000 0.0000 0.0000 8.8875 0.0000 16.0227
#
#
#
# Elastic Compliance Matrix: (Units=1/GPa)
#
#
# Indices 1 2 3 4 5 6 
#
# 1 0.010060 -0.004345 -0.002619 0.000000 -0.001558 0.000000
# 2 -0.004345 0.017676 -0.000690 0.000000 -0.001232 0.000000
# 3 -0.002619 -0.000690 0.017761 0.000000 -0.003658 0.000000
# 4 0.000000 0.000000 0.000000 0.075335 0.000000 -0.041787
# 5 -0.001558 -0.001232 -0.003658 0.000000 0.028475 0.000000
# 6 0.000000 0.000000 0.000000 -0.041787 0.000000 0.085590
#
#
# Mechanical properties :
#
#
# Convention : Reuss Voigt Hill
#
# Bulk Modulus (GPa) = 33.12626 40.81175 36.96900
# Shear Modulus (GPa) = 19.21099 26.68667 22.94883
#
# Velocity S-wave (km/s) = 3.08778 3.63931 3.37483
# Velocity P-wave (km/s) = 5.39936 6.15746 5.79083
#
# Compressibility (1/GPa) = 0.03018753
#
# Stress axis : x y z
#
# Youngs Moduli (GPa) = 99.40540 56.57334 56.30318
#
# Poissons Ratio (x) = 0.24582 0.14748
# Poissons Ratio (y) = 0.43193 0.03886
# Poissons Ratio (z) = 0.26038 0.03904
#
# Static dielectric constant tensor:
#      x y z
#    x 1.830450 0.000000 0.003760 
#    y 0.000000 1.672870 0.000000 
#    z 0.003760 0.000000 1.765660 
# 
# From -- ./inp_files/33498.got.cif
#   From: 2010.05.17/outbox.cif.g08.bks.cpg/sg15_17_cif.got.tgz:33498.got - 2010.06.03 18:47:42.
