data_PCOD9293460
_publ_section_title
;
Structure prediction by ZEFSAII (Michael W. Deem and Ramdas Pophale) SiO2 
 PCOD9293460
Probable space group: C 2/C
;
_chemical_formula_sum "Si O2"
_cell_formula_units_Z 24
_cell_length_a 10.446551
_cell_length_b 10.071060
_cell_length_c 10.259424
_cell_angle_alpha 90.000000
_cell_angle_beta 123.573519
_cell_angle_gamma 90.000000
_cell_volume 899.307719
_symmetry_space_group_name_H-M "C 2/C"
_symmetry_group_IT_number 15
_symmetry_cell_setting 'monoclinic'
loop_
_space_group_symop_operation_xyz
x,y,z
-x,y,1/2-z
-x,-y,-z
x,-y,1/2+z
1/2+x,1/2+y,z
1/2-x,1/2+y,1/2-z
1/2-x,1/2-y,-z
1/2+x,1/2-y,1/2+z
loop_
_atom_site_type_symbol
_atom_site_label
_atom_site_fract_x
_atom_site_fract_y
_atom_site_fract_z
Si Si1 0.921161 0.598033 0.561961
Si Si2 0.815818 0.362986 0.628432
Si Si3 0.528580 0.616884 0.116583
O O1 0.712700 0.356730 0.699913
O O2 0.786122 0.502500 0.536063
O O3 0.000000 0.613563 0.750000
O O4 0.000000 0.500000 0.500000
O O5 0.750000 0.250000 0.500000
O O6 0.433567 0.249924 0.524677
O O7 0.000000 0.345614 0.750000
O O8 0.500000 0.585155 0.250000
O O9 0.500000 0.500000 0.000000
#
# Coordination Sequence:
#
# PCOD9293460 Si02
#       3
#     8   8   8
#     4  10  22  45  79 117 165 213 280 346 431 504
#     4  11  25  51  84 121 173 225 283 359 443 517
#     4  11  27  52  80 125 173 225 291 355 435 521
#
# _framework density 26.687192
#
# number of rings (size 3 to 8) (size 9 to 14) (size 15 to 20)
#    0.000    1.333    3.333    0.000    0.000    9.333 
#   18.000    0.000    0.000    2.000    0.000    0.000 
#    0.000    0.000    0.000    0.000    0.000    0.000 
#
# Total GULP energy -67031.285844 kJ/mol
# GULP energy per Si atom -5585.940487 kJ/mol
# Density = 2.662645 g / cm^3
# Si number density = 26.687192 Si / 1000 Ang^3
#
#
#
# Elastic Constant Matrix: (Units=GPa)
#
#
# Indices 1 2 3 4 5 6 
#
# 1 238.7847 62.2477 103.0250 0.0000 -37.1371 0.0000
# 2 62.2477 290.2494 96.6076 0.0000 -9.6785 0.0000
# 3 103.0250 96.6076 149.2708 0.0000 -19.9973 0.0000
# 4 0.0000 0.0000 0.0000 54.1238 0.0000 -3.6035
# 5 -37.1371 -9.6785 -19.9973 0.0000 71.3581 0.0000
# 6 0.0000 0.0000 0.0000 -3.6035 0.0000 43.2084
#
#
#
# Elastic Compliance Matrix: (Units=1/GPa)
#
#
# Indices 1 2 3 4 5 6 
#
# 1 0.006262 0.000091 -0.004096 0.000000 0.002123 0.000000
# 2 0.000091 0.004396 -0.002932 0.000000 -0.000178 0.000000
# 3 -0.004096 -0.002932 0.011517 0.000000 0.000698 0.000000
# 4 0.000000 0.000000 0.000000 0.018579 0.000000 0.001549
# 5 0.002123 -0.000178 0.000698 0.000000 0.015290 0.000000
# 6 0.000000 0.000000 0.000000 0.001549 0.000000 0.023273
#
#
# Mechanical properties :
#
#
# Convention : Reuss Voigt Hill
#
# Bulk Modulus (GPa) = 120.46455 133.56282 127.01369
# Shear Modulus (GPa) = 52.10619 61.49970 56.80295
#
# Velocity S-wave (km/s) = 4.42348 4.80569 4.61854
# Velocity P-wave (km/s) = 8.44553 8.99717 8.72571
#
# Compressibility (1/GPa) = 0.00830120
#
# Stress axis : x y z
#
# Youngs Moduli (GPa) = 159.70098 227.50112 86.82466
#
# Poissons Ratio (x) = -0.02079 0.35567
# Poissons Ratio (y) = -0.01459 0.25454
# Poissons Ratio (z) = 0.65421 0.66696
#
# Static dielectric constant tensor:
#      x y z
#    x 2.226060 0.000000 0.131260 
#    y 0.000000 2.141230 0.000000 
#    z 0.131260 0.000000 2.234560 
# 
# From -- ./inp_files/21148.got.cif
#   From: 2010.05.17/outbox.cif.g08.bks.cpg/sg15_11_cif.got.tgz:21148.got - 2010.06.03 18:47:42.
