data_PCOD9293039
_publ_section_title
;
Structure prediction by ZEFSAII (Michael W. Deem and Ramdas Pophale) SiO2 
 PCOD9293039
Probable space group: C 2/C
;
_chemical_formula_sum "Si O2"
_cell_formula_units_Z 52
_cell_length_a 15.636474
_cell_length_b 9.461151
_cell_length_c 15.073439
_cell_angle_alpha 90.000000
_cell_angle_beta 66.822876
_cell_angle_gamma 90.000000
_cell_volume 2049.976536
_symmetry_space_group_name_H-M "C 2/C"
_symmetry_group_IT_number 15
_symmetry_cell_setting 'monoclinic'
loop_
_space_group_symop_operation_xyz
x,y,z
-x,y,1/2-z
-x,-y,-z
x,-y,1/2+z
1/2+x,1/2+y,z
1/2-x,1/2+y,1/2-z
1/2-x,1/2-y,-z
1/2+x,1/2-y,1/2+z
loop_
_atom_site_type_symbol
_atom_site_label
_atom_site_fract_x
_atom_site_fract_y
_atom_site_fract_z
Si Si1 0.150833 0.869288 0.835113
Si Si2 0.000000 0.525710 0.750000
Si Si3 0.421954 0.443154 0.461607
Si Si4 0.060423 0.765952 0.595838
Si Si5 0.615388 0.805031 0.628185
Si Si6 0.235762 0.118262 0.701009
Si Si7 0.610446 0.977471 0.971846
O O1 0.049375 0.799962 0.868098
O O2 0.220696 0.753359 0.767438
O O3 0.166004 0.017512 0.781351
O O4 0.159455 0.895969 0.937701
O O5 0.945739 0.638923 0.832424
O O6 0.080590 0.404514 0.723305
O O7 0.500000 0.500000 0.500000
O O8 0.397861 0.578061 0.410225
O O9 0.453998 0.307488 0.392661
O O10 0.114132 0.687840 0.494377
O O11 0.687337 0.693097 0.637246
O O12 0.636935 0.915571 0.541123
O O13 0.324040 0.026147 0.633841
O O14 0.500000 0.000000 0.000000
#
# Coordination Sequence:
#
# PCOD9293039 Si02
#       7
#     8   4   8   8   8   8   8
#     4  11  26  44  69 105 150 188 244 299 379 434
#     4  10  26  40  72 104 144 186 248 304 366 436
#     4  10  22  44  71  99 142 190 242 294 367 445
#     4  10  23  44  67 100 137 190 238 293 364 443
#     4  11  25  44  72 106 145 189 247 306 368 441
#     4  12  27  44  73 108 148 191 249 313 369 435
#     4  11  21  46  73  98 142 190 240 295 377 453
#
# _framework density 25.366144999999999
#
# number of rings (size 3 to 8) (size 9 to 14) (size 15 to 20)
#    0.000    1.231    3.077    1.385   10.769    0.000 
#    0.000    0.769    0.000    0.000    0.000    0.000 
#    0.000    0.000    0.000    0.000    0.000    0.000 
#
# Total GULP energy -144791.026765 kJ/mol
# GULP energy per Si atom -5568.885645 kJ/mol
# Density = 2.530841 g / cm^3
# Si number density = 25.366145 Si / 1000 Ang^3
#
#
#
# Elastic Constant Matrix: (Units=GPa)
#
#
# Indices 1 2 3 4 5 6 
#
# 1 49.4672 26.6480 13.3123 0.0000 0.6649 0.0000
# 2 26.6480 221.0185 58.0827 0.0000 -2.4554 0.0000
# 3 13.3123 58.0827 61.1873 0.0000 -3.4261 0.0000
# 4 0.0000 0.0000 0.0000 60.3595 0.0000 -7.4459
# 5 0.6649 -2.4554 -3.4261 0.0000 15.2865 0.0000
# 6 0.0000 0.0000 0.0000 -7.4459 0.0000 36.8288
#
#
#
# Elastic Compliance Matrix: (Units=1/GPa)
#
#
# Indices 1 2 3 4 5 6 
#
# 1 0.022091 -0.001856 -0.003154 0.000000 -0.001966 0.000000
# 2 -0.001856 0.006186 -0.005477 0.000000 -0.000153 0.000000
# 3 -0.003154 -0.005477 0.022469 0.000000 0.004293 0.000000
# 4 0.000000 0.000000 0.000000 0.016991 0.000000 0.003435
# 5 -0.001966 -0.000153 0.004293 0.000000 0.066440 0.000000
# 6 0.000000 0.000000 0.000000 0.003435 0.000000 0.027847
#
#
# Mechanical properties :
#
#
# Convention : Reuss Voigt Hill
#
# Bulk Modulus (GPa) = 33.58979 58.63989 46.11484
# Shear Modulus (GPa) = 25.91723 38.07028 31.99375
#
# Velocity S-wave (km/s) = 3.19991 3.87826 3.55530
# Velocity P-wave (km/s) = 5.18877 6.57435 5.92222
#
# Compressibility (1/GPa) = 0.02977095
#
# Stress axis : x y z
#
# Youngs Moduli (GPa) = 45.26792 161.65820 44.50634
#
# Poissons Ratio (x) = 0.30011 0.14037
# Poissons Ratio (y) = 0.08404 0.24375
# Poissons Ratio (z) = 0.14278 0.88535
#
# Static dielectric constant tensor:
#      x y z
#    x 2.240990 0.000000 0.086720 
#    y 0.000000 2.017210 0.000000 
#    z 0.086720 0.000000 2.188950 
# 
# From -- ./inp_files/209465.got.cif
#   From: 2010.05.17/outbox.cif.g08.bks.cpg/sg15_105_cif.got.tgz:209465.got - 2010.06.03 18:47:42.
