data_PCOD9293803
_publ_section_title
;
Structure prediction by ZEFSAII (Michael W. Deem and Ramdas Pophale) SiO2 
 PCOD9293803
Probable space group: C 2/C
;
_chemical_formula_sum "Si O2"
_cell_formula_units_Z 40
_cell_length_a 22.466622
_cell_length_b 5.312621
_cell_length_c 13.418949
_cell_angle_alpha 90.000000
_cell_angle_beta 69.478973
_cell_angle_gamma 90.000000
_cell_volume 1500.006418
_symmetry_space_group_name_H-M "C 2/C"
_symmetry_group_IT_number 15
_symmetry_cell_setting 'monoclinic'
loop_
_space_group_symop_operation_xyz
x,y,z
-x,y,1/2-z
-x,-y,-z
x,-y,1/2+z
1/2+x,1/2+y,z
1/2-x,1/2+y,1/2-z
1/2-x,1/2-y,-z
1/2+x,1/2-y,1/2+z
loop_
_atom_site_type_symbol
_atom_site_label
_atom_site_fract_x
_atom_site_fract_y
_atom_site_fract_z
Si Si1 0.851436 0.148278 0.865233
Si Si2 0.247989 0.679396 0.384661
Si Si3 0.426131 0.182122 0.491914
Si Si4 0.648530 0.000058 0.297960
Si Si5 0.043529 0.824280 0.628891
O O1 0.861437 0.287816 0.963125
O O2 0.884368 0.315336 0.761620
O O3 0.781559 0.094257 0.867855
O O4 0.886929 0.885394 0.864727
O O5 0.250000 0.750000 0.500000
O O6 0.181148 0.664742 0.367242
O O7 0.294646 0.855372 0.291631
O O8 0.466291 0.417792 0.427734
O O9 0.401983 0.180171 0.618589
O O10 0.455604 0.917639 0.441604
O O11 0.000000 0.795580 0.750000
#
# Coordination Sequence:
#
# PCOD9293803 Si02
#       5
#     8   8   8   8   8
#     4  10  24  42  68  98 141 179 232 290 344 411
#     4  12  26  41  67 101 144 194 236 285 343 418
#     4  10  25  43  72  99 140 177 230 291 346 413
#     4  12  24  41  65 102 143 188 232 284 349 418
#     4  10  22  47  74  99 134 183 232 293 359 410
#
# _framework density 26.666550999999998
#
# number of rings (size 3 to 8) (size 9 to 14) (size 15 to 20)
#    1.200    0.000    2.000    4.200    5.600    1.600 
#    0.000    2.000    0.000    0.000    0.000    0.000 
#    0.000    0.000    0.000    0.000    0.000    0.000 
#
# Total GULP energy -111940.282952 kJ/mol
# GULP energy per Si atom -5597.014148 kJ/mol
# Density = 2.660586 g / cm^3
# Si number density = 26.666551 Si / 1000 Ang^3
#
#
#
# Elastic Constant Matrix: (Units=GPa)
#
#
# Indices 1 2 3 4 5 6 
#
# 1 66.0491 0.1183 22.4314 0.0000 12.4352 0.0000
# 2 0.1183 140.6039 53.2797 0.0000 -6.0735 0.0000
# 3 22.4314 53.2797 174.5806 0.0000 3.2240 0.0000
# 4 0.0000 0.0000 0.0000 38.5787 0.0000 -2.8507
# 5 12.4352 -6.0735 3.2240 0.0000 46.9908 0.0000
# 6 0.0000 0.0000 0.0000 -2.8507 0.0000 21.1160
#
#
#
# Elastic Compliance Matrix: (Units=1/GPa)
#
#
# Indices 1 2 3 4 5 6 
#
# 1 0.016697 0.000666 -0.002272 0.000000 -0.004177 0.000000
# 2 0.000666 0.008138 -0.002589 0.000000 0.001053 0.000000
# 3 -0.002272 -0.002589 0.006814 0.000000 -0.000201 0.000000
# 4 0.000000 0.000000 0.000000 0.026182 0.000000 0.003535
# 5 -0.004177 0.001053 -0.000201 0.000000 0.022536 0.000000
# 6 0.000000 0.000000 0.000000 0.003535 0.000000 0.047835
#
#
# Mechanical properties :
#
#
# Convention : Reuss Voigt Hill
#
# Bulk Modulus (GPa) = 42.99103 59.21027 51.10065
# Shear Modulus (GPa) = 34.63976 41.69737 38.16856
#
# Velocity S-wave (km/s) = 3.60807 3.95860 3.78739
# Velocity P-wave (km/s) = 5.78915 6.56858 6.19114
#
# Compressibility (1/GPa) = 0.02326067
#
# Stress axis : x y z
#
# Youngs Moduli (GPa) = 59.89155 122.87955 146.76475
#
# Poissons Ratio (x) = -0.08188 0.33339
# Poissons Ratio (y) = -0.03991 0.37993
# Poissons Ratio (z) = 0.13605 0.31810
#
# Static dielectric constant tensor:
#      x y z
#    x 2.199120 0.000000 -0.006860 
#    y 0.000000 2.128070 0.000000 
#    z -0.006860 0.000000 2.081370 
# 
# From -- ./inp_files/179423.got.cif
#   From: 2010.05.17/outbox.cif.g08.bks.cpg/sg15_90_cif.got.tgz:179423.got - 2010.06.03 18:47:42.
