data_PCOD9293709
_publ_section_title
;
Structure prediction by ZEFSAII (Michael W. Deem and Ramdas Pophale) SiO2 
 PCOD9293709
Probable space group: C 2/C
;
_chemical_formula_sum "Si O2"
_cell_formula_units_Z 52
_cell_length_a 16.160418
_cell_length_b 23.604779
_cell_length_c 6.901593
_cell_angle_alpha 90.000000
_cell_angle_beta 55.327454
_cell_angle_gamma 90.000000
_cell_volume 2165.179001
_symmetry_space_group_name_H-M "C 2/C"
_symmetry_group_IT_number 15
_symmetry_cell_setting 'monoclinic'
loop_
_space_group_symop_operation_xyz
x,y,z
-x,y,1/2-z
-x,-y,-z
x,-y,1/2+z
1/2+x,1/2+y,z
1/2-x,1/2+y,1/2-z
1/2-x,1/2-y,-z
1/2+x,1/2-y,1/2+z
loop_
_atom_site_type_symbol
_atom_site_label
_atom_site_fract_x
_atom_site_fract_y
_atom_site_fract_z
Si Si1 0.970222 0.309307 0.507766
Si Si2 0.774198 0.432855 0.048054
Si Si3 0.000000 0.587776 0.250000
Si Si4 0.578803 0.489187 0.771902
Si Si5 0.740979 0.328021 0.818711
Si Si6 0.563414 0.693180 0.819758
Si Si7 0.159639 0.871918 0.538725
O O1 0.002562 0.366344 0.572126
O O2 0.850768 0.302490 0.675205
O O3 0.003064 0.248734 0.548247
O O4 0.000000 0.314196 0.250000
O O5 0.894047 0.445990 0.888867
O O6 0.755844 0.390136 0.893890
O O7 0.688436 0.479919 0.136120
O O8 0.745051 0.399804 0.285904
O O9 0.550716 0.501796 0.557299
O O10 0.600442 0.422359 0.722422
O O11 0.702747 0.332958 0.650800
O O12 0.665612 0.297745 0.065065
O O13 0.500000 0.655651 0.750000
O O14 0.590479 0.661911 0.980258
#
# Coordination Sequence:
#
# PCOD9293709 Si02
#       7
#     8   8   4   8   8   8   8
#     4  11  23  43  70 100 133 187 233 284 352 419
#     4  10  23  44  68 103 135 186 235 291 354 416
#     4  10  22  46  74  98 144 180 234 300 344 422
#     4  12  24  41  68  99 136 181 230 283 353 417
#     4  10  24  42  68  97 138 179 235 285 346 417
#     4  11  26  41  66 100 139 181 231 286 353 416
#     4  11  25  42  67  97 141 180 231 291 347 422
#
# _framework density 24.016490000000001
#
# number of rings (size 3 to 8) (size 9 to 14) (size 15 to 20)
#    0.000    1.231    2.308    2.308    4.308    3.077 
#    0.000    0.769    1.692    0.000    0.000    0.000 
#    0.000    0.000    0.000    0.000    0.000    0.000 
#
# Total GULP energy -145262.058262 kJ/mol
# GULP energy per Si atom -5587.002241 kJ/mol
# Density = 2.396183 g / cm^3
# Si number density = 24.016490 Si / 1000 Ang^3
#
#
#
# Elastic Constant Matrix: (Units=GPa)
#
#
# Indices 1 2 3 4 5 6 
#
# 1 163.8088 46.7476 58.0027 0.0000 -8.3533 0.0000
# 2 46.7476 45.5538 12.5292 0.0000 -2.2723 0.0000
# 3 58.0027 12.5292 105.7693 0.0000 5.7169 0.0000
# 4 0.0000 0.0000 0.0000 35.6043 0.0000 13.5583
# 5 -8.3533 -2.2723 5.7169 0.0000 57.8889 0.0000
# 6 0.0000 0.0000 0.0000 13.5583 0.0000 19.7793
#
#
#
# Elastic Compliance Matrix: (Units=1/GPa)
#
#
# Indices 1 2 3 4 5 6 
#
# 1 0.010575 -0.009460 -0.004766 0.000000 0.001625 0.000000
# 2 -0.009460 0.031232 0.001504 0.000000 -0.000288 0.000000
# 3 -0.004766 0.001504 0.011988 0.000000 -0.001813 0.000000
# 4 0.000000 0.000000 0.000000 0.038008 0.000000 -0.026054
# 5 0.001625 -0.000288 -0.001813 0.000000 0.017677 0.000000
# 6 0.000000 0.000000 0.000000 -0.026054 0.000000 0.068417
#
#
# Mechanical properties :
#
#
# Convention : Reuss Voigt Hill
#
# Bulk Modulus (GPa) = 35.27373 61.07676 48.17525
# Shear Modulus (GPa) = 23.49699 35.84465 29.67082
#
# Velocity S-wave (km/s) = 3.13128 3.86748 3.51869
# Velocity P-wave (km/s) = 5.27185 6.74015 6.05070
#
# Compressibility (1/GPa) = 0.02834971
#
# Stress axis : x y z
#
# Youngs Moduli (GPa) = 94.56236 32.01822 83.41486
#
# Poissons Ratio (x) = 0.30290 0.39759
# Poissons Ratio (y) = 0.89457 -0.12543
# Poissons Ratio (z) = 0.45073 -0.04815
#
# Static dielectric constant tensor:
#      x y z
#    x 2.185950 0.000000 0.049040 
#    y 0.000000 1.952900 0.000000 
#    z 0.049040 0.000000 1.971770 
# 
# From -- ./inp_files/11934.got.cif
#   From: 2010.05.17/outbox.cif.g08.bks.cpg/sg15_6_cif.got.tgz:11934.got - 2010.06.03 18:47:42.
