data_PCOD9293387
_publ_section_title
;
Structure prediction by ZEFSAII (Michael W. Deem and Ramdas Pophale) SiO2 
 PCOD9293387
Probable space group: C 2/C
;
_chemical_formula_sum "Si O2"
_cell_formula_units_Z 56
_cell_length_a 21.783317
_cell_length_b 19.812670
_cell_length_c 6.231439
_cell_angle_alpha 90.000000
_cell_angle_beta 57.875208
_cell_angle_gamma 90.000000
_cell_volume 2277.630906
_symmetry_space_group_name_H-M "C 2/C"
_symmetry_group_IT_number 15
_symmetry_cell_setting 'monoclinic'
loop_
_space_group_symop_operation_xyz
x,y,z
-x,y,1/2-z
-x,-y,-z
x,-y,1/2+z
1/2+x,1/2+y,z
1/2-x,1/2+y,1/2-z
1/2-x,1/2-y,-z
1/2+x,1/2-y,1/2+z
loop_
_atom_site_type_symbol
_atom_site_label
_atom_site_fract_x
_atom_site_fract_y
_atom_site_fract_z
Si Si1 0.666038 0.649545 0.663978
Si Si2 0.229198 0.042018 0.291792
Si Si3 0.477346 0.078485 0.544042
Si Si4 0.073144 0.063306 0.541780
Si Si5 0.074791 0.814277 0.726237
Si Si6 0.689066 0.088169 0.741367
Si Si7 0.814386 0.737750 0.710835
O O1 0.594060 0.616948 0.688527
O O2 0.811032 0.660275 0.643799
O O3 0.691278 0.712036 0.476794
O O4 0.640077 0.672508 0.940128
O O5 0.146455 0.019591 0.390108
O O6 0.220999 0.088338 0.516446
O O7 0.287582 0.983792 0.204738
O O8 0.252666 0.091737 0.059562
O O9 0.500000 0.103965 0.750000
O O10 0.390999 0.082384 0.702501
O O11 0.500000 0.000000 0.500000
O O12 0.500000 0.103329 0.250000
O O13 0.063785 0.113108 0.360003
O O14 0.000000 0.027168 0.750000
O O15 0.108414 0.758131 0.822840
O O16 0.000000 0.793943 0.750000
O O17 0.750000 0.750000 0.000000
#
# Coordination Sequence:
#
# PCOD9293387 Si02
#       7
#     8   8   8   8   8   8   8
#     4   9  21  42  72 104 143 183 241 285 372 438
#     4  10  23  42  71 102 141 197 241 296 374 434
#     4  10  22  45  72 102 142 190 246 316 385 449
#     4   9  18  40  69 105 150 177 236 303 350 441
#     4  11  20  39  75 108 139 191 234 299 373 446
#     4  12  24  46  70 103 150 188 251 315 362 452
#     4  11  24  46  66 102 150 182 234 302 364 451
#
# _framework density 24.586950999999999
#
# number of rings (size 3 to 8) (size 9 to 14) (size 15 to 20)
#    0.857    0.857    2.857    1.714    0.000    3.429 
#    7.714    0.714    0.000    0.857    0.000    0.000 
#    0.000    0.000    0.000    0.000    0.000    0.000 
#
# Total GULP energy -156157.384726 kJ/mol
# GULP energy per Si atom -5577.049454 kJ/mol
# Density = 2.453099 g / cm^3
# Si number density = 24.586951 Si / 1000 Ang^3
#
#
#
# Elastic Constant Matrix: (Units=GPa)
#
#
# Indices 1 2 3 4 5 6 
#
# 1 157.6184 49.8180 35.8223 0.0000 -10.2928 0.0000
# 2 49.8180 126.1962 24.9239 0.0000 9.3467 0.0000
# 3 35.8223 24.9239 109.8092 0.0000 7.8716 0.0000
# 4 0.0000 0.0000 0.0000 30.5677 0.0000 8.9983
# 5 -10.2928 9.3467 7.8716 0.0000 34.8186 0.0000
# 6 0.0000 0.0000 0.0000 8.9983 0.0000 37.5913
#
#
#
# Elastic Compliance Matrix: (Units=1/GPa)
#
#
# Indices 1 2 3 4 5 6 
#
# 1 0.008037 -0.003010 -0.002202 0.000000 0.003682 0.000000
# 2 -0.003010 0.009540 -0.000951 0.000000 -0.003236 0.000000
# 3 -0.002202 -0.000951 0.010235 0.000000 -0.002710 0.000000
# 4 0.000000 0.000000 0.000000 0.035194 0.000000 -0.008425
# 5 0.003682 -0.003236 -0.002710 0.000000 0.031290 0.000000
# 6 0.000000 0.000000 0.000000 -0.008425 0.000000 0.028619
#
#
# Mechanical properties :
#
#
# Convention : Reuss Voigt Hill
#
# Bulk Modulus (GPa) = 64.58293 68.30580 66.44437
# Shear Modulus (GPa) = 35.61131 39.46615 37.53873
#
# Velocity S-wave (km/s) = 3.80989 4.01080 3.91164
# Velocity P-wave (km/s) = 6.75854 7.02071 6.89087
#
# Compressibility (1/GPa) = 0.01548397
#
# Stress axis : x y z
#
# Youngs Moduli (GPa) = 124.42579 104.82045 97.70035
#
# Poissons Ratio (x) = 0.31555 0.21518
# Poissons Ratio (y) = 0.37457 0.09295
# Poissons Ratio (z) = 0.27404 0.09972
#
# Static dielectric constant tensor:
#      x y z
#    x 2.103150 0.000000 0.045230 
#    y 0.000000 1.903040 0.000000 
#    z 0.045230 0.000000 1.997810 
# 
# From -- ./inp_files/12123.got.cif
#   From: 2010.05.17/outbox.cif.g08.bks.cpg/sg15_7_cif.got.tgz:12123.got - 2010.06.03 18:47:42.
