data_PCOD9293185
_publ_section_title
;
Structure prediction by ZEFSAII (Michael W. Deem and Ramdas Pophale) SiO2 
 PCOD9293185
Probable space group: C 2/C
;
_chemical_formula_sum "Si O2"
_cell_formula_units_Z 40
_cell_length_a 5.379952
_cell_length_b 32.870938
_cell_length_c 11.331481
_cell_angle_alpha 90.000000
_cell_angle_beta 68.823104
_cell_angle_gamma 90.000000
_cell_volume 1868.580578
_symmetry_space_group_name_H-M "C 2/C"
_symmetry_group_IT_number 15
_symmetry_cell_setting 'monoclinic'
loop_
_space_group_symop_operation_xyz
x,y,z
-x,y,1/2-z
-x,-y,-z
x,-y,1/2+z
1/2+x,1/2+y,z
1/2-x,1/2+y,1/2-z
1/2-x,1/2-y,-z
1/2+x,1/2-y,1/2+z
loop_
_atom_site_type_symbol
_atom_site_label
_atom_site_fract_x
_atom_site_fract_y
_atom_site_fract_z
Si Si1 0.500000 0.080672 0.750000
Si Si2 0.490860 0.584783 0.515335
Si Si3 0.858233 0.713566 0.899867
Si Si4 0.763023 0.482843 0.115467
Si Si5 0.500000 0.442996 0.750000
Si Si6 0.640110 0.661207 0.601594
O O1 0.714514 0.099873 0.623834
O O2 0.669329 0.053155 0.808511
O O3 0.563278 0.540355 0.557785
O O4 0.484911 0.580677 0.375286
O O5 0.693768 0.619871 0.520586
O O6 0.590148 0.687995 0.919831
O O7 0.000000 0.725912 0.750000
O O8 0.091424 0.686859 0.921783
O O9 0.750000 0.750000 0.000000
O O10 0.724461 0.522271 0.206016
O O11 0.000000 0.500000 0.000000
O O12 0.500000 0.649784 0.750000
#
# Coordination Sequence:
#
# PCOD9293185 Si02
#       6
#     4   8   8   8   4   8
#     4  12  22  38  66  88 123 172 234 291 344 414
#     4  12  26  41  66  95 136 177 238 291 357 410
#     4  10  22  44  77 108 142 178 224 273 340 424
#     4  12  23  40  64  89 123 178 240 294 347 411
#     4  12  24  44  58  94 133 182 232 301 362 402
#     4  10  23  42  72 106 140 184 229 280 341 418
#
# _framework density 21.406624000000001
#
# number of rings (size 3 to 8) (size 9 to 14) (size 15 to 20)
#    0.000    0.800    4.000    3.600    7.000    0.000 
#    1.800    0.000    0.000    0.000    0.000    0.000 
#    0.000    0.000    0.000    0.000    0.000    0.000 
#
# Total GULP energy -111405.301046 kJ/mol
# GULP energy per Si atom -5570.265052 kJ/mol
# Density = 2.135790 g / cm^3
# Si number density = 21.406624 Si / 1000 Ang^3
#
#
#
# Elastic Constant Matrix: (Units=GPa)
#
#
# Indices 1 2 3 4 5 6 
#
# 1 111.0468 49.3047 58.2208 0.0000 9.8887 0.0000
# 2 49.3047 122.4273 70.6293 0.0000 21.0286 0.0000
# 3 58.2208 70.6293 145.2006 0.0000 7.4854 0.0000
# 4 0.0000 0.0000 0.0000 28.9901 0.0000 18.6818
# 5 9.8887 21.0286 7.4854 0.0000 37.7636 0.0000
# 6 0.0000 0.0000 0.0000 18.6818 0.0000 28.6427
#
#
#
# Elastic Compliance Matrix: (Units=1/GPa)
#
#
# Indices 1 2 3 4 5 6 
#
# 1 0.012124 -0.002695 -0.003500 0.000000 -0.000980 0.000000
# 2 -0.002695 0.013102 -0.005004 0.000000 -0.005598 0.000000
# 3 -0.003500 -0.005004 0.010642 0.000000 0.001593 0.000000
# 4 0.000000 0.000000 0.000000 0.059506 0.000000 -0.038812
# 5 -0.000980 -0.005598 0.001593 0.000000 0.029539 0.000000
# 6 0.000000 0.000000 0.000000 -0.038812 0.000000 0.060227
#
#
# Mechanical properties :
#
#
# Convention : Reuss Voigt Hill
#
# Bulk Modulus (GPa) = 74.23660 81.66490 77.95075
# Shear Modulus (GPa) = 23.58186 32.44727 28.01457
#
# Velocity S-wave (km/s) = 3.32266 3.89750 3.62150
# Velocity P-wave (km/s) = 7.03382 7.64762 7.34714
#
# Compressibility (1/GPa) = 0.01347044
#
# Stress axis : x y z
#
# Youngs Moduli (GPa) = 82.48033 76.32518 93.96599
#
# Poissons Ratio (x) = 0.20572 0.32886
# Poissons Ratio (y) = 0.22231 0.47018
# Poissons Ratio (z) = 0.28866 0.38191
#
# Static dielectric constant tensor:
#      x y z
#    x 1.788760 0.000000 0.168540 
#    y 0.000000 1.762290 0.000000 
#    z 0.168540 0.000000 1.503070 
# 
# From -- ./inp_files/73279.got.cif
#   From: 2010.05.17/outbox.cif.g08.bks.cpg/sg15_37_cif.got.tgz:73279.got - 2010.06.03 18:47:42.
