data_PCOD9293287
_publ_section_title
;
Structure prediction by ZEFSAII (Michael W. Deem and Ramdas Pophale) SiO2 
 PCOD9293287
Probable space group: C 2/C
;
_chemical_formula_sum "Si O2"
_cell_formula_units_Z 44
_cell_length_a 24.081764
_cell_length_b 9.183157
_cell_length_c 9.343744
_cell_angle_alpha 90.000000
_cell_angle_beta 124.292236
_cell_angle_gamma 90.000000
_cell_volume 1707.155576
_symmetry_space_group_name_H-M "C 2/C"
_symmetry_group_IT_number 15
_symmetry_cell_setting 'monoclinic'
loop_
_space_group_symop_operation_xyz
x,y,z
-x,y,1/2-z
-x,-y,-z
x,-y,1/2+z
1/2+x,1/2+y,z
1/2-x,1/2+y,1/2-z
1/2-x,1/2-y,-z
1/2+x,1/2-y,1/2+z
loop_
_atom_site_type_symbol
_atom_site_label
_atom_site_fract_x
_atom_site_fract_y
_atom_site_fract_z
Si Si1 0.927977 0.445264 0.568793
Si Si2 0.273989 0.666109 0.192454
Si Si3 0.000000 0.085452 0.250000
Si Si4 0.781486 0.864019 0.157807
Si Si5 0.619626 0.372826 0.421926
Si Si6 0.599284 0.186840 0.769147
O O1 0.893800 0.297620 0.575349
O O2 0.897907 0.596643 0.580145
O O3 0.000000 0.443145 0.750000
O O4 0.077554 0.577525 0.609465
O O5 0.229502 0.786585 0.206489
O O6 0.243803 0.518275 0.086019
O O7 0.318601 0.593547 0.384416
O O8 0.329563 0.741338 0.171364
O O9 0.959504 0.192237 0.298874
O O10 0.941616 0.973555 0.119339
O O11 0.856375 0.891969 0.206106
O O12 0.750000 0.750000 0.000000
#
# Coordination Sequence:
#
# PCOD9293287 Si02
#       6
#     8   8   4   8   8   8
#     4  11  23  42  63 100 140 188 226 289 354 428
#     4  10  23  44  69 101 134 187 238 293 358 423
#     4  12  22  42  72 104 142 186 230 298 356 438
#     4  10  22  45  68  97 137 179 242 291 351 420
#     4  10  23  42  67 101 141 181 234 293 359 425
#     4  11  25  42  67 101 144 184 240 287 361 426
#
# _framework density 25.773866000000002
#
# number of rings (size 3 to 8) (size 9 to 14) (size 15 to 20)
#    0.000    1.455    3.636    0.545    2.545    4.364 
#    0.000    3.636    0.000    0.000    0.000    0.000 
#    0.000    0.000    0.000    0.000    0.000    0.000 
#
# Total GULP energy -123046.512969 kJ/mol
# GULP energy per Si atom -5593.023317 kJ/mol
# Density = 2.571520 g / cm^3
# Si number density = 25.773866 Si / 1000 Ang^3
#
#
#
# Elastic Constant Matrix: (Units=GPa)
#
#
# Indices 1 2 3 4 5 6 
#
# 1 102.5199 61.8722 20.4943 0.0000 -26.0638 0.0000
# 2 61.8722 180.9172 27.9923 0.0000 -14.5965 0.0000
# 3 20.4943 27.9923 61.8797 0.0000 -12.4434 0.0000
# 4 0.0000 0.0000 0.0000 36.1290 0.0000 -8.1664
# 5 -26.0638 -14.5965 -12.4434 0.0000 33.9591 0.0000
# 6 0.0000 0.0000 0.0000 -8.1664 0.0000 56.0779
#
#
#
# Elastic Compliance Matrix: (Units=1/GPa)
#
#
# Indices 1 2 3 4 5 6 
#
# 1 0.014823 -0.004146 -0.001192 0.000000 0.009158 0.000000
# 2 -0.004146 0.007195 -0.002051 0.000000 -0.000841 0.000000
# 3 -0.001192 -0.002051 0.018484 0.000000 0.004976 0.000000
# 4 0.000000 0.000000 0.000000 0.028621 0.000000 0.004168
# 5 0.009158 -0.000841 0.004976 0.000000 0.037938 0.000000
# 6 0.000000 0.000000 0.000000 0.004168 0.000000 0.018439
#
#
# Mechanical properties :
#
#
# Convention : Reuss Voigt Hill
#
# Bulk Modulus (GPa) = 38.87503 62.89274 50.88389
# Shear Modulus (GPa) = 33.59061 40.89707 37.24384
#
# Velocity S-wave (km/s) = 3.61402 3.98774 3.80547
# Velocity P-wave (km/s) = 5.70357 6.75703 6.25253
#
# Compressibility (1/GPa) = 0.02572345
#
# Stress axis : x y z
#
# Youngs Moduli (GPa) = 67.46322 138.99091 54.10207
#
# Poissons Ratio (x) = 0.57625 0.06450
# Poissons Ratio (y) = 0.27970 0.11094
# Poissons Ratio (z) = 0.08043 0.28502
#
# Static dielectric constant tensor:
#      x y z
#    x 2.128460 0.000000 -0.008390 
#    y 0.000000 2.112060 0.000000 
#    z -0.008390 0.000000 2.153870 
# 
# From -- ./inp_files/116537.got.cif
#   From: 2010.05.17/outbox.cif.g08.bks.cpg/sg15_59_cif.got.tgz:116537.got - 2010.06.03 18:47:42.
