data_PCOD9293975
_publ_section_title
;
Structure prediction by ZEFSAII (Michael W. Deem and Ramdas Pophale) SiO2 
 PCOD9293975
Probable space group: C 2/C
;
_chemical_formula_sum "Si O2"
_cell_formula_units_Z 64
_cell_length_a 24.133261
_cell_length_b 15.894325
_cell_length_c 11.319951
_cell_angle_alpha 90.000000
_cell_angle_beta 44.761327
_cell_angle_gamma 90.000000
_cell_volume 3057.531788
_symmetry_space_group_name_H-M "C 2/C"
_symmetry_group_IT_number 15
_symmetry_cell_setting 'monoclinic'
loop_
_space_group_symop_operation_xyz
x,y,z
-x,y,1/2-z
-x,-y,-z
x,-y,1/2+z
1/2+x,1/2+y,z
1/2-x,1/2+y,1/2-z
1/2-x,1/2-y,-z
1/2+x,1/2-y,1/2+z
loop_
_atom_site_type_symbol
_atom_site_label
_atom_site_fract_x
_atom_site_fract_y
_atom_site_fract_z
Si Si1 0.502582 0.611004 0.882043
Si Si2 0.479710 0.918206 0.956687
Si Si3 0.240878 0.861241 0.268670
Si Si4 0.628902 0.088490 0.093001
Si Si5 0.021712 0.261930 0.399369
Si Si6 0.217613 0.575103 0.536012
Si Si7 0.628727 0.779726 0.030003
Si Si8 0.367561 0.501812 0.693781
O O1 0.500000 0.638191 0.750000
O O2 0.579769 0.555748 0.794660
O O3 0.498498 0.688499 0.979175
O O4 0.427987 0.551910 0.024254
O O5 0.421326 0.946097 0.941674
O O6 0.559990 0.878269 0.781145
O O7 0.444139 0.843236 0.086708
O O8 0.500000 0.000000 0.000000
O O9 0.275275 0.892756 0.341331
O O10 0.192577 0.777634 0.369318
O O11 0.181677 0.932776 0.310693
O O12 0.307139 0.852130 0.066503
O O13 0.672953 0.013950 0.094000
O O14 0.943679 0.294288 0.449482
O O15 0.085463 0.233228 0.205586
O O16 0.171392 0.639617 0.520969
O O17 0.304821 0.557654 0.353541
#
# Coordination Sequence:
#
# PCOD9293975 Si02
#       8
#     8   8   8   8   8   8   8   8
#     4  11  23  42  67  95 130 171 217 273 334 400
#     4  11  22  41  62  89 126 173 217 268 325 394
#     4  11  21  40  63  94 128 164 214 271 328 386
#     4  10  23  37  61  90 125 166 209 267 323 392
#     4  11  24  41  66  97 129 173 224 274 328 393
#     4  11  22  39  64  93 127 169 221 263 326 396
#     4  11  23  41  65  96 129 170 221 279 320 386
#     4  10  23  42  65  96 127 171 218 270 331 393
#
# _framework density 20.931915
#
# number of rings (size 3 to 8) (size 9 to 14) (size 15 to 20)
#    0.000    1.250    1.250    4.875    1.750    5.000 
#    0.000    0.625    0.000    0.000    0.000    0.000 
#    0.000    0.000    0.000    0.000    0.000    0.000 
#
# Total GULP energy -178839.847721 kJ/mol
# GULP energy per Si atom -5588.745241 kJ/mol
# Density = 2.088427 g / cm^3
# Si number density = 20.931915 Si / 1000 Ang^3
#
#
#
# Elastic Constant Matrix: (Units=GPa)
#
#
# Indices 1 2 3 4 5 6 
#
# 1 79.0556 2.8794 31.5784 0.0000 -6.2571 0.0000
# 2 2.8794 31.4475 16.9759 0.0000 -2.5705 0.0000
# 3 31.5784 16.9759 101.6267 0.0000 -15.2389 0.0000
# 4 0.0000 0.0000 0.0000 -9.0198 0.0000 -4.2747
# 5 -6.2571 -2.5705 -15.2389 0.0000 33.9896 0.0000
# 6 0.0000 0.0000 0.0000 -4.2747 0.0000 34.5210
#
#
#
# Elastic Compliance Matrix: (Units=1/GPa)
#
#
# Indices 1 2 3 4 5 6 
#
# 1 0.014499 0.001215 -0.004604 0.000000 0.000697 0.000000
# 2 0.001215 0.035052 -0.006220 0.000000 0.000086 0.000000
# 3 -0.004604 -0.006220 0.012985 0.000000 0.004504 0.000000
# 4 0.000000 0.000000 0.000000 -0.104721 0.000000 -0.012968
# 5 0.000697 0.000086 0.004504 0.000000 0.031575 0.000000
# 6 0.000000 0.000000 0.000000 -0.012968 0.000000 0.027362
#
#
# Mechanical properties :
#
#
# Convention : Reuss Voigt Hill
#
# Bulk Modulus (GPa) = 23.08482 34.99969 29.04226
# Shear Modulus (GPa) = 99.18874 22.61123 60.89998
#
# Velocity S-wave (km/s) = 6.89124 3.29025 5.39977
# Velocity P-wave (km/s) = 8.62389 5.58492 7.26508
#
# Compressibility (1/GPa) = 0.04331850
#
# Stress axis : x y z
#
# Youngs Moduli (GPa) = 68.96936 28.52878 77.01351
#
# Poissons Ratio (x) = -0.03465 0.35455
# Poissons Ratio (y) = -0.08377 0.47900
# Poissons Ratio (z) = 0.31751 0.17744
#
# Static dielectric constant tensor:
#      x y z
#    x 1.728170 0.000000 -0.009440 
#    y 0.000000 1.704130 0.000000 
#    z -0.009440 0.000000 1.827310 
# 
# From -- ./inp_files/123524.got.cif
#   From: 2010.05.17/outbox.cif.g08.bks.cpg/sg15_62_cif.got.tgz:123524.got - 2010.06.03 18:47:42.
