data_PCOD9293150
_publ_section_title
;
Structure prediction by ZEFSAII (Michael W. Deem and Ramdas Pophale) SiO2 
 PCOD9293150
Probable space group: C 2/C
;
_chemical_formula_sum "Si O2"
_cell_formula_units_Z 36
_cell_length_a 12.851433
_cell_length_b 26.467409
_cell_length_c 5.132248
_cell_angle_alpha 90.000000
_cell_angle_beta 58.686355
_cell_angle_gamma 90.000000
_cell_volume 1491.416212
_symmetry_space_group_name_H-M "C 2/C"
_symmetry_group_IT_number 15
_symmetry_cell_setting 'monoclinic'
loop_
_space_group_symop_operation_xyz
x,y,z
-x,y,1/2-z
-x,-y,-z
x,-y,1/2+z
1/2+x,1/2+y,z
1/2-x,1/2+y,1/2-z
1/2-x,1/2-y,-z
1/2+x,1/2-y,1/2+z
loop_
_atom_site_type_symbol
_atom_site_label
_atom_site_fract_x
_atom_site_fract_y
_atom_site_fract_z
Si Si1 0.687615 0.466088 0.533794
Si Si2 0.380736 0.379509 0.230323
Si Si3 0.000000 0.337523 0.750000
Si Si4 0.338681 0.106905 0.087958
Si Si5 0.732862 0.199476 0.683570
O O1 0.659921 0.495707 0.834501
O O2 0.620362 0.415730 0.520215
O O3 0.821569 0.442636 0.430939
O O4 0.500000 0.383253 0.250000
O O5 0.262741 0.397830 0.549830
O O6 0.349764 0.322127 0.185295
O O7 0.961014 0.375661 0.570636
O O8 0.115327 0.303004 0.525373
O O9 0.297055 0.155499 0.981525
O O10 0.750000 0.250000 0.500000
#
# Coordination Sequence:
#
# PCOD9293150 Si02
#       5
#     8   8   4   8   8
#     4  11  22  42  71 103 145 190 245 301 362 442
#     4  10  23  43  69 101 146 188 239 305 363 435
#     4  10  22  44  74  98 142 192 234 306 366 424
#     4  10  22  45  67 101 142 184 243 295 369 427
#     4  10  23  45  70 102 141 186 248 295 366 435
#
# _framework density 24.138131999999999
#
# number of rings (size 3 to 8) (size 9 to 14) (size 15 to 20)
#    0.000    1.778    2.222    0.667    0.000    8.000 
#   12.000    1.111    0.000    0.000    0.000    0.000 
#    0.000    0.000    0.000    0.000    0.000    0.000 
#
# Total GULP energy -100467.715473 kJ/mol
# GULP energy per Si atom -5581.539749 kJ/mol
# Density = 2.408319 g / cm^3
# Si number density = 24.138132 Si / 1000 Ang^3
#
#
#
# Elastic Constant Matrix: (Units=GPa)
#
#
# Indices 1 2 3 4 5 6 
#
# 1 142.0774 53.8800 24.3198 0.0000 25.1605 0.0000
# 2 53.8800 110.9701 36.7147 0.0000 3.5769 0.0000
# 3 24.3198 36.7147 98.5942 0.0000 16.5536 0.0000
# 4 0.0000 0.0000 0.0000 44.5290 0.0000 26.9229
# 5 25.1605 3.5769 16.5536 0.0000 44.9896 0.0000
# 6 0.0000 0.0000 0.0000 26.9229 0.0000 21.0312
#
#
#
# Elastic Compliance Matrix: (Units=1/GPa)
#
#
# Indices 1 2 3 4 5 6 
#
# 1 0.009647 -0.004580 0.000182 0.000000 -0.005098 0.000000
# 2 -0.004580 0.012469 -0.004026 0.000000 0.003051 0.000000
# 3 0.000182 -0.004026 0.012321 0.000000 -0.004315 0.000000
# 4 0.000000 0.000000 0.000000 0.099365 0.000000 -0.127201
# 5 -0.005098 0.003051 -0.004315 0.000000 0.026423 0.000000
# 6 0.000000 0.000000 0.000000 -0.127201 0.000000 0.210383
#
#
# Mechanical properties :
#
#
# Convention : Reuss Voigt Hill
#
# Bulk Modulus (GPa) = 56.85213 64.60784 60.72998
# Shear Modulus (GPa) = 12.71236 37.89179 25.30207
#
# Velocity S-wave (km/s) = 2.29738 3.96636 3.24114
# Velocity P-wave (km/s) = 5.53545 6.91375 6.26263
#
# Compressibility (1/GPa) = 0.01758949
#
# Stress axis : x y z
#
# Youngs Moduli (GPa) = 103.66095 80.20141 81.15996
#
# Poissons Ratio (x) = 0.36730 -0.01475
# Poissons Ratio (y) = 0.47474 0.32673
# Poissons Ratio (z) = -0.01884 0.32287
#
# Static dielectric constant tensor:
#      x y z
#    x 1.978150 0.000000 -0.042210 
#    y 0.000000 1.911490 0.000000 
#    z -0.042210 0.000000 2.098890 
# 
# From -- ./inp_files/4817.got.cif
#   From: 2010.05.17/outbox.cif.g08.bks.cpg/sg15_3_cif.got.tgz:4817.got - 2010.06.03 18:47:42.
