data_PCOD9293396
_publ_section_title
;
Structure prediction by ZEFSAII (Michael W. Deem and Ramdas Pophale) SiO2 
 PCOD9293396
Probable space group: C 2/C
;
_chemical_formula_sum "Si O2"
_cell_formula_units_Z 32
_cell_length_a 8.035752
_cell_length_b 23.126317
_cell_length_c 7.467456
_cell_angle_alpha 90.000000
_cell_angle_beta 69.980672
_cell_angle_gamma 90.000000
_cell_volume 1303.881541
_symmetry_space_group_name_H-M "C 2/C"
_symmetry_group_IT_number 15
_symmetry_cell_setting 'monoclinic'
loop_
_space_group_symop_operation_xyz
x,y,z
-x,y,1/2-z
-x,-y,-z
x,-y,1/2+z
1/2+x,1/2+y,z
1/2-x,1/2+y,1/2-z
1/2-x,1/2-y,-z
1/2+x,1/2-y,1/2+z
loop_
_atom_site_type_symbol
_atom_site_label
_atom_site_fract_x
_atom_site_fract_y
_atom_site_fract_z
Si Si1 0.698878 0.677559 0.861746
Si Si2 0.001850 0.297140 0.962407
Si Si3 0.373095 0.444861 0.024354
Si Si4 0.864042 0.528272 0.183058
O O1 0.819167 0.689878 0.639335
O O2 0.562826 0.729698 0.946275
O O3 0.591060 0.617455 0.908183
O O4 0.842841 0.674296 0.971933
O O5 0.000000 0.310286 0.750000
O O6 0.211368 0.471232 0.195475
O O7 0.500000 0.500000 0.000000
O O8 0.299208 0.440276 0.849675
O O9 0.000000 0.565632 0.250000
O O10 0.000000 0.500000 0.000000
#
# Coordination Sequence:
#
# PCOD9293396 Si02
#       4
#     8   8   8   8
#     4  10  24  44  72 106 147 177 252 300 350 445
#     4  10  22  45  72 108 138 192 240 297 367 416
#     4  11  23  44  65 102 145 186 232 301 364 427
#     4   9  21  40  65  94 133 182 240 278 360 429
#
# _framework density 24.542107000000001
#
# number of rings (size 3 to 8) (size 9 to 14) (size 15 to 20)
#    0.000    2.000    0.000    1.500   10.500    3.000 
#   22.500    0.000    0.000    0.000    0.000    0.000 
#    0.000    0.000    0.000    0.000    0.000    0.000 
#
# Total GULP energy -89126.560640 kJ/mol
# GULP energy per Si atom -5570.410040 kJ/mol
# Density = 2.448625 g / cm^3
# Si number density = 24.542107 Si / 1000 Ang^3
#
#
#
# Elastic Constant Matrix: (Units=GPa)
#
#
# Indices 1 2 3 4 5 6 
#
# 1 102.6226 33.7134 34.6996 0.0000 24.9907 0.0000
# 2 33.7134 179.5530 35.4618 0.0000 -4.1516 0.0000
# 3 34.6996 35.4618 119.6783 0.0000 16.9955 0.0000
# 4 0.0000 0.0000 0.0000 12.3886 0.0000 -10.2360
# 5 24.9907 -4.1516 16.9955 0.0000 41.3912 0.0000
# 6 0.0000 0.0000 0.0000 -10.2360 0.0000 9.8117
#
#
#
# Elastic Compliance Matrix: (Units=1/GPa)
#
#
# Indices 1 2 3 4 5 6 
#
# 1 0.012906 -0.002178 -0.002080 0.000000 -0.007157 0.000000
# 2 -0.002178 0.006360 -0.001625 0.000000 0.002620 0.000000
# 3 -0.002080 -0.001625 0.009860 0.000000 -0.002956 0.000000
# 4 0.000000 0.000000 0.000000 0.584817 0.000000 0.610107
# 5 -0.007157 0.002620 -0.002956 0.000000 0.029957 0.000000
# 6 0.000000 0.000000 0.000000 0.610107 0.000000 0.738410
#
#
# Mechanical properties :
#
#
# Convention : Reuss Voigt Hill
#
# Bulk Modulus (GPa) = 57.60566 67.73373 62.66969
# Shear Modulus (GPa) = 3.57178 32.58359 18.07768
#
# Velocity S-wave (km/s) = 1.20769 3.64766 2.71698
# Velocity P-wave (km/s) = 5.04657 6.73791 5.95262
#
# Compressibility (1/GPa) = 0.01735941
#
# Stress axis : x y z
#
# Youngs Moduli (GPa) = 77.48258 157.23627 101.41806
#
# Poissons Ratio (x) = 0.34244 0.21099
# Poissons Ratio (y) = 0.16875 0.16482
# Poissons Ratio (z) = 0.16119 0.25553
#
# Static dielectric constant tensor:
#      x y z
#    x 1.805360 0.000000 -0.608590 
#    y 0.000000 1.870890 0.000000 
#    z -0.608590 0.000000 0.043030 
# 
# From -- ./inp_files/22780.got.cif
#   From: 2010.05.17/outbox.cif.g08.bks.cpg/sg15_12_cif.got.tgz:22780.got - 2010.06.03 18:47:42.
