data_PCOD9293391
_publ_section_title
;
Structure prediction by ZEFSAII (Michael W. Deem and Ramdas Pophale) SiO2 
 PCOD9293391
Probable space group: C 2/C
;
_chemical_formula_sum "Si O2"
_cell_formula_units_Z 36
_cell_length_a 5.159368
_cell_length_b 19.469372
_cell_length_c 14.660700
_cell_angle_alpha 90.000000
_cell_angle_beta 66.197722
_cell_angle_gamma 90.000000
_cell_volume 1347.402939
_symmetry_space_group_name_H-M "C 2/C"
_symmetry_group_IT_number 15
_symmetry_cell_setting 'monoclinic'
loop_
_space_group_symop_operation_xyz
x,y,z
-x,y,1/2-z
-x,-y,-z
x,-y,1/2+z
1/2+x,1/2+y,z
1/2-x,1/2+y,1/2-z
1/2-x,1/2-y,-z
1/2+x,1/2-y,1/2+z
loop_
_atom_site_type_symbol
_atom_site_label
_atom_site_fract_x
_atom_site_fract_y
_atom_site_fract_z
Si Si1 0.835941 0.265075 0.685534
Si Si2 0.500000 0.900534 0.750000
Si Si3 0.561310 0.428541 0.637084
Si Si4 0.233615 0.926338 0.136249
Si Si5 0.168634 0.146445 0.945888
O O1 0.500000 0.263319 0.750000
O O2 0.873594 0.222679 0.587608
O O3 0.000000 0.231213 0.750000
O O4 0.960464 0.342041 0.675329
O O5 0.732477 0.949226 0.669704
O O6 0.500000 0.407413 0.750000
O O7 0.764670 0.492873 0.608061
O O8 0.629800 0.368505 0.558098
O O9 0.520861 0.885834 0.119339
O O10 0.000000 0.924704 0.250000
O O11 0.076164 0.894588 0.071662
#
# Coordination Sequence:
#
# PCOD9293391 Si02
#       5
#     8   4   8   8   8
#     4  10  22  45  72 104 142 186 248 305 347 426
#     4  10  26  46  72 100 156 198 246 284 372 418
#     4  11  27  45  69 104 153 195 240 298 362 442
#     4  11  25  43  74 106 145 183 241 304 370 433
#     4  12  24  44  75 108 141 189 247 300 365 424
#
# _framework density 26.718067999999999
#
# number of rings (size 3 to 8) (size 9 to 14) (size 15 to 20)
#    0.667    0.444    0.000    6.000    9.333    0.889 
#    0.000    2.222    0.000    0.000    0.000    0.000 
#    0.000    0.000    0.000    0.000    0.000    0.000 
#
# Total GULP energy -100452.795001 kJ/mol
# GULP energy per Si atom -5580.710833 kJ/mol
# Density = 2.665726 g / cm^3
# Si number density = 26.718068 Si / 1000 Ang^3
#
#
#
# Elastic Constant Matrix: (Units=GPa)
#
#
# Indices 1 2 3 4 5 6 
#
# 1 144.2557 36.2277 17.5970 0.0000 10.0516 0.0000
# 2 36.2277 90.5307 0.4301 0.0000 9.9008 0.0000
# 3 17.5970 0.4301 105.2672 0.0000 10.6800 0.0000
# 4 0.0000 0.0000 0.0000 -15.9756 0.0000 13.0696
# 5 10.0516 9.9008 10.6800 0.0000 54.6181 0.0000
# 6 0.0000 0.0000 0.0000 13.0696 0.0000 43.7647
#
#
#
# Elastic Compliance Matrix: (Units=1/GPa)
#
#
# Indices 1 2 3 4 5 6 
#
# 1 0.007904 -0.003086 -0.001242 0.000000 -0.000652 0.000000
# 2 -0.003086 0.012477 0.000650 0.000000 -0.001821 0.000000
# 3 -0.001242 0.000650 0.009890 0.000000 -0.001823 0.000000
# 4 0.000000 0.000000 0.000000 -0.050305 0.000000 0.015023
# 5 -0.000652 -0.001821 -0.001823 0.000000 0.019115 0.000000
# 6 0.000000 0.000000 0.000000 0.015023 0.000000 0.018363
#
#
# Mechanical properties :
#
#
# Convention : Reuss Voigt Hill
#
# Bulk Modulus (GPa) = 43.64287 49.84035 46.74161
# Shear Modulus (GPa) = 154.13571 35.53470 94.83521
#
# Velocity S-wave (km/s) = 7.60361 3.65086 5.96421
# Velocity P-wave (km/s) = 9.66730 6.03874 8.05987
#
# Compressibility (1/GPa) = 0.02291325
#
# Stress axis : x y z
#
# Youngs Moduli (GPa) = 126.51678 80.14842 101.11610
#
# Poissons Ratio (x) = 0.24732 0.12564
# Poissons Ratio (y) = 0.39040 -0.06568
# Poissons Ratio (z) = 0.15720 -0.05206
#
# Static dielectric constant tensor:
#      x y z
#    x -0.369470 0.000000 0.306160 
#    y 0.000000 2.084140 0.000000 
#    z 0.306160 0.000000 2.063030 
# 
# From -- ./inp_files/128999.got.cif
#   From: 2010.05.17/outbox.cif.g08.bks.cpg/sg15_65_cif.got.tgz:128999.got - 2010.06.03 18:47:42.
