data_PCOD9293929
_publ_section_title
;
Structure prediction by ZEFSAII (Michael W. Deem and Ramdas Pophale) SiO2 
 PCOD9293929
Probable space group: C 2/C
;
_chemical_formula_sum "Si O2"
_cell_formula_units_Z 48
_cell_length_a 16.808995
_cell_length_b 15.286196
_cell_length_c 8.269260
_cell_angle_alpha 90.000000
_cell_angle_beta 67.939519
_cell_angle_gamma 90.000000
_cell_volume 1969.192518
_symmetry_space_group_name_H-M "C 2/C"
_symmetry_group_IT_number 15
_symmetry_cell_setting 'monoclinic'
loop_
_space_group_symop_operation_xyz
x,y,z
-x,y,1/2-z
-x,-y,-z
x,-y,1/2+z
1/2+x,1/2+y,z
1/2-x,1/2+y,1/2-z
1/2-x,1/2-y,-z
1/2+x,1/2-y,1/2+z
loop_
_atom_site_type_symbol
_atom_site_label
_atom_site_fract_x
_atom_site_fract_y
_atom_site_fract_z
Si Si1 0.751563 0.394785 0.168434
Si Si2 0.000000 0.015600 0.750000
Si Si3 0.219116 0.215107 0.198813
Si Si4 0.681872 0.943225 0.723641
Si Si5 0.423552 0.606859 0.522847
Si Si6 0.027096 0.727397 0.896364
Si Si7 0.000000 0.628038 0.250000
O O1 0.758085 0.291083 0.188972
O O2 0.815775 0.456756 0.219628
O O3 0.661036 0.414567 0.316916
O O4 0.762531 0.425875 0.978919
O O5 0.074070 0.947394 0.644186
O O6 0.994504 0.074377 0.596793
O O7 0.271640 0.125614 0.189981
O O8 0.115527 0.219160 0.296629
O O9 0.250000 0.250000 0.000000
O O10 0.583947 0.920550 0.754354
O O11 0.447484 0.706236 0.478285
O O12 0.000000 0.677383 0.750000
O O13 0.033340 0.679626 0.064332
#
# Coordination Sequence:
#
# PCOD9293929 Si02
#       7
#     8   4   8   8   8   8   4
#     4  12  26  47  73 109 151 199 254 320 381 463
#     4  10  23  36  60 103 142 194 236 300 379 467
#     4  12  27  49  76 113 154 204 260 321 387 464
#     4  12  28  49  80 112 150 204 261 319 395 462
#     4  11  23  39  66 102 149 192 241 309 386 463
#     4  12  26  46  76 112 154 204 254 321 392 465
#     4  12  27  52  76 111 150 204 266 322 389 457
#
# _framework density 24.375473
#
# number of rings (size 3 to 8) (size 9 to 14) (size 15 to 20)
#    0.000    0.333    2.500    6.000    9.333    0.667 
#    1.500    0.000    0.000    0.000    0.000    0.000 
#    0.000    0.000    0.000    0.000    0.000    0.000 
#
# Total GULP energy -134039.296919 kJ/mol
# GULP energy per Si atom -5584.970705 kJ/mol
# Density = 2.431999 g / cm^3
# Si number density = 24.375473 Si / 1000 Ang^3
#
#
#
# Elastic Constant Matrix: (Units=GPa)
#
#
# Indices 1 2 3 4 5 6 
#
# 1 71.5633 -3.4010 11.9497 0.0000 -19.5051 0.0000
# 2 -3.4010 28.9358 -9.1542 0.0000 2.7220 0.0000
# 3 11.9497 -9.1542 126.9817 0.0000 -7.6699 0.0000
# 4 0.0000 0.0000 0.0000 56.8015 0.0000 -0.7598
# 5 -19.5051 2.7220 -7.6699 0.0000 45.2789 0.0000
# 6 0.0000 0.0000 0.0000 -0.7598 0.0000 44.4115
#
#
#
# Elastic Compliance Matrix: (Units=1/GPa)
#
#
# Indices 1 2 3 4 5 6 
#
# 1 0.016007 0.000926 -0.001037 0.000000 0.006664 0.000000
# 2 0.000926 0.035551 0.002395 0.000000 -0.001332 0.000000
# 3 -0.001037 0.002395 0.008194 0.000000 0.000797 0.000000
# 4 0.000000 0.000000 0.000000 0.017609 0.000000 0.000301
# 5 0.006664 -0.001332 0.000797 0.000000 0.025171 0.000000
# 6 0.000000 0.000000 0.000000 0.000301 0.000000 0.022522
#
#
# Mechanical properties :
#
#
# Convention : Reuss Voigt Hill
#
# Bulk Modulus (GPa) = 15.54693 25.14107 20.34400
# Shear Modulus (GPa) = 35.22977 44.50414 39.86695
#
# Velocity S-wave (km/s) = 3.80583 4.27754 4.04856
# Velocity P-wave (km/s) = 5.06995 5.89347 5.49715
#
# Compressibility (1/GPa) = 0.06432138
#
# Stress axis : x y z
#
# Youngs Moduli (GPa) = 62.47184 28.12840 122.04687
#
# Poissons Ratio (x) = -0.02606 0.12657
# Poissons Ratio (y) = -0.05788 -0.29233
# Poissons Ratio (z) = 0.06479 -0.06737
#
# Static dielectric constant tensor:
#      x y z
#    x 2.101750 0.000000 0.028620 
#    y 0.000000 1.962910 0.000000 
#    z 0.028620 0.000000 1.915030 
# 
# From -- ./inp_files/48409.got.cif
#   From: 2010.05.17/outbox.cif.g08.bks.cpg/sg15_25_cif.got.tgz:48409.got - 2010.06.03 18:47:42.
