data_PCOD9293268
_publ_section_title
;
Structure prediction by ZEFSAII (Michael W. Deem and Ramdas Pophale) SiO2 
 PCOD9293268
Probable space group: C 2/C
;
_chemical_formula_sum "Si O2"
_cell_formula_units_Z 52
_cell_length_a 15.158788
_cell_length_b 18.036682
_cell_length_c 9.423819
_cell_angle_alpha 90.000000
_cell_angle_beta 97.226831
_cell_angle_gamma 90.000000
_cell_volume 2556.137480
_symmetry_space_group_name_H-M "C 2/C"
_symmetry_group_IT_number 15
_symmetry_cell_setting 'monoclinic'
loop_
_space_group_symop_operation_xyz
x,y,z
-x,y,1/2-z
-x,-y,-z
x,-y,1/2+z
1/2+x,1/2+y,z
1/2-x,1/2+y,1/2-z
1/2-x,1/2-y,-z
1/2+x,1/2-y,1/2+z
loop_
_atom_site_type_symbol
_atom_site_label
_atom_site_fract_x
_atom_site_fract_y
_atom_site_fract_z
Si Si1 0.919557 0.129610 0.336761
Si Si2 0.609194 0.150847 0.028995
Si Si3 0.469534 0.292692 0.397403
Si Si4 0.348272 0.985521 0.358295
Si Si5 0.779346 0.016429 0.433822
Si Si6 0.500000 0.110633 0.750000
Si Si7 0.687687 0.647202 0.454232
O O1 0.862097 0.066072 0.402716
O O2 0.000000 0.101840 0.250000
O O3 0.039049 0.182889 0.034364
O O4 0.854047 0.165787 0.207413
O O5 0.559722 0.156098 0.869452
O O6 0.711154 0.173526 0.025556
O O7 0.553006 0.205471 0.115686
O O8 0.616934 0.066101 0.083218
O O9 0.500000 0.320383 0.250000
O O10 0.376352 0.325397 0.434633
O O11 0.291534 0.947441 0.472170
O O12 0.432599 0.939273 0.326585
O O13 0.280039 0.995084 0.214182
O O14 0.809530 0.941995 0.521342
#
# Coordination Sequence:
#
# PCOD9293268 Si02
#       7
#     8   8   8   8   8   4   8
#     4  10  23  43  68  96 137 175 224 270 328 401
#     4  11  24  43  67  93 137 174 218 273 335 397
#     4  11  27  42  65  98 133 176 228 269 324 402
#     4  11  23  41  69 100 131 166 221 278 341 391
#     4  11  21  41  68 101 132 169 220 281 338 382
#     4  12  24  40  70 102 124 178 216 286 334 400
#     4  10  22  45  67  94 133 182 216 274 338 394
#
# _framework density 20.343194
#
# number of rings (size 3 to 8) (size 9 to 14) (size 15 to 20)
#    0.000    1.231    6.154    0.923    6.462    3.077 
#    0.000    0.769    0.000    0.000    0.000    0.000 
#    0.000    0.000    0.000    0.000    0.000    0.000 
#
# Total GULP energy -145105.578401 kJ/mol
# GULP energy per Si atom -5580.983785 kJ/mol
# Density = 2.029689 g / cm^3
# Si number density = 20.343194 Si / 1000 Ang^3
#
#
#
# Elastic Constant Matrix: (Units=GPa)
#
#
# Indices 1 2 3 4 5 6 
#
# 1 151.9951 33.1541 73.2743 0.0000 0.5804 0.0000
# 2 33.1541 42.0998 13.6118 0.0000 -13.3469 0.0000
# 3 73.2743 13.6118 137.3353 0.0000 -14.0108 0.0000
# 4 0.0000 0.0000 0.0000 22.9516 0.0000 -21.0965
# 5 0.5804 -13.3469 -14.0108 0.0000 43.0242 0.0000
# 6 0.0000 0.0000 0.0000 -21.0965 0.0000 8.4663
#
#
#
# Elastic Compliance Matrix: (Units=1/GPa)
#
#
# Indices 1 2 3 4 5 6 
#
# 1 0.011109 -0.008398 -0.005561 0.000000 -0.004566 0.000000
# 2 -0.008398 0.033149 0.002334 0.000000 0.011157 0.000000
# 3 -0.005561 0.002334 0.010446 0.000000 0.004201 0.000000
# 4 0.000000 0.000000 0.000000 -0.033765 0.000000 -0.084135
# 5 -0.004566 0.011157 0.004201 0.000000 0.028133 0.000000
# 6 0.000000 0.000000 0.000000 -0.084135 0.000000 -0.091534
#
#
# Mechanical properties :
#
#
# Convention : Reuss Voigt Hill
#
# Bulk Modulus (GPa) = 31.79327 63.50119 47.64723
# Shear Modulus (GPa) = -573.00408 28.98110 -272.01149
#
# Velocity S-wave (km/s) = -16.80120 3.77849 -11.57590
# Velocity P-wave (km/s) = 18.99240 7.09357 12.45778
#
# Compressibility (1/GPa) = 0.03145320
#
# Stress axis : x y z
#
# Youngs Moduli (GPa) = 90.01550 30.16648 95.73441
#
# Poissons Ratio (x) = 0.25335 0.53235
# Poissons Ratio (y) = 0.75598 -0.22340
# Poissons Ratio (z) = 0.50055 -0.07039
#
# Static dielectric constant tensor:
#      x y z
#    x 1.725320 0.000000 0.008880 
#    y 0.000000 1.767380 0.000000 
#    z 0.008880 0.000000 1.730190 
# 
# From -- ./inp_files/41702.got.cif
#   From: 2010.05.17/outbox.cif.g08.bks.cpg/sg15_21_cif.got.tgz:41702.got - 2010.06.03 18:47:42.
