data_PCOD9293540
_publ_section_title
;
Structure prediction by ZEFSAII (Michael W. Deem and Ramdas Pophale) SiO2 
 PCOD9293540
Probable space group: C 2/C
;
_chemical_formula_sum "Si O2"
_cell_formula_units_Z 44
_cell_length_a 19.522198
_cell_length_b 4.968141
_cell_length_c 18.912384
_cell_angle_alpha 90.000000
_cell_angle_beta 116.330025
_cell_angle_gamma 90.000000
_cell_volume 1643.993400
_symmetry_space_group_name_H-M "C 2/C"
_symmetry_group_IT_number 15
_symmetry_cell_setting 'monoclinic'
loop_
_space_group_symop_operation_xyz
x,y,z
-x,y,1/2-z
-x,-y,-z
x,-y,1/2+z
1/2+x,1/2+y,z
1/2-x,1/2+y,1/2-z
1/2-x,1/2-y,-z
1/2+x,1/2-y,1/2+z
loop_
_atom_site_type_symbol
_atom_site_label
_atom_site_fract_x
_atom_site_fract_y
_atom_site_fract_z
Si Si1 0.630293 0.387751 0.383903
Si Si2 0.294851 0.314107 0.300792
Si Si3 0.274777 0.129762 0.585876
Si Si4 0.438225 0.974950 0.363576
Si Si5 0.500000 0.965798 0.750000
Si Si6 0.063678 0.204189 0.001311
O O1 0.652418 0.677854 0.363927
O O2 0.561352 0.235874 0.313804
O O3 0.613478 0.411494 0.460231
O O4 0.700073 0.178631 0.406179
O O5 0.264115 0.586839 0.253126
O O6 0.286089 0.328470 0.380831
O O7 0.379901 0.218193 0.320917
O O8 0.250000 0.250000 0.500000
O O9 0.464348 0.868119 0.299488
O O10 0.516130 0.065240 0.438121
O O11 0.398514 0.806013 0.408501
O O12 0.000000 0.000000 0.000000
#
# Coordination Sequence:
#
# PCOD9293540 Si02
#       6
#     8   8   8   8   4   8
#     4  11  26  45  71 104 140 179 239 286 356 416
#     4  12  27  46  71 104 146 190 235 287 357 429
#     4  12  26  46  72 102 142 188 235 291 347 423
#     4  10  23  43  67 100 136 180 234 288 351 421
#     4  10  22  46  68 100 138 180 228 296 352 414
#     4  10  24  42  71 100 134 183 231 299 348 411
#
# _framework density 26.764099000000002
#
# number of rings (size 3 to 8) (size 9 to 14) (size 15 to 20)
#    0.000    1.091    0.000    4.909   12.727    0.727 
#    3.273    0.000    0.000    0.000    0.000    0.000 
#    0.000    0.000    0.000    0.000    0.000    0.000 
#
# Total GULP energy -123327.916073 kJ/mol
# GULP energy per Si atom -5605.814367 kJ/mol
# Density = 2.670318 g / cm^3
# Si number density = 26.764099 Si / 1000 Ang^3
#
#
#
# Elastic Constant Matrix: (Units=GPa)
#
#
# Indices 1 2 3 4 5 6 
#
# 1 97.4865 9.8507 38.0407 0.0001 -40.7993 0.0001
# 2 9.8507 95.8571 19.9808 0.0005 -9.0792 0.0005
# 3 38.0407 19.9808 179.9642 0.0001 -27.1693 0.0002
# 4 0.0001 0.0005 0.0001 36.0266 0.0000 2.3309
# 5 -40.7993 -9.0792 -27.1693 0.0000 70.6388 0.0001
# 6 0.0001 0.0005 0.0002 2.3309 0.0001 46.2503
#
#
#
# Elastic Compliance Matrix: (Units=1/GPa)
#
#
# Indices 1 2 3 4 5 6 
#
# 1 0.014102 -0.000369 -0.001823 0.000000 0.007396 0.000000
# 2 -0.000369 0.010752 -0.000997 0.000000 0.000786 0.000000
# 3 -0.001823 -0.000997 0.006237 0.000000 0.001217 0.000000
# 4 0.000000 0.000000 0.000000 0.027848 0.000000 -0.001403
# 5 0.007396 0.000786 0.001217 0.000000 0.018998 0.000000
# 6 0.000000 0.000000 0.000000 -0.001403 0.000000 0.021692
#
#
# Mechanical properties :
#
#
# Convention : Reuss Voigt Hill
#
# Bulk Modulus (GPa) = 40.46526 56.56135 48.51331
# Shear Modulus (GPa) = 43.76565 50.94552 47.35558
#
# Velocity S-wave (km/s) = 4.04819 4.36765 4.21095
# Velocity P-wave (km/s) = 6.08297 6.82747 6.46594
#
# Compressibility (1/GPa) = 0.02471256
#
# Stress axis : x y z
#
# Youngs Moduli (GPa) = 70.91191 93.00294 160.34384
#
# Poissons Ratio (x) = 0.03428 0.29236
# Poissons Ratio (y) = 0.02614 0.15991
# Poissons Ratio (z) = 0.12930 0.09275
#
# Static dielectric constant tensor:
#      x y z
#    x 1.680320 0.000000 -0.280030 
#    y 0.000000 2.109740 0.000000 
#    z -0.280030 0.000000 1.868130 
# 
# From -- ./inp_files/212965.got.cif
#   From: 2010.05.17/outbox.cif.g08.bks.cpg/sg15_107_cif.got.tgz:212965.got - 2010.06.03 18:47:42.
