data_PCOD9293595
_publ_section_title
;
Structure prediction by ZEFSAII (Michael W. Deem and Ramdas Pophale) SiO2 
 PCOD9293595
Probable space group: C 2/C
;
_chemical_formula_sum "Si O2"
_cell_formula_units_Z 48
_cell_length_a 15.272176
_cell_length_b 8.316661
_cell_length_c 26.857563
_cell_angle_alpha 90.000000
_cell_angle_beta 145.892456
_cell_angle_gamma 90.000000
_cell_volume 1912.864777
_symmetry_space_group_name_H-M "C 2/C"
_symmetry_group_IT_number 15
_symmetry_cell_setting 'monoclinic'
loop_
_space_group_symop_operation_xyz
x,y,z
-x,y,1/2-z
-x,-y,-z
x,-y,1/2+z
1/2+x,1/2+y,z
1/2-x,1/2+y,1/2-z
1/2-x,1/2-y,-z
1/2+x,1/2-y,1/2+z
loop_
_atom_site_type_symbol
_atom_site_label
_atom_site_fract_x
_atom_site_fract_y
_atom_site_fract_z
Si Si1 0.257583 0.357122 0.052882
Si Si2 0.586535 0.909314 0.614895
Si Si3 0.961642 0.151146 0.172266
Si Si4 0.160770 0.788143 0.057306
Si Si5 0.308631 0.365755 0.883413
Si Si6 0.755748 0.286236 0.261318
O O1 0.404390 0.474104 0.129262
O O2 0.241315 0.242245 0.093373
O O3 0.250000 0.250000 0.000000
O O4 0.093857 0.455134 0.972397
O O5 0.645902 0.861869 0.588252
O O6 0.609604 0.742951 0.656362
O O7 0.690326 0.045844 0.689640
O O8 0.807134 0.258626 0.091373
O O9 0.000000 0.154968 0.250000
O O10 0.101146 0.220956 0.205074
O O11 0.200465 0.949744 0.106376
O O12 0.988833 0.821044 0.955461
O O13 0.216974 0.323207 0.790853
#
# Coordination Sequence:
#
# PCOD9293595 Si02
#       6
#     8   8   8   8   8   8
#     4  11  28  47  73 107 148 190 249 296 365 428
#     4  11  25  46  70 106 143 195 238 299 364 440
#     4  12  27  46  72 108 147 189 240 305 360 435
#     4  10  22  46  70 101 143 182 239 291 366 426
#     4  10  24  43  74 103 139 188 234 299 355 437
#     4  12  26  43  76 101 144 191 241 299 365 436
#
# _framework density 25.093254000000002
#
# number of rings (size 3 to 8) (size 9 to 14) (size 15 to 20)
#    0.000    1.000    1.667    3.000   11.667    4.000 
#    0.000    0.833    0.000    0.000    0.000    0.000 
#    0.000    0.000    0.000    0.000    0.000    0.000 
#
# Total GULP energy -134428.176805 kJ/mol
# GULP energy per Si atom -5601.174034 kJ/mol
# Density = 2.503614 g / cm^3
# Si number density = 25.093254 Si / 1000 Ang^3
#
#
#
# Elastic Constant Matrix: (Units=GPa)
#
#
# Indices 1 2 3 4 5 6 
#
# 1 89.8287 18.4427 27.2636 0.0000 -2.4387 0.0000
# 2 18.4427 97.6326 22.2204 0.0000 0.9371 0.0000
# 3 27.2636 22.2204 53.2999 0.0000 -3.2298 0.0000
# 4 0.0000 0.0000 0.0000 43.2083 0.0000 -6.7833
# 5 -2.4387 0.9371 -3.2298 0.0000 47.2349 0.0000
# 6 0.0000 0.0000 0.0000 -6.7833 0.0000 32.8758
#
#
#
# Elastic Compliance Matrix: (Units=1/GPa)
#
#
# Indices 1 2 3 4 5 6 
#
# 1 0.013281 -0.001071 -0.006330 0.000000 0.000274 0.000000
# 2 -0.001071 0.011417 -0.004247 0.000000 -0.000572 0.000000
# 3 -0.006330 -0.004247 0.023854 0.000000 0.001389 0.000000
# 4 0.000000 0.000000 0.000000 0.023918 0.000000 0.004935
# 5 0.000274 -0.000572 0.001389 0.000000 0.021291 0.000000
# 6 0.000000 0.000000 0.000000 0.004935 0.000000 0.031436
#
#
# Mechanical properties :
#
#
# Convention : Reuss Voigt Hill
#
# Bulk Modulus (GPa) = 39.59343 41.84607 40.71975
# Shear Modulus (GPa) = 31.86510 36.18610 34.02560
#
# Velocity S-wave (km/s) = 3.56739 3.80157 3.68634
# Velocity P-wave (km/s) = 5.72548 5.99847 5.86356
#
# Compressibility (1/GPa) = 0.02525672
#
# Stress axis : x y z
#
# Youngs Moduli (GPa) = 75.29624 87.59100 41.92105
#
# Poissons Ratio (x) = 0.09378 0.26538
# Poissons Ratio (y) = 0.08061 0.17802
# Poissons Ratio (z) = 0.47666 0.37196
#
# Static dielectric constant tensor:
#      x y z
#    x 1.934860 0.000000 0.021300 
#    y 0.000000 2.084490 0.000000 
#    z 0.021300 0.000000 1.977610 
# 
# From -- ./inp_files/313004.got.cif
#   From: 2010.05.17/outbox.cif.g08.bks.cpg/sg15_157_cif.got.tgz:313004.got - 2010.06.03 18:47:42.
