data_PCOD9293514
_publ_section_title
;
Structure prediction by ZEFSAII (Michael W. Deem and Ramdas Pophale) SiO2 
 PCOD9293514
Probable space group: C 2/C
;
_chemical_formula_sum "Si O2"
_cell_formula_units_Z 36
_cell_length_a 14.554823
_cell_length_b 13.551249
_cell_length_c 7.795117
_cell_angle_alpha 90.000000
_cell_angle_beta 67.031837
_cell_angle_gamma 90.000000
_cell_volume 1415.589491
_symmetry_space_group_name_H-M "C 2/C"
_symmetry_group_IT_number 15
_symmetry_cell_setting 'monoclinic'
loop_
_space_group_symop_operation_xyz
x,y,z
-x,y,1/2-z
-x,-y,-z
x,-y,1/2+z
1/2+x,1/2+y,z
1/2-x,1/2+y,1/2-z
1/2-x,1/2-y,-z
1/2+x,1/2-y,1/2+z
loop_
_atom_site_type_symbol
_atom_site_label
_atom_site_fract_x
_atom_site_fract_y
_atom_site_fract_z
Si Si1 0.706835 0.461444 0.566401
Si Si2 0.621306 0.694994 0.904447
Si Si3 0.000000 0.927829 0.250000
Si Si4 0.319960 0.118146 0.299694
Si Si5 0.500000 0.000000 0.000000
Si Si6 0.000000 0.675118 0.750000
O O1 0.701201 0.383363 0.415623
O O2 0.597274 0.506720 0.653875
O O3 0.784299 0.551048 0.482580
O O4 0.737780 0.405094 0.714317
O O5 0.526293 0.639200 0.893999
O O6 0.663322 0.765221 0.723038
O O7 0.582797 0.758653 0.094455
O O8 0.422870 0.070203 0.162829
O O9 0.539954 0.098754 0.862900
#
# Coordination Sequence:
#
# PCOD9293514 Si02
#       6
#     8   8   4   8   4   4
#     4  12  25  48  71 108 143 199 239 311 365 447
#     4  11  25  46  70 110 139 196 241 305 363 443
#     4  12  27  47  74 104 154 186 253 305 372 432
#     4  11  25  43  74 101 150 185 248 299 372 435
#     4  10  22  46  66 112 138 198 228 306 352 438
#     4  10  23  41  78  96 150 184 239 289 370 430
#
# _framework density 25.431101000000002
#
# number of rings (size 3 to 8) (size 9 to 14) (size 15 to 20)
#    0.000    0.889    2.222    4.667    3.111    8.000 
#    4.000    0.000    0.000    0.000    0.000    0.000 
#    0.000    0.000    0.000    0.000    0.000    0.000 
#
# Total GULP energy -100333.979734 kJ/mol
# GULP energy per Si atom -5574.109985 kJ/mol
# Density = 2.537322 g / cm^3
# Si number density = 25.431101 Si / 1000 Ang^3
#
#
#
# Elastic Constant Matrix: (Units=GPa)
#
#
# Indices 1 2 3 4 5 6 
#
# 1 75.0042 25.0106 16.4866 0.0000 8.3501 0.0000
# 2 25.0106 108.7846 15.8780 0.0000 -4.9146 0.0000
# 3 16.4866 15.8780 59.4717 0.0000 -12.5893 0.0000
# 4 0.0000 0.0000 0.0000 65.5603 0.0000 -116.2919
# 5 8.3501 -4.9146 -12.5893 0.0000 40.3947 0.0000
# 6 0.0000 0.0000 0.0000 -116.2919 0.0000 395.6339
#
#
#
# Elastic Compliance Matrix: (Units=1/GPa)
#
#
# Indices 1 2 3 4 5 6 
#
# 1 0.016011 -0.003233 -0.004667 0.000000 -0.005157 0.000000
# 2 -0.003233 0.010224 -0.001530 0.000000 0.001435 0.000000
# 3 -0.004667 -0.001530 0.020001 0.000000 0.007012 0.000000
# 4 0.000000 0.000000 0.000000 0.031870 0.000000 0.009368
# 5 -0.005157 0.001435 0.007012 0.000000 0.028182 0.000000
# 6 0.000000 0.000000 0.000000 0.009368 0.000000 0.005281
#
#
# Mechanical properties :
#
#
# Convention : Reuss Voigt Hill
#
# Bulk Modulus (GPa) = 36.52720 39.77899 38.15310
# Shear Modulus (GPa) = 35.82868 112.71012 74.26940
#
# Velocity S-wave (km/s) = 3.75754 6.66453 5.40995
# Velocity P-wave (km/s) = 5.76367 8.65432 7.35245
#
# Compressibility (1/GPa) = 0.02737686
#
# Stress axis : x y z
#
# Youngs Moduli (GPa) = 62.45859 97.81076 49.99689
#
# Poissons Ratio (x) = 0.31620 0.23334
# Poissons Ratio (y) = 0.20192 0.07647
# Poissons Ratio (z) = 0.29150 0.14961
#
# Static dielectric constant tensor:
#      x y z
#    x 2.137530 0.000000 0.061360 
#    y 0.000000 2.036460 0.000000 
#    z 0.061360 0.000000 2.064730 
# 
# From -- ./inp_files/37484.got.cif
#   From: 2010.05.17/outbox.cif.g08.bks.cpg/sg15_19_cif.got.tgz:37484.got - 2010.06.03 18:47:42.
