data_PCOD9293994
_publ_section_title
;
Structure prediction by ZEFSAII (Michael W. Deem and Ramdas Pophale) SiO2 
 PCOD9293994
Probable space group: C 2/C
;
_chemical_formula_sum "Si O2"
_cell_formula_units_Z 48
_cell_length_a 28.166456
_cell_length_b 5.141846
_cell_length_c 24.245737
_cell_angle_alpha 90.000000
_cell_angle_beta 143.500395
_cell_angle_gamma 90.000000
_cell_volume 2088.671844
_symmetry_space_group_name_H-M "C 2/C"
_symmetry_group_IT_number 15
_symmetry_cell_setting 'monoclinic'
loop_
_space_group_symop_operation_xyz
x,y,z
-x,y,1/2-z
-x,-y,-z
x,-y,1/2+z
1/2+x,1/2+y,z
1/2-x,1/2+y,1/2-z
1/2-x,1/2-y,-z
1/2+x,1/2-y,1/2+z
loop_
_atom_site_type_symbol
_atom_site_label
_atom_site_fract_x
_atom_site_fract_y
_atom_site_fract_z
Si Si1 0.752394 0.329395 0.721386
Si Si2 0.911730 0.094986 0.816907
Si Si3 0.654419 0.120345 0.535120
Si Si4 0.002231 0.591324 0.938358
Si Si5 0.202752 0.055431 0.994834
Si Si6 0.310998 0.340353 0.631381
O O1 0.767382 0.632754 0.746469
O O2 0.680848 0.286961 0.612324
O O3 0.831752 0.189648 0.773087
O O4 0.960015 0.868666 0.893329
O O5 0.883178 0.955230 0.733828
O O6 0.961521 0.361981 0.863866
O O7 0.591697 0.911867 0.497837
O O8 0.633292 0.318529 0.466115
O O9 0.732925 0.989510 0.582222
O O10 0.000000 0.500000 0.000000
O O11 0.273435 0.947564 0.100674
O O12 0.250000 0.250000 0.000000
O O13 0.172086 0.860009 0.918741
#
# Coordination Sequence:
#
# PCOD9293994 Si02
#       6
#     8   8   8   8   8   8
#     4  11  23  39  63  95 123 166 226 277 311 380
#     4  11  25  41  66  92 135 171 218 272 331 386
#     4  10  23  37  68  89 130 171 220 261 332 391
#     4  12  26  44  62  95 140 185 212 263 333 402
#     4   9  19  39  69  96 121 160 219 277 336 383
#     4   9  21  40  70  96 124 165 225 282 328 389
#
# _framework density 22.981110000000001
#
# number of rings (size 3 to 8) (size 9 to 14) (size 15 to 20)
#    0.000    1.667    0.000    3.500   14.000    0.000 
#    0.000    0.833    0.000    0.000    0.000    0.000 
#    0.000    0.000    0.000    0.000    0.000    0.000 
#
# Total GULP energy -133808.074798 kJ/mol
# GULP energy per Si atom -5575.336450 kJ/mol
# Density = 2.292880 g / cm^3
# Si number density = 22.981110 Si / 1000 Ang^3
#
#
#
# Elastic Constant Matrix: (Units=GPa)
#
#
# Indices 1 2 3 4 5 6 
#
# 1 64.6684 -7.5141 15.2614 -0.0026 1.8563 -0.0028
# 2 -7.5141 77.1757 -0.6608 -0.0096 6.6350 -0.0076
# 3 15.2614 -0.6608 48.7150 -0.0035 -3.8520 -0.0013
# 4 -0.0026 -0.0096 -0.0035 39.7924 -0.0008 -3.0039
# 5 1.8563 6.6350 -3.8520 -0.0008 21.6509 -0.0026
# 6 -0.0028 -0.0076 -0.0013 -3.0039 -0.0026 37.3532
#
#
#
# Elastic Compliance Matrix: (Units=1/GPa)
#
#
# Indices 1 2 3 4 5 6 
#
# 1 0.017082 0.001876 -0.005566 0.000001 -0.003030 0.000001
# 2 0.001876 0.013515 -0.000755 0.000003 -0.004437 0.000003
# 3 -0.005566 -0.000755 0.022635 0.000002 0.004736 0.000001
# 4 0.000001 0.000003 0.000002 0.025284 0.000000 0.002033
# 5 -0.003030 -0.004437 0.004736 0.000000 0.048650 0.000002
# 6 0.000001 0.000003 0.000001 0.002033 0.000002 0.026935
#
#
# Mechanical properties :
#
#
# Convention : Reuss Voigt Hill
#
# Bulk Modulus (GPa) = 22.55160 22.74803 22.64981
# Shear Modulus (GPa) = 28.12602 31.99079 30.05841
#
# Velocity S-wave (km/s) = 3.50219 3.73506 3.62050
# Velocity P-wave (km/s) = 5.11744 5.34050 5.23016
#
# Compressibility (1/GPa) = 0.04434276
#
# Stress axis : x y z
#
# Youngs Moduli (GPa) = 58.54154 73.99139 44.17868
#
# Poissons Ratio (x) = -0.13881 0.24588
# Poissons Ratio (y) = -0.10982 0.03336
# Poissons Ratio (z) = 0.32581 0.05588
#
# Static dielectric constant tensor:
#      x y z
#    x 1.908470 0.000000 -0.036500 
#    y 0.000000 1.991410 0.000000 
#    z -0.036500 0.000000 1.946140 
# 
# From -- ./inp_files/304127.got.cif
#   From: 2010.05.17/outbox.cif.g08.bks.cpg/sg15_153_cif.got.tgz:304127.got - 2010.06.03 18:47:42.
