data_PCOD9293506
_publ_section_title
;
Structure prediction by ZEFSAII (Michael W. Deem and Ramdas Pophale) SiO2 
 PCOD9293506
Probable space group: C 2/C
;
_chemical_formula_sum "Si O2"
_cell_formula_units_Z 44
_cell_length_a 9.790419
_cell_length_b 22.504652
_cell_length_c 12.216666
_cell_angle_alpha 90.000000
_cell_angle_beta 129.534008
_cell_angle_gamma 90.000000
_cell_volume 2075.963501
_symmetry_space_group_name_H-M "C 2/C"
_symmetry_group_IT_number 15
_symmetry_cell_setting 'monoclinic'
loop_
_space_group_symop_operation_xyz
x,y,z
-x,y,1/2-z
-x,-y,-z
x,-y,1/2+z
1/2+x,1/2+y,z
1/2-x,1/2+y,1/2-z
1/2-x,1/2-y,-z
1/2+x,1/2-y,1/2+z
loop_
_atom_site_type_symbol
_atom_site_label
_atom_site_fract_x
_atom_site_fract_y
_atom_site_fract_z
Si Si1 0.500000 0.588075 0.250000
Si Si2 0.500000 0.060791 0.750000
Si Si3 0.500000 0.706805 0.750000
Si Si4 0.813944 0.620383 0.863806
Si Si5 0.810866 0.499615 0.964188
Si Si6 0.045331 0.203549 0.155329
Si Si7 0.448460 0.216146 0.409262
O O1 0.327435 0.547096 0.156409
O O2 0.493180 0.634447 0.144819
O O3 0.394194 0.098465 0.788572
O O4 0.359295 0.020139 0.611809
O O5 0.653153 0.666545 0.775752
O O6 0.436828 0.750390 0.622590
O O7 0.746590 0.565752 0.904237
O O8 0.970023 0.654893 0.006852
O O9 0.000000 0.500000 0.000000
O O10 0.256947 0.206288 0.258320
O O11 0.000000 0.231953 0.250000
O O12 0.948000 0.239410 0.012158
#
# Coordination Sequence:
#
# PCOD9293506 Si02
#       7
#     4   4   4   8   8   8   8
#     4  10  23  41  70 104 143 179 242 298 358 420
#     4  10  24  44  76 100 130 194 244 306 358 416
#     4  12  27  45  62 108 147 197 230 294 370 442
#     4  11  25  44  73  98 147 184 246 294 360 433
#     4  10  22  46  66 101 140 182 237 298 364 417
#     4  10  24  39  71 105 140 177 245 297 351 428
#     4  12  24  45  66 102 146 192 233 288 370 424
#
# _framework density 21.194977000000002
#
# number of rings (size 3 to 8) (size 9 to 14) (size 15 to 20)
#    0.545    0.727    1.818    3.818    3.818    0.727 
#    6.545    4.545    0.000    0.000    0.000    0.000 
#    0.000    0.000    0.000    0.000    0.000    0.000 
#
# Total GULP energy -122747.289066 kJ/mol
# GULP energy per Si atom -5579.422230 kJ/mol
# Density = 2.114674 g / cm^3
# Si number density = 21.194977 Si / 1000 Ang^3
#
#
#
# Elastic Constant Matrix: (Units=GPa)
#
#
# Indices 1 2 3 4 5 6 
#
# 1 83.6097 34.6508 26.8871 0.0000 -5.3443 0.0000
# 2 34.6508 129.4780 25.4176 0.0000 -16.2443 0.0000
# 3 26.8871 25.4176 40.0836 0.0000 -23.1882 0.0000
# 4 0.0000 0.0000 0.0000 36.9595 0.0000 -7.7917
# 5 -5.3443 -16.2443 -23.1882 0.0000 43.3681 0.0000
# 6 0.0000 0.0000 0.0000 -7.7917 0.0000 -17.6002
#
#
#
# Elastic Compliance Matrix: (Units=1/GPa)
#
#
# Indices 1 2 3 4 5 6 
#
# 1 0.016894 -0.002703 -0.013029 0.000000 -0.005897 0.000000
# 2 -0.002703 0.009260 -0.003250 0.000000 0.001398 0.000000
# 3 -0.013029 -0.003250 0.049393 0.000000 0.023587 0.000000
# 4 0.000000 0.000000 0.000000 0.024747 0.000000 -0.010956
# 5 -0.005897 0.001398 0.023587 0.000000 0.035467 0.000000
# 6 0.000000 0.000000 0.000000 -0.010956 0.000000 -0.051967
#
#
# Mechanical properties :
#
#
# Convention : Reuss Voigt Hill
#
# Bulk Modulus (GPa) = 26.60857 47.45360 37.03109
# Shear Modulus (GPa) = 37.23390 23.62653 30.43021
#
# Velocity S-wave (km/s) = 4.19589 3.34237 3.79321
# Velocity P-wave (km/s) = 6.00461 6.11007 6.05757
#
# Compressibility (1/GPa) = 0.03758188
#
# Stress axis : x y z
#
# Youngs Moduli (GPa) = 59.19410 107.98981 20.24559
#
# Poissons Ratio (x) = 0.29191 0.26378
# Poissons Ratio (y) = 0.16001 0.06580
# Poissons Ratio (z) = 0.77125 0.35100
#
# Static dielectric constant tensor:
#      x y z
#    x 1.795870 0.000000 0.001420 
#    y 0.000000 1.802540 0.000000 
#    z 0.001420 0.000000 1.788040 
# 
# From -- ./inp_files/89234.got.cif
#   From: 2010.05.17/outbox.cif.g08.bks.cpg/sg15_45_cif.got.tgz:89234.got - 2010.06.03 18:47:42.
