data_PCOD9293651
_publ_section_title
;
Structure prediction by ZEFSAII (Michael W. Deem and Ramdas Pophale) SiO2 
 PCOD9293651
Probable space group: C 2/C
;
_chemical_formula_sum "Si O2"
_cell_formula_units_Z 48
_cell_length_a 20.189891
_cell_length_b 12.021147
_cell_length_c 27.620308
_cell_angle_alpha 90.000000
_cell_angle_beta 18.133824
_cell_angle_gamma 90.000000
_cell_volume 2086.413201
_symmetry_space_group_name_H-M "C 2/C"
_symmetry_group_IT_number 15
_symmetry_cell_setting 'monoclinic'
loop_
_space_group_symop_operation_xyz
x,y,z
-x,y,1/2-z
-x,-y,-z
x,-y,1/2+z
1/2+x,1/2+y,z
1/2-x,1/2+y,1/2-z
1/2-x,1/2-y,-z
1/2+x,1/2-y,1/2+z
loop_
_atom_site_type_symbol
_atom_site_label
_atom_site_fract_x
_atom_site_fract_y
_atom_site_fract_z
Si Si1 0.946368 0.055822 0.189555
Si Si2 0.892565 0.297225 0.975995
Si Si3 0.000000 0.825869 0.750000
Si Si4 0.417064 0.002082 0.890852
Si Si5 0.000000 0.640482 0.250000
Si Si6 0.802047 0.333173 0.151149
Si Si7 0.541330 0.219970 0.579274
O O1 0.922784 0.095593 0.260869
O O2 0.923313 0.166547 0.174039
O O3 0.786888 0.958634 0.287141
O O4 0.192849 0.016826 0.018488
O O5 0.875261 0.418926 0.964530
O O6 0.102799 0.241346 0.807603
O O7 0.690956 0.221182 0.101485
O O8 0.880398 0.303700 0.042811
O O9 0.205899 0.757887 0.591556
O O10 0.564079 0.938222 0.750317
O O11 0.500290 0.118298 0.854644
O O12 0.979200 0.316204 0.068756
#
# Coordination Sequence:
#
# PCOD9293651 Si02
#       7
#     8   8   4   8   4   8   8
#     4  11  24  46  71 107 141 190 246 299 366 432
#     4  12  25  46  74 109 147 190 248 300 368 431
#     4  10  22  46  72 102 136 194 246 294 350 438
#     4  11  23  45  73 106 144 193 246 302 354 434
#     4  12  22  44  72 110 144 194 240 308 364 428
#     4  12  27  47  73 109 148 191 241 308 370 434
#     4  11  28  45  73 106 146 195 244 302 365 439
#
# _framework density 23.005987999999999
#
# number of rings (size 3 to 8) (size 9 to 14) (size 15 to 20)
#    0.000    0.667    3.333    5.500    4.667    4.667 
#    0.000    1.667    0.000    0.000    0.000    0.000 
#    0.000    0.000    0.000    0.000    0.000    0.000 
#
# Total GULP energy -134389.947873 kJ/mol
# GULP energy per Si atom -5599.581161 kJ/mol
# Density = 2.295363 g / cm^3
# Si number density = 23.005988 Si / 1000 Ang^3
#
#
#
# Elastic Constant Matrix: (Units=GPa)
#
#
# Indices 1 2 3 4 5 6 
#
# 1 140.3833 66.4941 26.8972 -0.0052 20.0885 -0.0055
# 2 66.4941 116.0951 44.8543 0.0008 20.2147 0.1621
# 3 26.8972 44.8543 87.8924 -0.0580 6.3959 -0.0439
# 4 -0.0052 0.0008 -0.0580 13.9548 -0.0073 21.0557
# 5 20.0885 20.2147 6.3959 -0.0073 38.1859 -0.0594
# 6 -0.0055 0.1621 -0.0439 21.0557 -0.0594 67.1707
#
#
#
# Elastic Compliance Matrix: (Units=1/GPa)
#
#
# Indices 1 2 3 4 5 6 
#
# 1 0.009983 -0.005204 -0.000220 -0.000028 -0.002460 0.000020
# 2 -0.005204 0.014397 -0.005466 0.000069 -0.003968 -0.000064
# 3 -0.000220 -0.005466 0.014188 0.000047 0.000633 0.000008
# 4 -0.000028 0.000069 0.000047 0.135971 -0.000070 -0.042622
# 5 -0.002460 -0.003968 0.000633 -0.000070 0.029476 0.000058
# 6 0.000020 -0.000064 0.000008 -0.042622 0.000058 0.028248
#
#
# Mechanical properties :
#
#
# Convention : Reuss Voigt Hill
#
# Bulk Modulus (GPa) = 59.56777 68.98468 64.27622
# Shear Modulus (GPa) = 19.25742 37.60396 28.43069
#
# Velocity S-wave (km/s) = 2.89634 4.04732 3.51920
# Velocity P-wave (km/s) = 6.09373 7.20359 6.67178
#
# Compressibility (1/GPa) = 0.01678760
#
# Stress axis : x y z
#
# Youngs Moduli (GPa) = 100.17472 69.45747 70.48061
#
# Poissons Ratio (x) = 0.36148 0.01551
# Poissons Ratio (y) = 0.52134 0.38524
# Poissons Ratio (z) = 0.02204 0.37965
#
# Static dielectric constant tensor:
#      x y z
#    x 1.841150 0.000000 0.015650 
#    y 0.000000 1.866570 0.000070 
#    z 0.015650 0.000070 1.944980 
# 
# From -- ./inp_files/111826.got.cif
#   From: 2010.05.17/outbox.cif.g08.bks.cpg/sg15_56_cif.got.tgz:111826.got - 2010.06.03 18:47:42.
