data_PCOD9293458
_publ_section_title
;
Structure prediction by ZEFSAII (Michael W. Deem and Ramdas Pophale) SiO2 
 PCOD9293458
Probable space group: C 2/C
;
_chemical_formula_sum "Si O2"
_cell_formula_units_Z 32
_cell_length_a 9.042196
_cell_length_b 15.770122
_cell_length_c 14.637319
_cell_angle_alpha 90.000000
_cell_angle_beta 143.240328
_cell_angle_gamma 90.000000
_cell_volume 1249.123926
_symmetry_space_group_name_H-M "C 2/C"
_symmetry_group_IT_number 15
_symmetry_cell_setting 'monoclinic'
loop_
_space_group_symop_operation_xyz
x,y,z
-x,y,1/2-z
-x,-y,-z
x,-y,1/2+z
1/2+x,1/2+y,z
1/2-x,1/2+y,1/2-z
1/2-x,1/2-y,-z
1/2+x,1/2-y,1/2+z
loop_
_atom_site_type_symbol
_atom_site_label
_atom_site_fract_x
_atom_site_fract_y
_atom_site_fract_z
Si Si1 0.500000 0.475157 0.250000
Si Si2 0.786534 0.890268 0.531336
Si Si3 0.000000 0.328978 0.750000
Si Si4 0.990430 0.897550 0.443771
Si Si5 0.842591 0.735497 0.781371
O O1 0.713945 0.539393 0.390080
O O2 0.435441 0.426509 0.312225
O O3 0.533133 0.839844 0.396969
O O4 0.876297 0.936961 0.481273
O O5 0.994119 0.819040 0.654470
O O6 0.151124 0.267477 0.760410
O O7 0.784162 0.383595 0.596575
O O8 0.844806 0.806222 0.383993
#
# Coordination Sequence:
#
# PCOD9293458 Si02
#       5
#     4   8   4   8   8
#     4  12  27  48  74 111 150 200 240 306 387 440
#     4  10  25  45  77 110 148 190 257 307 368 438
#     4  10  23  44  78 105 152 192 254 300 369 440
#     4  11  24  48  70 112 152 196 242 309 375 442
#     4  10  22  45  78 107 145 193 251 309 364 435
#
# _framework density 25.617954999999998
#
# number of rings (size 3 to 8) (size 9 to 14) (size 15 to 20)
#    0.000    1.500    0.000    3.000   10.500    3.000 
#   18.000    0.000    0.000    0.000    0.000    0.000 
#    0.000    0.000    0.000    0.000    0.000    0.000 
#
# Total GULP energy -89328.385582 kJ/mol
# GULP energy per Si atom -5583.024099 kJ/mol
# Density = 2.555965 g / cm^3
# Si number density = 25.617955 Si / 1000 Ang^3
#
#
#
# Elastic Constant Matrix: (Units=GPa)
#
#
# Indices 1 2 3 4 5 6 
#
# 1 163.1180 62.2044 108.0173 0.0001 -9.0106 0.0000
# 2 62.2044 89.7487 65.0420 0.0004 -7.5266 0.0003
# 3 108.0173 65.0420 140.2902 0.0028 3.1734 0.0015
# 4 0.0001 0.0004 0.0028 -0.7454 0.0012 -12.1880
# 5 -9.0106 -7.5266 3.1734 0.0012 61.5494 0.0004
# 6 0.0000 0.0003 0.0015 -12.1880 0.0004 43.8872
#
#
#
# Elastic Compliance Matrix: (Units=1/GPa)
#
#
# Indices 1 2 3 4 5 6 
#
# 1 0.013168 -0.002361 -0.009092 -0.000006 0.002108 -0.000001
# 2 -0.002361 0.017583 -0.006382 -0.000002 0.002134 -0.000001
# 3 -0.009092 -0.006382 0.017155 0.000011 -0.002996 0.000003
# 4 -0.000006 -0.000002 0.000011 -0.242124 0.000003 -0.067241
# 5 0.002108 0.002134 -0.002996 0.000003 0.016971 0.000001
# 6 -0.000001 -0.000001 0.000003 -0.067241 0.000001 0.004112
#
#
# Mechanical properties :
#
#
# Convention : Reuss Voigt Hill
#
# Bulk Modulus (GPa) = 81.72718 95.96494 88.84606
# Shear Modulus (GPa) = -37.48498 31.46448 -3.01025
#
# Velocity S-wave (km/s) = -3.82937 3.50840 -1.08518
# Velocity P-wave (km/s) = 3.52413 7.34528 5.76076
#
# Compressibility (1/GPa) = 0.01223583
#
# Stress axis : x y z
#
# Youngs Moduli (GPa) = 75.94214 56.87369 58.29156
#
# Poissons Ratio (x) = 0.13427 0.52998
# Poissons Ratio (y) = 0.17929 0.37203
# Poissons Ratio (z) = 0.69045 0.36298
#
# Static dielectric constant tensor:
#      x y z
#    x 2.118990 0.000000 -0.043330 
#    y 0.000000 2.174010 0.000000 
#    z -0.043330 0.000000 2.077610 
# 
# From -- ./inp_files/76544.got.cif
#   From: 2010.05.17/outbox.cif.g08.bks.cpg/sg15_39_cif.got.tgz:76544.got - 2010.06.03 18:47:42.
