data_PCOD9293687
_publ_section_title
;
Structure prediction by ZEFSAII (Michael W. Deem and Ramdas Pophale) SiO2 
 PCOD9293687
Probable space group: C 2/C
;
_chemical_formula_sum "Si O2"
_cell_formula_units_Z 40
_cell_length_a 9.541679
_cell_length_b 12.595920
_cell_length_c 17.824980
_cell_angle_alpha 90.000000
_cell_angle_beta 47.884707
_cell_angle_gamma 90.000000
_cell_volume 1589.164089
_symmetry_space_group_name_H-M "C 2/C"
_symmetry_group_IT_number 15
_symmetry_cell_setting 'monoclinic'
loop_
_space_group_symop_operation_xyz
x,y,z
-x,y,1/2-z
-x,-y,-z
x,-y,1/2+z
1/2+x,1/2+y,z
1/2-x,1/2+y,1/2-z
1/2-x,1/2-y,-z
1/2+x,1/2-y,1/2+z
loop_
_atom_site_type_symbol
_atom_site_label
_atom_site_fract_x
_atom_site_fract_y
_atom_site_fract_z
Si Si1 0.678265 0.102319 0.729510
Si Si2 0.927693 0.795278 0.887404
Si Si3 0.849505 0.385546 0.991025
Si Si4 0.962589 0.848530 0.499171
Si Si5 0.241515 0.539518 0.340213
O O1 0.500000 0.049202 0.750000
O O2 0.568303 0.202111 0.808914
O O3 0.834296 0.140878 0.613544
O O4 0.792205 0.033819 0.750906
O O5 0.853121 0.870846 0.847623
O O6 0.750000 0.750000 0.000000
O O7 0.033151 0.862373 0.913831
O O8 0.872710 0.267189 0.014767
O O9 0.050110 0.405893 0.881536
O O10 0.687698 0.418193 0.991175
O O11 0.814935 0.456456 0.075724
#
# Coordination Sequence:
#
# PCOD9293687 Si02
#       5
#     8   8   8   8   8
#     4  12  25  46  73 116 152 197 261 319 381 462
#     4  12  22  48  79 104 151 204 246 313 398 447
#     4  10  22  46  73 103 149 197 244 312 385 446
#     4  11  24  46  77 105 150 205 243 311 393 451
#     4  11  23  46  76 107 145 201 257 310 378 467
#
# _framework density 25.170466999999999
#
# number of rings (size 3 to 8) (size 9 to 14) (size 15 to 20)
#    0.000    0.800    6.000    1.200    0.000    1.600 
#   14.400    0.000    0.000    0.000    0.000    0.000 
#    0.000    0.000    0.000    0.000    0.000    0.000 
#
# Total GULP energy -111742.007953 kJ/mol
# GULP energy per Si atom -5587.100398 kJ/mol
# Density = 2.511318 g / cm^3
# Si number density = 25.170467 Si / 1000 Ang^3
#
#
#
# Elastic Constant Matrix: (Units=GPa)
#
#
# Indices 1 2 3 4 5 6 
#
# 1 179.4245 31.7910 66.1254 0.0000 15.3441 0.0000
# 2 31.7910 99.9533 49.4433 0.0000 16.7191 0.0000
# 3 66.1254 49.4433 130.2794 0.0000 9.0481 0.0000
# 4 0.0000 0.0000 0.0000 43.2057 0.0000 3.4000
# 5 15.3441 16.7191 9.0481 0.0000 35.3754 0.0000
# 6 0.0000 0.0000 0.0000 3.4000 0.0000 32.1113
#
#
#
# Elastic Compliance Matrix: (Units=1/GPa)
#
#
# Indices 1 2 3 4 5 6 
#
# 1 0.007020 -0.000238 -0.003328 0.000000 -0.002081 0.000000
# 2 -0.000238 0.013147 -0.004525 0.000000 -0.004953 0.000000
# 3 -0.003328 -0.004525 0.011029 0.000000 0.000761 0.000000
# 4 0.000000 0.000000 0.000000 0.023340 0.000000 -0.002471
# 5 -0.002081 -0.004953 0.000761 0.000000 0.031317 0.000000
# 6 0.000000 0.000000 0.000000 -0.002471 0.000000 0.031403
#
#
# Mechanical properties :
#
#
# Convention : Reuss Voigt Hill
#
# Bulk Modulus (GPa) = 66.60291 78.26408 72.43350
# Shear Modulus (GPa) = 36.11571 39.62495 37.87033
#
# Velocity S-wave (km/s) = 3.79204 3.97200 3.88307
# Velocity P-wave (km/s) = 6.75951 7.22474 6.99599
#
# Compressibility (1/GPa) = 0.01501436
#
# Stress axis : x y z
#
# Youngs Moduli (GPa) = 142.44688 76.06230 90.66680
#
# Poissons Ratio (x) = 0.01813 0.30176
# Poissons Ratio (y) = 0.03396 0.41023
# Poissons Ratio (z) = 0.47409 0.34415
#
# Static dielectric constant tensor:
#      x y z
#    x 2.088300 0.000000 -0.036060 
#    y 0.000000 2.094450 0.000000 
#    z -0.036060 0.000000 1.948020 
# 
# From -- ./inp_files/188688.got.cif
#   From: 2010.05.17/outbox.cif.g08.bks.cpg/sg15_95_cif.got.tgz:188688.got - 2010.06.03 18:47:42.
