data_PCOD9293237
_publ_section_title
;
Structure prediction by ZEFSAII (Michael W. Deem and Ramdas Pophale) SiO2 
 PCOD9293237
Probable space group: C 2/C
;
_chemical_formula_sum "Si O2"
_cell_formula_units_Z 32
_cell_length_a 14.067076
_cell_length_b 4.854354
_cell_length_c 19.403387
_cell_angle_alpha 90.000000
_cell_angle_beta 91.820465
_cell_angle_gamma 90.000000
_cell_volume 1324.321927
_symmetry_space_group_name_H-M "C 2/C"
_symmetry_group_IT_number 15
_symmetry_cell_setting 'monoclinic'
loop_
_space_group_symop_operation_xyz
x,y,z
-x,y,1/2-z
-x,-y,-z
x,-y,1/2+z
1/2+x,1/2+y,z
1/2-x,1/2+y,1/2-z
1/2-x,1/2-y,-z
1/2+x,1/2-y,1/2+z
loop_
_atom_site_type_symbol
_atom_site_label
_atom_site_fract_x
_atom_site_fract_y
_atom_site_fract_z
Si Si1 0.033783 0.381112 0.926999
Si Si2 0.755379 0.572199 0.568461
Si Si3 0.427979 0.633049 0.374553
Si Si4 0.712052 0.675203 0.711644
O O1 0.145546 0.418122 0.924698
O O2 0.002325 0.071830 0.912125
O O3 0.976197 0.572469 0.871411
O O4 0.000000 0.500000 0.000000
O O5 0.750000 0.750000 0.500000
O O6 0.664844 0.372225 0.577438
O O7 0.745275 0.762894 0.636118
O O8 0.385916 0.490489 0.304707
O O9 0.783846 0.441141 0.741134
#
# Coordination Sequence:
#
# PCOD9293237 Si02
#       4
#     8   8   8   8
#     4  12  22  41  64 101 132 169 216 273 330 391
#     4  10  24  42  71  97 132 175 219 273 337 382
#     4  10  25  40  65  94 135 166 222 266 326 387
#     4  10  22  45  66  91 134 176 216 273 332 392
#
# _framework density 24.163311
#
# number of rings (size 3 to 8) (size 9 to 14) (size 15 to 20)
#    1.500    0.000    2.500    2.250    0.000    5.000 
#    0.000    7.500    0.000    0.000    0.000    0.000 
#    0.000    0.000    0.000    0.000    0.000    0.000 
#
# Total GULP energy -89470.327927 kJ/mol
# GULP energy per Si atom -5591.895495 kJ/mol
# Density = 2.410831 g / cm^3
# Si number density = 24.163311 Si / 1000 Ang^3
#
#
#
# Elastic Constant Matrix: (Units=GPa)
#
#
# Indices 1 2 3 4 5 6 
#
# 1 159.0607 21.8296 -6.1629 0.0000 12.6009 0.0000
# 2 21.8296 100.1240 24.3608 0.0000 7.7656 0.0000
# 3 -6.1629 24.3608 101.1789 0.0000 14.4070 0.0000
# 4 0.0000 0.0000 0.0000 41.4583 0.0000 10.7303
# 5 12.6009 7.7656 14.4070 0.0000 19.9707 0.0000
# 6 0.0000 0.0000 0.0000 10.7303 0.0000 25.6733
#
#
#
# Elastic Compliance Matrix: (Units=1/GPa)
#
#
# Indices 1 2 3 4 5 6 
#
# 1 0.006934 -0.001494 0.001474 0.000000 -0.004857 0.000000
# 2 -0.001494 0.011048 -0.002534 0.000000 -0.001526 0.000000
# 3 0.001474 -0.002534 0.011786 0.000000 -0.008447 0.000000
# 4 0.000000 0.000000 0.000000 0.027046 0.000000 -0.011304
# 5 -0.004857 -0.001526 -0.008447 0.000000 0.059825 0.000000
# 6 0.000000 0.000000 0.000000 -0.011304 0.000000 0.043676
#
#
# Mechanical properties :
#
#
# Convention : Reuss Voigt Hill
#
# Bulk Modulus (GPa) = 40.55062 48.93537 44.74300
# Shear Modulus (GPa) = 28.79473 38.77620 33.78547
#
# Velocity S-wave (km/s) = 3.45580 4.01029 3.74333
# Velocity P-wave (km/s) = 5.72204 6.46058 6.10249
#
# Compressibility (1/GPa) = 0.02466053
#
# Stress axis : x y z
#
# Youngs Moduli (GPa) = 144.22156 90.51359 84.84579
#
# Poissons Ratio (x) = 0.13519 -0.12503
# Poissons Ratio (y) = 0.21540 0.21498
# Poissons Ratio (z) = -0.21252 0.22934
#
# Static dielectric constant tensor:
#      x y z
#    x 1.920510 0.000000 0.046190 
#    y 0.000000 1.847420 0.000000 
#    z 0.046190 0.000000 2.042290 
# 
# From -- ./inp_files/241279.got.cif
#   From: 2010.05.17/outbox.cif.g08.bks.cpg/sg15_121_cif.got.tgz:241279.got - 2010.06.03 18:47:42.
