data_PCOD9293524
_publ_section_title
;
Structure prediction by ZEFSAII (Michael W. Deem and Ramdas Pophale) SiO2 
 PCOD9293524
Probable space group: C 2/C
;
_chemical_formula_sum "Si O2"
_cell_formula_units_Z 48
_cell_length_a 8.502675
_cell_length_b 13.869374
_cell_length_c 28.231565
_cell_angle_alpha 90.000000
_cell_angle_beta 143.094880
_cell_angle_gamma 90.000000
_cell_volume 1999.191466
_symmetry_space_group_name_H-M "C 2/C"
_symmetry_group_IT_number 15
_symmetry_cell_setting 'monoclinic'
loop_
_space_group_symop_operation_xyz
x,y,z
-x,y,1/2-z
-x,-y,-z
x,-y,1/2+z
1/2+x,1/2+y,z
1/2-x,1/2+y,1/2-z
1/2-x,1/2-y,-z
1/2+x,1/2-y,1/2+z
loop_
_atom_site_type_symbol
_atom_site_label
_atom_site_fract_x
_atom_site_fract_y
_atom_site_fract_z
Si Si1 0.562515 0.886549 0.058657
Si Si2 0.337186 0.812607 0.761622
Si Si3 0.288793 0.108068 0.806439
Si Si4 0.201636 0.569787 0.840901
Si Si5 0.611954 0.564985 0.389295
Si Si6 0.550557 0.259793 0.407588
O O1 0.574205 0.850185 0.114292
O O2 0.785472 0.831539 0.085264
O O3 0.670559 0.997361 0.084292
O O4 0.291716 0.871880 0.966940
O O5 0.500000 0.829474 0.750000
O O6 0.267871 0.698838 0.740949
O O7 0.459265 0.817978 0.844859
O O8 0.080621 0.878363 0.691921
O O9 0.511918 0.041147 0.838136
O O10 0.000000 0.068396 0.750000
O O11 0.434361 0.498912 0.882192
O O12 0.311075 0.678179 0.871170
O O13 0.000000 0.567034 0.750000
O O14 0.750000 0.250000 0.500000
#
# Coordination Sequence:
#
# PCOD9293524 Si02
#       6
#     8   8   8   8   8   8
#     4  10  22  46  66  98 146 183 217 284 355 398
#     4  11  22  43  70 105 129 178 237 279 337 410
#     4  11  21  41  74  94 131 184 226 269 349 410
#     4  11  22  43  68  94 137 181 219 282 341 405
#     4  10  24  42  69 100 140 175 226 286 337 414
#     4  11  24  42  71 104 139 181 234 285 344 414
#
# _framework density 24.009706000000001
#
# number of rings (size 3 to 8) (size 9 to 14) (size 15 to 20)
#    0.000    1.333    5.000    1.500    2.333    2.667 
#    0.000   15.000    3.667    0.000    0.000    0.000 
#    0.000    0.000    0.000    0.000    0.000    0.000 
#
# Total GULP energy -133750.746437 kJ/mol
# GULP energy per Si atom -5572.947768 kJ/mol
# Density = 2.395506 g / cm^3
# Si number density = 24.009706 Si / 1000 Ang^3
#
#
#
# Elastic Constant Matrix: (Units=GPa)
#
#
# Indices 1 2 3 4 5 6 
#
# 1 94.8094 20.6614 43.6036 0.0000 6.4105 0.0000
# 2 20.6614 51.8447 41.9619 0.0000 1.1927 0.0000
# 3 43.6036 41.9619 168.0055 -0.0001 -15.4635 0.0000
# 4 0.0000 0.0000 -0.0001 16.1625 0.0000 36.8388
# 5 6.4105 1.1927 -15.4635 0.0000 51.2057 0.0000
# 6 0.0000 0.0000 0.0000 36.8388 0.0000 -49.7355
#
#
#
# Elastic Compliance Matrix: (Units=1/GPa)
#
#
# Indices 1 2 3 4 5 6 
#
# 1 0.012586 -0.002684 -0.002814 0.000000 -0.002363 0.000000
# 2 -0.002684 0.025052 -0.005743 0.000000 -0.001982 0.000000
# 3 -0.002814 -0.005743 0.008395 0.000000 0.003021 0.000000
# 4 0.000000 0.000000 0.000000 0.023016 0.000000 0.017048
# 5 -0.002363 -0.001982 0.003021 0.000000 0.020783 0.000000
# 6 0.000000 0.000000 0.000000 0.017048 0.000000 -0.007479
#
#
# Mechanical properties :
#
#
# Convention : Reuss Voigt Hill
#
# Bulk Modulus (GPa) = 42.46021 58.56817 50.51419
# Shear Modulus (GPa) = 44.37172 17.42205 30.89688
#
# Velocity S-wave (km/s) = 4.30359 2.69667 3.59116
# Velocity P-wave (km/s) = 6.51287 5.84316 6.18708
#
# Compressibility (1/GPa) = 0.02355146
#
# Stress axis : x y z
#
# Youngs Moduli (GPa) = 79.45198 39.91730 119.12068
#
# Poissons Ratio (x) = 0.10715 0.33516
# Poissons Ratio (y) = 0.21327 0.68409
# Poissons Ratio (z) = 0.22355 0.22924
#
# Static dielectric constant tensor:
#      x y z
#    x 1.795980 -0.000020 0.007710 
#    y -0.000020 8.070750 0.000000 
#    z 0.007710 0.000000 1.935140 
# 
# From -- ./inp_files/308844.got.cif
#   From: 2010.05.17/outbox.cif.g08.bks.cpg/sg15_155_cif.got.tgz:308844.got - 2010.06.03 18:47:42.
