data_PCOD9293792
_publ_section_title
;
Structure prediction by ZEFSAII (Michael W. Deem and Ramdas Pophale) SiO2 
 PCOD9293792
Probable space group: C 2/C
;
_chemical_formula_sum "Si O2"
_cell_formula_units_Z 52
_cell_length_a 12.348985
_cell_length_b 7.580792
_cell_length_c 24.338003
_cell_angle_alpha 90.000000
_cell_angle_beta 56.827160
_cell_angle_gamma 90.000000
_cell_volume 1907.078550
_symmetry_space_group_name_H-M "C 2/C"
_symmetry_group_IT_number 15
_symmetry_cell_setting 'monoclinic'
loop_
_space_group_symop_operation_xyz
x,y,z
-x,y,1/2-z
-x,-y,-z
x,-y,1/2+z
1/2+x,1/2+y,z
1/2-x,1/2+y,1/2-z
1/2-x,1/2-y,-z
1/2+x,1/2-y,1/2+z
loop_
_atom_site_type_symbol
_atom_site_label
_atom_site_fract_x
_atom_site_fract_y
_atom_site_fract_z
Si Si1 0.443638 0.956485 0.075911
Si Si2 0.175767 0.127650 0.613524
Si Si3 0.899968 0.121090 0.457552
Si Si4 0.542000 0.845784 0.801715
Si Si5 0.357947 0.358030 0.094648
Si Si6 0.500000 0.428478 0.750000
Si Si7 0.298175 0.840569 0.260803
O O1 0.314378 0.840667 0.100684
O O2 0.545652 0.815044 0.073029
O O3 0.393646 0.156860 0.103306
O O4 0.500000 0.000000 0.000000
O O5 0.086600 0.298515 0.628058
O O6 0.187184 0.989304 0.560644
O O7 0.084334 0.033595 0.683142
O O8 0.836487 0.135708 0.535454
O O9 0.023030 0.989120 0.427783
O O10 0.500000 0.869071 0.750000
O O11 0.661312 0.707445 0.771818
O O12 0.617376 0.023146 0.797041
O O13 0.241784 0.410045 0.167443
O O14 0.603556 0.316451 0.755445
#
# Coordination Sequence:
#
# PCOD9293792 Si02
#       7
#     8   8   8   8   8   4   8
#     4  10  24  46  75 107 146 199 255 314 386 457
#     4  12  25  46  72 111 153 197 261 312 391 472
#     4  10  24  46  73 106 151 197 248 329 380 448
#     4  12  28  47  75 109 152 207 254 319 389 461
#     4  10  22  47  73 105 147 198 258 312 383 461
#     4  12  26  44  74 112 150 204 248 320 392 462
#     4  12  26  50  74 111 155 203 264 318 387 469
#
# _framework density 27.266836000000001
#
# number of rings (size 3 to 8) (size 9 to 14) (size 15 to 20)
#    0.000    0.923    4.615    0.923    2.154    3.692 
#    0.000    8.462    0.000    0.000    0.000    0.000 
#    0.000    0.000    0.000    0.000    0.000    0.000 
#
# Total GULP energy -145614.588606 kJ/mol
# GULP energy per Si atom -5600.561100 kJ/mol
# Density = 2.720478 g / cm^3
# Si number density = 27.266836 Si / 1000 Ang^3
#
#
#
# Elastic Constant Matrix: (Units=GPa)
#
#
# Indices 1 2 3 4 5 6 
#
# 1 134.1209 28.4370 12.6907 0.0000 -20.2480 0.0000
# 2 28.4370 97.7027 2.1168 0.0000 -3.2303 0.0000
# 3 12.6907 2.1168 96.7178 0.0000 -2.5912 0.0000
# 4 0.0000 0.0000 0.0000 46.6041 0.0000 -9.8334
# 5 -20.2480 -3.2303 -2.5912 0.0000 49.3768 0.0000
# 6 0.0000 0.0000 0.0000 -9.8334 0.0000 44.2042
#
#
#
# Elastic Compliance Matrix: (Units=1/GPa)
#
#
# Indices 1 2 3 4 5 6 
#
# 1 0.008547 -0.002357 -0.000981 0.000000 0.003299 0.000000
# 2 -0.002357 0.010912 0.000064 0.000000 -0.000249 0.000000
# 3 -0.000981 0.000064 0.010471 0.000000 0.000151 0.000000
# 4 0.000000 0.000000 0.000000 0.022514 0.000000 0.005008
# 5 0.003299 -0.000249 0.000151 0.000000 0.021597 0.000000
# 6 0.000000 0.000000 0.000000 0.005008 0.000000 0.023736
#
#
# Mechanical properties :
#
#
# Convention : Reuss Voigt Hill
#
# Bulk Modulus (GPa) = 42.77291 46.11449 44.44370
# Shear Modulus (GPa) = 44.59537 47.05682 45.82609
#
# Velocity S-wave (km/s) = 4.04854 4.15877 4.10402
# Velocity P-wave (km/s) = 6.12985 6.32531 6.22835
#
# Compressibility (1/GPa) = 0.02337928
#
# Stress axis : x y z
#
# Youngs Moduli (GPa) = 117.00471 91.64573 95.50376
#
# Poissons Ratio (x) = 0.21603 0.09373
# Poissons Ratio (y) = 0.27581 -0.00609
# Poissons Ratio (z) = 0.11484 -0.00585
#
# Static dielectric constant tensor:
#      x y z
#    x 2.219360 0.000000 0.135870 
#    y 0.000000 2.267060 0.000000 
#    z 0.135870 0.000000 2.155740 
# 
# From -- ./inp_files/291466.got.cif
#   From: 2010.05.17/outbox.cif.g08.bks.cpg/sg15_146_cif.got.tgz:291466.got - 2010.06.03 18:47:42.
