data_PCOD9293928
_publ_section_title
;
Structure prediction by ZEFSAII (Michael W. Deem and Ramdas Pophale) SiO2 
 PCOD9293928
Probable space group: C 2/C
;
_chemical_formula_sum "Si O2"
_cell_formula_units_Z 60
_cell_length_a 23.255053
_cell_length_b 20.951624
_cell_length_c 8.923928
_cell_angle_alpha 90.000000
_cell_angle_beta 135.314493
_cell_angle_gamma 90.000000
_cell_volume 3057.589207
_symmetry_space_group_name_H-M "C 2/C"
_symmetry_group_IT_number 15
_symmetry_cell_setting 'monoclinic'
loop_
_space_group_symop_operation_xyz
x,y,z
-x,y,1/2-z
-x,-y,-z
x,-y,1/2+z
1/2+x,1/2+y,z
1/2-x,1/2+y,1/2-z
1/2-x,1/2-y,-z
1/2+x,1/2-y,1/2+z
loop_
_atom_site_type_symbol
_atom_site_label
_atom_site_fract_x
_atom_site_fract_y
_atom_site_fract_z
Si Si1 0.430986 0.588918 0.370748
Si Si2 0.493426 0.722627 0.559379
Si Si3 0.428066 0.050811 0.405667
Si Si4 0.073610 0.306263 0.491650
Si Si5 0.667563 0.789539 0.375462
Si Si6 0.185893 0.481684 0.061090
Si Si7 0.500000 0.493839 0.250000
Si Si8 0.248351 0.914276 0.046175
O O1 0.488347 0.650655 0.487598
O O2 0.456346 0.539229 0.289230
O O3 0.439027 0.551273 0.542676
O O4 0.339955 0.611411 0.163262
O O5 0.500000 0.721174 0.750000
O O6 0.568758 0.761279 0.626503
O O7 0.409752 0.757874 0.351375
O O8 0.448758 0.121483 0.501692
O O9 0.500000 0.000000 0.500000
O O10 0.372918 0.019219 0.433024
O O11 0.372914 0.058871 0.155395
O O12 0.149717 0.299056 0.520526
O O13 0.000000 0.282667 0.250000
O O14 0.750000 0.750000 0.500000
O O15 0.683322 0.860216 0.341568
O O16 0.247170 0.442171 0.278498
O O17 0.231011 0.530340 0.034313
#
# Coordination Sequence:
#
# PCOD9293928 Si02
#       8
#     8   8   8   8   8   8   4   8
#     4  11  22  43  67  94 124 155 208 260 321 383
#     4  11  25  41  65  93 129 167 214 265 318 386
#     4  11  21  36  58  89 125 165 212 259 305 369
#     4  10  23  40  61  91 125 170 214 262 320 386
#     4  11  23  43  67  88 124 175 216 263 323 385
#     4  10  23  36  59  90 123 165 204 256 315 374
#     4  10  24  40  70 100 118 158 204 262 330 384
#     4  11  22  41  63  89 128 164 209 255 323 372
#
# _framework density 19.623303
#
# number of rings (size 3 to 8) (size 9 to 14) (size 15 to 20)
#    0.000    1.333    3.333    2.000   10.267    0.000 
#    0.000    0.667    5.867    0.000    0.000    0.000 
#    0.000    0.000    0.000    0.000    0.000    0.000 
#
# Total GULP energy -167414.128867 kJ/mol
# GULP energy per Si atom -5580.470962 kJ/mol
# Density = 1.957864 g / cm^3
# Si number density = 19.623303 Si / 1000 Ang^3
#
#
#
# Elastic Constant Matrix: (Units=GPa)
#
#
# Indices 1 2 3 4 5 6 
#
# 1 58.0965 20.9598 21.4801 0.0000 -11.4486 0.0000
# 2 20.9598 92.3801 20.7590 0.0000 -10.8538 0.0000
# 3 21.4801 20.7590 82.8381 0.0000 -19.9245 0.0000
# 4 0.0000 0.0000 0.0000 29.5335 0.0000 -0.0894
# 5 -11.4486 -10.8538 -19.9245 0.0000 29.9212 0.0000
# 6 0.0000 0.0000 0.0000 -0.0894 0.0000 23.6479
#
#
#
# Elastic Compliance Matrix: (Units=1/GPa)
#
#
# Indices 1 2 3 4 5 6 
#
# 1 0.020561 -0.003381 -0.003438 0.000000 0.004352 0.000000
# 2 -0.003381 0.012210 -0.001701 0.000000 0.002002 0.000000
# 3 -0.003438 -0.001701 0.015389 0.000000 0.008315 0.000000
# 4 0.000000 0.000000 0.000000 0.033860 0.000000 0.000128
# 5 0.004352 0.002002 0.008315 0.000000 0.041350 0.000000
# 6 0.000000 0.000000 0.000000 0.000128 0.000000 0.042287
#
#
# Mechanical properties :
#
#
# Convention : Reuss Voigt Hill
#
# Bulk Modulus (GPa) = 32.13376 39.96804 36.05090
# Shear Modulus (GPa) = 25.89718 27.96158 26.92938
#
# Velocity S-wave (km/s) = 3.63673 3.77890 3.70850
# Velocity P-wave (km/s) = 5.83483 6.28108 6.06206
#
# Compressibility (1/GPa) = 0.03111992
#
# Stress axis : x y z
#
# Youngs Moduli (GPa) = 48.63546 81.90291 64.97942
#
# Poissons Ratio (x) = 0.27694 0.22337
# Poissons Ratio (y) = 0.16445 0.11055
# Poissons Ratio (z) = 0.16719 0.13934
#
# Static dielectric constant tensor:
#      x y z
#    x 1.702960 0.000000 0.006020 
#    y 0.000000 1.713430 0.000000 
#    z 0.006020 0.000000 1.695420 
# 
# From -- ./inp_files/63939.got.cif
#   From: 2010.05.17/outbox.cif.g08.bks.cpg/sg15_32_cif.got.tgz:63939.got - 2010.06.03 18:47:42.
