data_PCOD9293908
_publ_section_title
;
Structure prediction by ZEFSAII (Michael W. Deem and Ramdas Pophale) SiO2 
 PCOD9293908
Probable space group: C 2/C
;
_chemical_formula_sum "Si O2"
_cell_formula_units_Z 32
_cell_length_a 21.642110
_cell_length_b 14.889927
_cell_length_c 8.673599
_cell_angle_alpha 90.000000
_cell_angle_beta 30.599572
_cell_angle_gamma 90.000000
_cell_volume 1422.784551
_symmetry_space_group_name_H-M "C 2/C"
_symmetry_group_IT_number 15
_symmetry_cell_setting 'monoclinic'
loop_
_space_group_symop_operation_xyz
x,y,z
-x,y,1/2-z
-x,-y,-z
x,-y,1/2+z
1/2+x,1/2+y,z
1/2-x,1/2+y,1/2-z
1/2-x,1/2-y,-z
1/2+x,1/2-y,1/2+z
loop_
_atom_site_type_symbol
_atom_site_label
_atom_site_fract_x
_atom_site_fract_y
_atom_site_fract_z
Si Si1 0.500000 0.470126 0.750000
Si Si2 0.738504 0.323394 0.889118
Si Si3 0.322506 0.527323 0.387362
Si Si4 0.849419 0.677055 0.841817
Si Si5 0.500000 0.754230 0.750000
O O1 0.576598 0.525604 0.462320
O O2 0.606844 0.425178 0.621136
O O3 0.848676 0.317406 0.528918
O O4 0.750000 0.250000 0.000000
O O5 0.716880 0.425266 0.992636
O O6 0.616682 0.300505 0.055156
O O7 0.207772 0.581659 0.578681
O O8 0.962428 0.692242 0.486053
O O9 0.750000 0.750000 0.000000
#
# Coordination Sequence:
#
# PCOD9293908 Si02
#       5
#     4   8   8   8   4
#     4  10  23  34  72  97 130 168 227 280 346 371
#     4  11  25  43  69  97 132 177 224 272 334 403
#     4  11  22  41  64 102 131 171 223 287 323 400
#     4  10  24  42  63  95 136 170 219 271 333 397
#     4  10  25  46  66  99 138 178 219 282 332 397
#
# _framework density 22.491108000000001
#
# number of rings (size 3 to 8) (size 9 to 14) (size 15 to 20)
#    0.000    1.500    2.500    0.750   17.500    1.000 
#    0.000    5.000    0.000    0.000    0.000    0.000 
#    0.000    0.000    0.000    0.000    0.000    0.000 
#
# Total GULP energy -89277.694714 kJ/mol
# GULP energy per Si atom -5579.855920 kJ/mol
# Density = 2.243992 g / cm^3
# Si number density = 22.491108 Si / 1000 Ang^3
#
#
#
# Elastic Constant Matrix: (Units=GPa)
#
#
# Indices 1 2 3 4 5 6 
#
# 1 88.0920 31.3711 26.0969 0.0000 32.1649 0.0000
# 2 31.3711 119.3127 52.9225 0.0000 19.8536 0.0000
# 3 26.0969 52.9225 156.2827 0.0000 43.1480 0.0000
# 4 0.0000 0.0000 0.0000 19.8310 0.0000 1.8792
# 5 32.1649 19.8536 43.1480 0.0000 42.8207 0.0000
# 6 0.0000 0.0000 0.0000 1.8792 0.0000 36.0190
#
#
#
# Elastic Compliance Matrix: (Units=1/GPa)
#
#
# Indices 1 2 3 4 5 6 
#
# 1 0.016599 -0.003022 0.001811 0.000000 -0.012892 0.000000
# 2 -0.003022 0.010500 -0.003233 0.000000 0.000660 0.000000
# 3 0.001811 -0.003233 0.009910 0.000000 -0.009847 0.000000
# 4 0.000000 0.000000 0.000000 0.050677 0.000000 -0.002644
# 5 -0.012892 0.000660 -0.009847 0.000000 0.042653 0.000000
# 6 0.000000 0.000000 0.000000 -0.002644 0.000000 0.027901
#
#
# Mechanical properties :
#
#
# Convention : Reuss Voigt Hill
#
# Bulk Modulus (GPa) = 35.56253 64.94091 50.25172
# Shear Modulus (GPa) = 28.32829 36.62062 32.47445
#
# Velocity S-wave (km/s) = 3.55284 4.03951 3.80396
# Velocity P-wave (km/s) = 5.71633 7.11994 6.45639
#
# Compressibility (1/GPa) = 0.02811949
#
# Stress axis : x y z
#
# Youngs Moduli (GPa) = 60.24557 95.23463 100.91111
#
# Poissons Ratio (x) = 0.28784 -0.18275
# Poissons Ratio (y) = 0.18209 0.32627
# Poissons Ratio (z) = -0.10911 0.30792
#
# Static dielectric constant tensor:
#      x y z
#    x 1.932780 0.000000 0.016830 
#    y 0.000000 1.846250 0.000000 
#    z 0.016830 0.000000 1.867300 
# 
# From -- ./inp_files/27666.got.cif
#   From: 2010.05.17/outbox.cif.g08.bks.cpg/sg15_14_cif.got.tgz:27666.got - 2010.06.03 18:47:42.
