data_PCOD9293682
_publ_section_title
;
Structure prediction by ZEFSAII (Michael W. Deem and Ramdas Pophale) SiO2 
 PCOD9293682
Probable space group: C 2/C
;
_chemical_formula_sum "Si O2"
_cell_formula_units_Z 40
_cell_length_a 9.625811
_cell_length_b 13.179203
_cell_length_c 12.385705
_cell_angle_alpha 90.000000
_cell_angle_beta 109.761935
_cell_angle_gamma 90.000000
_cell_volume 1478.718715
_symmetry_space_group_name_H-M "C 2/C"
_symmetry_group_IT_number 15
_symmetry_cell_setting 'monoclinic'
loop_
_space_group_symop_operation_xyz
x,y,z
-x,y,1/2-z
-x,-y,-z
x,-y,1/2+z
1/2+x,1/2+y,z
1/2-x,1/2+y,1/2-z
1/2-x,1/2-y,-z
1/2+x,1/2-y,1/2+z
loop_
_atom_site_type_symbol
_atom_site_label
_atom_site_fract_x
_atom_site_fract_y
_atom_site_fract_z
Si Si1 0.627122 0.660854 0.361165
Si Si2 0.223151 0.184808 0.761989
Si Si3 0.862607 0.517468 0.350679
Si Si4 0.669012 0.880978 0.884540
Si Si5 0.012041 0.114314 0.962680
O O1 0.500000 0.616752 0.250000
O O2 0.755971 0.577719 0.403718
O O3 0.555182 0.682589 0.457692
O O4 0.690413 0.755429 0.311006
O O5 0.335173 0.102395 0.841229
O O6 0.160884 0.270912 0.825752
O O7 0.085652 0.131298 0.667396
O O8 0.809192 0.548944 0.215540
O O9 0.024701 0.568783 0.400712
O O10 0.813434 0.871607 0.994460
O O11 0.000000 0.000000 0.000000
#
# Coordination Sequence:
#
# PCOD9293682 Si02
#       5
#     8   8   8   8   8
#     4  11  22  44  69 104 142 194 250 293 378 454
#     4  11  23  44  79 102 148 202 239 317 384 429
#     4  10  22  46  72  99 151 195 238 311 378 435
#     4  10  23  44  70 108 144 188 253 301 369 459
#     4  12  23  45  72 106 146 192 249 307 372 454
#
# _framework density 27.050446999999998
#
# number of rings (size 3 to 8) (size 9 to 14) (size 15 to 20)
#    0.000    1.200    6.000    0.600    2.800    0.000 
#   25.200   12.000    0.000    1.200    0.000    0.000 
#    0.000    0.000    0.000    0.000    0.000    0.000 
#
# Total GULP energy -112134.574906 kJ/mol
# GULP energy per Si atom -5606.728745 kJ/mol
# Density = 2.698888 g / cm^3
# Si number density = 27.050447 Si / 1000 Ang^3
#
#
#
# Elastic Constant Matrix: (Units=GPa)
#
#
# Indices 1 2 3 4 5 6 
#
# 1 190.3240 79.1849 66.9357 0.0000 26.4146 0.0000
# 2 79.1849 194.6648 58.5714 0.0000 18.7446 0.0000
# 3 66.9357 58.5714 123.7255 0.0000 33.1571 0.0000
# 4 0.0000 0.0000 0.0000 37.5135 0.0000 1.9385
# 5 26.4146 18.7446 33.1571 0.0000 52.4455 0.0000
# 6 0.0000 0.0000 0.0000 1.9385 0.0000 35.6193
#
#
#
# Elastic Compliance Matrix: (Units=1/GPa)
#
#
# Indices 1 2 3 4 5 6 
#
# 1 0.007180 -0.002020 -0.002592 0.000000 -0.001256 0.000000
# 2 -0.002020 0.006566 -0.001998 0.000000 -0.000066 0.000000
# 3 -0.002592 -0.001998 0.011906 0.000000 -0.005508 0.000000
# 4 0.000000 0.000000 0.000000 0.026732 0.000000 -0.001455
# 5 -0.001256 -0.000066 -0.005508 0.000000 0.023206 0.000000
# 6 0.000000 0.000000 0.000000 -0.001455 0.000000 0.028154
#
#
# Mechanical properties :
#
#
# Convention : Reuss Voigt Hill
#
# Bulk Modulus (GPa) = 80.42561 102.01092 91.21826
# Shear Modulus (GPa) = 41.28507 45.38381 43.33444
#
# Velocity S-wave (km/s) = 3.91093 4.10047 4.00682
# Velocity P-wave (km/s) = 7.08450 7.75962 7.42973
#
# Compressibility (1/GPa) = 0.01243385
#
# Stress axis : x y z
#
# Youngs Moduli (GPa) = 139.26654 152.29390 83.98831
#
# Poissons Ratio (x) = 0.30765 0.21768
# Poissons Ratio (y) = 0.28133 0.16779
# Poissons Ratio (z) = 0.36095 0.30425
#
# Static dielectric constant tensor:
#      x y z
#    x 2.149760 0.000000 0.000710 
#    y 0.000000 2.132450 0.000000 
#    z 0.000710 0.000000 2.080610 
# 
# From -- ./inp_files/248241.got.cif
#   From: 2010.05.17/outbox.cif.g08.bks.cpg/sg15_125_cif.got.tgz:248241.got - 2010.06.03 18:47:42.
