data_PCOD9293602
_publ_section_title
;
Structure prediction by ZEFSAII (Michael W. Deem and Ramdas Pophale) SiO2 
 PCOD9293602
Probable space group: C 2/C
;
_chemical_formula_sum "Si O2"
_cell_formula_units_Z 44
_cell_length_a 11.720702
_cell_length_b 12.565300
_cell_length_c 14.121827
_cell_angle_alpha 90.000000
_cell_angle_beta 110.407366
_cell_angle_gamma 90.000000
_cell_volume 1949.247009
_symmetry_space_group_name_H-M "C 2/C"
_symmetry_group_IT_number 15
_symmetry_cell_setting 'monoclinic'
loop_
_space_group_symop_operation_xyz
x,y,z
-x,y,1/2-z
-x,-y,-z
x,-y,1/2+z
1/2+x,1/2+y,z
1/2-x,1/2+y,1/2-z
1/2-x,1/2-y,-z
1/2+x,1/2-y,1/2+z
loop_
_atom_site_type_symbol
_atom_site_label
_atom_site_fract_x
_atom_site_fract_y
_atom_site_fract_z
Si Si1 0.500000 0.989209 0.250000
Si Si2 0.679009 0.657697 0.528529
Si Si3 0.296742 0.165939 0.141816
Si Si4 0.788541 0.374605 0.265202
Si Si5 0.427658 0.324704 0.041864
Si Si6 0.106998 0.009354 0.337758
O O1 0.431427 0.909399 0.304684
O O2 0.388488 0.072667 0.198491
O O3 0.750000 0.750000 0.500000
O O4 0.746576 0.624295 0.644006
O O5 0.547708 0.700326 0.521003
O O6 0.660733 0.572217 0.441004
O O7 0.252934 0.259253 0.202750
O O8 0.368774 0.225901 0.078384
O O9 0.171535 0.126932 0.058531
O O10 0.713118 0.462320 0.302968
O O11 0.459224 0.408778 0.132540
O O12 0.000000 0.068893 0.250000
#
# Coordination Sequence:
#
# PCOD9293602 Si02
#       6
#     4   8   8   8   8   8
#     4  12  26  44  78 104 152 198 246 314 380 448
#     4  12  27  42  72 109 151 192 250 322 377 454
#     4  10  24  45  75 101 151 202 243 319 377 451
#     4  11  27  47  71 114 148 198 261 303 387 466
#     4  10  22  46  70 105 142 194 256 305 383 454
#     4  11  24  45  74 101 142 200 251 306 382 461
#
# _framework density 22.572821000000001
#
# number of rings (size 3 to 8) (size 9 to 14) (size 15 to 20)
#    0.000    1.091    1.818    2.727   12.727    0.000 
#    0.000    3.636    0.000    0.000    0.000    0.000 
#    0.000    0.000    0.000    0.000    0.000    0.000 
#
# Total GULP energy -122841.523141 kJ/mol
# GULP energy per Si atom -5583.705597 kJ/mol
# Density = 2.252144 g / cm^3
# Si number density = 22.572821 Si / 1000 Ang^3
#
#
#
# Elastic Constant Matrix: (Units=GPa)
#
#
# Indices 1 2 3 4 5 6 
#
# 1 170.1673 64.4633 43.9433 0.0000 -30.1290 0.0000
# 2 64.4633 78.5759 45.2579 0.0000 -7.5395 0.0000
# 3 43.9433 45.2579 129.4727 0.0000 -12.2795 0.0000
# 4 0.0000 0.0000 0.0000 14.1598 0.0000 0.7324
# 5 -30.1290 -7.5395 -12.2795 0.0000 40.1503 0.0000
# 6 0.0000 0.0000 0.0000 0.7324 0.0000 26.3582
#
#
#
# Elastic Compliance Matrix: (Units=1/GPa)
#
#
# Indices 1 2 3 4 5 6 
#
# 1 0.009737 -0.007315 -0.000191 0.000000 0.005875 0.000000
# 2 -0.007315 0.021499 -0.005325 0.000000 -0.003080 0.000000
# 3 -0.000191 -0.005325 0.009826 0.000000 0.001862 0.000000
# 4 0.000000 0.000000 0.000000 0.070724 0.000000 -0.001965
# 5 0.005875 -0.003080 0.001862 0.000000 0.029306 0.000000
# 6 0.000000 0.000000 0.000000 -0.001965 0.000000 0.037993
#
#
# Mechanical properties :
#
#
# Convention : Reuss Voigt Hill
#
# Bulk Modulus (GPa) = 64.92607 76.17164 70.54885
# Shear Modulus (GPa) = 23.82330 31.10378 27.46354
#
# Velocity S-wave (km/s) = 3.25221 3.71608 3.49186
# Velocity P-wave (km/s) = 6.55194 7.22706 6.89776
#
# Compressibility (1/GPa) = 0.01540213
#
# Stress axis : x y z
#
# Youngs Moduli (GPa) = 102.70215 46.51465 101.76876
#
# Poissons Ratio (x) = 0.34023 0.01941
# Poissons Ratio (y) = 0.75122 0.54187
# Poissons Ratio (z) = 0.01959 0.24767
#
# Static dielectric constant tensor:
#      x y z
#    x 1.822610 0.000000 0.031560 
#    y 0.000000 2.200830 0.000000 
#    z 0.031560 0.000000 1.860820 
# 
# From -- ./inp_files/142332.got.cif
#   From: 2010.05.17/outbox.cif.g08.bks.cpg/sg15_72_cif.got.tgz:142332.got - 2010.06.03 18:47:42.
