data_PCOD9293816
_publ_section_title
;
Structure prediction by ZEFSAII (Michael W. Deem and Ramdas Pophale) SiO2 
 PCOD9293816
Probable space group: C 2/C
;
_chemical_formula_sum "Si O2"
_cell_formula_units_Z 52
_cell_length_a 30.018478
_cell_length_b 14.296020
_cell_length_c 18.218012
_cell_angle_alpha 90.000000
_cell_angle_beta 162.632412
_cell_angle_gamma 90.000000
_cell_volume 2333.729385
_symmetry_space_group_name_H-M "C 2/C"
_symmetry_group_IT_number 15
_symmetry_cell_setting 'monoclinic'
loop_
_space_group_symop_operation_xyz
x,y,z
-x,y,1/2-z
-x,-y,-z
x,-y,1/2+z
1/2+x,1/2+y,z
1/2-x,1/2+y,1/2-z
1/2-x,1/2-y,-z
1/2+x,1/2-y,1/2+z
loop_
_atom_site_type_symbol
_atom_site_label
_atom_site_fract_x
_atom_site_fract_y
_atom_site_fract_z
Si Si1 0.161806 0.153012 0.963214
Si Si2 0.163064 0.279492 0.162312
Si Si3 0.880468 0.892095 0.418714
Si Si4 0.742002 0.926215 0.742722
Si Si5 0.500000 0.095176 0.750000
Si Si6 0.868978 0.181904 0.745192
Si Si7 0.355743 0.730424 0.099525
O O1 0.155248 0.122909 0.867357
O O2 0.000000 0.156433 0.750000
O O3 0.265906 0.092634 0.182134
O O4 0.230986 0.256250 0.058143
O O5 0.219352 0.347253 0.187074
O O6 0.216845 0.176345 0.222641
O O7 0.257408 0.313530 0.380525
O O8 0.994697 0.259455 0.921710
O O9 0.914633 0.880017 0.386527
O O10 0.004227 0.831789 0.656564
O O11 0.868823 0.997918 0.426700
O O12 0.603108 0.955822 0.472192
O O13 0.593610 0.167901 0.848224
O O14 0.250000 0.750000 0.000000
#
# Coordination Sequence:
#
# PCOD9293816 Si02
#       7
#     8   8   8   8   4   8   8
#     4  11  22  43  68  98 142 181 232 300 354 424
#     4  11  22  44  66  98 143 183 237 298 350 427
#     4  12  23  43  73 102 136 189 239 287 370 422
#     4  11  24  44  70 100 146 183 239 299 356 423
#     4  10  22  48  64  96 148 182 226 312 350 416
#     4  11  22  41  73  95 135 192 232 285 366 429
#     4  11  20  38  74  97 133 186 237 286 357 423
#
# _framework density 22.281931
#
# number of rings (size 3 to 8) (size 9 to 14) (size 15 to 20)
#    0.000    0.923    7.692    0.000    0.000    1.846 
#    6.923    0.769    0.000    0.000    0.000    0.000 
#    0.000    0.000    0.000    0.000    0.000    0.000 
#
# Total GULP energy -144972.296684 kJ/mol
# GULP energy per Si atom -5575.857565 kJ/mol
# Density = 2.223122 g / cm^3
# Si number density = 22.281931 Si / 1000 Ang^3
#
#
#
# Elastic Constant Matrix: (Units=GPa)
#
#
# Indices 1 2 3 4 5 6 
#
# 1 172.1487 24.8327 61.9104 0.0000 -29.5774 0.0000
# 2 24.8327 74.7506 26.0970 0.0000 -11.5964 0.0000
# 3 61.9104 26.0970 90.4145 0.0000 -30.1876 0.0000
# 4 0.0000 0.0000 0.0000 -20.6812 0.0000 4.4052
# 5 -29.5774 -11.5964 -30.1876 0.0000 50.8782 0.0000
# 6 0.0000 0.0000 0.0000 4.4052 0.0000 12.6261
#
#
#
# Elastic Compliance Matrix: (Units=1/GPa)
#
#
# Indices 1 2 3 4 5 6 
#
# 1 0.007861 -0.000743 -0.004613 0.000000 0.001664 0.000000
# 2 -0.000743 0.014992 -0.003519 0.000000 0.000897 0.000000
# 3 -0.004613 -0.003519 0.017547 0.000000 0.006928 0.000000
# 4 0.000000 0.000000 0.000000 -0.045008 0.000000 0.015703
# 5 0.001664 0.000897 0.006928 0.000000 0.024937 0.000000
# 6 0.000000 0.000000 0.000000 0.015703 0.000000 0.073722
#
#
# Mechanical properties :
#
#
# Convention : Reuss Voigt Hill
#
# Bulk Modulus (GPa) = 44.14775 62.55489 53.35132
# Shear Modulus (GPa) = 41.89308 23.52952 32.71130
#
# Velocity S-wave (km/s) = 4.34076 3.25313 3.83569
# Velocity P-wave (km/s) = 6.70665 6.49967 6.60397
#
# Compressibility (1/GPa) = 0.02265121
#
# Stress axis : x y z
#
# Youngs Moduli (GPa) = 127.21316 66.70038 56.98827
#
# Poissons Ratio (x) = 0.04955 0.26287
# Poissons Ratio (y) = 0.09451 0.20055
# Poissons Ratio (z) = 0.58680 0.23472
#
# Static dielectric constant tensor:
#      x y z
#    x 1.857080 0.000000 -0.058610 
#    y 0.000000 1.801490 0.000000 
#    z -0.058610 0.000000 1.993690 
# 
# From -- ./inp_files/225521.got.cif
#   From: 2010.05.17/outbox.cif.g08.bks.cpg/sg15_113_cif.got.tgz:225521.got - 2010.06.03 18:47:42.
