data_PCOD9293210
_publ_section_title
;
Structure prediction by ZEFSAII (Michael W. Deem and Ramdas Pophale) SiO2 
 PCOD9293210
Probable space group: C 2/C
;
_chemical_formula_sum "Si O2"
_cell_formula_units_Z 44
_cell_length_a 8.872884
_cell_length_b 27.243662
_cell_length_c 10.686278
_cell_angle_alpha 90.000000
_cell_angle_beta 123.138560
_cell_angle_gamma 90.000000
_cell_volume 2163.038747
_symmetry_space_group_name_H-M "C 2/C"
_symmetry_group_IT_number 15
_symmetry_cell_setting 'monoclinic'
loop_
_space_group_symop_operation_xyz
x,y,z
-x,y,1/2-z
-x,-y,-z
x,-y,1/2+z
1/2+x,1/2+y,z
1/2-x,1/2+y,1/2-z
1/2-x,1/2-y,-z
1/2+x,1/2-y,1/2+z
loop_
_atom_site_type_symbol
_atom_site_label
_atom_site_fract_x
_atom_site_fract_y
_atom_site_fract_z
Si Si1 0.320934 0.852523 0.084191
Si Si2 0.127008 0.199224 0.707847
Si Si3 0.500000 0.120448 0.250000
Si Si4 0.019027 0.299502 0.967922
Si Si5 0.225885 0.036488 0.206302
Si Si6 0.792886 0.038423 0.020983
O O1 0.500000 0.851672 0.250000
O O2 0.165012 0.832254 0.102276
O O3 0.356068 0.817873 0.981719
O O4 0.287198 0.907587 0.027053
O O5 0.034413 0.249901 0.625788
O O6 0.000000 0.172562 0.750000
O O7 0.312353 0.209468 0.864793
O O8 0.440442 0.156817 0.111157
O O9 0.339859 0.085092 0.225709
O O10 0.259092 0.019274 0.364292
O O11 0.009605 0.044024 0.106125
O O12 0.269341 0.996713 0.119257
#
# Coordination Sequence:
#
# PCOD9293210 Si02
#       6
#     8   8   4   8   8   8
#     4  10  23  42  64  93 127 167 216 267 324 391
#     4  11  24  41  65  93 130 172 219 274 321 391
#     4  12  24  40  68  98 130 168 222 268 330 392
#     4  11  24  43  63  96 133 173 220 265 335 388
#     4  10  24  41  67  94 129 169 217 271 328 395
#     4  10  22  45  63  94 128 172 216 268 332 395
#
# _framework density 20.341754999999999
#
# number of rings (size 3 to 8) (size 9 to 14) (size 15 to 20)
#    0.000    1.455    2.727    1.091    3.818    3.636 
#    3.273    0.000    0.000    0.000    0.000    0.000 
#    0.000    0.000    0.000    0.000    0.000    0.000 
#
# Total GULP energy -122926.543639 kJ/mol
# GULP energy per Si atom -5587.570165 kJ/mol
# Density = 2.029546 g / cm^3
# Si number density = 20.341755 Si / 1000 Ang^3
#
#
#
# Elastic Constant Matrix: (Units=GPa)
#
#
# Indices 1 2 3 4 5 6 
#
# 1 82.4894 -2.5415 17.6208 0.0000 -32.2056 0.0000
# 2 -2.5415 32.0463 15.8871 0.0000 -10.0783 0.0000
# 3 17.6208 15.8871 66.2653 0.0000 -23.6796 0.0000
# 4 0.0000 0.0000 0.0000 4.5278 0.0000 -10.5015
# 5 -32.2056 -10.0783 -23.6796 0.0000 34.9445 0.0000
# 6 0.0000 0.0000 0.0000 -10.5015 0.0000 35.0917
#
#
#
# Elastic Compliance Matrix: (Units=1/GPa)
#
#
# Indices 1 2 3 4 5 6 
#
# 1 0.020833 0.008386 0.000231 0.000000 0.021776 0.000000
# 2 0.008386 0.039731 -0.006464 0.000000 0.014807 0.000000
# 3 0.000231 -0.006464 0.021098 0.000000 0.012645 0.000000
# 4 0.000000 0.000000 0.000000 0.721944 0.000000 0.216048
# 5 0.021776 0.014807 0.012645 0.000000 0.061525 0.000000
# 6 0.000000 0.000000 0.000000 0.216048 0.000000 0.093151
#
#
# Mechanical properties :
#
#
# Convention : Reuss Voigt Hill
#
# Bulk Modulus (GPa) = 11.63221 26.97042 19.30131
# Shear Modulus (GPa) = 5.08837 24.90176 14.99506
#
# Velocity S-wave (km/s) = 1.58331 3.50261 2.71801
# Velocity P-wave (km/s) = 3.01219 5.44473 4.39991
#
# Compressibility (1/GPa) = 0.08596822
#
# Stress axis : x y z
#
# Youngs Moduli (GPa) = 47.99966 25.16912 47.39794
#
# Poissons Ratio (x) = -0.21107 -0.01095
# Poissons Ratio (y) = -0.40252 0.30639
# Poissons Ratio (z) = -0.01109 0.16270
#
# Static dielectric constant tensor:
#      x y z
#    x 1.758000 0.000000 -0.008070 
#    y 0.000000 1.658210 0.000000 
#    z -0.008070 0.000000 1.724980 
# 
# From -- ./inp_files/81566.got.cif
#   From: 2010.05.17/outbox.cif.g08.bks.cpg/sg15_41_cif.got.tgz:81566.got - 2010.06.03 18:47:42.
