data_PCOD9293650
_publ_section_title
;
Structure prediction by ZEFSAII (Michael W. Deem and Ramdas Pophale) SiO2 
 PCOD9293650
Probable space group: C 2/C
;
_chemical_formula_sum "Si O2"
_cell_formula_units_Z 28
_cell_length_a 13.146496
_cell_length_b 6.265163
_cell_length_c 20.779915
_cell_angle_alpha 90.000000
_cell_angle_beta 136.929800
_cell_angle_gamma 90.000000
_cell_volume 1168.797838
_symmetry_space_group_name_H-M "C 2/C"
_symmetry_group_IT_number 15
_symmetry_cell_setting 'monoclinic'
loop_
_space_group_symop_operation_xyz
x,y,z
-x,y,1/2-z
-x,-y,-z
x,-y,1/2+z
1/2+x,1/2+y,z
1/2-x,1/2+y,1/2-z
1/2-x,1/2-y,-z
1/2+x,1/2-y,1/2+z
loop_
_atom_site_type_symbol
_atom_site_label
_atom_site_fract_x
_atom_site_fract_y
_atom_site_fract_z
Si Si1 0.590567 0.775212 0.159166
Si Si2 0.000000 0.000000 0.000000
Si Si3 0.142739 0.393343 0.993750
Si Si4 0.343163 0.496849 0.196913
O O1 0.620062 0.707104 0.245715
O O2 0.744511 0.852592 0.198422
O O3 0.469712 0.962171 0.097896
O O4 0.530479 0.576786 0.089563
O O5 0.053257 0.236536 0.999652
O O6 0.250000 0.250000 0.000000
O O7 0.247069 0.536729 0.088533
O O8 0.500000 0.393988 0.250000
#
# Coordination Sequence:
#
# PCOD9293650 Si02
#       4
#     8   4   8   8
#     4  11  27  46  75 109 154 196 253 320 381 457
#     4  10  22  46  72 100 150 192 242 306 378 444
#     4  11  26  49  77 109 152 205 251 315 390 455
#     4  11  26  47  74 110 149 197 255 310 378 455
#
# _framework density 23.956237000000002
#
# number of rings (size 3 to 8) (size 9 to 14) (size 15 to 20)
#    0.000    1.143    0.000    5.143   12.000    6.857 
#    5.143    0.000    0.000    0.000    0.000    0.000 
#    0.000    0.000    0.000    0.000    0.000    0.000 
#
# Total GULP energy -77957.241235 kJ/mol
# GULP energy per Si atom -5568.374374 kJ/mol
# Density = 2.390171 g / cm^3
# Si number density = 23.956237 Si / 1000 Ang^3
#
#
#
# Elastic Constant Matrix: (Units=GPa)
#
#
# Indices 1 2 3 4 5 6 
#
# 1 118.2972 41.9333 71.9923 0.0000 10.3951 0.0000
# 2 41.9333 85.0433 83.4125 0.0000 11.2287 0.0000
# 3 71.9923 83.4125 152.3582 0.0000 -3.7385 0.0000
# 4 0.0000 0.0000 0.0000 44.3912 0.0000 -3.2880
# 5 10.3951 11.2287 -3.7385 0.0000 36.9319 0.0000
# 6 0.0000 0.0000 0.0000 -3.2880 0.0000 15.8235
#
#
#
# Elastic Compliance Matrix: (Units=1/GPa)
#
#
# Indices 1 2 3 4 5 6 
#
# 1 0.012474 0.000672 -0.006369 0.000000 -0.004360 0.000000
# 2 0.000672 0.028944 -0.016425 0.000000 -0.010652 0.000000
# 3 -0.006369 -0.016425 0.018778 0.000000 0.008687 0.000000
# 4 0.000000 0.000000 0.000000 0.022879 0.000000 0.004754
# 5 -0.004360 -0.010652 0.008687 0.000000 0.032422 0.000000
# 6 0.000000 0.000000 0.000000 0.004754 0.000000 0.064185
#
#
# Mechanical properties :
#
#
# Convention : Reuss Voigt Hill
#
# Bulk Modulus (GPa) = 62.68740 83.37499 73.03120
# Shear Modulus (GPa) = 21.81080 29.98670 25.89875
#
# Velocity S-wave (km/s) = 3.02063 3.54182 3.29155
# Velocity P-wave (km/s) = 6.19596 7.18363 6.70800
#
# Compressibility (1/GPa) = 0.01595217
#
# Stress axis : x y z
#
# Youngs Moduli (GPa) = 80.16427 34.54984 53.25257
#
# Poissons Ratio (x) = -0.02321 0.33918
# Poissons Ratio (y) = -0.05386 0.87466
# Poissons Ratio (z) = 0.51058 0.56748
#
# Static dielectric constant tensor:
#      x y z
#    x 1.931080 0.000000 0.013070 
#    y 0.000000 1.923350 0.000000 
#    z 0.013070 0.000000 1.957830 
# 
# From -- ./inp_files/241587.got.cif
#   From: 2010.05.17/outbox.cif.g08.bks.cpg/sg15_121_cif.got.tgz:241587.got - 2010.06.03 18:47:42.
