data_PCOD9293197
_publ_section_title
;
Structure prediction by ZEFSAII (Michael W. Deem and Ramdas Pophale) SiO2 
 PCOD9293197
Probable space group: C 2/C
;
_chemical_formula_sum "Si O2"
_cell_formula_units_Z 44
_cell_length_a 5.214438
_cell_length_b 19.215094
_cell_length_c 17.760588
_cell_angle_alpha 90.000000
_cell_angle_beta 110.875455
_cell_angle_gamma 90.000000
_cell_volume 1662.724528
_symmetry_space_group_name_H-M "C 2/C"
_symmetry_group_IT_number 15
_symmetry_cell_setting 'monoclinic'
loop_
_space_group_symop_operation_xyz
x,y,z
-x,y,1/2-z
-x,-y,-z
x,-y,1/2+z
1/2+x,1/2+y,z
1/2-x,1/2+y,1/2-z
1/2-x,1/2-y,-z
1/2+x,1/2-y,1/2+z
loop_
_atom_site_type_symbol
_atom_site_label
_atom_site_fract_x
_atom_site_fract_y
_atom_site_fract_z
Si Si1 0.000000 0.459460 0.250000
Si Si2 0.500000 0.325669 0.750000
Si Si3 0.000000 0.133181 0.750000
Si Si4 0.264907 0.828944 0.416294
Si Si5 0.816000 0.988684 0.054200
Si Si6 0.882594 0.292979 0.924659
Si Si7 0.603843 0.922644 0.656465
O O1 0.271074 0.414669 0.265762
O O2 0.960991 0.509647 0.174245
O O3 0.748205 0.379343 0.762025
O O4 0.617199 0.291829 0.840499
O O5 0.194159 0.180674 0.821625
O O6 0.180946 0.908828 0.419735
O O7 0.050045 0.776876 0.431118
O O8 0.566944 0.811967 0.481471
O O9 0.835340 0.044847 0.123889
O O10 0.500000 0.000000 0.000000
O O11 0.000000 0.000000 0.000000
O O12 0.041617 0.361162 0.905316
#
# Coordination Sequence:
#
# PCOD9293197 Si02
#       7
#     4   4   4   8   8   8   8
#     4  12  26  48  80 120 156 218 268 348 402 496
#     4   8  19  45  76 107 148 207 264 330 389 484
#     4  12  29  45  80 115 170 203 272 336 425 478
#     4  11  24  47  74 115 160 209 262 335 409 489
#     4  12  26  45  77 115 155 205 264 331 400 473
#     4   9  22  47  77 109 157 210 268 331 404 494
#     4  10  22  44  79 115 152 210 274 333 402 490
#
# _framework density 26.462592999999998
#
# number of rings (size 3 to 8) (size 9 to 14) (size 15 to 20)
#    1.091    0.364    3.636    0.545    2.545    1.455 
#    0.000    2.727    0.000    0.000    0.000    0.000 
#    0.000    0.000    0.000    0.000    0.000    0.000 
#
# Total GULP energy -122587.602879 kJ/mol
# GULP energy per Si atom -5572.163767 kJ/mol
# Density = 2.640236 g / cm^3
# Si number density = 26.462593 Si / 1000 Ang^3
#
#
#
# Elastic Constant Matrix: (Units=GPa)
#
#
# Indices 1 2 3 4 5 6 
#
# 1 148.7600 42.1515 46.4020 0.0000 0.2889 0.0000
# 2 42.1515 126.7556 29.7430 0.0000 15.4833 0.0000
# 3 46.4020 29.7430 193.2909 0.0000 47.2159 0.0000
# 4 0.0000 0.0000 0.0000 788.0032 0.0000 174.1641
# 5 0.2889 15.4833 47.2159 0.0000 40.3920 0.0000
# 6 0.0000 0.0000 0.0000 174.1641 0.0000 60.7555
#
#
#
# Elastic Compliance Matrix: (Units=1/GPa)
#
#
# Indices 1 2 3 4 5 6 
#
# 1 0.008248 -0.002626 -0.002530 0.000000 0.003905 0.000000
# 2 -0.002626 0.009181 0.000102 0.000000 -0.003620 0.000000
# 3 -0.002530 0.000102 0.008076 0.000000 -0.009462 0.000000
# 4 0.000000 0.000000 0.000000 0.003463 0.000000 -0.009928
# 5 0.003905 -0.003620 -0.009462 0.000000 0.037177 0.000000
# 6 0.000000 0.000000 0.000000 -0.009928 0.000000 0.044920
#
#
# Mechanical properties :
#
#
# Convention : Reuss Voigt Hill
#
# Bulk Modulus (GPa) = 64.94744 78.37772 71.66258
# Shear Modulus (GPa) = 39.58649 201.19750 120.39199
#
# Velocity S-wave (km/s) = 3.87194 8.72903 6.75233
# Velocity P-wave (km/s) = 6.67724 11.45763 9.37717
#
# Compressibility (1/GPa) = 0.01539707
#
# Stress axis : x y z
#
# Youngs Moduli (GPa) = 121.24354 108.92404 123.81681
#
# Poissons Ratio (x) = 0.28605 0.31322
# Poissons Ratio (y) = 0.31840 -0.01262
# Poissons Ratio (z) = 0.30671 -0.01110
#
# Static dielectric constant tensor:
#      x y z
#    x 1.852710 0.000000 0.105730 
#    y 0.000000 2.038040 0.000000 
#    z 0.105730 0.000000 2.346680 
# 
# From -- ./inp_files/227406.got.cif
#   From: 2010.05.17/outbox.cif.g08.bks.cpg/sg15_114_cif.got.tgz:227406.got - 2010.06.03 18:47:42.
