data_PCOD9293088
_publ_section_title
;
Structure prediction by ZEFSAII (Michael W. Deem and Ramdas Pophale) SiO2 
 PCOD9293088
Probable space group: C 2/C
;
_chemical_formula_sum "Si O2"
_cell_formula_units_Z 56
_cell_length_a 21.973239
_cell_length_b 15.930052
_cell_length_c 8.960418
_cell_angle_alpha 90.000000
_cell_angle_beta 126.283007
_cell_angle_gamma 90.000000
_cell_volume 2528.311188
_symmetry_space_group_name_H-M "C 2/C"
_symmetry_group_IT_number 15
_symmetry_cell_setting 'monoclinic'
loop_
_space_group_symop_operation_xyz
x,y,z
-x,y,1/2-z
-x,-y,-z
x,-y,1/2+z
1/2+x,1/2+y,z
1/2-x,1/2+y,1/2-z
1/2-x,1/2-y,-z
1/2+x,1/2-y,1/2+z
loop_
_atom_site_type_symbol
_atom_site_label
_atom_site_fract_x
_atom_site_fract_y
_atom_site_fract_z
Si Si1 0.355858 0.991808 0.728743
Si Si2 0.917029 0.678813 0.441429
Si Si3 0.995373 0.908711 0.064150
Si Si4 0.411239 0.825345 0.293041
Si Si5 0.842325 0.158396 0.200162
Si Si6 0.148348 0.844951 0.145567
Si Si7 0.253235 0.997246 0.830356
O O1 0.400085 0.910312 0.843615
O O2 0.273190 0.989819 0.685684
O O3 0.393782 0.080665 0.817610
O O4 0.334436 0.989977 0.524427
O O5 0.914839 0.673296 0.618076
O O6 0.850492 0.746249 0.307889
O O7 0.004731 0.700397 0.530794
O O8 0.066645 0.865191 0.092882
O O9 0.000000 0.909275 0.250000
O O10 0.917289 0.871523 0.893354
O O11 0.000000 0.000000 0.000000
O O12 0.344635 0.758785 0.236450
O O13 0.779863 0.092101 0.163552
O O14 0.850412 0.150333 0.032926
O O15 0.202876 0.919495 0.280222
#
# Coordination Sequence:
#
# PCOD9293088 Si02
#       7
#     8   8   8   8   8   8   8
#     4  12  25  46  63  96 135 180 220 271 329 399
#     4  10  22  44  72  98 127 171 229 280 329 388
#     4  12  24  38  64 101 135 174 217 277 335 390
#     4  10  22  44  73  97 125 175 228 277 331 389
#     4  11  23  43  70  98 131 174 225 273 331 400
#     4  11  23  43  69  99 132 173 221 276 336 391
#     4  12  26  41  66  97 138 176 216 266 336 407
#
# _framework density 22.149170999999999
#
# number of rings (size 3 to 8) (size 9 to 14) (size 15 to 20)
#    0.000    0.857    5.714    1.714    2.000    2.286 
#    2.571    0.000    0.000    0.000    0.000    0.000 
#    0.000    0.000    0.000    0.000    0.000    0.000 
#
# Total GULP energy -156207.837940 kJ/mol
# GULP energy per Si atom -5578.851355 kJ/mol
# Density = 2.209876 g / cm^3
# Si number density = 22.149171 Si / 1000 Ang^3
#
#
#
# Elastic Constant Matrix: (Units=GPa)
#
#
# Indices 1 2 3 4 5 6 
#
# 1 45.7200 19.5720 -7.4145 0.0000 -1.5204 0.0000
# 2 19.5720 171.5258 28.4032 0.0000 10.9293 0.0000
# 3 -7.4145 28.4032 30.2426 0.0000 19.2762 0.0000
# 4 0.0000 0.0000 0.0000 30.4112 0.0000 8.9959
# 5 -1.5204 10.9293 19.2762 0.0000 20.9022 0.0000
# 6 0.0000 0.0000 0.0000 8.9959 0.0000 8.9970
#
#
#
# Elastic Compliance Matrix: (Units=1/GPa)
#
#
# Indices 1 2 3 4 5 6 
#
# 1 0.027346 -0.005751 0.021643 0.000000 -0.014963 0.000000
# 2 -0.005751 0.008410 -0.015136 0.000000 0.009143 0.000000
# 3 0.021643 -0.015136 0.112906 0.000000 -0.094635 0.000000
# 4 0.000000 0.000000 0.000000 0.046693 0.000000 -0.046688
# 5 -0.014963 0.009143 -0.094635 0.000000 0.129246 0.000000
# 6 0.000000 0.000000 0.000000 -0.046688 0.000000 0.157831
#
#
# Mechanical properties :
#
#
# Convention : Reuss Voigt Hill
#
# Bulk Modulus (GPa) = 6.65893 36.51219 21.58556
# Shear Modulus (GPa) = 9.41657 25.85725 17.63691
#
# Velocity S-wave (km/s) = 2.06414 3.42045 2.82490
# Velocity P-wave (km/s) = 2.94853 5.66743 4.51739
#
# Compressibility (1/GPa) = 0.15017432
#
# Stress axis : x y z
#
# Youngs Moduli (GPa) = 36.56803 118.90545 8.85691
#
# Poissons Ratio (x) = 0.68380 -0.19169
# Poissons Ratio (y) = 0.21029 0.13406
# Poissons Ratio (z) = -0.79143 1.79974
#
# Static dielectric constant tensor:
#      x y z
#    x 0.547170 0.000000 -0.510840 
#    y 0.000000 1.797840 0.000000 
#    z -0.510840 0.000000 1.539280 
# 
# From -- ./inp_files/55659.got.cif
#   From: 2010.05.17/outbox.cif.g08.bks.cpg/sg15_28_cif.got.tgz:55659.got - 2010.06.03 18:47:42.
