data_PCOD9293347
_publ_section_title
;
Structure prediction by ZEFSAII (Michael W. Deem and Ramdas Pophale) SiO2 
 PCOD9293347
Probable space group: C 2/C
;
_chemical_formula_sum "Si O2"
_cell_formula_units_Z 28
_cell_length_a 6.966926
_cell_length_b 14.173267
_cell_length_c 14.169219
_cell_angle_alpha 90.000000
_cell_angle_beta 129.749548
_cell_angle_gamma 90.000000
_cell_volume 1075.714279
_symmetry_space_group_name_H-M "C 2/C"
_symmetry_group_IT_number 15
_symmetry_cell_setting 'monoclinic'
loop_
_space_group_symop_operation_xyz
x,y,z
-x,y,1/2-z
-x,-y,-z
x,-y,1/2+z
1/2+x,1/2+y,z
1/2-x,1/2+y,1/2-z
1/2-x,1/2-y,-z
1/2+x,1/2-y,1/2+z
loop_
_atom_site_type_symbol
_atom_site_label
_atom_site_fract_x
_atom_site_fract_y
_atom_site_fract_z
Si Si1 0.000000 0.549478 0.250000
Si Si2 0.228060 0.980978 0.001945
Si Si3 0.559621 0.836553 0.022934
Si Si4 0.736024 0.719667 0.256882
O O1 0.047729 0.484090 0.352716
O O2 0.215056 0.619470 0.279901
O O3 0.269351 0.074841 0.953666
O O4 0.292062 0.885943 0.967112
O O5 0.000000 0.000000 0.000000
O O6 0.684881 0.786593 0.151319
O O7 0.475291 0.774274 0.904666
O O8 0.500000 0.729730 0.250000
#
# Coordination Sequence:
#
# PCOD9293347 Si02
#       4
#     4   8   8   8
#     4  10  24  42  68 100 138 176 240 282 354 400
#     4  10  22  45  70  97 139 187 231 287 339 426
#     4  10  24  43  69 105 135 183 237 279 355 408
#     4  11  23  42  68 102 140 177 229 294 339 415
#
# _framework density 26.029216000000002
#
# number of rings (size 3 to 8) (size 9 to 14) (size 15 to 20)
#    0.000    1.714    0.000    2.571    2.000    6.857 
#    0.000    0.000    0.000    0.000    0.000    0.000 
#    0.000    0.000    0.000    0.000    0.000    0.000 
#
# Total GULP energy -78194.709222 kJ/mol
# GULP energy per Si atom -5585.336373 kJ/mol
# Density = 2.596997 g / cm^3
# Si number density = 26.029216 Si / 1000 Ang^3
#
#
#
# Elastic Constant Matrix: (Units=GPa)
#
#
# Indices 1 2 3 4 5 6 
#
# 1 171.7933 20.4317 39.1687 0.0000 -21.2845 0.0000
# 2 20.4317 72.3308 89.5769 0.0000 -19.0491 0.0000
# 3 39.1687 89.5769 180.0906 0.0000 -43.8041 0.0000
# 4 0.0000 0.0000 0.0000 62.1054 0.0000 -15.9367
# 5 -21.2845 -19.0491 -43.8041 0.0000 46.1866 0.0000
# 6 0.0000 0.0000 0.0000 -15.9367 0.0000 10.4125
#
#
#
# Elastic Compliance Matrix: (Units=1/GPa)
#
#
# Indices 1 2 3 4 5 6 
#
# 1 0.006279 -0.000423 -0.000642 0.000000 0.002110 0.000000
# 2 -0.000423 0.036307 -0.018682 0.000000 -0.002939 0.000000
# 3 -0.000642 -0.018682 0.016949 0.000000 0.008073 0.000000
# 4 0.000000 0.000000 0.000000 0.026516 0.000000 0.040583
# 5 0.002110 -0.002939 0.008073 0.000000 0.029068 0.000000
# 6 0.000000 0.000000 0.000000 0.040583 0.000000 0.158152
#
#
# Mechanical properties :
#
#
# Convention : Reuss Voigt Hill
#
# Bulk Modulus (GPa) = 49.89728 80.28548 65.09138
# Shear Modulus (GPa) = 15.65211 42.07672 28.86442
#
# Velocity S-wave (km/s) = 2.45486 4.02496 3.33366
# Velocity P-wave (km/s) = 5.21981 7.24650 6.31499
#
# Compressibility (1/GPa) = 0.02004117
#
# Stress axis : x y z
#
# Youngs Moduli (GPa) = 159.25893 27.54257 59.00210
#
# Poissons Ratio (x) = 0.01164 0.03789
# Poissons Ratio (y) = 0.06732 1.10228
# Poissons Ratio (z) = 0.10226 0.51455
#
# Static dielectric constant tensor:
#      x y z
#    x 2.459730 0.000000 0.390080 
#    y 0.000000 2.005660 0.000000 
#    z 0.390080 0.000000 2.302450 
# 
# From -- ./inp_files/75459.got.cif
#   From: 2010.05.17/outbox.cif.g08.bks.cpg/sg15_38_cif.got.tgz:75459.got - 2010.06.03 18:47:42.
