data_PCOD9293276
_publ_section_title
;
Structure prediction by ZEFSAII (Michael W. Deem and Ramdas Pophale) SiO2 
 PCOD9293276
Probable space group: C 2/C
;
_chemical_formula_sum "Si O2"
_cell_formula_units_Z 44
_cell_length_a 20.808408
_cell_length_b 9.010345
_cell_length_c 23.009723
_cell_angle_alpha 90.000000
_cell_angle_beta 22.025619
_cell_angle_gamma 90.000000
_cell_volume 1617.884100
_symmetry_space_group_name_H-M "C 2/C"
_symmetry_group_IT_number 15
_symmetry_cell_setting 'monoclinic'
loop_
_space_group_symop_operation_xyz
x,y,z
-x,y,1/2-z
-x,-y,-z
x,-y,1/2+z
1/2+x,1/2+y,z
1/2-x,1/2+y,1/2-z
1/2-x,1/2-y,-z
1/2+x,1/2-y,1/2+z
loop_
_atom_site_type_symbol
_atom_site_label
_atom_site_fract_x
_atom_site_fract_y
_atom_site_fract_z
Si Si1 0.472346 0.029022 0.859066
Si Si2 0.400685 0.403833 0.222392
Si Si3 0.881807 0.589951 0.142195
Si Si4 0.599858 0.330228 0.946983
Si Si5 0.500000 0.217942 0.250000
Si Si6 0.649211 0.695125 0.171582
O O1 0.626972 0.132835 0.706884
O O2 0.532886 0.943512 0.865962
O O3 0.404807 0.903826 0.871086
O O4 0.328244 0.149801 0.993186
O O5 0.241975 0.302710 0.332554
O O6 0.425143 0.327166 0.264567
O O7 0.365016 0.576487 0.264059
O O8 0.561629 0.388991 0.043733
O O9 0.682945 0.571651 0.326474
O O10 0.921076 0.751846 0.082330
O O11 0.000000 0.500000 0.000000
O O12 0.500000 0.664526 0.250000
#
# Coordination Sequence:
#
# PCOD9293276 Si02
#       6
#     8   8   8   8   4   8
#     4  12  27  43  64 101 140 181 230 278 349 412
#     4  11  22  39  69  97 137 176 226 273 342 404
#     4  11  25  48  71  97 138 178 235 293 337 399
#     4  10  22  45  68 102 130 171 240 282 324 412
#     4  12  22  40  72  96 136 180 220 284 336 404
#     4  12  26  40  63  99 144 179 220 277 345 417
#
# _framework density 27.196017000000001
#
# number of rings (size 3 to 8) (size 9 to 14) (size 15 to 20)
#    0.000    0.727    7.273    0.545    5.091    2.909 
#    0.000    1.818    0.000    0.000    0.000    0.000 
#    0.000    0.000    0.000    0.000    0.000    0.000 
#
# Total GULP energy -122856.777428 kJ/mol
# GULP energy per Si atom -5584.398974 kJ/mol
# Density = 2.713412 g / cm^3
# Si number density = 27.196017 Si / 1000 Ang^3
#
#
#
# Elastic Constant Matrix: (Units=GPa)
#
#
# Indices 1 2 3 4 5 6 
#
# 1 80.8921 30.3852 39.6285 0.0005 20.5454 0.0007
# 2 30.3852 134.2463 37.6124 0.0073 8.3740 0.0000
# 3 39.6285 37.6124 165.0935 0.0070 36.9410 0.0007
# 4 0.0005 0.0073 0.0070 50.1222 -0.0030 1.3649
# 5 20.5454 8.3740 36.9410 -0.0030 38.6187 -0.0013
# 6 0.0007 0.0000 0.0007 1.3649 -0.0013 43.9091
#
#
#
# Elastic Compliance Matrix: (Units=1/GPa)
#
#
# Indices 1 2 3 4 5 6 
#
# 1 0.015810 -0.002689 -0.001820 0.000000 -0.006087 0.000000
# 2 -0.002689 0.008414 -0.001506 -0.000001 0.001046 0.000000
# 3 -0.001820 -0.001506 0.008330 -0.000001 -0.006674 0.000000
# 4 0.000000 -0.000001 -0.000001 0.019968 0.000003 -0.000621
# 5 -0.006087 0.001046 -0.006674 0.000003 0.035289 0.000001
# 6 0.000000 0.000000 0.000000 -0.000621 0.000001 0.022794
#
#
# Mechanical properties :
#
#
# Convention : Reuss Voigt Hill
#
# Bulk Modulus (GPa) = 48.72154 66.16491 57.44322
# Shear Modulus (GPa) = 38.61706 44.70371 41.66038
#
# Velocity S-wave (km/s) = 3.77231 4.05873 3.91814
# Velocity P-wave (km/s) = 6.07681 6.80780 6.45266
#
# Compressibility (1/GPa) = 0.02052480
#
# Stress axis : x y z
#
# Youngs Moduli (GPa) = 63.25182 118.84762 120.04158
#
# Poissons Ratio (x) = 0.31954 0.21853
# Poissons Ratio (y) = 0.17006 0.18074
# Poissons Ratio (z) = 0.11515 0.17894
#
# Static dielectric constant tensor:
#      x y z
#    x 2.194490 0.000000 -0.001620 
#    y 0.000000 2.304710 0.000000 
#    z -0.001620 0.000000 2.186380 
# 
# From -- ./inp_files/68387.got.cif
#   From: 2010.05.17/outbox.cif.g08.bks.cpg/sg15_35_cif.got.tgz:68387.got - 2010.06.03 18:47:42.
