data_PCOD9293934
_publ_section_title
;
Structure prediction by ZEFSAII (Michael W. Deem and Ramdas Pophale) SiO2 
 PCOD9293934
Probable space group: C 2/C
;
_chemical_formula_sum "Si O2"
_cell_formula_units_Z 56
_cell_length_a 17.818028
_cell_length_b 18.107334
_cell_length_c 16.827888
_cell_angle_alpha 90.000000
_cell_angle_beta 24.095574
_cell_angle_gamma 90.000000
_cell_volume 2216.565322
_symmetry_space_group_name_H-M "C 2/C"
_symmetry_group_IT_number 15
_symmetry_cell_setting 'monoclinic'
loop_
_space_group_symop_operation_xyz
x,y,z
-x,y,1/2-z
-x,-y,-z
x,-y,1/2+z
1/2+x,1/2+y,z
1/2-x,1/2+y,1/2-z
1/2-x,1/2-y,-z
1/2+x,1/2-y,1/2+z
loop_
_atom_site_type_symbol
_atom_site_label
_atom_site_fract_x
_atom_site_fract_y
_atom_site_fract_z
Si Si1 0.119139 0.894545 0.776765
Si Si2 0.990748 0.653301 0.653151
Si Si3 0.723119 0.329731 0.836481
Si Si4 0.500000 0.968921 0.250000
Si Si5 0.722103 0.163619 0.040785
Si Si6 0.211414 0.048243 0.646279
Si Si7 0.000000 0.787385 0.750000
Si Si8 0.142690 0.663456 0.881721
O O1 0.339864 0.887775 0.551431
O O2 0.095161 0.863126 0.889756
O O3 0.046656 0.843104 0.776442
O O4 0.078804 0.980294 0.796731
O O5 0.888727 0.592234 0.805729
O O6 0.083055 0.721621 0.611736
O O7 0.854599 0.676869 0.715477
O O8 0.705020 0.359464 0.942815
O O9 0.708084 0.240930 0.854217
O O10 0.933153 0.344248 0.611579
O O11 0.373575 0.013618 0.432631
O O12 0.500000 0.152828 0.250000
O O13 0.750000 0.250000 0.000000
O O14 0.827498 0.118253 0.871573
O O15 0.268537 0.088204 0.672891
#
# Coordination Sequence:
#
# PCOD9293934 Si02
#       8
#     8   8   8   4   8   8   4   8
#     4  10  23  36  61  90 125 162 208 260 323 370
#     4   9  20  34  61  88 116 165 209 261 307 384
#     4  11  21  40  62  95 118 167 206 262 309 376
#     4   9  18  34  54  87 116 150 200 249 320 346
#     4  12  22  40  66  93 122 164 211 259 305 377
#     4  11  21  38  58  91 122 161 203 261 312 368
#     4  11  18  40  58  85 130 160 214 253 324 380
#     4  11  21  38  63  90 126 158 212 259 310 373
#
# _framework density 25.264313000000001
#
# number of rings (size 3 to 8) (size 9 to 14) (size 15 to 20)
#    0.000    1.429    5.000    0.429    0.000    6.286 
#    1.286    0.000    0.000    1.714    0.000    0.000 
#    0.000    0.000    0.000    0.000    0.000    0.000 
#
# Total GULP energy -156071.985697 kJ/mol
# GULP energy per Si atom -5573.999489 kJ/mol
# Density = 2.520681 g / cm^3
# Si number density = 25.264313 Si / 1000 Ang^3
#
#
#
# Elastic Constant Matrix: (Units=GPa)
#
#
# Indices 1 2 3 4 5 6 
#
# 1 119.4265 35.9756 25.0844 0.0201 38.9618 -0.0181
# 2 35.9756 147.6564 22.0566 0.0263 12.3222 -0.0182
# 3 25.0844 22.0566 65.9306 -0.0007 6.3330 0.0133
# 4 0.0201 0.0263 -0.0007 30.1309 -0.0086 14.5767
# 5 38.9618 12.3222 6.3330 -0.0086 28.6210 0.0053
# 6 -0.0181 -0.0182 0.0133 14.5767 0.0053 46.8095
#
#
#
# Elastic Compliance Matrix: (Units=1/GPa)
#
#
# Indices 1 2 3 4 5 6 
#
# 1 0.016475 -0.001722 -0.003688 -0.000024 -0.020871 0.000016
# 2 -0.001722 0.007503 -0.001808 -0.000008 -0.000486 0.000005
# 3 -0.003688 -0.001808 0.016979 0.000010 0.002042 -0.000010
# 4 -0.000024 -0.000008 0.000010 0.039075 0.000047 -0.012168
# 5 -0.020871 -0.000486 0.002042 0.000047 0.063109 -0.000031
# 6 0.000016 0.000005 -0.000010 -0.012168 -0.000031 0.025152
#
#
# Mechanical properties :
#
#
# Convention : Reuss Voigt Hill
#
# Bulk Modulus (GPa) = 37.70387 55.47185 46.58786
# Shear Modulus (GPa) = 26.10020 37.77207 31.93613
#
# Velocity S-wave (km/s) = 3.21765 3.87082 3.55925
# Velocity P-wave (km/s) = 5.36289 6.47934 5.94737
#
# Compressibility (1/GPa) = 0.02652248
#
# Stress axis : x y z
#
# Youngs Moduli (GPa) = 60.69643 133.28645 58.89509
#
# Poissons Ratio (x) = 0.22946 0.21719
# Poissons Ratio (y) = 0.10449 0.10650
# Poissons Ratio (z) = 0.22383 0.24101
#
# Static dielectric constant tensor:
#      x y z
#    x 2.127010 -0.000100 0.022650 
#    y -0.000100 1.762440 0.000070 
#    z 0.022650 0.000070 1.822890 
# 
# From -- ./inp_files/216042.got.cif
#   From: 2010.05.17/outbox.cif.g08.bks.cpg/sg15_109_cif.got.tgz:216042.got - 2010.06.03 18:47:42.
