data_PCOD9293691
_publ_section_title
;
Structure prediction by ZEFSAII (Michael W. Deem and Ramdas Pophale) SiO2 
 PCOD9293691
Probable space group: C 2/C
;
_chemical_formula_sum "Si O2"
_cell_formula_units_Z 36
_cell_length_a 4.990097
_cell_length_b 24.858360
_cell_length_c 11.958264
_cell_angle_alpha 90.000000
_cell_angle_beta 71.454881
_cell_angle_gamma 90.000000
_cell_volume 1406.344120
_symmetry_space_group_name_H-M "C 2/C"
_symmetry_group_IT_number 15
_symmetry_cell_setting 'monoclinic'
loop_
_space_group_symop_operation_xyz
x,y,z
-x,y,1/2-z
-x,-y,-z
x,-y,1/2+z
1/2+x,1/2+y,z
1/2-x,1/2+y,1/2-z
1/2-x,1/2-y,-z
1/2+x,1/2-y,1/2+z
loop_
_atom_site_type_symbol
_atom_site_label
_atom_site_fract_x
_atom_site_fract_y
_atom_site_fract_z
Si Si1 0.020007 0.745131 0.879253
Si Si2 0.889487 0.491127 0.139498
Si Si3 0.000000 0.076711 0.250000
Si Si4 0.195441 0.855283 0.922502
Si Si5 0.445370 0.125422 0.928591
O O1 0.222109 0.791181 0.902056
O O2 0.000000 0.759217 0.750000
O O3 0.084488 0.681661 0.870832
O O4 0.750000 0.750000 0.000000
O O5 0.630638 0.531237 0.153684
O O6 0.907963 0.426238 0.145670
O O7 0.000000 0.508257 0.250000
O O8 0.000000 0.500000 0.000000
O O9 0.169893 0.115872 0.308157
O O10 0.896889 0.869197 0.027173
O O11 0.460583 0.876613 0.954837
#
# Coordination Sequence:
#
# PCOD9293691 Si02
#       5
#     8   8   4   8   8
#     4  10  22  46  73 108 145 193 245 311 378 451
#     4  12  27  47  73 107 150 200 252 313 375 450
#     4  12  26  44  78 102 152 198 258 298 382 448
#     4  11  24  46  74 108 144 200 245 309 369 463
#     4  11  25  46  72 107 153 186 254 307 383 437
#
# _framework density 25.598286999999999
#
# number of rings (size 3 to 8) (size 9 to 14) (size 15 to 20)
#    0.000    0.889    3.333    2.667    3.111    1.778 
#    0.000    6.667    0.000    0.000    0.000    0.000 
#    0.000    0.000    0.000    0.000    0.000    0.000 
#
# Total GULP energy -100236.325858 kJ/mol
# GULP energy per Si atom -5568.684770 kJ/mol
# Density = 2.554002 g / cm^3
# Si number density = 25.598287 Si / 1000 Ang^3
#
#
#
# Elastic Constant Matrix: (Units=GPa)
#
#
# Indices 1 2 3 4 5 6 
#
# 1 57.8580 9.7851 10.6276 0.0000 2.6251 0.0000
# 2 9.7851 217.3184 2.9155 0.0000 -8.1276 0.0000
# 3 10.6276 2.9155 127.3059 0.0000 11.2009 0.0000
# 4 0.0000 0.0000 0.0000 23.5775 0.0000 5.6257
# 5 2.6251 -8.1276 11.2009 0.0000 34.5342 0.0000
# 6 0.0000 0.0000 0.0000 5.6257 0.0000 13.8673
#
#
#
# Elastic Compliance Matrix: (Units=1/GPa)
#
#
# Indices 1 2 3 4 5 6 
#
# 1 0.017723 -0.000821 -0.001364 0.000000 -0.001098 0.000000
# 2 -0.000821 0.004686 -0.000145 0.000000 0.001212 0.000000
# 3 -0.001364 -0.000145 0.008200 0.000000 -0.002590 0.000000
# 4 0.000000 0.000000 0.000000 0.046959 0.000000 -0.019050
# 5 -0.001098 0.001212 -0.002590 0.000000 0.030166 0.000000
# 6 0.000000 0.000000 0.000000 -0.019050 0.000000 0.079840
#
#
# Mechanical properties :
#
#
# Convention : Reuss Voigt Hill
#
# Bulk Modulus (GPa) = 38.53838 49.90431 44.22134
# Shear Modulus (GPa) = 24.89004 39.67275 32.28139
#
# Velocity S-wave (km/s) = 3.12161 3.94105 3.55502
# Velocity P-wave (km/s) = 5.29909 6.34402 5.84495
#
# Compressibility (1/GPa) = 0.02594816
#
# Stress axis : x y z
#
# Youngs Moduli (GPa) = 56.42427 213.41103 121.94814
#
# Poissons Ratio (x) = 0.17516 0.16635
# Poissons Ratio (y) = 0.04631 0.01774
# Poissons Ratio (z) = 0.07697 0.03104
#
# Static dielectric constant tensor:
#      x y z
#    x 1.926650 0.000000 0.066310 
#    y 0.000000 2.170670 0.000000 
#    z 0.066310 0.000000 1.960420 
# 
# From -- ./inp_files/72457.got.cif
#   From: 2010.05.17/outbox.cif.g08.bks.cpg/sg15_37_cif.got.tgz:72457.got - 2010.06.03 18:47:42.
