data_PCOD9293555
_publ_section_title
;
Structure prediction by ZEFSAII (Michael W. Deem and Ramdas Pophale) SiO2 
 PCOD9293555
Probable space group: C 2/C
;
_chemical_formula_sum "Si O2"
_cell_formula_units_Z 36
_cell_length_a 8.672208
_cell_length_b 14.692467
_cell_length_c 29.330744
_cell_angle_alpha 90.000000
_cell_angle_beta 152.211805
_cell_angle_gamma 90.000000
_cell_volume 1742.303599
_symmetry_space_group_name_H-M "C 2/C"
_symmetry_group_IT_number 15
_symmetry_cell_setting 'monoclinic'
loop_
_space_group_symop_operation_xyz
x,y,z
-x,y,1/2-z
-x,-y,-z
x,-y,1/2+z
1/2+x,1/2+y,z
1/2-x,1/2+y,1/2-z
1/2-x,1/2-y,-z
1/2+x,1/2-y,1/2+z
loop_
_atom_site_type_symbol
_atom_site_label
_atom_site_fract_x
_atom_site_fract_y
_atom_site_fract_z
Si Si1 0.477881 0.159669 0.691303
Si Si2 0.608451 0.986979 0.891479
Si Si3 0.884457 0.432743 0.930461
Si Si4 0.173517 0.659956 0.246586
Si Si5 0.250000 0.250000 0.000000
O O1 0.500000 0.133844 0.750000
O O2 0.738357 0.239846 0.748660
O O3 0.119803 0.204028 0.589349
O O4 0.522337 0.071363 0.672026
O O5 0.427902 0.979981 0.892610
O O6 0.543989 0.892785 0.847821
O O7 0.000000 0.000000 0.000000
O O8 0.511418 0.397703 0.839164
O O9 0.118282 0.344913 0.988907
O O10 0.000000 0.500000 0.000000
O O11 0.000000 0.664000 0.250000
#
# Coordination Sequence:
#
# PCOD9293555 Si02
#       5
#     8   8   8   8   4
#     4  11  25  45  75 101 146 189 235 306 364 433
#     4  12  24  45  72 106 140 189 239 297 368 435
#     4  11  24  45  72 102 145 187 244 303 367 443
#     4  11  25  46  67 106 144 185 243 296 358 441
#     4  10  22  46  68 108 138 188 238 302 370 420
#
# _framework density 20.662299999999998
#
# number of rings (size 3 to 8) (size 9 to 14) (size 15 to 20)
#    0.000    0.889    2.222    5.333    3.111    1.778 
#    4.000    3.333    0.000    0.000    0.000    0.000 
#    0.000    0.000    0.000    0.000    0.000    0.000 
#
# Total GULP energy -100253.847744 kJ/mol
# GULP energy per Si atom -5569.658208 kJ/mol
# Density = 2.061527 g / cm^3
# Si number density = 20.662300 Si / 1000 Ang^3
#
#
#
# Elastic Constant Matrix: (Units=GPa)
#
#
# Indices 1 2 3 4 5 6 
#
# 1 161.4756 57.0560 44.6520 -0.0004 -16.5358 0.0000
# 2 57.0560 136.4965 40.3463 -0.0005 -9.5294 0.0002
# 3 44.6520 40.3463 56.7119 -0.0013 -1.7199 0.0005
# 4 -0.0004 -0.0005 -0.0013 24.6567 -0.0004 5.4916
# 5 -16.5358 -9.5294 -1.7199 -0.0004 44.7705 0.0002
# 6 0.0000 0.0002 0.0005 5.4916 0.0002 21.6000
#
#
#
# Elastic Compliance Matrix: (Units=1/GPa)
#
#
# Indices 1 2 3 4 5 6 
#
# 1 0.008590 -0.001817 -0.005393 0.000000 0.002579 0.000000
# 2 -0.001817 0.009796 -0.005502 0.000000 0.001203 0.000000
# 3 -0.005393 -0.005502 0.025728 0.000001 -0.002175 -0.000001
# 4 0.000000 0.000000 0.000001 0.042991 0.000000 -0.010930
# 5 0.002579 0.001203 -0.002175 0.000000 0.023461 0.000000
# 6 0.000000 0.000000 -0.000001 -0.010930 0.000000 0.049075
#
#
# Mechanical properties :
#
#
# Convention : Reuss Voigt Hill
#
# Bulk Modulus (GPa) = 53.50420 70.97697 62.24059
# Shear Modulus (GPa) = 26.13766 32.38073 29.25919
#
# Velocity S-wave (km/s) = 3.56053 3.96301 3.76715
# Velocity P-wave (km/s) = 6.54630 7.44084 7.00786
#
# Compressibility (1/GPa) = 0.01869012
#
# Stress axis : x y z
#
# Youngs Moduli (GPa) = 116.41297 102.08346 38.86888
#
# Poissons Ratio (x) = 0.18545 0.20961
# Poissons Ratio (y) = 0.21148 0.21387
# Poissons Ratio (z) = 0.62779 0.56169
#
# Static dielectric constant tensor:
#      x y z
#    x 1.678800 0.000000 0.011610 
#    y 0.000000 1.711150 0.000000 
#    z 0.011610 0.000000 1.743340 
# 
# From -- ./inp_files/289170.got.cif
#   From: 2010.05.17/outbox.cif.g08.bks.cpg/sg15_145_cif.got.tgz:289170.got - 2010.06.03 18:47:42.
