data_PCOD9293367
_publ_section_title
;
Structure prediction by ZEFSAII (Michael W. Deem and Ramdas Pophale) SiO2 
 PCOD9293367
Probable space group: C 2/C
;
_chemical_formula_sum "Si O2"
_cell_formula_units_Z 36
_cell_length_a 21.951755
_cell_length_b 8.975462
_cell_length_c 13.513469
_cell_angle_alpha 90.000000
_cell_angle_beta 150.775746
_cell_angle_gamma 90.000000
_cell_volume 1299.919925
_symmetry_space_group_name_H-M "C 2/C"
_symmetry_group_IT_number 15
_symmetry_cell_setting 'monoclinic'
loop_
_space_group_symop_operation_xyz
x,y,z
-x,y,1/2-z
-x,-y,-z
x,-y,1/2+z
1/2+x,1/2+y,z
1/2-x,1/2+y,1/2-z
1/2-x,1/2-y,-z
1/2+x,1/2-y,1/2+z
loop_
_atom_site_type_symbol
_atom_site_label
_atom_site_fract_x
_atom_site_fract_y
_atom_site_fract_z
Si Si1 0.087113 0.007274 0.005292
Si Si2 0.500000 0.247389 0.250000
Si Si3 0.330908 0.968642 0.979461
Si Si4 0.537182 0.806017 0.509944
Si Si5 0.203140 0.531954 0.843577
O O1 0.204847 0.047656 0.239608
O O2 0.162129 0.951168 0.013136
O O3 0.027420 0.867130 0.974258
O O4 0.001640 0.141769 0.846525
O O5 0.615405 0.136084 0.430825
O O6 0.429534 0.881772 0.049806
O O7 0.300456 0.923860 0.047794
O O8 0.405185 0.868670 0.359698
O O9 0.646380 0.867440 0.737370
#
# Coordination Sequence:
#
# PCOD9293367 Si02
#       5
#     8   4   8   8   8
#     4  11  27  45  73 113 145 183 256 309 352 439
#     4  12  26  46  72 108 156 186 242 314 348 430
#     4  11  22  48  75 100 150 196 238 301 368 439
#     4  10  22  45  71 105 145 190 242 302 363 439
#     4  10  22  45  78 100 143 202 237 290 387 428
#
# _framework density 27.694015
#
# number of rings (size 3 to 8) (size 9 to 14) (size 15 to 20)
#    0.000    1.333    2.222    2.667    3.111    4.444 
#    0.000    2.222    0.000    0.000    0.000    0.000 
#    0.000    0.000    0.000    0.000    0.000    0.000 
#
# Total GULP energy -100938.668404 kJ/mol
# GULP energy per Si atom -5607.703800 kJ/mol
# Density = 2.763098 g / cm^3
# Si number density = 27.694015 Si / 1000 Ang^3
#
#
#
# Elastic Constant Matrix: (Units=GPa)
#
#
# Indices 1 2 3 4 5 6 
#
# 1 120.1055 25.3338 23.1149 0.0000 -13.0821 0.0000
# 2 25.3338 171.7825 38.3790 0.0000 11.5223 0.0000
# 3 23.1149 38.3790 100.0362 0.0000 -21.0846 0.0000
# 4 0.0000 0.0000 0.0000 34.7014 0.0000 12.2889
# 5 -13.0821 11.5223 -21.0846 0.0000 62.6052 0.0000
# 6 0.0000 0.0000 0.0000 12.2889 0.0000 29.7581
#
#
#
# Elastic Compliance Matrix: (Units=1/GPa)
#
#
# Indices 1 2 3 4 5 6 
#
# 1 0.008997 -0.001150 -0.001288 0.000000 0.001658 0.000000
# 2 -0.001150 0.006794 -0.002858 0.000000 -0.002453 0.000000
# 3 -0.001288 -0.002858 0.012319 0.000000 0.004406 0.000000
# 4 0.000000 0.000000 0.000000 0.033754 0.000000 -0.013939
# 5 0.001658 -0.002453 0.004406 0.000000 0.018255 0.000000
# 6 0.000000 0.000000 0.000000 -0.013939 0.000000 0.039360
#
#
# Mechanical properties :
#
#
# Convention : Reuss Voigt Hill
#
# Bulk Modulus (GPa) = 57.08534 62.84217 59.96375
# Shear Modulus (GPa) = 36.78886 45.75270 41.27078
#
# Velocity S-wave (km/s) = 3.64868 4.06899 3.86455
# Velocity P-wave (km/s) = 6.19743 6.69451 6.45076
#
# Compressibility (1/GPa) = 0.01751763
#
# Stress axis : x y z
#
# Youngs Moduli (GPa) = 111.14644 147.18907 81.17532
#
# Poissons Ratio (x) = 0.16931 0.10457
# Poissons Ratio (y) = 0.12785 0.23198
# Poissons Ratio (z) = 0.14318 0.42064
#
# Static dielectric constant tensor:
#      x y z
#    x 2.211140 0.000000 -0.055890 
#    y 0.000000 2.186200 0.000000 
#    z -0.055890 0.000000 2.113160 
# 
# From -- ./inp_files/177046.got.cif
#   From: 2010.05.17/outbox.cif.g08.bks.cpg/sg15_89_cif.got.tgz:177046.got - 2010.06.03 18:47:42.
