data_PCOD9293949
_publ_section_title
;
Structure prediction by ZEFSAII (Michael W. Deem and Ramdas Pophale) SiO2 
 PCOD9293949
Probable space group: C 2/C
;
_chemical_formula_sum "Si O2"
_cell_formula_units_Z 52
_cell_length_a 29.610189
_cell_length_b 9.204766
_cell_length_c 28.488132
_cell_angle_alpha 90.000000
_cell_angle_beta 162.176751
_cell_angle_gamma 90.000000
_cell_volume 2376.594928
_symmetry_space_group_name_H-M "C 2/C"
_symmetry_group_IT_number 15
_symmetry_cell_setting 'monoclinic'
loop_
_space_group_symop_operation_xyz
x,y,z
-x,y,1/2-z
-x,-y,-z
x,-y,1/2+z
1/2+x,1/2+y,z
1/2-x,1/2+y,1/2-z
1/2-x,1/2-y,-z
1/2+x,1/2-y,1/2+z
loop_
_atom_site_type_symbol
_atom_site_label
_atom_site_fract_x
_atom_site_fract_y
_atom_site_fract_z
Si Si1 0.495565 0.915161 0.644840
Si Si2 0.106874 0.015920 0.168104
Si Si3 0.268911 0.265404 0.155636
Si Si4 0.500000 0.677707 0.250000
Si Si5 0.779146 0.625434 0.469615
Si Si6 0.349141 0.193624 0.744815
Si Si7 0.788004 0.959986 0.824762
O O1 0.649123 0.828736 0.803355
O O2 0.401771 0.798475 0.522348
O O3 0.370569 0.975182 0.555973
O O4 0.545851 0.068507 0.672023
O O5 0.069481 0.176477 0.148292
O O6 0.164305 0.922763 0.268336
O O7 0.229404 0.027443 0.248225
O O8 0.962280 0.939422 0.005147
O O9 0.287489 0.171438 0.221845
O O10 0.619542 0.597156 0.335617
O O11 0.608962 0.776029 0.389202
O O12 0.741525 0.724873 0.386324
O O13 0.257133 0.105618 0.692664
#
# Coordination Sequence:
#
# PCOD9293949 Si02
#       7
#     8   8   8   4   8   8   8
#     4  11  23  41  65  95 131 174 222 261 330 399
#     4  11  21  37  58  90 131 174 227 275 319 376
#     4  11  22  41  59  92 129 180 222 266 328 396
#     4  10  24  40  72 110 130 156 210 292 342 386
#     4  11  21  43  69 107 131 162 213 280 333 404
#     4  11  22  38  67  95 128 177 225 271 323 391
#     4  10  23  37  55  90 134 176 223 271 320 383
#
# _framework density 21.880044999999999
#
# number of rings (size 3 to 8) (size 9 to 14) (size 15 to 20)
#    0.000    1.231    4.615    1.846    0.000    0.000 
#    0.000    2.308    0.000    2.769    0.000    0.000 
#    0.000    0.000    0.000    0.000    0.000    0.000 
#
# Total GULP energy -144788.884355 kJ/mol
# GULP energy per Si atom -5568.803244 kJ/mol
# Density = 2.183024 g / cm^3
# Si number density = 21.880045 Si / 1000 Ang^3
#
#
#
# Elastic Constant Matrix: (Units=GPa)
#
#
# Indices 1 2 3 4 5 6 
#
# 1 48.6925 25.8188 16.6365 0.0052 13.0908 -0.0019
# 2 25.8188 107.1760 20.0130 0.0070 14.0683 0.0000
# 3 16.6365 20.0130 70.2911 0.0081 21.1224 -0.0043
# 4 0.0052 0.0070 0.0081 23.0417 0.0064 -2.0381
# 5 13.0908 14.0683 21.1224 0.0064 29.9869 -0.0013
# 6 -0.0019 0.0000 -0.0043 -2.0381 -0.0013 -11.7378
#
#
#
# Elastic Compliance Matrix: (Units=1/GPa)
#
#
# Indices 1 2 3 4 5 6 
#
# 1 0.025917 -0.004810 -0.002591 -0.000002 -0.007232 -0.000002
# 2 -0.004810 0.011021 -0.001366 -0.000001 -0.002109 0.000002
# 3 -0.002591 -0.001366 0.018642 -0.000003 -0.011359 -0.000005
# 4 -0.000002 -0.000001 -0.000003 0.042743 -0.000006 -0.007422
# 5 -0.007232 -0.002109 -0.011359 -0.000006 0.045496 0.000001
# 6 -0.000002 0.000002 -0.000005 -0.007422 0.000001 -0.083906
#
#
# Mechanical properties :
#
#
# Convention : Reuss Voigt Hill
#
# Bulk Modulus (GPa) = 26.28404 39.01069 32.64737
# Shear Modulus (GPa) = 55.47515 19.17089 37.32302
#
# Velocity S-wave (km/s) = 5.04076 2.96325 4.13462
# Velocity P-wave (km/s) = 6.77627 5.43837 6.14385
#
# Compressibility (1/GPa) = 0.03804590
#
# Stress axis : x y z
#
# Youngs Moduli (GPa) = 38.58411 90.73532 53.64178
#
# Poissons Ratio (x) = 0.43647 0.13900
# Poissons Ratio (y) = 0.18560 0.07326
# Poissons Ratio (z) = 0.09998 0.12392
#
# Static dielectric constant tensor:
#      x y z
#    x 1.916500 -0.000010 0.026250 
#    y -0.000010 1.786680 0.000000 
#    z 0.026250 0.000000 1.818170 
# 
# From -- ./inp_files/320221.got.cif
#   From: 2010.05.17/outbox.cif.g08.bks.cpg/sg15_161_cif.got.tgz:320221.got - 2010.06.03 18:47:42.
