data_PCOD9293605
_publ_section_title
;
Structure prediction by ZEFSAII (Michael W. Deem and Ramdas Pophale) SiO2 
 PCOD9293605
Probable space group: C 2/C
;
_chemical_formula_sum "Si O2"
_cell_formula_units_Z 32
_cell_length_a 17.792547
_cell_length_b 5.015832
_cell_length_c 21.937386
_cell_angle_alpha 90.000000
_cell_angle_beta 39.628693
_cell_angle_gamma 90.000000
_cell_volume 1248.697235
_symmetry_space_group_name_H-M "C 2/C"
_symmetry_group_IT_number 15
_symmetry_cell_setting 'monoclinic'
loop_
_space_group_symop_operation_xyz
x,y,z
-x,y,1/2-z
-x,-y,-z
x,-y,1/2+z
1/2+x,1/2+y,z
1/2-x,1/2+y,1/2-z
1/2-x,1/2-y,-z
1/2+x,1/2-y,1/2+z
loop_
_atom_site_type_symbol
_atom_site_label
_atom_site_fract_x
_atom_site_fract_y
_atom_site_fract_z
Si Si1 0.173030 0.046187 0.783321
Si Si2 0.275967 0.494020 0.441615
Si Si3 0.014205 0.252506 0.303454
Si Si4 0.464535 0.101364 0.456081
O O1 0.251138 0.315246 0.730303
O O2 0.047760 0.137380 0.892409
O O3 0.133972 0.901019 0.745314
O O4 0.250000 0.750000 0.500000
O O5 0.414915 0.533063 0.350192
O O6 0.177335 0.428975 0.452986
O O7 0.250000 0.250000 0.500000
O O8 0.000000 0.422309 0.250000
O O9 0.992976 0.425101 0.377728
O O10 0.500000 0.000000 0.500000
#
# Coordination Sequence:
#
# PCOD9293605 Si02
#       4
#     8   8   8   8
#     4  12  26  49  73 111 153 205 252 316 381 457
#     4  10  22  46  70 106 143 193 246 302 371 446
#     4  11  26  49  76 110 153 206 255 315 384 456
#     4  11  26  49  78 116 152 198 253 319 386 455
#
# _framework density 25.626707
#
# number of rings (size 3 to 8) (size 9 to 14) (size 15 to 20)
#    0.000    1.000    5.000    0.000    3.500    2.000 
#    9.000    0.000    0.000    0.000    0.000    0.000 
#    0.000    0.000    0.000    0.000    0.000    0.000 
#
# Total GULP energy -89120.206969 kJ/mol
# GULP energy per Si atom -5570.012936 kJ/mol
# Density = 2.556838 g / cm^3
# Si number density = 25.626707 Si / 1000 Ang^3
#
#
#
# Elastic Constant Matrix: (Units=GPa)
#
#
# Indices 1 2 3 4 5 6 
#
# 1 233.4805 32.4536 40.8549 -0.0084 -3.7010 0.2405
# 2 32.4536 138.8457 27.7579 -0.0265 0.4668 0.0402
# 3 40.8549 27.7579 109.4623 -0.0109 -13.1908 0.0130
# 4 -0.0084 -0.0265 -0.0109 31.5942 0.0021 -15.5012
# 5 -3.7010 0.4668 -13.1908 0.0021 61.5228 -0.0706
# 6 0.2405 0.0402 0.0130 -15.5012 -0.0706 27.7087
#
#
#
# Elastic Compliance Matrix: (Units=1/GPa)
#
#
# Indices 1 2 3 4 5 6 
#
# 1 0.004662 -0.000780 -0.001548 -0.000026 -0.000046 -0.000053
# 2 -0.000780 0.007731 -0.001727 0.000005 -0.000476 -0.000002
# 3 -0.001548 -0.001727 0.010410 0.000013 0.002152 0.000024
# 4 -0.000026 0.000005 0.000013 0.043626 0.000028 0.024406
# 5 -0.000046 -0.000476 0.002152 0.000028 0.016716 0.000058
# 6 -0.000053 -0.000002 0.000024 0.024406 0.000058 0.049744
#
#
# Mechanical properties :
#
#
# Convention : Reuss Voigt Hill
#
# Bulk Modulus (GPa) = 68.05191 75.99125 72.02158
# Shear Modulus (GPa) = 34.27092 49.54662 41.90877
#
# Velocity S-wave (km/s) = 3.66090 4.40181 4.04834
# Velocity P-wave (km/s) = 6.66950 7.45333 7.07228
#
# Compressibility (1/GPa) = 0.01469466
#
# Stress axis : x y z
#
# Youngs Moduli (GPa) = 214.52048 129.34305 96.05819
#
# Poissons Ratio (x) = 0.10089 0.14865
# Poissons Ratio (y) = 0.16734 0.16587
# Poissons Ratio (z) = 0.33197 0.22334
#
# Static dielectric constant tensor:
#      x y z
#    x 1.947790 -0.000110 0.157500 
#    y -0.000110 2.000620 0.000180 
#    z 0.157500 0.000180 2.219620 
# 
# From -- ./inp_files/158056.got.cif
#   From: 2010.05.17/outbox.cif.g08.bks.cpg/sg15_80_cif.got.tgz:158056.got - 2010.06.03 18:47:42.
