data_PCOD9293615
_publ_section_title
;
Structure prediction by ZEFSAII (Michael W. Deem and Ramdas Pophale) SiO2 
 PCOD9293615
Probable space group: C 2/C
;
_chemical_formula_sum "Si O2"
_cell_formula_units_Z 36
_cell_length_a 11.605532
_cell_length_b 18.780683
_cell_length_c 9.399054
_cell_angle_alpha 90.000000
_cell_angle_beta 61.285926
_cell_angle_gamma 90.000000
_cell_volume 1796.694038
_symmetry_space_group_name_H-M "C 2/C"
_symmetry_group_IT_number 15
_symmetry_cell_setting 'monoclinic'
loop_
_space_group_symop_operation_xyz
x,y,z
-x,y,1/2-z
-x,-y,-z
x,-y,1/2+z
1/2+x,1/2+y,z
1/2-x,1/2+y,1/2-z
1/2-x,1/2-y,-z
1/2+x,1/2-y,1/2+z
loop_
_atom_site_type_symbol
_atom_site_label
_atom_site_fract_x
_atom_site_fract_y
_atom_site_fract_z
Si Si1 0.301514 0.814656 0.064393
Si Si2 0.857353 0.954767 0.398428
Si Si3 0.245503 0.931030 0.740878
Si Si4 0.500000 0.892751 0.750000
Si Si5 0.156893 0.224504 0.185005
O O1 0.198021 0.878945 0.121834
O O2 0.328971 0.784350 0.202539
O O3 0.250000 0.750000 0.000000
O O4 0.429401 0.844820 0.910086
O O5 0.851718 0.952883 0.572447
O O6 0.000000 0.966293 0.250000
O O7 0.767830 0.016502 0.383714
O O8 0.386840 0.934679 0.733918
O O9 0.211902 0.850803 0.712087
O O10 0.000000 0.216097 0.250000
O O11 0.250000 0.250000 0.000000
#
# Coordination Sequence:
#
# PCOD9293615 Si02
#       5
#     8   8   8   4   8
#     4  11  24  43  71  97 130 181 219 280 338 412
#     4  11  25  42  70  96 135 175 227 272 339 404
#     4  11  25  44  67  99 132 182 220 284 331 408
#     4  10  22  46  70  96 136 170 238 270 348 402
#     4  12  27  44  69 103 141 175 231 289 341 405
#
# _framework density 20.036799999999999
#
# number of rings (size 3 to 8) (size 9 to 14) (size 15 to 20)
#    0.000    0.889    4.444    2.667    7.778    3.556 
#    2.000    0.000    0.000    0.000    0.000    0.000 
#    0.000    0.000    0.000    0.000    0.000    0.000 
#
# Total GULP energy -100595.106751 kJ/mol
# GULP energy per Si atom -5588.617042 kJ/mol
# Density = 1.999120 g / cm^3
# Si number density = 20.036800 Si / 1000 Ang^3
#
#
#
# Elastic Constant Matrix: (Units=GPa)
#
#
# Indices 1 2 3 4 5 6 
#
# 1 90.4345 21.7782 41.7145 0.0000 -7.7279 0.0000
# 2 21.7782 84.7948 20.4780 0.0000 16.0796 0.0000
# 3 41.7145 20.4780 128.4876 0.0000 10.4512 0.0000
# 4 0.0000 0.0000 0.0000 33.1341 0.0000 13.4981
# 5 -7.7279 16.0796 10.4512 0.0000 34.8858 0.0000
# 6 0.0000 0.0000 0.0000 13.4981 0.0000 9.6855
#
#
#
# Elastic Compliance Matrix: (Units=1/GPa)
#
#
# Indices 1 2 3 4 5 6 
#
# 1 0.014697 -0.003866 -0.004679 0.000000 0.006439 0.000000
# 2 -0.003866 0.014275 -0.000426 0.000000 -0.007308 0.000000
# 3 -0.004679 -0.000426 0.009674 0.000000 -0.003739 0.000000
# 4 0.000000 0.000000 0.000000 0.069819 0.000000 -0.097303
# 5 0.006439 -0.007308 -0.003739 0.000000 0.034580 0.000000
# 6 0.000000 0.000000 0.000000 -0.097303 0.000000 0.238852
#
#
# Mechanical properties :
#
#
# Convention : Reuss Voigt Hill
#
# Bulk Modulus (GPa) = 48.29820 52.40651 50.35235
# Shear Modulus (GPa) = 12.29286 30.19084 21.24185
#
# Velocity S-wave (km/s) = 2.47961 3.88592 3.25951
# Velocity P-wave (km/s) = 5.68815 6.80777 6.27299
#
# Compressibility (1/GPa) = 0.02070471
#
# Stress axis : x y z
#
# Youngs Moduli (GPa) = 68.03944 70.05398 103.37060
#
# Poissons Ratio (x) = 0.27082 0.48370
# Poissons Ratio (y) = 0.26303 0.04399
# Poissons Ratio (z) = 0.31838 0.02981
#
# Static dielectric constant tensor:
#      x y z
#    x 1.666620 0.000000 0.075190 
#    y 0.000000 1.673290 0.000000 
#    z 0.075190 0.000000 1.573380 
# 
# From -- ./inp_files/30116.got.cif
#   From: 2010.05.17/outbox.cif.g08.bks.cpg/sg15_16_cif.got.tgz:30116.got - 2010.06.03 18:47:42.
