data_PCOD9293849
_publ_section_title
;
Structure prediction by ZEFSAII (Michael W. Deem and Ramdas Pophale) SiO2 
 PCOD9293849
Probable space group: C 2/C
;
_chemical_formula_sum "Si O2"
_cell_formula_units_Z 60
_cell_length_a 10.884569
_cell_length_b 19.123828
_cell_length_c 12.800396
_cell_angle_alpha 90.000000
_cell_angle_beta 111.579570
_cell_angle_gamma 90.000000
_cell_volume 2477.703362
_symmetry_space_group_name_H-M "C 2/C"
_symmetry_group_IT_number 15
_symmetry_cell_setting 'monoclinic'
loop_
_space_group_symop_operation_xyz
x,y,z
-x,y,1/2-z
-x,-y,-z
x,-y,1/2+z
1/2+x,1/2+y,z
1/2-x,1/2+y,1/2-z
1/2-x,1/2-y,-z
1/2+x,1/2-y,1/2+z
loop_
_atom_site_type_symbol
_atom_site_label
_atom_site_fract_x
_atom_site_fract_y
_atom_site_fract_z
Si Si1 0.667675 0.820645 0.973492
Si Si2 0.726860 0.588061 0.585154
Si Si3 0.000000 0.038243 0.250000
Si Si4 0.213387 0.342150 0.766619
Si Si5 0.762907 0.965131 0.072999
Si Si6 0.010911 0.841136 0.925838
Si Si7 0.628556 0.999638 0.216918
Si Si8 0.888796 0.305238 0.990390
O O1 0.624119 0.828079 0.839672
O O2 0.539435 0.822359 0.006017
O O3 0.750000 0.750000 0.000000
O O4 0.757258 0.886078 0.034040
O O5 0.721474 0.513874 0.523385
O O6 0.581706 0.622857 0.548416
O O7 0.797946 0.568248 0.713317
O O8 0.817654 0.638573 0.542067
O O9 0.025638 0.094952 0.349629
O O10 0.878817 0.986351 0.189124
O O11 0.359004 0.323529 0.856344
O O12 0.202341 0.425533 0.746212
O O13 0.182368 0.305722 0.646354
O O14 0.628822 0.984241 0.093768
O O15 0.094522 0.769306 0.945639
O O16 0.500000 0.006615 0.250000
#
# Coordination Sequence:
#
# PCOD9293849 Si02
#       8
#     8   8   4   8   8   8   8   8
#     4  12  26  46  67 103 145 189 240 301 361 435
#     4  11  25  43  72 104 135 190 242 301 359 428
#     4  10  22  48  74 104 142 186 242 300 360 424
#     4  12  24  45  74 101 142 201 236 300 365 432
#     4  11  24  44  72 101 139 189 240 301 358 428
#     4  11  24  47  73 103 147 185 242 299 367 434
#     4  12  24  43  71 105 141 186 245 298 363 430
#     4  12  25  47  71 103 149 187 243 298 365 434
#
# _framework density 24.215972000000001
#
# number of rings (size 3 to 8) (size 9 to 14) (size 15 to 20)
#    0.000    0.533    5.333    3.200    0.000    3.733 
#    8.400    0.000    0.000    0.000    0.000    0.000 
#    0.000    0.000    0.000    0.000    0.000    0.000 
#
# Total GULP energy -167397.507798 kJ/mol
# GULP energy per Si atom -5579.916927 kJ/mol
# Density = 2.416086 g / cm^3
# Si number density = 24.215972 Si / 1000 Ang^3
#
#
#
# Elastic Constant Matrix: (Units=GPa)
#
#
# Indices 1 2 3 4 5 6 
#
# 1 80.9206 47.7160 30.7734 0.0000 20.4566 0.0000
# 2 47.7160 158.4219 45.7742 0.0000 20.2183 0.0000
# 3 30.7734 45.7742 76.4297 0.0000 17.1903 0.0000
# 4 0.0000 0.0000 0.0000 38.2542 0.0000 -3.5073
# 5 20.4566 20.2183 17.1903 0.0000 41.6147 0.0000
# 6 0.0000 0.0000 0.0000 -3.5073 0.0000 23.7084
#
#
#
# Elastic Compliance Matrix: (Units=1/GPa)
#
#
# Indices 1 2 3 4 5 6 
#
# 1 0.017088 -0.003424 -0.003654 0.000000 -0.005227 0.000000
# 2 -0.003424 0.008474 -0.003472 0.000000 -0.001000 0.000000
# 3 -0.003654 -0.003472 0.017475 0.000000 -0.003736 0.000000
# 4 0.000000 0.000000 0.000000 0.026500 0.000000 0.003920
# 5 -0.005227 -0.001000 -0.003736 0.000000 0.028628 0.000000
# 6 0.000000 0.000000 0.000000 0.003920 0.000000 0.042759
#
#
# Mechanical properties :
#
#
# Convention : Reuss Voigt Hill
#
# Bulk Modulus (GPa) = 45.58444 62.69994 54.14219
# Shear Modulus (GPa) = 29.52711 33.48270 31.50491
#
# Velocity S-wave (km/s) = 3.49567 3.72246 3.61085
# Velocity P-wave (km/s) = 5.92941 6.66512 6.30800
#
# Compressibility (1/GPa) = 0.02193731
#
# Stress axis : x y z
#
# Youngs Moduli (GPa) = 58.52174 118.00428 57.22603
#
# Poissons Ratio (x) = 0.40403 0.20910
# Poissons Ratio (y) = 0.20037 0.19868
# Poissons Ratio (z) = 0.21383 0.40969
#
# Static dielectric constant tensor:
#      x y z
#    x 2.143920 0.000000 0.012080 
#    y 0.000000 1.906230 0.000000 
#    z 0.012080 0.000000 1.979150 
# 
# From -- ./inp_files/146111.got.cif
#   From: 2010.05.17/outbox.cif.g08.bks.cpg/sg15_74_cif.got.tgz:146111.got - 2010.06.03 18:47:42.
