data_PCOD9293263
_publ_section_title
;
Structure prediction by ZEFSAII (Michael W. Deem and Ramdas Pophale) SiO2 
 PCOD9293263
Probable space group: C 2/C
;
_chemical_formula_sum "Si O2"
_cell_formula_units_Z 32
_cell_length_a 24.189710
_cell_length_b 4.791014
_cell_length_c 13.684791
_cell_angle_alpha 90.000000
_cell_angle_beta 128.027683
_cell_angle_gamma 90.000000
_cell_volume 1249.293250
_symmetry_space_group_name_H-M "C 2/C"
_symmetry_group_IT_number 15
_symmetry_cell_setting 'monoclinic'
loop_
_space_group_symop_operation_xyz
x,y,z
-x,y,1/2-z
-x,-y,-z
x,-y,1/2+z
1/2+x,1/2+y,z
1/2-x,1/2+y,1/2-z
1/2-x,1/2-y,-z
1/2+x,1/2-y,1/2+z
loop_
_atom_site_type_symbol
_atom_site_label
_atom_site_fract_x
_atom_site_fract_y
_atom_site_fract_z
Si Si1 0.862919 0.096508 0.168159
Si Si2 0.710498 0.655083 0.743315
Si Si3 0.576073 0.056374 0.368828
Si Si4 0.073397 0.849740 0.567528
O O1 0.797750 0.953347 0.153799
O O2 0.862460 0.334793 0.086720
O O3 0.903524 0.256306 0.300892
O O4 0.906688 0.840153 0.171404
O O5 0.732020 0.971702 0.751441
O O6 0.635488 0.572842 0.617207
O O7 0.500000 0.949684 0.250000
O O8 0.571241 0.137426 0.476721
O O9 0.000000 0.000000 0.500000
#
# Coordination Sequence:
#
# PCOD9293263 Si02
#       4
#     8   8   8   8
#     4  10  25  40  66  96 137 166 228 271 330 395
#     4  10  22  45  67  93 137 179 217 276 334 394
#     4  12  22  41  65 102 134 172 219 282 335 392
#     4  10  24  44  72  99 135 178 223 277 340 386
#
# _framework density 25.614481999999999
#
# number of rings (size 3 to 8) (size 9 to 14) (size 15 to 20)
#    1.500    0.000    2.500    2.250    0.000    5.000 
#    0.000    7.500    0.000    0.000    0.000    0.000 
#    0.000    0.000    0.000    0.000    0.000    0.000 
#
# Total GULP energy -89474.869166 kJ/mol
# GULP energy per Si atom -5592.179323 kJ/mol
# Density = 2.555618 g / cm^3
# Si number density = 25.614482 Si / 1000 Ang^3
#
#
#
# Elastic Constant Matrix: (Units=GPa)
#
#
# Indices 1 2 3 4 5 6 
#
# 1 112.9094 28.1326 28.1152 0.0000 -17.9729 -0.0001
# 2 28.1326 86.4693 5.0181 0.0000 -26.0753 0.0000
# 3 28.1152 5.0181 59.1048 0.0000 -17.2957 0.0000
# 4 0.0000 0.0000 0.0000 23.9154 0.0000 -7.3580
# 5 -17.9729 -26.0753 -17.2957 0.0000 56.2728 0.0000
# 6 -0.0001 0.0000 0.0000 -7.3580 0.0000 1.5018
#
#
#
# Elastic Compliance Matrix: (Units=1/GPa)
#
#
# Indices 1 2 3 4 5 6 
#
# 1 0.010905 -0.003095 -0.004752 -0.000001 0.000588 -0.000002
# 2 -0.003095 0.014352 0.002099 0.000000 0.006307 0.000001
# 3 -0.004752 0.002099 0.020704 0.000000 0.005818 0.000001
# 4 -0.000001 0.000000 0.000000 -0.082406 0.000000 -0.403749
# 5 0.000588 0.006307 0.005818 0.000000 0.022669 0.000000
# 6 -0.000002 0.000001 0.000001 -0.403749 0.000000 -1.312293
#
#
# Mechanical properties :
#
#
# Convention : Reuss Voigt Hill
#
# Bulk Modulus (GPa) = 29.01497 42.33501 35.67499
# Shear Modulus (GPa) = -3.83705 29.48583 12.82439
#
# Velocity S-wave (km/s) = -1.22526 3.39652 2.23999
# Velocity P-wave (km/s) = 3.05786 5.65203 4.54401
#
# Compressibility (1/GPa) = 0.03446497
#
# Stress axis : x y z
#
# Youngs Moduli (GPa) = 91.70342 69.67804 48.29964
#
# Poissons Ratio (x) = 0.21563 0.22954
# Poissons Ratio (y) = 0.28379 -0.10139
# Poissons Ratio (z) = 0.43580 -0.14627
#
# Static dielectric constant tensor:
#      x y z
#    x 2.020050 0.000000 -0.031920 
#    y 0.000000 1.962020 0.000000 
#    z -0.031920 0.000000 2.048000 
# 
# From -- ./inp_files/120452.got.cif
#   From: 2010.05.17/outbox.cif.g08.bks.cpg/sg15_61_cif.got.tgz:120452.got - 2010.06.03 18:47:42.
