data_PCOD9293723
_publ_section_title
;
Structure prediction by ZEFSAII (Michael W. Deem and Ramdas Pophale) SiO2 
 PCOD9293723
Probable space group: C 2/C
;
_chemical_formula_sum "Si O2"
_cell_formula_units_Z 44
_cell_length_a 12.394970
_cell_length_b 26.912697
_cell_length_c 9.271648
_cell_angle_alpha 90.000000
_cell_angle_beta 42.896321
_cell_angle_gamma 90.000000
_cell_volume 2105.225834
_symmetry_space_group_name_H-M "C 2/C"
_symmetry_group_IT_number 15
_symmetry_cell_setting 'monoclinic'
loop_
_space_group_symop_operation_xyz
x,y,z
-x,y,1/2-z
-x,-y,-z
x,-y,1/2+z
1/2+x,1/2+y,z
1/2-x,1/2+y,1/2-z
1/2-x,1/2-y,-z
1/2+x,1/2-y,1/2+z
loop_
_atom_site_type_symbol
_atom_site_label
_atom_site_fract_x
_atom_site_fract_y
_atom_site_fract_z
Si Si1 0.500000 0.234350 0.750000
Si Si2 0.658442 0.073608 0.282700
Si Si3 0.684530 0.955953 0.275738
Si Si4 0.831964 0.090850 0.386712
Si Si5 0.670054 0.385001 0.159682
Si Si6 0.790211 0.186434 0.618915
O O1 0.617057 0.201764 0.732860
O O2 0.597610 0.268252 0.540353
O O3 0.473144 0.070541 0.506569
O O4 0.772229 0.100443 0.286072
O O5 0.696542 0.014939 0.262661
O O6 0.703499 0.098729 0.087142
O O7 0.823862 0.930662 0.232136
O O8 0.698198 0.941238 0.096000
O O9 0.841993 0.141067 0.467062
O O10 0.000000 0.064780 0.250000
O O11 0.500000 0.380659 0.250000
O O12 0.703586 0.335891 0.225064
#
# Coordination Sequence:
#
# PCOD9293723 Si02
#       6
#     4   8   8   8   8   8
#     4  10  22  46  76  90 126 160 220 274 330 432
#     4  11  22  39  62  90 139 177 224 269 307 379
#     4  10  23  39  58  94 131 189 227 253 308 379
#     4  11  22  37  64  93 126 169 221 266 313 389
#     4  11  24  40  63  99 139 171 214 275 331 384
#     4  10  23  43  70 100 120 166 216 268 338 401
#
# _framework density 20.900371
#
# number of rings (size 3 to 8) (size 9 to 14) (size 15 to 20)
#    0.000    1.455    0.909    4.364    5.091    7.273 
#    0.000    0.909    0.000    0.000    0.000    0.000 
#    0.000    0.000    0.000    0.000    0.000    0.000 
#
# Total GULP energy -122677.549607 kJ/mol
# GULP energy per Si atom -5576.252255 kJ/mol
# Density = 2.085280 g / cm^3
# Si number density = 20.900371 Si / 1000 Ang^3
#
#
#
# Elastic Constant Matrix: (Units=GPa)
#
#
# Indices 1 2 3 4 5 6 
#
# 1 145.3265 37.3951 61.9319 0.0000 6.0856 0.0000
# 2 37.3951 36.1269 40.8106 0.0000 -4.5827 0.0000
# 3 61.9319 40.8106 115.6652 0.0000 12.9406 0.0000
# 4 0.0000 0.0000 0.0000 0.0490 0.0000 -41.4293
# 5 6.0856 -4.5827 12.9406 0.0000 36.8710 0.0000
# 6 0.0000 0.0000 0.0000 -41.4293 0.0000 -78.4898
#
#
#
# Elastic Compliance Matrix: (Units=1/GPa)
#
#
# Indices 1 2 3 4 5 6 
#
# 1 0.009998 -0.007913 -0.002360 0.000000 -0.001806 0.000000
# 2 -0.007913 0.057903 -0.017845 0.000000 0.014766 0.000000
# 3 -0.002360 -0.017845 0.017081 0.000000 -0.007823 0.000000
# 4 0.000000 0.000000 0.000000 0.045627 0.000000 -0.024083
# 5 -0.001806 0.014766 -0.007823 0.000000 0.032001 0.000000
# 6 0.000000 0.000000 0.000000 -0.024083 0.000000 -0.000029
#
#
# Mechanical properties :
#
#
# Convention : Reuss Voigt Hill
#
# Bulk Modulus (GPa) = 34.78686 64.15486 49.47086
# Shear Modulus (GPa) = 21.89159 2.15144 12.02152
#
# Velocity S-wave (km/s) = 3.23991 1.01568 2.40090
# Velocity P-wave (km/s) = 5.53862 5.66901 5.60419
#
# Compressibility (1/GPa) = 0.02874649
#
# Stress axis : x y z
#
# Youngs Moduli (GPa) = 100.01657 17.27040 58.54570
#
# Poissons Ratio (x) = 0.13666 0.13814
# Poissons Ratio (y) = 0.79142 1.04475
# Poissons Ratio (z) = 0.23600 0.30819
#
# Static dielectric constant tensor:
#      x y z
#    x 1.780150 0.000000 -0.039540 
#    y 0.000000 1.743080 0.000000 
#    z -0.039540 0.000000 1.857150 
# 
# From -- ./inp_files/33985.got.cif
#   From: 2010.05.17/outbox.cif.g08.bks.cpg/sg15_17_cif.got.tgz:33985.got - 2010.06.03 18:47:42.
