data_PCOD9293438
_publ_section_title
;
Structure prediction by ZEFSAII (Michael W. Deem and Ramdas Pophale) SiO2 
 PCOD9293438
Probable space group: C 2/C
;
_chemical_formula_sum "Si O2"
_cell_formula_units_Z 36
_cell_length_a 5.211473
_cell_length_b 13.209961
_cell_length_c 20.584289
_cell_angle_alpha 90.000000
_cell_angle_beta 95.448089
_cell_angle_gamma 90.000000
_cell_volume 1410.689987
_symmetry_space_group_name_H-M "C 2/C"
_symmetry_group_IT_number 15
_symmetry_cell_setting 'monoclinic'
loop_
_space_group_symop_operation_xyz
x,y,z
-x,y,1/2-z
-x,-y,-z
x,-y,1/2+z
1/2+x,1/2+y,z
1/2-x,1/2+y,1/2-z
1/2-x,1/2-y,-z
1/2+x,1/2-y,1/2+z
loop_
_atom_site_type_symbol
_atom_site_label
_atom_site_fract_x
_atom_site_fract_y
_atom_site_fract_z
Si Si1 0.500000 0.543579 0.750000
Si Si2 0.828890 0.714701 0.688174
Si Si3 0.244857 0.588718 0.130901
Si Si4 0.515635 0.380481 0.991826
Si Si5 0.050631 0.615903 0.571806
O O1 0.677802 0.618474 0.712198
O O2 0.647912 0.474753 0.805934
O O3 0.646734 0.803810 0.655746
O O4 0.000000 0.759778 0.750000
O O5 0.024112 0.669123 0.640027
O O6 0.464902 0.627218 0.085379
O O7 0.074358 0.505823 0.087063
O O8 0.500000 0.500000 0.000000
O O9 0.285795 0.346552 0.033220
O O10 0.791335 0.353125 0.028477
#
# Coordination Sequence:
#
# PCOD9293438 Si02
#       5
#     4   8   8   8   8
#     4  12  26  48  66 104 154 188 244 308 348 432
#     4  12  26  45  71 106 144 197 244 293 366 432
#     4  11  24  47  75 104 143 195 242 297 368 429
#     4  10  22  45  75 106 141 189 237 298 369 423
#     4  11  24  48  73 106 149 181 240 308 355 430
#
# _framework density 25.519428999999999
#
# number of rings (size 3 to 8) (size 9 to 14) (size 15 to 20)
#    0.000    0.889    3.333    5.333    0.000    3.556 
#   12.000    0.000    0.000    1.333    0.000    0.000 
#    0.000    0.000    0.000    0.000    0.000    0.000 
#
# Total GULP energy -100662.001139 kJ/mol
# GULP energy per Si atom -5592.333397 kJ/mol
# Density = 2.546135 g / cm^3
# Si number density = 25.519429 Si / 1000 Ang^3
#
#
#
# Elastic Constant Matrix: (Units=GPa)
#
#
# Indices 1 2 3 4 5 6 
#
# 1 148.0176 45.5139 60.3346 0.0000 -20.1415 0.0000
# 2 45.5139 135.7277 77.0043 0.0000 -19.1325 0.0000
# 3 60.3346 77.0043 118.5149 0.0000 -32.6699 0.0000
# 4 0.0000 0.0000 0.0000 45.8931 0.0000 14.0840
# 5 -20.1415 -19.1325 -32.6699 0.0000 36.9716 0.0000
# 6 0.0000 0.0000 0.0000 14.0840 0.0000 -10.5102
#
#
#
# Elastic Compliance Matrix: (Units=1/GPa)
#
#
# Indices 1 2 3 4 5 6 
#
# 1 0.008594 -0.000661 -0.003635 0.000000 0.001128 0.000000
# 2 -0.000661 0.011742 -0.007558 0.000000 -0.000962 0.000000
# 3 -0.003635 -0.007558 0.017947 0.000000 0.009967 0.000000
# 4 0.000000 0.000000 0.000000 0.015440 0.000000 0.020690
# 5 0.001128 -0.000962 0.009967 0.000000 0.035972 0.000000
# 6 0.000000 0.000000 0.000000 0.020690 0.000000 -0.067420
#
#
# Mechanical properties :
#
#
# Convention : Reuss Voigt Hill
#
# Bulk Modulus (GPa) = 68.61004 85.32954 76.96979
# Shear Modulus (GPa) = 98.34758 29.09807 63.72282
#
# Velocity S-wave (km/s) = 6.21466 3.38040 5.00245
# Velocity P-wave (km/s) = 8.85662 6.98182 7.97451
#
# Compressibility (1/GPa) = 0.01457513
#
# Stress axis : x y z
#
# Youngs Moduli (GPa) = 116.35619 85.16779 55.72088
#
# Poissons Ratio (x) = 0.05626 0.20255
# Poissons Ratio (y) = 0.07686 0.42114
# Poissons Ratio (z) = 0.42297 0.64370
#
# Static dielectric constant tensor:
#      x y z
#    x 2.168780 0.000000 0.055520 
#    y 0.000000 1.997570 0.000000 
#    z 0.055520 0.000000 2.110050 
# 
# From -- ./inp_files/226540.got.cif
#   From: 2010.05.17/outbox.cif.g08.bks.cpg/sg15_114_cif.got.tgz:226540.got - 2010.06.03 18:47:42.
