data_PCOD9293201
_publ_section_title
;
Structure prediction by ZEFSAII (Michael W. Deem and Ramdas Pophale) SiO2 
 PCOD9293201
Probable space group: C 2/C
;
_chemical_formula_sum "Si O2"
_cell_formula_units_Z 44
_cell_length_a 9.282199
_cell_length_b 17.102167
_cell_length_c 10.221294
_cell_angle_alpha 90.000000
_cell_angle_beta 87.693273
_cell_angle_gamma 90.000000
_cell_volume 1621.271829
_symmetry_space_group_name_H-M "C 2/C"
_symmetry_group_IT_number 15
_symmetry_cell_setting 'monoclinic'
loop_
_space_group_symop_operation_xyz
x,y,z
-x,y,1/2-z
-x,-y,-z
x,-y,1/2+z
1/2+x,1/2+y,z
1/2-x,1/2+y,1/2-z
1/2-x,1/2-y,-z
1/2+x,1/2-y,1/2+z
loop_
_atom_site_type_symbol
_atom_site_label
_atom_site_fract_x
_atom_site_fract_y
_atom_site_fract_z
Si Si1 0.513413 0.195116 0.458818
Si Si2 0.306155 0.064414 0.530833
Si Si3 0.013073 0.125097 0.944749
Si Si4 0.735004 0.966853 0.189386
Si Si5 0.294966 0.364156 0.802361
Si Si6 0.000000 0.263440 0.250000
O O1 0.379885 0.136966 0.456988
O O2 0.482148 0.283917 0.418650
O O3 0.550484 0.196492 0.613626
O O4 0.644051 0.163181 0.367967
O O5 0.133578 0.076199 0.544511
O O6 0.339335 0.986299 0.446789
O O7 0.214290 0.946458 0.769032
O O8 0.130211 0.089066 0.842123
O O9 0.095533 0.123552 0.080548
O O10 0.648843 0.938642 0.319060
O O11 0.365105 0.292831 0.719453
#
# Coordination Sequence:
#
# PCOD9293201 Si02
#       6
#     8   8   8   8   8   4
#     4  11  27  48  74 120 153 202 252 331 387 452
#     4  12  28  46  80 111 157 195 265 319 387 456
#     4  11  24  48  79 110 152 205 265 310 379 468
#     4  12  26  48  76 111 155 205 254 311 391 456
#     4  11  25  47  78 110 156 200 260 315 386 462
#     4  10  22  44  84 104 160 202 262 306 390 464
#
# _framework density 27.139185999999999
#
# number of rings (size 3 to 8) (size 9 to 14) (size 15 to 20)
#    0.000    0.727    1.818    6.000   10.182    1.455 
#    6.545    0.000    0.000    0.000    0.000    0.000 
#    0.000    0.000    0.000    0.000    0.000    0.000 
#
# Total GULP energy -123512.275153 kJ/mol
# GULP energy per Si atom -5614.194325 kJ/mol
# Density = 2.707742 g / cm^3
# Si number density = 27.139186 Si / 1000 Ang^3
#
#
#
# Elastic Constant Matrix: (Units=GPa)
#
#
# Indices 1 2 3 4 5 6 
#
# 1 79.7570 17.8741 37.7807 0.0000 -13.3699 0.0000
# 2 17.8741 137.5536 57.8923 0.0000 -23.6338 0.0000
# 3 37.7807 57.8923 200.2274 0.0000 -28.7157 0.0000
# 4 0.0000 0.0000 0.0000 61.3759 0.0000 -11.5621
# 5 -13.3699 -23.6338 -28.7157 0.0000 45.4595 0.0000
# 6 0.0000 0.0000 0.0000 -11.5621 0.0000 35.8953
#
#
#
# Elastic Compliance Matrix: (Units=1/GPa)
#
#
# Indices 1 2 3 4 5 6 
#
# 1 0.014092 -0.000490 -0.002155 0.000000 0.002529 0.000000
# 2 -0.000490 0.008703 -0.001975 0.000000 0.003133 0.000000
# 3 -0.002155 -0.001975 0.006305 0.000000 0.002322 0.000000
# 4 0.000000 0.000000 0.000000 0.017346 0.000000 0.005587
# 5 0.002529 0.003133 0.002322 0.000000 0.025837 0.000000
# 6 0.000000 0.000000 0.000000 0.005587 0.000000 0.029658
#
#
# Mechanical properties :
#
#
# Convention : Reuss Voigt Hill
#
# Bulk Modulus (GPa) = 50.34739 71.62579 60.98659
# Shear Modulus (GPa) = 42.44467 48.81222 45.62844
#
# Velocity S-wave (km/s) = 3.95899 4.24558 4.10478
# Velocity P-wave (km/s) = 6.28410 7.10511 6.70718
#
# Compressibility (1/GPa) = 0.01986200
#
# Stress axis : x y z
#
# Youngs Moduli (GPa) = 70.95975 114.90435 158.60758
#
# Poissons Ratio (x) = 0.05628 0.34177
# Poissons Ratio (y) = 0.03476 0.31317
# Poissons Ratio (z) = 0.15290 0.22688
#
# Static dielectric constant tensor:
#      x y z
#    x 2.119550 0.000000 0.125490 
#    y 0.000000 2.102000 0.000000 
#    z 0.125490 0.000000 2.167340 
# 
# From -- ./inp_files/231015.got.cif
#   From: 2010.05.17/outbox.cif.g08.bks.cpg/sg15_116_cif.got.tgz:231015.got - 2010.06.03 18:47:42.
