data_PCOD9293612
_publ_section_title
;
Structure prediction by ZEFSAII (Michael W. Deem and Ramdas Pophale) SiO2 
 PCOD9293612
Probable space group: C 2/C
;
_chemical_formula_sum "Si O2"
_cell_formula_units_Z 60
_cell_length_a 19.327478
_cell_length_b 8.358067
_cell_length_c 25.240507
_cell_angle_alpha 90.000000
_cell_angle_beta 36.064110
_cell_angle_gamma 90.000000
_cell_volume 2400.301827
_symmetry_space_group_name_H-M "C 2/C"
_symmetry_group_IT_number 15
_symmetry_cell_setting 'monoclinic'
loop_
_space_group_symop_operation_xyz
x,y,z
-x,y,1/2-z
-x,-y,-z
x,-y,1/2+z
1/2+x,1/2+y,z
1/2-x,1/2+y,1/2-z
1/2-x,1/2-y,-z
1/2+x,1/2-y,1/2+z
loop_
_atom_site_type_symbol
_atom_site_label
_atom_site_fract_x
_atom_site_fract_y
_atom_site_fract_z
Si Si1 0.677961 0.600842 0.606424
Si Si2 0.719145 0.403034 0.205591
Si Si3 0.485756 0.896238 0.076082
Si Si4 0.133310 0.248733 0.258870
Si Si5 0.517572 0.729961 0.899481
Si Si6 0.773299 0.926918 0.532731
Si Si7 0.362512 0.638604 0.575334
Si Si8 0.500000 0.623790 0.250000
O O1 0.713682 0.577227 0.645435
O O2 0.676792 0.793209 0.605782
O O3 0.753519 0.524890 0.511388
O O4 0.559827 0.498755 0.672774
O O5 0.853795 0.361316 0.135224
O O6 0.678027 0.577222 0.251882
O O7 0.623392 0.285592 0.291485
O O8 0.472526 0.819016 0.142156
O O9 0.495575 0.086878 0.073384
O O10 0.586736 0.803057 0.981973
O O11 0.249171 0.353270 0.183828
O O12 0.091071 0.228884 0.224943
O O13 0.394431 0.674767 0.951964
O O14 0.540436 0.616690 0.937415
O O15 0.810265 0.042477 0.557353
#
# Coordination Sequence:
#
# PCOD9293612 Si02
#       8
#     8   8   8   8   8   8   8   4
#     4  10  23  44  70  95 134 186 235 295 350 433
#     4  11  22  43  71  93 146 182 242 288 361 426
#     4  12  24  43  68 107 143 184 242 302 363 428
#     4  11  25  46  69 104 139 187 240 298 375 429
#     4  12  25  41  73 104 140 191 237 299 359 428
#     4  11  25  44  67 103 137 185 246 284 371 425
#     4  12  25  44  71 104 150 184 241 301 362 435
#     4  10  22  46  70  92 138 186 236 292 376 420
#
# _framework density 24.996856000000001
#
# number of rings (size 3 to 8) (size 9 to 14) (size 15 to 20)
#    0.000    0.800    2.667    4.800    5.600    1.067 
#    4.800    3.333    0.000    0.000    0.000    0.000 
#    0.000    0.000    0.000    0.000    0.000    0.000 
#
# Total GULP energy -167372.391187 kJ/mol
# GULP energy per Si atom -5579.079706 kJ/mol
# Density = 2.493996 g / cm^3
# Si number density = 24.996856 Si / 1000 Ang^3
#
#
#
# Elastic Constant Matrix: (Units=GPa)
#
#
# Indices 1 2 3 4 5 6 
#
# 1 85.8577 20.9504 3.8124 0.0006 13.3878 -0.0009
# 2 20.9504 42.3178 11.6421 0.0011 14.1753 -0.0022
# 3 3.8124 11.6421 73.8435 0.0002 19.8977 -0.0006
# 4 0.0006 0.0011 0.0002 35.6732 -0.0001 1.1644
# 5 13.3878 14.1753 19.8977 -0.0001 42.1445 0.0005
# 6 -0.0009 -0.0022 -0.0006 1.1644 0.0005 27.6576
#
#
#
# Elastic Compliance Matrix: (Units=1/GPa)
#
#
# Indices 1 2 3 4 5 6 
#
# 1 0.013503 -0.006045 0.000990 0.000000 -0.002723 0.000000
# 2 -0.006045 0.029610 -0.002509 -0.000001 -0.006854 0.000002
# 3 0.000990 -0.002509 0.015747 0.000000 -0.006905 0.000000
# 4 0.000000 -0.000001 0.000000 0.028071 0.000000 -0.001182
# 5 -0.002723 -0.006854 -0.006905 0.000000 0.030159 -0.000001
# 6 0.000000 0.000002 0.000000 -0.001182 -0.000001 0.036206
#
#
# Mechanical properties :
#
#
# Convention : Reuss Voigt Hill
#
# Bulk Modulus (GPa) = 22.86698 30.53653 26.70175
# Shear Modulus (GPa) = 27.32221 32.13601 29.72911
#
# Velocity S-wave (km/s) = 3.30968 3.58942 3.45238
# Velocity P-wave (km/s) = 4.87577 5.42414 5.15725
#
# Compressibility (1/GPa) = 0.04373119
#
# Stress axis : x y z
#
# Youngs Moduli (GPa) = 74.05793 33.77277 63.50286
#
# Poissons Ratio (x) = 0.20415 -0.06285
# Poissons Ratio (y) = 0.44768 0.15934
# Poissons Ratio (z) = -0.07330 0.08474
#
# Static dielectric constant tensor:
#      x y z
#    x 2.030710 0.000000 0.038380 
#    y 0.000000 1.991700 0.000000 
#    z 0.038380 0.000000 2.002310 
# 
# From -- ./inp_files/279696.got.cif
#   From: 2010.05.17/outbox.cif.g08.bks.cpg/sg15_140_cif.got.tgz:279696.got - 2010.06.03 18:47:42.
