data_PCOD9293989
_publ_section_title
;
Structure prediction by ZEFSAII (Michael W. Deem and Ramdas Pophale) SiO2 
 PCOD9293989
Probable space group: C 2/C
;
_chemical_formula_sum "Si O2"
_cell_formula_units_Z 56
_cell_length_a 10.282528
_cell_length_b 25.422418
_cell_length_c 10.698299
_cell_angle_alpha 90.000000
_cell_angle_beta 103.763494
_cell_angle_gamma 90.000000
_cell_volume 2716.305702
_symmetry_space_group_name_H-M "C 2/C"
_symmetry_group_IT_number 15
_symmetry_cell_setting 'monoclinic'
loop_
_space_group_symop_operation_xyz
x,y,z
-x,y,1/2-z
-x,-y,-z
x,-y,1/2+z
1/2+x,1/2+y,z
1/2-x,1/2+y,1/2-z
1/2-x,1/2-y,-z
1/2+x,1/2-y,1/2+z
loop_
_atom_site_type_symbol
_atom_site_label
_atom_site_fract_x
_atom_site_fract_y
_atom_site_fract_z
Si Si1 0.953623 0.680346 0.525649
Si Si2 0.758608 0.339028 0.493422
Si Si3 0.276892 0.624358 0.887207
Si Si4 0.485677 0.282418 0.389355
Si Si5 0.346108 0.436863 0.172217
Si Si6 0.357504 0.557726 0.150287
Si Si7 0.135480 0.615423 0.236672
O O1 0.859239 0.656347 0.611425
O O2 0.933299 0.740640 0.478896
O O3 0.904551 0.647387 0.394788
O O4 0.114580 0.672988 0.567204
O O5 0.636476 0.298973 0.458750
O O6 0.696593 0.395054 0.440839
O O7 0.814858 0.345055 0.645325
O O8 0.386374 0.667569 0.868034
O O9 0.262544 0.580661 0.775726
O O10 0.334630 0.593822 0.022689
O O11 0.500000 0.262076 0.250000
O O12 0.500000 0.430382 0.250000
O O13 0.334400 0.496052 0.120530
O O14 0.500000 0.564882 0.250000
O O15 0.249292 0.575424 0.226704
O O16 0.000000 0.587807 0.250000
#
# Coordination Sequence:
#
# PCOD9293989 Si02
#       7
#     8   8   8   8   8   8   8
#     4  10  24  39  62  89 124 161 201 258 301 358
#     4  11  20  39  63  88 122 163 208 244 300 376
#     4  11  22  43  59  93 130 151 203 261 300 355
#     4  12  21  40  65  91 124 165 203 246 310 361
#     4  11  23  40  62  93 121 165 199 256 308 360
#     4  10  23  37  65  90 119 162 206 252 307 359
#     4   9  20  41  58  88 124 157 207 254 301 365
#
# _framework density 20.616237999999999
#
# number of rings (size 3 to 8) (size 9 to 14) (size 15 to 20)
#    0.000    1.429    2.857    3.000    2.000    1.714 
#    2.571    2.143    6.286    0.000    0.000    0.000 
#    0.000    0.000    0.000    0.000    0.000    0.000 
#
# Total GULP energy -156325.340161 kJ/mol
# GULP energy per Si atom -5583.047863 kJ/mol
# Density = 2.056931 g / cm^3
# Si number density = 20.616238 Si / 1000 Ang^3
#
#
#
# Elastic Constant Matrix: (Units=GPa)
#
#
# Indices 1 2 3 4 5 6 
#
# 1 112.3275 29.5046 14.1150 0.0000 5.1959 0.0000
# 2 29.5046 88.8789 -3.1998 0.0000 2.0434 0.0000
# 3 14.1150 -3.1998 34.5212 0.0000 -11.3028 0.0000
# 4 0.0000 0.0000 0.0000 11.9527 0.0000 -6.5423
# 5 5.1959 2.0434 -11.3028 0.0000 25.1271 0.0000
# 6 0.0000 0.0000 0.0000 -6.5423 0.0000 31.4632
#
#
#
# Elastic Compliance Matrix: (Units=1/GPa)
#
#
# Indices 1 2 3 4 5 6 
#
# 1 0.010911 -0.003741 -0.006388 0.000000 -0.004825 0.000000
# 2 -0.003741 0.012578 0.003065 0.000000 0.001130 0.000000
# 3 -0.006388 0.003065 0.037779 0.000000 0.018065 0.000000
# 4 0.000000 0.000000 0.000000 0.094408 0.000000 0.019631
# 5 -0.004825 0.001130 0.018065 0.000000 0.048830 0.000000
# 6 0.000000 0.000000 0.000000 0.019631 0.000000 0.035865
#
#
# Mechanical properties :
#
#
# Convention : Reuss Voigt Hill
#
# Bulk Modulus (GPa) = 21.21353 35.17414 28.19384
# Shear Modulus (GPa) = 18.50408 26.72913 22.61660
#
# Velocity S-wave (km/s) = 2.99916 3.60461 3.31574
# Velocity P-wave (km/s) = 4.72285 5.86709 5.32579
#
# Compressibility (1/GPa) = 0.04713972
#
# Stress axis : x y z
#
# Youngs Moduli (GPa) = 91.64948 79.50656 26.46997
#
# Poissons Ratio (x) = 0.29745 0.16909
# Poissons Ratio (y) = 0.34287 -0.08114
# Poissons Ratio (z) = 0.58546 -0.24372
#
# Static dielectric constant tensor:
#      x y z
#    x 1.758380 0.000000 -0.018460 
#    y 0.000000 1.736800 0.000000 
#    z -0.018460 0.000000 1.751580 
# 
# From -- ./inp_files/81395.got.cif
#   From: 2010.05.17/outbox.cif.g08.bks.cpg/sg15_41_cif.got.tgz:81395.got - 2010.06.03 18:47:42.
