data_PCOD9293319
_publ_section_title
;
Structure prediction by ZEFSAII (Michael W. Deem and Ramdas Pophale) SiO2 
 PCOD9293319
Probable space group: C 2/C
;
_chemical_formula_sum "Si O2"
_cell_formula_units_Z 40
_cell_length_a 5.402423
_cell_length_b 17.904374
_cell_length_c 18.159946
_cell_angle_alpha 90.000000
_cell_angle_beta 81.422291
_cell_angle_gamma 90.000000
_cell_volume 1736.909132
_symmetry_space_group_name_H-M "C 2/C"
_symmetry_group_IT_number 15
_symmetry_cell_setting 'monoclinic'
loop_
_space_group_symop_operation_xyz
x,y,z
-x,y,1/2-z
-x,-y,-z
x,-y,1/2+z
1/2+x,1/2+y,z
1/2-x,1/2+y,1/2-z
1/2-x,1/2-y,-z
1/2+x,1/2-y,1/2+z
loop_
_atom_site_type_symbol
_atom_site_label
_atom_site_fract_x
_atom_site_fract_y
_atom_site_fract_z
Si Si1 0.400259 0.070749 0.333824
Si Si2 0.435291 0.162106 0.044389
Si Si3 0.838163 0.054267 0.558613
Si Si4 0.893030 0.187886 0.923422
Si Si5 0.781768 0.220488 0.202611
O O1 0.500000 0.048518 0.250000
O O2 0.584861 0.117758 0.378409
O O3 0.192071 0.134726 0.326404
O O4 0.326409 0.999992 0.384928
O O5 0.398391 0.249550 0.064719
O O6 0.297973 0.112552 0.989866
O O7 0.721911 0.167622 0.001498
O O8 0.994056 0.109036 0.604432
O O9 0.000000 0.000000 0.500000
O O10 0.727838 0.225069 0.867038
O O11 0.500000 0.224883 0.250000
O O12 0.000000 0.238661 0.250000
#
# Coordination Sequence:
#
# PCOD9293319 Si02
#       5
#     8   8   8   8   8
#     4  10  23  45  69 101 141 190 229 294 370 431
#     4  10  22  45  69  99 140 181 241 294 358 437
#     4  12  24  41  72 106 138 182 236 305 360 436
#     4  10  23  43  72 102 135 192 239 297 360 421
#     4  10  24  47  72 103 145 196 246 295 360 439
#
# _framework density 23.029413999999999
#
# number of rings (size 3 to 8) (size 9 to 14) (size 15 to 20)
#    0.000    1.600    2.000    1.200    2.800    4.800 
#    3.600    0.000    0.000    0.000    0.000    0.000 
#    0.000    0.000    0.000    0.000    0.000    0.000 
#
# Total GULP energy -111695.393914 kJ/mol
# GULP energy per Si atom -5584.769696 kJ/mol
# Density = 2.297700 g / cm^3
# Si number density = 23.029414 Si / 1000 Ang^3
#
#
#
# Elastic Constant Matrix: (Units=GPa)
#
#
# Indices 1 2 3 4 5 6 
#
# 1 81.1028 49.8190 47.6713 0.0000 15.3046 0.0000
# 2 49.8190 171.4846 52.0677 0.0000 7.0113 0.0000
# 3 47.6713 52.0677 145.8024 0.0000 17.4896 0.0000
# 4 0.0000 0.0000 0.0000 31.7421 0.0000 3.7737
# 5 15.3046 7.0113 17.4896 0.0000 36.7325 0.0000
# 6 0.0000 0.0000 0.0000 3.7737 0.0000 15.1489
#
#
#
# Elastic Compliance Matrix: (Units=1/GPa)
#
#
# Indices 1 2 3 4 5 6 
#
# 1 0.017883 -0.003812 -0.003902 0.000000 -0.004866 0.000000
# 2 -0.003812 0.007354 -0.001487 0.000000 0.000892 0.000000
# 3 -0.003902 -0.001487 0.008947 0.000000 -0.002350 0.000000
# 4 0.000000 0.000000 0.000000 0.032465 0.000000 -0.008087
# 5 -0.004866 0.000892 -0.002350 0.000000 0.030200 0.000000
# 6 0.000000 0.000000 0.000000 -0.008087 0.000000 0.068026
#
#
# Mechanical properties :
#
#
# Convention : Reuss Voigt Hill
#
# Bulk Modulus (GPa) = 63.35998 77.50063 70.43030
# Shear Modulus (GPa) = 26.51983 33.31349 29.91666
#
# Velocity S-wave (km/s) = 3.39715 3.80750 3.60816
# Velocity P-wave (km/s) = 6.55438 7.28391 6.92875
#
# Compressibility (1/GPa) = 0.01578283
#
# Stress axis : x y z
#
# Youngs Moduli (GPa) = 55.91824 135.98518 111.76400
#
# Poissons Ratio (x) = 0.51832 0.43613
# Poissons Ratio (y) = 0.21314 0.16618
# Poissons Ratio (z) = 0.21821 0.20220
#
# Static dielectric constant tensor:
#      x y z
#    x 1.961480 0.000000 -0.027810 
#    y 0.000000 1.846080 0.000000 
#    z -0.027810 0.000000 1.941590 
# 
# From -- ./inp_files/184346.got.cif
#   From: 2010.05.17/outbox.cif.g08.bks.cpg/sg15_93_cif.got.tgz:184346.got - 2010.06.03 18:47:42.
