data_PCOD9293656
_publ_section_title
;
Structure prediction by ZEFSAII (Michael W. Deem and Ramdas Pophale) SiO2 
 PCOD9293656
Probable space group: C 2/C
;
_chemical_formula_sum "Si O2"
_cell_formula_units_Z 52
_cell_length_a 22.185306
_cell_length_b 5.084804
_cell_length_c 23.495880
_cell_angle_alpha 90.000000
_cell_angle_beta 128.313091
_cell_angle_gamma 90.000000
_cell_volume 2079.691371
_symmetry_space_group_name_H-M "C 2/C"
_symmetry_group_IT_number 15
_symmetry_cell_setting 'monoclinic'
loop_
_space_group_symop_operation_xyz
x,y,z
-x,y,1/2-z
-x,-y,-z
x,-y,1/2+z
1/2+x,1/2+y,z
1/2-x,1/2+y,1/2-z
1/2-x,1/2-y,-z
1/2+x,1/2-y,1/2+z
loop_
_atom_site_type_symbol
_atom_site_label
_atom_site_fract_x
_atom_site_fract_y
_atom_site_fract_z
Si Si1 0.294838 0.743633 0.407036
Si Si2 0.500000 0.264094 0.750000
Si Si3 0.869211 0.059817 0.859335
Si Si4 0.279604 0.395534 0.707975
Si Si5 0.982998 0.057223 0.619284
Si Si6 0.387560 0.075446 0.542867
Si Si7 0.834105 0.397387 0.128176
O O1 0.362637 0.576327 0.417066
O O2 0.334970 0.990984 0.459870
O O3 0.233130 0.614931 0.412913
O O4 0.239700 0.807576 0.321207
O O5 0.503470 0.448817 0.695049
O O6 0.575421 0.080288 0.801323
O O7 0.842976 0.865192 0.792855
O O8 0.948437 0.162518 0.880686
O O9 0.800741 0.269713 0.821412
O O10 0.306286 0.280950 0.663641
O O11 0.951049 0.795550 0.569253
O O12 0.922659 0.297616 0.585545
O O13 0.340603 0.202329 0.567691
#
# Coordination Sequence:
#
# PCOD9293656 Si02
#       7
#     8   4   8   8   8   8   8
#     4  11  26  44  71 100 144 188 235 290 346 428
#     4  10  22  46  72 104 136 178 234 304 356 406
#     4  11  24  43  69 101 139 183 241 290 357 407
#     4  11  23  42  70 102 133 183 235 299 350 412
#     4  11  27  46  72 104 143 188 235 293 349 423
#     4  11  28  47  70 106 145 190 233 281 359 423
#     4  10  24  44  71 103 135 181 232 293 354 415
#
# _framework density 25.003709000000001
#
# number of rings (size 3 to 8) (size 9 to 14) (size 15 to 20)
#    0.000    1.231    3.077    0.462   10.769    6.769 
#    0.000    0.000    0.000    0.000    0.000    0.000 
#    0.000    0.000    0.000    0.000    0.000    0.000 
#
# Total GULP energy -145048.418689 kJ/mol
# GULP energy per Si atom -5578.785334 kJ/mol
# Density = 2.494680 g / cm^3
# Si number density = 25.003709 Si / 1000 Ang^3
#
#
#
# Elastic Constant Matrix: (Units=GPa)
#
#
# Indices 1 2 3 4 5 6 
#
# 1 130.4636 2.8071 25.0814 0.0001 -0.1714 0.0000
# 2 2.8071 58.2483 18.2752 0.0062 5.2691 -0.0015
# 3 25.0814 18.2752 110.5130 0.0001 1.6037 0.0006
# 4 0.0001 0.0062 0.0001 43.1826 -0.0004 -7.3384
# 5 -0.1714 5.2691 1.6037 -0.0004 22.3598 -0.0011
# 6 0.0000 -0.0015 0.0006 -7.3384 -0.0011 2.3179
#
#
#
# Elastic Compliance Matrix: (Units=1/GPa)
#
#
# Indices 1 2 3 4 5 6 
#
# 1 0.008017 0.000181 -0.001852 0.000000 0.000152 0.000001
# 2 0.000181 0.018487 -0.003038 -0.000002 -0.004137 0.000005
# 3 -0.001852 -0.003038 0.009972 -0.000001 -0.000013 -0.000007
# 4 0.000000 -0.000002 -0.000001 0.050126 0.000009 0.158698
# 5 0.000152 -0.004137 -0.000013 0.000009 0.045700 0.000046
# 6 0.000001 0.000005 -0.000007 0.158698 0.000046 0.933858
#
#
# Mechanical properties :
#
#
# Convention : Reuss Voigt Hill
#
# Bulk Modulus (GPa) = 36.95815 43.50581 40.23198
# Shear Modulus (GPa) = 4.61001 30.44282 17.52641
#
# Velocity S-wave (km/s) = 1.35931 3.49310 2.65042
# Velocity P-wave (km/s) = 4.15654 5.80573 5.04893
#
# Compressibility (1/GPa) = 0.02705763
#
# Stress axis : x y z
#
# Youngs Moduli (GPa) = 124.73091 54.09328 100.28541
#
# Poissons Ratio (x) = -0.00978 0.18569
# Poissons Ratio (y) = -0.02256 0.30467
# Poissons Ratio (z) = 0.23096 0.16434
#
# Static dielectric constant tensor:
#      x y z
#    x 1.980100 0.000000 -0.025430 
#    y 0.000000 2.066450 0.000000 
#    z -0.025430 0.000000 2.043590 
# 
# From -- ./inp_files/278995.got.cif
#   From: 2010.05.17/outbox.cif.g08.bks.cpg/sg15_140_cif.got.tgz:278995.got - 2010.06.03 18:47:42.
