data_PCOD9293156
_publ_section_title
;
Structure prediction by ZEFSAII (Michael W. Deem and Ramdas Pophale) SiO2 
 PCOD9293156
Probable space group: C 2/C
;
_chemical_formula_sum "Si O2"
_cell_formula_units_Z 48
_cell_length_a 26.881380
_cell_length_b 7.778239
_cell_length_c 13.396655
_cell_angle_alpha 90.000000
_cell_angle_beta 136.887547
_cell_angle_gamma 90.000000
_cell_volume 1914.365310
_symmetry_space_group_name_H-M "C 2/C"
_symmetry_group_IT_number 15
_symmetry_cell_setting 'monoclinic'
loop_
_space_group_symop_operation_xyz
x,y,z
-x,y,1/2-z
-x,-y,-z
x,-y,1/2+z
1/2+x,1/2+y,z
1/2-x,1/2+y,1/2-z
1/2-x,1/2-y,-z
1/2+x,1/2-y,1/2+z
loop_
_atom_site_type_symbol
_atom_site_label
_atom_site_fract_x
_atom_site_fract_y
_atom_site_fract_z
Si Si1 0.048015 0.904530 0.408989
Si Si2 0.578470 0.180106 0.206247
Si Si3 0.194832 0.774943 0.654132
Si Si4 0.348862 0.882888 0.880601
Si Si5 0.579513 0.828834 0.316301
Si Si6 0.119426 0.042426 0.212404
O O1 0.128874 0.855203 0.494045
O O2 0.000000 0.982804 0.250000
O O3 0.001014 0.738319 0.372725
O O4 0.064814 0.995425 0.538326
O O5 0.600982 0.015295 0.303093
O O6 0.623883 0.359090 0.272191
O O7 0.275335 0.796139 0.732036
O O8 0.186511 0.873597 0.749440
O O9 0.414442 0.877409 0.898235
O O10 0.326827 0.079223 0.863404
O O11 0.369262 0.792021 0.013749
O O12 0.500000 0.845297 0.250000
O O13 0.589810 0.687220 0.244696
#
# Coordination Sequence:
#
# PCOD9293156 Si02
#       6
#     8   8   8   8   8   8
#     4  10  22  44  75 108 143 188 248 308 368 441
#     4  12  23  46  77 107 150 191 246 311 369 433
#     4  10  24  47  70 106 151 195 243 303 372 435
#     4  12  25  48  74 106 155 200 242 310 370 445
#     4  12  27  47  77 114 148 196 252 307 371 440
#     4  10  25  46  73 110 150 186 248 307 365 447
#
# _framework density 25.073584
#
# number of rings (size 3 to 8) (size 9 to 14) (size 15 to 20)
#    1.000    0.000    1.667    5.000    0.000    5.333 
#    3.000    4.167    0.000    1.000    0.000    0.000 
#    0.000    0.000    0.000    0.000    0.000    0.000 
#
# Total GULP energy -134102.107413 kJ/mol
# GULP energy per Si atom -5587.587809 kJ/mol
# Density = 2.501652 g / cm^3
# Si number density = 25.073584 Si / 1000 Ang^3
#
#
#
# Elastic Constant Matrix: (Units=GPa)
#
#
# Indices 1 2 3 4 5 6 
#
# 1 106.0112 38.4279 73.1790 0.0000 -17.8829 0.0000
# 2 38.4279 144.7823 13.6791 0.0000 -22.1309 0.0000
# 3 73.1790 13.6791 87.4276 0.0000 -14.3793 0.0000
# 4 0.0000 0.0000 0.0000 15.8766 0.0000 -8.8079
# 5 -17.8829 -22.1309 -14.3793 0.0000 41.9795 0.0000
# 6 0.0000 0.0000 0.0000 -8.8079 0.0000 49.8694
#
#
#
# Elastic Compliance Matrix: (Units=1/GPa)
#
#
# Indices 1 2 3 4 5 6 
#
# 1 0.025292 -0.004584 -0.020217 0.000000 0.001433 0.000000
# 2 -0.004584 0.008369 0.003107 0.000000 0.003523 0.000000
# 3 -0.020217 0.003107 0.028323 0.000000 0.002727 0.000000
# 4 0.000000 0.000000 0.000000 0.069828 0.000000 0.012333
# 5 0.001433 0.003523 0.002727 0.000000 0.027223 0.000000
# 6 0.000000 0.000000 0.000000 0.012333 0.000000 0.022231
#
#
# Mechanical properties :
#
#
# Convention : Reuss Voigt Hill
#
# Bulk Modulus (GPa) = 53.77785 65.42147 59.59966
# Shear Modulus (GPa) = 21.65894 35.74078 28.69986
#
# Velocity S-wave (km/s) = 2.94226 3.77959 3.38690
# Velocity P-wave (km/s) = 5.74779 6.72276 6.25430
#
# Compressibility (1/GPa) = 0.01859502
#
# Stress axis : x y z
#
# Youngs Moduli (GPa) = 39.53798 119.49451 35.30725
#
# Poissons Ratio (x) = 0.54775 0.71382
# Poissons Ratio (y) = 0.18124 -0.10970
# Poissons Ratio (z) = 0.79935 -0.37126
#
# Static dielectric constant tensor:
#      x y z
#    x 1.969650 0.000000 -0.005440 
#    y 0.000000 2.002580 0.000000 
#    z -0.005440 0.000000 1.999530 
# 
# From -- ./inp_files/122502.got.cif
#   From: 2010.05.17/outbox.cif.g08.bks.cpg/sg15_62_cif.got.tgz:122502.got - 2010.06.03 18:47:42.
