data_PCOD9293324
_publ_section_title
;
Structure prediction by ZEFSAII (Michael W. Deem and Ramdas Pophale) SiO2 
 PCOD9293324
Probable space group: C 2/C
;
_chemical_formula_sum "Si O2"
_cell_formula_units_Z 44
_cell_length_a 23.192034
_cell_length_b 5.585536
_cell_length_c 20.919080
_cell_angle_alpha 90.000000
_cell_angle_beta 142.365500
_cell_angle_gamma 90.000000
_cell_volume 1654.698255
_symmetry_space_group_name_H-M "C 2/C"
_symmetry_group_IT_number 15
_symmetry_cell_setting 'monoclinic'
loop_
_space_group_symop_operation_xyz
x,y,z
-x,y,1/2-z
-x,-y,-z
x,-y,1/2+z
1/2+x,1/2+y,z
1/2-x,1/2+y,1/2-z
1/2-x,1/2-y,-z
1/2+x,1/2-y,1/2+z
loop_
_atom_site_type_symbol
_atom_site_label
_atom_site_fract_x
_atom_site_fract_y
_atom_site_fract_z
Si Si1 0.197924 0.767486 0.313352
Si Si2 0.974310 0.205726 0.612825
Si Si3 0.364112 0.088742 0.892742
Si Si4 0.500000 0.963473 0.250000
Si Si5 0.526405 0.310310 0.969005
Si Si6 0.802200 0.729366 0.613534
O O1 0.086651 0.768668 0.203515
O O2 0.262511 0.795205 0.307145
O O3 0.223796 0.520832 0.372884
O O4 0.215670 0.018038 0.366517
O O5 0.914923 0.316909 0.502802
O O6 0.953242 0.352097 0.657795
O O7 0.956941 0.923929 0.585356
O O8 0.430649 0.153227 0.891164
O O9 0.380684 0.812407 0.922042
O O10 0.585394 0.805186 0.298751
O O11 0.500000 0.500000 0.000000
O O12 0.750000 0.750000 0.500000
#
# Coordination Sequence:
#
# PCOD9293324 Si02
#       6
#     8   8   8   4   8   8
#     4  11  26  42  69 107 140 180 242 290 352 420
#     4  10  23  44  67 103 139 186 234 288 353 428
#     4  10  22  45  70 101 138 187 231 303 356 421
#     4  10  24  44  70 102 148 190 234 296 358 414
#     4   9  21  43  71  95 134 183 238 285 366 414
#     4  11  25  45  67 102 141 191 240 282 347 423
#
# _framework density 26.590949999999999
#
# number of rings (size 3 to 8) (size 9 to 14) (size 15 to 20)
#    0.000    1.818    0.000    1.636   10.182    5.818 
#    9.818    0.000    0.000    0.000    0.000    0.000 
#    0.000    0.000    0.000    0.000    0.000    0.000 
#
# Total GULP energy -123000.125380 kJ/mol
# GULP energy per Si atom -5590.914790 kJ/mol
# Density = 2.653043 g / cm^3
# Si number density = 26.590950 Si / 1000 Ang^3
#
#
#
# Elastic Constant Matrix: (Units=GPa)
#
#
# Indices 1 2 3 4 5 6 
#
# 1 77.1270 48.9226 24.5036 0.0003 18.1319 -0.0004
# 2 48.9226 165.9313 43.8411 0.0015 -10.8282 -0.0002
# 3 24.5036 43.8411 92.5875 0.0004 -6.7231 0.0000
# 4 0.0003 0.0015 0.0004 36.4015 0.0003 -8.1128
# 5 18.1319 -10.8282 -6.7231 0.0003 50.7197 0.0000
# 6 -0.0004 -0.0002 0.0000 -8.1128 0.0000 54.3473
#
#
#
# Elastic Compliance Matrix: (Units=1/GPa)
#
#
# Indices 1 2 3 4 5 6 
#
# 1 0.019439 -0.005447 -0.003185 0.000000 -0.008534 0.000000
# 2 -0.005447 0.008470 -0.002319 0.000000 0.003448 0.000000
# 3 -0.003185 -0.002319 0.012913 0.000000 0.002355 0.000000
# 4 0.000000 0.000000 0.000000 0.028417 0.000000 0.004242
# 5 -0.008534 0.003448 0.002355 0.000000 0.023815 0.000000
# 6 0.000000 0.000000 0.000000 0.004242 0.000000 0.019033
#
#
# Mechanical properties :
#
#
# Convention : Reuss Voigt Hill
#
# Bulk Modulus (GPa) = 52.85373 63.35338 58.10355
# Shear Modulus (GPa) = 35.63915 42.85225 39.24570
#
# Velocity S-wave (km/s) = 3.66495 4.01875 3.84592
# Velocity P-wave (km/s) = 6.15052 6.73874 6.45134
#
# Compressibility (1/GPa) = 0.01892014
#
# Stress axis : x y z
#
# Youngs Moduli (GPa) = 51.44366 118.06191 77.44374
#
# Poissons Ratio (x) = 0.64304 0.24667
# Poissons Ratio (y) = 0.28019 0.17958
# Poissons Ratio (z) = 0.16386 0.27377
#
# Static dielectric constant tensor:
#      x y z
#    x 2.080230 0.000000 -0.001200 
#    y 0.000000 2.423020 0.000000 
#    z -0.001200 0.000000 2.068250 
# 
# From -- ./inp_files/303966.got.cif
#   From: 2010.05.17/outbox.cif.g08.bks.cpg/sg15_152_cif.got.tgz:303966.got - 2010.06.03 18:47:42.
