data_PCOD9293333
_publ_section_title
;
Structure prediction by ZEFSAII (Michael W. Deem and Ramdas Pophale) SiO2 
 PCOD9293333
Probable space group: C 2/C
;
_chemical_formula_sum "Si O2"
_cell_formula_units_Z 32
_cell_length_a 12.056254
_cell_length_b 8.062108
_cell_length_c 15.761544
_cell_angle_alpha 90.000000
_cell_angle_beta 129.375247
_cell_angle_gamma 90.000000
_cell_volume 1184.250536
_symmetry_space_group_name_H-M "C 2/C"
_symmetry_group_IT_number 15
_symmetry_cell_setting 'monoclinic'
loop_
_space_group_symop_operation_xyz
x,y,z
-x,y,1/2-z
-x,-y,-z
x,-y,1/2+z
1/2+x,1/2+y,z
1/2-x,1/2+y,1/2-z
1/2-x,1/2-y,-z
1/2+x,1/2-y,1/2+z
loop_
_atom_site_type_symbol
_atom_site_label
_atom_site_fract_x
_atom_site_fract_y
_atom_site_fract_z
Si Si1 0.922347 0.084357 0.041749
Si Si2 0.850050 0.618858 0.093008
Si Si3 0.120115 0.350099 0.599834
Si Si4 0.350538 0.620565 0.743664
O O1 0.932499 0.274431 0.015254
O O2 0.754121 0.039312 0.955990
O O3 0.009427 0.995560 0.162044
O O4 0.000000 0.000000 0.000000
O O5 0.864621 0.716668 0.190066
O O6 0.750000 0.750000 0.000000
O O7 0.987608 0.608759 0.098357
O O8 0.231133 0.499113 0.648708
O O9 0.198111 0.202760 0.691035
#
# Coordination Sequence:
#
# PCOD9293333 Si02
#       4
#     8   8   8   8
#     4  10  22  45  70 103 143 182 239 295 343 426
#     4  12  24  45  76  99 140 192 237 289 363 416
#     4  11  25  45  74 101 148 187 239 290 356 420
#     4  11  24  44  73 106 143 188 237 295 354 422
#
# _framework density 27.021308999999999
#
# number of rings (size 3 to 8) (size 9 to 14) (size 15 to 20)
#    0.000    1.000    5.000    3.750    0.000    1.000 
#    0.000    8.750    0.000    0.000    0.000    0.000 
#    0.000    0.000    0.000    0.000    0.000    0.000 
#
# Total GULP energy -89237.768700 kJ/mol
# GULP energy per Si atom -5577.360544 kJ/mol
# Density = 2.695981 g / cm^3
# Si number density = 27.021309 Si / 1000 Ang^3
#
#
#
# Elastic Constant Matrix: (Units=GPa)
#
#
# Indices 1 2 3 4 5 6 
#
# 1 190.9560 61.0452 48.7360 0.0000 -4.0634 0.0000
# 2 61.0452 132.2984 60.1012 0.0000 1.9836 0.0000
# 3 48.7360 60.1012 156.6989 0.0000 1.8844 0.0000
# 4 0.0000 0.0000 0.0000 55.5714 0.0000 11.0371
# 5 -4.0634 1.9836 1.8844 0.0000 38.8017 0.0000
# 6 0.0000 0.0000 0.0000 11.0371 0.0000 46.9362
#
#
#
# Elastic Compliance Matrix: (Units=1/GPa)
#
#
# Indices 1 2 3 4 5 6 
#
# 1 0.006301 -0.002453 -0.001029 0.000000 0.000835 0.000000
# 2 -0.002453 0.010112 -0.003108 0.000000 -0.000623 0.000000
# 3 -0.001029 -0.003108 0.007898 0.000000 -0.000332 0.000000
# 4 0.000000 0.000000 0.000000 0.018876 0.000000 -0.004439
# 5 0.000835 -0.000623 -0.000332 0.000000 0.025908 0.000000
# 6 0.000000 0.000000 0.000000 -0.004439 0.000000 0.022349
#
#
# Mechanical properties :
#
#
# Convention : Reuss Voigt Hill
#
# Bulk Modulus (GPa) = 89.83706 91.07980 90.45843
# Shear Modulus (GPa) = 46.15367 48.93326 47.54347
#
# Velocity S-wave (km/s) = 4.13734 4.26010 4.19917
# Velocity P-wave (km/s) = 7.49282 7.61431 7.55381
#
# Compressibility (1/GPa) = 0.01113126
#
# Stress axis : x y z
#
# Youngs Moduli (GPa) = 158.69793 98.89669 126.61732
#
# Poissons Ratio (x) = 0.24255 0.13031
# Poissons Ratio (y) = 0.38921 0.39352
# Poissons Ratio (z) = 0.16333 0.30737
#
# Static dielectric constant tensor:
#      x y z
#    x 1.935510 0.000000 0.075340 
#    y 0.000000 2.977920 0.000000 
#    z 0.075340 0.000000 2.238260 
# 
# From -- ./inp_files/149923.got.cif
#   From: 2010.05.17/outbox.cif.g08.bks.cpg/sg15_75_cif.got.tgz:149923.got - 2010.06.03 18:47:42.
