data_PCOD9293614
_publ_section_title
;
Structure prediction by ZEFSAII (Michael W. Deem and Ramdas Pophale) SiO2 
 PCOD9293614
Probable space group: C 2/C
;
_chemical_formula_sum "Si O2"
_cell_formula_units_Z 52
_cell_length_a 18.281215
_cell_length_b 14.977312
_cell_length_c 20.453632
_cell_angle_alpha 90.000000
_cell_angle_beta 153.765081
_cell_angle_gamma 90.000000
_cell_volume 2475.616260
_symmetry_space_group_name_H-M "C 2/C"
_symmetry_group_IT_number 15
_symmetry_cell_setting 'monoclinic'
loop_
_space_group_symop_operation_xyz
x,y,z
-x,y,1/2-z
-x,-y,-z
x,-y,1/2+z
1/2+x,1/2+y,z
1/2-x,1/2+y,1/2-z
1/2-x,1/2-y,-z
1/2+x,1/2-y,1/2+z
loop_
_atom_site_type_symbol
_atom_site_label
_atom_site_fract_x
_atom_site_fract_y
_atom_site_fract_z
Si Si1 0.828178 0.334447 0.805794
Si Si2 0.806043 0.042960 0.608371
Si Si3 0.879913 0.135888 0.235950
Si Si4 0.200582 0.018656 0.657473
Si Si5 0.199673 0.654512 0.645540
Si Si6 0.500000 0.792977 0.250000
Si Si7 0.249767 0.935348 0.047982
O O1 0.686498 0.341400 0.746701
O O2 0.802099 0.426623 0.746412
O O3 0.794465 0.246420 0.736623
O O4 0.002743 0.330387 0.983338
O O5 0.783645 0.947003 0.626890
O O6 0.725474 0.026785 0.472632
O O7 0.000000 0.059210 0.750000
O O8 0.744301 0.114976 0.610242
O O9 0.890292 0.227918 0.205711
O O10 0.065623 0.098763 0.386386
O O11 0.249419 0.084390 0.756466
O O12 0.253727 0.056747 0.629386
O O13 0.000000 0.000000 0.500000
O O14 0.628079 0.861786 0.383554
#
# Coordination Sequence:
#
# PCOD9293614 Si02
#       7
#     8   8   8   8   8   4   8
#     4  12  27  44  74 106 139 187 250 294 358 424
#     4  10  22  46  70  94 139 188 228 288 361 420
#     4  11  22  41  65  99 143 184 226 290 354 430
#     4  12  23  47  73 104 146 190 237 301 354 428
#     4  12  27  47  73 106 144 188 242 299 354 431
#     4  12  24  36  66 102 146 176 234 282 366 432
#     4  11  24  40  65 103 143 185 234 291 360 426
#
# _framework density 21.004871999999999
#
# number of rings (size 3 to 8) (size 9 to 14) (size 15 to 20)
#    0.000    0.615    5.385    3.692    4.308    0.000 
#    0.000    3.077    0.000    0.000    0.000    0.000 
#    0.000    0.000    0.000    0.000    0.000    0.000 
#
# Total GULP energy -145194.771897 kJ/mol
# GULP energy per Si atom -5584.414304 kJ/mol
# Density = 2.095706 g / cm^3
# Si number density = 21.004872 Si / 1000 Ang^3
#
#
#
# Elastic Constant Matrix: (Units=GPa)
#
#
# Indices 1 2 3 4 5 6 
#
# 1 55.9378 12.3893 -12.3934 -0.0020 -8.3108 0.0002
# 2 12.3893 106.5807 36.5395 -0.0218 -3.7902 -0.0023
# 3 -12.3934 36.5395 91.5802 -0.0184 -6.9802 -0.0033
# 4 -0.0020 -0.0218 -0.0184 33.4752 0.0000 -8.9463
# 5 -8.3108 -3.7902 -6.9802 0.0000 19.5123 0.0009
# 6 0.0002 -0.0023 -0.0033 -8.9463 0.0009 31.8073
#
#
#
# Elastic Compliance Matrix: (Units=1/GPa)
#
#
# Indices 1 2 3 4 5 6 
#
# 1 0.021431 -0.003926 0.005247 0.000002 0.010242 0.000000
# 2 -0.003926 0.011595 -0.005257 0.000005 -0.001300 0.000002
# 3 0.005247 -0.005257 0.014207 0.000005 0.006296 0.000002
# 4 0.000002 0.000005 0.000005 0.032301 0.000003 0.009085
# 5 0.010242 -0.001300 0.006296 0.000003 0.057612 0.000000
# 6 0.000000 0.000002 0.000002 0.009085 0.000000 0.033995
#
#
# Mechanical properties :
#
#
# Convention : Reuss Voigt Hill
#
# Bulk Modulus (GPa) = 25.40533 36.35218 30.87875
# Shear Modulus (GPa) = 26.02394 31.46318 28.74356
#
# Velocity S-wave (km/s) = 3.52369 3.87447 3.70323
# Velocity P-wave (km/s) = 5.35503 6.11224 5.74612
#
# Compressibility (1/GPa) = 0.03936183
#
# Stress axis : x y z
#
# Youngs Moduli (GPa) = 46.66183 86.24540 70.38938
#
# Poissons Ratio (x) = 0.33859 -0.36935
# Poissons Ratio (y) = 0.18319 0.37001
# Poissons Ratio (z) = -0.24485 0.45336
#
# Static dielectric constant tensor:
#      x y z
#    x 1.767250 0.000000 -0.036370 
#    y 0.000000 1.762500 0.000000 
#    z -0.036370 0.000000 1.835370 
# 
# From -- ./inp_files/249123.got.cif
#   From: 2010.05.17/outbox.cif.g08.bks.cpg/sg15_125_cif.got.tgz:249123.got - 2010.06.03 18:47:42.
