data_PCOD9293386
_publ_section_title
;
Structure prediction by ZEFSAII (Michael W. Deem and Ramdas Pophale) SiO2 
 PCOD9293386
Probable space group: C 2/C
;
_chemical_formula_sum "Si O2"
_cell_formula_units_Z 60
_cell_length_a 9.617788
_cell_length_b 22.423483
_cell_length_c 22.014272
_cell_angle_alpha 90.000000
_cell_angle_beta 34.541772
_cell_angle_gamma 90.000000
_cell_volume 2691.974621
_symmetry_space_group_name_H-M "C 2/C"
_symmetry_group_IT_number 15
_symmetry_cell_setting 'monoclinic'
loop_
_space_group_symop_operation_xyz
x,y,z
-x,y,1/2-z
-x,-y,-z
x,-y,1/2+z
1/2+x,1/2+y,z
1/2-x,1/2+y,1/2-z
1/2-x,1/2-y,-z
1/2+x,1/2-y,1/2+z
loop_
_atom_site_type_symbol
_atom_site_label
_atom_site_fract_x
_atom_site_fract_y
_atom_site_fract_z
Si Si1 0.689435 0.776144 0.734806
Si Si2 0.574051 0.200448 0.534220
Si Si3 0.786509 0.898312 0.658613
Si Si4 0.975577 0.424003 0.393545
Si Si5 0.123232 0.890184 0.419263
Si Si6 0.500000 0.451798 0.250000
Si Si7 0.598877 0.508528 0.585649
Si Si8 0.704835 0.747947 0.860691
O O1 0.500000 0.787389 0.750000
O O2 0.831673 0.839125 0.682860
O O3 0.592127 0.765332 0.836632
O O4 0.831451 0.718621 0.658878
O O5 0.750000 0.250000 0.500000
O O6 0.626399 0.132521 0.531521
O O7 0.584073 0.215734 0.459523
O O8 0.500000 0.908667 0.750000
O O9 0.923847 0.888753 0.545356
O O10 0.900734 0.956587 0.647068
O O11 0.871212 0.414471 0.363035
O O12 0.845603 0.483868 0.464933
O O13 0.265900 0.422108 0.300572
O O14 0.170148 0.822510 0.382790
O O15 0.008715 0.933327 0.409710
O O16 0.371859 0.483750 0.353131
O O17 0.000000 0.759386 0.750000
#
# Coordination Sequence:
#
# PCOD9293386 Si02
#       8
#     8   8   8   8   8   4   8   8
#     4  11  25  44  66 106 145 177 230 288 357 421
#     4  12  22  45  72  99 146 177 234 294 344 433
#     4  10  22  45  72 102 140 182 235 296 350 427
#     4  11  25  48  71 103 141 189 235 298 360 424
#     4  11  24  46  73 103 138 182 249 293 344 439
#     4  12  30  46  68 102 148 182 232 302 354 432
#     4  11  27  44  75 101 141 185 243 294 361 423
#     4  12  25  41  76 106 138 194 233 285 370 429
#
# _framework density 22.28847
#
# number of rings (size 3 to 8) (size 9 to 14) (size 15 to 20)
#    0.000    0.800    4.000    2.800    8.400    1.600 
#    4.800    0.000    0.000    0.000    0.000    0.000 
#    0.000    0.000    0.000    0.000    0.000    0.000 
#
# Total GULP energy -167585.502190 kJ/mol
# GULP energy per Si atom -5586.183406 kJ/mol
# Density = 2.223774 g / cm^3
# Si number density = 22.288470 Si / 1000 Ang^3
#
#
#
# Elastic Constant Matrix: (Units=GPa)
#
#
# Indices 1 2 3 4 5 6 
#
# 1 106.3213 19.6981 46.9755 0.0054 24.7685 0.0023
# 2 19.6981 60.2965 8.4985 0.0035 17.6345 0.0008
# 3 46.9755 8.4985 61.6152 0.0070 18.4316 -0.0112
# 4 0.0054 0.0035 0.0070 35.6122 -0.0028 11.4694
# 5 24.7685 17.6345 18.4316 -0.0028 64.7441 0.0038
# 6 0.0023 0.0008 -0.0112 11.4694 0.0038 29.2023
#
#
#
# Elastic Compliance Matrix: (Units=1/GPa)
#
#
# Indices 1 2 3 4 5 6 
#
# 1 0.015020 -0.002850 -0.010462 0.000002 -0.001991 -0.000006
# 2 -0.002850 0.018631 0.000869 -0.000002 -0.004232 0.000002
# 3 -0.010462 0.000869 0.025097 -0.000008 -0.003379 0.000014
# 4 0.000002 -0.000002 -0.000008 0.032147 0.000004 -0.012626
# 5 -0.001991 -0.004232 -0.003379 0.000004 0.018322 -0.000005
# 6 -0.000006 0.000002 0.000014 -0.012626 -0.000005 0.039203
#
#
# Mechanical properties :
#
#
# Convention : Reuss Voigt Hill
#
# Bulk Modulus (GPa) = 29.53232 42.06412 35.79822
# Shear Modulus (GPa) = 27.08660 36.11577 31.60118
#
# Velocity S-wave (km/s) = 3.48986 4.02976 3.76949
# Velocity P-wave (km/s) = 5.43301 6.36911 5.91959
#
# Compressibility (1/GPa) = 0.03386121
#
# Stress axis : x y z
#
# Youngs Moduli (GPa) = 66.57833 53.67442 39.84494
#
# Poissons Ratio (x) = 0.15296 0.41688
# Poissons Ratio (y) = 0.18973 -0.03462
# Poissons Ratio (z) = 0.69657 -0.04663
#
# Static dielectric constant tensor:
#      x y z
#    x 1.855690 -0.000010 -0.032390 
#    y -0.000010 1.898160 0.000010 
#    z -0.032390 0.000010 1.885370 
# 
# From -- ./inp_files/234553.got.cif
#   From: 2010.05.17/outbox.cif.g08.bks.cpg/sg15_118_cif.got.tgz:234553.got - 2010.06.03 18:47:42.
