data_PCOD9293040
_publ_section_title
;
Structure prediction by ZEFSAII (Michael W. Deem and Ramdas Pophale) SiO2 
 PCOD9293040
Probable space group: C 2/C
;
_chemical_formula_sum "Si O2"
_cell_formula_units_Z 48
_cell_length_a 8.851162
_cell_length_b 30.178657
_cell_length_c 8.470845
_cell_angle_alpha 90.000000
_cell_angle_beta 89.563075
_cell_angle_gamma 90.000000
_cell_volume 2262.633985
_symmetry_space_group_name_H-M "C 2/C"
_symmetry_group_IT_number 15
_symmetry_cell_setting 'monoclinic'
loop_
_space_group_symop_operation_xyz
x,y,z
-x,y,1/2-z
-x,-y,-z
x,-y,1/2+z
1/2+x,1/2+y,z
1/2-x,1/2+y,1/2-z
1/2-x,1/2-y,-z
1/2+x,1/2-y,1/2+z
loop_
_atom_site_type_symbol
_atom_site_label
_atom_site_fract_x
_atom_site_fract_y
_atom_site_fract_z
Si Si1 0.762398 0.893128 0.952257
Si Si2 0.678635 0.522720 0.230887
Si Si3 0.869267 0.462081 0.036688
Si Si4 0.844704 0.369808 0.202052
Si Si5 0.755139 0.698787 0.458566
Si Si6 0.500000 0.152964 0.250000
Si Si7 0.000000 0.159967 0.250000
O O1 0.787886 0.944480 0.914756
O O2 0.620874 0.876218 0.846906
O O3 0.909014 0.869748 0.876127
O O4 0.736964 0.883732 0.135704
O O5 0.500000 0.517031 0.250000
O O6 0.768202 0.479314 0.181855
O O7 0.761509 0.541424 0.384975
O O8 0.902472 0.412030 0.095663
O O9 0.000000 0.500000 0.000000
O O10 0.000000 0.345808 0.250000
O O11 0.744776 0.335926 0.102923
O O12 0.750000 0.750000 0.500000
O O13 0.908470 0.683754 0.370764
O O14 0.620797 0.688889 0.339969
#
# Coordination Sequence:
#
# PCOD9293040 Si02
#       7
#     8   8   8   8   8   4   4
#     4  11  23  43  72 102 146 187 236 289 361 425
#     4  12  25  43  66 101 150 192 239 298 360 428
#     4  12  26  44  70 105 142 192 253 292 355 436
#     4  12  25  44  71 107 139 186 243 302 352 421
#     4  11  26  46  75 106 140 184 240 293 367 431
#     4  10  22  44  72 100 142 192 226 296 348 434
#     4  10  24  46  66 106 140 188 230 294 364 430
#
# _framework density 21.214214999999999
#
# number of rings (size 3 to 8) (size 9 to 14) (size 15 to 20)
#    0.000    0.667    2.500    6.000    3.500    2.000 
#    0.000    3.333    0.000    0.000    0.000    0.000 
#    0.000    0.000    0.000    0.000    0.000    0.000 
#
# Total GULP energy -134167.023317 kJ/mol
# GULP energy per Si atom -5590.292638 kJ/mol
# Density = 2.116593 g / cm^3
# Si number density = 21.214215 Si / 1000 Ang^3
#
#
#
# Elastic Constant Matrix: (Units=GPa)
#
#
# Indices 1 2 3 4 5 6 
#
# 1 105.1539 23.4360 22.2100 0.0000 -12.6927 0.0000
# 2 23.4360 101.8739 17.0437 0.0000 -7.7643 0.0000
# 3 22.2100 17.0437 113.6845 0.0000 -12.5712 0.0000
# 4 0.0000 0.0000 0.0000 26.5486 0.0000 -8.3537
# 5 -12.6927 -7.7643 -12.5712 0.0000 39.2402 0.0000
# 6 0.0000 0.0000 0.0000 -8.3537 0.0000 14.3151
#
#
#
# Elastic Compliance Matrix: (Units=1/GPa)
#
#
# Indices 1 2 3 4 5 6 
#
# 1 0.010575 -0.001990 -0.001486 0.000000 0.002551 0.000000
# 2 -0.001990 0.010536 -0.001069 0.000000 0.001099 0.000000
# 3 -0.001486 -0.001069 0.009507 0.000000 0.002354 0.000000
# 4 0.000000 0.000000 0.000000 0.046139 0.000000 0.026925
# 5 0.002551 0.001099 0.002354 0.000000 0.027281 0.000000
# 6 0.000000 0.000000 0.000000 0.026925 0.000000 0.085568
#
#
# Mechanical properties :
#
#
# Convention : Reuss Voigt Hill
#
# Bulk Modulus (GPa) = 46.44907 49.56574 48.00741
# Shear Modulus (GPa) = 24.28690 33.22229 28.75459
#
# Velocity S-wave (km/s) = 3.38722 3.96161 3.68562
# Velocity P-wave (km/s) = 6.10250 6.65890 6.38676
#
# Compressibility (1/GPa) = 0.02152895
#
# Stress axis : x y z
#
# Youngs Moduli (GPa) = 94.56229 94.90862 105.18455
#
# Poissons Ratio (x) = 0.18885 0.15626
# Poissons Ratio (y) = 0.18816 0.11249
# Poissons Ratio (z) = 0.14048 0.10150
#
# Static dielectric constant tensor:
#      x y z
#    x 1.776260 0.000000 -0.010660 
#    y 0.000000 1.837490 0.000000 
#    z -0.010660 0.000000 1.772760 
# 
# From -- ./inp_files/26179.got.cif
#   From: 2010.05.17/outbox.cif.g08.bks.cpg/sg15_14_cif.got.tgz:26179.got - 2010.06.03 18:47:42.
