data_PCOD9293632
_publ_section_title
;
Structure prediction by ZEFSAII (Michael W. Deem and Ramdas Pophale) SiO2 
 PCOD9293632
Probable space group: C 2/C
;
_chemical_formula_sum "Si O2"
_cell_formula_units_Z 40
_cell_length_a 8.587261
_cell_length_b 13.013793
_cell_length_c 28.211158
_cell_angle_alpha 90.000000
_cell_angle_beta 29.270186
_cell_angle_gamma 90.000000
_cell_volume 1541.433931
_symmetry_space_group_name_H-M "C 2/C"
_symmetry_group_IT_number 15
_symmetry_cell_setting 'monoclinic'
loop_
_space_group_symop_operation_xyz
x,y,z
-x,y,1/2-z
-x,-y,-z
x,-y,1/2+z
1/2+x,1/2+y,z
1/2-x,1/2+y,1/2-z
1/2-x,1/2-y,-z
1/2+x,1/2-y,1/2+z
loop_
_atom_site_type_symbol
_atom_site_label
_atom_site_fract_x
_atom_site_fract_y
_atom_site_fract_z
Si Si1 0.883234 0.974937 0.827324
Si Si2 0.312348 0.322079 0.928690
Si Si3 0.385937 0.315779 0.419619
Si Si4 0.871743 0.014637 0.481583
Si Si5 0.301805 0.695720 0.756968
O O1 0.000000 0.917385 0.750000
O O2 0.095700 0.077139 0.772829
O O3 0.933508 0.906429 0.859268
O O4 0.509670 0.998045 0.920407
O O5 0.449316 0.218477 0.869644
O O6 0.430019 0.369275 0.946948
O O7 0.933895 0.330802 0.026639
O O8 0.250000 0.250000 0.500000
O O9 0.498874 0.423320 0.413106
O O10 0.622454 0.269876 0.317008
O O11 0.000000 0.000000 0.500000
O O12 0.500000 0.739810 0.750000
#
# Coordination Sequence:
#
# PCOD9293632 Si02
#       5
#     8   8   8   8   8
#     4  10  22  46  71 102 145 190 241 309 372 439
#     4  11  24  46  76 101 150 196 249 301 381 440
#     4  11  25  46  72 111 147 191 250 308 377 449
#     4  11  24  47  79 107 144 195 254 313 373 446
#     4  11  25  43  72 106 147 194 243 308 372 438
#
# _framework density 25.949864000000002
#
# number of rings (size 3 to 8) (size 9 to 14) (size 15 to 20)
#    0.000    1.200    4.000    1.200    8.400    4.000 
#    0.000    0.000    0.000    0.000    0.000    0.000 
#    0.000    0.000    0.000    0.000    0.000    0.000 
#
# Total GULP energy -111814.576834 kJ/mol
# GULP energy per Si atom -5590.728842 kJ/mol
# Density = 2.589080 g / cm^3
# Si number density = 25.949864 Si / 1000 Ang^3
#
#
#
# Elastic Constant Matrix: (Units=GPa)
#
#
# Indices 1 2 3 4 5 6 
#
# 1 145.5589 47.1872 47.6985 -0.0327 34.5651 0.0298
# 2 47.1872 84.6560 39.7733 -0.0216 4.1681 0.0153
# 3 47.6985 39.7733 111.9938 -0.0529 42.9072 0.0532
# 4 -0.0327 -0.0216 -0.0529 49.8216 -0.0288 8.9546
# 5 34.5651 4.1681 42.9072 -0.0288 45.7367 -0.0007
# 6 0.0298 0.0153 0.0532 8.9546 -0.0007 45.9313
#
#
#
# Elastic Compliance Matrix: (Units=1/GPa)
#
#
# Indices 1 2 3 4 5 6 
#
# 1 0.010394 -0.005703 0.000638 0.000002 -0.007934 -0.000006
# 2 -0.005703 0.018201 -0.007885 0.000000 0.010048 0.000007
# 3 0.000638 -0.007885 0.017745 0.000010 -0.016411 -0.000021
# 4 0.000002 0.000000 0.000010 0.020800 0.000002 -0.004055
# 5 -0.007934 0.010048 -0.016411 0.000002 0.042340 0.000021
# 6 -0.000006 0.000007 -0.000021 -0.004055 0.000021 0.022562
#
#
# Mechanical properties :
#
#
# Convention : Reuss Voigt Hill
#
# Bulk Modulus (GPa) = 48.92106 67.94741 58.43424
# Shear Modulus (GPa) = 30.34837 42.13457 36.24147
#
# Velocity S-wave (km/s) = 3.42351 4.03388 3.74116
# Velocity P-wave (km/s) = 5.87539 6.92367 6.42096
#
# Compressibility (1/GPa) = 0.02044109
#
# Stress axis : x y z
#
# Youngs Moduli (GPa) = 96.21279 54.94271 56.35499
#
# Poissons Ratio (x) = 0.31332 -0.03597
# Poissons Ratio (y) = 0.54866 0.44433
# Poissons Ratio (z) = -0.06140 0.43320
#
# Static dielectric constant tensor:
#      x y z
#    x 2.112420 0.000010 0.059090 
#    y 0.000010 2.144110 0.000200 
#    z 0.059090 0.000200 2.060870 
# 
# From -- ./inp_files/308168.got.cif
#   From: 2010.05.17/outbox.cif.g08.bks.cpg/sg15_155_cif.got.tgz:308168.got - 2010.06.03 18:47:42.
