data_PCOD9293382
_publ_section_title
;
Structure prediction by ZEFSAII (Michael W. Deem and Ramdas Pophale) SiO2 
 PCOD9293382
Probable space group: C 2/C
;
_chemical_formula_sum "Si O2"
_cell_formula_units_Z 40
_cell_length_a 9.397545
_cell_length_b 11.682343
_cell_length_c 21.265639
_cell_angle_alpha 90.000000
_cell_angle_beta 140.112920
_cell_angle_gamma 90.000000
_cell_volume 1497.159989
_symmetry_space_group_name_H-M "C 2/C"
_symmetry_group_IT_number 15
_symmetry_cell_setting 'monoclinic'
loop_
_space_group_symop_operation_xyz
x,y,z
-x,y,1/2-z
-x,-y,-z
x,-y,1/2+z
1/2+x,1/2+y,z
1/2-x,1/2+y,1/2-z
1/2-x,1/2-y,-z
1/2+x,1/2-y,1/2+z
loop_
_atom_site_type_symbol
_atom_site_label
_atom_site_fract_x
_atom_site_fract_y
_atom_site_fract_z
Si Si1 0.719609 0.185677 0.855798
Si Si2 0.268450 0.629653 0.638148
Si Si3 0.638304 0.094060 0.176340
Si Si4 0.995954 0.174147 0.391771
Si Si5 0.835020 0.941246 0.016175
O O1 0.500000 0.129531 0.750000
O O2 0.801164 0.289914 0.839428
O O3 0.624954 0.251115 0.884022
O O4 0.930378 0.103557 0.928838
O O5 0.500000 0.660659 0.750000
O O6 0.193724 0.514215 0.649971
O O7 0.105071 0.734339 0.595045
O O8 0.293654 0.607213 0.572740
O O9 0.798779 0.102357 0.290459
O O10 0.375501 0.090896 0.097588
O O11 0.154238 0.076569 0.471197
#
# Coordination Sequence:
#
# PCOD9293382 Si02
#       5
#     8   8   8   8   8
#     4  10  22  45  71  99 149 187 229 296 365 413
#     4  12  23  46  77 102 144 195 242 292 362 428
#     4  11  23  46  75 104 146 193 237 296 367 423
#     4  11  26  47  72 107 145 194 238 298 363 431
#     4  12  25  48  74 107 145 191 241 299 357 433
#
# _framework density 26.717252999999999
#
# number of rings (size 3 to 8) (size 9 to 14) (size 15 to 20)
#    0.000    0.800    4.000    4.200    0.000    1.600 
#    3.600    1.000    0.000    0.000    0.000    0.000 
#    0.000    0.000    0.000    0.000    0.000    0.000 
#
# Total GULP energy -112411.841649 kJ/mol
# GULP energy per Si atom -5620.592082 kJ/mol
# Density = 2.665644 g / cm^3
# Si number density = 26.717253 Si / 1000 Ang^3
#
#
#
# Elastic Constant Matrix: (Units=GPa)
#
#
# Indices 1 2 3 4 5 6 
#
# 1 116.5804 34.6912 54.5416 0.0000 16.9820 0.0000
# 2 34.6912 82.1571 49.0216 0.0000 13.8454 0.0000
# 3 54.5416 49.0216 184.4272 0.0000 42.5616 0.0000
# 4 0.0000 0.0000 0.0000 54.8837 0.0000 17.2463
# 5 16.9820 13.8454 42.5616 0.0000 52.3494 0.0000
# 6 0.0000 0.0000 0.0000 17.2463 0.0000 50.3334
#
#
#
# Elastic Compliance Matrix: (Units=1/GPa)
#
#
# Indices 1 2 3 4 5 6 
#
# 1 0.010612 -0.003066 -0.002112 0.000000 -0.000914 0.000000
# 2 -0.003066 0.015384 -0.003044 0.000000 -0.000599 0.000000
# 3 -0.002112 -0.003044 0.008016 0.000000 -0.005027 0.000000
# 4 0.000000 0.000000 0.000000 0.020419 0.000000 -0.006996
# 5 -0.000914 -0.000599 -0.005027 0.000000 0.023645 0.000000
# 6 0.000000 0.000000 0.000000 -0.006996 0.000000 0.022265
#
#
# Mechanical properties :
#
#
# Convention : Reuss Voigt Hill
#
# Bulk Modulus (GPa) = 56.92719 73.29706 65.11212
# Shear Modulus (GPa) = 40.76961 47.84065 44.30513
#
# Velocity S-wave (km/s) = 3.91060 4.23617 4.07664
# Velocity P-wave (km/s) = 6.46095 7.17083 6.82513
#
# Compressibility (1/GPa) = 0.01756630
#
# Stress axis : x y z
#
# Youngs Moduli (GPa) = 94.23648 65.00317 124.74931
#
# Poissons Ratio (x) = 0.19933 0.26350
# Poissons Ratio (y) = 0.28897 0.37973
# Poissons Ratio (z) = 0.19905 0.19787
#
# Static dielectric constant tensor:
#      x y z
#    x 2.074980 0.000000 -0.022340 
#    y 0.000000 1.995750 0.000000 
#    z -0.022340 0.000000 2.129920 
# 
# From -- ./inp_files/292407.got.cif
#   From: 2010.05.17/outbox.cif.g08.bks.cpg/sg15_147_cif.got.tgz:292407.got - 2010.06.03 18:47:42.
