data_PCOD9293398
_publ_section_title
;
Structure prediction by ZEFSAII (Michael W. Deem and Ramdas Pophale) SiO2 
 PCOD9293398
Probable space group: C 2/C
;
_chemical_formula_sum "Si O2"
_cell_formula_units_Z 40
_cell_length_a 9.208113
_cell_length_b 11.819760
_cell_length_c 14.186739
_cell_angle_alpha 90.000000
_cell_angle_beta 80.468896
_cell_angle_gamma 90.000000
_cell_volume 1522.737529
_symmetry_space_group_name_H-M "C 2/C"
_symmetry_group_IT_number 15
_symmetry_cell_setting 'monoclinic'
loop_
_space_group_symop_operation_xyz
x,y,z
-x,y,1/2-z
-x,-y,-z
x,-y,1/2+z
1/2+x,1/2+y,z
1/2-x,1/2+y,1/2-z
1/2-x,1/2-y,-z
1/2+x,1/2-y,1/2+z
loop_
_atom_site_type_symbol
_atom_site_label
_atom_site_fract_x
_atom_site_fract_y
_atom_site_fract_z
Si Si1 0.262654 0.202580 0.602654
Si Si2 0.458262 0.082060 0.878147
Si Si3 0.174548 0.613934 0.407347
Si Si4 0.449891 0.497127 0.896571
Si Si5 0.313832 0.665276 0.693704
O O1 0.250000 0.250000 0.500000
O O2 0.431300 0.183146 0.608245
O O3 0.183984 0.083432 0.600297
O O4 0.187685 0.239078 0.709243
O O5 0.651458 0.114633 0.693540
O O6 0.556725 0.967219 0.865232
O O7 0.353259 0.078243 0.981471
O O8 0.353297 0.609598 0.372297
O O9 0.363854 0.755439 0.610013
O O10 0.583415 0.554177 0.824964
O O11 0.500000 0.500000 0.000000
#
# Coordination Sequence:
#
# PCOD9293398 Si02
#       5
#     8   8   8   8   8
#     4  11  26  47  68 106 152 195 246 308 364 435
#     4  10  22  45  72 109 148 186 248 304 366 448
#     4  10  23  45  77 109 144 193 238 308 381 429
#     4  11  24  46  73 108 143 186 245 307 366 444
#     4  12  24  48  76 104 150 196 246 304 367 448
#
# _framework density 26.268481000000001
#
# number of rings (size 3 to 8) (size 9 to 14) (size 15 to 20)
#    0.000    1.200    2.000    3.000    2.800    0.000 
#   10.800   10.000    0.000    0.000    0.000    0.000 
#    0.000    0.000    0.000    0.000    0.000    0.000 
#
# Total GULP energy -111607.494564 kJ/mol
# GULP energy per Si atom -5580.374728 kJ/mol
# Density = 2.620869 g / cm^3
# Si number density = 26.268481 Si / 1000 Ang^3
#
#
#
# Elastic Constant Matrix: (Units=GPa)
#
#
# Indices 1 2 3 4 5 6 
#
# 1 176.0189 33.4135 53.5913 0.0000 0.9365 0.0000
# 2 33.4135 42.1790 16.9090 0.0000 1.7302 0.0000
# 3 53.5913 16.9090 126.9531 0.0000 8.1842 0.0000
# 4 0.0000 0.0000 0.0000 35.9307 0.0000 7.9127
# 5 0.9365 1.7302 8.1842 0.0000 40.5565 0.0000
# 6 0.0000 0.0000 0.0000 7.9127 0.0000 40.4172
#
#
#
# Elastic Compliance Matrix: (Units=1/GPa)
#
#
# Indices 1 2 3 4 5 6 
#
# 1 0.007359 -0.004852 -0.002495 0.000000 0.000541 0.000000
# 2 -0.004852 0.028251 -0.001666 0.000000 -0.000757 0.000000
# 3 -0.002495 -0.001666 0.009264 0.000000 -0.001741 0.000000
# 4 0.000000 0.000000 0.000000 0.029085 0.000000 -0.005694
# 5 0.000541 -0.000757 -0.001741 0.000000 0.025028 0.000000
# 6 0.000000 0.000000 0.000000 -0.005694 0.000000 0.025857
#
#
# Mechanical properties :
#
#
# Convention : Reuss Voigt Hill
#
# Bulk Modulus (GPa) = 37.24571 61.44207 49.34389
# Shear Modulus (GPa) = 32.93396 39.46336 36.19866
#
# Velocity S-wave (km/s) = 3.54467 3.88017 3.71620
# Velocity P-wave (km/s) = 5.56440 6.59660 6.10236
#
# Compressibility (1/GPa) = 0.02684873
#
# Stress axis : x y z
#
# Youngs Moduli (GPa) = 135.88838 35.39738 107.94094
#
# Poissons Ratio (x) = 0.17173 0.26933
# Poissons Ratio (y) = 0.65927 0.17982
# Poissons Ratio (z) = 0.33906 0.05897
#
# Static dielectric constant tensor:
#      x y z
#    x 1.512390 0.000000 -0.461680 
#    y 0.000000 5.094480 0.000000 
#    z -0.461680 0.000000 2.106250 
# 
# From -- ./inp_files/86710.got.cif
#   From: 2010.05.17/outbox.cif.g08.bks.cpg/sg15_44_cif.got.tgz:86710.got - 2010.06.03 18:47:42.
