data_PCOD9293697
_publ_section_title
;
Structure prediction by ZEFSAII (Michael W. Deem and Ramdas Pophale) SiO2 
 PCOD9293697
Probable space group: C 2/C
;
_chemical_formula_sum "Si O2"
_cell_formula_units_Z 36
_cell_length_a 5.066074
_cell_length_b 24.814478
_cell_length_c 12.509424
_cell_angle_alpha 90.000000
_cell_angle_beta 73.209669
_cell_angle_gamma 90.000000
_cell_volume 1505.542469
_symmetry_space_group_name_H-M "C 2/C"
_symmetry_group_IT_number 15
_symmetry_cell_setting 'monoclinic'
loop_
_space_group_symop_operation_xyz
x,y,z
-x,y,1/2-z
-x,-y,-z
x,-y,1/2+z
1/2+x,1/2+y,z
1/2-x,1/2+y,1/2-z
1/2-x,1/2-y,-z
1/2+x,1/2-y,1/2+z
loop_
_atom_site_type_symbol
_atom_site_label
_atom_site_fract_x
_atom_site_fract_y
_atom_site_fract_z
Si Si1 0.560709 0.260361 0.421935
Si Si2 0.727063 0.047477 0.471725
Si Si3 0.555697 0.616473 0.865870
Si Si4 0.711711 0.911163 0.596077
Si Si5 0.000000 0.322133 0.750000
O O1 0.250000 0.250000 0.500000
O O2 0.615003 0.320081 0.368822
O O3 0.621127 0.216469 0.325261
O O4 0.750000 0.250000 0.500000
O O5 0.608770 0.075530 0.378159
O O6 0.738034 0.080866 0.583046
O O7 0.500000 0.000000 0.500000
O O8 0.057751 0.042798 0.410858
O O9 0.500000 0.600629 0.750000
O O10 0.280906 0.607899 0.967765
O O11 0.730095 0.860184 0.669468
#
# Coordination Sequence:
#
# PCOD9293697 Si02
#       5
#     8   8   8   8   4
#     4  12  25  43  65 104 151 204 249 297 372 454
#     4  10  22  46  74 102 141 190 255 328 379 448
#     4  10  23  43  67 108 146 193 258 311 374 466
#     4  10  24  41  72 104 145 189 255 305 388 447
#     4  12  24  46  72 110 164 202 248 322 382 468
#
# _framework density 23.911646000000001
#
# number of rings (size 3 to 8) (size 9 to 14) (size 15 to 20)
#    1.333    0.000    3.333    2.000    0.000    4.444 
#    0.000    2.222    0.000    0.000    0.000    0.000 
#    0.000    0.000    0.000    0.000    0.000    0.000 
#
# Total GULP energy -100244.989151 kJ/mol
# GULP energy per Si atom -5569.166064 kJ/mol
# Density = 2.385722 g / cm^3
# Si number density = 23.911646 Si / 1000 Ang^3
#
#
#
# Elastic Constant Matrix: (Units=GPa)
#
#
# Indices 1 2 3 4 5 6 
#
# 1 170.9301 51.6715 69.0581 0.0000 42.3744 0.0000
# 2 51.6715 139.9799 53.4881 0.0000 21.2743 0.0000
# 3 69.0581 53.4881 100.3875 0.0000 22.8239 0.0000
# 4 0.0000 0.0000 0.0000 26.2006 0.0000 7.7585
# 5 42.3744 21.2743 22.8239 0.0000 36.6249 0.0000
# 6 0.0000 0.0000 0.0000 7.7585 0.0000 33.8646
#
#
#
# Elastic Compliance Matrix: (Units=1/GPa)
#
#
# Indices 1 2 3 4 5 6 
#
# 1 0.009968 -0.000654 -0.004629 0.000000 -0.008268 0.000000
# 2 -0.000654 0.009231 -0.003986 0.000000 -0.002121 0.000000
# 3 -0.004629 -0.003986 0.015758 0.000000 -0.002149 0.000000
# 4 0.000000 0.000000 0.000000 0.040945 0.000000 -0.009381
# 5 -0.008268 -0.002121 -0.002149 0.000000 0.039441 0.000000
# 6 0.000000 0.000000 0.000000 -0.009381 0.000000 0.031679
#
#
# Mechanical properties :
#
#
# Convention : Reuss Voigt Hill
#
# Bulk Modulus (GPa) = 60.90550 84.41478 72.66014
# Shear Modulus (GPa) = 29.23421 35.14332 32.18876
#
# Velocity S-wave (km/s) = 3.50035 3.83785 3.67298
# Velocity P-wave (km/s) = 6.47016 7.41742 6.95993
#
# Compressibility (1/GPa) = 0.01641888
#
# Stress axis : x y z
#
# Youngs Moduli (GPa) = 100.32242 108.33225 63.45956
#
# Poissons Ratio (x) = 0.07087 0.29373
# Poissons Ratio (y) = 0.06563 0.25296
# Poissons Ratio (z) = 0.46436 0.43182
#
# Static dielectric constant tensor:
#      x y z
#    x 2.002670 0.000000 -0.013270 
#    y 0.000000 2.821020 0.000000 
#    z -0.013270 0.000000 1.918830 
# 
# From -- ./inp_files/72886.got.cif
#   From: 2010.05.17/outbox.cif.g08.bks.cpg/sg15_37_cif.got.tgz:72886.got - 2010.06.03 18:47:42.
