data_PCOD9293636
_publ_section_title
;
Structure prediction by ZEFSAII (Michael W. Deem and Ramdas Pophale) SiO2 
 PCOD9293636
Probable space group: C 2/C
;
_chemical_formula_sum "Si O2"
_cell_formula_units_Z 36
_cell_length_a 15.028005
_cell_length_b 5.043950
_cell_length_c 24.157900
_cell_angle_alpha 90.000000
_cell_angle_beta 129.151240
_cell_angle_gamma 90.000000
_cell_volume 1420.048080
_symmetry_space_group_name_H-M "C 2/C"
_symmetry_group_IT_number 15
_symmetry_cell_setting 'monoclinic'
loop_
_space_group_symop_operation_xyz
x,y,z
-x,y,1/2-z
-x,-y,-z
x,-y,1/2+z
1/2+x,1/2+y,z
1/2-x,1/2+y,1/2-z
1/2-x,1/2-y,-z
1/2+x,1/2-y,1/2+z
loop_
_atom_site_type_symbol
_atom_site_label
_atom_site_fract_x
_atom_site_fract_y
_atom_site_fract_z
Si Si1 0.992407 0.944965 0.641006
Si Si2 0.714859 0.353786 0.387066
Si Si3 0.302451 0.903898 0.301176
Si Si4 0.042478 0.246389 0.981633
Si Si5 0.500000 0.264580 0.250000
O O1 0.859074 0.934465 0.606792
O O2 0.000106 0.165696 0.596203
O O3 0.065021 0.691578 0.652177
O O4 0.046541 0.046727 0.719702
O O5 0.819178 0.246987 0.463634
O O6 0.773442 0.458130 0.353784
O O7 0.613321 0.151775 0.324742
O O8 0.265727 0.145598 0.248178
O O9 0.000000 0.500000 0.000000
O O10 0.000000 0.000000 0.000000
#
# Coordination Sequence:
#
# PCOD9293636 Si02
#       5
#     8   8   8   8   4
#     4  10  22  46  71 107 142 187 244 294 369 428
#     4  10  22  46  71 107 142 187 244 294 369 428
#     4  12  24  43  76 107 148 190 244 308 366 437
#     4  12  27  46  73 103 145 196 237 297 365 436
#     4   8  20  42  74 104 138 188 238 308 358 426
#
# _framework density 25.351255999999999
#
# number of rings (size 3 to 8) (size 9 to 14) (size 15 to 20)
#    1.333    0.000    4.444    0.667    3.111    0.000 
#    0.000   23.333    0.000    0.000    0.000    0.000 
#    0.000    0.000    0.000    0.000    0.000    0.000 
#
# Total GULP energy -100396.612046 kJ/mol
# GULP energy per Si atom -5577.589558 kJ/mol
# Density = 2.529356 g / cm^3
# Si number density = 25.351256 Si / 1000 Ang^3
#
#
#
# Elastic Constant Matrix: (Units=GPa)
#
#
# Indices 1 2 3 4 5 6 
#
# 1 178.8985 46.9453 14.8542 0.0003 -9.2771 -0.0002
# 2 46.9453 123.9892 18.6575 -0.0001 -3.9091 -0.0003
# 3 14.8542 18.6575 114.0223 0.0006 7.1078 -0.0002
# 4 0.0003 -0.0001 0.0006 21.4884 0.0000 4.8866
# 5 -9.2771 -3.9091 7.1078 0.0000 73.1515 0.0000
# 6 -0.0002 -0.0003 -0.0002 4.8866 0.0000 12.4346
#
#
#
# Elastic Compliance Matrix: (Units=1/GPa)
#
#
# Indices 1 2 3 4 5 6 
#
# 1 0.006265 -0.002276 -0.000489 0.000000 0.000720 0.000000
# 2 -0.002276 0.009120 -0.001216 0.000000 0.000317 0.000000
# 3 -0.000489 -0.001216 0.009096 0.000000 -0.001011 0.000000
# 4 0.000000 0.000000 0.000000 0.051104 0.000000 -0.020083
# 5 0.000720 0.000317 -0.001011 0.000000 0.013877 0.000000
# 6 0.000000 0.000000 0.000000 -0.020083 0.000000 0.088313
#
#
# Mechanical properties :
#
#
# Convention : Reuss Voigt Hill
#
# Bulk Modulus (GPa) = 60.53111 64.20269 62.36690
# Shear Modulus (GPa) = 26.14503 43.84509 34.99506
#
# Velocity S-wave (km/s) = 3.21489 4.16324 3.71941
# Velocity P-wave (km/s) = 6.14080 6.96350 6.56505
#
# Compressibility (1/GPa) = 0.01652043
#
# Stress axis : x y z
#
# Youngs Moduli (GPa) = 159.61967 109.65158 109.94110
#
# Poissons Ratio (x) = 0.24954 0.05373
# Poissons Ratio (y) = 0.36326 0.13364
# Poissons Ratio (z) = 0.07800 0.13329
#
# Static dielectric constant tensor:
#      x y z
#    x 2.079320 0.000000 0.093990 
#    y 0.000000 1.986050 0.000010 
#    z 0.093990 0.000010 2.111580 
# 
# From -- ./inp_files/294354.got.cif
#   From: 2010.05.17/outbox.cif.g08.bks.cpg/sg15_148_cif.got.tgz:294354.got - 2010.06.03 18:47:42.
