data_PCOD9293007
_publ_section_title
;
Structure prediction by ZEFSAII (Michael W. Deem and Ramdas Pophale) SiO2 
 PCOD9293007
Probable space group: C 2/C
;
_chemical_formula_sum "Si O2"
_cell_formula_units_Z 40
_cell_length_a 12.236557
_cell_length_b 10.161874
_cell_length_c 20.448603
_cell_angle_alpha 90.000000
_cell_angle_beta 140.553665
_cell_angle_gamma 90.000000
_cell_volume 1615.523519
_symmetry_space_group_name_H-M "C 2/C"
_symmetry_group_IT_number 15
_symmetry_cell_setting 'monoclinic'
loop_
_space_group_symop_operation_xyz
x,y,z
-x,y,1/2-z
-x,-y,-z
x,-y,1/2+z
1/2+x,1/2+y,z
1/2-x,1/2+y,1/2-z
1/2-x,1/2-y,-z
1/2+x,1/2-y,1/2+z
loop_
_atom_site_type_symbol
_atom_site_label
_atom_site_fract_x
_atom_site_fract_y
_atom_site_fract_z
Si Si1 0.647726 0.004899 0.359450
Si Si2 0.504419 0.080332 0.932615
Si Si3 0.403749 0.661724 0.541893
Si Si4 0.224438 0.272640 0.625284
Si Si5 0.382941 0.538942 0.752486
O O1 0.500000 0.074413 0.250000
O O2 0.582830 0.984265 0.403821
O O3 0.682844 0.865715 0.341113
O O4 0.820071 0.089355 0.441714
O O5 0.303142 0.107951 0.825426
O O6 0.638352 0.192323 0.015707
O O7 0.500000 0.000000 0.000000
O O8 0.250000 0.750000 0.500000
O O9 0.562087 0.753300 0.597338
O O10 0.490802 0.551630 0.627965
O O11 0.335798 0.390927 0.707212
O O12 0.500000 0.601002 0.750000
#
# Coordination Sequence:
#
# PCOD9293007 Si02
#       5
#     8   8   8   8   8
#     4  12  26  45  69 104 142 185 241 300 362 431
#     4  10  22  44  71 101 140 186 236 297 366 433
#     4  12  26  45  70 104 146 192 240 297 366 435
#     4  11  24  43  70 104 139 187 245 302 359 430
#     4  11  23  43  69 101 140 188 238 294 363 431
#
# _framework density 24.759775000000001
#
# number of rings (size 3 to 8) (size 9 to 14) (size 15 to 20)
#    0.000    0.800    0.000    9.000    0.000    5.600 
#    0.000    2.000    0.000    0.000    0.000    0.000 
#    0.000    0.000    0.000    0.000    0.000    0.000 
#
# Total GULP energy -111848.949649 kJ/mol
# GULP energy per Si atom -5592.447482 kJ/mol
# Density = 2.470342 g / cm^3
# Si number density = 24.759775 Si / 1000 Ang^3
#
#
#
# Elastic Constant Matrix: (Units=GPa)
#
#
# Indices 1 2 3 4 5 6 
#
# 1 111.1360 15.7471 12.2057 0.0000 20.5276 0.0000
# 2 15.7471 100.0386 55.9482 0.0000 14.9521 0.0000
# 3 12.2057 55.9482 184.5815 0.0000 22.1629 0.0000
# 4 0.0000 0.0000 0.0000 15.1503 0.0000 -6.9887
# 5 20.5276 14.9521 22.1629 0.0000 42.2244 0.0000
# 6 0.0000 0.0000 0.0000 -6.9887 0.0000 14.8339
#
#
#
# Elastic Compliance Matrix: (Units=1/GPa)
#
#
# Indices 1 2 3 4 5 6 
#
# 1 0.009966 -0.000990 0.000193 0.000000 -0.004596 0.000000
# 2 -0.000990 0.012388 -0.003437 0.000000 -0.002102 0.000000
# 3 0.000193 -0.003437 0.006736 0.000000 -0.002412 0.000000
# 4 0.000000 0.000000 0.000000 0.084333 0.000000 0.039732
# 5 -0.004596 -0.002102 -0.002412 0.000000 0.027928 0.000000
# 6 0.000000 0.000000 0.000000 0.039732 0.000000 0.086132
#
#
# Mechanical properties :
#
#
# Convention : Reuss Voigt Hill
#
# Bulk Modulus (GPa) = 48.49083 62.61757 55.55420
# Shear Modulus (GPa) = 20.59086 35.23205 27.91145
#
# Velocity S-wave (km/s) = 2.88692 3.77630 3.36116
# Velocity P-wave (km/s) = 5.54432 6.66025 6.12774
#
# Compressibility (1/GPa) = 0.02062246
#
# Stress axis : x y z
#
# Youngs Moduli (GPa) = 100.34221 80.72088 148.44658
#
# Poissons Ratio (x) = 0.07989 -0.02862
# Poissons Ratio (y) = 0.09930 0.51025
# Poissons Ratio (z) = -0.01934 0.27746
#
# Static dielectric constant tensor:
#      x y z
#    x 1.978790 0.000000 -0.045260 
#    y 0.000000 2.055330 0.000000 
#    z -0.045260 0.000000 2.025730 
# 
# From -- ./inp_files/237803.got.cif
#   From: 2010.05.17/outbox.cif.g08.bks.cpg/sg15_119_cif.got.tgz:237803.got - 2010.06.03 18:47:42.
