data_PCOD9293494
_publ_section_title
;
Structure prediction by ZEFSAII (Michael W. Deem and Ramdas Pophale) SiO2 
 PCOD9293494
Probable space group: C 2/C
;
_chemical_formula_sum "Si O2"
_cell_formula_units_Z 28
_cell_length_a 20.754721
_cell_length_b 10.380169
_cell_length_c 13.163290
_cell_angle_alpha 90.000000
_cell_angle_beta 21.605968
_cell_angle_gamma 90.000000
_cell_volume 1044.226704
_symmetry_space_group_name_H-M "C 2/C"
_symmetry_group_IT_number 15
_symmetry_cell_setting 'monoclinic'
loop_
_space_group_symop_operation_xyz
x,y,z
-x,y,1/2-z
-x,-y,-z
x,-y,1/2+z
1/2+x,1/2+y,z
1/2-x,1/2+y,1/2-z
1/2-x,1/2-y,-z
1/2+x,1/2-y,1/2+z
loop_
_atom_site_type_symbol
_atom_site_label
_atom_site_fract_x
_atom_site_fract_y
_atom_site_fract_z
Si Si1 0.413772 0.341573 0.223619
Si Si2 0.000000 0.505376 0.750000
Si Si3 0.750163 0.817965 0.271913
Si Si4 0.750876 0.605567 0.958203
O O1 0.250000 0.250000 0.500000
O O2 0.419347 0.303659 0.095026
O O3 0.373468 0.486862 0.321135
O O4 0.606150 0.296605 0.979929
O O5 0.158406 0.423255 0.476949
O O6 0.064940 0.567279 0.759142
O O7 0.773737 0.874393 0.125771
O O8 0.750000 0.750000 0.000000
#
# Coordination Sequence:
#
# PCOD9293494 Si02
#       4
#     8   4   8   8
#     4  11  23  46  72 103 134 191 238 281 358 426
#     4  10  22  46  64  98 134 186 228 284 360 402
#     4  11  23  45  76  96 142 186 236 288 350 428
#     4  11  26  42  67 106 143 180 232 298 354 416
#
# _framework density 26.814101000000001
#
# number of rings (size 3 to 8) (size 9 to 14) (size 15 to 20)
#    0.000    1.143    5.714    0.857    4.000    3.429 
#    5.143    0.000    0.000    0.000    0.000    0.000 
#    0.000    0.000    0.000    0.000    0.000    0.000 
#
# Total GULP energy -78108.194130 kJ/mol
# GULP energy per Si atom -5579.156724 kJ/mol
# Density = 2.675307 g / cm^3
# Si number density = 26.814101 Si / 1000 Ang^3
#
#
#
# Elastic Constant Matrix: (Units=GPa)
#
#
# Indices 1 2 3 4 5 6 
#
# 1 170.8919 45.2185 38.5378 0.0000 59.7583 0.0000
# 2 45.2185 163.9411 68.2190 0.0000 23.0062 0.0000
# 3 38.5378 68.2190 90.4597 0.0000 26.2698 0.0000
# 4 0.0000 0.0000 0.0000 44.7475 0.0000 23.3589
# 5 59.7583 23.0062 26.2698 0.0000 54.6185 0.0000
# 6 0.0000 0.0000 0.0000 23.3589 0.0000 34.8804
#
#
#
# Elastic Compliance Matrix: (Units=1/GPa)
#
#
# Indices 1 2 3 4 5 6 
#
# 1 0.009727 -0.001114 -0.000407 0.000000 -0.009978 0.000000
# 2 -0.001114 0.009034 -0.006494 0.000000 0.000537 0.000000
# 3 -0.000407 -0.006494 0.017670 0.000000 -0.005318 0.000000
# 4 0.000000 0.000000 0.000000 0.034359 0.000000 -0.023010
# 5 -0.009978 0.000537 -0.005318 0.000000 0.031558 0.000000
# 6 0.000000 0.000000 0.000000 -0.023010 0.000000 0.044079
#
#
# Mechanical properties :
#
#
# Convention : Reuss Voigt Hill
#
# Bulk Modulus (GPa) = 49.01452 81.02703 65.02077
# Shear Modulus (GPa) = 29.54105 45.07041 37.30573
#
# Velocity S-wave (km/s) = 3.32278 4.10426 3.73402
# Velocity P-wave (km/s) = 5.74807 7.26248 6.54919
#
# Compressibility (1/GPa) = 0.02040212
#
# Stress axis : x y z
#
# Youngs Moduli (GPa) = 102.80569 110.69305 56.59330
#
# Poissons Ratio (x) = 0.12326 0.02301
# Poissons Ratio (y) = 0.11448 0.36753
# Poissons Ratio (z) = 0.04180 0.71888
#
# Static dielectric constant tensor:
#      x y z
#    x 0.767150 0.000000 0.012390 
#    y 0.000000 1.864810 0.000000 
#    z 0.012390 0.000000 2.143200 
# 
# From -- ./inp_files/93347.got.cif
#   From: 2010.05.17/outbox.cif.g08.bks.cpg/sg15_47_cif.got.tgz:93347.got - 2010.06.03 18:47:42.
