data_PCOD9293129
_publ_section_title
;
Structure prediction by ZEFSAII (Michael W. Deem and Ramdas Pophale) SiO2 
 PCOD9293129
Probable space group: C 2/C
;
_chemical_formula_sum "Si O2"
_cell_formula_units_Z 48
_cell_length_a 25.014687
_cell_length_b 21.222096
_cell_length_c 11.059868
_cell_angle_alpha 90.000000
_cell_angle_beta 158.108218
_cell_angle_gamma 90.000000
_cell_volume 2189.136848
_symmetry_space_group_name_H-M "C 2/C"
_symmetry_group_IT_number 15
_symmetry_cell_setting 'monoclinic'
loop_
_space_group_symop_operation_xyz
x,y,z
-x,y,1/2-z
-x,-y,-z
x,-y,1/2+z
1/2+x,1/2+y,z
1/2-x,1/2+y,1/2-z
1/2-x,1/2-y,-z
1/2+x,1/2-y,1/2+z
loop_
_atom_site_type_symbol
_atom_site_label
_atom_site_fract_x
_atom_site_fract_y
_atom_site_fract_z
Si Si1 0.380751 0.111781 0.151099
Si Si2 0.808002 0.426340 0.232706
Si Si3 0.500000 0.858225 0.250000
Si Si4 0.584385 0.768932 0.650713
Si Si5 0.843593 0.812081 0.716420
Si Si6 0.000000 0.133968 0.750000
Si Si7 0.763467 0.929632 0.905872
O O1 0.526429 0.071073 0.463547
O O2 0.431877 0.184221 0.269245
O O3 0.279528 0.097942 0.052972
O O4 0.310356 0.097789 0.875625
O O5 0.742532 0.495492 0.093971
O O6 0.727803 0.374593 0.984718
O O7 0.523485 0.811438 0.412877
O O8 0.638483 0.903875 0.552313
O O9 0.492408 0.706078 0.465169
O O10 0.750000 0.750000 0.000000
O O11 0.750000 0.750000 0.500000
O O12 0.882684 0.823473 0.937381
O O13 0.914197 0.093131 0.668286
#
# Coordination Sequence:
#
# PCOD9293129 Si02
#       7
#     8   8   4   8   8   4   8
#     4  10  23  45  71 110 140 185 245 299 342 425
#     4  11  25  44  78 107 141 189 241 300 351 429
#     4  10  22  44  74 104 140 198 242 302 350 428
#     4  11  24  42  68 106 148 188 240 296 358 432
#     4  12  26  45  74 103 144 192 233 291 371 430
#     4  12  30  48  68 108 150 188 232 308 360 428
#     4  11  25  48  74 103 148 186 245 292 365 419
#
# _framework density 21.926451
#
# number of rings (size 3 to 8) (size 9 to 14) (size 15 to 20)
#    0.000    1.000    1.667    4.500    9.333    0.667 
#    3.000    0.000    0.000    0.000    0.000    0.000 
#    0.000    0.000    0.000    0.000    0.000    0.000 
#
# Total GULP energy -134174.356967 kJ/mol
# GULP energy per Si atom -5590.598207 kJ/mol
# Density = 2.187655 g / cm^3
# Si number density = 21.926451 Si / 1000 Ang^3
#
#
#
# Elastic Constant Matrix: (Units=GPa)
#
#
# Indices 1 2 3 4 5 6 
#
# 1 102.9383 31.1904 38.8791 0.0000 2.7064 0.0000
# 2 31.1904 126.0550 35.7019 0.0000 -19.5464 0.0000
# 3 38.8791 35.7019 88.6637 0.0000 -6.2376 0.0000
# 4 0.0000 0.0000 0.0000 29.0342 0.0000 6.0317
# 5 2.7064 -19.5464 -6.2376 0.0000 37.8544 0.0000
# 6 0.0000 0.0000 0.0000 6.0317 0.0000 35.9008
#
#
#
# Elastic Compliance Matrix: (Units=1/GPa)
#
#
# Indices 1 2 3 4 5 6 
#
# 1 0.012199 -0.002114 -0.004690 0.000000 -0.002737 0.000000
# 2 -0.002114 0.009989 -0.002753 0.000000 0.004855 0.000000
# 3 -0.004690 -0.002753 0.014536 0.000000 0.001309 0.000000
# 4 0.000000 0.000000 0.000000 0.035688 0.000000 -0.005996
# 5 -0.002737 0.004855 0.001309 0.000000 0.029335 0.000000
# 6 0.000000 0.000000 0.000000 -0.005996 0.000000 0.028862
#
#
# Mechanical properties :
#
#
# Convention : Reuss Voigt Hill
#
# Bulk Modulus (GPa) = 56.79416 58.79997 57.79707
# Shear Modulus (GPa) = 32.13492 34.68360 33.40926
#
# Velocity S-wave (km/s) = 3.83244 3.98152 3.90769
# Velocity P-wave (km/s) = 6.74847 6.92905 6.83936
#
# Compressibility (1/GPa) = 0.01760744
#
# Stress axis : x y z
#
# Youngs Moduli (GPa) = 81.97634 100.11076 68.79433
#
# Poissons Ratio (x) = 0.21167 0.32266
# Poissons Ratio (y) = 0.17333 0.18943
# Poissons Ratio (z) = 0.38449 0.27565
#
# Static dielectric constant tensor:
#      x y z
#    x 1.838410 0.000000 0.024040 
#    y 0.000000 1.804500 0.000000 
#    z 0.024040 0.000000 1.856490 
# 
# From -- ./inp_files/124353.got.cif
#   From: 2010.05.17/outbox.cif.g08.bks.cpg/sg15_63_cif.got.tgz:124353.got - 2010.06.03 18:47:42.
