data_PCOD9293294
_publ_section_title
;
Structure prediction by ZEFSAII (Michael W. Deem and Ramdas Pophale) SiO2 
 PCOD9293294
Probable space group: C 2/C
;
_chemical_formula_sum "Si O2"
_cell_formula_units_Z 48
_cell_length_a 9.147441
_cell_length_b 23.675291
_cell_length_c 11.423901
_cell_angle_alpha 90.000000
_cell_angle_beta 58.596111
_cell_angle_gamma 90.000000
_cell_volume 2111.644235
_symmetry_space_group_name_H-M "C 2/C"
_symmetry_group_IT_number 15
_symmetry_cell_setting 'monoclinic'
loop_
_space_group_symop_operation_xyz
x,y,z
-x,y,1/2-z
-x,-y,-z
x,-y,1/2+z
1/2+x,1/2+y,z
1/2-x,1/2+y,1/2-z
1/2-x,1/2-y,-z
1/2+x,1/2-y,1/2+z
loop_
_atom_site_type_symbol
_atom_site_label
_atom_site_fract_x
_atom_site_fract_y
_atom_site_fract_z
Si Si1 0.205903 0.147802 0.908817
Si Si2 0.756015 0.208795 0.852618
Si Si3 0.671243 0.448963 0.255322
Si Si4 0.850329 0.170830 0.053741
Si Si5 0.326630 0.935158 0.762228
Si Si6 0.996686 0.377740 0.471320
O O1 0.241699 0.186432 0.780410
O O2 0.145311 0.087997 0.881828
O O3 0.370847 0.135462 0.916648
O O4 0.035449 0.172234 0.039217
O O5 0.758356 0.275704 0.858052
O O6 0.577389 0.182180 0.974047
O O7 0.878452 0.182479 0.902310
O O8 0.500000 0.444995 0.250000
O O9 0.709087 0.512797 0.275564
O O10 0.842781 0.419820 0.126151
O O11 0.758249 0.112000 0.119324
O O12 0.500000 0.957892 0.750000
O O13 0.386281 0.904242 0.619792
#
# Coordination Sequence:
#
# PCOD9293294 Si02
#       6
#     8   8   8   8   8   8
#     4  11  24  45  71  99 140 181 232 279 348 410
#     4  10  22  45  69 100 137 184 234 274 340 401
#     4  11  25  45  74 101 133 182 228 281 345 419
#     4  11  25  41  73 103 137 186 228 287 332 410
#     4  12  26  45  67 102 141 177 229 284 344 404
#     4  11  24  47  70 100 138 184 222 286 345 407
#
# _framework density 22.731100999999999
#
# number of rings (size 3 to 8) (size 9 to 14) (size 15 to 20)
#    0.000    1.000    1.667    6.000    4.667    1.333 
#    3.000    0.000    0.000    0.000    0.000    0.000 
#    0.000    0.000    0.000    0.000    0.000    0.000 
#
# Total GULP energy -134109.266106 kJ/mol
# GULP energy per Si atom -5587.886088 kJ/mol
# Density = 2.267936 g / cm^3
# Si number density = 22.731101 Si / 1000 Ang^3
#
#
#
# Elastic Constant Matrix: (Units=GPa)
#
#
# Indices 1 2 3 4 5 6 
#
# 1 191.5514 38.3543 24.8050 0.0000 5.7017 0.0000
# 2 38.3543 76.1659 7.6223 0.0000 -10.9716 0.0000
# 3 24.8050 7.6223 61.3080 0.0000 1.2869 0.0000
# 4 0.0000 0.0000 0.0000 3.2929 0.0000 6.0561
# 5 5.7017 -10.9716 1.2869 0.0000 26.5725 0.0000
# 6 0.0000 0.0000 0.0000 6.0561 0.0000 29.3257
#
#
#
# Elastic Compliance Matrix: (Units=1/GPa)
#
#
# Indices 1 2 3 4 5 6 
#
# 1 0.006225 -0.003304 -0.002053 0.000000 -0.002601 0.000000
# 2 -0.003304 0.015928 -0.000797 0.000000 0.007324 0.000000
# 3 -0.002053 -0.000797 0.017256 0.000000 -0.000724 0.000000
# 4 0.000000 0.000000 0.000000 0.489664 0.000000 -0.101122
# 5 -0.002601 0.007324 -0.000724 0.000000 0.041250 0.000000
# 6 0.000000 0.000000 0.000000 -0.101122 0.000000 0.054983
#
#
# Mechanical properties :
#
#
# Convention : Reuss Voigt Hill
#
# Bulk Modulus (GPa) = 36.90014 52.28761 44.59387
# Shear Modulus (GPa) = 7.73217 29.05446 18.39331
#
# Velocity S-wave (km/s) = 1.84634 3.57904 2.84768
# Velocity P-wave (km/s) = 4.56222 6.33498 5.52023
#
# Compressibility (1/GPa) = 0.02710017
#
# Stress axis : x y z
#
# Youngs Moduli (GPa) = 160.63214 62.78328 57.95015
#
# Poissons Ratio (x) = 0.20744 0.11900
# Poissons Ratio (y) = 0.53073 0.04620
# Poissons Ratio (z) = 0.32984 0.05005
#
# Static dielectric constant tensor:
#      x y z
#    x 1.883710 0.000000 -0.018080 
#    y 0.000000 1.832360 0.000000 
#    z -0.018080 0.000000 1.879080 
# 
# From -- ./inp_files/80544.got.cif
#   From: 2010.05.17/outbox.cif.g08.bks.cpg/sg15_41_cif.got.tgz:80544.got - 2010.06.03 18:47:42.
