data_PCOD9293065
_publ_section_title
;
Structure prediction by ZEFSAII (Michael W. Deem and Ramdas Pophale) SiO2 
 PCOD9293065
Probable space group: C 2/C
;
_chemical_formula_sum "Si O2"
_cell_formula_units_Z 44
_cell_length_a 18.664417
_cell_length_b 11.721753
_cell_length_c 9.987394
_cell_angle_alpha 90.000000
_cell_angle_beta 122.426887
_cell_angle_gamma 90.000000
_cell_volume 1844.339759
_symmetry_space_group_name_H-M "C 2/C"
_symmetry_group_IT_number 15
_symmetry_cell_setting 'monoclinic'
loop_
_space_group_symop_operation_xyz
x,y,z
-x,y,1/2-z
-x,-y,-z
x,-y,1/2+z
1/2+x,1/2+y,z
1/2-x,1/2+y,1/2-z
1/2-x,1/2-y,-z
1/2+x,1/2-y,1/2+z
loop_
_atom_site_type_symbol
_atom_site_label
_atom_site_fract_x
_atom_site_fract_y
_atom_site_fract_z
Si Si1 0.000000 0.876636 0.750000
Si Si2 0.874848 0.286800 0.292881
Si Si3 0.659034 0.475408 0.483266
Si Si4 0.093374 0.258089 0.864303
Si Si5 0.250183 0.900606 0.843469
Si Si6 0.409741 0.966709 0.845334
O O1 0.055898 0.795673 0.708124
O O2 0.069362 0.957360 0.892428
O O3 0.894465 0.294507 0.470455
O O4 0.782491 0.229570 0.186524
O O5 0.881223 0.415019 0.249646
O O6 0.654212 0.350026 0.409485
O O7 0.693622 0.456464 0.666823
O O8 0.721449 0.544615 0.451887
O O9 0.000000 0.208017 0.750000
O O10 0.095247 0.365025 0.767320
O O11 0.345517 0.924548 0.895878
O O12 0.500000 0.000000 0.000000
#
# Coordination Sequence:
#
# PCOD9293065 Si02
#       6
#     4   8   8   8   8   8
#     4  10  22  44  72 108 144 182 232 308 350 432
#     4  10  25  46  69 103 143 184 240 287 366 418
#     4  10  23  44  75 107 142 184 245 292 365 423
#     4  11  23  41  73 105 135 189 231 289 351 431
#     4  10  26  45  71 104 144 191 237 303 352 427
#     4  12  27  44  69 103 147 187 240 294 356 425
#
# _framework density 23.856777000000001
#
# number of rings (size 3 to 8) (size 9 to 14) (size 15 to 20)
#    0.000    1.455    2.727    0.000    8.909    3.636 
#    0.000    1.818    0.000    0.000    0.000    0.000 
#    0.000    0.000    0.000    0.000    0.000    0.000 
#
# Total GULP energy -123139.468491 kJ/mol
# GULP energy per Si atom -5597.248568 kJ/mol
# Density = 2.380248 g / cm^3
# Si number density = 23.856777 Si / 1000 Ang^3
#
#
#
# Elastic Constant Matrix: (Units=GPa)
#
#
# Indices 1 2 3 4 5 6 
#
# 1 117.6969 51.1034 38.3403 0.0000 18.5240 0.0000
# 2 51.1034 155.7111 51.0334 0.0000 3.8636 0.0000
# 3 38.3403 51.0334 121.4118 0.0000 9.2009 0.0000
# 4 0.0000 0.0000 0.0000 30.3059 0.0000 -5.7538
# 5 18.5240 3.8636 9.2009 0.0000 36.0281 0.0000
# 6 0.0000 0.0000 0.0000 -5.7538 0.0000 20.6504
#
#
#
# Elastic Compliance Matrix: (Units=1/GPa)
#
#
# Indices 1 2 3 4 5 6 
#
# 1 0.011165 -0.002910 -0.001929 0.000000 -0.004936 0.000000
# 2 -0.002910 0.008207 -0.002628 0.000000 0.001287 0.000000
# 3 -0.001929 -0.002628 0.010048 0.000000 -0.001293 0.000000
# 4 0.000000 0.000000 0.000000 0.034840 0.000000 0.009707
# 5 -0.004936 0.001287 -0.001293 0.000000 0.030486 0.000000
# 6 0.000000 0.000000 0.000000 0.009707 0.000000 0.051130
#
#
# Mechanical properties :
#
#
# Convention : Reuss Voigt Hill
#
# Bulk Modulus (GPa) = 69.02952 75.08603 72.05777
# Shear Modulus (GPa) = 30.18642 34.35303 32.26973
#
# Velocity S-wave (km/s) = 3.56099 3.79881 3.68182
# Velocity P-wave (km/s) = 6.77535 7.12624 6.95301
#
# Compressibility (1/GPa) = 0.01448656
#
# Stress axis : x y z
#
# Youngs Moduli (GPa) = 89.56660 121.85434 99.52080
#
# Poissons Ratio (x) = 0.35456 0.19194
# Poissons Ratio (y) = 0.26061 0.26156
# Poissons Ratio (z) = 0.17274 0.32026
#
# Static dielectric constant tensor:
#      x y z
#    x 1.907880 0.000000 0.041300 
#    y 0.000000 1.915150 0.000000 
#    z 0.041300 0.000000 2.104290 
# 
# From -- ./inp_files/104347.got.cif
#   From: 2010.05.17/outbox.cif.g08.bks.cpg/sg15_53_cif.got.tgz:104347.got - 2010.06.03 18:47:42.
