data_PCOD9293577
_publ_section_title
;
Structure prediction by ZEFSAII (Michael W. Deem and Ramdas Pophale) SiO2 
 PCOD9293577
Probable space group: C 2/C
;
_chemical_formula_sum "Si O2"
_cell_formula_units_Z 56
_cell_length_a 11.179595
_cell_length_b 24.613749
_cell_length_c 13.899018
_cell_angle_alpha 90.000000
_cell_angle_beta 142.888667
_cell_angle_gamma 90.000000
_cell_volume 2307.642878
_symmetry_space_group_name_H-M "C 2/C"
_symmetry_group_IT_number 15
_symmetry_cell_setting 'monoclinic'
loop_
_space_group_symop_operation_xyz
x,y,z
-x,y,1/2-z
-x,-y,-z
x,-y,1/2+z
1/2+x,1/2+y,z
1/2-x,1/2+y,1/2-z
1/2-x,1/2-y,-z
1/2+x,1/2-y,1/2+z
loop_
_atom_site_type_symbol
_atom_site_label
_atom_site_fract_x
_atom_site_fract_y
_atom_site_fract_z
Si Si1 0.275872 0.323761 0.598329
Si Si2 0.736569 0.891965 0.223422
Si Si3 0.000000 0.642171 0.750000
Si Si4 0.000000 0.929270 0.750000
Si Si5 0.449408 0.696642 0.575696
Si Si6 0.581443 0.521534 0.951709
Si Si7 0.644913 0.197273 0.219896
Si Si8 0.860764 0.391749 0.551816
O O1 0.500000 0.299816 0.750000
O O2 0.322298 0.387047 0.654386
O O3 0.161660 0.300083 0.615726
O O4 0.155606 0.324789 0.420026
O O5 0.618224 0.894338 0.247588
O O6 0.621340 0.901701 0.051055
O O7 0.838172 0.832651 0.293189
O O8 0.915138 0.933653 0.323803
O O9 0.932297 0.969049 0.623377
O O10 0.488978 0.755580 0.644001
O O11 0.349950 0.703517 0.407363
O O12 0.306538 0.655635 0.542167
O O13 0.783285 0.555067 0.058523
O O14 0.500000 0.500000 0.000000
O O15 0.566998 0.138574 0.203647
#
# Coordination Sequence:
#
# PCOD9293577 Si02
#       8
#     8   8   4   4   8   8   8   8
#     4  10  25  44  74 103 151 193 248 305 367 443
#     4  11  23  45  73 103 140 192 243 302 374 443
#     4  12  22  46  73 100 144 198 239 316 368 432
#     4  10  22  46  69 104 142 190 239 300 356 440
#     4  11  25  42  72 105 145 189 237 310 376 440
#     4  11  22  42  75 103 145 194 239 297 379 429
#     4  12  24  46  70 111 142 187 249 303 374 450
#     4  11  23  44  72 107 141 186 245 300 373 443
#
# _framework density 24.267185000000001
#
# number of rings (size 3 to 8) (size 9 to 14) (size 15 to 20)
#    0.429    0.571    2.857    4.714    4.000    1.143 
#    1.286    5.714    9.429    0.000    0.000    0.000 
#    0.000    0.000    0.000    0.000    0.000    0.000 
#
# Total GULP energy -156288.835558 kJ/mol
# GULP energy per Si atom -5581.744127 kJ/mol
# Density = 2.421195 g / cm^3
# Si number density = 24.267185 Si / 1000 Ang^3
#
#
#
# Elastic Constant Matrix: (Units=GPa)
#
#
# Indices 1 2 3 4 5 6 
#
# 1 122.7587 28.5543 23.1406 0.0000 -10.1882 0.0000
# 2 28.5543 97.0330 43.0032 0.0000 -12.0384 0.0000
# 3 23.1406 43.0032 109.7359 0.0000 -3.6155 0.0000
# 4 0.0000 0.0000 0.0000 22.1965 0.0000 -2.8998
# 5 -10.1882 -12.0384 -3.6155 0.0000 32.3904 0.0000
# 6 0.0000 0.0000 0.0000 -2.8998 0.0000 27.4564
#
#
#
# Elastic Compliance Matrix: (Units=1/GPa)
#
#
# Indices 1 2 3 4 5 6 
#
# 1 0.008959 -0.001914 -0.001074 0.000000 0.001987 0.000000
# 2 -0.001914 0.013449 -0.004739 0.000000 0.003868 0.000000
# 3 -0.001074 -0.004739 0.011168 0.000000 -0.000853 0.000000
# 4 0.000000 0.000000 0.000000 0.045683 0.000000 0.004825
# 5 0.001987 0.003868 -0.000853 0.000000 0.032841 0.000000
# 6 0.000000 0.000000 0.000000 0.004825 0.000000 0.036931
#
#
# Mechanical properties :
#
#
# Convention : Reuss Voigt Hill
#
# Bulk Modulus (GPa) = 55.18128 57.65818 56.41973
# Shear Modulus (GPa) = 29.32121 32.06396 30.69259
#
# Velocity S-wave (km/s) = 3.47978 3.63890 3.56023
# Velocity P-wave (km/s) = 6.23968 6.43947 6.34036
#
# Compressibility (1/GPa) = 0.01812209
#
# Stress axis : x y z
#
# Youngs Moduli (GPa) = 111.62548 74.35342 89.53839
#
# Poissons Ratio (x) = 0.14231 0.09613
# Poissons Ratio (y) = 0.21365 0.42436
# Poissons Ratio (z) = 0.11984 0.35239
#
# Static dielectric constant tensor:
#      x y z
#    x 2.208530 0.000000 -0.204930 
#    y 0.000000 1.979830 0.000000 
#    z -0.204930 0.000000 2.225580 
# 
# From -- ./inp_files/148616.got.cif
#   From: 2010.05.17/outbox.cif.g08.bks.cpg/sg15_75_cif.got.tgz:148616.got - 2010.06.03 18:47:42.
