data_PCOD9293786
_publ_section_title
;
Structure prediction by ZEFSAII (Michael W. Deem and Ramdas Pophale) SiO2 
 PCOD9293786
Probable space group: C 2/C
;
_chemical_formula_sum "Si O2"
_cell_formula_units_Z 60
_cell_length_a 11.961173
_cell_length_b 19.830076
_cell_length_c 23.717716
_cell_angle_alpha 90.000000
_cell_angle_beta 152.451234
_cell_angle_gamma 90.000000
_cell_volume 2601.872131
_symmetry_space_group_name_H-M "C 2/C"
_symmetry_group_IT_number 15
_symmetry_cell_setting 'monoclinic'
loop_
_space_group_symop_operation_xyz
x,y,z
-x,y,1/2-z
-x,-y,-z
x,-y,1/2+z
1/2+x,1/2+y,z
1/2-x,1/2+y,1/2-z
1/2-x,1/2-y,-z
1/2+x,1/2-y,1/2+z
loop_
_atom_site_type_symbol
_atom_site_label
_atom_site_fract_x
_atom_site_fract_y
_atom_site_fract_z
Si Si1 0.384463 0.605903 0.978701
Si Si2 0.000000 0.266580 0.750000
Si Si3 0.028000 0.325857 0.031498
Si Si4 0.117791 0.267635 0.381907
Si Si5 0.766737 0.175828 0.277936
Si Si6 0.293070 0.565297 0.704944
Si Si7 0.438016 0.925667 0.891048
Si Si8 0.569530 0.457183 0.446757
O O1 0.151508 0.655630 0.877169
O O2 0.461461 0.586585 0.949856
O O3 0.568915 0.653127 0.095854
O O4 0.398830 0.534535 0.017816
O O5 0.241315 0.222523 0.863571
O O6 0.022390 0.307236 0.701673
O O7 0.088591 0.376213 0.110948
O O8 0.026966 0.376208 0.979036
O O9 0.779548 0.283590 0.916762
O O10 0.250000 0.250000 0.500000
O O11 0.855041 0.239189 0.280103
O O12 0.762528 0.113405 0.234216
O O13 0.500000 0.579150 0.750000
O O14 0.410186 0.554074 0.818972
O O15 0.165433 0.495154 0.632310
O O16 0.660101 0.937478 0.948834
#
# Coordination Sequence:
#
# PCOD9293786 Si02
#       8
#     8   4   8   8   8   8   8   8
#     4  10  22  47  72 102 142 181 233 287 355 417
#     4  12  22  44  70  96 138 180 232 284 348 430
#     4  12  25  44  68 101 139 182 233 292 350 415
#     4  10  23  44  73  98 144 188 222 295 348 421
#     4  11  24  44  73 100 139 188 228 286 359 417
#     4  12  26  44  67 103 137 188 237 290 354 418
#     4  12  27  41  72  98 139 184 235 294 346 419
#     4  11  24  46  73 103 140 184 237 294 349 421
#
# _framework density 23.060317999999999
#
# number of rings (size 3 to 8) (size 9 to 14) (size 15 to 20)
#    0.000    0.800    6.000    1.200    5.600    0.533 
#    2.400    1.333    0.000    0.000    0.000    0.000 
#    0.000    0.000    0.000    0.000    0.000    0.000 
#
# Total GULP energy -167455.920111 kJ/mol
# GULP energy per Si atom -5581.864004 kJ/mol
# Density = 2.300783 g / cm^3
# Si number density = 23.060318 Si / 1000 Ang^3
#
#
#
# Elastic Constant Matrix: (Units=GPa)
#
#
# Indices 1 2 3 4 5 6 
#
# 1 125.0269 60.7353 26.7495 -0.0006 -3.5838 -0.0008
# 2 60.7353 129.1338 12.8690 0.0031 0.9219 -0.0004
# 3 26.7495 12.8690 43.2549 -0.0018 -21.9526 -0.0124
# 4 -0.0006 0.0031 -0.0018 -74.5799 -0.0069 -52.0262
# 5 -3.5838 0.9219 -21.9526 -0.0069 31.6226 -0.0054
# 6 -0.0008 -0.0004 -0.0124 -52.0262 -0.0054 10.6087
#
#
#
# Elastic Compliance Matrix: (Units=1/GPa)
#
#
# Indices 1 2 3 4 5 6 
#
# 1 0.011917 -0.004777 -0.008017 0.000002 -0.004076 -0.000002
# 2 -0.004777 0.010072 -0.000720 0.000000 -0.001335 0.000000
# 3 -0.008017 -0.000720 0.042985 -0.000011 0.028953 0.000010
# 4 0.000002 0.000000 -0.000011 -0.003033 -0.000011 -0.014873
# 5 -0.004076 -0.001335 0.028953 -0.000011 0.051299 0.000007
# 6 -0.000002 0.000000 0.000010 -0.014873 0.000007 0.021321
#
#
# Mechanical properties :
#
#
# Convention : Reuss Voigt Hill
#
# Bulk Modulus (GPa) = 26.35293 55.34702 40.84997
# Shear Modulus (GPa) = 28.69637 6.66773 17.68205
#
# Velocity S-wave (km/s) = 3.53144 1.70227 2.77207
# Velocity P-wave (km/s) = 5.29912 5.28363 5.29138
#
# Compressibility (1/GPa) = 0.03794645
#
# Stress axis : x y z
#
# Youngs Moduli (GPa) = 83.91202 99.28600 23.26400
#
# Poissons Ratio (x) = 0.47429 0.18651
# Poissons Ratio (y) = 0.40085 0.01674
# Poissons Ratio (z) = 0.67273 0.07146
#
# Static dielectric constant tensor:
#      x y z
#    x 1.970680 0.000050 0.065730 
#    y 0.000050 1.899340 0.000010 
#    z 0.065730 0.000010 1.987110 
# 
# From -- ./inp_files/271029.got.cif
#   From: 2010.05.17/outbox.cif.g08.bks.cpg/sg15_136_cif.got.tgz:271029.got - 2010.06.03 18:47:42.
