data_PCOD9293633
_publ_section_title
;
Structure prediction by ZEFSAII (Michael W. Deem and Ramdas Pophale) SiO2 
 PCOD9293633
Probable space group: C 2/C
;
_chemical_formula_sum "Si O2"
_cell_formula_units_Z 40
_cell_length_a 12.727818
_cell_length_b 7.981562
_cell_length_c 17.472062
_cell_angle_alpha 90.000000
_cell_angle_beta 119.018188
_cell_angle_gamma 90.000000
_cell_volume 1552.132604
_symmetry_space_group_name_H-M "C 2/C"
_symmetry_group_IT_number 15
_symmetry_cell_setting 'monoclinic'
loop_
_space_group_symop_operation_xyz
x,y,z
-x,y,1/2-z
-x,-y,-z
x,-y,1/2+z
1/2+x,1/2+y,z
1/2-x,1/2+y,1/2-z
1/2-x,1/2-y,-z
1/2+x,1/2-y,1/2+z
loop_
_atom_site_type_symbol
_atom_site_label
_atom_site_fract_x
_atom_site_fract_y
_atom_site_fract_z
Si Si1 0.028348 0.101402 0.350766
Si Si2 0.220936 0.661470 0.119299
Si Si3 0.000000 0.416066 0.750000
Si Si4 0.500000 0.000000 0.000000
Si Si5 0.115066 0.752771 0.423781
Si Si6 0.674859 0.854414 0.211428
O O1 0.157102 0.191291 0.383799
O O2 0.056206 0.935135 0.407896
O O3 0.000000 0.064848 0.250000
O O4 0.913185 0.201226 0.342568
O O5 0.225701 0.783315 0.195103
O O6 0.214963 0.471390 0.155256
O O7 0.105719 0.649658 0.025985
O O8 0.093339 0.303268 0.829271
O O9 0.083112 0.532049 0.727267
O O10 0.551553 0.890591 0.949140
O O11 0.250000 0.750000 0.500000
#
# Coordination Sequence:
#
# PCOD9293633 Si02
#       6
#     8   8   4   4   8   8
#     4  10  22  46  71 102 147 193 247 307 377 443
#     4  11  24  44  69 106 148 186 249 315 365 457
#     4  12  24  48  78 108 150 202 256 306 392 454
#     4  12  26  42  68 110 152 182 264 300 374 462
#     4  12  26  46  74 109 154 203 248 321 379 451
#     4  11  25  44  76 111 139 200 258 306 383 460
#
# _framework density 25.770994999999999
#
# number of rings (size 3 to 8) (size 9 to 14) (size 15 to 20)
#    0.000    0.800    8.000    0.000    8.400    0.000 
#    3.600    4.000    0.000    0.000    0.000    0.000 
#    0.000    0.000    0.000    0.000    0.000    0.000 
#
# Total GULP energy -111435.604388 kJ/mol
# GULP energy per Si atom -5571.780219 kJ/mol
# Density = 2.571234 g / cm^3
# Si number density = 25.770995 Si / 1000 Ang^3
#
#
#
# Elastic Constant Matrix: (Units=GPa)
#
#
# Indices 1 2 3 4 5 6 
#
# 1 56.7559 8.0025 24.7222 0.0000 8.1824 0.0000
# 2 8.0025 86.6434 30.6934 0.0000 -9.1200 0.0000
# 3 24.7222 30.6934 97.3637 0.0000 11.7523 0.0000
# 4 0.0000 0.0000 0.0000 53.7143 0.0000 -1.6805
# 5 8.1824 -9.1200 11.7523 0.0000 30.0443 0.0000
# 6 0.0000 0.0000 0.0000 -1.6805 0.0000 34.9609
#
#
#
# Elastic Compliance Matrix: (Units=1/GPa)
#
#
# Indices 1 2 3 4 5 6 
#
# 1 0.020225 -0.000721 -0.004426 0.000000 -0.003996 0.000000
# 2 -0.000721 0.014066 -0.005028 0.000000 0.006433 0.000000
# 3 -0.004426 -0.005028 0.013663 0.000000 -0.005665 0.000000
# 4 0.000000 0.000000 0.000000 0.018645 0.000000 0.000896
# 5 -0.003996 0.006433 -0.005665 0.000000 0.038541 0.000000
# 6 0.000000 0.000000 0.000000 0.000896 0.000000 0.028646
#
#
# Mechanical properties :
#
#
# Convention : Reuss Voigt Hill
#
# Bulk Modulus (GPa) = 36.22434 40.84435 38.53434
# Shear Modulus (GPa) = 30.61136 35.56690 33.08913
#
# Velocity S-wave (km/s) = 3.45022 3.71902 3.58714
# Velocity P-wave (km/s) = 5.47346 5.85874 5.66937
#
# Compressibility (1/GPa) = 0.02760575
#
# Stress axis : x y z
#
# Youngs Moduli (GPa) = 49.44411 71.09175 73.18818
#
# Poissons Ratio (x) = 0.05124 0.32392
# Poissons Ratio (y) = 0.03563 0.36798
# Poissons Ratio (z) = 0.21884 0.35744
#
# Static dielectric constant tensor:
#      x y z
#    x 2.025810 0.000000 0.104190 
#    y 0.000000 2.067900 0.000000 
#    z 0.104190 0.000000 2.370290 
# 
# From -- ./inp_files/242677.got.cif
#   From: 2010.05.17/outbox.cif.g08.bks.cpg/sg15_122_cif.got.tgz:242677.got - 2010.06.03 18:47:42.
