data_PCOD9293178
_publ_section_title
;
Structure prediction by ZEFSAII (Michael W. Deem and Ramdas Pophale) SiO2 
 PCOD9293178
Probable space group: C 2/C
;
_chemical_formula_sum "Si O2"
_cell_formula_units_Z 36
_cell_length_a 7.917237
_cell_length_b 29.268039
_cell_length_c 8.547151
_cell_angle_alpha 90.000000
_cell_angle_beta 52.167593
_cell_angle_gamma 90.000000
_cell_volume 1564.264887
_symmetry_space_group_name_H-M "C 2/C"
_symmetry_group_IT_number 15
_symmetry_cell_setting 'monoclinic'
loop_
_space_group_symop_operation_xyz
x,y,z
-x,y,1/2-z
-x,-y,-z
x,-y,1/2+z
1/2+x,1/2+y,z
1/2-x,1/2+y,1/2-z
1/2-x,1/2-y,-z
1/2+x,1/2-y,1/2+z
loop_
_atom_site_type_symbol
_atom_site_label
_atom_site_fract_x
_atom_site_fract_y
_atom_site_fract_z
Si Si1 0.186701 0.688856 0.775513
Si Si2 0.725434 0.040826 0.202052
Si Si3 0.073392 0.629216 0.378972
Si Si4 0.895715 0.788922 0.639975
Si Si5 0.000000 0.970414 0.250000
O O1 0.167488 0.737712 0.875083
O O2 0.421853 0.689631 0.570911
O O3 0.000000 0.688153 0.750000
O O4 0.129143 0.644495 0.906506
O O5 0.500000 0.025750 0.250000
O O6 0.700863 0.083149 0.340531
O O7 0.872838 0.053637 0.966221
O O8 0.832847 0.001288 0.245155
O O9 0.210668 0.675191 0.279401
O O10 0.000000 0.616924 0.250000
O O11 0.000000 0.781566 0.750000
#
# Coordination Sequence:
#
# PCOD9293178 Si02
#       5
#     8   8   8   8   4
#     4  11  20  38  62  85 119 173 217 259 303 358
#     4  10  23  43  67 100 133 160 214 261 322 387
#     4  11  25  39  57  95 131 160 208 262 308 369
#     4  11  20  38  63  84 121 169 219 258 302 363
#     4  10  22  44  76  94 124 174 200 262 336 392
#
# _framework density 23.014004
#
# number of rings (size 3 to 8) (size 9 to 14) (size 15 to 20)
#    0.000    1.333    4.444    2.000    1.556    5.333 
#    0.000    5.556    0.000    0.000    0.000    0.000 
#    0.000    0.000    0.000    0.000    0.000    0.000 
#
# Total GULP energy -100371.904904 kJ/mol
# GULP energy per Si atom -5576.216939 kJ/mol
# Density = 2.296162 g / cm^3
# Si number density = 23.014004 Si / 1000 Ang^3
#
#
#
# Elastic Constant Matrix: (Units=GPa)
#
#
# Indices 1 2 3 4 5 6 
#
# 1 49.0139 0.5131 -11.8816 0.0000 0.9209 0.0000
# 2 0.5131 71.8765 24.0093 0.0000 -1.0419 0.0000
# 3 -11.8816 24.0093 146.8211 0.0000 -12.1728 0.0000
# 4 0.0000 0.0000 0.0000 39.3896 0.0000 1.9341
# 5 0.9209 -1.0419 -12.1728 0.0000 25.4979 0.0000
# 6 0.0000 0.0000 0.0000 1.9341 0.0000 29.2005
#
#
#
# Elastic Compliance Matrix: (Units=1/GPa)
#
#
# Indices 1 2 3 4 5 6 
#
# 1 0.020849 -0.000755 0.001818 0.000000 0.000084 0.000000
# 2 -0.000755 0.014752 -0.002521 0.000000 -0.000573 0.000000
# 3 0.001818 -0.002521 0.007660 0.000000 0.003488 0.000000
# 4 0.000000 0.000000 0.000000 0.025470 0.000000 -0.001687
# 5 0.000084 -0.000573 0.003488 0.000000 0.040858 0.000000
# 6 0.000000 0.000000 0.000000 -0.001687 0.000000 0.034358
#
#
# Mechanical properties :
#
#
# Convention : Reuss Voigt Hill
#
# Bulk Modulus (GPa) = 24.78652 32.55482 28.67067
# Shear Modulus (GPa) = 31.18938 35.82229 33.50584
#
# Velocity S-wave (km/s) = 3.68535 3.94959 3.81975
# Velocity P-wave (km/s) = 5.37611 5.91399 5.65146
#
# Compressibility (1/GPa) = 0.04034450
#
# Stress axis : x y z
#
# Youngs Moduli (GPa) = 47.96322 67.78773 130.55610
#
# Poissons Ratio (x) = 0.05117 -0.23730
# Poissons Ratio (y) = 0.03620 0.32913
# Poissons Ratio (z) = -0.08718 0.17089
#
# Static dielectric constant tensor:
#      x y z
#    x 1.876800 0.000000 -0.016720 
#    y 0.000000 2.097930 0.000000 
#    z -0.016720 0.000000 1.912410 
# 
# From -- ./inp_files/25263.got.cif
#   From: 2010.05.17/outbox.cif.g08.bks.cpg/sg15_13_cif.got.tgz:25263.got - 2010.06.03 18:47:42.
