data_PCOD9293919
_publ_section_title
;
Structure prediction by ZEFSAII (Michael W. Deem and Ramdas Pophale) SiO2 
 PCOD9293919
Probable space group: C 2/C
;
_chemical_formula_sum "Si O2"
_cell_formula_units_Z 64
_cell_length_a 24.343834
_cell_length_b 22.787422
_cell_length_c 12.200068
_cell_angle_alpha 90.000000
_cell_angle_beta 29.005696
_cell_angle_gamma 90.000000
_cell_volume 3281.674738
_symmetry_space_group_name_H-M "C 2/C"
_symmetry_group_IT_number 15
_symmetry_cell_setting 'monoclinic'
loop_
_space_group_symop_operation_xyz
x,y,z
-x,y,1/2-z
-x,-y,-z
x,-y,1/2+z
1/2+x,1/2+y,z
1/2-x,1/2+y,1/2-z
1/2-x,1/2-y,-z
1/2+x,1/2-y,1/2+z
loop_
_atom_site_type_symbol
_atom_site_label
_atom_site_fract_x
_atom_site_fract_y
_atom_site_fract_z
Si Si1 0.276983 0.688989 0.885395
Si Si2 0.513383 0.333235 0.853373
Si Si3 0.716975 0.639716 0.400669
Si Si4 0.624475 0.893743 0.064822
Si Si5 0.380812 0.236194 0.514437
Si Si6 0.354156 0.435012 0.763061
Si Si7 0.439196 0.465985 0.259131
Si Si8 0.872034 0.281053 0.285581
O O1 0.402045 0.669586 0.626079
O O2 0.207473 0.695010 0.895174
O O3 0.250000 0.750000 0.000000
O O4 0.245504 0.646053 0.038576
O O5 0.500000 0.351415 0.750000
O O6 0.609733 0.374592 0.739249
O O7 0.549306 0.265564 0.791051
O O8 0.658596 0.696933 0.445459
O O9 0.626643 0.587290 0.568121
O O10 0.824993 0.629858 0.137217
O O11 0.500000 0.917682 0.250000
O O12 0.617528 0.841723 0.167454
O O13 0.731108 0.931953 0.922235
O O14 0.396659 0.219482 0.613050
O O15 0.500000 0.228949 0.250000
O O16 0.460608 0.444911 0.495810
O O17 0.357818 0.490375 0.837163
O O18 0.500000 0.501403 0.250000
O O19 0.750000 0.250000 0.500000
#
# Coordination Sequence:
#
# PCOD9293919 Si02
#       8
#     8   8   8   8   8   8   8   8
#     4  10  23  36  56  89 128 173 217 261 319 390
#     4  12  23  38  60  95 135 167 208 277 336 385
#     4  11  21  41  64  93 126 174 219 268 328 387
#     4  12  27  41  66  95 139 180 220 262 325 410
#     4  11  23  36  59  91 134 176 218 263 319 391
#     4  11  24  43  65 100 125 164 217 281 342 380
#     4  11  22  42  73  97 119 155 224 292 336 386
#     4  12  22  38  59  94 132 176 215 258 317 400
#
# _framework density 19.502237000000001
#
# number of rings (size 3 to 8) (size 9 to 14) (size 15 to 20)
#    0.000    0.750    5.000    3.375    7.000    0.000 
#    0.000    0.625    0.000    0.750    0.000    0.000 
#    0.000    0.000    0.000    0.000    0.000    0.000 
#
# Total GULP energy -178293.975355 kJ/mol
# GULP energy per Si atom -5571.686730 kJ/mol
# Density = 1.945785 g / cm^3
# Si number density = 19.502237 Si / 1000 Ang^3
#
#
#
# Elastic Constant Matrix: (Units=GPa)
#
#
# Indices 1 2 3 4 5 6 
#
# 1 85.3805 31.7758 37.2094 0.0000 -3.2494 0.0000
# 2 31.7758 49.6239 16.9890 0.0000 -2.9026 0.0000
# 3 37.2094 16.9890 102.8739 -0.0001 2.9568 0.0001
# 4 0.0000 0.0000 -0.0001 1.5557 0.0001 -23.2384
# 5 -3.2494 -2.9026 2.9568 0.0001 43.5670 -0.0001
# 6 0.0000 0.0000 0.0001 -23.2384 -0.0001 5.7807
#
#
#
# Elastic Compliance Matrix: (Units=1/GPa)
#
#
# Indices 1 2 3 4 5 6 
#
# 1 0.017316 -0.009408 -0.004738 0.000000 0.000986 0.000000
# 2 -0.009408 0.026592 -0.001021 0.000000 0.001139 0.000000
# 3 -0.004738 -0.001021 0.011638 0.000000 -0.001211 0.000000
# 4 0.000000 0.000000 0.000000 -0.010886 0.000000 -0.043761
# 5 0.000986 0.001139 -0.001211 0.000000 0.023185 0.000000
# 6 0.000000 0.000000 0.000000 -0.043761 0.000000 -0.002930
#
#
# Mechanical properties :
#
#
# Convention : Reuss Voigt Hill
#
# Bulk Modulus (GPa) = 39.66487 45.53631 42.60059
# Shear Modulus (GPa) = 48.23730 20.30762 34.27246
#
# Velocity S-wave (km/s) = 4.97875 3.23041 4.19664
# Velocity P-wave (km/s) = 7.30981 6.10852 6.73600
#
# Compressibility (1/GPa) = 0.02521122
#
# Stress axis : x y z
#
# Youngs Moduli (GPa) = 57.74995 37.60484 85.92700
#
# Poissons Ratio (x) = 0.35380 0.40711
# Poissons Ratio (y) = 0.54333 0.08776
# Poissons Ratio (z) = 0.27361 0.03841
#
# Static dielectric constant tensor:
#      x y z
#    x 1.936730 0.000000 0.327140 
#    y 0.000000 1.717960 0.000000 
#    z 0.327140 0.000000 2.370060 
# 
# From -- ./inp_files/120239.got.cif
#   From: 2010.05.17/outbox.cif.g08.bks.cpg/sg15_61_cif.got.tgz:120239.got - 2010.06.03 18:47:42.
