data_PCOD9293669
_publ_section_title
;
Structure prediction by ZEFSAII (Michael W. Deem and Ramdas Pophale) SiO2 
 PCOD9293669
Probable space group: C 2/C
;
_chemical_formula_sum "Si O2"
_cell_formula_units_Z 44
_cell_length_a 20.340013
_cell_length_b 13.537601
_cell_length_c 10.629161
_cell_angle_alpha 90.000000
_cell_angle_beta 37.833628
_cell_angle_gamma 90.000000
_cell_volume 1795.208730
_symmetry_space_group_name_H-M "C 2/C"
_symmetry_group_IT_number 15
_symmetry_cell_setting 'monoclinic'
loop_
_space_group_symop_operation_xyz
x,y,z
-x,y,1/2-z
-x,-y,-z
x,-y,1/2+z
1/2+x,1/2+y,z
1/2-x,1/2+y,1/2-z
1/2-x,1/2-y,-z
1/2+x,1/2-y,1/2+z
loop_
_atom_site_type_symbol
_atom_site_label
_atom_site_fract_x
_atom_site_fract_y
_atom_site_fract_z
Si Si1 0.614795 0.928726 0.468490
Si Si2 0.897035 0.363705 0.754402
Si Si3 0.044012 0.224432 0.056674
Si Si4 0.788991 0.078927 0.148143
Si Si5 0.000000 0.039597 0.250000
Si Si6 0.774337 0.270887 0.320319
O O1 0.489392 0.947905 0.633207
O O2 0.624181 0.847391 0.566535
O O3 0.656663 0.869511 0.285712
O O4 0.700279 0.014866 0.360654
O O5 0.949696 0.280861 0.584748
O O6 0.786340 0.391172 0.855953
O O7 0.000000 0.280638 0.250000
O O8 0.985372 0.118449 0.156637
O O9 0.166615 0.204265 0.907279
O O10 0.819130 0.173509 0.185299
O O11 0.894659 0.023095 0.940716
O O12 0.750000 0.250000 0.500000
#
# Coordination Sequence:
#
# PCOD9293669 Si02
#       6
#     8   8   8   8   4   8
#     4  11  23  45  70 105 143 187 244 306 360 436
#     4  10  24  43  71 104 143 185 246 298 363 432
#     4   9  19  42  69 100 139 192 235 293 361 431
#     4  11  25  45  72 109 142 194 239 308 364 433
#     4  10  22  46  72 112 142 190 246 292 372 428
#     4  11  24  43  71 100 145 193 242 292 370 437
#
# _framework density 24.509682999999999
#
# number of rings (size 3 to 8) (size 9 to 14) (size 15 to 20)
#    0.545    1.091    1.818    1.636    2.545    4.364 
#   13.091    5.455    0.000    0.000    0.000    0.000 
#    0.000    0.000    0.000    0.000    0.000    0.000 
#
# Total GULP energy -122636.140301 kJ/mol
# GULP energy per Si atom -5574.370014 kJ/mol
# Density = 2.445390 g / cm^3
# Si number density = 24.509683 Si / 1000 Ang^3
#
#
#
# Elastic Constant Matrix: (Units=GPa)
#
#
# Indices 1 2 3 4 5 6 
#
# 1 77.8511 17.8281 9.1231 0.0000 -8.4731 0.0000
# 2 17.8281 87.7502 33.8677 0.0000 5.6573 0.0000
# 3 9.1231 33.8677 87.2635 0.0000 -12.9189 0.0000
# 4 0.0000 0.0000 0.0000 57.4153 0.0000 -2.8020
# 5 -8.4731 5.6573 -12.9189 0.0000 52.2043 0.0000
# 6 0.0000 0.0000 0.0000 -2.8020 0.0000 3.1092
#
#
#
# Elastic Compliance Matrix: (Units=1/GPa)
#
#
# Indices 1 2 3 4 5 6 
#
# 1 0.013805 -0.003015 0.000111 0.000000 0.002595 0.000000
# 2 -0.003015 0.014482 -0.005823 0.000000 -0.003500 0.000000
# 3 0.000111 -0.005823 0.014329 0.000000 0.004195 0.000000
# 4 0.000000 0.000000 0.000000 0.018218 0.000000 0.016418
# 5 0.002595 -0.003500 0.004195 0.000000 0.020994 0.000000
# 6 0.000000 0.000000 0.000000 0.016418 0.000000 0.336419
#
#
# Mechanical properties :
#
#
# Convention : Reuss Voigt Hill
#
# Bulk Modulus (GPa) = 39.74379 41.61137 40.67758
# Shear Modulus (GPa) = 11.25901 35.34882 23.30391
#
# Velocity S-wave (km/s) = 2.14562 3.80180 3.08686
# Velocity P-wave (km/s) = 4.73170 6.02378 5.41641
#
# Compressibility (1/GPa) = 0.02516116
#
# Stress axis : x y z
#
# Youngs Moduli (GPa) = 72.43830 69.05258 69.78793
#
# Poissons Ratio (x) = 0.20818 -0.00775
# Poissons Ratio (y) = 0.21839 0.40640
# Poissons Ratio (z) = -0.00804 0.40212
#
# Static dielectric constant tensor:
#      x y z
#    x 1.961760 0.000000 -0.010360 
#    y 0.000000 2.015880 0.000000 
#    z -0.010360 0.000000 2.065330 
# 
# From -- ./inp_files/112606.got.cif
#   From: 2010.05.17/outbox.cif.g08.bks.cpg/sg15_57_cif.got.tgz:112606.got - 2010.06.03 18:47:42.
