data_PCOD9293501
_publ_section_title
;
Structure prediction by ZEFSAII (Michael W. Deem and Ramdas Pophale) SiO2 
 PCOD9293501
Probable space group: C 2/C
;
_chemical_formula_sum "Si O2"
_cell_formula_units_Z 40
_cell_length_a 9.160680
_cell_length_b 12.182735
_cell_length_c 28.750985
_cell_angle_alpha 90.000000
_cell_angle_beta 144.981453
_cell_angle_gamma 90.000000
_cell_volume 1841.269015
_symmetry_space_group_name_H-M "C 2/C"
_symmetry_group_IT_number 15
_symmetry_cell_setting 'monoclinic'
loop_
_space_group_symop_operation_xyz
x,y,z
-x,y,1/2-z
-x,-y,-z
x,-y,1/2+z
1/2+x,1/2+y,z
1/2-x,1/2+y,1/2-z
1/2-x,1/2-y,-z
1/2+x,1/2-y,1/2+z
loop_
_atom_site_type_symbol
_atom_site_label
_atom_site_fract_x
_atom_site_fract_y
_atom_site_fract_z
Si Si1 0.929287 0.346492 0.284821
Si Si2 0.065674 0.676314 0.573150
Si Si3 0.259573 0.333017 0.798448
Si Si4 0.990018 0.005277 0.192767
Si Si5 0.371564 0.621098 0.973782
O O1 0.741350 0.245013 0.248555
O O2 0.763335 0.449668 0.256588
O O3 0.000000 0.343446 0.250000
O O4 0.184518 0.353775 0.381966
O O5 0.168938 0.749513 0.642629
O O6 0.265368 0.577875 0.621868
O O7 0.803086 0.624692 0.524796
O O8 0.038079 0.767468 0.525318
O O9 0.496976 0.404917 0.844307
O O10 0.000000 0.386236 0.750000
O O11 0.000000 0.039097 0.250000
O O12 0.500000 0.500000 0.000000
#
# Coordination Sequence:
#
# PCOD9293501 Si02
#       5
#     8   8   8   8   8
#     4  11  23  43  67 104 132 173 237 276 327 411
#     4  10  22  46  65  98 138 172 227 281 332 404
#     4  11  22  41  72  99 135 176 222 287 333 391
#     4  12  22  41  71 102 135 180 228 279 334 394
#     4  10  23  42  70  95 137 182 216 279 347 394
#
# _framework density 21.724150000000002
#
# number of rings (size 3 to 8) (size 9 to 14) (size 15 to 20)
#    0.000    1.200    6.000    1.200    5.600    0.000 
#    3.600   10.000    0.000    0.000    0.000    0.000 
#    0.000    0.000    0.000    0.000    0.000    0.000 
#
# Total GULP energy -111361.580630 kJ/mol
# GULP energy per Si atom -5568.079032 kJ/mol
# Density = 2.167470 g / cm^3
# Si number density = 21.724150 Si / 1000 Ang^3
#
#
#
# Elastic Constant Matrix: (Units=GPa)
#
#
# Indices 1 2 3 4 5 6 
#
# 1 141.5288 55.6529 36.2884 0.0000 -2.3956 0.0000
# 2 55.6529 96.4366 9.0006 0.0000 14.5783 0.0000
# 3 36.2884 9.0006 37.1586 0.0000 1.6021 0.0000
# 4 0.0000 0.0000 0.0000 -41.6011 0.0000 9.0105
# 5 -2.3956 14.5783 1.6021 0.0000 25.7113 0.0000
# 6 0.0000 0.0000 0.0000 9.0105 0.0000 60.8810
#
#
#
# Elastic Compliance Matrix: (Units=1/GPa)
#
#
# Indices 1 2 3 4 5 6 
#
# 1 0.012882 -0.007314 -0.011069 0.000000 0.006037 0.000000
# 2 -0.007314 0.015726 0.003757 0.000000 -0.009832 0.000000
# 3 -0.011069 0.003757 0.037047 0.000000 -0.005470 0.000000
# 4 0.000000 0.000000 0.000000 -0.023291 0.000000 0.003447
# 5 0.006037 -0.009832 -0.005470 0.000000 0.045371 0.000000
# 6 0.000000 0.000000 0.000000 0.003447 0.000000 0.015915
#
#
# Mechanical properties :
#
#
# Convention : Reuss Voigt Hill
#
# Bulk Modulus (GPa) = 27.46957 53.00086 40.23521
# Shear Modulus (GPa) = 34.47426 20.61041 27.54233
#
# Velocity S-wave (km/s) = 3.98792 3.08349 3.56451
# Velocity P-wave (km/s) = 5.82039 6.09323 5.95837
#
# Compressibility (1/GPa) = 0.03640393
#
# Stress axis : x y z
#
# Youngs Moduli (GPa) = 77.62856 63.59007 26.99259
#
# Poissons Ratio (x) = 0.46507 0.29878
# Poissons Ratio (y) = 0.56774 -0.10141
# Poissons Ratio (z) = 0.85927 -0.23891
#
# Static dielectric constant tensor:
#      x y z
#    x 1.808840 0.000000 0.030610 
#    y 0.000000 2.045280 0.000000 
#    z 0.030610 0.000000 1.838640 
# 
# From -- ./inp_files/187776.got.cif
#   From: 2010.05.17/outbox.cif.g08.bks.cpg/sg15_94_cif.got.tgz:187776.got - 2010.06.03 18:47:42.
