data_PCOD9293805
_publ_section_title
;
Structure prediction by ZEFSAII (Michael W. Deem and Ramdas Pophale) SiO2 
 PCOD9293805
Probable space group: C 2/C
;
_chemical_formula_sum "Si O2"
_cell_formula_units_Z 44
_cell_length_a 4.981160
_cell_length_b 24.767954
_cell_length_c 13.854937
_cell_angle_alpha 90.000000
_cell_angle_beta 99.158698
_cell_angle_gamma 90.000000
_cell_volume 1687.535339
_symmetry_space_group_name_H-M "C 2/C"
_symmetry_group_IT_number 15
_symmetry_cell_setting 'monoclinic'
loop_
_space_group_symop_operation_xyz
x,y,z
-x,y,1/2-z
-x,-y,-z
x,-y,1/2+z
1/2+x,1/2+y,z
1/2-x,1/2+y,1/2-z
1/2-x,1/2-y,-z
1/2+x,1/2-y,1/2+z
loop_
_atom_site_type_symbol
_atom_site_label
_atom_site_fract_x
_atom_site_fract_y
_atom_site_fract_z
Si Si1 0.001371 0.958792 0.865971
Si Si2 0.180429 0.925505 0.067743
Si Si3 0.500000 0.867911 0.250000
Si Si4 0.590927 0.212431 0.076216
Si Si5 0.839806 0.177965 0.608322
Si Si6 0.365191 0.655134 0.346955
O O1 0.000000 0.964620 0.750000
O O2 0.807661 0.907216 0.868838
O O3 0.233772 0.936992 0.956285
O O4 0.919612 0.016970 0.899262
O O5 0.409571 0.905548 0.155236
O O6 0.958558 0.878399 0.074470
O O7 0.274248 0.831691 0.290302
O O8 0.559499 0.274752 0.103933
O O9 0.413114 0.184206 0.148414
O O10 0.892291 0.188450 0.086282
O O11 0.417421 0.197011 0.971224
O O12 0.500000 0.654073 0.250000
#
# Coordination Sequence:
#
# PCOD9293805 Si02
#       6
#     8   8   4   8   8   8
#     4  10  22  47  75 102 151 195 259 314 389 455
#     4  11  24  48  71 111 147 198 257 324 383 469
#     4  12  26  44  74 112 152 202 260 316 404 456
#     4  11  26  46  74 106 154 195 256 317 383 456
#     4  11  26  44  72 104 149 195 258 315 385 460
#     4  11  24  45  71 109 144 198 248 310 382 459
#
# _framework density 26.073526000000001
#
# number of rings (size 3 to 8) (size 9 to 14) (size 15 to 20)
#    0.000    1.091    1.818    3.273    3.818    2.909 
#    9.818    5.455    0.000    0.000    0.000    0.000 
#    0.000    0.000    0.000    0.000    0.000    0.000 
#
# Total GULP energy -122831.868915 kJ/mol
# GULP energy per Si atom -5583.266769 kJ/mol
# Density = 2.601418 g / cm^3
# Si number density = 26.073526 Si / 1000 Ang^3
#
#
#
# Elastic Constant Matrix: (Units=GPa)
#
#
# Indices 1 2 3 4 5 6 
#
# 1 94.2236 60.5804 34.6605 0.0000 -8.3732 0.0000
# 2 60.5804 215.9889 76.4245 0.0000 -25.6394 0.0000
# 3 34.6605 76.4245 170.7698 0.0000 8.0731 0.0000
# 4 0.0000 0.0000 0.0000 47.4930 0.0000 16.2820
# 5 -8.3732 -25.6394 8.0731 0.0000 37.8313 0.0000
# 6 0.0000 0.0000 0.0000 16.2820 0.0000 29.5012
#
#
#
# Elastic Compliance Matrix: (Units=1/GPa)
#
#
# Indices 1 2 3 4 5 6 
#
# 1 0.013196 -0.003093 -0.001347 0.000000 0.001112 0.000000
# 2 -0.003093 0.007017 -0.002732 0.000000 0.004654 0.000000
# 3 -0.001347 -0.002732 0.007530 0.000000 -0.003757 0.000000
# 4 0.000000 0.000000 0.000000 0.025969 0.000000 -0.014333
# 5 0.001112 0.004654 -0.003757 0.000000 0.030635 0.000000
# 6 0.000000 0.000000 0.000000 -0.014333 0.000000 0.041807
#
#
# Mechanical properties :
#
#
# Convention : Reuss Voigt Hill
#
# Bulk Modulus (GPa) = 74.63688 91.59034 83.11361
# Shear Modulus (GPa) = 34.49150 43.58623 39.03887
#
# Velocity S-wave (km/s) = 3.64105 4.09304 3.87364
# Velocity P-wave (km/s) = 6.80912 7.58559 7.20782
#
# Compressibility (1/GPa) = 0.01339820
#
# Stress axis : x y z
#
# Youngs Moduli (GPa) = 75.78255 142.52023 132.80834
#
# Poissons Ratio (x) = 0.44075 0.17887
# Poissons Ratio (y) = 0.23436 0.36289
# Poissons Ratio (z) = 0.10207 0.38943
#
# Static dielectric constant tensor:
#      x y z
#    x 2.047990 0.000000 0.091580 
#    y 0.000000 1.995610 0.000000 
#    z 0.091580 0.000000 2.178510 
# 
# From -- ./inp_files/129488.got.cif
#   From: 2010.05.17/outbox.cif.g08.bks.cpg/sg15_65_cif.got.tgz:129488.got - 2010.06.03 18:47:42.
