data_PCOD9293081
_publ_section_title
;
Structure prediction by ZEFSAII (Michael W. Deem and Ramdas Pophale) SiO2 
 PCOD9293081
Probable space group: C 2/C
;
_chemical_formula_sum "Si O2"
_cell_formula_units_Z 48
_cell_length_a 16.553043
_cell_length_b 9.017483
_cell_length_c 13.473938
_cell_angle_alpha 90.000000
_cell_angle_beta 71.212446
_cell_angle_gamma 90.000000
_cell_volume 1904.052523
_symmetry_space_group_name_H-M "C 2/C"
_symmetry_group_IT_number 15
_symmetry_cell_setting 'monoclinic'
loop_
_space_group_symop_operation_xyz
x,y,z
-x,y,1/2-z
-x,-y,-z
x,-y,1/2+z
1/2+x,1/2+y,z
1/2-x,1/2+y,1/2-z
1/2-x,1/2-y,-z
1/2+x,1/2-y,1/2+z
loop_
_atom_site_type_symbol
_atom_site_label
_atom_site_fract_x
_atom_site_fract_y
_atom_site_fract_z
Si Si1 0.613461 0.953801 0.088251
Si Si2 0.287299 0.071348 0.616694
Si Si3 0.430246 0.684693 0.603324
Si Si4 0.352056 0.376768 0.928070
Si Si5 0.705695 0.146120 0.210762
Si Si6 0.500000 0.488610 0.750000
Si Si7 0.000000 0.500000 0.500000
O O1 0.649499 0.073665 0.147153
O O2 0.665107 0.800559 0.072057
O O3 0.513182 0.940451 0.117251
O O4 0.622349 0.019808 0.968390
O O5 0.220037 0.998607 0.566469
O O6 0.269330 0.986276 0.725842
O O7 0.276278 0.245221 0.636117
O O8 0.392310 0.603650 0.521079
O O9 0.351211 0.748771 0.697553
O O10 0.481083 0.585368 0.660468
O O11 0.484649 0.823040 0.544900
O O12 0.418442 0.395976 0.812589
#
# Coordination Sequence:
#
# PCOD9293081 Si02
#       7
#     8   8   8   8   8   4   4
#     4  11  25  45  69 104 140 185 236 290 356 422
#     4  12  25  47  69 105 141 185 237 295 353 427
#     4  11  24  46  70 104 142 185 240 292 352 428
#     4  11  25  44  71 100 144 185 230 297 353 418
#     4  12  25  46  74 104 139 192 236 293 358 427
#     4  12  24  46  70 110 142 188 242 288 364 420
#     4  10  22  44  72  96 142 184 230 300 342 418
#
# _framework density 25.209389999999999
#
# number of rings (size 3 to 8) (size 9 to 14) (size 15 to 20)
#    0.000    0.667    5.000    3.500    2.333    2.667 
#    6.000    0.000    0.000    0.000    0.000    0.000 
#    0.000    0.000    0.000    0.000    0.000    0.000 
#
# Total GULP energy -133981.724295 kJ/mol
# GULP energy per Si atom -5582.571846 kJ/mol
# Density = 2.515201 g / cm^3
# Si number density = 25.209390 Si / 1000 Ang^3
#
#
#
# Elastic Constant Matrix: (Units=GPa)
#
#
# Indices 1 2 3 4 5 6 
#
# 1 74.0077 35.3301 42.6033 0.0000 13.5758 0.0000
# 2 35.3301 95.9220 60.1034 0.0000 17.2379 0.0000
# 3 42.6033 60.1034 120.6974 0.0000 23.7908 0.0000
# 4 0.0000 0.0000 0.0000 45.7245 0.0000 4.4225
# 5 13.5758 17.2379 23.7908 0.0000 52.1287 0.0000
# 6 0.0000 0.0000 0.0000 4.4225 0.0000 47.2375
#
#
#
# Elastic Compliance Matrix: (Units=1/GPa)
#
#
# Indices 1 2 3 4 5 6 
#
# 1 0.017984 -0.003721 -0.004191 0.000000 -0.001540 0.000000
# 2 -0.003721 0.016065 -0.006407 0.000000 -0.001419 0.000000
# 3 -0.004191 -0.006407 0.013540 0.000000 -0.002969 0.000000
# 4 0.000000 0.000000 0.000000 0.022070 0.000000 -0.002066
# 5 -0.001540 -0.001419 -0.002969 0.000000 0.021409 0.000000
# 6 0.000000 0.000000 0.000000 -0.002066 0.000000 0.021363
#
#
# Mechanical properties :
#
#
# Convention : Reuss Voigt Hill
#
# Bulk Modulus (GPa) = 52.76691 62.96674 57.86683
# Shear Modulus (GPa) = 33.92454 39.19082 36.55768
#
# Velocity S-wave (km/s) = 3.67237 3.94713 3.81223
# Velocity P-wave (km/s) = 6.24169 6.76793 6.51013
#
# Compressibility (1/GPa) = 0.01895127
#
# Stress axis : x y z
#
# Youngs Moduli (GPa) = 55.60599 62.24700 73.85341
#
# Poissons Ratio (x) = 0.23160 0.30955
# Poissons Ratio (y) = 0.20689 0.47316
# Poissons Ratio (z) = 0.23307 0.39880
#
# Static dielectric constant tensor:
#      x y z
#    x 2.319290 0.000000 -0.036490 
#    y 0.000000 1.975400 0.000000 
#    z -0.036490 0.000000 2.035280 
# 
# From -- ./inp_files/116759.got.cif
#   From: 2010.05.17/outbox.cif.g08.bks.cpg/sg15_59_cif.got.tgz:116759.got - 2010.06.03 18:47:42.
