data_PCOD9293045
_publ_section_title
;
Structure prediction by ZEFSAII (Michael W. Deem and Ramdas Pophale) SiO2 
 PCOD9293045
Probable space group: C 2/C
;
_chemical_formula_sum "Si O2"
_cell_formula_units_Z 36
_cell_length_a 22.587441
_cell_length_b 14.776279
_cell_length_c 8.984211
_cell_angle_alpha 90.000000
_cell_angle_beta 151.185212
_cell_angle_gamma 90.000000
_cell_volume 1445.243161
_symmetry_space_group_name_H-M "C 2/C"
_symmetry_group_IT_number 15
_symmetry_cell_setting 'monoclinic'
loop_
_space_group_symop_operation_xyz
x,y,z
-x,y,1/2-z
-x,-y,-z
x,-y,1/2+z
1/2+x,1/2+y,z
1/2-x,1/2+y,1/2-z
1/2-x,1/2-y,-z
1/2+x,1/2-y,1/2+z
loop_
_atom_site_type_symbol
_atom_site_label
_atom_site_fract_x
_atom_site_fract_y
_atom_site_fract_z
Si Si1 0.120248 0.939433 0.103552
Si Si2 0.308200 0.106503 0.516966
Si Si3 0.178426 0.643230 0.639752
Si Si4 0.000000 0.477278 0.250000
Si Si5 0.605535 0.678786 0.863766
O O1 0.191171 0.875159 0.144748
O O2 0.088657 0.879685 0.178576
O O3 0.217050 0.020513 0.352264
O O4 0.000000 0.970422 0.750000
O O5 0.315222 0.170791 0.674957
O O6 0.237622 0.152063 0.223748
O O7 0.445337 0.080542 0.764895
O O8 0.111615 0.546801 0.515594
O O9 0.110582 0.711689 0.378491
O O10 0.500000 0.658244 0.750000
#
# Coordination Sequence:
#
# PCOD9293045 Si02
#       5
#     8   8   8   4   8
#     4  11  24  44  70 102 138 186 235 284 346 419
#     4  11  24  43  73 104 135 184 236 289 349 416
#     4  11  23  44  68  99 145 180 229 286 353 418
#     4  10  22  44  72 102 136 182 234 288 346 420
#     4  12  25  44  67 100 144 184 231 291 348 413
#
# _framework density 24.909303000000001
#
# number of rings (size 3 to 8) (size 9 to 14) (size 15 to 20)
#    0.000    0.889    1.111    6.667    0.000    4.444 
#    6.000    0.000    0.000    0.000    0.000    0.000 
#    0.000    0.000    0.000    0.000    0.000    0.000 
#
# Total GULP energy -100595.435910 kJ/mol
# GULP energy per Si atom -5588.635328 kJ/mol
# Density = 2.485261 g / cm^3
# Si number density = 24.909303 Si / 1000 Ang^3
#
#
#
# Elastic Constant Matrix: (Units=GPa)
#
#
# Indices 1 2 3 4 5 6 
#
# 1 153.7711 36.9512 37.1656 0.0000 24.0071 0.0000
# 2 36.9512 81.0472 25.2324 0.0000 6.3417 0.0000
# 3 37.1656 25.2324 87.2047 0.0000 3.5732 0.0000
# 4 0.0000 0.0000 0.0000 34.7056 0.0000 1.1276
# 5 24.0071 6.3417 3.5732 0.0000 46.9529 0.0000
# 6 0.0000 0.0000 0.0000 1.1276 0.0000 -259.7823
#
#
#
# Elastic Compliance Matrix: (Units=1/GPa)
#
#
# Indices 1 2 3 4 5 6 
#
# 1 0.008369 -0.002706 -0.002632 0.000000 -0.003713 0.000000
# 2 -0.002706 0.014546 -0.003041 0.000000 -0.000350 0.000000
# 3 -0.002632 -0.003041 0.013439 0.000000 0.000734 0.000000
# 4 0.000000 0.000000 0.000000 0.028810 0.000000 0.000125
# 5 -0.003713 -0.000350 0.000734 0.000000 0.023188 0.000000
# 6 0.000000 0.000000 0.000000 0.000125 0.000000 -0.003849
#
#
# Mechanical properties :
#
#
# Convention : Reuss Voigt Hill
#
# Bulk Modulus (GPa) = 51.02969 57.85793 54.44381
# Shear Modulus (GPa) = 46.38496 -20.77983 12.80256
#
# Velocity S-wave (km/s) = 4.31995 -2.89142 2.26954
# Velocity P-wave (km/s) = 6.73894 3.48293 5.36396
#
# Compressibility (1/GPa) = 0.01959643
#
# Stress axis : x y z
#
# Youngs Moduli (GPa) = 119.48547 68.74564 74.41097
#
# Poissons Ratio (x) = 0.18601 0.19583
# Poissons Ratio (y) = 0.32330 0.22632
# Poissons Ratio (z) = 0.31446 0.20909
#
# Static dielectric constant tensor:
#      x y z
#    x 1.961750 0.000000 -0.029660 
#    y 0.000000 2.090000 0.000000 
#    z -0.029660 0.000000 2.001220 
# 
# From -- ./inp_files/57119.got.cif
#   From: 2010.05.17/outbox.cif.g08.bks.cpg/sg15_29_cif.got.tgz:57119.got - 2010.06.03 18:47:42.
