data_PCOD9293955
_publ_section_title
;
Structure prediction by ZEFSAII (Michael W. Deem and Ramdas Pophale) SiO2 
 PCOD9293955
Probable space group: C 2/C
;
_chemical_formula_sum "Si O2"
_cell_formula_units_Z 40
_cell_length_a 19.962820
_cell_length_b 17.852758
_cell_length_c 8.973531
_cell_angle_alpha 90.000000
_cell_angle_beta 136.977349
_cell_angle_gamma 90.000000
_cell_volume 2182.016099
_symmetry_space_group_name_H-M "C 2/C"
_symmetry_group_IT_number 15
_symmetry_cell_setting 'monoclinic'
loop_
_space_group_symop_operation_xyz
x,y,z
-x,y,1/2-z
-x,-y,-z
x,-y,1/2+z
1/2+x,1/2+y,z
1/2-x,1/2+y,1/2-z
1/2-x,1/2-y,-z
1/2+x,1/2-y,1/2+z
loop_
_atom_site_type_symbol
_atom_site_label
_atom_site_fract_x
_atom_site_fract_y
_atom_site_fract_z
Si Si1 0.471141 0.765265 0.527522
Si Si2 0.609535 0.051979 0.365724
Si Si3 0.159889 0.586345 0.756072
Si Si4 0.177860 0.304175 0.788182
Si Si5 0.787878 0.820882 0.656107
O O1 0.500000 0.766154 0.750000
O O2 0.407957 0.839848 0.382279
O O3 0.572132 0.764487 0.600662
O O4 0.400328 0.695838 0.377472
O O5 0.500000 0.064790 0.250000
O O6 0.676726 0.050723 0.621944
O O7 0.649416 0.119970 0.330216
O O8 0.607240 0.975361 0.271227
O O9 0.257151 0.610337 0.002438
O O10 0.227760 0.322354 0.712592
O O11 0.250000 0.250000 0.000000
O O12 0.750000 0.750000 0.500000
#
# Coordination Sequence:
#
# PCOD9293955 Si02
#       5
#     8   8   8   8   8
#     4  11  20  40  59  90 125 155 203 251 292 367
#     4  12  23  37  59  90 129 158 196 252 312 367
#     4  11  22  37  57  87 126 157 194 245 307 360
#     4  12  21  37  63  86 119 166 200 248 311 353
#     4  10  23  37  57  87 122 161 205 243 294 360
#
# _framework density 18.331671
#
# number of rings (size 3 to 8) (size 9 to 14) (size 15 to 20)
#    0.000    0.800    6.000    3.000    2.800    2.400 
#    0.000    0.000    0.000    1.200    0.000    0.000 
#    0.000    0.000    0.000    0.000    0.000    0.000 
#
# Total GULP energy -111596.575696 kJ/mol
# GULP energy per Si atom -5579.828785 kJ/mol
# Density = 1.828995 g / cm^3
# Si number density = 18.331671 Si / 1000 Ang^3
#
#
#
# Elastic Constant Matrix: (Units=GPa)
#
#
# Indices 1 2 3 4 5 6 
#
# 1 81.0848 23.5533 48.7553 0.0000 -8.2489 0.0000
# 2 23.5533 61.3536 46.2356 0.0000 -3.3837 0.0000
# 3 48.7553 46.2356 129.4019 0.0000 -3.2542 0.0000
# 4 0.0000 0.0000 0.0000 25.7070 0.0000 -3.1845
# 5 -8.2489 -3.3837 -3.2542 0.0000 37.7995 0.0000
# 6 0.0000 0.0000 0.0000 -3.1845 0.0000 32.1577
#
#
#
# Elastic Compliance Matrix: (Units=1/GPa)
#
#
# Indices 1 2 3 4 5 6 
#
# 1 0.016481 -0.002109 -0.005382 0.000000 0.002945 0.000000
# 2 -0.002109 0.022640 -0.007271 0.000000 0.000940 0.000000
# 3 -0.005382 -0.007271 0.012335 0.000000 -0.000764 0.000000
# 4 0.000000 0.000000 0.000000 0.039383 0.000000 0.003900
# 5 0.002945 0.000940 -0.000764 0.000000 0.027116 0.000000
# 6 0.000000 0.000000 0.000000 0.003900 0.000000 0.031483
#
#
# Mechanical properties :
#
#
# Convention : Reuss Voigt Hill
#
# Bulk Modulus (GPa) = 45.59649 56.54762 51.07206
# Shear Modulus (GPa) = 26.84246 29.35258 28.09752
#
# Velocity S-wave (km/s) = 3.83073 4.00583 3.91926
# Velocity P-wave (km/s) = 6.67031 7.23253 6.95710
#
# Compressibility (1/GPa) = 0.02193151
#
# Stress axis : x y z
#
# Youngs Moduli (GPa) = 60.67573 44.17010 81.07339
#
# Poissons Ratio (x) = 0.09314 0.43635
# Poissons Ratio (y) = 0.12794 0.58949
# Poissons Ratio (z) = 0.32657 0.32117
#
# Static dielectric constant tensor:
#      x y z
#    x 1.623020 0.000000 -0.011310 
#    y 0.000000 1.648440 0.000000 
#    z -0.011310 0.000000 1.695620 
# 
# From -- ./inp_files/38580.got.cif
#   From: 2010.05.17/outbox.cif.g08.bks.cpg/sg15_20_cif.got.tgz:38580.got - 2010.06.03 18:47:42.
