data_PCOD9293083
_publ_section_title
;
Structure prediction by ZEFSAII (Michael W. Deem and Ramdas Pophale) SiO2 
 PCOD9293083
Probable space group: C 2/C
;
_chemical_formula_sum "Si O2"
_cell_formula_units_Z 44
_cell_length_a 17.055567
_cell_length_b 14.552944
_cell_length_c 8.453413
_cell_angle_alpha 90.000000
_cell_angle_beta 118.287363
_cell_angle_gamma 90.000000
_cell_volume 1847.646398
_symmetry_space_group_name_H-M "C 2/C"
_symmetry_group_IT_number 15
_symmetry_cell_setting 'monoclinic'
loop_
_space_group_symop_operation_xyz
x,y,z
-x,y,1/2-z
-x,-y,-z
x,-y,1/2+z
1/2+x,1/2+y,z
1/2-x,1/2+y,1/2-z
1/2-x,1/2-y,-z
1/2+x,1/2-y,1/2+z
loop_
_atom_site_type_symbol
_atom_site_label
_atom_site_fract_x
_atom_site_fract_y
_atom_site_fract_z
Si Si1 0.433274 0.414088 0.921311
Si Si2 0.361053 0.794449 0.887714
Si Si3 0.245970 0.457515 0.600674
Si Si4 0.285634 0.137268 0.756123
Si Si5 0.500000 0.263176 0.750000
Si Si6 0.643558 0.736114 0.945838
O O1 0.349886 0.441457 0.732144
O O2 0.482177 0.333489 0.875507
O O3 0.500000 0.500000 0.000000
O O4 0.391241 0.364879 0.037761
O O5 0.305393 0.888219 0.830403
O O6 0.294116 0.709014 0.854250
O O7 0.403306 0.772884 0.757195
O O8 0.423731 0.798197 0.099879
O O9 0.229369 0.562905 0.621360
O O10 0.213661 0.424720 0.398936
O O11 0.362948 0.201271 0.902534
O O12 0.750000 0.750000 0.000000
#
# Coordination Sequence:
#
# PCOD9293083 Si02
#       6
#     8   8   8   8   4   8
#     4  12  26  42  65 107 157 198 252 331 403 459
#     4  11  23  45  70 101 147 204 260 319 391 475
#     4  12  23  42  70 105 145 204 269 312 385 482
#     4  11  22  39  70 102 138 193 264 315 374 470
#     4  12  26  42  64 104 152 194 240 332 408 456
#     4  10  22  44  72  96 144 211 262 310 390 483
#
# _framework density 23.814081999999999
#
# number of rings (size 3 to 8) (size 9 to 14) (size 15 to 20)
#    0.000    0.727    5.455    3.818    2.545    2.182 
#    0.000    0.000    0.000    9.818    0.000    0.000 
#    0.000    0.000    0.000    0.000    0.000    0.000 
#
# Total GULP energy -122900.317558 kJ/mol
# GULP energy per Si atom -5586.378071 kJ/mol
# Density = 2.375988 g / cm^3
# Si number density = 23.814082 Si / 1000 Ang^3
#
#
#
# Elastic Constant Matrix: (Units=GPa)
#
#
# Indices 1 2 3 4 5 6 
#
# 1 53.5419 40.3169 24.3604 0.0000 -3.3399 0.0000
# 2 40.3169 124.4581 36.7283 0.0000 17.6603 0.0000
# 3 24.3604 36.7283 165.6370 0.0000 0.5783 0.0000
# 4 0.0000 0.0000 0.0000 47.0981 0.0000 0.6551
# 5 -3.3399 17.6603 0.5783 0.0000 37.6535 0.0000
# 6 0.0000 0.0000 0.0000 0.6551 0.0000 49.5249
#
#
#
# Elastic Compliance Matrix: (Units=1/GPa)
#
#
# Indices 1 2 3 4 5 6 
#
# 1 0.026794 -0.009045 -0.001958 0.000000 0.006649 0.000000
# 2 -0.009045 0.012300 -0.001374 0.000000 -0.006550 0.000000
# 3 -0.001958 -0.001374 0.006629 0.000000 0.000369 0.000000
# 4 0.000000 0.000000 0.000000 0.021236 0.000000 -0.000281
# 5 0.006649 -0.006550 0.000369 0.000000 0.030214 0.000000
# 6 0.000000 0.000000 0.000000 -0.000281 0.000000 0.020196
#
#
# Mechanical properties :
#
#
# Convention : Reuss Voigt Hill
#
# Bulk Modulus (GPa) = 47.69343 60.71647 54.20495
# Shear Modulus (GPa) = 33.53180 43.00407 38.26794
#
# Velocity S-wave (km/s) = 3.75649 4.25411 4.01302
# Velocity P-wave (km/s) = 6.23585 7.04850 6.65459
#
# Compressibility (1/GPa) = 0.02096725
#
# Stress axis : x y z
#
# Youngs Moduli (GPa) = 37.32236 81.30146 150.85883
#
# Poissons Ratio (x) = 0.73538 0.29540
# Poissons Ratio (y) = 0.33759 0.20732
# Poissons Ratio (z) = 0.07308 0.11173
#
# Static dielectric constant tensor:
#      x y z
#    x 2.132140 0.000000 -0.022920 
#    y 0.000000 1.877000 0.000000 
#    z -0.022920 0.000000 1.989650 
# 
# From -- ./inp_files/47528.got.cif
#   From: 2010.05.17/outbox.cif.g08.bks.cpg/sg15_24_cif.got.tgz:47528.got - 2010.06.03 18:47:42.
