data_PCOD9293261
_publ_section_title
;
Structure prediction by ZEFSAII (Michael W. Deem and Ramdas Pophale) SiO2 
 PCOD9293261
Probable space group: C 2/C
;
_chemical_formula_sum "Si O2"
_cell_formula_units_Z 40
_cell_length_a 13.442088
_cell_length_b 4.748127
_cell_length_c 26.674205
_cell_angle_alpha 90.000000
_cell_angle_beta 118.953465
_cell_angle_gamma 90.000000
_cell_volume 1489.687378
_symmetry_space_group_name_H-M "C 2/C"
_symmetry_group_IT_number 15
_symmetry_cell_setting 'monoclinic'
loop_
_space_group_symop_operation_xyz
x,y,z
-x,y,1/2-z
-x,-y,-z
x,-y,1/2+z
1/2+x,1/2+y,z
1/2-x,1/2+y,1/2-z
1/2-x,1/2-y,-z
1/2+x,1/2-y,1/2+z
loop_
_atom_site_type_symbol
_atom_site_label
_atom_site_fract_x
_atom_site_fract_y
_atom_site_fract_z
Si Si1 0.781824 0.706873 0.883476
Si Si2 0.308983 0.005315 0.787108
Si Si3 0.034706 0.206644 0.811531
Si Si4 0.130411 0.112136 0.930533
Si Si5 0.470241 0.155457 0.543766
O O1 0.790140 0.468845 0.842066
O O2 0.660866 0.850581 0.839288
O O3 0.752761 0.624117 0.933807
O O4 0.910281 0.813580 0.913323
O O5 0.432342 0.910829 0.800141
O O6 0.556453 0.505256 0.864399
O O7 0.282868 0.325296 0.766219
O O8 0.000000 0.075760 0.750000
O O9 0.077368 0.412143 0.931530
O O10 0.120618 0.903847 0.974345
O O11 0.500000 0.000000 0.500000
#
# Coordination Sequence:
#
# PCOD9293261 Si02
#       5
#     8   8   8   8   8
#     4  10  24  45  68 101 140 179 226 288 332 405
#     4  12  25  43  68  99 141 187 224 272 342 412
#     4  10  22  45  67 107 136 184 220 274 344 415
#     4  10  26  44  68 105 135 177 235 277 343 414
#     4  12  26  48  73  99 137 183 233 291 346 395
#
# _framework density 26.85127
#
# number of rings (size 3 to 8) (size 9 to 14) (size 15 to 20)
#    1.200    0.000    4.000    0.600    2.800    6.400 
#    3.600    0.000    0.000    0.000    0.000    0.000 
#    0.000    0.000    0.000    0.000    0.000    0.000 
#
# Total GULP energy -111600.439169 kJ/mol
# GULP energy per Si atom -5580.021958 kJ/mol
# Density = 2.679016 g / cm^3
# Si number density = 26.851270 Si / 1000 Ang^3
#
#
#
# Elastic Constant Matrix: (Units=GPa)
#
#
# Indices 1 2 3 4 5 6 
#
# 1 212.8359 32.1458 45.5580 0.0000 -23.2382 0.0000
# 2 32.1458 69.9419 21.6642 0.0000 -17.3059 0.0001
# 3 45.5580 21.6642 90.5869 0.0000 -9.3176 0.0000
# 4 0.0000 0.0000 0.0000 24.2684 0.0000 -5.0225
# 5 -23.2382 -17.3059 -9.3176 0.0000 53.8089 0.0000
# 6 0.0000 0.0001 0.0000 -5.0225 0.0000 33.7836
#
#
#
# Elastic Compliance Matrix: (Units=1/GPa)
#
#
# Indices 1 2 3 4 5 6 
#
# 1 0.005580 -0.001473 -0.002296 0.000000 0.001539 0.000000
# 2 -0.001473 0.016929 -0.002864 0.000000 0.004313 0.000000
# 3 -0.002296 -0.002864 0.012912 0.000000 0.000323 0.000000
# 4 0.000000 0.000000 0.000000 0.042514 0.000000 0.006320
# 5 0.001539 0.004313 0.000323 0.000000 0.020692 0.000000
# 6 0.000000 0.000000 0.000000 0.006320 0.000000 0.030540
#
#
# Mechanical properties :
#
#
# Convention : Reuss Voigt Hill
#
# Bulk Modulus (GPa) = 45.13659 63.56675 54.35167
# Shear Modulus (GPa) = 33.37385 40.63864 37.00624
#
# Velocity S-wave (km/s) = 3.52932 3.89456 3.71643
# Velocity P-wave (km/s) = 5.78399 6.62936 6.22105
#
# Compressibility (1/GPa) = 0.02215498
#
# Stress axis : x y z
#
# Youngs Moduli (GPa) = 179.19964 59.07093 77.44711
#
# Poissons Ratio (x) = 0.08701 0.17782
# Poissons Ratio (y) = 0.26394 0.22183
# Poissons Ratio (z) = 0.41144 0.16919
#
# Static dielectric constant tensor:
#      x y z
#    x 2.041290 0.000000 -0.028950 
#    y 0.000000 2.048630 0.000000 
#    z -0.028950 0.000000 2.280430 
# 
# From -- ./inp_files/290606.got.cif
#   From: 2010.05.17/outbox.cif.g08.bks.cpg/sg15_146_cif.got.tgz:290606.got - 2010.06.03 18:47:42.
