data_PCOD9293903
_publ_section_title
;
Structure prediction by ZEFSAII (Michael W. Deem and Ramdas Pophale) SiO2 
 PCOD9293903
Probable space group: C 2/C
;
_chemical_formula_sum "Si O2"
_cell_formula_units_Z 32
_cell_length_a 6.240230
_cell_length_b 30.574687
_cell_length_c 8.808820
_cell_angle_alpha 90.000000
_cell_angle_beta 85.820336
_cell_angle_gamma 90.000000
_cell_volume 1676.192017
_symmetry_space_group_name_H-M "C 2/C"
_symmetry_group_IT_number 15
_symmetry_cell_setting 'monoclinic'
loop_
_space_group_symop_operation_xyz
x,y,z
-x,y,1/2-z
-x,-y,-z
x,-y,1/2+z
1/2+x,1/2+y,z
1/2-x,1/2+y,1/2-z
1/2-x,1/2-y,-z
1/2+x,1/2-y,1/2+z
loop_
_atom_site_type_symbol
_atom_site_label
_atom_site_fract_x
_atom_site_fract_y
_atom_site_fract_z
Si Si1 0.500000 0.156381 0.250000
Si Si2 0.500000 0.001766 0.250000
Si Si3 0.902086 0.874531 0.585653
Si Si4 0.685548 0.535756 0.519178
Si Si5 0.356870 0.288237 0.898640
O O1 0.351585 0.130351 0.373408
O O2 0.339101 0.185999 0.164907
O O3 0.672217 0.974031 0.339316
O O4 0.355926 0.030126 0.372555
O O5 0.927300 0.916850 0.480957
O O6 0.000000 0.883150 0.750000
O O7 0.001633 0.827473 0.531850
O O8 0.500000 0.500000 0.500000
O O9 0.500000 0.271049 0.750000
O O10 0.250000 0.250000 0.000000
#
# Coordination Sequence:
#
# PCOD9293903 Si02
#       5
#     4   4   8   8   8
#     4   8  17  34  58  78 106 138 196 234 270 353
#     4  10  23  34  58  86 112 164 198 240 298 347
#     4   9  18  32  57  84 104 148 196 237 282 348
#     4  11  21  38  59  83 120 158 197 244 290 347
#     4   9  19  34  58  84 109 146 192 237 296 350
#
# _framework density 19.090890999999999
#
# number of rings (size 3 to 8) (size 9 to 14) (size 15 to 20)
#    0.000    3.000    0.000    3.000    0.000   10.000 
#    0.000    0.000   27.500    0.000    0.000    0.000 
#    0.000    0.000    0.000    0.000    0.000    0.000 
#
# Total GULP energy -89090.996485 kJ/mol
# GULP energy per Si atom -5568.187280 kJ/mol
# Density = 1.904744 g / cm^3
# Si number density = 19.090891 Si / 1000 Ang^3
#
#
#
# Elastic Constant Matrix: (Units=GPa)
#
#
# Indices 1 2 3 4 5 6 
#
# 1 110.2589 47.6227 25.7980 0.0000 -4.9193 0.0000
# 2 47.6227 157.7417 48.5878 0.0000 -11.5688 0.0000
# 3 25.7980 48.5878 63.2087 0.0000 3.7513 0.0000
# 4 0.0000 0.0000 0.0000 18.6403 0.0000 -2.0508
# 5 -4.9193 -11.5688 3.7513 0.0000 26.0837 0.0000
# 6 0.0000 0.0000 0.0000 -2.0508 0.0000 10.6233
#
#
#
# Elastic Compliance Matrix: (Units=1/GPa)
#
#
# Indices 1 2 3 4 5 6 
#
# 1 0.010763 -0.002318 -0.002694 0.000000 0.001389 0.000000
# 2 -0.002318 0.009403 -0.006559 0.000000 0.004677 0.000000
# 3 -0.002694 -0.006559 0.022356 0.000000 -0.006632 0.000000
# 4 0.000000 0.000000 0.000000 0.054811 0.000000 0.010581
# 5 0.001389 0.004677 -0.006632 0.000000 0.041628 0.000000
# 6 0.000000 0.000000 0.000000 0.010581 0.000000 0.096176
#
#
# Mechanical properties :
#
#
# Convention : Reuss Voigt Hill
#
# Bulk Modulus (GPa) = 51.59980 63.91401 57.75691
# Shear Modulus (GPa) = 18.88664 25.01617 21.95140
#
# Velocity S-wave (km/s) = 3.14873 3.62383 3.39460
# Velocity P-wave (km/s) = 6.34874 7.14570 6.75898
#
# Compressibility (1/GPa) = 0.01937992
#
# Stress axis : x y z
#
# Youngs Moduli (GPa) = 92.91208 106.35375 44.73155
#
# Poissons Ratio (x) = 0.24650 0.12049
# Poissons Ratio (y) = 0.21535 0.29340
# Poissons Ratio (z) = 0.25026 0.69760
#
# Static dielectric constant tensor:
#      x y z
#    x 1.706440 0.000000 -0.039490 
#    y 0.000000 1.710610 0.000000 
#    z -0.039490 0.000000 1.697790 
# 
# From -- ./inp_files/19967.got.cif
#   From: 2010.05.17/outbox.cif.g08.bks.cpg/sg15_10_cif.got.tgz:19967.got - 2010.06.03 18:47:42.
