data_PCOD9293534
_publ_section_title
;
Structure prediction by ZEFSAII (Michael W. Deem and Ramdas Pophale) SiO2 
 PCOD9293534
Probable space group: C 2/C
;
_chemical_formula_sum "Si O2"
_cell_formula_units_Z 56
_cell_length_a 18.424861
_cell_length_b 12.104282
_cell_length_c 13.785969
_cell_angle_alpha 90.000000
_cell_angle_beta 56.655170
_cell_angle_gamma 90.000000
_cell_volume 2568.404025
_symmetry_space_group_name_H-M "C 2/C"
_symmetry_group_IT_number 15
_symmetry_cell_setting 'monoclinic'
loop_
_space_group_symop_operation_xyz
x,y,z
-x,y,1/2-z
-x,-y,-z
x,-y,1/2+z
1/2+x,1/2+y,z
1/2-x,1/2+y,1/2-z
1/2-x,1/2-y,-z
1/2+x,1/2-y,1/2+z
loop_
_atom_site_type_symbol
_atom_site_label
_atom_site_fract_x
_atom_site_fract_y
_atom_site_fract_z
Si Si1 0.210958 0.724865 0.424619
Si Si2 0.854022 0.089514 0.227096
Si Si3 0.500000 0.038329 0.250000
Si Si4 0.044293 0.811676 0.023999
Si Si5 0.970775 0.352238 0.427132
Si Si6 0.653106 0.222453 0.116948
Si Si7 0.852222 0.860719 0.190686
Si Si8 0.000000 0.839329 0.750000
O O1 0.250000 0.750000 0.500000
O O2 0.288239 0.684880 0.300782
O O3 0.132383 0.636948 0.480548
O O4 0.174948 0.831786 0.397500
O O5 0.898955 0.119688 0.093342
O O6 0.922810 0.089238 0.264050
O O7 0.808098 0.972353 0.256625
O O8 0.589781 0.111337 0.173203
O O9 0.506117 0.956154 0.339938
O O10 0.018661 0.694341 0.988623
O O11 0.092639 0.792078 0.088604
O O12 0.955556 0.875348 0.109869
O O13 0.974334 0.244655 0.354368
O O14 0.661588 0.265714 0.220507
O O15 0.750000 0.250000 0.000000
#
# Coordination Sequence:
#
# PCOD9293534 Si02
#       8
#     8   8   4   8   8   8   8   4
#     4  11  23  45  66 101 141 171 236 301 334 414
#     4  11  23  39  69 100 133 184 231 279 352 417
#     4  11  24  47  72 102 140 189 236 283 350 428
#     4  10  22  46  67  97 141 177 229 290 331 419
#     4   9  21  42  69  98 133 183 231 281 344 400
#     4  12  26  47  67 101 144 181 227 289 350 418
#     4  11  25  45  65  98 138 181 227 284 356 412
#     4   9  18  37  62  98 132 173 228 279 334 400
#
# _framework density 21.803422000000001
#
# number of rings (size 3 to 8) (size 9 to 14) (size 15 to 20)
#    0.000    1.429    2.857    1.286    4.000    1.714 
#    2.571    0.000    0.000    0.000    0.000    0.000 
#    0.000    0.000    0.000    0.000    0.000    0.000 
#
# Total GULP energy -156069.810192 kJ/mol
# GULP energy per Si atom -5573.921793 kJ/mol
# Density = 2.175380 g / cm^3
# Si number density = 21.803422 Si / 1000 Ang^3
#
#
#
# Elastic Constant Matrix: (Units=GPa)
#
#
# Indices 1 2 3 4 5 6 
#
# 1 100.1736 12.0737 4.1141 0.0000 16.7024 0.0000
# 2 12.0737 70.6162 2.2593 0.0000 4.4115 0.0000
# 3 4.1141 2.2593 66.1024 0.0000 -2.8887 0.0000
# 4 0.0000 0.0000 0.0000 26.1972 0.0000 5.6351
# 5 16.7024 4.4115 -2.8887 0.0000 38.4586 0.0000
# 6 0.0000 0.0000 0.0000 5.6351 0.0000 7.9630
#
#
#
# Elastic Compliance Matrix: (Units=1/GPa)
#
#
# Indices 1 2 3 4 5 6 
#
# 1 0.010981 -0.001560 -0.000833 0.000000 -0.004653 0.000000
# 2 -0.001560 0.014506 -0.000443 0.000000 -0.001020 0.000000
# 3 -0.000833 -0.000443 0.015263 0.000000 0.001559 0.000000
# 4 0.000000 0.000000 0.000000 0.045026 0.000000 -0.031863
# 5 -0.004653 -0.001020 0.001559 0.000000 0.028257 0.000000
# 6 0.000000 0.000000 0.000000 -0.031863 0.000000 0.148129
#
#
# Mechanical properties :
#
#
# Convention : Reuss Voigt Hill
#
# Bulk Modulus (GPa) = 28.50952 30.42071 29.46512
# Shear Modulus (GPa) = 17.88739 29.08676 23.48708
#
# Velocity S-wave (km/s) = 2.86736 3.65642 3.28566
# Velocity P-wave (km/s) = 4.90575 5.63990 5.28559
#
# Compressibility (1/GPa) = 0.03507600
#
# Stress axis : x y z
#
# Youngs Moduli (GPa) = 91.06911 68.93852 65.51706
#
# Poissons Ratio (x) = 0.10755 0.05460
# Poissons Ratio (y) = 0.14208 0.02904
# Poissons Ratio (z) = 0.07590 0.03056
#
# Static dielectric constant tensor:
#      x y z
#    x 1.838010 0.000000 -0.033980 
#    y 0.000000 1.797810 0.000000 
#    z -0.033980 0.000000 1.823330 
# 
# From -- ./inp_files/161273.got.cif
#   From: 2010.05.17/outbox.cif.g08.bks.cpg/sg15_81_cif.got.tgz:161273.got - 2010.06.03 18:47:42.
