data_PCOD9293447
_publ_section_title
;
Structure prediction by ZEFSAII (Michael W. Deem and Ramdas Pophale) SiO2 
 PCOD9293447
Probable space group: C 2/C
;
_chemical_formula_sum "Si O2"
_cell_formula_units_Z 44
_cell_length_a 13.339194
_cell_length_b 6.088751
_cell_length_c 23.557687
_cell_angle_alpha 90.000000
_cell_angle_beta 67.763865
_cell_angle_gamma 90.000000
_cell_volume 1771.041997
_symmetry_space_group_name_H-M "C 2/C"
_symmetry_group_IT_number 15
_symmetry_cell_setting 'monoclinic'
loop_
_space_group_symop_operation_xyz
x,y,z
-x,y,1/2-z
-x,-y,-z
x,-y,1/2+z
1/2+x,1/2+y,z
1/2-x,1/2+y,1/2-z
1/2-x,1/2-y,-z
1/2+x,1/2-y,1/2+z
loop_
_atom_site_type_symbol
_atom_site_label
_atom_site_fract_x
_atom_site_fract_y
_atom_site_fract_z
Si Si1 0.673181 0.504572 0.701273
Si Si2 0.400453 0.210076 0.680785
Si Si3 0.171957 0.551795 0.999215
Si Si4 0.921220 0.879682 0.560814
Si Si5 0.500000 0.875791 0.750000
Si Si6 0.207896 0.324169 0.096072
O O1 0.642696 0.399715 0.768122
O O2 0.796184 0.588167 0.675909
O O3 0.595356 0.712746 0.708409
O O4 0.660124 0.304761 0.659728
O O5 0.459312 0.334424 0.616404
O O6 0.458857 0.029763 0.707597
O O7 0.095196 0.650937 0.968311
O O8 0.240725 0.368254 0.952836
O O9 0.250000 0.750000 0.000000
O O10 0.133535 0.460636 0.068131
O O11 0.808755 0.016603 0.590434
O O12 0.000000 0.000000 0.500000
#
# Coordination Sequence:
#
# PCOD9293447 Si02
#       6
#     8   8   8   8   4   8
#     4  12  25  52  81 117 158 208 276 338 411 476
#     4  12  26  53  81 115 160 210 271 339 405 480
#     4   9  20  44  69 108 143 203 252 309 385 466
#     4  11  25  48  75 115 160 214 263 325 400 481
#     4  12  30  52  82 120 156 220 260 344 406 496
#     4  10  22  45  76 107 152 208 259 327 398 466
#
# _framework density 24.844131000000001
#
# number of rings (size 3 to 8) (size 9 to 14) (size 15 to 20)
#    0.000    1.091    3.636    1.636    0.000    0.727 
#   26.182    0.000    0.000    0.000    0.000    0.000 
#    0.000    0.000    0.000    0.000    0.000    0.000 
#
# Total GULP energy -123179.874650 kJ/mol
# GULP energy per Si atom -5599.085211 kJ/mol
# Density = 2.478758 g / cm^3
# Si number density = 24.844131 Si / 1000 Ang^3
#
#
#
# Elastic Constant Matrix: (Units=GPa)
#
#
# Indices 1 2 3 4 5 6 
#
# 1 67.8753 32.9293 37.1461 -0.0001 2.0208 -0.0002
# 2 32.9293 113.7076 52.9605 -0.0002 2.9674 -0.0004
# 3 37.1461 52.9605 197.4408 0.0000 11.4321 0.0000
# 4 -0.0001 -0.0002 0.0000 61.4631 0.0000 -4.6848
# 5 2.0208 2.9674 11.4321 0.0000 28.1873 -0.0001
# 6 -0.0002 -0.0004 0.0000 -4.6848 -0.0001 63.5304
#
#
#
# Elastic Compliance Matrix: (Units=1/GPa)
#
#
# Indices 1 2 3 4 5 6 
#
# 1 0.017990 -0.004152 -0.002275 0.000000 0.000070 0.000000
# 2 -0.004152 0.011008 -0.002173 0.000000 0.000020 0.000000
# 3 -0.002275 -0.002173 0.006199 0.000000 -0.002122 0.000000
# 4 0.000000 0.000000 0.000000 0.016362 0.000000 0.001207
# 5 0.000070 0.000020 -0.002122 0.000000 0.036330 0.000000
# 6 0.000000 0.000000 0.000000 0.001207 0.000000 0.015829
#
#
# Mechanical properties :
#
#
# Convention : Reuss Voigt Hill
#
# Bulk Modulus (GPa) = 55.56381 69.45504 62.50942
# Shear Modulus (GPa) = 39.39554 47.70202 43.54878
#
# Velocity S-wave (km/s) = 3.98641 4.38659 4.19128
# Velocity P-wave (km/s) = 6.60320 7.32620 6.97408
#
# Compressibility (1/GPa) = 0.01799733
#
# Stress axis : x y z
#
# Youngs Moduli (GPa) = 55.58579 90.83955 161.32896
#
# Poissons Ratio (x) = 0.37718 0.36701
# Poissons Ratio (y) = 0.23080 0.35054
# Poissons Ratio (z) = 0.12645 0.19738
#
# Static dielectric constant tensor:
#      x y z
#    x 2.050570 0.000000 -0.020670 
#    y 0.000000 1.928010 0.000000 
#    z -0.020670 0.000000 1.991110 
# 
# From -- ./inp_files/271874.got.cif
#   From: 2010.05.17/outbox.cif.g08.bks.cpg/sg15_136_cif.got.tgz:271874.got - 2010.06.03 18:47:42.
