data_PCOD9293937
_publ_section_title
;
Structure prediction by ZEFSAII (Michael W. Deem and Ramdas Pophale) SiO2 
 PCOD9293937
Probable space group: C 2/C
;
_chemical_formula_sum "Si O2"
_cell_formula_units_Z 44
_cell_length_a 20.369738
_cell_length_b 24.084512
_cell_length_c 13.327219
_cell_angle_alpha 90.000000
_cell_angle_beta 161.997626
_cell_angle_gamma 90.000000
_cell_volume 2020.694086
_symmetry_space_group_name_H-M "C 2/C"
_symmetry_group_IT_number 15
_symmetry_cell_setting 'monoclinic'
loop_
_space_group_symop_operation_xyz
x,y,z
-x,y,1/2-z
-x,-y,-z
x,-y,1/2+z
1/2+x,1/2+y,z
1/2-x,1/2+y,1/2-z
1/2-x,1/2-y,-z
1/2+x,1/2-y,1/2+z
loop_
_atom_site_type_symbol
_atom_site_label
_atom_site_fract_x
_atom_site_fract_y
_atom_site_fract_z
Si Si1 0.262474 0.304219 0.890796
Si Si2 0.301055 0.924687 0.598363
Si Si3 0.790939 0.071930 0.762227
Si Si4 0.539067 0.676237 0.409047
Si Si5 0.500000 0.490213 0.750000
Si Si6 0.149935 0.225531 0.191051
O O1 0.231254 0.361022 0.908460
O O2 0.283323 0.315901 0.801391
O O3 0.079474 0.258163 0.646001
O O4 0.500000 0.279825 0.250000
O O5 0.192854 0.937413 0.333000
O O6 0.197914 0.968385 0.523186
O O7 0.549410 0.936610 0.945406
O O8 0.828643 0.137804 0.825819
O O9 0.947670 0.042400 0.069629
O O10 0.500000 0.643715 0.250000
O O11 0.681273 0.726238 0.577096
O O12 0.344306 0.696567 0.192645
#
# Coordination Sequence:
#
# PCOD9293937 Si02
#       6
#     8   8   8   8   4   8
#     4  11  20  38  59  94 126 165 205 258 311 368
#     4  11  24  42  67  94 128 159 214 269 312 375
#     4  11  24  43  66  95 124 169 207 264 322 374
#     4  11  21  40  62  91 133 171 209 250 311 380
#     4  12  24  46  70  88 124 166 216 262 326 370
#     4  10  23  36  62  93 130 170 209 251 307 376
#
# _framework density 21.774697
#
# number of rings (size 3 to 8) (size 9 to 14) (size 15 to 20)
#    0.000    1.091    3.636    3.273    0.000    1.455 
#    0.000    0.000    0.000    2.182    0.000    0.000 
#    0.000    0.000    0.000    0.000    0.000    0.000 
#
# Total GULP energy -122585.275555 kJ/mol
# GULP energy per Si atom -5572.057980 kJ/mol
# Density = 2.172514 g / cm^3
# Si number density = 21.774697 Si / 1000 Ang^3
#
#
#
# Elastic Constant Matrix: (Units=GPa)
#
#
# Indices 1 2 3 4 5 6 
#
# 1 131.9865 43.6194 3.4890 0.0001 5.4526 0.0001
# 2 43.6194 70.9908 12.6039 0.0000 -5.3809 0.0000
# 3 3.4890 12.6039 40.6206 0.0002 2.5389 0.0002
# 4 0.0001 0.0000 0.0002 26.7543 0.0001 -1.7825
# 5 5.4526 -5.3809 2.5389 0.0001 30.2157 0.0001
# 6 0.0001 0.0000 0.0002 -1.7825 0.0001 41.8580
#
#
#
# Elastic Compliance Matrix: (Units=1/GPa)
#
#
# Indices 1 2 3 4 5 6 
#
# 1 0.009816 -0.006504 0.001365 0.000000 -0.003044 0.000000
# 2 -0.006504 0.019504 -0.005814 0.000000 0.005136 0.000000
# 3 0.001365 -0.005814 0.026524 0.000000 -0.003510 0.000000
# 4 0.000000 0.000000 0.000000 0.037483 0.000000 0.001596
# 5 -0.003044 0.005136 -0.003510 0.000000 0.034854 0.000000
# 6 0.000000 0.000000 0.000000 0.001596 0.000000 0.023958
#
#
# Mechanical properties :
#
#
# Convention : Reuss Voigt Hill
#
# Bulk Modulus (GPa) = 29.46548 40.33583 34.90065
# Shear Modulus (GPa) = 26.97462 32.02465 29.49963
#
# Velocity S-wave (km/s) = 3.52349 3.83917 3.68471
# Velocity P-wave (km/s) = 5.48768 6.18196 5.84514
#
# Compressibility (1/GPa) = 0.03393802
#
# Stress axis : x y z
#
# Youngs Moduli (GPa) = 101.87667 51.27057 37.70140
#
# Poissons Ratio (x) = 0.33348 -0.05148
# Poissons Ratio (y) = 0.66264 0.21920
# Poissons Ratio (z) = -0.13910 0.29810
#
# Static dielectric constant tensor:
#      x y z
#    x 2.051770 0.000000 -0.020240 
#    y 0.000000 1.775070 0.000000 
#    z -0.020240 0.000000 1.958640 
# 
# From -- ./inp_files/108680.got.cif
#   From: 2010.05.17/outbox.cif.g08.bks.cpg/sg15_55_cif.got.tgz:108680.got - 2010.06.03 18:47:42.
