data_PCOD9293195
_publ_section_title
;
Structure prediction by ZEFSAII (Michael W. Deem and Ramdas Pophale) SiO2 
 PCOD9293195
Probable space group: C 2/C
;
_chemical_formula_sum "Si O2"
_cell_formula_units_Z 48
_cell_length_a 12.502365
_cell_length_b 8.964034
_cell_length_c 15.686252
_cell_angle_alpha 90.000000
_cell_angle_beta 96.581786
_cell_angle_gamma 90.000000
_cell_volume 1746.397325
_symmetry_space_group_name_H-M "C 2/C"
_symmetry_group_IT_number 15
_symmetry_cell_setting 'monoclinic'
loop_
_space_group_symop_operation_xyz
x,y,z
-x,y,1/2-z
-x,-y,-z
x,-y,1/2+z
1/2+x,1/2+y,z
1/2-x,1/2+y,1/2-z
1/2-x,1/2-y,-z
1/2+x,1/2-y,1/2+z
loop_
_atom_site_type_symbol
_atom_site_label
_atom_site_fract_x
_atom_site_fract_y
_atom_site_fract_z
Si Si1 0.684227 0.615550 0.143350
Si Si2 0.531356 0.486587 0.902219
Si Si3 0.500000 0.930626 0.250000
Si Si4 0.000000 0.500000 0.000000
Si Si5 0.248110 0.428198 0.517631
Si Si6 0.741586 0.834209 0.267485
Si Si7 0.549612 0.203485 0.130542
O O1 0.556200 0.632576 0.136715
O O2 0.720852 0.526566 0.063242
O O3 0.717467 0.501446 0.220730
O O4 0.743937 0.765020 0.173549
O O5 0.506261 0.640690 0.851599
O O6 0.500000 0.500000 0.000000
O O7 0.654554 0.448898 0.909142
O O8 0.613303 0.846801 0.277771
O O9 0.515390 0.048165 0.172764
O O10 0.868805 0.489798 0.970780
O O11 0.998892 0.673292 0.032666
O O12 0.250000 0.250000 0.500000
O O13 0.826443 0.741056 0.334008
#
# Coordination Sequence:
#
# PCOD9293195 Si02
#       7
#     8   8   4   4   8   8   8
#     4  10  22  44  79 110 155 207 261 324 400 475
#     4   9  21  45  75 106 155 200 259 327 390 468
#     4  12  26  50  82 106 168 214 254 340 410 478
#     4  12  26  42  76 108 150 204 262 322 394 472
#     4  11  24  48  76 109 159 204 265 330 394 477
#     4  11  23  47  75 112 154 206 262 323 397 482
#     4  11  26  48  71 117 153 203 269 326 392 483
#
# _framework density 27.485153
#
# number of rings (size 3 to 8) (size 9 to 14) (size 15 to 20)
#    0.000    1.333    1.667    4.000    0.000    7.333 
#    3.000    8.333    3.667    0.000    0.000    0.000 
#    0.000    0.000    0.000    0.000    0.000    0.000 
#
# Total GULP energy -133668.900367 kJ/mol
# GULP energy per Si atom -5569.537515 kJ/mol
# Density = 2.742260 g / cm^3
# Si number density = 27.485153 Si / 1000 Ang^3
#
#
#
# Elastic Constant Matrix: (Units=GPa)
#
#
# Indices 1 2 3 4 5 6 
#
# 1 292.5133 73.1714 46.5927 0.0000 35.7631 0.0000
# 2 73.1714 76.7476 38.6811 0.0000 13.7519 0.0000
# 3 46.5927 38.6811 55.7426 0.0000 -2.3461 0.0000
# 4 0.0000 0.0000 0.0000 55.4858 0.0000 16.4881
# 5 35.7631 13.7519 -2.3461 0.0000 37.1804 0.0000
# 6 0.0000 0.0000 0.0000 16.4881 0.0000 75.6198
#
#
#
# Elastic Compliance Matrix: (Units=1/GPa)
#
#
# Indices 1 2 3 4 5 6 
#
# 1 0.004985 -0.002885 -0.002328 0.000000 -0.003875 0.000000
# 2 -0.002885 0.024644 -0.014996 0.000000 -0.007286 0.000000
# 3 -0.002328 -0.014996 0.030701 0.000000 0.009723 0.000000
# 4 0.000000 0.000000 0.000000 0.019271 0.000000 -0.004202
# 5 -0.003875 -0.007286 0.009723 0.000000 0.033931 0.000000
# 6 0.000000 0.000000 0.000000 -0.004202 0.000000 0.014140
#
#
# Mechanical properties :
#
#
# Convention : Reuss Voigt Hill
#
# Bulk Modulus (GPa) = 50.22201 82.43265 66.32733
# Shear Modulus (GPa) = 28.61600 51.42777 40.02188
#
# Velocity S-wave (km/s) = 3.23018 4.33033 3.82006
# Velocity P-wave (km/s) = 5.67663 7.42018 6.60618
#
# Compressibility (1/GPa) = 0.01991159
#
# Stress axis : x y z
#
# Youngs Moduli (GPa) = 200.60920 40.57742 32.57271
#
# Poissons Ratio (x) = 0.11707 0.07581
# Poissons Ratio (y) = 0.57880 0.48847
# Poissons Ratio (z) = 0.46692 0.60851
#
# Static dielectric constant tensor:
#      x y z
#    x 2.081570 0.000000 -0.132940 
#    y 0.000000 2.090460 0.000000 
#    z -0.132940 0.000000 2.855750 
# 
# From -- ./inp_files/196071.got.cif
#   From: 2010.05.17/outbox.cif.g08.bks.cpg/sg15_99_cif.got.tgz:196071.got - 2010.06.03 18:47:42.
