data_PCOD9293585
_publ_section_title
;
Structure prediction by ZEFSAII (Michael W. Deem and Ramdas Pophale) SiO2 
 PCOD9293585
Probable space group: C 2/C
;
_chemical_formula_sum "Si O2"
_cell_formula_units_Z 48
_cell_length_a 25.717188
_cell_length_b 8.580936
_cell_length_c 13.904246
_cell_angle_alpha 90.000000
_cell_angle_beta 136.167411
_cell_angle_gamma 90.000000
_cell_volume 2125.000171
_symmetry_space_group_name_H-M "C 2/C"
_symmetry_group_IT_number 15
_symmetry_cell_setting 'monoclinic'
loop_
_space_group_symop_operation_xyz
x,y,z
-x,y,1/2-z
-x,-y,-z
x,-y,1/2+z
1/2+x,1/2+y,z
1/2-x,1/2+y,1/2-z
1/2-x,1/2-y,-z
1/2+x,1/2-y,1/2+z
loop_
_atom_site_type_symbol
_atom_site_label
_atom_site_fract_x
_atom_site_fract_y
_atom_site_fract_z
Si Si1 0.171601 0.288712 0.948851
Si Si2 0.211742 0.892362 0.690779
Si Si3 0.857083 0.226672 0.920775
Si Si4 0.449353 0.351720 0.352009
Si Si5 0.581887 0.303260 0.643887
Si Si6 0.580444 0.906395 0.323041
O O1 0.101762 0.206389 0.802405
O O2 0.147036 0.468203 0.915063
O O3 0.250000 0.250000 0.000000
O O4 0.184333 0.223103 0.071348
O O5 0.299374 0.865387 0.821535
O O6 0.166315 0.845106 0.725973
O O7 0.189716 0.067071 0.632525
O O8 0.908313 0.201178 0.895926
O O9 0.901062 0.270090 0.075744
O O10 0.532702 0.285966 0.480706
O O11 0.450725 0.538975 0.351435
O O12 0.575506 0.163291 0.709463
O O13 0.500000 0.973240 0.250000
#
# Coordination Sequence:
#
# PCOD9293585 Si02
#       6
#     8   8   8   8   8   8
#     4  12  27  44  66  98 141 182 227 284 338 406
#     4  11  25  43  71 101 134 185 228 286 344 409
#     4  11  23  45  72  98 139 177 232 282 344 411
#     4  10  22  46  69  96 136 179 224 286 343 409
#     4  10  24  44  72  99 132 179 232 282 347 405
#     4  12  27  45  71 105 139 181 229 284 345 411
#
# _framework density 22.588232999999999
#
# number of rings (size 3 to 8) (size 9 to 14) (size 15 to 20)
#    0.000    1.000    3.333    2.000    7.000    2.667 
#    0.000    0.000    0.000    0.000    0.000    0.000 
#    0.000    0.000    0.000    0.000    0.000    0.000 
#
# Total GULP energy -134269.724608 kJ/mol
# GULP energy per Si atom -5594.571859 kJ/mol
# Density = 2.253682 g / cm^3
# Si number density = 22.588233 Si / 1000 Ang^3
#
#
#
# Elastic Constant Matrix: (Units=GPa)
#
#
# Indices 1 2 3 4 5 6 
#
# 1 60.2097 19.7292 -0.0719 0.0000 15.5791 0.0000
# 2 19.7292 65.9718 6.7324 0.0000 2.6089 0.0000
# 3 -0.0719 6.7324 85.8841 0.0000 -5.1541 0.0000
# 4 0.0000 0.0000 0.0000 43.9992 0.0000 2.9769
# 5 15.5791 2.6089 -5.1541 0.0000 36.0195 0.0000
# 6 0.0000 0.0000 0.0000 2.9769 0.0000 22.0387
#
#
#
# Elastic Compliance Matrix: (Units=1/GPa)
#
#
# Indices 1 2 3 4 5 6 
#
# 1 0.020742 -0.005861 -0.000036 0.000000 -0.008552 0.000000
# 2 -0.005861 0.016996 -0.001270 0.000000 0.001122 0.000000
# 3 -0.000036 -0.001270 0.011851 0.000000 0.001804 0.000000
# 4 0.000000 0.000000 0.000000 0.022937 0.000000 -0.003098
# 5 -0.008552 0.001122 0.001804 0.000000 0.031638 0.000000
# 6 0.000000 0.000000 0.000000 -0.003098 0.000000 0.045793
#
#
# Mechanical properties :
#
#
# Convention : Reuss Voigt Hill
#
# Bulk Modulus (GPa) = 28.36512 29.42721 28.89616
# Shear Modulus (GPa) = 28.40194 32.78988 30.59591
#
# Velocity S-wave (km/s) = 3.54980 3.81417 3.68435
# Velocity P-wave (km/s) = 5.42090 5.69676 5.56054
#
# Compressibility (1/GPa) = 0.03525457
#
# Stress axis : x y z
#
# Youngs Moduli (GPa) = 48.21158 58.83743 84.37861
#
# Poissons Ratio (x) = 0.34485 0.00307
# Poissons Ratio (y) = 0.28257 0.10715
# Poissons Ratio (z) = 0.00176 0.07472
#
# Static dielectric constant tensor:
#      x y z
#    x 1.820450 0.000000 0.035790 
#    y 0.000000 1.835230 0.000000 
#    z 0.035790 0.000000 1.838220 
# 
# From -- ./inp_files/176971.got.cif
#   From: 2010.05.17/outbox.cif.g08.bks.cpg/sg15_89_cif.got.tgz:176971.got - 2010.06.03 18:47:42.
