data_PCOD9293511
_publ_section_title
;
Structure prediction by ZEFSAII (Michael W. Deem and Ramdas Pophale) SiO2 
 PCOD9293511
Probable space group: C 2/C
;
_chemical_formula_sum "Si O2"
_cell_formula_units_Z 44
_cell_length_a 20.145097
_cell_length_b 6.377892
_cell_length_c 19.803149
_cell_angle_alpha 90.000000
_cell_angle_beta 140.435676
_cell_angle_gamma 90.000000
_cell_volume 1620.623361
_symmetry_space_group_name_H-M "C 2/C"
_symmetry_group_IT_number 15
_symmetry_cell_setting 'monoclinic'
loop_
_space_group_symop_operation_xyz
x,y,z
-x,y,1/2-z
-x,-y,-z
x,-y,1/2+z
1/2+x,1/2+y,z
1/2-x,1/2+y,1/2-z
1/2-x,1/2-y,-z
1/2+x,1/2-y,1/2+z
loop_
_atom_site_type_symbol
_atom_site_label
_atom_site_fract_x
_atom_site_fract_y
_atom_site_fract_z
Si Si1 0.505627 0.684048 0.057500
Si Si2 0.604142 0.687749 0.367560
Si Si3 0.311555 0.002629 0.794779
Si Si4 0.500000 0.895152 0.750000
Si Si5 0.714738 0.719282 0.587143
Si Si6 0.620978 0.616337 0.734904
O O1 0.603176 0.827435 0.120476
O O2 0.535321 0.557609 0.148664
O O3 0.500000 0.500000 0.000000
O O4 0.398242 0.808284 0.979546
O O5 0.500000 0.605286 0.250000
O O6 0.667826 0.602336 0.481945
O O7 0.688578 0.666706 0.373050
O O8 0.571424 0.937307 0.348882
O O9 0.253129 0.070830 0.678503
O O10 0.230495 0.002220 0.794010
O O11 0.371369 0.797362 0.817018
O O12 0.579845 0.759494 0.765913
#
# Coordination Sequence:
#
# PCOD9293511 Si02
#       6
#     8   8   8   4   8   8
#     4  12  26  45  74 109 145 189 253 308 372 445
#     4   9  20  41  73  98 151 195 236 301 374 441
#     4  12  24  48  76 106 148 197 254 307 374 447
#     4  10  22  46  66 106 152 184 244 314 362 442
#     4  11  20  42  71 109 139 195 249 301 365 451
#     4  12  24  47  74 107 148 195 245 312 369 445
#
# _framework density 27.150048999999999
#
# number of rings (size 3 to 8) (size 9 to 14) (size 15 to 20)
#    0.545    0.364    5.455    2.182    0.000    0.727 
#   11.455    0.909    0.000    0.000    0.000    0.000 
#    0.000    0.000    0.000    0.000    0.000    0.000 
#
# Total GULP energy -122574.732050 kJ/mol
# GULP energy per Si atom -5571.578730 kJ/mol
# Density = 2.708825 g / cm^3
# Si number density = 27.150049 Si / 1000 Ang^3
#
#
#
# Elastic Constant Matrix: (Units=GPa)
#
#
# Indices 1 2 3 4 5 6 
#
# 1 159.1048 1.9596 67.4773 0.0000 2.6331 0.0000
# 2 1.9596 69.7420 -21.8994 -0.0003 15.2572 0.0009
# 3 67.4773 -21.8994 124.2213 -0.0001 21.8957 0.0001
# 4 0.0000 -0.0003 -0.0001 51.2732 0.0000 -10.1616
# 5 2.6331 15.2572 21.8957 0.0000 68.7377 0.0000
# 6 0.0000 0.0009 0.0001 -10.1616 0.0000 67.1563
#
#
#
# Elastic Compliance Matrix: (Units=1/GPa)
#
#
# Indices 1 2 3 4 5 6 
#
# 1 0.008579 -0.002361 -0.005415 0.000000 0.001920 0.000000
# 2 -0.002361 0.017248 0.005279 0.000000 -0.005419 0.000000
# 3 -0.005415 0.005279 0.012811 0.000000 -0.005045 0.000000
# 4 0.000000 0.000000 0.000000 0.020106 0.000000 0.003042
# 5 0.001920 -0.005419 -0.005045 0.000000 0.017285 0.000000
# 6 0.000000 0.000000 0.000000 0.003042 0.000000 0.015351
#
#
# Mechanical properties :
#
#
# Convention : Reuss Voigt Hill
#
# Bulk Modulus (GPa) = 29.72377 49.79366 39.75872
# Shear Modulus (GPa) = 46.47273 57.80214 52.13743
#
# Velocity S-wave (km/s) = 4.14176 4.61910 4.38693
# Velocity P-wave (km/s) = 5.81755 6.84311 6.35107
#
# Compressibility (1/GPa) = 0.03364311
#
# Stress axis : x y z
#
# Youngs Moduli (GPa) = 116.56414 57.97758 78.05525
#
# Poissons Ratio (x) = 0.13691 0.42266
# Poissons Ratio (y) = 0.27526 -0.41203
# Poissons Ratio (z) = 0.63119 -0.30605
#
# Static dielectric constant tensor:
#      x y z
#    x 2.140380 0.000000 -0.232190 
#    y 0.000000 2.263340 0.000000 
#    z -0.232190 0.000000 2.054620 
# 
# From -- ./inp_files/251381.got.cif
#   From: 2010.05.17/outbox.cif.g08.bks.cpg/sg15_126_cif.got.tgz:251381.got - 2010.06.03 18:47:42.
