data_PCOD9293535
_publ_section_title
;
Structure prediction by ZEFSAII (Michael W. Deem and Ramdas Pophale) SiO2 
 PCOD9293535
Probable space group: C 2/C
;
_chemical_formula_sum "Si O2"
_cell_formula_units_Z 44
_cell_length_a 23.704186
_cell_length_b 11.838153
_cell_length_c 14.518568
_cell_angle_alpha 90.000000
_cell_angle_beta 151.035550
_cell_angle_gamma 90.000000
_cell_volume 1972.956566
_symmetry_space_group_name_H-M "C 2/C"
_symmetry_group_IT_number 15
_symmetry_cell_setting 'monoclinic'
loop_
_space_group_symop_operation_xyz
x,y,z
-x,y,1/2-z
-x,-y,-z
x,-y,1/2+z
1/2+x,1/2+y,z
1/2-x,1/2+y,1/2-z
1/2-x,1/2-y,-z
1/2+x,1/2-y,1/2+z
loop_
_atom_site_type_symbol
_atom_site_label
_atom_site_fract_x
_atom_site_fract_y
_atom_site_fract_z
Si Si1 0.500000 0.522292 0.250000
Si Si2 0.347785 0.149938 0.645866
Si Si3 0.529527 0.652705 0.097765
Si Si4 0.753756 0.450747 0.642561
Si Si5 0.767667 0.472037 0.872354
Si Si6 0.697508 0.294634 0.330289
O O1 0.498610 0.594110 0.152274
O O2 0.617927 0.450971 0.420335
O O3 0.250000 0.250000 0.500000
O O4 0.446570 0.217702 0.839864
O O5 0.359349 0.105968 0.557927
O O6 0.309940 0.040661 0.651734
O O7 0.643536 0.588701 0.220328
O O8 0.430109 0.655961 0.877558
O O9 0.772329 0.494162 0.771544
O O10 0.795032 0.322332 0.713232
O O11 0.776447 0.597653 0.923642
O O12 0.750000 0.250000 0.500000
#
# Coordination Sequence:
#
# PCOD9293535 Si02
#       6
#     4   8   8   8   8   8
#     4  12  22  44  72 100 122 190 236 262 328 432
#     4  10  22  46  67  99 133 180 224 279 322 423
#     4  11  25  42  76  94 136 182 234 263 341 409
#     4  12  26  40  72 100 136 174 231 274 347 388
#     4  11  24  44  68  99 134 178 223 277 330 413
#     4  12  25  44  64 101 139 173 219 296 330 392
#
# _framework density 22.301556000000001
#
# number of rings (size 3 to 8) (size 9 to 14) (size 15 to 20)
#    0.000    0.727    7.273    0.545   10.182    0.727 
#    0.000    0.000    0.000    0.000    0.000    0.000 
#    0.000    0.000    0.000    0.000    0.000    0.000 
#
# Total GULP energy -122590.680888 kJ/mol
# GULP energy per Si atom -5572.303677 kJ/mol
# Density = 2.225080 g / cm^3
# Si number density = 22.301556 Si / 1000 Ang^3
#
#
#
# Elastic Constant Matrix: (Units=GPa)
#
#
# Indices 1 2 3 4 5 6 
#
# 1 46.6695 3.0021 23.3772 0.0000 -21.2414 0.0000
# 2 3.0021 122.9904 18.8602 0.0000 -1.7153 0.0000
# 3 23.3772 18.8602 106.6314 0.0000 -26.3379 0.0000
# 4 0.0000 0.0000 0.0000 -13.2723 0.0000 65.9333
# 5 -21.2414 -1.7153 -26.3379 0.0000 39.6291 0.0000
# 6 0.0000 0.0000 0.0000 65.9333 0.0000 -84.1977
#
#
#
# Elastic Compliance Matrix: (Units=1/GPa)
#
#
# Indices 1 2 3 4 5 6 
#
# 1 0.029136 -0.000059 -0.003015 0.000000 0.013611 0.000000
# 2 -0.000059 0.008376 -0.001659 0.000000 -0.000772 0.000000
# 3 -0.003015 -0.001659 0.011863 0.000000 0.006196 0.000000
# 4 0.000000 0.000000 0.000000 0.026070 0.000000 0.020415
# 5 0.013611 -0.000772 0.006196 0.000000 0.036614 0.000000
# 6 0.000000 0.000000 0.000000 0.020415 0.000000 0.004109
#
#
# Mechanical properties :
#
#
# Convention : Reuss Voigt Hill
#
# Bulk Modulus (GPa) = 25.05754 40.75228 32.90491
# Shear Modulus (GPa) = 35.98720 3.83529 19.91125
#
# Velocity S-wave (km/s) = 4.02140 1.31281 2.99125
# Velocity P-wave (km/s) = 5.72908 4.53993 5.16882
#
# Compressibility (1/GPa) = 0.03990815
#
# Stress axis : x y z
#
# Youngs Moduli (GPa) = 34.32141 119.39135 84.29485
#
# Poissons Ratio (x) = 0.00704 0.25419
# Poissons Ratio (y) = 0.00202 0.13986
# Poissons Ratio (z) = 0.10349 0.19809
#
# Static dielectric constant tensor:
#      x y z
#    x 1.937380 0.000000 -0.036740 
#    y 0.000000 1.728800 0.000000 
#    z -0.036740 0.000000 1.893650 
# 
# From -- ./inp_files/177683.got.cif
#   From: 2010.05.17/outbox.cif.g08.bks.cpg/sg15_89_cif.got.tgz:177683.got - 2010.06.03 18:47:42.
