data_PCOD9293200
_publ_section_title
;
Structure prediction by ZEFSAII (Michael W. Deem and Ramdas Pophale) SiO2 
 PCOD9293200
Probable space group: C 2/C
;
_chemical_formula_sum "Si O2"
_cell_formula_units_Z 36
_cell_length_a 9.872614
_cell_length_b 16.715606
_cell_length_c 13.690078
_cell_angle_alpha 90.000000
_cell_angle_beta 35.919939
_cell_angle_gamma 90.000000
_cell_volume 1325.386072
_symmetry_space_group_name_H-M "C 2/C"
_symmetry_group_IT_number 15
_symmetry_cell_setting 'monoclinic'
loop_
_space_group_symop_operation_xyz
x,y,z
-x,y,1/2-z
-x,-y,-z
x,-y,1/2+z
1/2+x,1/2+y,z
1/2-x,1/2+y,1/2-z
1/2-x,1/2-y,-z
1/2+x,1/2-y,1/2+z
loop_
_atom_site_type_symbol
_atom_site_label
_atom_site_fract_x
_atom_site_fract_y
_atom_site_fract_z
Si Si1 0.961976 0.687425 0.881618
Si Si2 0.500000 0.525292 0.250000
Si Si3 0.572164 0.903152 0.505150
Si Si4 0.617686 0.424639 0.882624
Si Si5 0.238126 0.765140 0.876239
O O1 0.000000 0.656814 0.750000
O O2 0.178105 0.739774 0.798308
O O3 0.750000 0.750000 0.000000
O O4 0.955454 0.618127 0.967989
O O5 0.280557 0.464994 0.372920
O O6 0.503691 0.579562 0.151610
O O7 0.386296 0.930296 0.693738
O O8 0.666405 0.814959 0.474392
O O9 0.601471 0.348342 0.962005
O O10 0.500000 0.500000 0.000000
O O11 0.500000 0.776936 0.750000
#
# Coordination Sequence:
#
# PCOD9293200 Si02
#       5
#     8   4   8   8   8
#     4  10  22  44  81 130 171 223 300 376 438 517
#     4  12  28  56  78 128 188 234 296 380 458 558
#     4  10  25  52  85 121 174 241 304 369 434 561
#     4  12  30  49  81 128 183 231 285 383 473 526
#     4  10  25  49  87 131 171 229 317 372 437 546
#
# _framework density 27.161895999999999
#
# number of rings (size 3 to 8) (size 9 to 14) (size 15 to 20)
#    1.333    0.000    1.111    2.000    7.778    4.444 
#    0.000    0.000    0.000    0.000    0.000    0.000 
#    0.000    0.000    0.000    0.000    0.000    0.000 
#
# Total GULP energy -100783.717762 kJ/mol
# GULP energy per Si atom -5599.095431 kJ/mol
# Density = 2.710007 g / cm^3
# Si number density = 27.161896 Si / 1000 Ang^3
#
#
#
# Elastic Constant Matrix: (Units=GPa)
#
#
# Indices 1 2 3 4 5 6 
#
# 1 170.2232 52.5167 64.3803 -0.0058 -9.9769 0.0023
# 2 52.5167 222.0609 82.6534 -0.0226 -15.9083 0.0045
# 3 64.3803 82.6534 122.1805 -0.0487 -2.6106 0.0111
# 4 -0.0058 -0.0226 -0.0487 49.1451 0.0036 0.9413
# 5 -9.9769 -15.9083 -2.6106 0.0036 57.1021 -0.0016
# 6 0.0023 0.0045 0.0111 0.9413 -0.0016 56.6476
#
#
#
# Elastic Compliance Matrix: (Units=1/GPa)
#
#
# Indices 1 2 3 4 5 6 
#
# 1 0.007423 -0.000312 -0.003678 -0.000003 0.001042 0.000001
# 2 -0.000312 0.006162 -0.003972 -0.000001 0.001480 0.000000
# 3 -0.003678 -0.003972 0.012785 0.000011 -0.001165 -0.000002
# 4 -0.000003 -0.000001 0.000011 0.020354 -0.000002 -0.000338
# 5 0.001042 0.001480 -0.001165 -0.000002 0.018054 0.000001
# 6 0.000001 0.000000 -0.000002 -0.000338 0.000001 0.017659
#
#
# Mechanical properties :
#
#
# Convention : Reuss Voigt Hill
#
# Bulk Modulus (GPa) = 95.73882 101.50727 98.62305
# Shear Modulus (GPa) = 49.09526 53.57325 51.33425
#
# Velocity S-wave (km/s) = 4.25609 4.44595 4.35206
# Velocity P-wave (km/s) = 7.71209 7.98797 7.85124
#
# Compressibility (1/GPa) = 0.01044508
#
# Stress axis : x y z
#
# Youngs Moduli (GPa) = 134.71559 162.29533 78.21617
#
# Poissons Ratio (x) = 0.05061 0.28770
# Poissons Ratio (y) = 0.04201 0.31070
# Poissons Ratio (z) = 0.49551 0.64469
#
# Static dielectric constant tensor:
#      x y z
#    x 2.205720 0.000000 0.041230 
#    y 0.000000 2.127110 0.000010 
#    z 0.041230 0.000010 2.203560 
# 
# From -- ./inp_files/136383.got.cif
#   From: 2010.05.17/outbox.cif.g08.bks.cpg/sg15_69_cif.got.tgz:136383.got - 2010.06.03 18:47:42.
