data_PCOD9293671
_publ_section_title
;
Structure prediction by ZEFSAII (Michael W. Deem and Ramdas Pophale) SiO2 
 PCOD9293671
Probable space group: C 2/C
;
_chemical_formula_sum "Si O2"
_cell_formula_units_Z 20
_cell_length_a 12.156652
_cell_length_b 9.034910
_cell_length_c 9.848299
_cell_angle_alpha 90.000000
_cell_angle_beta 139.170275
_cell_angle_gamma 90.000000
_cell_volume 707.217103
_symmetry_space_group_name_H-M "C 2/C"
_symmetry_group_IT_number 15
_symmetry_cell_setting 'monoclinic'
loop_
_space_group_symop_operation_xyz
x,y,z
-x,y,1/2-z
-x,-y,-z
x,-y,1/2+z
1/2+x,1/2+y,z
1/2-x,1/2+y,1/2-z
1/2-x,1/2-y,-z
1/2+x,1/2-y,1/2+z
loop_
_atom_site_type_symbol
_atom_site_label
_atom_site_fract_x
_atom_site_fract_y
_atom_site_fract_z
Si Si1 0.157819 0.413674 0.802555
Si Si2 0.000000 0.008944 0.250000
Si Si3 0.182602 0.251910 0.282337
O O1 0.128969 0.578927 0.714507
O O2 0.189829 0.298032 0.713673
O O3 0.000000 0.382123 0.750000
O O4 0.331905 0.422949 0.050878
O O5 0.250000 0.250000 0.500000
O O6 0.549200 0.382214 0.670590
#
# Coordination Sequence:
#
# PCOD9293671 Si02
#       3
#     8   4   8
#     4  11  24  48  77 107 155 200 249 315 380 448
#     4  10  22  46  72 112 148 198 250 308 376 458
#     4  10  23  46  77 111 151 198 255 312 378 454
#
# _framework density 28.279859999999999
#
# number of rings (size 3 to 8) (size 9 to 14) (size 15 to 20)
#    0.000    1.600    2.000    1.200    0.000    6.400 
#    3.600    8.000    0.000    9.600    0.000    0.000 
#    0.000    0.000    0.000    0.000    0.000    0.000 
#
# Total GULP energy -56178.715869 kJ/mol
# GULP energy per Si atom -5617.871587 kJ/mol
# Density = 2.821549 g / cm^3
# Si number density = 28.279860 Si / 1000 Ang^3
#
#
#
# Elastic Constant Matrix: (Units=GPa)
#
#
# Indices 1 2 3 4 5 6 
#
# 1 276.7066 110.9677 96.4942 0.0000 50.8401 0.0000
# 2 110.9677 163.1700 73.8572 0.0000 -1.7783 0.0000
# 3 96.4942 73.8572 220.0543 0.0000 19.4552 0.0000
# 4 0.0000 0.0000 0.0000 50.8418 0.0000 -5.1785
# 5 50.8401 -1.7783 19.4552 0.0000 53.1583 0.0000
# 6 0.0000 0.0000 0.0000 -5.1785 0.0000 83.4492
#
#
#
# Elastic Compliance Matrix: (Units=1/GPa)
#
#
# Indices 1 2 3 4 5 6 
#
# 1 0.006833 -0.004259 -0.001009 0.000000 -0.006308 0.000000
# 2 -0.004259 0.009952 -0.001924 0.000000 0.005110 0.000000
# 3 -0.001009 -0.001924 0.005739 0.000000 -0.001200 0.000000
# 4 0.000000 0.000000 0.000000 0.019794 0.000000 0.001228
# 5 -0.006308 0.005110 -0.001200 0.000000 0.025454 0.000000
# 6 0.000000 0.000000 0.000000 0.001228 0.000000 0.012060
#
#
# Mechanical properties :
#
#
# Convention : Reuss Voigt Hill
#
# Bulk Modulus (GPa) = 122.87149 135.84100 129.35624
# Shear Modulus (GPa) = 51.58453 62.73064 57.15759
#
# Velocity S-wave (km/s) = 4.27555 4.71490 4.50059
# Velocity P-wave (km/s) = 8.24115 8.81925 8.53509
#
# Compressibility (1/GPa) = 0.00813858
#
# Stress axis : x y z
#
# Youngs Moduli (GPa) = 146.35594 100.48677 174.25328
#
# Poissons Ratio (x) = 0.42794 0.17584
# Poissons Ratio (y) = 0.62329 0.33533
# Poissons Ratio (z) = 0.14769 0.19338
#
# Static dielectric constant tensor:
#      x y z
#    x 2.122610 0.000000 0.013250 
#    y 0.000000 2.220530 0.000000 
#    z 0.013250 0.000000 2.427290 
# 
# From -- ./inp_files/209411.got.cif
#   From: 2010.05.17/outbox.cif.g08.bks.cpg/sg15_105_cif.got.tgz:209411.got - 2010.06.03 18:47:42.
