data_PCOD9293707
_publ_section_title
;
Structure prediction by ZEFSAII (Michael W. Deem and Ramdas Pophale) SiO2 
 PCOD9293707
Probable space group: C 2/C
;
_chemical_formula_sum "Si O2"
_cell_formula_units_Z 40
_cell_length_a 30.867755
_cell_length_b 8.820182
_cell_length_c 14.935444
_cell_angle_alpha 90.000000
_cell_angle_beta 151.613801
_cell_angle_gamma 90.000000
_cell_volume 1933.174926
_symmetry_space_group_name_H-M "C 2/C"
_symmetry_group_IT_number 15
_symmetry_cell_setting 'monoclinic'
loop_
_space_group_symop_operation_xyz
x,y,z
-x,y,1/2-z
-x,-y,-z
x,-y,1/2+z
1/2+x,1/2+y,z
1/2-x,1/2+y,1/2-z
1/2-x,1/2-y,-z
1/2+x,1/2-y,1/2+z
loop_
_atom_site_type_symbol
_atom_site_label
_atom_site_fract_x
_atom_site_fract_y
_atom_site_fract_z
Si Si1 0.999813 0.767632 0.597374
Si Si2 0.152150 0.729251 0.556125
Si Si3 0.699454 0.320060 0.323169
Si Si4 0.674973 0.320193 0.798537
Si Si5 0.000000 0.478462 0.250000
Si Si6 0.000000 0.978946 0.250000
O O1 0.901176 0.753632 0.373275
O O2 0.017040 0.627237 0.695003
O O3 0.076823 0.786372 0.663173
O O4 0.999928 0.915007 0.662365
O O5 0.239647 0.715191 0.652751
O O6 0.180241 0.748812 0.709834
O O7 0.087288 0.584037 0.425373
O O8 0.088999 0.872662 0.414379
O O9 0.750000 0.250000 0.500000
O O10 0.689438 0.500140 0.316851
O O11 0.750000 0.250000 0.000000
#
# Coordination Sequence:
#
# PCOD9293707 Si02
#       6
#     8   8   8   8   4   4
#     4  11  25  46  72 100 138 186 233 285 345 412
#     4  11  26  45  69 103 141 182 231 290 346 408
#     4  12  28  44  73 103 141 182 237 283 349 410
#     4  12  28  46  72 102 142 184 235 283 348 415
#     4  10  26  44  72  98 142 182 232 290 350 402
#     4  10  22  46  74  94 142 184 236 280 344 410
#
# _framework density 20.69135
#
# number of rings (size 3 to 8) (size 9 to 14) (size 15 to 20)
#    0.000    0.800    2.000    3.000   16.800    0.800 
#    0.000    0.000    0.000    0.000    0.000    0.000 
#    0.000    0.000    0.000    0.000    0.000    0.000 
#
# Total GULP energy -112087.774625 kJ/mol
# GULP energy per Si atom -5604.388731 kJ/mol
# Density = 2.064426 g / cm^3
# Si number density = 20.691350 Si / 1000 Ang^3
#
#
#
# Elastic Constant Matrix: (Units=GPa)
#
#
# Indices 1 2 3 4 5 6 
#
# 1 206.9774 56.5066 103.0995 0.0000 8.3754 0.0000
# 2 56.5066 108.5361 59.6005 0.0000 -11.9020 0.0000
# 3 103.0995 59.6005 179.5481 0.0000 -10.9039 0.0000
# 4 0.0000 0.0000 0.0000 189.1998 0.0000 -34.2303
# 5 8.3754 -11.9020 -10.9039 0.0000 45.5706 0.0000
# 6 0.0000 0.0000 0.0000 -34.2303 0.0000 24.2046
#
#
#
# Elastic Compliance Matrix: (Units=1/GPa)
#
#
# Indices 1 2 3 4 5 6 
#
# 1 0.007361 -0.002108 -0.003696 0.000000 -0.002788 0.000000
# 2 -0.002108 0.012069 -0.002619 0.000000 0.002913 0.000000
# 3 -0.003696 -0.002619 0.008687 0.000000 0.002074 0.000000
# 4 0.000000 0.000000 0.000000 0.007103 0.000000 0.010045
# 5 -0.002788 0.002913 0.002074 0.000000 0.023713 0.000000
# 6 0.000000 0.000000 0.000000 0.010045 0.000000 0.055520
#
#
# Mechanical properties :
#
#
# Convention : Reuss Voigt Hill
#
# Bulk Modulus (GPa) = 88.72807 103.71943 96.22375
# Shear Modulus (GPa) = 37.02169 70.18534 53.60352
#
# Velocity S-wave (km/s) = 4.23452 5.83042 5.09534
# Velocity P-wave (km/s) = 8.17821 9.77552 9.01232
#
# Compressibility (1/GPa) = 0.01127039
#
# Stress axis : x y z
#
# Youngs Moduli (GPa) = 135.85019 82.86004 115.11177
#
# Poissons Ratio (x) = 0.17470 0.42549
# Poissons Ratio (y) = 0.28642 0.30143
# Poissons Ratio (z) = 0.50214 0.21698
#
# Static dielectric constant tensor:
#      x y z
#    x 1.689360 0.000000 -0.002710 
#    y 0.000000 1.726090 0.000000 
#    z -0.002710 0.000000 1.707810 
# 
# From -- ./inp_files/150635.got.cif
#   From: 2010.05.17/outbox.cif.g08.bks.cpg/sg15_76_cif.got.tgz:150635.got - 2010.06.03 18:47:42.
