data_PCOD9293713
_publ_section_title
;
Structure prediction by ZEFSAII (Michael W. Deem and Ramdas Pophale) SiO2 
 PCOD9293713
Probable space group: C 2/C
;
_chemical_formula_sum "Si O2"
_cell_formula_units_Z 40
_cell_length_a 9.191053
_cell_length_b 27.647472
_cell_length_c 9.164682
_cell_angle_alpha 90.000000
_cell_angle_beta 45.129073
_cell_angle_gamma 90.000000
_cell_volume 1650.438156
_symmetry_space_group_name_H-M "C 2/C"
_symmetry_group_IT_number 15
_symmetry_cell_setting 'monoclinic'
loop_
_space_group_symop_operation_xyz
x,y,z
-x,y,1/2-z
-x,-y,-z
x,-y,1/2+z
1/2+x,1/2+y,z
1/2-x,1/2+y,1/2-z
1/2-x,1/2-y,-z
1/2+x,1/2-y,1/2+z
loop_
_atom_site_type_symbol
_atom_site_label
_atom_site_fract_x
_atom_site_fract_y
_atom_site_fract_z
Si Si1 0.289238 0.397007 0.556741
Si Si2 0.451461 0.944464 0.003782
Si Si3 0.249222 0.760613 0.679684
Si Si4 0.000000 0.689849 0.250000
Si Si5 0.383607 0.333340 0.035307
Si Si6 0.000000 0.383414 0.250000
O O1 0.247968 0.434799 0.455969
O O2 0.504000 0.378057 0.466092
O O3 0.146146 0.419900 0.784212
O O4 0.182858 0.347002 0.580965
O O5 0.429243 0.916316 0.168640
O O6 0.500000 0.000000 0.000000
O O7 0.250000 0.750000 0.500000
O O8 0.428053 0.780017 0.660373
O O9 0.248048 0.703996 0.726396
O O10 0.069789 0.798896 0.845721
O O11 0.203689 0.353797 0.057982
#
# Coordination Sequence:
#
# PCOD9293713 Si02
#       6
#     8   8   8   4   8   4
#     4   9  22  45  74  94 149 191 236 291 388 452
#     4  10  22  46  75 108 139 182 235 310 385 465
#     4  11  25  41  69  99 145 193 260 305 364 446
#     4   8  20  41  66  96 132 194 234 305 356 432
#     4  11  28  44  67 102 145 199 250 304 374 424
#     4  12  28  41  74 104 146 182 254 319 372 434
#
# _framework density 24.235989
#
# number of rings (size 3 to 8) (size 9 to 14) (size 15 to 20)
#    0.000    2.000    0.000    1.800   14.000    5.600 
#    0.000    6.000    0.000    0.000    0.000    0.000 
#    0.000    0.000    0.000    0.000    0.000    0.000 
#
# Total GULP energy -111360.559080 kJ/mol
# GULP energy per Si atom -5568.027954 kJ/mol
# Density = 2.418083 g / cm^3
# Si number density = 24.235989 Si / 1000 Ang^3
#
#
#
# Elastic Constant Matrix: (Units=GPa)
#
#
# Indices 1 2 3 4 5 6 
#
# 1 184.1476 74.9976 67.3704 0.0000 -19.3558 0.0000
# 2 74.9976 141.6453 42.9607 0.0000 -0.4519 0.0000
# 3 67.3704 42.9607 100.8630 0.0000 6.0270 0.0000
# 4 0.0000 0.0000 0.0000 2.9390 0.0000 -5.2375
# 5 -19.3558 -0.4519 6.0270 0.0000 41.8551 0.0000
# 6 0.0000 0.0000 0.0000 -5.2375 0.0000 37.4166
#
#
#
# Elastic Compliance Matrix: (Units=1/GPa)
#
#
# Indices 1 2 3 4 5 6 
#
# 1 0.009106 -0.003299 -0.004970 0.000000 0.004891 0.000000
# 2 -0.003299 0.009317 -0.001694 0.000000 -0.001181 0.000000
# 3 -0.004970 -0.001694 0.014216 0.000000 -0.004364 0.000000
# 4 0.000000 0.000000 0.000000 0.453332 0.000000 0.063457
# 5 0.004891 -0.001181 -0.004364 0.000000 0.026769 0.000000
# 6 0.000000 0.000000 0.000000 0.063457 0.000000 0.035609
#
#
# Mechanical properties :
#
#
# Convention : Reuss Voigt Hill
#
# Bulk Modulus (GPa) = 78.65503 88.59033 83.62268
# Shear Modulus (GPa) = 8.73344 32.53063 20.63203
#
# Velocity S-wave (km/s) = 1.90035 3.66764 2.92087
# Velocity P-wave (km/s) = 6.11059 7.38702 6.77892
#
# Compressibility (1/GPa) = 0.01271375
#
# Stress axis : x y z
#
# Youngs Moduli (GPa) = 109.81710 107.33610 70.34189
#
# Poissons Ratio (x) = 0.35405 0.34957
# Poissons Ratio (y) = 0.36224 0.11919
# Poissons Ratio (z) = 0.54575 0.18187
#
# Static dielectric constant tensor:
#      x y z
#    x 2.013890 0.000000 -0.027470 
#    y 0.000000 1.942030 0.000000 
#    z -0.027470 0.000000 2.169500 
# 
# From -- ./inp_files/80475.got.cif
#   From: 2010.05.17/outbox.cif.g08.bks.cpg/sg15_41_cif.got.tgz:80475.got - 2010.06.03 18:47:42.
