data_PCOD9293537
_publ_section_title
;
Structure prediction by ZEFSAII (Michael W. Deem and Ramdas Pophale) SiO2 
 PCOD9293537
Probable space group: C 2/C
;
_chemical_formula_sum "Si O2"
_cell_formula_units_Z 28
_cell_length_a 7.485023
_cell_length_b 9.636739
_cell_length_c 19.473243
_cell_angle_alpha 90.000000
_cell_angle_beta 55.928715
_cell_angle_gamma 90.000000
_cell_volume 1163.511783
_symmetry_space_group_name_H-M "C 2/C"
_symmetry_group_IT_number 15
_symmetry_cell_setting 'monoclinic'
loop_
_space_group_symop_operation_xyz
x,y,z
-x,y,1/2-z
-x,-y,-z
x,-y,1/2+z
1/2+x,1/2+y,z
1/2-x,1/2+y,1/2-z
1/2-x,1/2-y,-z
1/2+x,1/2-y,1/2+z
loop_
_atom_site_type_symbol
_atom_site_label
_atom_site_fract_x
_atom_site_fract_y
_atom_site_fract_z
Si Si1 0.500000 0.791813 0.750000
Si Si2 0.755078 0.141422 0.326620
Si Si3 0.312501 0.865202 0.088930
Si Si4 0.036031 0.850909 0.457941
O O1 0.399717 0.868875 0.706466
O O2 0.306012 0.698726 0.819795
O O3 0.734971 0.290172 0.370093
O O4 0.000000 0.115913 0.250000
O O5 0.659460 0.025165 0.398610
O O6 0.146884 0.852985 0.061527
O O7 0.499361 0.761448 0.026056
O O8 0.000000 0.000000 0.500000
#
# Coordination Sequence:
#
# PCOD9293537 Si02
#       4
#     4   8   8   8
#     4  10  24  44  68 104 146 170 228 300 338 402
#     4  11  24  47  73 103 137 185 233 284 348 412
#     4  10  22  46  67  99 142 178 228 292 336 411
#     4  10  24  45  69 100 142 183 229 284 347 412
#
# _framework density 24.065076999999999
#
# number of rings (size 3 to 8) (size 9 to 14) (size 15 to 20)
#    0.000    1.714    1.429    0.857    4.000    1.143 
#   20.571    0.000    0.000    0.000    0.000    0.000 
#    0.000    0.000    0.000    0.000    0.000    0.000 
#
# Total GULP energy -78158.760979 kJ/mol
# GULP energy per Si atom -5582.768641 kJ/mol
# Density = 2.401030 g / cm^3
# Si number density = 24.065077 Si / 1000 Ang^3
#
#
#
# Elastic Constant Matrix: (Units=GPa)
#
#
# Indices 1 2 3 4 5 6 
#
# 1 54.6767 25.9223 21.9080 0.0000 2.6154 0.0000
# 2 25.9223 150.9808 79.4511 0.0000 4.6627 0.0000
# 3 21.9080 79.4511 123.4895 0.0000 12.8125 0.0000
# 4 0.0000 0.0000 0.0000 45.9323 0.0000 19.1610
# 5 2.6154 4.6627 12.8125 0.0000 27.4413 0.0000
# 6 0.0000 0.0000 0.0000 19.1610 0.0000 30.7251
#
#
#
# Elastic Compliance Matrix: (Units=1/GPa)
#
#
# Indices 1 2 3 4 5 6 
#
# 1 0.020257 -0.002420 -0.001974 0.000000 -0.000598 0.000000
# 2 -0.002420 0.010352 -0.006382 0.000000 0.001451 0.000000
# 3 -0.001974 -0.006382 0.013054 0.000000 -0.004823 0.000000
# 4 0.000000 0.000000 0.000000 0.029427 0.000000 -0.018351
# 5 -0.000598 0.001451 -0.004823 0.000000 0.038503 0.000000
# 6 0.000000 0.000000 0.000000 -0.018351 0.000000 0.043991
#
#
# Mechanical properties :
#
#
# Convention : Reuss Voigt Hill
#
# Bulk Modulus (GPa) = 45.22806 64.85665 55.04235
# Shear Modulus (GPa) = 27.09919 34.27746 30.68832
#
# Velocity S-wave (km/s) = 3.35935 3.77817 3.57490
# Velocity P-wave (km/s) = 5.82081 6.78541 6.32154
#
# Compressibility (1/GPa) = 0.02211017
#
# Stress axis : x y z
#
# Youngs Moduli (GPa) = 49.36677 96.59603 76.60252
#
# Poissons Ratio (x) = 0.23381 0.15124
# Poissons Ratio (y) = 0.11949 0.48886
# Poissons Ratio (z) = 0.09747 0.61645
#
# Static dielectric constant tensor:
#      x y z
#    x 1.894730 0.000000 -0.058830 
#    y 0.000000 2.011300 0.000000 
#    z -0.058830 0.000000 2.027880 
# 
# From -- ./inp_files/131539.got.cif
#   From: 2010.05.17/outbox.cif.g08.bks.cpg/sg15_66_cif.got.tgz:131539.got - 2010.06.03 18:47:42.
