data_PCOD9293918
_publ_section_title
;
Structure prediction by ZEFSAII (Michael W. Deem and Ramdas Pophale) SiO2 
 PCOD9293918
Probable space group: C 2/C
;
_chemical_formula_sum "Si O2"
_cell_formula_units_Z 52
_cell_length_a 23.815533
_cell_length_b 13.008937
_cell_length_c 9.452667
_cell_angle_alpha 90.000000
_cell_angle_beta 54.146773
_cell_angle_gamma 90.000000
_cell_volume 2373.669438
_symmetry_space_group_name_H-M "C 2/C"
_symmetry_group_IT_number 15
_symmetry_cell_setting 'monoclinic'
loop_
_space_group_symop_operation_xyz
x,y,z
-x,y,1/2-z
-x,-y,-z
x,-y,1/2+z
1/2+x,1/2+y,z
1/2-x,1/2+y,1/2-z
1/2-x,1/2-y,-z
1/2+x,1/2-y,1/2+z
loop_
_atom_site_type_symbol
_atom_site_label
_atom_site_fract_x
_atom_site_fract_y
_atom_site_fract_z
Si Si1 0.913062 0.802372 0.617393
Si Si2 0.603548 0.471943 0.435385
Si Si3 0.764121 0.216476 0.245928
Si Si4 0.638048 0.886331 0.400831
Si Si5 0.500000 0.675569 0.250000
Si Si6 0.170542 0.430677 0.040739
Si Si7 0.198412 0.944139 0.037511
O O1 0.828967 0.813534 0.754549
O O2 0.913699 0.710477 0.500827
O O3 0.953637 0.771293 0.698138
O O4 0.932705 0.917265 0.541032
O O5 0.551857 0.394289 0.583815
O O6 0.638702 0.428983 0.241686
O O7 0.663218 0.493991 0.461380
O O8 0.784776 0.335129 0.191966
O O9 0.695835 0.171457 0.419984
O O10 0.773884 0.157140 0.083472
O O11 0.630907 0.988822 0.499915
O O12 0.632705 0.909557 0.242836
O O13 0.239792 0.491436 0.986196
#
# Coordination Sequence:
#
# PCOD9293918 Si02
#       7
#     8   8   8   8   4   8   8
#     4   9  21  36  50  84 115 146 193 247 272 355
#     4  11  20  34  56  87 122 152 187 232 292 358
#     4   9  20  36  51  83 120 147 193 240 270 355
#     4  10  23  36  56  84 117 150 205 238 283 351
#     4  12  20  36  64  84 116 164 188 236 318 334
#     4  12  18  37  59  80 117 167 184 231 298 338
#     4  11  18  34  53  84 123 154 184 227 284 354
#
# _framework density 21.907011000000001
#
# number of rings (size 3 to 8) (size 9 to 14) (size 15 to 20)
#    0.923    0.615    6.154    0.923    0.000    0.615 
#    0.000    0.000    0.000    0.923    0.000    0.000 
#    0.000    0.000    0.000    0.000    0.000    0.000 
#
# Total GULP energy -144892.142824 kJ/mol
# GULP energy per Si atom -5572.774724 kJ/mol
# Density = 2.185715 g / cm^3
# Si number density = 21.907011 Si / 1000 Ang^3
#
#
#
# Elastic Constant Matrix: (Units=GPa)
#
#
# Indices 1 2 3 4 5 6 
#
# 1 51.3146 2.8687 -9.5997 0.0000 12.3467 0.0000
# 2 2.8687 52.2009 18.3648 0.0000 2.9696 0.0000
# 3 -9.5997 18.3648 92.3324 0.0000 14.4028 0.0000
# 4 0.0000 0.0000 0.0000 26.4058 0.0000 15.2878
# 5 12.3467 2.9696 14.4028 0.0000 14.8657 0.0000
# 6 0.0000 0.0000 0.0000 15.2878 0.0000 18.1323
#
#
#
# Elastic Compliance Matrix: (Units=1/GPa)
#
#
# Indices 1 2 3 4 5 6 
#
# 1 0.028835 -0.002770 0.008480 0.000000 -0.031611 0.000000
# 2 -0.002770 0.020864 -0.004885 0.000000 0.002865 0.000000
# 3 0.008480 -0.004885 0.016057 0.000000 -0.021624 0.000000
# 4 0.000000 0.000000 0.000000 0.073985 0.000000 -0.062379
# 5 -0.031611 0.002865 -0.021624 0.000000 0.113902 0.000000
# 6 0.000000 0.000000 0.000000 -0.062379 0.000000 0.107743
#
#
# Mechanical properties :
#
#
# Convention : Reuss Voigt Hill
#
# Bulk Modulus (GPa) = 14.83535 24.34616 19.59076
# Shear Modulus (GPa) = 13.08201 24.16169 18.62185
#
# Velocity S-wave (km/s) = 2.44634 3.32463 2.91871
# Velocity P-wave (km/s) = 3.84267 5.08675 4.50784
#
# Compressibility (1/GPa) = 0.06740655
#
# Stress axis : x y z
#
# Youngs Moduli (GPa) = 34.68049 47.92835 62.27927
#
# Poissons Ratio (x) = 0.13274 -0.52811
# Poissons Ratio (y) = 0.09605 0.30422
# Poissons Ratio (z) = -0.29408 0.23412
#
# Static dielectric constant tensor:
#      x y z
#    x 1.844380 0.000000 0.001910 
#    y 0.000000 1.896480 0.000000 
#    z 0.001910 0.000000 1.790180 
# 
# From -- ./inp_files/69570.got.cif
#   From: 2010.05.17/outbox.cif.g08.bks.cpg/sg15_35_cif.got.tgz:69570.got - 2010.06.03 18:47:42.
