data_PCOD9293736
_publ_section_title
;
Structure prediction by ZEFSAII (Michael W. Deem and Ramdas Pophale) SiO2 
 PCOD9293736
Probable space group: C 2/C
;
_chemical_formula_sum "Si O2"
_cell_formula_units_Z 56
_cell_length_a 28.316934
_cell_length_b 5.273913
_cell_length_c 21.211466
_cell_angle_alpha 90.000000
_cell_angle_beta 118.162234
_cell_angle_gamma 90.000000
_cell_volume 2792.728499
_symmetry_space_group_name_H-M "C 2/C"
_symmetry_group_IT_number 15
_symmetry_cell_setting 'monoclinic'
loop_
_space_group_symop_operation_xyz
x,y,z
-x,y,1/2-z
-x,-y,-z
x,-y,1/2+z
1/2+x,1/2+y,z
1/2-x,1/2+y,1/2-z
1/2-x,1/2-y,-z
1/2+x,1/2-y,1/2+z
loop_
_atom_site_type_symbol
_atom_site_label
_atom_site_fract_x
_atom_site_fract_y
_atom_site_fract_z
Si Si1 0.098899 0.490913 0.781435
Si Si2 0.483528 0.725155 0.354862
Si Si3 0.187307 0.210330 0.167800
Si Si4 0.500000 0.364888 0.250000
Si Si5 0.685603 0.788116 0.745728
Si Si6 0.385464 0.415792 0.996668
Si Si7 0.901563 0.581662 0.580652
Si Si8 0.500000 0.500000 0.500000
O O1 0.069308 0.655606 0.709223
O O2 0.148647 0.350635 0.781808
O O3 0.111496 0.633531 0.854387
O O4 0.052703 0.299260 0.774303
O O5 0.504284 0.529954 0.315457
O O6 0.533781 0.917361 0.390565
O O7 0.474121 0.608966 0.417067
O O8 0.173975 0.987407 0.209332
O O9 0.251478 0.198991 0.198623
O O10 0.174810 0.488509 0.187824
O O11 0.155941 0.147369 0.084659
O O12 0.378352 0.691190 0.023659
O O13 0.444876 0.425615 0.003907
O O14 0.381873 0.191305 0.045369
#
# Coordination Sequence:
#
# PCOD9293736 Si02
#       8
#     8   8   8   4   8   8   8   4
#     4  12  23  38  65  93 123 175 215 263 316 391
#     4  11  23  39  59  89 132 170 210 268 312 391
#     4  10  22  47  61  99 122 168 206 285 317 375
#     4  12  22  40  62  92 136 168 212 264 322 378
#     4  10  24  39  73  90 126 159 227 259 328 379
#     4  11  24  39  62  85 134 161 208 268 322 376
#     4  11  23  40  58  91 125 171 204 256 320 385
#     4  10  24  36  58  92 120 166 214 250 328 378
#
# _framework density 20.052076
#
# number of rings (size 3 to 8) (size 9 to 14) (size 15 to 20)
#    0.000    1.143    2.857    3.429    4.000    2.286 
#    0.000    1.429    0.000    0.000    0.000    0.000 
#    0.000    0.000    0.000    0.000    0.000    0.000 
#
# Total GULP energy -155991.574747 kJ/mol
# GULP energy per Si atom -5571.127670 kJ/mol
# Density = 2.000644 g / cm^3
# Si number density = 20.052076 Si / 1000 Ang^3
#
#
#
# Elastic Constant Matrix: (Units=GPa)
#
#
# Indices 1 2 3 4 5 6 
#
# 1 54.7993 5.3386 -5.8856 0.0006 -16.0998 -0.0001
# 2 5.3386 62.5760 0.6803 0.0021 -0.0559 -0.0034
# 3 -5.8856 0.6803 71.2621 -0.0005 -2.9861 0.0012
# 4 0.0006 0.0021 -0.0005 21.4693 0.0000 4.3106
# 5 -16.0998 -0.0559 -2.9861 0.0000 29.2326 0.0002
# 6 -0.0001 -0.0034 0.0012 4.3106 0.0002 4.6638
#
#
#
# Elastic Compliance Matrix: (Units=1/GPa)
#
#
# Indices 1 2 3 4 5 6 
#
# 1 0.022386 -0.001925 0.002394 0.000000 0.012570 -0.000002
# 2 -0.001925 0.016148 -0.000358 -0.000005 -0.001066 0.000016
# 3 0.002394 -0.000358 0.014350 0.000001 0.002784 -0.000005
# 4 0.000000 -0.000005 0.000001 0.057191 0.000001 -0.052861
# 5 0.012570 -0.001066 0.002784 0.000001 0.041414 -0.000004
# 6 -0.000002 0.000016 -0.000005 -0.052861 -0.000004 0.263276
#
#
# Mechanical properties :
#
#
# Convention : Reuss Voigt Hill
#
# Bulk Modulus (GPa) = 18.82980 20.98934 19.90957
# Shear Modulus (GPa) = 11.56753 23.64010 17.60381
#
# Velocity S-wave (km/s) = 2.40443 3.43729 2.96616
# Velocity P-wave (km/s) = 4.13753 5.12283 4.65632
#
# Compressibility (1/GPa) = 0.05310732
#
# Stress axis : x y z
#
# Youngs Moduli (GPa) = 44.67076 61.92834 69.68404
#
# Poissons Ratio (x) = 0.11919 -0.16682
# Poissons Ratio (y) = 0.08598 0.02493
# Poissons Ratio (z) = -0.10694 0.02216
#
# Static dielectric constant tensor:
#      x y z
#    x 1.678060 0.000000 0.026640 
#    y 0.000000 1.763920 0.000000 
#    z 0.026640 0.000000 1.755360 
# 
# From -- ./inp_files/256622.got.cif
#   From: 2010.05.17/outbox.cif.g08.bks.cpg/sg15_129_cif.got.tgz:256622.got - 2010.06.03 18:47:42.
