data_PCOD9293935
_publ_section_title
;
Structure prediction by ZEFSAII (Michael W. Deem and Ramdas Pophale) SiO2 
 PCOD9293935
Probable space group: C 2/C
;
_chemical_formula_sum "Si O2"
_cell_formula_units_Z 44
_cell_length_a 21.142703
_cell_length_b 20.785683
_cell_length_c 12.716196
_cell_angle_alpha 90.000000
_cell_angle_beta 23.281640
_cell_angle_gamma 90.000000
_cell_volume 2208.793876
_symmetry_space_group_name_H-M "C 2/C"
_symmetry_group_IT_number 15
_symmetry_cell_setting 'monoclinic'
loop_
_space_group_symop_operation_xyz
x,y,z
-x,y,1/2-z
-x,-y,-z
x,-y,1/2+z
1/2+x,1/2+y,z
1/2-x,1/2+y,1/2-z
1/2-x,1/2-y,-z
1/2+x,1/2-y,1/2+z
loop_
_atom_site_type_symbol
_atom_site_label
_atom_site_fract_x
_atom_site_fract_y
_atom_site_fract_z
Si Si1 0.184866 0.107187 0.814252
Si Si2 0.980773 0.192130 0.987825
Si Si3 0.000000 0.987157 0.750000
Si Si4 0.295864 0.405638 0.452092
Si Si5 0.528512 0.844594 0.479102
Si Si6 0.344273 0.803421 0.424746
O O1 0.072416 0.167443 0.952891
O O2 0.236657 0.079742 0.621615
O O3 0.334779 0.129799 0.652532
O O4 0.081392 0.057235 0.038104
O O5 0.072744 0.152090 0.757930
O O6 0.995854 0.268689 0.957602
O O7 0.794470 0.173283 0.284461
O O8 0.130050 0.033489 0.604277
O O9 0.136647 0.380456 0.749342
O O10 0.590769 0.850920 0.264330
O O11 0.500000 0.780292 0.250000
O O12 0.250000 0.750000 0.500000
#
# Coordination Sequence:
#
# PCOD9293935 Si02
#       6
#     8   8   4   8   8   8
#     4  10  24  43  67 100 138 184 225 296 349 417
#     4   9  23  40  69 100 145 168 221 283 362 417
#     4  12  24  46  70  90 140 192 250 278 360 400
#     4  10  25  42  71  99 134 181 234 295 344 416
#     4  11  22  41  71 103 140 176 231 283 371 411
#     4  10  23  36  61  97 145 181 221 263 339 431
#
# _framework density 19.920375
#
# number of rings (size 3 to 8) (size 9 to 14) (size 15 to 20)
#    1.091    0.727    0.000    2.727   12.727    0.727 
#    0.000    0.000    0.000    0.000    0.000    0.000 
#    0.000    0.000    0.000    0.000    0.000    0.000 
#
# Total GULP energy -122735.550223 kJ/mol
# GULP energy per Si atom -5578.888646 kJ/mol
# Density = 1.987504 g / cm^3
# Si number density = 19.920375 Si / 1000 Ang^3
#
#
#
# Elastic Constant Matrix: (Units=GPa)
#
#
# Indices 1 2 3 4 5 6 
#
# 1 101.5170 37.5628 49.9669 -0.0004 -19.4170 -0.0021
# 2 37.5628 80.0777 55.3882 0.0020 0.6442 -0.0015
# 3 49.9669 55.3882 171.0075 0.0000 -15.8182 -0.0021
# 4 -0.0004 0.0020 0.0000 23.2614 0.0020 -5.1222
# 5 -19.4170 0.6442 -15.8182 0.0020 28.0057 0.0026
# 6 -0.0021 -0.0015 -0.0021 -5.1222 0.0026 19.8230
#
#
#
# Elastic Compliance Matrix: (Units=1/GPa)
#
#
# Indices 1 2 3 4 5 6 
#
# 1 0.014548 -0.005877 -0.001479 0.000000 0.009386 0.000000
# 2 -0.005877 0.018798 -0.005052 -0.000001 -0.007361 0.000001
# 3 -0.001479 -0.005052 0.008264 0.000000 0.003758 0.000000
# 4 0.000000 -0.000001 0.000000 0.045583 -0.000004 0.011779
# 5 0.009386 -0.007361 0.003758 -0.000004 0.044507 -0.000006
# 6 0.000000 0.000001 0.000000 0.011779 -0.000006 0.053490
#
#
# Mechanical properties :
#
#
# Convention : Reuss Voigt Hill
#
# Bulk Modulus (GPa) = 59.54471 70.93754 65.24113
# Shear Modulus (GPa) = 23.19047 28.19698 25.69373
#
# Velocity S-wave (km/s) = 3.41568 3.76637 3.59530
# Velocity P-wave (km/s) = 6.74626 7.38931 7.07510
#
# Compressibility (1/GPa) = 0.01679410
#
# Stress axis : x y z
#
# Youngs Moduli (GPa) = 68.73581 53.19610 121.00679
#
# Poissons Ratio (x) = 0.31262 0.17900
# Poissons Ratio (y) = 0.40394 0.61137
# Poissons Ratio (z) = 0.10168 0.26877
#
# Static dielectric constant tensor:
#      x y z
#    x 1.740890 0.000000 0.008560 
#    y 0.000000 1.677050 0.000000 
#    z 0.008560 0.000000 1.724990 
# 
# From -- ./inp_files/174404.got.cif
#   From: 2010.05.17/outbox.cif.g08.bks.cpg/sg15_88_cif.got.tgz:174404.got - 2010.06.03 18:47:42.
