data_PCOD9293968
_publ_section_title
;
Structure prediction by ZEFSAII (Michael W. Deem and Ramdas Pophale) SiO2 
 PCOD9293968
Probable space group: C 2/C
;
_chemical_formula_sum "Si O2"
_cell_formula_units_Z 40
_cell_length_a 5.138625
_cell_length_b 23.586332
_cell_length_c 15.004971
_cell_angle_alpha 90.000000
_cell_angle_beta 90.100526
_cell_angle_gamma 90.000000
_cell_volume 1818.619422
_symmetry_space_group_name_H-M "C 2/C"
_symmetry_group_IT_number 15
_symmetry_cell_setting 'monoclinic'
loop_
_space_group_symop_operation_xyz
x,y,z
-x,y,1/2-z
-x,-y,-z
x,-y,1/2+z
1/2+x,1/2+y,z
1/2-x,1/2+y,1/2-z
1/2-x,1/2-y,-z
1/2+x,1/2-y,1/2+z
loop_
_atom_site_type_symbol
_atom_site_label
_atom_site_fract_x
_atom_site_fract_y
_atom_site_fract_z
Si Si1 0.000000 0.288720 0.750000
Si Si2 0.494152 0.902243 0.502795
Si Si3 0.500000 0.632215 0.250000
Si Si4 0.698246 0.036152 0.167538
Si Si5 0.496783 0.550964 0.927508
Si Si6 0.003472 0.727541 0.051981
O O1 0.252832 0.328266 0.765780
O O2 0.978643 0.256010 0.843518
O O3 0.526736 0.949069 0.580829
O O4 0.716695 0.919557 0.431454
O O5 0.523671 0.840666 0.545692
O O6 0.211404 0.904752 0.460160
O O7 0.401694 0.588439 0.175014
O O8 0.500000 0.035038 0.250000
O O9 0.873535 0.980499 0.156318
O O10 0.500000 0.500000 0.000000
O O11 0.750000 0.750000 0.000000
O O12 0.250000 0.750000 0.000000
#
# Coordination Sequence:
#
# PCOD9293968 Si02
#       6
#     4   8   4   8   8   8
#     4  12  26  44  70 103 138 167 230 306 352 392
#     4  11  23  42  62  94 132 170 224 276 332 398
#     4  12  22  36  66 101 138 169 218 298 342 380
#     4  11  23  35  64  97 135 171 221 268 335 393
#     4  10  23  37  60  90 135 176 204 256 328 407
#     4  12  26  45  75 103 130 180 233 290 357 410
#
# _framework density 21.994706999999998
#
# number of rings (size 3 to 8) (size 9 to 14) (size 15 to 20)
#    0.000    0.800    3.000    4.800   14.000    0.000 
#    0.000    0.000    8.800    0.000    0.000    0.000 
#    0.000    0.000    0.000    0.000    0.000    0.000 
#
# Total GULP energy -111788.186992 kJ/mol
# GULP energy per Si atom -5589.409350 kJ/mol
# Density = 2.194465 g / cm^3
# Si number density = 21.994707 Si / 1000 Ang^3
#
#
#
# Elastic Constant Matrix: (Units=GPa)
#
#
# Indices 1 2 3 4 5 6 
#
# 1 150.5332 18.5294 52.7868 0.0000 -15.8015 0.0000
# 2 18.5294 37.4398 31.2101 0.0000 -5.9261 0.0000
# 3 52.7868 31.2101 136.7196 0.0000 -14.5150 0.0000
# 4 0.0000 0.0000 0.0000 21.1955 0.0000 3.1308
# 5 -15.8015 -5.9261 -14.5150 0.0000 32.3602 0.0000
# 6 0.0000 0.0000 0.0000 3.1308 0.0000 39.5471
#
#
#
# Elastic Compliance Matrix: (Units=1/GPa)
#
#
# Indices 1 2 3 4 5 6 
#
# 1 0.007954 -0.001484 -0.002466 0.000000 0.002506 0.000000
# 2 -0.001484 0.033506 -0.006826 0.000000 0.002349 0.000000
# 3 -0.002466 -0.006826 0.010042 0.000000 0.002050 0.000000
# 4 0.000000 0.000000 0.000000 0.047738 0.000000 -0.003779
# 5 0.002506 0.002349 0.002050 0.000000 0.033476 0.000000
# 6 0.000000 0.000000 0.000000 -0.003779 0.000000 0.025585
#
#
# Mechanical properties :
#
#
# Convention : Reuss Voigt Hill
#
# Bulk Modulus (GPa) = 33.38956 58.86056 46.12506
# Shear Modulus (GPa) = 26.33837 33.43167 29.88502
#
# Velocity S-wave (km/s) = 3.46423 3.90293 3.69010
# Velocity P-wave (km/s) = 5.58702 6.86512 6.25878
#
# Compressibility (1/GPa) = 0.02994949
#
# Stress axis : x y z
#
# Youngs Moduli (GPa) = 125.73076 29.84506 99.57851
#
# Poissons Ratio (x) = 0.04429 0.24556
# Poissons Ratio (y) = 0.18658 0.67976
# Poissons Ratio (z) = 0.31005 0.20373
#
# Static dielectric constant tensor:
#      x y z
#    x 1.850840 0.000000 -0.005440 
#    y 0.000000 1.785930 0.000000 
#    z -0.005440 0.000000 1.876570 
# 
# From -- ./inp_files/129133.got.cif
#   From: 2010.05.17/outbox.cif.g08.bks.cpg/sg15_65_cif.got.tgz:129133.got - 2010.06.03 18:47:42.
