data_PCOD9293113
_publ_section_title
;
Structure prediction by ZEFSAII (Michael W. Deem and Ramdas Pophale) SiO2 
 PCOD9293113
Probable space group: C 2/C
;
_chemical_formula_sum "Si O2"
_cell_formula_units_Z 40
_cell_length_a 12.233680
_cell_length_b 8.492179
_cell_length_c 16.975239
_cell_angle_alpha 90.000000
_cell_angle_beta 76.758894
_cell_angle_gamma 90.000000
_cell_volume 1716.683014
_symmetry_space_group_name_H-M "C 2/C"
_symmetry_group_IT_number 15
_symmetry_cell_setting 'monoclinic'
loop_
_space_group_symop_operation_xyz
x,y,z
-x,y,1/2-z
-x,-y,-z
x,-y,1/2+z
1/2+x,1/2+y,z
1/2-x,1/2+y,1/2-z
1/2-x,1/2-y,-z
1/2+x,1/2-y,1/2+z
loop_
_atom_site_type_symbol
_atom_site_label
_atom_site_fract_x
_atom_site_fract_y
_atom_site_fract_z
Si Si1 0.243351 0.370984 0.927934
Si Si2 0.028028 0.058263 0.582842
Si Si3 0.146428 0.632046 0.034076
Si Si4 0.625953 0.051992 0.210388
Si Si5 0.177528 0.152333 0.792675
O O1 0.362352 0.464564 0.905232
O O2 0.214052 0.270880 0.856445
O O3 0.250000 0.250000 0.000000
O O4 0.150053 0.503879 0.964596
O O5 0.047495 0.245564 0.567172
O O6 0.922666 0.043857 0.658250
O O7 0.000000 0.000000 0.500000
O O8 0.158918 0.537803 0.113610
O O9 0.250000 0.750000 0.000000
O O10 0.500000 0.001655 0.250000
O O11 0.637585 0.235989 0.229382
O O12 0.715057 0.951776 0.244638
#
# Coordination Sequence:
#
# PCOD9293113 Si02
#       5
#     8   8   8   8   8
#     4  11  22  44  71 103 135 179 244 286 344 425
#     4  11  22  43  71 104 138 179 235 293 349 417
#     4  10  22  44  73  98 141 183 234 293 341 423
#     4  12  27  48  67 104 144 183 235 290 362 423
#     4  12  27  45  69 102 142 187 230 296 356 420
#
# _framework density 23.300747000000001
#
# number of rings (size 3 to 8) (size 9 to 14) (size 15 to 20)
#    0.000    0.800    6.000    1.200    5.600    2.400 
#    3.600    0.000    0.000    0.000    0.000    0.000 
#    0.000    0.000    0.000    0.000    0.000    0.000 
#
# Total GULP energy -111928.358293 kJ/mol
# GULP energy per Si atom -5596.417915 kJ/mol
# Density = 2.324771 g / cm^3
# Si number density = 23.300747 Si / 1000 Ang^3
#
#
#
# Elastic Constant Matrix: (Units=GPa)
#
#
# Indices 1 2 3 4 5 6 
#
# 1 122.2270 29.2303 17.1905 0.0000 -35.9298 0.0000
# 2 29.2303 84.7440 13.3739 0.0000 -10.5717 0.0000
# 3 17.1905 13.3739 74.3690 0.0000 -8.3986 0.0000
# 4 0.0000 0.0000 0.0000 56.9040 0.0000 8.4013
# 5 -35.9298 -10.5717 -8.3986 0.0000 36.2377 0.0000
# 6 0.0000 0.0000 0.0000 8.4013 0.0000 51.5934
#
#
#
# Elastic Compliance Matrix: (Units=1/GPa)
#
#
# Indices 1 2 3 4 5 6 
#
# 1 0.012236 -0.002663 -0.001096 0.000000 0.011101 0.000000
# 2 -0.002663 0.013078 -0.001647 0.000000 0.000793 0.000000
# 3 -0.001096 -0.001647 0.014190 0.000000 0.001722 0.000000
# 4 0.000000 0.000000 0.000000 0.018006 0.000000 -0.002932
# 5 0.011101 0.000793 0.001722 0.000000 0.039233 0.000000
# 6 0.000000 0.000000 0.000000 -0.002932 0.000000 0.019860
#
#
# Mechanical properties :
#
#
# Convention : Reuss Voigt Hill
#
# Bulk Modulus (GPa) = 34.85144 44.54774 39.69959
# Shear Modulus (GPa) = 36.50250 43.71668 40.10959
#
# Velocity S-wave (km/s) = 3.96230 4.33620 4.15346
# Velocity P-wave (km/s) = 5.99356 6.65059 6.33060
#
# Compressibility (1/GPa) = 0.02869322
#
# Stress axis : x y z
#
# Youngs Moduli (GPa) = 81.72885 76.46718 70.47048
#
# Poissons Ratio (x) = 0.20360 0.07722
# Poissons Ratio (y) = 0.21761 0.11604
# Poissons Ratio (z) = 0.08956 0.12592
#
# Static dielectric constant tensor:
#      x y z
#    x 1.899580 0.000000 0.005760 
#    y 0.000000 1.871920 0.000000 
#    z 0.005760 0.000000 1.882870 
# 
# From -- ./inp_files/150793.got.cif
#   From: 2010.05.17/outbox.cif.g08.bks.cpg/sg15_76_cif.got.tgz:150793.got - 2010.06.03 18:47:42.
