data_PCOD9293486
_publ_section_title
;
Structure prediction by ZEFSAII (Michael W. Deem and Ramdas Pophale) SiO2 
 PCOD9293486
Probable space group: C 2/C
;
_chemical_formula_sum "Si O2"
_cell_formula_units_Z 44
_cell_length_a 11.125656
_cell_length_b 15.034530
_cell_length_c 20.751902
_cell_angle_alpha 90.000000
_cell_angle_beta 141.406685
_cell_angle_gamma 90.000000
_cell_volume 2165.263184
_symmetry_space_group_name_H-M "C 2/C"
_symmetry_group_IT_number 15
_symmetry_cell_setting 'monoclinic'
loop_
_space_group_symop_operation_xyz
x,y,z
-x,y,1/2-z
-x,-y,-z
x,-y,1/2+z
1/2+x,1/2+y,z
1/2-x,1/2+y,1/2-z
1/2-x,1/2-y,-z
1/2+x,1/2-y,1/2+z
loop_
_atom_site_type_symbol
_atom_site_label
_atom_site_fract_x
_atom_site_fract_y
_atom_site_fract_z
Si Si1 0.728446 0.458019 0.269614
Si Si2 0.400150 0.514110 0.526363
Si Si3 0.983175 0.405115 0.665002
Si Si4 0.910893 0.175811 0.075440
Si Si5 0.185348 0.244988 0.779804
Si Si6 0.000000 0.092810 0.250000
O O1 0.553271 0.462640 0.145295
O O2 0.753411 0.354541 0.293786
O O3 0.670229 0.522497 0.304544
O O4 0.906203 0.508308 0.312523
O O5 0.500000 0.500000 0.500000
O O6 0.233407 0.586139 0.449396
O O7 0.326167 0.416286 0.513475
O O8 0.000000 0.406592 0.750000
O O9 0.086763 0.313438 0.687517
O O10 0.111495 0.202613 0.122957
O O11 0.962284 0.153350 0.171575
O O12 0.750000 0.250000 0.000000
O O13 0.000000 0.231541 0.750000
#
# Coordination Sequence:
#
# PCOD9293486 Si02
#       6
#     8   8   8   8   8   4
#     4  11  22  42  64  92 133 170 211 275 334 388
#     4  11  21  40  64  93 129 166 219 268 325 393
#     4  11  21  41  65  91 129 170 214 273 323 385
#     4  11  24  45  68  97 130 177 225 269 329 407
#     4  11  22  41  66  93 128 168 218 273 331 384
#     4  10  22  46  64  90 140 166 214 276 334 392
#
# _framework density 20.320855000000002
#
# number of rings (size 3 to 8) (size 9 to 14) (size 15 to 20)
#    0.000    1.091    6.364    2.182    0.000    2.182 
#    6.545    2.727    0.000    0.000    0.000    0.000 
#    0.000    0.000    0.000    0.000    0.000    0.000 
#
# Total GULP energy -122525.189649 kJ/mol
# GULP energy per Si atom -5569.326802 kJ/mol
# Density = 2.027460 g / cm^3
# Si number density = 20.320855 Si / 1000 Ang^3
#
#
#
# Elastic Constant Matrix: (Units=GPa)
#
#
# Indices 1 2 3 4 5 6 
#
# 1 63.7211 17.9596 12.4635 0.0000 -0.7635 0.0000
# 2 17.9596 119.5250 10.2917 -0.0001 -2.8629 -0.0001
# 3 12.4635 10.2917 42.1401 -0.0001 11.0674 -0.0002
# 4 0.0000 -0.0001 -0.0001 29.1114 0.0000 8.5196
# 5 -0.7635 -2.8629 11.0674 0.0000 29.6534 -0.0001
# 6 0.0000 -0.0001 -0.0002 8.5196 -0.0001 13.1295
#
#
#
# Elastic Compliance Matrix: (Units=1/GPa)
#
#
# Indices 1 2 3 4 5 6 
#
# 1 0.017326 -0.002105 -0.005182 0.000000 0.002177 0.000000
# 2 -0.002105 0.008887 -0.001950 0.000000 0.001532 0.000000
# 3 -0.005182 -0.001950 0.028630 0.000000 -0.011007 0.000000
# 4 0.000000 0.000000 0.000000 0.042403 0.000000 -0.027515
# 5 0.002177 0.001532 -0.011007 0.000000 0.038035 0.000000
# 6 0.000000 0.000000 0.000000 -0.027515 0.000000 0.094019
#
#
# Mechanical properties :
#
#
# Convention : Reuss Voigt Hill
#
# Bulk Modulus (GPa) = 27.49585 34.09063 30.79324
# Shear Modulus (GPa) = 19.23822 26.69027 22.96425
#
# Velocity S-wave (km/s) = 3.08022 3.62808 3.36532
# Velocity P-wave (km/s) = 5.11963 5.86201 5.50335
#
# Compressibility (1/GPa) = 0.03636912
#
# Stress axis : x y z
#
# Youngs Moduli (GPa) = 57.71552 112.51929 34.92818
#
# Poissons Ratio (x) = 0.23686 0.18100
# Poissons Ratio (y) = 0.12150 0.06812
# Poissons Ratio (z) = 0.29909 0.21943
#
# Static dielectric constant tensor:
#      x y z
#    x 1.788410 0.000000 -0.001680 
#    y 0.000000 1.865460 0.000000 
#    z -0.001680 0.000000 1.672570 
# 
# From -- ./inp_files/143899.got.cif
#   From: 2010.05.17/outbox.cif.g08.bks.cpg/sg15_72_cif.got.tgz:143899.got - 2010.06.03 18:47:42.
