data_PCOD9293445
_publ_section_title
;
Structure prediction by ZEFSAII (Michael W. Deem and Ramdas Pophale) SiO2 
 PCOD9293445
Probable space group: C 2/C
;
_chemical_formula_sum "Si O2"
_cell_formula_units_Z 40
_cell_length_a 25.868778
_cell_length_b 6.617139
_cell_length_c 28.568013
_cell_angle_alpha 90.000000
_cell_angle_beta 21.194659
_cell_angle_gamma 90.000000
_cell_volume 1767.989771
_symmetry_space_group_name_H-M "C 2/C"
_symmetry_group_IT_number 15
_symmetry_cell_setting 'monoclinic'
loop_
_space_group_symop_operation_xyz
x,y,z
-x,y,1/2-z
-x,-y,-z
x,-y,1/2+z
1/2+x,1/2+y,z
1/2-x,1/2+y,1/2-z
1/2-x,1/2-y,-z
1/2+x,1/2-y,1/2+z
loop_
_atom_site_type_symbol
_atom_site_label
_atom_site_fract_x
_atom_site_fract_y
_atom_site_fract_z
Si Si1 0.339949 0.245334 0.971130
Si Si2 0.584632 0.599009 0.385202
Si Si3 0.138127 0.576660 0.452828
Si Si4 0.845665 0.392442 0.294923
Si Si5 0.694400 0.253895 0.236558
O O1 0.262724 0.414644 0.069291
O O2 0.250000 0.250000 0.000000
O O3 0.507830 0.225921 0.816851
O O4 0.329209 0.064532 0.019030
O O5 0.500000 0.500000 0.500000
O O6 0.507577 0.804749 0.433742
O O7 0.587107 0.427754 0.343359
O O8 0.743071 0.642577 0.270850
O O9 0.255326 0.742790 0.337996
O O10 0.169513 0.370839 0.400703
O O11 0.866324 0.399841 0.750177
#
# Coordination Sequence:
#
# PCOD9293445 Si02
#       5
#     8   8   8   8   8
#     4  10  22  45  76 103 141 184 240 304 367 424
#     4  12  24  41  67 100 143 193 242 298 356 435
#     4  10  24  42  68  98 144 190 235 300 362 427
#     4  10  24  43  73 103 144 189 233 304 362 436
#     4  12  26  43  68 104 147 192 247 293 372 438
#
# _framework density 22.624566000000002
#
# number of rings (size 3 to 8) (size 9 to 14) (size 15 to 20)
#    1.200    0.000    2.000    3.600    5.600    0.000 
#    0.000    1.000    8.800    0.000    0.000    0.000 
#    0.000    0.000    0.000    0.000    0.000    0.000 
#
# Total GULP energy -111457.003601 kJ/mol
# GULP energy per Si atom -5572.850180 kJ/mol
# Density = 2.257307 g / cm^3
# Si number density = 22.624566 Si / 1000 Ang^3
#
#
#
# Elastic Constant Matrix: (Units=GPa)
#
#
# Indices 1 2 3 4 5 6 
#
# 1 133.3853 46.9096 41.3780 -0.0128 -3.6716 -0.0022
# 2 46.9096 84.4236 46.7364 -0.0382 4.6967 0.0125
# 3 41.3780 46.7364 106.7204 -0.0226 -14.1172 0.0114
# 4 -0.0128 -0.0382 -0.0226 53.0538 0.0147 2.0908
# 5 -3.6716 4.6967 -14.1172 0.0147 41.7298 -0.0046
# 6 -0.0022 0.0125 0.0114 2.0908 -0.0046 17.2894
#
#
#
# Elastic Compliance Matrix: (Units=1/GPa)
#
#
# Indices 1 2 3 4 5 6 
#
# 1 0.009603 -0.004456 -0.001669 -0.000002 0.000782 0.000006
# 2 -0.004456 0.018464 -0.006998 0.000011 -0.004838 -0.000012
# 3 -0.001669 -0.006998 0.013784 -0.000001 0.005304 -0.000003
# 4 -0.000002 0.000011 -0.000001 0.018939 -0.000009 -0.002290
# 5 0.000782 -0.004838 0.005304 -0.000009 0.026371 0.000008
# 6 0.000006 -0.000012 -0.000003 -0.002290 0.000008 0.058116
#
#
# Mechanical properties :
#
#
# Convention : Reuss Voigt Hill
#
# Bulk Modulus (GPa) = 64.07987 66.06416 65.07202
# Shear Modulus (GPa) = 28.29250 35.04828 31.67039
#
# Velocity S-wave (km/s) = 3.54011 3.94016 3.74548
# Velocity P-wave (km/s) = 6.71524 7.06848 6.89412
#
# Compressibility (1/GPa) = 0.01560552
#
# Stress axis : x y z
#
# Youngs Moduli (GPa) = 104.13117 54.15851 72.54926
#
# Poissons Ratio (x) = 0.24132 0.12106
# Poissons Ratio (y) = 0.46398 0.50773
# Poissons Ratio (z) = 0.17376 0.37903
#
# Static dielectric constant tensor:
#      x y z
#    x 1.804740 -0.000010 0.033940 
#    y -0.000010 1.850900 0.000050 
#    z 0.033940 0.000050 2.029500 
# 
# From -- ./inp_files/303070.got.cif
#   From: 2010.05.17/outbox.cif.g08.bks.cpg/sg15_152_cif.got.tgz:303070.got - 2010.06.03 18:47:42.
