data_PCOD9293546
_publ_section_title
;
Structure prediction by ZEFSAII (Michael W. Deem and Ramdas Pophale) SiO2 
 PCOD9293546
Probable space group: C 2/C
;
_chemical_formula_sum "Si O2"
_cell_formula_units_Z 56
_cell_length_a 10.290529
_cell_length_b 19.132397
_cell_length_c 11.850839
_cell_angle_alpha 90.000000
_cell_angle_beta 92.732302
_cell_angle_gamma 90.000000
_cell_volume 2330.570142
_symmetry_space_group_name_H-M "C 2/C"
_symmetry_group_IT_number 15
_symmetry_cell_setting 'monoclinic'
loop_
_space_group_symop_operation_xyz
x,y,z
-x,y,1/2-z
-x,-y,-z
x,-y,1/2+z
1/2+x,1/2+y,z
1/2-x,1/2+y,1/2-z
1/2-x,1/2-y,-z
1/2+x,1/2-y,1/2+z
loop_
_atom_site_type_symbol
_atom_site_label
_atom_site_fract_x
_atom_site_fract_y
_atom_site_fract_z
Si Si1 0.551958 0.333347 0.360578
Si Si2 0.233645 0.092835 0.162343
Si Si3 0.500000 0.327674 0.750000
Si Si4 0.617330 0.456651 0.060426
Si Si5 0.955780 0.264282 0.052517
Si Si6 0.664834 0.878154 0.075854
Si Si7 0.500000 0.000000 0.500000
Si Si8 0.322540 0.119690 0.412844
O O1 0.500000 0.292191 0.250000
O O2 0.453412 0.398703 0.368088
O O3 0.531183 0.285895 0.468954
O O4 0.698570 0.361515 0.357764
O O5 0.309502 0.112471 0.278534
O O6 0.091807 0.123915 0.179348
O O7 0.213320 0.010662 0.129986
O O8 0.295587 0.126947 0.054834
O O9 0.416210 0.280856 0.659935
O O10 0.500000 0.500000 0.000000
O O11 0.699935 0.417003 0.968589
O O12 0.849886 0.306727 0.975710
O O13 0.060087 0.320146 0.103432
O O14 0.607446 0.955961 0.086517
O O15 0.554310 0.926522 0.545917
#
# Coordination Sequence:
#
# PCOD9293546 Si02
#       8
#     8   8   4   8   8   8   4   8
#     4  12  27  43  72 108 147 190 251 312 372 451
#     4  12  25  43  79 100 146 199 240 309 378 440
#     4  12  26  48  76 104 146 200 240 312 370 450
#     4  12  24  45  67 107 144 185 251 311 373 440
#     4  11  27  49  72 109 150 198 252 302 381 451
#     4  11  24  48  73 105 146 197 248 306 372 452
#     4  10  22  46  68 102 144 182 246 298 364 438
#     4  11  26  45  72 106 148 191 249 307 372 454
#
# _framework density 24.028454
#
# number of rings (size 3 to 8) (size 9 to 14) (size 15 to 20)
#    0.000    0.571    4.286    2.143    7.000    5.143 
#    2.571    0.000    0.000    0.000    0.000    0.000 
#    0.000    0.000    0.000    0.000    0.000    0.000 
#
# Total GULP energy -156199.524060 kJ/mol
# GULP energy per Si atom -5578.554431 kJ/mol
# Density = 2.397376 g / cm^3
# Si number density = 24.028454 Si / 1000 Ang^3
#
#
#
# Elastic Constant Matrix: (Units=GPa)
#
#
# Indices 1 2 3 4 5 6 
#
# 1 66.5906 2.0341 5.0094 0.0000 17.7789 0.0000
# 2 2.0341 92.3147 13.2711 0.0000 6.4644 0.0000
# 3 5.0094 13.2711 49.4800 0.0000 17.2348 0.0000
# 4 0.0000 0.0000 0.0000 21.8683 0.0000 -0.7671
# 5 17.7789 6.4644 17.2348 0.0000 41.0604 0.0000
# 6 0.0000 0.0000 0.0000 -0.7671 0.0000 39.8714
#
#
#
# Elastic Compliance Matrix: (Units=1/GPa)
#
#
# Indices 1 2 3 4 5 6 
#
# 1 0.017021 0.000029 0.000981 0.000000 -0.007787 0.000000
# 2 0.000029 0.011279 -0.002817 0.000000 -0.000606 0.000000
# 3 0.000981 -0.002817 0.024432 0.000000 -0.010236 0.000000
# 4 0.000000 0.000000 0.000000 0.045759 0.000000 0.000880
# 5 -0.007787 -0.000606 -0.010236 0.000000 0.032118 0.000000
# 6 0.000000 0.000000 0.000000 0.000880 0.000000 0.025098
#
#
# Mechanical properties :
#
#
# Convention : Reuss Voigt Hill
#
# Bulk Modulus (GPa) = 20.35875 27.66827 24.01351
# Shear Modulus (GPa) = 28.45856 33.09806 30.77831
#
# Velocity S-wave (km/s) = 3.44520 3.71543 3.58286
# Velocity P-wave (km/s) = 4.93123 5.47227 5.20878
#
# Compressibility (1/GPa) = 0.04911893
#
# Stress axis : x y z
#
# Youngs Moduli (GPa) = 58.74974 88.65806 40.92994
#
# Poissons Ratio (x) = -0.00259 -0.04016
# Poissons Ratio (y) = -0.00171 0.11530
# Poissons Ratio (z) = -0.05764 0.24976
#
# Static dielectric constant tensor:
#      x y z
#    x 1.945910 0.000000 0.008790 
#    y 0.000000 1.902660 0.000000 
#    z 0.008790 0.000000 1.961230 
# 
# From -- ./inp_files/89012.got.cif
#   From: 2010.05.17/outbox.cif.g08.bks.cpg/sg15_45_cif.got.tgz:89012.got - 2010.06.03 18:47:42.
