data_PCOD9293154
_publ_section_title
;
Structure prediction by ZEFSAII (Michael W. Deem and Ramdas Pophale) SiO2 
 PCOD9293154
Probable space group: C 2/C
;
_chemical_formula_sum "Si O2"
_cell_formula_units_Z 40
_cell_length_a 9.410960
_cell_length_b 10.735914
_cell_length_c 18.888792
_cell_angle_alpha 90.000000
_cell_angle_beta 73.756822
_cell_angle_gamma 90.000000
_cell_volume 1832.255316
_symmetry_space_group_name_H-M "C 2/C"
_symmetry_group_IT_number 15
_symmetry_cell_setting 'monoclinic'
loop_
_space_group_symop_operation_xyz
x,y,z
-x,y,1/2-z
-x,-y,-z
x,-y,1/2+z
1/2+x,1/2+y,z
1/2-x,1/2+y,1/2-z
1/2-x,1/2-y,-z
1/2+x,1/2-y,1/2+z
loop_
_atom_site_type_symbol
_atom_site_label
_atom_site_fract_x
_atom_site_fract_y
_atom_site_fract_z
Si Si1 0.246286 0.607320 0.025147
Si Si2 0.972720 0.065579 0.606347
Si Si3 0.057380 0.210354 0.321818
Si Si4 0.314810 0.143946 0.940790
Si Si5 0.380188 0.778402 0.819019
O O1 0.159603 0.481344 0.016727
O O2 0.176800 0.629436 0.112318
O O3 0.250000 0.750000 0.000000
O O4 0.408941 0.571243 0.974257
O O5 0.815251 0.111590 0.597749
O O6 0.039521 0.160326 0.655589
O O7 0.960091 0.927551 0.641073
O O8 0.227975 0.253506 0.300388
O O9 0.000000 0.206557 0.250000
O O10 0.959133 0.303881 0.382346
O O11 0.250000 0.250000 0.000000
O O12 0.500000 0.836879 0.750000
#
# Coordination Sequence:
#
# PCOD9293154 Si02
#       5
#     8   8   8   8   8
#     4  10  22  44  75 104 142 189 235 297 369 426
#     4  11  23  48  72 103 150 190 232 310 369 428
#     4  12  26  45  73 106 143 196 247 298 370 441
#     4  12  23  44  77 109 144 187 245 299 360 441
#     4  11  24  47  68  99 148 189 236 302 364 430
#
# _framework density 21.831019000000001
#
# number of rings (size 3 to 8) (size 9 to 14) (size 15 to 20)
#    0.000    0.800    4.000    3.600    0.000    0.800 
#   14.400    6.000    0.000    0.000    0.000    0.000 
#    0.000    0.000    0.000    0.000    0.000    0.000 
#
# Total GULP energy -111459.791037 kJ/mol
# GULP energy per Si atom -5572.989552 kJ/mol
# Density = 2.178133 g / cm^3
# Si number density = 21.831019 Si / 1000 Ang^3
#
#
#
# Elastic Constant Matrix: (Units=GPa)
#
#
# Indices 1 2 3 4 5 6 
#
# 1 132.5994 35.4348 39.1423 0.0000 -9.5546 0.0000
# 2 35.4348 149.4557 26.3212 0.0000 13.8925 0.0000
# 3 39.1423 26.3212 121.9494 0.0000 -30.5080 0.0000
# 4 0.0000 0.0000 0.0000 22.4327 0.0000 1.5638
# 5 -9.5546 13.8925 -30.5080 0.0000 25.8542 0.0000
# 6 0.0000 0.0000 0.0000 1.5638 0.0000 31.5185
#
#
#
# Elastic Compliance Matrix: (Units=1/GPa)
#
#
# Indices 1 2 3 4 5 6 
#
# 1 0.008763 -0.001939 -0.001878 0.000000 0.002064 0.000000
# 2 -0.001939 0.008710 -0.003700 0.000000 -0.009762 0.000000
# 3 -0.001878 -0.003700 0.014082 0.000000 0.017911 0.000000
# 4 0.000000 0.000000 0.000000 0.044732 0.000000 -0.002219
# 5 0.002064 -0.009762 0.017911 0.000000 0.065822 0.000000
# 6 0.000000 0.000000 0.000000 -0.002219 0.000000 0.031838
#
#
# Mechanical properties :
#
#
# Convention : Reuss Voigt Hill
#
# Bulk Modulus (GPa) = 60.52527 67.31123 63.91825
# Shear Modulus (GPa) = 25.70872 36.16816 30.93844
#
# Velocity S-wave (km/s) = 3.43537 4.07471 3.76863
# Velocity P-wave (km/s) = 6.59700 7.28268 6.94830
#
# Compressibility (1/GPa) = 0.01652203
#
# Stress axis : x y z
#
# Youngs Moduli (GPa) = 114.12097 114.81522 71.01175
#
# Poissons Ratio (x) = 0.22260 0.13333
# Poissons Ratio (y) = 0.22125 0.26273
# Poissons Ratio (z) = 0.21428 0.42479
#
# Static dielectric constant tensor:
#      x y z
#    x 1.815970 0.000000 0.074420 
#    y 0.000000 1.767740 0.000000 
#    z 0.074420 0.000000 1.818570 
# 
# From -- ./inp_files/229791.got.cif
#   From: 2010.05.17/outbox.cif.g08.bks.cpg/sg15_115_cif.got.tgz:229791.got - 2010.06.03 18:47:42.
