data_PCOD9293490
_publ_section_title
;
Structure prediction by ZEFSAII (Michael W. Deem and Ramdas Pophale) SiO2 
 PCOD9293490
Probable space group: C 2/C
;
_chemical_formula_sum "Si O2"
_cell_formula_units_Z 56
_cell_length_a 12.561829
_cell_length_b 25.000524
_cell_length_c 11.520223
_cell_angle_alpha 90.000000
_cell_angle_beta 47.181903
_cell_angle_gamma 90.000000
_cell_volume 2653.823326
_symmetry_space_group_name_H-M "C 2/C"
_symmetry_group_IT_number 15
_symmetry_cell_setting 'monoclinic'
loop_
_space_group_symop_operation_xyz
x,y,z
-x,y,1/2-z
-x,-y,-z
x,-y,1/2+z
1/2+x,1/2+y,z
1/2-x,1/2+y,1/2-z
1/2-x,1/2-y,-z
1/2+x,1/2-y,1/2+z
loop_
_atom_site_type_symbol
_atom_site_label
_atom_site_fract_x
_atom_site_fract_y
_atom_site_fract_z
Si Si1 0.083542 0.628156 0.443617
Si Si2 0.668482 0.065052 0.582726
Si Si3 0.659674 0.359688 0.127480
Si Si4 0.334431 0.319895 0.618198
Si Si5 0.604278 0.216136 0.777714
Si Si6 0.345636 0.359180 0.098758
Si Si7 0.892089 0.552503 0.436700
O O1 0.190566 0.605973 0.461906
O O2 0.184195 0.652618 0.268798
O O3 0.984814 0.672961 0.578377
O O4 0.985297 0.577542 0.474058
O O5 0.500000 0.071472 0.750000
O O6 0.776906 0.084860 0.604073
O O7 0.677229 0.006381 0.519030
O O8 0.500000 0.383746 0.250000
O O9 0.686599 0.347093 0.241278
O O10 0.662027 0.315172 0.025062
O O11 0.769501 0.404406 0.007198
O O12 0.349472 0.264666 0.674996
O O13 0.481556 0.352968 0.542449
O O14 0.500000 0.233279 0.750000
O O15 0.745691 0.187216 0.617836
O O16 0.000000 0.552451 0.250000
#
# Coordination Sequence:
#
# PCOD9293490 Si02
#       7
#     8   8   8   8   8   8   8
#     4  12  22  43  67  98 136 167 224 276 320 402
#     4  11  22  41  69  99 127 174 219 269 339 392
#     4  10  22  46  64  92 138 173 217 271 332 396
#     4  11  27  39  64 102 131 178 221 273 331 384
#     4  12  24  43  69  96 135 180 220 269 335 397
#     4  11  22  45  66  92 139 174 217 275 328 398
#     4  11  22  41  71  96 127 169 225 276 321 393
#
# _framework density 21.101631000000001
#
# number of rings (size 3 to 8) (size 9 to 14) (size 15 to 20)
#    0.000    0.857    5.714    1.286    2.000    2.857 
#    2.571    3.571    0.000    0.000    0.000    0.000 
#    0.000    0.000    0.000    0.000    0.000    0.000 
#
# Total GULP energy -156113.021667 kJ/mol
# GULP energy per Si atom -5575.465060 kJ/mol
# Density = 2.105360 g / cm^3
# Si number density = 21.101631 Si / 1000 Ang^3
#
#
#
# Elastic Constant Matrix: (Units=GPa)
#
#
# Indices 1 2 3 4 5 6 
#
# 1 102.5965 42.4148 11.0563 0.0000 10.1798 0.0000
# 2 42.4148 93.9521 11.0485 0.0000 7.6710 0.0000
# 3 11.0563 11.0485 45.9421 0.0000 -1.9134 0.0000
# 4 0.0000 0.0000 0.0000 25.8519 0.0000 13.4578
# 5 10.1798 7.6710 -1.9134 0.0000 37.2044 0.0000
# 6 0.0000 0.0000 0.0000 13.4578 0.0000 19.7613
#
#
#
# Elastic Compliance Matrix: (Units=1/GPa)
#
#
# Indices 1 2 3 4 5 6 
#
# 1 0.012309 -0.005146 -0.001825 0.000000 -0.002401 0.000000
# 2 -0.005146 0.013323 -0.002026 0.000000 -0.001443 0.000000
# 3 -0.001825 -0.002026 0.022780 0.000000 0.002088 0.000000
# 4 0.000000 0.000000 0.000000 0.059927 0.000000 -0.040811
# 5 -0.002401 -0.001443 0.002088 0.000000 0.027940 0.000000
# 6 0.000000 0.000000 0.000000 -0.040811 0.000000 0.078397
#
#
# Mechanical properties :
#
#
# Convention : Reuss Voigt Hill
#
# Bulk Modulus (GPa) = 32.87443 41.28110 37.07776
# Shear Modulus (GPa) = 20.59221 28.42827 24.51024
#
# Velocity S-wave (km/s) = 3.12726 3.67441 3.41182
# Velocity P-wave (km/s) = 5.35281 6.13247 5.75586
#
# Compressibility (1/GPa) = 0.03041878
#
# Stress axis : x y z
#
# Youngs Moduli (GPa) = 81.23873 75.05741 43.89860
#
# Poissons Ratio (x) = 0.38628 0.08010
# Poissons Ratio (y) = 0.41810 0.08892
# Poissons Ratio (z) = 0.14823 0.15204
#
# Static dielectric constant tensor:
#      x y z
#    x 1.864570 0.000000 0.029890 
#    y 0.000000 1.770800 0.000000 
#    z 0.029890 0.000000 1.753380 
# 
# From -- ./inp_files/91984.got.cif
#   From: 2010.05.17/outbox.cif.g08.bks.cpg/sg15_46_cif.got.tgz:91984.got - 2010.06.03 18:47:42.
