data_PCOD9293379
_publ_section_title
;
Structure prediction by ZEFSAII (Michael W. Deem and Ramdas Pophale) SiO2 
 PCOD9293379
Probable space group: C 2/C
;
_chemical_formula_sum "Si O2"
_cell_formula_units_Z 48
_cell_length_a 11.132582
_cell_length_b 11.103087
_cell_length_c 18.058002
_cell_angle_alpha 90.000000
_cell_angle_beta 92.292533
_cell_angle_gamma 90.000000
_cell_volume 2230.291356
_symmetry_space_group_name_H-M "C 2/C"
_symmetry_group_IT_number 15
_symmetry_cell_setting 'monoclinic'
loop_
_space_group_symop_operation_xyz
x,y,z
-x,y,1/2-z
-x,-y,-z
x,-y,1/2+z
1/2+x,1/2+y,z
1/2-x,1/2+y,1/2-z
1/2-x,1/2-y,-z
1/2+x,1/2-y,1/2+z
loop_
_atom_site_type_symbol
_atom_site_label
_atom_site_fract_x
_atom_site_fract_y
_atom_site_fract_z
Si Si1 0.795401 0.723358 0.919858
Si Si2 0.529743 0.762341 0.885179
Si Si3 0.092824 0.498731 0.137864
Si Si4 0.500000 0.804666 0.250000
Si Si5 0.985159 0.130205 0.036945
Si Si6 0.663035 0.605663 0.321608
Si Si7 0.000000 0.103194 0.750000
O O1 0.671519 0.738394 0.872334
O O2 0.842143 0.586168 0.920425
O O3 0.902050 0.820185 0.911239
O O4 0.750000 0.750000 0.000000
O O5 0.464091 0.688349 0.818067
O O6 0.506022 0.904336 0.885601
O O7 0.484406 0.715490 0.964406
O O8 0.196822 0.577935 0.178367
O O9 0.039332 0.394616 0.187098
O O10 0.610376 0.719891 0.276835
O O11 0.877342 0.123849 0.093367
O O12 0.000000 0.000000 0.000000
O O13 0.598532 0.488465 0.285507
#
# Coordination Sequence:
#
# PCOD9293379 Si02
#       7
#     8   8   8   4   8   8   4
#     4  10  22  45  71  98 145 180 229 298 348 413
#     4  11  25  42  73 105 140 191 237 292 360 423
#     4  12  25  46  69 106 141 181 241 290 354 426
#     4  11  27  46  64 104 141 191 230 292 358 423
#     4  11  21  46  72 105 137 191 242 287 358 419
#     4  11  24  44  73  97 143 188 235 292 352 426
#     4  11  21  44  66 104 139 183 232 286 358 419
#
# _framework density 21.521851000000002
#
# number of rings (size 3 to 8) (size 9 to 14) (size 15 to 20)
#    0.000    1.000    5.000    1.500    2.333    4.667 
#    3.000    0.000    0.000    0.000    0.000    0.000 
#    0.000    0.000    0.000    0.000    0.000    0.000 
#
# Total GULP energy -133900.235242 kJ/mol
# GULP energy per Si atom -5579.176468 kJ/mol
# Density = 2.147287 g / cm^3
# Si number density = 21.521851 Si / 1000 Ang^3
#
#
#
# Elastic Constant Matrix: (Units=GPa)
#
#
# Indices 1 2 3 4 5 6 
#
# 1 42.9050 35.1408 0.2650 0.0000 7.8261 0.0000
# 2 35.1408 177.3013 53.8338 0.0000 -0.0065 0.0000
# 3 0.2650 53.8338 79.5857 0.0000 10.1369 0.0000
# 4 0.0000 0.0000 0.0000 22.3106 0.0000 -24.7059
# 5 7.8261 -0.0065 10.1369 0.0000 8.0003 0.0000
# 6 0.0000 0.0000 0.0000 -24.7059 0.0000 13.2108
#
#
#
# Elastic Compliance Matrix: (Units=1/GPa)
#
#
# Indices 1 2 3 4 5 6 
#
# 1 0.049790 -0.015969 0.020082 0.000000 -0.074164 0.000000
# 2 -0.015969 0.012592 -0.012467 0.000000 0.031428 0.000000
# 3 0.020082 -0.012467 0.027945 0.000000 -0.055063 0.000000
# 4 0.000000 0.000000 0.000000 -0.041854 0.000000 -0.078272
# 5 -0.074164 0.031428 -0.055063 0.000000 0.267340 0.000000
# 6 0.000000 0.000000 0.000000 -0.078272 0.000000 -0.070684
#
#
# Mechanical properties :
#
#
# Convention : Reuss Voigt Hill
#
# Bulk Modulus (GPa) = 13.58337 53.14121 33.36229
# Shear Modulus (GPa) = 17.45960 22.74116 20.10038
#
# Velocity S-wave (km/s) = 2.85133 3.25415 3.05938
# Velocity P-wave (km/s) = 4.14310 6.23415 5.29292
#
# Compressibility (1/GPa) = 0.07361945
#
# Stress axis : x y z
#
# Youngs Moduli (GPa) = 20.08434 79.41834 35.78497
#
# Poissons Ratio (x) = 1.26819 -0.71864
# Poissons Ratio (y) = 0.32072 0.44613
# Poissons Ratio (z) = -0.40334 0.99011
#
# Static dielectric constant tensor:
#      x y z
#    x 2.241580 0.000000 -0.054720 
#    y 0.000000 1.777230 0.000000 
#    z -0.054720 0.000000 1.863280 
# 
# From -- ./inp_files/196178.got.cif
#   From: 2010.05.17/outbox.cif.g08.bks.cpg/sg15_99_cif.got.tgz:196178.got - 2010.06.03 18:47:42.
