data_PCOD9293961
_publ_section_title
;
Structure prediction by ZEFSAII (Michael W. Deem and Ramdas Pophale) SiO2 
 PCOD9293961
Probable space group: C 2/C
;
_chemical_formula_sum "Si O2"
_cell_formula_units_Z 56
_cell_length_a 25.002459
_cell_length_b 13.693320
_cell_length_c 8.743538
_cell_angle_alpha 90.000000
_cell_angle_beta 111.188899
_cell_angle_gamma 90.000000
_cell_volume 2791.117260
_symmetry_space_group_name_H-M "C 2/C"
_symmetry_group_IT_number 15
_symmetry_cell_setting 'monoclinic'
loop_
_space_group_symop_operation_xyz
x,y,z
-x,y,1/2-z
-x,-y,-z
x,-y,1/2+z
1/2+x,1/2+y,z
1/2-x,1/2+y,1/2-z
1/2-x,1/2-y,-z
1/2+x,1/2-y,1/2+z
loop_
_atom_site_type_symbol
_atom_site_label
_atom_site_fract_x
_atom_site_fract_y
_atom_site_fract_z
Si Si1 0.560227 0.013004 0.146584
Si Si2 0.387534 0.576618 0.698916
Si Si3 0.241414 0.633488 0.015302
Si Si4 0.000000 0.328198 0.750000
Si Si5 0.000000 0.053489 0.250000
Si Si6 0.804039 0.023527 0.355410
Si Si7 0.538487 0.289774 0.030833
Si Si8 0.392201 0.874665 0.070454
O O1 0.551923 0.099829 0.260737
O O2 0.574052 0.916669 0.251081
O O3 0.604230 0.049490 0.066629
O O4 0.500000 0.000000 0.000000
O O5 0.442445 0.510282 0.709889
O O6 0.341806 0.585103 0.515508
O O7 0.351425 0.528262 0.798224
O O8 0.415811 0.672914 0.797008
O O9 0.266777 0.591093 0.202381
O O10 0.250000 0.750000 0.000000
O O11 0.269044 0.560818 0.913977
O O12 0.173092 0.629181 0.949513
O O13 0.007533 0.265990 0.911528
O O14 0.010540 0.122486 0.407682
O O15 0.573985 0.220443 0.953506
#
# Coordination Sequence:
#
# PCOD9293961 Si02
#       8
#     8   8   8   4   4   8   8   8
#     4  11  21  41  62  93 131 180 206 270 334 401
#     4  11  22  45  62  95 133 177 212 271 336 395
#     4  11  24  48  70 103 128 181 237 289 339 404
#     4  10  23  37  58  90 144 162 220 259 317 398
#     4  12  25  37  70  92 140 176 212 255 335 410
#     4  10  24  44  72  92 138 174 227 291 337 390
#     4  11  25  38  60 103 129 173 221 265 315 416
#     4  11  24  40  68  90 134 170 225 270 331 393
#
# _framework density 20.063649000000002
#
# number of rings (size 3 to 8) (size 9 to 14) (size 15 to 20)
#    0.000    1.143    2.857    2.571    8.000    0.000 
#    2.571    7.857    0.000    0.000    0.000    0.000 
#    0.000    0.000    0.000    0.000    0.000    0.000 
#
# Total GULP energy -156281.989318 kJ/mol
# GULP energy per Si atom -5581.499619 kJ/mol
# Density = 2.001798 g / cm^3
# Si number density = 20.063649 Si / 1000 Ang^3
#
#
#
# Elastic Constant Matrix: (Units=GPa)
#
#
# Indices 1 2 3 4 5 6 
#
# 1 130.6466 46.7737 49.6385 0.0000 0.3023 0.0000
# 2 46.7737 113.9892 63.7362 0.0000 4.7708 0.0000
# 3 49.6385 63.7362 124.5414 0.0000 7.6136 0.0000
# 4 0.0000 0.0000 0.0000 39.9659 0.0000 -8.9141
# 5 0.3023 4.7708 7.6136 0.0000 22.7113 0.0000
# 6 0.0000 0.0000 0.0000 -8.9141 0.0000 19.0174
#
#
#
# Elastic Compliance Matrix: (Units=1/GPa)
#
#
# Indices 1 2 3 4 5 6 
#
# 1 0.009537 -0.002518 -0.002590 0.000000 0.001270 0.000000
# 2 -0.002518 0.012960 -0.005578 0.000000 -0.000819 0.000000
# 3 -0.002590 -0.005578 0.012091 0.000000 -0.002847 0.000000
# 4 0.000000 0.000000 0.000000 0.027943 0.000000 0.013098
# 5 0.001270 -0.000819 -0.002847 0.000000 0.045140 0.000000
# 6 0.000000 0.000000 0.000000 0.013098 0.000000 0.058723
#
#
# Mechanical properties :
#
#
# Convention : Reuss Voigt Hill
#
# Bulk Modulus (GPa) = 75.67993 76.60822 76.14408
# Shear Modulus (GPa) = 26.01848 30.27419 28.14634
#
# Velocity S-wave (km/s) = 3.60501 3.88868 3.74953
# Velocity P-wave (km/s) = 7.42496 7.64382 7.53518
#
# Compressibility (1/GPa) = 0.01321354
#
# Stress axis : x y z
#
# Youngs Moduli (GPa) = 104.85517 77.16317 82.70823
#
# Poissons Ratio (x) = 0.19432 0.21422
# Poissons Ratio (y) = 0.26406 0.46139
# Poissons Ratio (z) = 0.27158 0.43045
#
# Static dielectric constant tensor:
#      x y z
#    x 3.507250 0.000000 0.371040 
#    y 0.000000 1.785970 0.000000 
#    z 0.371040 0.000000 1.831630 
# 
# From -- ./inp_files/62036.got.cif
#   From: 2010.05.17/outbox.cif.g08.bks.cpg/sg15_32_cif.got.tgz:62036.got - 2010.06.03 18:47:42.
