data_PCOD9293683
_publ_section_title
;
Structure prediction by ZEFSAII (Michael W. Deem and Ramdas Pophale) SiO2 
 PCOD9293683
Probable space group: C 2/C
;
_chemical_formula_sum "Si O2"
_cell_formula_units_Z 44
_cell_length_a 9.457072
_cell_length_b 21.139627
_cell_length_c 8.286186
_cell_angle_alpha 90.000000
_cell_angle_beta 109.267488
_cell_angle_gamma 90.000000
_cell_volume 1563.778819
_symmetry_space_group_name_H-M "C 2/C"
_symmetry_group_IT_number 15
_symmetry_cell_setting 'monoclinic'
loop_
_space_group_symop_operation_xyz
x,y,z
-x,y,1/2-z
-x,-y,-z
x,-y,1/2+z
1/2+x,1/2+y,z
1/2-x,1/2+y,1/2-z
1/2-x,1/2-y,-z
1/2+x,1/2-y,1/2+z
loop_
_atom_site_type_symbol
_atom_site_label
_atom_site_fract_x
_atom_site_fract_y
_atom_site_fract_z
Si Si1 0.000000 0.581159 0.750000
Si Si2 0.067092 0.566237 0.451143
Si Si3 0.146070 0.907852 0.618098
Si Si4 0.693829 0.420944 0.005314
Si Si5 0.628956 0.306582 0.192719
Si Si6 0.082041 0.243035 0.111722
O O1 0.020699 0.611868 0.582031
O O2 0.167745 0.550331 0.839297
O O3 0.243602 0.572410 0.484077
O O4 0.000000 0.579336 0.250000
O O5 0.000000 0.500000 0.500000
O O6 0.124993 0.832024 0.624283
O O7 0.980420 0.936298 0.532852
O O8 0.210082 0.926836 0.819057
O O9 0.694870 0.349205 0.074362
O O10 0.500000 0.340530 0.250000
O O11 0.766226 0.281437 0.344900
O O12 0.537421 0.249935 0.075689
O O13 0.000000 0.255057 0.250000
#
# Coordination Sequence:
#
# PCOD9293683 Si02
#       6
#     4   8   8   8   8   8
#     4  12  26  42  80 108 144 192 250 298 380 452
#     4  12  26  49  78 111 149 183 237 317 382 464
#     4  10  22  46  72  99 152 194 244 305 380 439
#     4  10  23  43  68 107 144 203 244 305 365 449
#     4  11  24  39  59  99 152 193 263 302 356 417
#     4  11  22  41  64  96 145 203 251 309 356 425
#
# _framework density 28.136972
#
# number of rings (size 3 to 8) (size 9 to 14) (size 15 to 20)
#    0.000    1.091    6.364    1.091    6.364    0.727 
#    0.000    0.909    4.000    0.000    0.000    0.000 
#    0.000    0.000    0.000    0.000    0.000    0.000 
#
# Total GULP energy -123029.439255 kJ/mol
# GULP energy per Si atom -5592.247239 kJ/mol
# Density = 2.807293 g / cm^3
# Si number density = 28.136972 Si / 1000 Ang^3
#
#
#
# Elastic Constant Matrix: (Units=GPa)
#
#
# Indices 1 2 3 4 5 6 
#
# 1 236.6940 44.3376 97.4946 0.0000 -16.4395 0.0000
# 2 44.3376 84.7800 22.3184 0.0000 5.5131 0.0000
# 3 97.4946 22.3184 206.9467 0.0000 -4.4007 0.0000
# 4 0.0000 0.0000 0.0000 12.2252 0.0000 -12.5782
# 5 -16.4395 5.5131 -4.4007 0.0000 81.7623 0.0000
# 6 0.0000 0.0000 0.0000 -12.5782 0.0000 34.3543
#
#
#
# Elastic Compliance Matrix: (Units=1/GPa)
#
#
# Indices 1 2 3 4 5 6 
#
# 1 0.005767 -0.002455 -0.002427 0.000000 0.001195 0.000000
# 2 -0.002455 0.013250 -0.000302 0.000000 -0.001403 0.000000
# 3 -0.002427 -0.000302 0.006005 0.000000 -0.000144 0.000000
# 4 0.000000 0.000000 0.000000 0.131235 0.000000 0.048049
# 5 0.001195 -0.001403 -0.000144 0.000000 0.012558 0.000000
# 6 0.000000 0.000000 0.000000 0.048049 0.000000 0.046701
#
#
# Mechanical properties :
#
#
# Convention : Reuss Voigt Hill
#
# Bulk Modulus (GPa) = 68.24021 95.19132 81.71577
# Shear Modulus (GPa) = 21.66672 49.95302 35.80987
#
# Velocity S-wave (km/s) = 2.77798 4.21806 3.57136
# Velocity P-wave (km/s) = 5.88176 7.59128 6.79053
#
# Compressibility (1/GPa) = 0.01465412
#
# Stress axis : x y z
#
# Youngs Moduli (GPa) = 173.39044 75.47209 166.52741
#
# Poissons Ratio (x) = 0.18528 0.40414
# Poissons Ratio (y) = 0.42567 0.05033
# Poissons Ratio (z) = 0.42080 0.02281
#
# Static dielectric constant tensor:
#      x y z
#    x 2.181410 0.000000 -0.001350 
#    y 0.000000 2.321620 0.000000 
#    z -0.001350 0.000000 2.225860 
# 
# From -- ./inp_files/25656.got.cif
#   From: 2010.05.17/outbox.cif.g08.bks.cpg/sg15_13_cif.got.tgz:25656.got - 2010.06.03 18:47:42.
