data_PCOD9293891
_publ_section_title
;
Structure prediction by ZEFSAII (Michael W. Deem and Ramdas Pophale) SiO2 
 PCOD9293891
Probable space group: C 2/C
;
_chemical_formula_sum "Si O2"
_cell_formula_units_Z 48
_cell_length_a 5.848817
_cell_length_b 13.822991
_cell_length_c 26.297922
_cell_angle_alpha 90.000000
_cell_angle_beta 102.001048
_cell_angle_gamma 90.000000
_cell_volume 2079.668898
_symmetry_space_group_name_H-M "C 2/C"
_symmetry_group_IT_number 15
_symmetry_cell_setting 'monoclinic'
loop_
_space_group_symop_operation_xyz
x,y,z
-x,y,1/2-z
-x,-y,-z
x,-y,1/2+z
1/2+x,1/2+y,z
1/2-x,1/2+y,1/2-z
1/2-x,1/2-y,-z
1/2+x,1/2-y,1/2+z
loop_
_atom_site_type_symbol
_atom_site_label
_atom_site_fract_x
_atom_site_fract_y
_atom_site_fract_z
Si Si1 0.500000 0.457058 0.250000
Si Si2 0.500000 0.000000 0.000000
Si Si3 0.768178 0.007843 0.337887
Si Si4 0.880423 0.150986 0.015673
Si Si5 0.572748 0.168679 0.696434
Si Si6 0.623474 0.600251 0.922377
Si Si7 0.746863 0.297288 0.618069
O O1 0.354971 0.518661 0.283960
O O2 0.679185 0.385717 0.286806
O O3 0.691855 0.076771 0.027793
O O4 0.610186 0.921398 0.048364
O O5 0.602419 0.914644 0.330251
O O6 0.993573 0.977879 0.381483
O O7 0.647092 0.103756 0.354532
O O8 0.094063 0.169202 0.063232
O O9 0.750000 0.250000 0.000000
O O10 0.984277 0.106113 0.968999
O O11 0.500000 0.199636 0.750000
O O12 0.590935 0.253368 0.656488
O O13 0.605813 0.705711 0.894756
#
# Coordination Sequence:
#
# PCOD9293891 Si02
#       7
#     4   4   8   8   8   8   8
#     4  10  22  52  70 100 142 180 234 306 372 428
#     4  12  26  44  72  94 154 190 232 300 346 416
#     4  11  25  45  72 102 141 187 237 297 364 429
#     4  12  26  44  69 104 144 194 241 290 356 429
#     4  10  24  49  71  99 143 179 235 308 362 435
#     4  12  26  46  68 108 151 189 243 298 356 432
#     4  12  25  45  71 107 139 191 238 293 359 429
#
# _framework density 23.080594999999999
#
# number of rings (size 3 to 8) (size 9 to 14) (size 15 to 20)
#    0.000    0.667    5.000    2.000    1.167    0.000 
#   10.500    0.000    0.000    0.000    0.000    0.000 
#    0.000    0.000    0.000    0.000    0.000    0.000 
#
# Total GULP energy -133769.605536 kJ/mol
# GULP energy per Si atom -5573.733564 kJ/mol
# Density = 2.302806 g / cm^3
# Si number density = 23.080595 Si / 1000 Ang^3
#
#
#
# Elastic Constant Matrix: (Units=GPa)
#
#
# Indices 1 2 3 4 5 6 
#
# 1 9.2740 -4.7758 -7.5682 0.0000 25.9048 0.0000
# 2 -4.7758 87.2273 10.7167 0.0000 -18.2801 0.0000
# 3 -7.5682 10.7167 66.6360 0.0000 5.2377 0.0000
# 4 0.0000 0.0000 0.0000 0.3522 0.0000 4.5448
# 5 25.9048 -18.2801 5.2377 0.0000 10.4516 0.0000
# 6 0.0000 0.0000 0.0000 4.5448 0.0000 -31.0756
#
#
#
# Elastic Compliance Matrix: (Units=1/GPa)
#
#
# Indices 1 2 3 4 5 6 
#
# 1 -0.009401 0.008986 -0.005808 0.000000 0.041928 0.000000
# 2 0.008986 0.011785 -0.000775 0.000000 -0.001271 0.000000
# 3 -0.005808 -0.000775 0.013998 0.000000 0.006026 0.000000
# 4 0.000000 0.000000 0.000000 0.983361 0.000000 0.143817
# 5 0.041928 -0.001271 0.006026 0.000000 -0.013484 0.000000
# 6 0.000000 0.000000 0.000000 0.143817 0.000000 -0.011146
#
#
# Mechanical properties :
#
#
# Convention : Reuss Voigt Hill
#
# Bulk Modulus (GPa) = 47.19852 17.76474 32.48163
# Shear Modulus (GPa) = 5.11577 6.92994 6.02286
#
# Velocity S-wave (km/s) = 1.49040 1.73465 1.61714
# Velocity P-wave (km/s) = 4.84309 3.42426 4.19411
#
# Compressibility (1/GPa) = 0.02118710
#
# Stress axis : x y z
#
# Youngs Moduli (GPa) = -106.37231 84.85213 71.43803
#
# Poissons Ratio (x) = -0.76246 0.41495
# Poissons Ratio (y) = 0.95583 0.05536
# Poissons Ratio (z) = -0.61786 0.06575
#
# Static dielectric constant tensor:
#      x y z
#    x 1.897480 0.000000 -0.019900 
#    y 0.000000 2.124980 0.000000 
#    z -0.019900 0.000000 2.114140 
# 
# From -- ./inp_files/305244.got.cif
#   From: 2010.05.17/outbox.cif.g08.bks.cpg/sg15_153_cif.got.tgz:305244.got - 2010.06.03 18:47:42.
