data_PCOD9293579
_publ_section_title
;
Structure prediction by ZEFSAII (Michael W. Deem and Ramdas Pophale) SiO2 
 PCOD9293579
Probable space group: C 2/C
;
_chemical_formula_sum "Si O2"
_cell_formula_units_Z 44
_cell_length_a 12.200977
_cell_length_b 8.499099
_cell_length_c 24.075036
_cell_angle_alpha 90.000000
_cell_angle_beta 54.441073
_cell_angle_gamma 90.000000
_cell_volume 2030.960746
_symmetry_space_group_name_H-M "C 2/C"
_symmetry_group_IT_number 15
_symmetry_cell_setting 'monoclinic'
loop_
_space_group_symop_operation_xyz
x,y,z
-x,y,1/2-z
-x,-y,-z
x,-y,1/2+z
1/2+x,1/2+y,z
1/2-x,1/2+y,1/2-z
1/2-x,1/2-y,-z
1/2+x,1/2-y,1/2+z
loop_
_atom_site_type_symbol
_atom_site_label
_atom_site_fract_x
_atom_site_fract_y
_atom_site_fract_z
Si Si1 0.186969 0.764914 0.200153
Si Si2 0.000000 0.953051 0.750000
Si Si3 0.989983 0.381967 0.840387
Si Si4 0.631878 0.769833 0.121350
Si Si5 0.561710 0.296110 0.430358
Si Si6 0.034067 0.834063 0.922195
O O1 0.120267 0.721342 0.160462
O O2 0.344968 0.750634 0.146152
O O3 0.124436 0.644061 0.263532
O O4 0.123230 0.934029 0.232490
O O5 0.049492 0.845320 0.685731
O O6 0.930500 0.556017 0.856565
O O7 0.016992 0.316134 0.893602
O O8 0.785086 0.766864 0.096192
O O9 0.603877 0.708756 0.067753
O O10 0.471043 0.281856 0.512299
O O11 0.554098 0.478552 0.414259
#
# Coordination Sequence:
#
# PCOD9293579 Si02
#       6
#     8   4   8   8   8   8
#     4  10  22  46  69 105 132 182 225 289 339 407
#     4  10  24  42  68 102 138 174 236 280 346 396
#     4  10  23  44  71  97 141 174 232 282 345 397
#     4  12  25  43  70 104 132 183 229 286 333 418
#     4  11  26  48  68 101 138 188 220 284 342 419
#     4  11  25  45  71  99 143 177 230 280 347 407
#
# _framework density 21.664624
#
# number of rings (size 3 to 8) (size 9 to 14) (size 15 to 20)
#    0.000    1.455    1.818    3.818    5.091    1.455 
#    3.273    0.000    0.000    0.000    0.000    0.000 
#    0.000    0.000    0.000    0.000    0.000    0.000 
#
# Total GULP energy -123074.152782 kJ/mol
# GULP energy per Si atom -5594.279672 kJ/mol
# Density = 2.161531 g / cm^3
# Si number density = 21.664624 Si / 1000 Ang^3
#
#
#
# Elastic Constant Matrix: (Units=GPa)
#
#
# Indices 1 2 3 4 5 6 
#
# 1 -0.0248 -80.4752 -102.9493 0.0000 -17.3331 0.0000
# 2 -80.4752 -58.6272 -124.5749 0.0000 -24.1214 0.0000
# 3 -102.9493 -124.5749 -95.2474 0.0000 -26.8135 0.0000
# 4 0.0000 0.0000 0.0000 -190.5351 0.0000 -200.9833
# 5 -17.3331 -24.1214 -26.8135 0.0000 32.5011 0.0000
# 6 0.0000 0.0000 0.0000 -200.9833 0.0000 -183.7320
#
#
#
# Elastic Compliance Matrix: (Units=1/GPa)
#
#
# Indices 1 2 3 4 5 6 
#
# 1 0.012166 -0.006123 -0.004616 0.000000 -0.001865 0.000000
# 2 -0.006123 0.012952 -0.009827 0.000000 -0.001760 0.000000
# 3 -0.004616 -0.009827 0.008188 0.000000 -0.003000 0.000000
# 4 0.000000 0.000000 0.000000 0.034107 0.000000 -0.037310
# 5 -0.001865 -0.001760 -0.003000 0.000000 0.025993 0.000000
# 6 0.000000 0.000000 0.000000 -0.037310 0.000000 0.035370
#
#
# Mechanical properties :
#
#
# Convention : Reuss Voigt Hill
#
# Bulk Modulus (GPa) = -127.77211 -85.54424 -106.65817
# Shear Modulus (GPa) = 29.88684 -58.07986 -14.09651
#
# Velocity S-wave (km/s) = 3.71822 -5.18332 -2.55359
# Velocity P-wave (km/s) = 6.37744 8.68296 7.61793
#
# Compressibility (1/GPa) = -0.00782643
#
# Stress axis : x y z
#
# Youngs Moduli (GPa) = 82.19946 77.20872 122.13390
#
# Poissons Ratio (x) = 0.47273 0.56382
# Poissons Ratio (y) = 0.50328 1.20017
# Poissons Ratio (z) = 0.37947 0.75871
#
# Static dielectric constant tensor:
#      x y z
#    x 1.806200 0.000000 0.009460 
#    y 0.000000 1.775370 0.000000 
#    z 0.009460 0.000000 1.789170 
# 
# From -- ./inp_files/267974.got.cif
#   From: 2010.05.17/outbox.cif.g08.bks.cpg/sg15_134_cif.got.tgz:267974.got - 2010.06.03 18:47:42.
