data_PCOD9293062
_publ_section_title
;
Structure prediction by ZEFSAII (Michael W. Deem and Ramdas Pophale) SiO2 
 PCOD9293062
Probable space group: C 2/C
;
_chemical_formula_sum "Si O2"
_cell_formula_units_Z 52
_cell_length_a 18.350652
_cell_length_b 16.619765
_cell_length_c 9.567495
_cell_angle_alpha 90.000000
_cell_angle_beta 55.711708
_cell_angle_gamma 90.000000
_cell_volume 2410.831582
_symmetry_space_group_name_H-M "C 2/C"
_symmetry_group_IT_number 15
_symmetry_cell_setting 'monoclinic'
loop_
_space_group_symop_operation_xyz
x,y,z
-x,y,1/2-z
-x,-y,-z
x,-y,1/2+z
1/2+x,1/2+y,z
1/2-x,1/2+y,1/2-z
1/2-x,1/2-y,-z
1/2+x,1/2-y,1/2+z
loop_
_atom_site_type_symbol
_atom_site_label
_atom_site_fract_x
_atom_site_fract_y
_atom_site_fract_z
Si Si1 0.252461 0.932285 0.129212
Si Si2 0.460453 0.068939 0.445716
Si Si3 0.858900 0.810106 0.774809
Si Si4 0.500000 0.628515 0.750000
Si Si5 0.970418 0.255683 0.536936
Si Si6 0.796404 0.201003 0.623015
Si Si7 0.830570 0.940070 0.575570
O O1 0.223585 0.844893 0.213386
O O2 0.191869 0.989785 0.290995
O O3 0.355056 0.940810 0.054169
O O4 0.235699 0.943128 0.983362
O O5 0.500000 0.057510 0.250000
O O6 0.489933 0.158658 0.460979
O O7 0.500000 0.000000 0.500000
O O8 0.796881 0.732138 0.831673
O O9 0.826210 0.862301 0.679802
O O10 0.959154 0.785344 0.643037
O O11 0.838005 0.848989 0.947844
O O12 0.464977 0.690915 0.669765
O O13 0.574050 0.571559 0.600823
O O14 0.873979 0.264252 0.573002
#
# Coordination Sequence:
#
# PCOD9293062 Si02
#       7
#     8   8   8   4   8   8   8
#     4  12  25  46  68 102 139 186 231 291 352 419
#     4  12  28  46  69 102 143 186 234 289 351 418
#     4  10  24  42  66 102 136 179 239 288 343 419
#     4  10  22  44  72 106 132 182 236 292 340 416
#     4  11  22  44  71 102 137 182 237 290 346 414
#     4  11  23  42  70  99 137 187 230 290 351 412
#     4  11  25  44  71 101 141 184 235 288 354 417
#
# _framework density 21.569320999999999
#
# number of rings (size 3 to 8) (size 9 to 14) (size 15 to 20)
#    0.000    0.923    3.846    2.308    4.308    2.462 
#    2.769    0.000    0.000    0.000    0.000    0.000 
#    0.000    0.000    0.000    0.000    0.000    0.000 
#
# Total GULP energy -145134.855988 kJ/mol
# GULP energy per Si atom -5582.109846 kJ/mol
# Density = 2.152023 g / cm^3
# Si number density = 21.569321 Si / 1000 Ang^3
#
#
#
# Elastic Constant Matrix: (Units=GPa)
#
#
# Indices 1 2 3 4 5 6 
#
# 1 112.3245 16.3563 25.2596 0.0000 -4.4420 0.0000
# 2 16.3563 40.7564 9.9370 0.0000 -6.5974 0.0000
# 3 25.2596 9.9370 87.3564 0.0000 -2.3859 0.0000
# 4 0.0000 0.0000 0.0000 24.8161 0.0000 3.2635
# 5 -4.4420 -6.5974 -2.3859 0.0000 42.2885 0.0000
# 6 0.0000 0.0000 0.0000 3.2635 0.0000 27.4895
#
#
#
# Elastic Compliance Matrix: (Units=1/GPa)
#
#
# Indices 1 2 3 4 5 6 
#
# 1 0.009963 -0.003328 -0.002492 0.000000 0.000387 0.000000
# 2 -0.003328 0.026966 -0.002003 0.000000 0.003744 0.000000
# 3 -0.002492 -0.002003 0.012399 0.000000 0.000125 0.000000
# 4 0.000000 0.000000 0.000000 0.040935 0.000000 -0.004860
# 5 0.000387 0.003744 0.000125 0.000000 0.024279 0.000000
# 6 0.000000 0.000000 0.000000 -0.004860 0.000000 0.036954
#
#
# Mechanical properties :
#
#
# Convention : Reuss Voigt Hill
#
# Bulk Modulus (GPa) = 29.68879 38.17145 33.93012
# Shear Modulus (GPa) = 28.03158 31.51113 29.77135
#
# Velocity S-wave (km/s) = 3.60891 3.82635 3.71922
# Velocity P-wave (km/s) = 5.58211 6.10383 5.84879
#
# Compressibility (1/GPa) = 0.03368275
#
# Stress axis : x y z
#
# Youngs Moduli (GPa) = 100.37084 37.08356 80.65106
#
# Poissons Ratio (x) = 0.12342 0.20096
# Poissons Ratio (y) = 0.33406 0.16153
# Poissons Ratio (z) = 0.25010 0.07427
#
# Static dielectric constant tensor:
#      x y z
#    x 1.804100 0.000000 0.033290 
#    y 0.000000 1.931270 0.000000 
#    z 0.033290 0.000000 1.812410 
# 
# From -- ./inp_files/48932.got.cif
#   From: 2010.05.17/outbox.cif.g08.bks.cpg/sg15_25_cif.got.tgz:48932.got - 2010.06.03 18:47:42.
