data_PCOD9293737
_publ_section_title
;
Structure prediction by ZEFSAII (Michael W. Deem and Ramdas Pophale) SiO2 
 PCOD9293737
Probable space group: C 2/C
;
_chemical_formula_sum "Si O2"
_cell_formula_units_Z 52
_cell_length_a 7.952883
_cell_length_b 13.969214
_cell_length_c 27.424342
_cell_angle_alpha 90.000000
_cell_angle_beta 122.029012
_cell_angle_gamma 90.000000
_cell_volume 2582.948654
_symmetry_space_group_name_H-M "C 2/C"
_symmetry_group_IT_number 15
_symmetry_cell_setting 'monoclinic'
loop_
_space_group_symop_operation_xyz
x,y,z
-x,y,1/2-z
-x,-y,-z
x,-y,1/2+z
1/2+x,1/2+y,z
1/2-x,1/2+y,1/2-z
1/2-x,1/2-y,-z
1/2+x,1/2-y,1/2+z
loop_
_atom_site_type_symbol
_atom_site_label
_atom_site_fract_x
_atom_site_fract_y
_atom_site_fract_z
Si Si1 0.129947 0.917345 0.130851
Si Si2 0.012536 0.276198 0.329786
Si Si3 0.222783 0.005087 0.054563
Si Si4 0.500000 0.606716 0.250000
Si Si5 0.916301 0.690927 0.553633
Si Si6 0.696510 0.037278 0.745990
Si Si7 0.775958 0.353923 0.481859
O O1 0.273280 0.825251 0.147490
O O2 0.214953 0.006966 0.111873
O O3 0.133155 0.942873 0.187711
O O4 0.922017 0.892063 0.074640
O O5 0.994735 0.257357 0.384983
O O6 0.998692 0.180310 0.295769
O O7 0.865736 0.363032 0.290137
O O8 0.317616 0.903371 0.059567
O O9 0.329686 0.081190 0.036813
O O10 0.000000 0.000000 0.000000
O O11 0.698747 0.540405 0.273458
O O12 0.750000 0.750000 0.500000
O O13 0.067223 0.655832 0.536473
O O14 0.500000 0.011769 0.750000
O O15 0.750000 0.250000 0.500000
#
# Coordination Sequence:
#
# PCOD9293737 Si02
#       7
#     8   8   8   4   8   8   8
#     4   9  19  42  64  85 138 167 210 297 326 393
#     4  10  22  47  64  97 140 169 228 297 325 413
#     4   9  19  37  62  86 124 167 205 268 324 380
#     4  12  24  44  78  98 132 194 228 280 362 410
#     4  11  23  41  62  93 133 173 217 278 336 400
#     4  10  23  46  67  99 134 173 234 283 351 405
#     4  11  22  37  60  98 127 178 222 258 338 409
#
# _framework density 20.132031000000001
#
# number of rings (size 3 to 8) (size 9 to 14) (size 15 to 20)
#    0.000    1.846    2.308    3.231    2.154    3.692 
#   20.769    0.000    0.000    0.000    0.000    0.000 
#    0.000    0.000    0.000    0.000    0.000    0.000 
#
# Total GULP energy -144823.286000 kJ/mol
# GULP energy per Si atom -5570.126385 kJ/mol
# Density = 2.008621 g / cm^3
# Si number density = 20.132031 Si / 1000 Ang^3
#
#
#
# Elastic Constant Matrix: (Units=GPa)
#
#
# Indices 1 2 3 4 5 6 
#
# 1 82.0259 34.1945 27.9011 0.0000 -8.1259 0.0000
# 2 34.1945 96.0826 45.7048 0.0000 -10.5973 0.0000
# 3 27.9011 45.7048 121.7001 0.0000 -18.2585 0.0000
# 4 0.0000 0.0000 0.0000 27.1308 0.0000 0.9050
# 5 -8.1259 -10.5973 -18.2585 0.0000 26.1274 0.0000
# 6 0.0000 0.0000 0.0000 0.9050 0.0000 33.2957
#
#
#
# Elastic Compliance Matrix: (Units=1/GPa)
#
#
# Indices 1 2 3 4 5 6 
#
# 1 0.014671 -0.004325 -0.001472 0.000000 0.001780 0.000000
# 2 -0.004325 0.014043 -0.004055 0.000000 0.001517 0.000000
# 3 -0.001472 -0.004055 0.010905 0.000000 0.005518 0.000000
# 4 0.000000 0.000000 0.000000 0.036892 0.000000 -0.001003
# 5 0.001780 0.001517 0.005518 0.000000 0.043299 0.000000
# 6 0.000000 0.000000 0.000000 -0.001003 0.000000 0.030061
#
#
# Mechanical properties :
#
#
# Convention : Reuss Voigt Hill
#
# Bulk Modulus (GPa) = 50.21135 57.26771 53.73953
# Shear Modulus (GPa) = 28.37462 30.11132 29.24297
#
# Velocity S-wave (km/s) = 3.75831 3.87161 3.81538
# Velocity P-wave (km/s) = 6.62030 6.96374 6.79419
#
# Compressibility (1/GPa) = 0.01991581
#
# Stress axis : x y z
#
# Youngs Moduli (GPa) = 68.16058 71.21048 91.69975
#
# Poissons Ratio (x) = 0.30796 0.13502
# Poissons Ratio (y) = 0.29477 0.37182
# Poissons Ratio (z) = 0.10036 0.28874
#
# Static dielectric constant tensor:
#      x y z
#    x 1.731400 0.000000 0.000570 
#    y 0.000000 1.702810 0.000000 
#    z 0.000570 0.000000 1.755510 
# 
# From -- ./inp_files/307659.got.cif
#   From: 2010.05.17/outbox.cif.g08.bks.cpg/sg15_154_cif.got.tgz:307659.got - 2010.06.03 18:47:42.
