data_PCOD9293267
_publ_section_title
;
Structure prediction by ZEFSAII (Michael W. Deem and Ramdas Pophale) SiO2 
 PCOD9293267
Probable space group: C 2/C
;
_chemical_formula_sum "Si O2"
_cell_formula_units_Z 56
_cell_length_a 12.892792
_cell_length_b 28.838301
_cell_length_c 9.020506
_cell_angle_alpha 90.000000
_cell_angle_beta 58.480827
_cell_angle_gamma 90.000000
_cell_volume 2859.066402
_symmetry_space_group_name_H-M "C 2/C"
_symmetry_group_IT_number 15
_symmetry_cell_setting 'monoclinic'
loop_
_space_group_symop_operation_xyz
x,y,z
-x,y,1/2-z
-x,-y,-z
x,-y,1/2+z
1/2+x,1/2+y,z
1/2-x,1/2+y,1/2-z
1/2-x,1/2-y,-z
1/2+x,1/2-y,1/2+z
loop_
_atom_site_type_symbol
_atom_site_label
_atom_site_fract_x
_atom_site_fract_y
_atom_site_fract_z
Si Si1 0.561226 0.541703 0.863791
Si Si2 0.323499 0.971758 0.282611
Si Si3 0.613632 0.193016 0.051129
Si Si4 0.303445 0.061531 0.137641
Si Si5 0.520574 0.118241 0.900592
Si Si6 0.392238 0.699115 0.953397
Si Si7 0.942532 0.882557 0.632528
O O1 0.500000 0.541396 0.750000
O O2 0.703829 0.534206 0.771514
O O3 0.500000 0.500000 0.000000
O O4 0.537107 0.590416 0.959115
O O5 0.301487 0.961649 0.473746
O O6 0.416587 0.932245 0.162762
O O7 0.354762 0.024710 0.219007
O O8 0.500000 0.185737 0.250000
O O9 0.600055 0.246564 0.011143
O O10 0.595214 0.154564 0.939410
O O11 0.753295 0.189664 0.003378
O O12 0.171303 0.081964 0.272680
O O13 0.390924 0.105969 0.067132
O O14 0.500000 0.136211 0.750000
O O15 0.500000 0.690866 0.750000
O O16 0.411671 0.665224 0.076656
O O17 0.000000 0.876110 0.750000
#
# Coordination Sequence:
#
# PCOD9293267 Si02
#       7
#     8   8   8   8   8   8   8
#     4  12  23  37  58  86 120 165 202 252 311 362
#     4  11  23  39  58  86 124 161 209 253 297 364
#     4  10  22  45  67  94 126 160 206 257 318 379
#     4  11  23  40  58  87 123 164 206 255 299 362
#     4  10  24  40  62  88 122 162 209 253 307 368
#     4  10  24  42  68  96 124 160 207 261 313 380
#     4  12  24  39  60  92 126 157 206 254 312 371
#
# _framework density 19.586815000000001
#
# number of rings (size 3 to 8) (size 9 to 14) (size 15 to 20)
#    0.000    1.143    2.857    3.000    4.000    1.714 
#    0.000    0.000    0.000    7.714    0.000    0.000 
#    0.000    0.000    0.000    0.000    0.000    0.000 
#
# Total GULP energy -156335.791576 kJ/mol
# GULP energy per Si atom -5583.421128 kJ/mol
# Density = 1.954223 g / cm^3
# Si number density = 19.586815 Si / 1000 Ang^3
#
#
#
# Elastic Constant Matrix: (Units=GPa)
#
#
# Indices 1 2 3 4 5 6 
#
# 1 77.1560 37.2030 24.6374 0.0000 3.8389 0.0000
# 2 37.2030 97.3920 38.3779 0.0000 20.8678 0.0000
# 3 24.6374 38.3779 58.9341 0.0000 4.4238 0.0000
# 4 0.0000 0.0000 0.0000 10.0659 0.0000 9.4599
# 5 3.8389 20.8678 4.4238 0.0000 38.1490 0.0000
# 6 0.0000 0.0000 0.0000 9.4599 0.0000 34.4598
#
#
#
# Elastic Compliance Matrix: (Units=1/GPa)
#
#
# Indices 1 2 3 4 5 6 
#
# 1 0.016569 -0.005246 -0.003633 0.000000 0.001623 0.000000
# 2 -0.005246 0.017324 -0.008490 0.000000 -0.007964 0.000000
# 3 -0.003633 -0.008490 0.023847 0.000000 0.002245 0.000000
# 4 0.000000 0.000000 0.000000 0.133888 0.000000 -0.036755
# 5 0.001623 -0.007964 0.002245 0.000000 0.030146 0.000000
# 6 0.000000 0.000000 0.000000 -0.036755 0.000000 0.039109
#
#
# Mechanical properties :
#
#
# Convention : Reuss Voigt Hill
#
# Bulk Modulus (GPa) = 43.47324 48.21318 45.84321
# Shear Modulus (GPa) = 16.48597 25.41921 20.95259
#
# Velocity S-wave (km/s) = 2.90433 3.60637 3.27422
# Velocity P-wave (km/s) = 5.78707 6.48149 6.14410
#
# Compressibility (1/GPa) = 0.02300265
#
# Stress axis : x y z
#
# Youngs Moduli (GPa) = 60.35245 57.72447 41.93362
#
# Poissons Ratio (x) = 0.30281 0.15233
# Poissons Ratio (y) = 0.31659 0.35603
# Poissons Ratio (z) = 0.21924 0.49011
#
# Static dielectric constant tensor:
#      x y z
#    x 1.684960 0.000000 -0.024260 
#    y 0.000000 1.689210 0.000000 
#    z -0.024260 0.000000 1.697360 
# 
# From -- ./inp_files/34192.got.cif
#   From: 2010.05.17/outbox.cif.g08.bks.cpg/sg15_18_cif.got.tgz:34192.got - 2010.06.03 18:47:42.
