data_PCOD9293906
_publ_section_title
;
Structure prediction by ZEFSAII (Michael W. Deem and Ramdas Pophale) SiO2 
 PCOD9293906
Probable space group: C 2/C
;
_chemical_formula_sum "Si O2"
_cell_formula_units_Z 52
_cell_length_a 22.886292
_cell_length_b 11.894892
_cell_length_c 8.392080
_cell_angle_alpha 90.000000
_cell_angle_beta 64.768787
_cell_angle_gamma 90.000000
_cell_volume 2066.615679
_symmetry_space_group_name_H-M "C 2/C"
_symmetry_group_IT_number 15
_symmetry_cell_setting 'monoclinic'
loop_
_space_group_symop_operation_xyz
x,y,z
-x,y,1/2-z
-x,-y,-z
x,-y,1/2+z
1/2+x,1/2+y,z
1/2-x,1/2+y,1/2-z
1/2-x,1/2-y,-z
1/2+x,1/2-y,1/2+z
loop_
_atom_site_type_symbol
_atom_site_label
_atom_site_fract_x
_atom_site_fract_y
_atom_site_fract_z
Si Si1 0.250000 0.250000 0.000000
Si Si2 0.878082 0.647072 0.965995
Si Si3 0.000000 0.309647 0.750000
Si Si4 0.585637 0.068819 0.908942
Si Si5 0.811974 0.744935 0.598743
Si Si6 0.000000 0.060467 0.250000
Si Si7 0.120983 0.185609 0.769725
Si Si8 0.093004 0.061793 0.393915
O O1 0.192964 0.343388 0.028710
O O2 0.242290 0.269278 0.204302
O O3 0.919954 0.607216 0.766767
O O4 0.892229 0.558408 0.089225
O O5 0.887489 0.766039 0.042585
O O6 0.941752 0.231635 0.753282
O O7 0.024049 0.389594 0.579713
O O8 0.642897 0.137410 0.929024
O O9 0.817059 0.771208 0.403681
O O10 0.851503 0.853871 0.621264
O O11 0.953974 0.122225 0.178608
O O12 0.953668 0.984251 0.414052
O O13 0.122132 0.051087 0.782621
#
# Coordination Sequence:
#
# PCOD9293906 Si02
#       8
#     4   8   4   8   8   4   8   8
#     4  10  26  50  72  96 128 186 238 308 368 402
#     4  11  25  48  71 100 139 182 247 298 350 421
#     4  10  23  42  71 106 156 195 226 283 366 426
#     4  10  23  42  69 103 141 181 234 286 345 438
#     4  10  23  45  66  98 139 176 244 293 350 421
#     4  10  23  34  65  98 148 191 224 269 362 416
#     4  11  24  41  70 104 146 190 233 293 348 441
#     4  11  22  39  63 105 144 188 230 289 343 437
#
# _framework density 25.161911
#
# number of rings (size 3 to 8) (size 9 to 14) (size 15 to 20)
#    0.000    1.538    1.538    2.308   10.769    3.692 
#   11.077    0.000    0.000    0.000    0.000    0.000 
#    0.000    0.000    0.000    0.000    0.000    0.000 
#
# Total GULP energy -144797.940813 kJ/mol
# GULP energy per Si atom -5569.151570 kJ/mol
# Density = 2.510464 g / cm^3
# Si number density = 25.161911 Si / 1000 Ang^3
#
#
#
# Elastic Constant Matrix: (Units=GPa)
#
#
# Indices 1 2 3 4 5 6 
#
# 1 36.2971 18.1036 31.3481 0.0000 15.4215 0.0000
# 2 18.1036 88.9647 -7.3361 0.0000 2.2194 0.0000
# 3 31.3481 -7.3361 139.3784 0.0000 20.0131 0.0000
# 4 0.0000 0.0000 0.0000 30.5366 0.0000 18.3866
# 5 15.4215 2.2194 20.0131 0.0000 47.9279 0.0000
# 6 0.0000 0.0000 0.0000 18.3866 0.0000 16.4046
#
#
#
# Elastic Compliance Matrix: (Units=1/GPa)
#
#
# Indices 1 2 3 4 5 6 
#
# 1 0.044385 -0.009526 -0.009039 0.000000 -0.010066 0.000000
# 2 -0.009526 0.013364 0.002654 0.000000 0.001338 0.000000
# 3 -0.009039 0.002654 0.009518 0.000000 -0.001189 0.000000
# 4 0.000000 0.000000 0.000000 0.100719 0.000000 -0.112887
# 5 -0.010066 0.001338 -0.001189 0.000000 0.024538 0.000000
# 6 0.000000 0.000000 0.000000 -0.112887 0.000000 0.187484
#
#
# Mechanical properties :
#
#
# Convention : Reuss Voigt Hill
#
# Bulk Modulus (GPa) = 28.21272 38.76348 33.48810
# Shear Modulus (GPa) = 11.80232 33.80881 22.80557
#
# Velocity S-wave (km/s) = 2.16812 3.66956 3.01384
# Velocity P-wave (km/s) = 4.18383 5.77869 5.04469
#
# Compressibility (1/GPa) = 0.03544500
#
# Stress axis : x y z
#
# Youngs Moduli (GPa) = 22.53020 74.82578 105.06326
#
# Poissons Ratio (x) = 0.71281 0.94965
# Poissons Ratio (y) = 0.21463 -0.27882
# Poissons Ratio (z) = 0.20365 -0.19858
#
# Static dielectric constant tensor:
#      x y z
#    x 2.116430 0.000000 -0.044580 
#    y 0.000000 1.951260 0.000000 
#    z -0.044580 0.000000 2.073070 
# 
# From -- ./inp_files/65402.got.cif
#   From: 2010.05.17/outbox.cif.g08.bks.cpg/sg15_33_cif.got.tgz:65402.got - 2010.06.03 18:47:42.
