data_PCOD9293252
_publ_section_title
;
Structure prediction by ZEFSAII (Michael W. Deem and Ramdas Pophale) SiO2 
 PCOD9293252
Probable space group: C 2/C
;
_chemical_formula_sum "Si O2"
_cell_formula_units_Z 52
_cell_length_a 16.550038
_cell_length_b 8.708458
_cell_length_c 22.471171
_cell_angle_alpha 90.000000
_cell_angle_beta 131.895444
_cell_angle_gamma 90.000000
_cell_volume 2410.747364
_symmetry_space_group_name_H-M "C 2/C"
_symmetry_group_IT_number 15
_symmetry_cell_setting 'monoclinic'
loop_
_space_group_symop_operation_xyz
x,y,z
-x,y,1/2-z
-x,-y,-z
x,-y,1/2+z
1/2+x,1/2+y,z
1/2-x,1/2+y,1/2-z
1/2-x,1/2-y,-z
1/2+x,1/2-y,1/2+z
loop_
_atom_site_type_symbol
_atom_site_label
_atom_site_fract_x
_atom_site_fract_y
_atom_site_fract_z
Si Si1 0.209083 0.161918 0.893833
Si Si2 0.926466 0.699903 0.071666
Si Si3 0.000000 0.632172 0.750000
Si Si4 0.230054 0.787867 0.700313
Si Si5 0.525643 0.510500 0.081655
Si Si6 0.354310 0.329868 0.584444
Si Si7 0.599408 0.008531 0.686647
O O1 0.126573 0.268734 0.890128
O O2 0.211384 0.204740 0.826158
O O3 0.183669 0.986468 0.900332
O O4 0.328784 0.201399 0.977093
O O5 0.988114 0.538980 0.100486
O O6 0.005178 0.842166 0.098026
O O7 0.921701 0.730035 0.666679
O O8 0.925870 0.529466 0.756320
O O9 0.319214 0.868878 0.784177
O O10 0.155047 0.661859 0.693155
O O11 0.146946 0.924998 0.644372
O O12 0.440882 0.617741 0.076409
O O13 0.500000 0.500000 0.000000
O O14 0.250000 0.250000 0.500000
#
# Coordination Sequence:
#
# PCOD9293252 Si02
#       7
#     8   8   4   8   8   8   8
#     4  10  23  41  73  95 136 177 237 279 354 416
#     4  10  22  45  67 101 130 185 226 283 348 432
#     4  12  26  46  68 100 144 188 240 290 352 436
#     4  12  26  44  65 105 134 183 229 292 352 416
#     4  11  23  44  70 103 144 178 235 290 356 422
#     4  11  26  45  73 106 142 190 236 293 360 427
#     4  12  27  43  68  95 144 178 232 286 356 415
#
# _framework density 21.570074999999999
#
# number of rings (size 3 to 8) (size 9 to 14) (size 15 to 20)
#    0.000    0.923    3.077    2.769    4.308    4.308 
#    0.000    0.000    0.000    0.000    0.000    0.000 
#    0.000    0.000    0.000    0.000    0.000    0.000 
#
# Total GULP energy -145282.747501 kJ/mol
# GULP energy per Si atom -5587.797981 kJ/mol
# Density = 2.152098 g / cm^3
# Si number density = 21.570075 Si / 1000 Ang^3
#
#
#
# Elastic Constant Matrix: (Units=GPa)
#
#
# Indices 1 2 3 4 5 6 
#
# 1 16.7803 -4.1102 6.5663 0.0000 7.5046 0.0000
# 2 -4.1102 70.0056 21.3579 0.0000 21.9909 0.0000
# 3 6.5663 21.3579 76.3194 0.0000 17.0801 0.0000
# 4 0.0000 0.0000 0.0000 43.9716 0.0000 11.3162
# 5 7.5046 21.9909 17.0801 0.0000 22.5003 0.0000
# 6 0.0000 0.0000 0.0000 11.3162 0.0000 39.0181
#
#
#
# Elastic Compliance Matrix: (Units=1/GPa)
#
#
# Indices 1 2 3 4 5 6 
#
# 1 0.086839 0.020748 -0.002719 0.000000 -0.047178 0.000000
# 2 0.020748 0.025717 -0.002178 0.000000 -0.030402 0.000000
# 3 -0.002719 -0.002178 0.015982 0.000000 -0.009096 0.000000
# 4 0.000000 0.000000 0.000000 0.024576 0.000000 -0.007128
# 5 -0.047178 -0.030402 -0.009096 0.000000 0.096798 0.000000
# 6 0.000000 0.000000 0.000000 -0.007128 0.000000 0.027696
#
#
# Mechanical properties :
#
#
# Convention : Reuss Voigt Hill
#
# Bulk Modulus (GPa) = 6.24064 23.41483 14.82773
# Shear Modulus (GPa) = 16.70443 30.38406 23.54425
#
# Velocity S-wave (km/s) = 2.78587 3.75723 3.30741
# Velocity P-wave (km/s) = 3.63972 5.44988 4.63405
#
# Compressibility (1/GPa) = 0.16023991
#
# Stress axis : x y z
#
# Youngs Moduli (GPa) = 11.51553 38.88403 62.57008
#
# Poissons Ratio (x) = -0.80677 0.17015
# Poissons Ratio (y) = -0.23893 0.13629
# Poissons Ratio (z) = 0.03132 0.08470
#
# Static dielectric constant tensor:
#      x y z
#    x 1.806070 0.000000 0.008320 
#    y 0.000000 1.750350 0.000000 
#    z 0.008320 0.000000 1.812090 
# 
# From -- ./inp_files/298443.got.cif
#   From: 2010.05.17/outbox.cif.g08.bks.cpg/sg15_150_cif.got.tgz:298443.got - 2010.06.03 18:47:42.
