data_PCOD9293832
_publ_section_title
;
Structure prediction by ZEFSAII (Michael W. Deem and Ramdas Pophale) SiO2 
 PCOD9293832
Probable space group: C 2/C
;
_chemical_formula_sum "Si O2"
_cell_formula_units_Z 52
_cell_length_a 29.284286
_cell_length_b 8.458017
_cell_length_c 20.734611
_cell_angle_alpha 90.000000
_cell_angle_beta 152.724851
_cell_angle_gamma 90.000000
_cell_volume 2353.503845
_symmetry_space_group_name_H-M "C 2/C"
_symmetry_group_IT_number 15
_symmetry_cell_setting 'monoclinic'
loop_
_space_group_symop_operation_xyz
x,y,z
-x,y,1/2-z
-x,-y,-z
x,-y,1/2+z
1/2+x,1/2+y,z
1/2-x,1/2+y,1/2-z
1/2-x,1/2-y,-z
1/2+x,1/2-y,1/2+z
loop_
_atom_site_type_symbol
_atom_site_label
_atom_site_fract_x
_atom_site_fract_y
_atom_site_fract_z
Si Si1 0.088998 0.820228 0.766819
Si Si2 0.256981 0.800735 0.207001
Si Si3 0.500000 0.442924 0.250000
Si Si4 0.340487 0.845720 0.794476
Si Si5 0.534832 0.319459 0.552821
Si Si6 0.803267 0.734995 0.997473
Si Si7 0.311784 0.878738 0.004876
O O1 0.050057 0.777668 0.647557
O O2 0.201105 0.886588 0.897355
O O3 0.018126 0.947241 0.710756
O O4 0.109332 0.682219 0.843709
O O5 0.186857 0.765543 0.179123
O O6 0.355593 0.693839 0.339534
O O7 0.201973 0.741000 0.072516
O O8 0.302936 0.976339 0.260651
O O9 0.401116 0.341333 0.118242
O O10 0.277663 0.791356 0.654878
O O11 0.456120 0.806699 0.926514
O O12 0.500000 0.500000 0.500000
O O13 0.750000 0.750000 0.000000
O O14 0.834564 0.558053 0.016713
#
# Coordination Sequence:
#
# PCOD9293832 Si02
#       7
#     8   8   4   8   8   8   8
#     4  10  23  42  74 101 138 185 233 288 349 433
#     4  11  25  46  73 103 139 186 235 294 355 426
#     4  12  26  44  72 106 138 186 244 290 360 420
#     4  12  26  46  71 104 142 186 237 289 362 426
#     4  11  25  44  71 104 143 182 233 290 356 421
#     4  12  27  45  72 104 143 184 237 301 350 425
#     4  10  22  48  70 102 141 185 231 295 363 408
#
# _framework density 22.094716999999999
#
# number of rings (size 3 to 8) (size 9 to 14) (size 15 to 20)
#    0.000    0.923    1.538    5.077   10.769    0.615 
#    2.769    0.000    0.000    0.000    0.000    0.000 
#    0.000    0.000    0.000    0.000    0.000    0.000 
#
# Total GULP energy -145471.795577 kJ/mol
# GULP energy per Si atom -5595.069061 kJ/mol
# Density = 2.204443 g / cm^3
# Si number density = 22.094717 Si / 1000 Ang^3
#
#
#
# Elastic Constant Matrix: (Units=GPa)
#
#
# Indices 1 2 3 4 5 6 
#
# 1 67.5236 -10.2064 19.4613 0.0000 5.3543 0.0000
# 2 -10.2064 96.1556 24.1618 0.0000 -3.1067 0.0000
# 3 19.4613 24.1618 123.6308 0.0000 -3.3919 0.0000
# 4 0.0000 0.0000 0.0000 17.7749 0.0000 12.3741
# 5 5.3543 -3.1067 -3.3919 0.0000 24.0142 0.0000
# 6 0.0000 0.0000 0.0000 12.3741 0.0000 30.4733
#
#
#
# Elastic Compliance Matrix: (Units=1/GPa)
#
#
# Indices 1 2 3 4 5 6 
#
# 1 0.016383 0.002409 -0.003154 0.000000 -0.003787 0.000000
# 2 0.002409 0.011321 -0.002576 0.000000 0.000564 0.000000
# 3 -0.003154 -0.002576 0.009134 0.000000 0.001660 0.000000
# 4 0.000000 0.000000 0.000000 0.078430 0.000000 -0.031848
# 5 -0.003787 0.000564 0.001660 0.000000 0.042794 0.000000
# 6 0.000000 0.000000 0.000000 -0.031848 0.000000 0.045748
#
#
# Mechanical properties :
#
#
# Convention : Reuss Voigt Hill
#
# Bulk Modulus (GPa) = 33.11655 39.34927 36.23291
# Shear Modulus (GPa) = 22.67402 31.37869 27.02636
#
# Velocity S-wave (km/s) = 3.20694 3.77263 3.50123
# Velocity P-wave (km/s) = 5.36037 6.06836 5.72532
#
# Compressibility (1/GPa) = 0.03019638
#
# Stress axis : x y z
#
# Youngs Moduli (GPa) = 61.03912 88.33068 109.48033
#
# Poissons Ratio (x) = -0.21279 0.34526
# Poissons Ratio (y) = -0.14705 0.28205
# Poissons Ratio (z) = 0.19249 0.22757
#
# Static dielectric constant tensor:
#      x y z
#    x 1.806330 0.000000 0.006990 
#    y 0.000000 1.796770 0.000000 
#    z 0.006990 0.000000 1.784080 
# 
# From -- ./inp_files/258855.got.cif
#   From: 2010.05.17/outbox.cif.g08.bks.cpg/sg15_130_cif.got.tgz:258855.got - 2010.06.03 18:47:42.
