data_PCOD9293640
_publ_section_title
;
Structure prediction by ZEFSAII (Michael W. Deem and Ramdas Pophale) SiO2 
 PCOD9293640
Probable space group: C 2/C
;
_chemical_formula_sum "Si O2"
_cell_formula_units_Z 56
_cell_length_a 10.871832
_cell_length_b 10.313373
_cell_length_c 26.555673
_cell_angle_alpha 90.000000
_cell_angle_beta 55.266807
_cell_angle_gamma 90.000000
_cell_volume 2447.002203
_symmetry_space_group_name_H-M "C 2/C"
_symmetry_group_IT_number 15
_symmetry_cell_setting 'monoclinic'
loop_
_space_group_symop_operation_xyz
x,y,z
-x,y,1/2-z
-x,-y,-z
x,-y,1/2+z
1/2+x,1/2+y,z
1/2-x,1/2+y,1/2-z
1/2-x,1/2-y,-z
1/2+x,1/2-y,1/2+z
loop_
_atom_site_type_symbol
_atom_site_label
_atom_site_fract_x
_atom_site_fract_y
_atom_site_fract_z
Si Si1 0.623693 0.896766 0.277661
Si Si2 0.181724 0.260537 0.115494
Si Si3 0.407546 0.703841 0.819502
Si Si4 0.241305 0.055741 0.344707
Si Si5 0.098419 0.010504 0.592925
Si Si6 0.183654 0.335357 0.811217
Si Si7 0.175556 0.987471 0.468061
O O1 0.459824 0.848426 0.333631
O O2 0.700963 0.758729 0.245641
O O3 0.652887 0.981276 0.219529
O O4 0.689486 0.007861 0.300921
O O5 0.120070 0.137144 0.101986
O O6 0.280487 0.208244 0.139738
O O7 0.277726 0.340228 0.052735
O O8 0.500000 0.651397 0.750000
O O9 0.275080 0.793045 0.829116
O O10 0.356743 0.596966 0.870490
O O11 0.525171 0.791426 0.824330
O O12 0.081612 0.986525 0.372707
O O13 0.256210 0.052584 0.401926
O O14 0.192435 0.039078 0.520559
O O15 0.000000 0.000000 0.500000
#
# Coordination Sequence:
#
# PCOD9293640 Si02
#       7
#     8   8   8   8   8   8   8
#     4  12  25  44  70 110 145 185 235 302 362 436
#     4  12  26  43  73 101 141 188 237 297 369 422
#     4  12  26  42  71 105 146 182 236 297 359 430
#     4  11  23  46  70 102 138 190 234 292 359 430
#     4  11  26  45  69 103 144 185 241 299 353 434
#     4  12  26  41  69 106 148 180 237 286 371 427
#     4  10  22  46  71  93 139 191 243 289 353 429
#
# _framework density 22.885145999999999
#
# number of rings (size 3 to 8) (size 9 to 14) (size 15 to 20)
#    0.000    0.571    4.286    3.429    4.000    0.571 
#    0.000    2.857    0.000    8.571    0.000    0.000 
#    0.000    0.000    0.000    0.000    0.000    0.000 
#
# Total GULP energy -156042.254620 kJ/mol
# GULP energy per Si atom -5572.937665 kJ/mol
# Density = 2.283306 g / cm^3
# Si number density = 22.885146 Si / 1000 Ang^3
#
#
#
# Elastic Constant Matrix: (Units=GPa)
#
#
# Indices 1 2 3 4 5 6 
#
# 1 45.7368 -2.5711 30.4478 0.0000 5.5212 0.0000
# 2 -2.5711 74.0192 17.8515 0.0000 2.3195 0.0000
# 3 30.4478 17.8515 130.7917 0.0000 27.6523 0.0000
# 4 0.0000 0.0000 0.0000 38.2492 0.0000 7.0524
# 5 5.5212 2.3195 27.6523 0.0000 41.7742 0.0000
# 6 0.0000 0.0000 0.0000 7.0524 0.0000 44.6873
#
#
#
# Elastic Compliance Matrix: (Units=1/GPa)
#
#
# Indices 1 2 3 4 5 6 
#
# 1 0.026326 0.002490 -0.006632 0.000000 0.000772 0.000000
# 2 0.002490 0.014217 -0.002655 0.000000 0.000639 0.000000
# 3 -0.006632 -0.002655 0.010855 0.000000 -0.006161 0.000000
# 4 0.000000 0.000000 0.000000 0.026928 0.000000 -0.004250
# 5 0.000772 0.000639 -0.006161 0.000000 0.027879 0.000000
# 6 0.000000 0.000000 0.000000 -0.004250 0.000000 0.023048
#
#
# Mechanical properties :
#
#
# Convention : Reuss Voigt Hill
#
# Bulk Modulus (GPa) = 26.45292 38.00044 32.22668
# Shear Modulus (GPa) = 32.16517 38.59678 35.38098
#
# Velocity S-wave (km/s) = 3.75307 4.11121 3.93622
# Velocity P-wave (km/s) = 5.51043 6.25915 5.89668
#
# Compressibility (1/GPa) = 0.03780300
#
# Stress axis : x y z
#
# Youngs Moduli (GPa) = 37.98559 70.33926 92.12717
#
# Poissons Ratio (x) = -0.17512 0.61095
# Poissons Ratio (y) = -0.09457 0.24461
# Poissons Ratio (z) = 0.25190 0.18676
#
# Static dielectric constant tensor:
#      x y z
#    x 1.990910 0.000000 0.023360 
#    y 0.000000 1.948720 0.000000 
#    z 0.023360 0.000000 1.846030 
# 
# From -- ./inp_files/292202.got.cif
#   From: 2010.05.17/outbox.cif.g08.bks.cpg/sg15_147_cif.got.tgz:292202.got - 2010.06.03 18:47:42.
