data_PCOD9293898
_publ_section_title
;
Structure prediction by ZEFSAII (Michael W. Deem and Ramdas Pophale) SiO2 
 PCOD9293898
Probable space group: C 2/C
;
_chemical_formula_sum "Si O2"
_cell_formula_units_Z 60
_cell_length_a 19.587684
_cell_length_b 13.624459
_cell_length_c 22.610498
_cell_angle_alpha 90.000000
_cell_angle_beta 25.816720
_cell_angle_gamma 90.000000
_cell_volume 2627.813084
_symmetry_space_group_name_H-M "C 2/C"
_symmetry_group_IT_number 15
_symmetry_cell_setting 'monoclinic'
loop_
_space_group_symop_operation_xyz
x,y,z
-x,y,1/2-z
-x,-y,-z
x,-y,1/2+z
1/2+x,1/2+y,z
1/2-x,1/2+y,1/2-z
1/2-x,1/2-y,-z
1/2+x,1/2-y,1/2+z
loop_
_atom_site_type_symbol
_atom_site_label
_atom_site_fract_x
_atom_site_fract_y
_atom_site_fract_z
Si Si1 0.709118 0.861003 0.445924
Si Si2 0.596999 0.095509 0.252343
Si Si3 0.904740 0.261815 0.488808
Si Si4 0.381224 0.440556 0.135525
Si Si5 0.167754 0.465528 0.897203
Si Si6 0.376377 0.698772 0.077808
Si Si7 0.863686 0.371480 0.269682
Si Si8 0.000000 0.253624 0.750000
O O1 0.555826 0.848728 0.604918
O O2 0.685964 0.798029 0.403463
O O3 0.861223 0.828568 0.362018
O O4 0.697759 0.972912 0.433317
O O5 0.733028 0.122516 0.192394
O O6 0.627160 0.161354 0.172242
O O7 0.588000 0.980561 0.247742
O O8 0.842351 0.352328 0.577418
O O9 0.761254 0.186326 0.592421
O O10 0.039127 0.214649 0.425781
O O11 0.989507 0.306094 0.365132
O O12 0.308209 0.503976 0.244423
O O13 0.237736 0.395026 0.210458
O O14 0.500000 0.500000 0.000000
O O15 0.491948 0.349506 0.067717
O O16 0.000000 0.500000 0.000000
#
# Coordination Sequence:
#
# PCOD9293898 Si02
#       8
#     8   8   8   8   8   8   8   4
#     4  11  22  40  65  89 129 163 216 262 328 380
#     4  11  22  43  62  91 123 168 215 277 324 374
#     4  11  24  36  59  93 130 172 211 256 324 403
#     4  11  22  35  53  90 132 178 212 251 318 397
#     4  12  22  38  60  92 133 177 212 262 325 388
#     4  10  23  32  57  88 129 168 207 251 316 395
#     4  11  23  38  59  88 130 168 215 266 322 391
#     4  10  26  42  66  96 120 168 214 276 328 388
#
# _framework density 22.832673
#
# number of rings (size 3 to 8) (size 9 to 14) (size 15 to 20)
#    0.000    1.067    5.333    0.400   11.200    0.000 
#    0.000    0.000    0.000    1.600    0.000    0.000 
#    0.000    0.000    0.000    0.000    0.000    0.000 
#
# Total GULP energy -167236.078594 kJ/mol
# GULP energy per Si atom -5574.535953 kJ/mol
# Density = 2.278071 g / cm^3
# Si number density = 22.832673 Si / 1000 Ang^3
#
#
#
# Elastic Constant Matrix: (Units=GPa)
#
#
# Indices 1 2 3 4 5 6 
#
# 1 21.7761 14.1898 23.3452 0.0012 -4.1615 0.0000
# 2 14.1898 115.9281 33.0231 -0.0009 -16.6934 0.0003
# 3 23.3452 33.0231 99.1006 0.0044 -24.9257 0.0017
# 4 0.0012 -0.0009 0.0044 54.8282 -0.0005 14.9481
# 5 -4.1615 -16.6934 -24.9257 -0.0005 18.7952 0.0005
# 6 0.0000 0.0003 0.0017 14.9481 0.0005 72.4780
#
#
#
# Elastic Compliance Matrix: (Units=1/GPa)
#
#
# Indices 1 2 3 4 5 6 
#
# 1 0.064648 -0.004919 -0.016639 0.000000 -0.012121 0.000001
# 2 -0.004919 0.010444 -0.000394 0.000000 0.007665 0.000000
# 3 -0.016639 -0.000394 0.019697 -0.000001 0.022088 0.000000
# 4 0.000000 0.000000 -0.000001 0.019325 0.000000 -0.003986
# 5 -0.012121 0.007665 0.022088 0.000000 0.086622 -0.000001
# 6 0.000001 0.000000 0.000000 -0.003986 -0.000001 0.014619
#
#
# Mechanical properties :
#
#
# Convention : Reuss Voigt Hill
#
# Bulk Modulus (GPa) = 19.65129 41.99123 30.82126
# Shear Modulus (GPa) = 18.10143 40.30338 29.20240
#
# Velocity S-wave (km/s) = 2.81870 4.20594 3.58015
# Velocity P-wave (km/s) = 4.38392 6.48208 5.53336
#
# Compressibility (1/GPa) = 0.05088725
#
# Stress axis : x y z
#
# Youngs Moduli (GPa) = 15.46827 95.74907 50.76876
#
# Poissons Ratio (x) = 0.47097 0.84473
# Poissons Ratio (y) = 0.07608 0.01998
# Poissons Ratio (z) = 0.25737 0.03769
#
# Static dielectric constant tensor:
#      x y z
#    x -0.634070 0.000000 -1.763580 
#    y 0.000000 1.899880 0.000000 
#    z -1.763580 0.000000 0.693730 
# 
# From -- ./inp_files/302355.got.cif
#   From: 2010.05.17/outbox.cif.g08.bks.cpg/sg15_152_cif.got.tgz:302355.got - 2010.06.03 18:47:42.
