data_PCOD9293151
_publ_section_title
;
Structure prediction by ZEFSAII (Michael W. Deem and Ramdas Pophale) SiO2 
 PCOD9293151
Probable space group: C 2/C
;
_chemical_formula_sum "Si O2"
_cell_formula_units_Z 48
_cell_length_a 5.492724
_cell_length_b 16.291369
_cell_length_c 23.566296
_cell_angle_alpha 90.000000
_cell_angle_beta 102.106328
_cell_angle_gamma 90.000000
_cell_volume 2061.906594
_symmetry_space_group_name_H-M "C 2/C"
_symmetry_group_IT_number 15
_symmetry_cell_setting 'monoclinic'
loop_
_space_group_symop_operation_xyz
x,y,z
-x,y,1/2-z
-x,-y,-z
x,-y,1/2+z
1/2+x,1/2+y,z
1/2-x,1/2+y,1/2-z
1/2-x,1/2-y,-z
1/2+x,1/2-y,1/2+z
loop_
_atom_site_type_symbol
_atom_site_label
_atom_site_fract_x
_atom_site_fract_y
_atom_site_fract_z
Si Si1 0.779888 0.619235 0.163421
Si Si2 0.000000 0.501215 0.750000
Si Si3 0.018570 0.673468 0.007662
Si Si4 0.346312 0.350125 0.297447
Si Si5 0.133960 0.218347 0.903903
Si Si6 0.500000 0.290939 0.750000
Si Si7 0.958344 0.080423 0.461232
O O1 0.996779 0.558456 0.195251
O O2 0.862937 0.702758 0.136791
O O3 0.643306 0.650844 0.213270
O O4 0.608772 0.573675 0.108715
O O5 0.223226 0.564243 0.773672
O O6 0.020411 0.752948 0.048679
O O7 0.791104 0.620829 0.023802
O O8 0.281208 0.629297 0.022572
O O9 0.907220 0.697148 0.940908
O O10 0.500000 0.322951 0.250000
O O11 0.513237 0.353701 0.361585
O O12 0.152399 0.275320 0.295596
O O13 0.000000 0.000000 0.500000
#
# Coordination Sequence:
#
# PCOD9293151 Si02
#       7
#     8   4   8   8   8   4   8
#     4  11  24  45  71 103 143 190 242 296 361 434
#     4  11  28  42  62 103 142 188 228 291 366 430
#     4  10  24  44  74 109 138 188 248 296 363 432
#     4  11  23  43  66  99 138 182 236 298 361 419
#     4  10  22  44  75 101 140 185 245 305 350 437
#     4  11  22  42  74  95 136 188 252 293 348 440
#     4  11  25  45  71 109 149 189 234 302 376 436
#
# _framework density 23.279423999999999
#
# number of rings (size 3 to 8) (size 9 to 14) (size 15 to 20)
#    0.000    1.333    1.667    2.500    3.500   10.000 
#    0.000    0.000    0.000    0.000    0.000    0.000 
#    0.000    0.000    0.000    0.000    0.000    0.000 
#
# Total GULP energy -134074.805495 kJ/mol
# GULP energy per Si atom -5586.450229 kJ/mol
# Density = 2.322644 g / cm^3
# Si number density = 23.279424 Si / 1000 Ang^3
#
#
#
# Elastic Constant Matrix: (Units=GPa)
#
#
# Indices 1 2 3 4 5 6 
#
# 1 101.6573 41.8164 54.1197 0.0000 23.5543 0.0000
# 2 41.8164 80.4931 79.8812 0.0000 10.4477 0.0000
# 3 54.1197 79.8812 179.1803 0.0000 43.0288 0.0000
# 4 0.0000 0.0000 0.0000 33.7844 0.0000 2.9451
# 5 23.5543 10.4477 43.0288 0.0000 35.8234 0.0000
# 6 0.0000 0.0000 0.0000 2.9451 0.0000 26.2923
#
#
#
# Elastic Compliance Matrix: (Units=1/GPa)
#
#
# Indices 1 2 3 4 5 6 
#
# 1 0.014265 -0.007256 0.000942 0.000000 -0.008395 0.000000
# 2 -0.007256 0.027565 -0.013087 0.000000 0.012452 0.000000
# 3 0.000942 -0.013087 0.014564 0.000000 -0.014296 0.000000
# 4 0.000000 0.000000 0.000000 0.029891 0.000000 -0.003348
# 5 -0.008395 0.012452 -0.014296 0.000000 0.046975 0.000000
# 6 0.000000 0.000000 0.000000 -0.003348 0.000000 0.038409
#
#
# Mechanical properties :
#
#
# Convention : Reuss Voigt Hill
#
# Bulk Modulus (GPa) = 56.84575 79.21838 68.03206
# Shear Modulus (GPa) = 23.11229 31.54760 27.32994
#
# Velocity S-wave (km/s) = 3.15432 3.68526 3.43008
# Velocity P-wave (km/s) = 6.14315 7.22575 6.70633
#
# Compressibility (1/GPa) = 0.01759146
#
# Stress axis : x y z
#
# Youngs Moduli (GPa) = 70.09969 36.27830 68.66316
#
# Poissons Ratio (x) = 0.26325 -0.06471
# Poissons Ratio (y) = 0.50867 0.89860
# Poissons Ratio (z) = -0.06606 0.47478
#
# Static dielectric constant tensor:
#      x y z
#    x 1.925730 0.000000 0.041610 
#    y 0.000000 1.913850 0.000000 
#    z 0.041610 0.000000 1.902900 
# 
# From -- ./inp_files/260905.got.cif
#   From: 2010.05.17/outbox.cif.g08.bks.cpg/sg15_131_cif.got.tgz:260905.got - 2010.06.03 18:47:42.
