data_PCOD9293293
_publ_section_title
;
Structure prediction by ZEFSAII (Michael W. Deem and Ramdas Pophale) SiO2 
 PCOD9293293
Probable space group: C 2/C
;
_chemical_formula_sum "Si O2"
_cell_formula_units_Z 60
_cell_length_a 10.905304
_cell_length_b 8.766980
_cell_length_c 27.754578
_cell_angle_alpha 90.000000
_cell_angle_beta 101.805887
_cell_angle_gamma 90.000000
_cell_volume 2597.388757
_symmetry_space_group_name_H-M "C 2/C"
_symmetry_group_IT_number 15
_symmetry_cell_setting 'monoclinic'
loop_
_space_group_symop_operation_xyz
x,y,z
-x,y,1/2-z
-x,-y,-z
x,-y,1/2+z
1/2+x,1/2+y,z
1/2-x,1/2+y,1/2-z
1/2-x,1/2-y,-z
1/2+x,1/2-y,1/2+z
loop_
_atom_site_type_symbol
_atom_site_label
_atom_site_fract_x
_atom_site_fract_y
_atom_site_fract_z
Si Si1 0.060984 0.831736 0.413419
Si Si2 0.428861 0.999400 0.570919
Si Si3 0.327139 0.049756 0.957441
Si Si4 0.000000 0.172507 0.750000
Si Si5 0.702898 0.284786 0.083450
Si Si6 0.788420 0.606928 0.215799
Si Si7 0.032013 0.062476 0.172444
Si Si8 0.810723 0.259836 0.195540
O O1 0.054253 0.654149 0.396724
O O2 0.200438 0.855818 0.444000
O O3 0.038547 0.965829 0.373310
O O4 0.937169 0.847549 0.437174
O O5 0.562179 0.081875 0.572484
O O6 0.318092 0.106676 0.579676
O O7 0.387722 0.939424 0.514855
O O8 0.289597 0.873965 0.944079
O O9 0.099494 0.277579 0.784814
O O10 0.937767 0.062001 0.783796
O O11 0.717994 0.260144 0.142182
O O12 0.668371 0.627769 0.171234
O O13 0.831194 0.432535 0.214761
O O14 0.743075 0.657419 0.265602
O O15 0.939816 0.187536 0.186802
#
# Coordination Sequence:
#
# PCOD9293293 Si02
#       8
#     8   8   8   4   8   8   8   8
#     4  11  23  41  67  97 139 177 227 284 337 408
#     4  10  24  42  69 102 138 183 230 281 351 415
#     4  10  22  45  68  99 142 182 227 288 343 410
#     4  12  26  42  70  94 132 174 220 284 344 398
#     4  11  23  43  66 103 136 177 230 284 338 416
#     4  12  25  45  67  97 131 178 223 283 339 410
#     4  12  24  45  64  94 134 176 225 283 336 409
#     4  12  24  46  68  95 137 179 231 281 349 405
#
# _framework density 23.100123
#
# number of rings (size 3 to 8) (size 9 to 14) (size 15 to 20)
#    0.000    0.800    5.333    0.800    3.733    1.600 
#    2.400    0.000    0.000    0.000    0.000    0.000 
#    0.000    0.000    0.000    0.000    0.000    0.000 
#
# Total GULP energy -167736.939458 kJ/mol
# GULP energy per Si atom -5591.231315 kJ/mol
# Density = 2.304755 g / cm^3
# Si number density = 23.100123 Si / 1000 Ang^3
#
#
#
# Elastic Constant Matrix: (Units=GPa)
#
#
# Indices 1 2 3 4 5 6 
#
# 1 168.2396 72.3300 12.9633 0.0000 21.6889 0.0000
# 2 72.3300 79.5915 -2.5408 0.0000 1.1953 0.0000
# 3 12.9633 -2.5408 46.6151 0.0000 14.8066 0.0000
# 4 0.0000 0.0000 0.0000 26.6383 0.0000 10.5553
# 5 21.6889 1.1953 14.8066 0.0000 30.7314 0.0000
# 6 0.0000 0.0000 0.0000 10.5553 0.0000 43.2024
#
#
#
# Elastic Compliance Matrix: (Units=1/GPa)
#
#
# Indices 1 2 3 4 5 6 
#
# 1 0.011367 -0.010276 -0.001535 0.000000 -0.006883 0.000000
# 2 -0.010276 0.021900 0.002383 0.000000 0.005252 0.000000
# 3 -0.001535 0.002383 0.025614 0.000000 -0.011351 0.000000
# 4 0.000000 0.000000 0.000000 0.041564 0.000000 -0.010155
# 5 -0.006883 0.005252 -0.011351 0.000000 0.042663 0.000000
# 6 0.000000 0.000000 0.000000 -0.010155 0.000000 0.025628
#
#
# Mechanical properties :
#
#
# Convention : Reuss Voigt Hill
#
# Bulk Modulus (GPa) = 24.98380 51.10569 38.04475
# Shear Modulus (GPa) = 24.88383 34.22731 29.55557
#
# Velocity S-wave (km/s) = 3.28566 3.85345 3.58083
# Velocity P-wave (km/s) = 5.02324 6.47846 5.79670
#
# Compressibility (1/GPa) = 0.04002593
#
# Stress axis : x y z
#
# Youngs Moduli (GPa) = 87.97071 45.66261 39.04056
#
# Poissons Ratio (x) = 0.46923 0.05992
# Poissons Ratio (y) = 0.90398 -0.09303
# Poissons Ratio (z) = 0.13502 -0.10881
#
# Static dielectric constant tensor:
#      x y z
#    x 1.906550 0.000000 0.003700 
#    y 0.000000 1.830070 0.000000 
#    z 0.003700 0.000000 1.889190 
# 
# From -- ./inp_files/310353.got.cif
#   From: 2010.05.17/outbox.cif.g08.bks.cpg/sg15_156_cif.got.tgz:310353.got - 2010.06.03 18:47:42.
