data_PCOD9293867
_publ_section_title
;
Structure prediction by ZEFSAII (Michael W. Deem and Ramdas Pophale) SiO2 
 PCOD9293867
Probable space group: C 2/C
;
_chemical_formula_sum "Si O2"
_cell_formula_units_Z 28
_cell_length_a 10.540234
_cell_length_b 18.031403
_cell_length_c 5.719701
_cell_angle_alpha 90.000000
_cell_angle_beta 75.834574
_cell_angle_gamma 90.000000
_cell_volume 1054.004972
_symmetry_space_group_name_H-M "C 2/C"
_symmetry_group_IT_number 15
_symmetry_cell_setting 'monoclinic'
loop_
_space_group_symop_operation_xyz
x,y,z
-x,y,1/2-z
-x,-y,-z
x,-y,1/2+z
1/2+x,1/2+y,z
1/2-x,1/2+y,1/2-z
1/2-x,1/2-y,-z
1/2+x,1/2-y,1/2+z
loop_
_atom_site_type_symbol
_atom_site_label
_atom_site_fract_x
_atom_site_fract_y
_atom_site_fract_z
Si Si1 0.591754 0.311278 0.890433
Si Si2 0.500000 0.450133 0.750000
Si Si3 0.280914 0.028355 0.648323
Si Si4 0.856733 0.332210 0.870878
O O1 0.500000 0.268069 0.750000
O O2 0.512513 0.387970 0.951244
O O3 0.737491 0.334285 0.739278
O O4 0.619645 0.253805 0.079932
O O5 0.632022 0.496522 0.705906
O O6 0.297991 0.116185 0.602623
O O7 0.335792 0.995537 0.376411
O O8 0.000000 0.361732 0.750000
#
# Coordination Sequence:
#
# PCOD9293867 Si02
#       4
#     8   4   8   8
#     4   9  22  47  72 109 149 212 261 315 374 477
#     4  10  22  48  80 112 146 216 266 322 368 486
#     4  12  26  47  76 114 158 203 263 320 392 463
#     4  11  25  44  73 118 158 202 256 332 397 459
#
# _framework density 26.565341
#
# number of rings (size 3 to 8) (size 9 to 14) (size 15 to 20)
#    0.857    0.571    2.857    0.857    0.000    9.143 
#    2.571    0.000    0.000    0.000    0.000    0.000 
#    0.000    0.000    0.000    0.000    0.000    0.000 
#
# Total GULP energy -77950.720507 kJ/mol
# GULP energy per Si atom -5567.908608 kJ/mol
# Density = 2.650488 g / cm^3
# Si number density = 26.565341 Si / 1000 Ang^3
#
#
#
# Elastic Constant Matrix: (Units=GPa)
#
#
# Indices 1 2 3 4 5 6 
#
# 1 141.1739 1.2335 28.8195 0.0000 -27.7824 0.0000
# 2 1.2335 140.6520 41.5143 0.0000 -21.0789 0.0000
# 3 28.8195 41.5143 100.1757 0.0000 15.6142 0.0000
# 4 0.0000 0.0000 0.0000 24.8805 0.0000 1.6937
# 5 -27.7824 -21.0789 15.6142 0.0000 35.8118 0.0000
# 6 0.0000 0.0000 0.0000 1.6937 0.0000 41.3303
#
#
#
# Elastic Compliance Matrix: (Units=1/GPa)
#
#
# Indices 1 2 3 4 5 6 
#
# 1 0.011386 0.004223 -0.007285 0.000000 0.014495 0.000000
# 2 0.004223 0.011496 -0.008094 0.000000 0.013571 0.000000
# 3 -0.007285 -0.008094 0.018300 0.000000 -0.018395 0.000000
# 4 0.000000 0.000000 0.000000 0.040305 0.000000 -0.001652
# 5 0.014495 0.013571 -0.018395 0.000000 0.055177 0.000000
# 6 0.000000 0.000000 0.000000 -0.001652 0.000000 0.024263
#
#
# Mechanical properties :
#
#
# Convention : Reuss Voigt Hill
#
# Bulk Modulus (GPa) = 52.99750 58.34847 55.67299
# Shear Modulus (GPa) = 26.38119 41.10015 33.74067
#
# Velocity S-wave (km/s) = 3.15472 3.93763 3.56771
# Velocity P-wave (km/s) = 5.76739 6.53338 6.16230
#
# Compressibility (1/GPa) = 0.01886881
#
# Stress axis : x y z
#
# Youngs Moduli (GPa) = 87.82470 86.98959 54.64557
#
# Poissons Ratio (x) = -0.36733 0.39809
# Poissons Ratio (y) = -0.37086 0.44231
# Poissons Ratio (z) = 0.63980 0.70410
#
# Static dielectric constant tensor:
#      x y z
#    x 2.170000 0.000000 -0.000430 
#    y 0.000000 2.086250 0.000000 
#    z -0.000430 0.000000 2.298710 
# 
# From -- ./inp_files/3450.got.cif
#   From: 2010.05.17/outbox.cif.g08.bks.cpg/sg15_2_cif.got.tgz:3450.got - 2010.06.03 18:47:42.
