data_PCOD9293621
_publ_section_title
;
Structure prediction by ZEFSAII (Michael W. Deem and Ramdas Pophale) SiO2 
 PCOD9293621
Probable space group: C 2/C
;
_chemical_formula_sum "Si O2"
_cell_formula_units_Z 44
_cell_length_a 20.905286
_cell_length_b 11.445333
_cell_length_c 9.219851
_cell_angle_alpha 90.000000
_cell_angle_beta 66.731554
_cell_angle_gamma 90.000000
_cell_volume 2026.586677
_symmetry_space_group_name_H-M "C 2/C"
_symmetry_group_IT_number 15
_symmetry_cell_setting 'monoclinic'
loop_
_space_group_symop_operation_xyz
x,y,z
-x,y,1/2-z
-x,-y,-z
x,-y,1/2+z
1/2+x,1/2+y,z
1/2-x,1/2+y,1/2-z
1/2-x,1/2-y,-z
1/2+x,1/2-y,1/2+z
loop_
_atom_site_type_symbol
_atom_site_label
_atom_site_fract_x
_atom_site_fract_y
_atom_site_fract_z
Si Si1 0.168248 0.810310 0.305855
Si Si2 0.549357 0.517622 0.819197
Si Si3 0.500000 0.919729 0.250000
Si Si4 0.123556 0.428723 0.704583
Si Si5 0.176782 0.375410 0.341459
Si Si6 0.608935 0.725984 0.157072
O O1 0.134801 0.696246 0.264317
O O2 0.246652 0.832517 0.186006
O O3 0.165693 0.795250 0.482084
O O4 0.118213 0.915699 0.305171
O O5 0.500000 0.585399 0.750000
O O6 0.571743 0.395560 0.726155
O O7 0.500000 0.500000 0.000000
O O8 0.556650 0.825807 0.140321
O O9 0.450691 0.007206 0.203177
O O10 0.136010 0.414925 0.521660
O O11 0.179233 0.515099 0.729290
O O12 0.138424 0.276404 0.281155
#
# Coordination Sequence:
#
# PCOD9293621 Si02
#       6
#     8   8   4   8   8   8
#     4  12  27  44  71 100 144 183 232 289 345 420
#     4  12  26  44  69 102 139 182 231 284 354 407
#     4  10  22  46  70  98 134 174 230 286 342 400
#     4  11  26  44  71 105 136 183 236 288 346 412
#     4  11  27  44  72 100 141 183 232 285 351 413
#     4  11  24  46  71  99 138 184 230 287 347 416
#
# _framework density 21.711382
#
# number of rings (size 3 to 8) (size 9 to 14) (size 15 to 20)
#    0.000    0.727    2.727    3.273    8.909    6.545 
#    0.000    0.000    0.000    0.000    0.000    0.000 
#    0.000    0.000    0.000    0.000    0.000    0.000 
#
# Total GULP energy -122903.965862 kJ/mol
# GULP energy per Si atom -5586.543903 kJ/mol
# Density = 2.166197 g / cm^3
# Si number density = 21.711382 Si / 1000 Ang^3
#
#
#
# Elastic Constant Matrix: (Units=GPa)
#
#
# Indices 1 2 3 4 5 6 
#
# 1 99.4022 37.5116 9.0778 0.0000 -2.8888 0.0000
# 2 37.5116 113.4878 2.8198 0.0000 0.5961 0.0000
# 3 9.0778 2.8198 81.5955 0.0000 14.1603 0.0000
# 4 0.0000 0.0000 0.0000 2.7685 0.0000 -1.5174
# 5 -2.8888 0.5961 14.1603 0.0000 32.0898 0.0000
# 6 0.0000 0.0000 0.0000 -1.5174 0.0000 23.8703
#
#
#
# Elastic Compliance Matrix: (Units=1/GPa)
#
#
# Indices 1 2 3 4 5 6 
#
# 1 0.011695 -0.003838 -0.001477 0.000000 0.001776 0.000000
# 2 -0.003838 0.010079 0.000185 0.000000 -0.000615 0.000000
# 3 -0.001477 0.000185 0.013469 0.000000 -0.006080 0.000000
# 4 0.000000 0.000000 0.000000 0.374250 0.000000 0.023791
# 5 0.001776 -0.000615 -0.006080 0.000000 0.034017 0.000000
# 6 0.000000 0.000000 0.000000 0.023791 0.000000 0.043405
#
#
# Mechanical properties :
#
#
# Convention : Reuss Voigt Hill
#
# Bulk Modulus (GPa) = 40.02664 43.70042 41.86353
# Shear Modulus (GPa) = 9.89118 28.08415 18.98766
#
# Velocity S-wave (km/s) = 2.13674 3.60046 2.96049
# Velocity P-wave (km/s) = 4.95614 6.12013 5.56863
#
# Compressibility (1/GPa) = 0.02498336
#
# Stress axis : x y z
#
# Youngs Moduli (GPa) = 85.50634 99.21805 74.24714
#
# Poissons Ratio (x) = 0.38082 0.10964
# Poissons Ratio (y) = 0.32819 -0.01376
# Poissons Ratio (z) = 0.12626 -0.01839
#
# Static dielectric constant tensor:
#      x y z
#    x 1.789310 0.000000 0.078080 
#    y 0.000000 1.805050 0.000000 
#    z 0.078080 0.000000 3.119570 
# 
# From -- ./inp_files/54350.got.cif
#   From: 2010.05.17/outbox.cif.g08.bks.cpg/sg15_28_cif.got.tgz:54350.got - 2010.06.03 18:47:42.
