data_PCOD9293341
_publ_section_title
;
Structure prediction by ZEFSAII (Michael W. Deem and Ramdas Pophale) SiO2 
 PCOD9293341
Probable space group: C 2/C
;
_chemical_formula_sum "Si O2"
_cell_formula_units_Z 32
_cell_length_a 23.249907
_cell_length_b 9.375332
_cell_length_c 14.775776
_cell_angle_alpha 90.000000
_cell_angle_beta 155.346782
_cell_angle_gamma 90.000000
_cell_volume 1343.459373
_symmetry_space_group_name_H-M "C 2/C"
_symmetry_group_IT_number 15
_symmetry_cell_setting 'monoclinic'
loop_
_space_group_symop_operation_xyz
x,y,z
-x,y,1/2-z
-x,-y,-z
x,-y,1/2+z
1/2+x,1/2+y,z
1/2-x,1/2+y,1/2-z
1/2-x,1/2-y,-z
1/2+x,1/2-y,1/2+z
loop_
_atom_site_type_symbol
_atom_site_label
_atom_site_fract_x
_atom_site_fract_y
_atom_site_fract_z
Si Si1 0.861323 0.462661 0.199129
Si Si2 0.176267 0.888988 0.578232
Si Si3 0.500000 0.139737 0.250000
Si Si4 0.776125 0.186633 0.148167
Si Si5 0.000000 0.874966 0.750000
O O1 0.801622 0.552427 0.196817
O O2 0.888432 0.305581 0.279599
O O3 0.974079 0.542692 0.301101
O O4 0.741839 0.437089 0.951553
O O5 0.123102 0.746264 0.452901
O O6 0.208520 0.861231 0.728167
O O7 0.057360 0.010634 0.405088
O O8 0.630728 0.270769 0.930903
#
# Coordination Sequence:
#
# PCOD9293341 Si02
#       5
#     8   8   4   8   4
#     4  10  23  43  66 100 139 167 235 282 320 426
#     4  10  23  44  69 100 138 180 221 285 343 394
#     4  11  23  42  66 104 135 173 232 276 338 415
#     4  10  22  45  70  95 139 182 216 288 342 391
#     4   9  21  44  66 100 137 169 232 272 330 413
#
# _framework density 23.819102999999998
#
# number of rings (size 3 to 8) (size 9 to 14) (size 15 to 20)
#    0.000    2.000    0.000    1.500    7.000    1.000 
#   13.500   12.500    0.000    0.000    0.000    0.000 
#    0.000    0.000    0.000    0.000    0.000    0.000 
#
# Total GULP energy -89324.786157 kJ/mol
# GULP energy per Si atom -5582.799135 kJ/mol
# Density = 2.376489 g / cm^3
# Si number density = 23.819103 Si / 1000 Ang^3
#
#
#
# Elastic Constant Matrix: (Units=GPa)
#
#
# Indices 1 2 3 4 5 6 
#
# 1 140.6226 44.7491 40.6757 0.0000 -54.7418 0.0000
# 2 44.7491 71.1998 22.0715 0.0000 -15.4789 0.0000
# 3 40.6757 22.0715 64.4742 0.0000 -25.1764 0.0000
# 4 0.0000 0.0000 0.0000 21.8486 0.0000 1.8161
# 5 -54.7418 -15.4789 -25.1764 0.0000 46.5190 0.0000
# 6 0.0000 0.0000 0.0000 1.8161 0.0000 37.9672
#
#
#
# Elastic Compliance Matrix: (Units=1/GPa)
#
#
# Indices 1 2 3 4 5 6 
#
# 1 0.015407 -0.005821 -0.001780 0.000000 0.015231 0.000000
# 2 -0.005821 0.018234 -0.003646 0.000000 -0.002755 0.000000
# 3 -0.001780 -0.003646 0.021035 0.000000 0.008076 0.000000
# 4 0.000000 0.000000 0.000000 0.045952 0.000000 -0.002198
# 5 0.015231 -0.002755 0.008076 0.000000 0.042873 0.000000
# 6 0.000000 0.000000 0.000000 -0.002198 0.000000 0.026444
#
#
# Mechanical properties :
#
#
# Convention : Reuss Voigt Hill
#
# Bulk Modulus (GPa) = 31.07228 54.58767 42.82997
# Shear Modulus (GPa) = 24.61021 32.52031 28.56526
#
# Velocity S-wave (km/s) = 3.21785 3.69901 3.46679
# Velocity P-wave (km/s) = 5.18455 6.41957 5.83483
#
# Compressibility (1/GPa) = 0.03218303
#
# Stress axis : x y z
#
# Youngs Moduli (GPa) = 64.90380 54.84133 47.53978
#
# Poissons Ratio (x) = 0.31920 0.08464
# Poissons Ratio (y) = 0.37777 0.17333
# Poissons Ratio (z) = 0.11555 0.19995
#
# Static dielectric constant tensor:
#      x y z
#    x 1.951120 0.000000 0.080760 
#    y 0.000000 1.952360 0.000000 
#    z 0.080760 0.000000 1.956980 
# 
# From -- ./inp_files/94825.got.cif
#   From: 2010.05.17/outbox.cif.g08.bks.cpg/sg15_48_cif.got.tgz:94825.got - 2010.06.03 18:47:42.
