data_PCOD9293635
_publ_section_title
;
Structure prediction by ZEFSAII (Michael W. Deem and Ramdas Pophale) SiO2 
 PCOD9293635
Probable space group: C 2/C
;
_chemical_formula_sum "Si O2"
_cell_formula_units_Z 40
_cell_length_a 11.913347
_cell_length_b 14.381802
_cell_length_c 8.551067
_cell_angle_alpha 90.000000
_cell_angle_beta 90.476115
_cell_angle_gamma 90.000000
_cell_volume 1465.049881
_symmetry_space_group_name_H-M "C 2/C"
_symmetry_group_IT_number 15
_symmetry_cell_setting 'monoclinic'
loop_
_space_group_symop_operation_xyz
x,y,z
-x,y,1/2-z
-x,-y,-z
x,-y,1/2+z
1/2+x,1/2+y,z
1/2-x,1/2+y,1/2-z
1/2-x,1/2-y,-z
1/2+x,1/2-y,1/2+z
loop_
_atom_site_type_symbol
_atom_site_label
_atom_site_fract_x
_atom_site_fract_y
_atom_site_fract_z
Si Si1 0.159205 0.552540 0.083791
Si Si2 0.093649 0.077702 0.537812
Si Si3 0.154451 0.378267 0.928656
Si Si4 0.175481 0.188012 0.824320
Si Si5 0.599145 0.775054 0.371111
O O1 0.285509 0.544495 0.021135
O O2 0.102902 0.453832 0.044809
O O3 0.111335 0.643941 0.999356
O O4 0.162642 0.567391 0.267303
O O5 0.114637 0.111766 0.717099
O O6 0.075552 0.174033 0.443602
O O7 0.000000 0.000000 0.500000
O O8 0.105825 0.278148 0.877795
O O9 0.269893 0.350784 0.016879
O O10 0.281075 0.223954 0.719654
O O11 0.500000 0.795374 0.250000
#
# Coordination Sequence:
#
# PCOD9293635 Si02
#       5
#     8   8   8   8   8
#     4  11  22  44  70 107 144 202 258 316 392 465
#     4  11  23  42  73 107 154 202 257 322 393 466
#     4  11  22  42  78  99 146 207 260 309 398 473
#     4  10  22  46  71 106 152 206 251 326 397 465
#     4  11  23  43  72 105 152 200 252 318 389 466
#
# _framework density 27.302827000000001
#
# number of rings (size 3 to 8) (size 9 to 14) (size 15 to 20)
#    0.000    1.200    4.000    3.600    2.800    1.600 
#    0.000    6.000    0.000    0.000    0.000    0.000 
#    0.000    0.000    0.000    0.000    0.000    0.000 
#
# Total GULP energy -112195.735891 kJ/mol
# GULP energy per Si atom -5609.786795 kJ/mol
# Density = 2.724068 g / cm^3
# Si number density = 27.302827 Si / 1000 Ang^3
#
#
#
# Elastic Constant Matrix: (Units=GPa)
#
#
# Indices 1 2 3 4 5 6 
#
# 1 145.7489 66.1773 26.2812 0.0000 21.3634 0.0000
# 2 66.1773 240.5726 98.0341 0.0000 14.8010 0.0000
# 3 26.2812 98.0341 211.3567 0.0000 26.7573 0.0000
# 4 0.0000 0.0000 0.0000 82.5111 0.0000 6.1954
# 5 21.3634 14.8010 26.7573 0.0000 29.4604 0.0000
# 6 0.0000 0.0000 0.0000 6.1954 0.0000 61.0089
#
#
#
# Elastic Compliance Matrix: (Units=1/GPa)
#
#
# Indices 1 2 3 4 5 6 
#
# 1 0.008624 -0.002316 0.000730 0.000000 -0.005754 0.000000
# 2 -0.002316 0.005753 -0.002517 0.000000 0.001075 0.000000
# 3 0.000730 -0.002517 0.006457 0.000000 -0.005130 0.000000
# 4 0.000000 0.000000 0.000000 0.012213 0.000000 -0.001240
# 5 -0.005754 0.001075 -0.005130 0.000000 0.042235 0.000000
# 6 0.000000 0.000000 0.000000 -0.001240 0.000000 0.016517
#
#
# Mechanical properties :
#
#
# Convention : Reuss Voigt Hill
#
# Bulk Modulus (GPa) = 79.17570 108.74037 93.95803
# Shear Modulus (GPa) = 47.97779 61.74178 54.85979
#
# Velocity S-wave (km/s) = 4.19650 4.76054 4.48739
# Velocity P-wave (km/s) = 7.24865 8.37443 7.83179
#
# Compressibility (1/GPa) = 0.01263014
#
# Stress axis : x y z
#
# Youngs Moduli (GPa) = 115.95046 173.81481 154.86424
#
# Poissons Ratio (x) = 0.40255 -0.11309
# Poissons Ratio (y) = 0.26854 0.38973
# Poissons Ratio (z) = -0.08467 0.43743
#
# Static dielectric constant tensor:
#      x y z
#    x 2.209440 0.000000 -0.034160 
#    y 0.000000 2.170630 0.000000 
#    z -0.034160 0.000000 2.099790 
# 
# From -- ./inp_files/38059.got.cif
#   From: 2010.05.17/outbox.cif.g08.bks.cpg/sg15_20_cif.got.tgz:38059.got - 2010.06.03 18:47:42.
