data_PCOD9293923
_publ_section_title
;
Structure prediction by ZEFSAII (Michael W. Deem and Ramdas Pophale) SiO2 
 PCOD9293923
Probable space group: C 2/C
;
_chemical_formula_sum "Si O2"
_cell_formula_units_Z 52
_cell_length_a 8.426926
_cell_length_b 25.572151
_cell_length_c 14.959583
_cell_angle_alpha 90.000000
_cell_angle_beta 50.184503
_cell_angle_gamma 90.000000
_cell_volume 2476.164839
_symmetry_space_group_name_H-M "C 2/C"
_symmetry_group_IT_number 15
_symmetry_cell_setting 'monoclinic'
loop_
_space_group_symop_operation_xyz
x,y,z
-x,y,1/2-z
-x,-y,-z
x,-y,1/2+z
1/2+x,1/2+y,z
1/2-x,1/2+y,1/2-z
1/2-x,1/2-y,-z
1/2+x,1/2-y,1/2+z
loop_
_atom_site_type_symbol
_atom_site_label
_atom_site_fract_x
_atom_site_fract_y
_atom_site_fract_z
Si Si1 0.547323 0.071353 0.541616
Si Si2 0.500000 0.189372 0.750000
Si Si3 0.500000 0.151623 0.250000
Si Si4 0.669899 0.522033 0.613695
Si Si5 0.324052 0.355675 0.010102
Si Si6 0.615092 0.291041 0.799045
Si Si7 0.000000 0.516104 0.750000
Si Si8 0.817318 0.934257 0.583057
O O1 0.319971 0.069323 0.586474
O O2 0.651432 0.127387 0.501520
O O3 0.689830 0.029979 0.438027
O O4 0.529378 0.049561 0.649914
O O5 0.309699 0.155896 0.854619
O O6 0.597761 0.229307 0.787443
O O7 0.662131 0.185278 0.252420
O O8 0.353866 0.112460 0.361070
O O9 0.500000 0.516766 0.750000
O O10 0.617128 0.536668 0.531351
O O11 0.459443 0.306691 0.934143
O O12 0.479615 0.404888 0.955791
O O13 0.500000 0.313427 0.750000
O O14 0.801332 0.477520 0.814587
#
# Coordination Sequence:
#
# PCOD9293923 Si02
#       8
#     8   4   4   8   8   8   4   8
#     4  10  23  36  58  84 115 164 198 243 293 349
#     4  10  23  40  61  88 122 148 195 258 307 362
#     4   9  18  42  65  92 114 156 209 234 306 373
#     4  10  23  37  52  84 129 151 198 247 287 347
#     4  11  22  39  63  88 114 160 202 237 306 363
#     4   9  22  40  66  87 122 154 197 257 308 360
#     4   9  19  38  58  82 120 154 200 246 283 347
#     4   9  21  37  61  85 119 156 196 244 291 353
#
# _framework density 21.000218
#
# number of rings (size 3 to 8) (size 9 to 14) (size 15 to 20)
#    0.462    1.846    0.000    0.923    8.615    1.846 
#    0.000    4.615    0.000    0.000    0.000    0.000 
#    0.000    0.000    0.000    0.000    0.000    0.000 
#
# Total GULP energy -144855.237320 kJ/mol
# GULP energy per Si atom -5571.355282 kJ/mol
# Density = 2.095242 g / cm^3
# Si number density = 21.000218 Si / 1000 Ang^3
#
#
#
# Elastic Constant Matrix: (Units=GPa)
#
#
# Indices 1 2 3 4 5 6 
#
# 1 69.4620 9.9705 30.0040 0.0000 -15.2921 0.0000
# 2 9.9705 53.4835 24.5832 0.0000 -12.0358 0.0000
# 3 30.0040 24.5832 146.1539 0.0000 -17.0672 0.0000
# 4 0.0000 0.0000 0.0000 16.1181 0.0000 6.2445
# 5 -15.2921 -12.0358 -17.0672 0.0000 22.4055 0.0000
# 6 0.0000 0.0000 0.0000 6.2445 0.0000 13.0727
#
#
#
# Elastic Compliance Matrix: (Units=1/GPa)
#
#
# Indices 1 2 3 4 5 6 
#
# 1 0.017702 0.000144 -0.002457 0.000000 0.010288 0.000000
# 2 0.000144 0.022109 -0.002579 0.000000 0.010010 0.000000
# 3 -0.002457 -0.002579 0.008147 0.000000 0.003144 0.000000
# 4 0.000000 0.000000 0.000000 0.076131 0.000000 -0.036366
# 5 0.010288 0.010010 0.003144 0.000000 0.059426 0.000000
# 6 0.000000 0.000000 0.000000 -0.036366 0.000000 0.093867
#
#
# Mechanical properties :
#
#
# Convention : Reuss Voigt Hill
#
# Bulk Modulus (GPa) = 26.19575 44.24608 35.22092
# Shear Modulus (GPa) = 16.67282 23.95537 20.31409
#
# Velocity S-wave (km/s) = 2.82074 3.38112 3.11356
# Velocity P-wave (km/s) = 4.80728 6.02974 5.45287
#
# Compressibility (1/GPa) = 0.03817414
#
# Stress axis : x y z
#
# Youngs Moduli (GPa) = 56.49151 45.23111 122.73766
#
# Poissons Ratio (x) = -0.00653 0.30156
# Poissons Ratio (y) = -0.00816 0.31659
# Poissons Ratio (z) = 0.13880 0.11667
#
# Static dielectric constant tensor:
#      x y z
#    x 1.891030 0.000000 0.023780 
#    y 0.000000 1.758200 0.000000 
#    z 0.023780 0.000000 1.759620 
# 
# From -- ./inp_files/194007.got.cif
#   From: 2010.05.17/outbox.cif.g08.bks.cpg/sg15_98_cif.got.tgz:194007.got - 2010.06.03 18:47:42.
