data_PCOD9293378
_publ_section_title
;
Structure prediction by ZEFSAII (Michael W. Deem and Ramdas Pophale) SiO2 
 PCOD9293378
Probable space group: C 2/C
;
_chemical_formula_sum "Si O2"
_cell_formula_units_Z 60
_cell_length_a 17.396135
_cell_length_b 10.762616
_cell_length_c 14.906765
_cell_angle_alpha 90.000000
_cell_angle_beta 68.614115
_cell_angle_gamma 90.000000
_cell_volume 2598.792774
_symmetry_space_group_name_H-M "C 2/C"
_symmetry_group_IT_number 15
_symmetry_cell_setting 'monoclinic'
loop_
_space_group_symop_operation_xyz
x,y,z
-x,y,1/2-z
-x,-y,-z
x,-y,1/2+z
1/2+x,1/2+y,z
1/2-x,1/2+y,1/2-z
1/2-x,1/2-y,-z
1/2+x,1/2-y,1/2+z
loop_
_atom_site_type_symbol
_atom_site_label
_atom_site_fract_x
_atom_site_fract_y
_atom_site_fract_z
Si Si1 0.435851 0.100408 0.927344
Si Si2 0.000000 0.139455 0.750000
Si Si3 0.600948 0.473347 0.371299
Si Si4 0.712432 0.926480 0.706352
Si Si5 0.082951 0.764269 0.920803
Si Si6 0.178188 0.272729 0.894676
Si Si7 0.615964 0.829374 0.590676
Si Si8 0.857485 0.686709 0.793220
O O1 0.512070 0.160227 0.946095
O O2 0.423913 0.183262 0.843305
O O3 0.436740 0.956893 0.899654
O O4 0.356211 0.124851 0.023274
O O5 0.947624 0.059576 0.699664
O O6 0.938378 0.228380 0.832660
O O7 0.696350 0.519253 0.316825
O O8 0.560371 0.590727 0.439202
O O9 0.616782 0.344980 0.418148
O O10 0.684178 0.829832 0.793010
O O11 0.694559 0.867548 0.616895
O O12 0.653638 0.045813 0.734858
O O13 0.123122 0.758696 0.805236
O O14 0.135633 0.723934 0.984211
O O15 0.271360 0.229739 0.873769
#
# Coordination Sequence:
#
# PCOD9293378 Si02
#       8
#     8   4   8   8   8   8   8   8
#     4  11  25  41  72 107 139 188 245 315 368 429
#     4  12  26  46  72 106 156 196 242 310 398 438
#     4  11  26  44  69 106 148 196 237 307 377 445
#     4  10  22  45  71  98 139 190 248 293 359 441
#     4  12  25  43  67 110 144 186 243 301 376 439
#     4  11  21  46  68  99 141 192 244 300 368 448
#     4  11  26  45  74 106 141 196 251 307 367 450
#     4  10  23  41  68  98 142 183 239 301 357 438
#
# _framework density 23.087644000000001
#
# number of rings (size 3 to 8) (size 9 to 14) (size 15 to 20)
#    0.000    1.067    2.667    2.800    5.600    2.667 
#    0.000    2.667    0.000    0.000    0.000    0.000 
#    0.000    0.000    0.000    0.000    0.000    0.000 
#
# Total GULP energy -167666.433044 kJ/mol
# GULP energy per Si atom -5588.881101 kJ/mol
# Density = 2.303510 g / cm^3
# Si number density = 23.087644 Si / 1000 Ang^3
#
#
#
# Elastic Constant Matrix: (Units=GPa)
#
#
# Indices 1 2 3 4 5 6 
#
# 1 77.1301 26.5183 30.2316 0.0000 15.4020 0.0000
# 2 26.5183 96.1334 12.9136 0.0000 15.1230 0.0000
# 3 30.2316 12.9136 69.8373 0.0000 21.7641 0.0000
# 4 0.0000 0.0000 0.0000 24.2073 0.0000 -19.4440
# 5 15.4020 15.1230 21.7641 0.0000 37.7513 0.0000
# 6 0.0000 0.0000 0.0000 -19.4440 0.0000 -11.6535
#
#
#
# Elastic Compliance Matrix: (Units=1/GPa)
#
#
# Indices 1 2 3 4 5 6 
#
# 1 0.016961 -0.003549 -0.006062 0.000000 -0.002004 0.000000
# 2 -0.003549 0.011883 0.000453 0.000000 -0.003573 0.000000
# 3 -0.006062 0.000453 0.019681 0.000000 -0.009055 0.000000
# 4 0.000000 0.000000 0.000000 0.017652 0.000000 -0.029453
# 5 -0.002004 -0.003573 -0.009055 0.000000 0.033958 0.000000
# 6 0.000000 0.000000 0.000000 -0.029453 0.000000 -0.036668
#
#
# Mechanical properties :
#
#
# Convention : Reuss Voigt Hill
#
# Bulk Modulus (GPa) = 33.10319 42.49198 37.79759
# Shear Modulus (GPa) = 54.43470 21.62351 38.02910
#
# Velocity S-wave (km/s) = 4.86093 3.06369 4.06293
# Velocity P-wave (km/s) = 6.77303 5.56413 6.19812
#
# Compressibility (1/GPa) = 0.03020857
#
# Stress axis : x y z
#
# Youngs Moduli (GPa) = 58.95739 84.15703 50.81016
#
# Poissons Ratio (x) = 0.29870 0.30799
# Poissons Ratio (y) = 0.20926 -0.02301
# Poissons Ratio (z) = 0.35738 -0.03810
#
# Static dielectric constant tensor:
#      x y z
#    x 1.908970 0.000000 -0.031860 
#    y 0.000000 1.863980 0.000000 
#    z -0.031860 0.000000 1.846760 
# 
# From -- ./inp_files/160891.got.cif
#   From: 2010.05.17/outbox.cif.g08.bks.cpg/sg15_81_cif.got.tgz:160891.got - 2010.06.03 18:47:42.
