data_PCOD9293407
_publ_section_title
;
Structure prediction by ZEFSAII (Michael W. Deem and Ramdas Pophale) SiO2 
 PCOD9293407
Probable space group: C 2/C
;
_chemical_formula_sum "Si O2"
_cell_formula_units_Z 48
_cell_length_a 8.571810
_cell_length_b 16.015264
_cell_length_c 22.058460
_cell_angle_alpha 90.000000
_cell_angle_beta 131.979025
_cell_angle_gamma 90.000000
_cell_volume 2251.118649
_symmetry_space_group_name_H-M "C 2/C"
_symmetry_group_IT_number 15
_symmetry_cell_setting 'monoclinic'
loop_
_space_group_symop_operation_xyz
x,y,z
-x,y,1/2-z
-x,-y,-z
x,-y,1/2+z
1/2+x,1/2+y,z
1/2-x,1/2+y,1/2-z
1/2-x,1/2-y,-z
1/2+x,1/2-y,1/2+z
loop_
_atom_site_type_symbol
_atom_site_label
_atom_site_fract_x
_atom_site_fract_y
_atom_site_fract_z
Si Si1 0.527734 0.562603 0.827841
Si Si2 0.731337 0.729155 0.424942
Si Si3 0.353422 0.612931 0.311656
Si Si4 0.313275 0.118028 0.664824
Si Si5 0.093128 0.564570 0.359850
Si Si6 0.578243 0.089141 0.496125
O O1 0.500000 0.580805 0.750000
O O2 0.510152 0.462353 0.832990
O O3 0.343834 0.591579 0.823788
O O4 0.731920 0.605941 0.908610
O O5 0.750000 0.750000 0.500000
O O6 0.498758 0.694428 0.348034
O O7 0.781144 0.814868 0.404064
O O8 0.900520 0.658623 0.453343
O O9 0.261291 0.601752 0.355952
O O10 0.140195 0.600991 0.216176
O O11 0.500000 0.159955 0.750000
O O12 0.399074 0.034810 0.653341
O O13 0.145794 0.579462 0.443526
O O14 0.500000 0.000000 0.500000
#
# Coordination Sequence:
#
# PCOD9293407 Si02
#       6
#     8   8   8   8   8   8
#     4  11  24  44  74  99 135 185 242 280 338 425
#     4  12  29  44  68 104 147 178 229 294 359 400
#     4  10  22  45  72  99 135 186 230 282 334 427
#     4  11  25  45  71 102 141 179 223 293 357 407
#     4  10  22  46  75 101 129 182 244 270 342 423
#     4  12  25  42  72 102 136 185 237 283 332 424
#
# _framework density 21.322731000000001
#
# number of rings (size 3 to 8) (size 9 to 14) (size 15 to 20)
#    0.000    1.000    5.000    2.000    7.000    2.000 
#    0.000    0.000    0.000    0.000    0.000    0.000 
#    0.000    0.000    0.000    0.000    0.000    0.000 
#
# Total GULP energy -134079.544683 kJ/mol
# GULP energy per Si atom -5586.647695 kJ/mol
# Density = 2.127420 g / cm^3
# Si number density = 21.322731 Si / 1000 Ang^3
#
#
#
# Elastic Constant Matrix: (Units=GPa)
#
#
# Indices 1 2 3 4 5 6 
#
# 1 74.2885 40.4367 66.2284 0.0000 -16.6461 0.0000
# 2 40.4367 74.1074 38.0141 0.0000 -8.4586 0.0000
# 3 66.2284 38.0141 140.8398 0.0000 -25.7852 0.0000
# 4 0.0000 0.0000 0.0000 29.1639 0.0000 1.9765
# 5 -16.6461 -8.4586 -25.7852 0.0000 50.0545 0.0000
# 6 0.0000 0.0000 0.0000 1.9765 0.0000 11.5790
#
#
#
# Elastic Compliance Matrix: (Units=1/GPa)
#
#
# Indices 1 2 3 4 5 6 
#
# 1 0.028718 -0.010088 -0.010318 0.000000 0.002530 0.000000
# 2 -0.010088 0.019219 -0.000511 0.000000 -0.000371 0.000000
# 3 -0.010318 -0.000511 0.012638 0.000000 0.002993 0.000000
# 4 0.000000 0.000000 0.000000 0.034690 0.000000 -0.005922
# 5 0.002530 -0.000371 0.002993 0.000000 0.022299 0.000000
# 6 0.000000 0.000000 0.000000 -0.005922 0.000000 0.087374
#
#
# Mechanical properties :
#
#
# Convention : Reuss Voigt Hill
#
# Bulk Modulus (GPa) = 53.36376 64.28825 58.82601
# Shear Modulus (GPa) = 19.76131 27.79656 23.77894
#
# Velocity S-wave (km/s) = 3.04760 3.61447 3.34307
# Velocity P-wave (km/s) = 6.12085 6.90180 6.52302
#
# Compressibility (1/GPa) = 0.01873931
#
# Stress axis : x y z
#
# Youngs Moduli (GPa) = 34.82154 52.03307 79.12575
#
# Poissons Ratio (x) = 0.52493 0.81642
# Poissons Ratio (y) = 0.35129 0.04045
# Poissons Ratio (z) = 0.35929 0.02660
#
# Static dielectric constant tensor:
#      x y z
#    x 1.723200 0.000000 -0.031130 
#    y 0.000000 1.787570 0.000000 
#    z -0.031130 0.000000 1.687260 
# 
# From -- ./inp_files/232868.got.cif
#   From: 2010.05.17/outbox.cif.g08.bks.cpg/sg15_117_cif.got.tgz:232868.got - 2010.06.03 18:47:42.
