data_PCOD9293773
_publ_section_title
;
Structure prediction by ZEFSAII (Michael W. Deem and Ramdas Pophale) SiO2 
 PCOD9293773
Probable space group: C 2/C
;
_chemical_formula_sum "Si O2"
_cell_formula_units_Z 64
_cell_length_a 23.918128
_cell_length_b 5.215499
_cell_length_c 23.170338
_cell_angle_alpha 90.000000
_cell_angle_beta 116.453653
_cell_angle_gamma 90.000000
_cell_volume 2587.745614
_symmetry_space_group_name_H-M "C 2/C"
_symmetry_group_IT_number 15
_symmetry_cell_setting 'monoclinic'
loop_
_space_group_symop_operation_xyz
x,y,z
-x,y,1/2-z
-x,-y,-z
x,-y,1/2+z
1/2+x,1/2+y,z
1/2-x,1/2+y,1/2-z
1/2-x,1/2-y,-z
1/2+x,1/2-y,1/2+z
loop_
_atom_site_type_symbol
_atom_site_label
_atom_site_fract_x
_atom_site_fract_y
_atom_site_fract_z
Si Si1 0.404457 0.811227 0.238762
Si Si2 0.608888 0.140289 0.102993
Si Si3 0.280713 0.501140 0.041826
Si Si4 0.725979 0.197854 0.631498
Si Si5 0.461448 0.674480 0.145443
Si Si6 0.031586 0.345313 0.923778
Si Si7 0.842724 0.179467 0.755273
Si Si8 0.366784 0.513584 0.483939
O O1 0.416329 0.717329 0.179118
O O2 0.470102 0.765402 0.300820
O O3 0.355693 0.611009 0.242533
O O4 0.383262 0.104700 0.238892
O O5 0.537198 0.088631 0.085174
O O6 0.635865 0.305891 0.168849
O O7 0.608271 0.281241 0.041593
O O8 0.662103 0.926544 0.124069
O O9 0.265262 0.472122 0.102435
O O10 0.250000 0.250000 0.000000
O O11 0.348868 0.505249 0.043538
O O12 0.250000 0.750000 0.000000
O O13 0.772210 0.252096 0.705220
O O14 0.697641 0.425133 0.579645
O O15 0.472461 0.390231 0.124548
O O16 0.443051 0.895315 0.091987
O O17 0.079782 0.230384 0.992506
#
# Coordination Sequence:
#
# PCOD9293773 Si02
#       8
#     8   8   8   8   8   8   8   8
#     4  11  24  48  75 111 151 192 254 317 377 441
#     4  12  27  49  72 108 152 199 253 296 379 449
#     4  10  22  47  71 102 138 187 248 302 362 426
#     4  11  29  47  76 106 151 198 249 309 371 446
#     4  11  24  47  76 112 149 195 250 318 380 440
#     4  12  27  47  77 111 150 198 248 312 375 455
#     4  12  28  46  77 110 149 199 249 315 371 456
#     4  11  28  48  75 106 151 199 249 314 369 450
#
# _framework density 24.731953000000001
#
# number of rings (size 3 to 8) (size 9 to 14) (size 15 to 20)
#    0.000    0.750    3.750    1.125   12.250    2.500 
#    0.000    0.000    0.000    0.000    0.000    0.000 
#    0.000    0.000    0.000    0.000    0.000    0.000 
#
# Total GULP energy -178931.338607 kJ/mol
# GULP energy per Si atom -5591.604331 kJ/mol
# Density = 2.467566 g / cm^3
# Si number density = 24.731953 Si / 1000 Ang^3
#
#
#
# Elastic Constant Matrix: (Units=GPa)
#
#
# Indices 1 2 3 4 5 6 
#
# 1 115.0608 26.4356 17.2044 0.0007 -2.4344 -0.0003
# 2 26.4356 101.0899 14.7072 0.0018 -16.6255 -0.0013
# 3 17.2044 14.7072 106.8318 0.0005 16.9476 0.0004
# 4 0.0007 0.0018 0.0005 25.0345 0.0003 0.7883
# 5 -2.4344 -16.6255 16.9476 0.0003 30.0344 -0.0003
# 6 -0.0003 -0.0013 0.0004 0.7883 -0.0003 42.1102
#
#
#
# Elastic Compliance Matrix: (Units=1/GPa)
#
#
# Indices 1 2 3 4 5 6 
#
# 1 0.009396 -0.002240 -0.001240 0.000000 0.000221 0.000000
# 2 -0.002240 0.012173 -0.002587 -0.000001 0.008016 0.000000
# 3 -0.001240 -0.002587 0.011158 0.000000 -0.007829 0.000000
# 4 0.000000 -0.000001 0.000000 0.039968 -0.000001 -0.000748
# 5 0.000221 0.008016 -0.007829 -0.000001 0.042168 0.000001
# 6 0.000000 0.000000 0.000000 -0.000748 0.000001 0.023761
#
#
# Mechanical properties :
#
#
# Convention : Reuss Voigt Hill
#
# Bulk Modulus (GPa) = 48.55975 48.85300 48.70637
# Shear Modulus (GPa) = 31.72141 37.07818 34.39979
#
# Velocity S-wave (km/s) = 3.58524 3.87615 3.73353
# Velocity P-wave (km/s) = 6.06759 6.31099 6.19049
#
# Compressibility (1/GPa) = 0.02059319
#
# Stress axis : x y z
#
# Youngs Moduli (GPa) = 106.43016 82.15079 89.62031
#
# Poissons Ratio (x) = 0.18405 0.11111
# Poissons Ratio (y) = 0.23844 0.23182
# Poissons Ratio (z) = 0.13195 0.21250
#
# Static dielectric constant tensor:
#      x y z
#    x 1.999440 0.000000 -0.025710 
#    y 0.000000 1.942750 0.000000 
#    z -0.025710 0.000000 2.027890 
# 
# From -- ./inp_files/281216.got.cif
#   From: 2010.05.17/outbox.cif.g08.bks.cpg/sg15_141_cif.got.tgz:281216.got - 2010.06.03 18:47:42.
