data_PCOD9293213
_publ_section_title
;
Structure prediction by ZEFSAII (Michael W. Deem and Ramdas Pophale) SiO2 
 PCOD9293213
Probable space group: C 2/C
;
_chemical_formula_sum "Si O2"
_cell_formula_units_Z 44
_cell_length_a 7.287240
_cell_length_b 8.188142
_cell_length_c 33.458786
_cell_angle_alpha 90.000000
_cell_angle_beta 123.704900
_cell_angle_gamma 90.000000
_cell_volume 1660.860755
_symmetry_space_group_name_H-M "C 2/C"
_symmetry_group_IT_number 15
_symmetry_cell_setting 'monoclinic'
loop_
_space_group_symop_operation_xyz
x,y,z
-x,y,1/2-z
-x,-y,-z
x,-y,1/2+z
1/2+x,1/2+y,z
1/2-x,1/2+y,1/2-z
1/2-x,1/2-y,-z
1/2+x,1/2-y,1/2+z
loop_
_atom_site_type_symbol
_atom_site_label
_atom_site_fract_x
_atom_site_fract_y
_atom_site_fract_z
Si Si1 0.566048 0.192335 0.099274
Si Si2 0.000000 0.222681 0.250000
Si Si3 0.246084 0.989675 0.011196
Si Si4 0.392534 0.299071 0.576937
Si Si5 0.669787 0.018830 0.241973
Si Si6 0.027609 0.029806 0.852570
O O1 0.733992 0.288064 0.090341
O O2 0.484191 0.298585 0.126181
O O3 0.370952 0.140490 0.046176
O O4 0.726334 0.035996 0.127413
O O5 0.957484 0.349523 0.281147
O O6 0.782539 0.116882 0.221056
O O7 0.401453 0.837042 0.044381
O O8 0.217086 0.952096 0.960651
O O9 0.000000 0.000000 0.000000
O O10 0.562500 0.392708 0.626286
O O11 0.500000 0.115628 0.250000
O O12 0.875668 0.973573 0.295398
#
# Coordination Sequence:
#
# PCOD9293213 Si02
#       6
#     8   4   8   8   8   8
#     4  10  23  40  64  88 134 173 218 285 331 405
#     4  10  24  44  78 110 138 190 234 294 368 438
#     4  11  22  38  60  93 129 182 232 275 342 402
#     4   9  23  37  61  89 131 172 224 278 328 405
#     4  10  24  46  76 104 145 184 240 296 368 442
#     4  10  22  45  63  98 132 173 225 282 350 410
#
# _framework density 26.492286
#
# number of rings (size 3 to 8) (size 9 to 14) (size 15 to 20)
#    1.636    0.364    0.000    2.727    6.364    1.455 
#    3.273    5.455    0.000    0.000    0.000    0.000 
#    0.000    0.000    0.000    0.000    0.000    0.000 
#
# Total GULP energy -122517.050801 kJ/mol
# GULP energy per Si atom -5568.956855 kJ/mol
# Density = 2.643199 g / cm^3
# Si number density = 26.492286 Si / 1000 Ang^3
#
#
#
# Elastic Constant Matrix: (Units=GPa)
#
#
# Indices 1 2 3 4 5 6 
#
# 1 130.5918 49.5239 4.9534 0.0000 0.6879 0.0000
# 2 49.5239 96.8014 28.3794 0.0000 -11.0900 0.0000
# 3 4.9534 28.3794 119.0982 0.0000 1.9518 0.0000
# 4 0.0000 0.0000 0.0000 17.4893 0.0000 2.0365
# 5 0.6879 -11.0900 1.9518 0.0000 25.3315 0.0000
# 6 0.0000 0.0000 0.0000 2.0365 0.0000 49.8528
#
#
#
# Elastic Compliance Matrix: (Units=1/GPa)
#
#
# Indices 1 2 3 4 5 6 
#
# 1 0.009758 -0.005597 0.000974 0.000000 -0.002790 0.000000
# 2 -0.005597 0.015009 -0.003458 0.000000 0.006989 0.000000
# 3 0.000974 -0.003458 0.009217 0.000000 -0.002251 0.000000
# 4 0.000000 0.000000 0.000000 0.057451 0.000000 -0.002347
# 5 -0.002790 0.006989 -0.002251 0.000000 0.042786 0.000000
# 6 0.000000 0.000000 0.000000 -0.002347 0.000000 0.020155
#
#
# Mechanical properties :
#
#
# Convention : Reuss Voigt Hill
#
# Bulk Modulus (GPa) = 56.11731 56.91164 56.51447
# Shear Modulus (GPa) = 28.33209 36.11035 32.22122
#
# Velocity S-wave (km/s) = 3.27379 3.69596 3.49126
# Velocity P-wave (km/s) = 5.95976 6.30416 6.13438
#
# Compressibility (1/GPa) = 0.01781981
#
# Stress axis : x y z
#
# Youngs Moduli (GPa) = 102.48149 66.62875 108.49724
#
# Poissons Ratio (x) = 0.37294 -0.10564
# Poissons Ratio (y) = 0.57362 0.37519
# Poissons Ratio (z) = -0.09978 0.23041
#
# Static dielectric constant tensor:
#      x y z
#    x 2.147350 0.000000 0.003240 
#    y 0.000000 2.243660 0.000000 
#    z 0.003240 0.000000 2.000350 
# 
# From -- ./inp_files/306747.got.cif
#   From: 2010.05.17/outbox.cif.g08.bks.cpg/sg15_154_cif.got.tgz:306747.got - 2010.06.03 18:47:42.
