data_PCOD9293392
_publ_section_title
;
Structure prediction by ZEFSAII (Michael W. Deem and Ramdas Pophale) SiO2 
 PCOD9293392
Probable space group: C 2/C
;
_chemical_formula_sum "Si O2"
_cell_formula_units_Z 64
_cell_length_a 9.824575
_cell_length_b 18.725445
_cell_length_c 13.912860
_cell_angle_alpha 90.000000
_cell_angle_beta 97.694455
_cell_angle_gamma 90.000000
_cell_volume 2536.496732
_symmetry_space_group_name_H-M "C 2/C"
_symmetry_group_IT_number 15
_symmetry_cell_setting 'monoclinic'
loop_
_space_group_symop_operation_xyz
x,y,z
-x,y,1/2-z
-x,-y,-z
x,-y,1/2+z
1/2+x,1/2+y,z
1/2-x,1/2+y,1/2-z
1/2-x,1/2-y,-z
1/2+x,1/2-y,1/2+z
loop_
_atom_site_type_symbol
_atom_site_label
_atom_site_fract_x
_atom_site_fract_y
_atom_site_fract_z
Si Si1 0.148201 0.510459 0.561346
Si Si2 0.029352 0.260252 0.440464
Si Si3 0.798244 0.074165 0.736357
Si Si4 0.639679 0.137639 0.441730
Si Si5 0.159342 0.369732 0.652903
Si Si6 0.125682 0.150156 0.166344
Si Si7 0.807745 0.201585 0.880527
Si Si8 0.018319 0.001643 0.114551
O O1 0.160823 0.549645 0.667142
O O2 0.792712 0.433426 0.508394
O O3 0.203209 0.430641 0.580948
O O4 0.000000 0.500000 0.500000
O O5 0.926434 0.314943 0.480907
O O6 0.075724 0.199538 0.524352
O O7 0.161528 0.305408 0.418978
O O8 0.969840 0.219216 0.343721
O O9 0.908785 0.046676 0.665105
O O10 0.813348 0.153707 0.783981
O O11 0.836345 0.029610 0.834860
O O12 0.507226 0.122178 0.360961
O O13 0.263005 0.380613 0.749365
O O14 0.181205 0.285883 0.639668
O O15 0.023107 0.084346 0.142800
O O16 0.232803 0.175108 0.094397
O O17 0.000000 0.000000 0.000000
#
# Coordination Sequence:
#
# PCOD9293392 Si02
#       8
#     8   8   8   8   8   8   8   8
#     4  10  22  45  72 104 149 205 264 329 397 485
#     4  10  24  46  74 112 150 206 259 334 403 486
#     4  11  24  47  74 114 152 206 265 329 411 493
#     4  10  23  46  70 109 151 206 256 320 403 476
#     4  10  23  45  70 105 147 203 247 331 390 481
#     4  12  23  43  72 108 150 199 258 315 399 480
#     4  10  24  48  73 107 154 201 265 328 412 485
#     4  11  25  45  75 115 155 198 258 338 406 477
#
# _framework density 25.231650999999999
#
# number of rings (size 3 to 8) (size 9 to 14) (size 15 to 20)
#    0.000    1.500    1.250    2.250    3.500    1.500 
#   27.000    0.000    0.000    0.000    0.000    0.000 
#    0.000    0.000    0.000    0.000    0.000    0.000 
#
# Total GULP energy -178340.858036 kJ/mol
# GULP energy per Si atom -5573.151814 kJ/mol
# Density = 2.517422 g / cm^3
# Si number density = 25.231651 Si / 1000 Ang^3
#
#
#
# Elastic Constant Matrix: (Units=GPa)
#
#
# Indices 1 2 3 4 5 6 
#
# 1 102.4970 40.4195 55.7879 0.0000 3.3096 0.0000
# 2 40.4195 145.5504 68.4206 0.0000 -3.5481 0.0000
# 3 55.7879 68.4206 182.6488 0.0000 6.0059 0.0000
# 4 0.0000 0.0000 0.0000 51.6830 0.0000 2.1185
# 5 3.3096 -3.5481 6.0059 0.0000 30.9380 0.0000
# 6 0.0000 0.0000 0.0000 2.1185 0.0000 25.1939
#
#
#
# Elastic Compliance Matrix: (Units=1/GPa)
#
#
# Indices 1 2 3 4 5 6 
#
# 1 0.012182 -0.002030 -0.002929 0.000000 -0.000967 0.000000
# 2 -0.002030 0.008754 -0.002717 0.000000 0.001748 0.000000
# 3 -0.002929 -0.002717 0.007435 0.000000 -0.001442 0.000000
# 4 0.000000 0.000000 0.000000 0.019416 0.000000 -0.001633
# 5 -0.000967 0.001748 -0.001442 0.000000 0.032907 0.000000
# 6 0.000000 0.000000 0.000000 -0.001633 0.000000 0.039829
#
#
# Mechanical properties :
#
#
# Convention : Reuss Voigt Hill
#
# Bulk Modulus (GPa) = 76.80432 84.43913 80.62173
# Shear Modulus (GPa) = 35.66006 39.30085 37.48045
#
# Velocity S-wave (km/s) = 3.76348 3.95093 3.85834
# Velocity P-wave (km/s) = 7.02786 7.37233 7.20215
#
# Compressibility (1/GPa) = 0.01302010
#
# Stress axis : x y z
#
# Youngs Moduli (GPa) = 82.08734 114.23532 134.50610
#
# Poissons Ratio (x) = 0.23188 0.39393
# Poissons Ratio (y) = 0.16663 0.36541
# Poissons Ratio (z) = 0.24041 0.31034
#
# Static dielectric constant tensor:
#      x y z
#    x 2.079910 0.000000 0.028550 
#    y 0.000000 2.033220 0.000000 
#    z 0.028550 0.000000 2.169770 
# 
# From -- ./inp_files/253103.got.cif
#   From: 2010.05.17/outbox.cif.g08.bks.cpg/sg15_127_cif.got.tgz:253103.got - 2010.06.03 18:47:42.
