data_PCOD9293240
_publ_section_title
;
Structure prediction by ZEFSAII (Michael W. Deem and Ramdas Pophale) SiO2 
 PCOD9293240
Probable space group: C 2/C
;
_chemical_formula_sum "Si O2"
_cell_formula_units_Z 32
_cell_length_a 10.913646
_cell_length_b 22.007000
_cell_length_c 7.651451
_cell_angle_alpha 90.000000
_cell_angle_beta 57.069846
_cell_angle_gamma 90.000000
_cell_volume 1542.443494
_symmetry_space_group_name_H-M "C 2/C"
_symmetry_group_IT_number 15
_symmetry_cell_setting 'monoclinic'
loop_
_space_group_symop_operation_xyz
x,y,z
-x,y,1/2-z
-x,-y,-z
x,-y,1/2+z
1/2+x,1/2+y,z
1/2-x,1/2+y,1/2-z
1/2-x,1/2-y,-z
1/2+x,1/2-y,1/2+z
loop_
_atom_site_type_symbol
_atom_site_label
_atom_site_fract_x
_atom_site_fract_y
_atom_site_fract_z
Si Si1 0.182082 0.428555 0.917497
Si Si2 0.324520 0.793920 0.584432
Si Si3 0.500000 0.031714 0.250000
Si Si4 0.039044 0.193946 0.521204
Si Si5 0.000000 0.899375 0.750000
O O1 0.149618 0.360865 0.012715
O O2 0.355754 0.435688 0.806993
O O3 0.108822 0.429005 0.783329
O O4 0.104234 0.485367 0.065933
O O5 0.250000 0.750000 0.500000
O O6 0.467109 0.759136 0.537603
O O7 0.208304 0.802735 0.832850
O O8 0.000000 0.177680 0.750000
O O9 0.971818 0.145022 0.437256
#
# Coordination Sequence:
#
# PCOD9293240 Si02
#       5
#     8   8   4   8   4
#     4  10  23  43  66  94 130 172 225 270 328 391
#     4  11  21  40  66  95 136 172 210 278 338 390
#     4  10  24  45  64  94 127 178 228 268 316 390
#     4  11  22  38  60 102 133 169 214 260 346 399
#     4  10  22  45  66  94 135 166 214 282 330 396
#
# _framework density 20.746303999999999
#
# number of rings (size 3 to 8) (size 9 to 14) (size 15 to 20)
#    0.000    1.500    5.000    0.750    5.250    1.000 
#   18.000    0.000    0.000    0.000    0.000    0.000 
#    0.000    0.000    0.000    0.000    0.000    0.000 
#
# Total GULP energy -89234.302451 kJ/mol
# GULP energy per Si atom -5577.143903 kJ/mol
# Density = 2.069908 g / cm^3
# Si number density = 20.746304 Si / 1000 Ang^3
#
#
#
# Elastic Constant Matrix: (Units=GPa)
#
#
# Indices 1 2 3 4 5 6 
#
# 1 136.1951 44.8687 27.2316 0.0000 -17.8088 0.0000
# 2 44.8687 80.7547 8.7280 0.0000 -4.5441 0.0000
# 3 27.2316 8.7280 75.2070 0.0000 -4.4063 0.0000
# 4 0.0000 0.0000 0.0000 -458.0715 0.0000 -98.4504
# 5 -17.8088 -4.5441 -4.4063 0.0000 43.7088 0.0000
# 6 0.0000 0.0000 0.0000 -98.4504 0.0000 23.6284
#
#
#
# Elastic Compliance Matrix: (Units=1/GPa)
#
#
# Indices 1 2 3 4 5 6 
#
# 1 0.010008 -0.005070 -0.002844 0.000000 0.003264 0.000000
# 2 -0.005070 0.015168 0.000047 0.000000 -0.000484 0.000000
# 3 -0.002844 0.000047 0.014338 0.000000 0.000291 0.000000
# 4 0.000000 0.000000 0.000000 -0.001152 0.000000 -0.004799
# 5 0.003264 -0.000484 0.000291 0.000000 0.024188 0.000000
# 6 0.000000 0.000000 0.000000 -0.004799 0.000000 0.022328
#
#
# Mechanical properties :
#
#
# Convention : Reuss Voigt Hill
#
# Bulk Modulus (GPa) = 42.05175 50.42372 46.23774
# Shear Modulus (GPa) = 46.06703 -64.05832 -8.99564
#
# Velocity S-wave (km/s) = 4.71732 -5.56273 -2.08457
# Velocity P-wave (km/s) = 7.06996 4.11108 4.06715
#
# Compressibility (1/GPa) = 0.02378022
#
# Stress axis : x y z
#
# Youngs Moduli (GPa) = 99.91982 65.93004 69.74413
#
# Poissons Ratio (x) = 0.33424 0.19837
# Poissons Ratio (y) = 0.50655 -0.00328
# Poissons Ratio (z) = 0.28420 -0.00310
#
# Static dielectric constant tensor:
#      x y z
#    x 1.790900 0.000000 0.003560 
#    y 0.000000 1.727490 0.000000 
#    z 0.003560 0.000000 1.794000 
# 
# From -- ./inp_files/28659.got.cif
#   From: 2010.05.17/outbox.cif.g08.bks.cpg/sg15_15_cif.got.tgz:28659.got - 2010.06.03 18:47:42.
