data_PCOD9293373
_publ_section_title
;
Structure prediction by ZEFSAII (Michael W. Deem and Ramdas Pophale) SiO2 
 PCOD9293373
Probable space group: C 2/C
;
_chemical_formula_sum "Si O2"
_cell_formula_units_Z 28
_cell_length_a 7.556246
_cell_length_b 16.634164
_cell_length_c 13.743908
_cell_angle_alpha 90.000000
_cell_angle_beta 141.638101
_cell_angle_gamma 90.000000
_cell_volume 1072.130422
_symmetry_space_group_name_H-M "C 2/C"
_symmetry_group_IT_number 15
_symmetry_cell_setting 'monoclinic'
loop_
_space_group_symop_operation_xyz
x,y,z
-x,y,1/2-z
-x,-y,-z
x,-y,1/2+z
1/2+x,1/2+y,z
1/2-x,1/2+y,1/2-z
1/2-x,1/2-y,-z
1/2+x,1/2-y,1/2+z
loop_
_atom_site_type_symbol
_atom_site_label
_atom_site_fract_x
_atom_site_fract_y
_atom_site_fract_z
Si Si1 0.500000 0.506746 0.750000
Si Si2 0.389235 0.133645 0.419329
Si Si3 0.169670 0.776776 0.641287
Si Si4 0.449674 0.421422 0.043657
O O1 0.272894 0.443611 0.610269
O O2 0.374970 0.560029 0.782686
O O3 0.202429 0.185408 0.261615
O O4 0.507486 0.194546 0.550330
O O5 0.640445 0.097226 0.458916
O O6 0.500000 0.764568 0.750000
O O7 0.014607 0.842907 0.506282
O O8 0.500000 0.500000 0.000000
#
# Coordination Sequence:
#
# PCOD9293373 Si02
#       4
#     4   8   8   8
#     4  12  26  44  68 104 140 178 230 286 342 402
#     4  11  25  45  70 100 139 182 231 277 345 411
#     4  10  22  45  71  96 134 181 228 277 342 408
#     4  11  23  44  68  98 136 179 228 285 337 401
#
# _framework density 26.116225
#
# number of rings (size 3 to 8) (size 9 to 14) (size 15 to 20)
#    0.000    1.143    2.857    4.286    6.000    1.143 
#    0.000    0.000    0.000    0.000    0.000    0.000 
#    0.000    0.000    0.000    0.000    0.000    0.000 
#
# Total GULP energy -78323.345696 kJ/mol
# GULP energy per Si atom -5594.524693 kJ/mol
# Density = 2.605678 g / cm^3
# Si number density = 26.116225 Si / 1000 Ang^3
#
#
#
# Elastic Constant Matrix: (Units=GPa)
#
#
# Indices 1 2 3 4 5 6 
#
# 1 92.1616 38.6271 15.7239 0.0005 -10.4061 0.0008
# 2 38.6271 209.3582 107.8016 0.0002 -10.5691 -0.0004
# 3 15.7239 107.8016 96.7831 0.0042 -21.9835 0.0000
# 4 0.0005 0.0002 0.0042 82.7668 0.0011 0.2448
# 5 -10.4061 -10.5691 -21.9835 0.0011 34.4954 -0.0009
# 6 0.0008 -0.0004 0.0000 0.2448 -0.0009 30.1126
#
#
#
# Elastic Compliance Matrix: (Units=1/GPa)
#
#
# Indices 1 2 3 4 5 6 
#
# 1 0.012367 -0.003638 0.003084 0.000000 0.004581 0.000000
# 2 -0.003638 0.013160 -0.015668 0.000001 -0.007051 0.000000
# 3 0.003084 -0.015668 0.030873 -0.000002 0.015805 0.000000
# 4 0.000000 0.000001 -0.000002 0.012082 -0.000001 -0.000098
# 5 0.004581 -0.007051 0.015805 -0.000001 0.038283 0.000001
# 6 0.000000 0.000000 0.000000 -0.000098 0.000001 0.033209
#
#
# Mechanical properties :
#
#
# Convention : Reuss Voigt Hill
#
# Bulk Modulus (GPa) = 41.74592 80.28979 61.01785
# Shear Modulus (GPa) = 27.71540 45.21833 36.46686
#
# Velocity S-wave (km/s) = 3.26119 4.16556 3.74080
# Velocity P-wave (km/s) = 5.49544 7.34478 6.48636
#
# Compressibility (1/GPa) = 0.02395444
#
# Stress axis : x y z
#
# Youngs Moduli (GPa) = 80.86328 75.98948 32.39031
#
# Poissons Ratio (x) = 0.27649 -0.09990
# Poissons Ratio (y) = 0.29422 0.50750
# Poissons Ratio (z) = -0.24940 1.19063
#
# Static dielectric constant tensor:
#      x y z
#    x 2.011130 0.000000 0.082790 
#    y 0.000000 1.986040 0.000000 
#    z 0.082790 0.000000 2.169270 
# 
# From -- ./inp_files/189132.got.cif
#   From: 2010.05.17/outbox.cif.g08.bks.cpg/sg15_95_cif.got.tgz:189132.got - 2010.06.03 18:47:42.
