data_PCOD9293390
_publ_section_title
;
Structure prediction by ZEFSAII (Michael W. Deem and Ramdas Pophale) SiO2 
 PCOD9293390
Probable space group: C 2/C
;
_chemical_formula_sum "Si O2"
_cell_formula_units_Z 32
_cell_length_a 14.805300
_cell_length_b 10.723155
_cell_length_c 7.667811
_cell_angle_alpha 90.000000
_cell_angle_beta 77.490941
_cell_angle_gamma 90.000000
_cell_volume 1188.440599
_symmetry_space_group_name_H-M "C 2/C"
_symmetry_group_IT_number 15
_symmetry_cell_setting 'monoclinic'
loop_
_space_group_symop_operation_xyz
x,y,z
-x,y,1/2-z
-x,-y,-z
x,-y,1/2+z
1/2+x,1/2+y,z
1/2-x,1/2+y,1/2-z
1/2-x,1/2-y,-z
1/2+x,1/2-y,1/2+z
loop_
_atom_site_type_symbol
_atom_site_label
_atom_site_fract_x
_atom_site_fract_y
_atom_site_fract_z
Si Si1 0.037047 0.176523 0.933230
Si Si2 0.276964 0.928380 0.126220
Si Si3 0.599411 0.898867 0.120224
Si Si4 0.145619 0.083120 0.389884
O O1 0.000000 0.175591 0.750000
O O2 0.100680 0.055196 0.937137
O O3 0.088785 0.299214 0.971551
O O4 0.946123 0.163169 0.094304
O O5 0.320703 0.861577 0.274088
O O6 0.223257 0.053048 0.215889
O O7 0.199591 0.867999 0.037068
O O8 0.362908 0.972323 0.974620
O O9 0.500000 0.917503 0.250000
#
# Coordination Sequence:
#
# PCOD9293390 Si02
#       4
#     8   8   8   8
#     4  11  24  43  72 109 142 181 235 288 363 408
#     4  10  23  45  73  96 143 184 236 283 343 410
#     4  11  26  45  72 101 142 191 232 286 357 421
#     4  10  22  45  72 103 145 185 228 299 343 412
#
# _framework density 26.92604
#
# number of rings (size 3 to 8) (size 9 to 14) (size 15 to 20)
#    0.000    1.500    2.500    0.750    3.500    9.000 
#    0.000    2.500    0.000    0.000    0.000    0.000 
#    0.000    0.000    0.000    0.000    0.000    0.000 
#
# Total GULP energy -89633.031319 kJ/mol
# GULP energy per Si atom -5602.064457 kJ/mol
# Density = 2.686475 g / cm^3
# Si number density = 26.926040 Si / 1000 Ang^3
#
#
#
# Elastic Constant Matrix: (Units=GPa)
#
#
# Indices 1 2 3 4 5 6 
#
# 1 192.3152 47.3586 67.1638 0.0000 27.4772 0.0000
# 2 47.3586 62.2041 10.6556 0.0000 1.6934 0.0000
# 3 67.1638 10.6556 72.9058 0.0000 2.2683 0.0000
# 4 0.0000 0.0000 0.0000 23.0415 0.0000 -5.5256
# 5 27.4772 1.6934 2.2683 0.0000 77.8836 0.0000
# 6 0.0000 0.0000 0.0000 -5.5256 0.0000 43.5863
#
#
#
# Elastic Compliance Matrix: (Units=1/GPa)
#
#
# Indices 1 2 3 4 5 6 
#
# 1 0.010055 -0.006153 -0.008265 0.000000 -0.003173 0.000000
# 2 -0.006153 0.020261 0.002656 0.000000 0.001653 0.000000
# 3 -0.008265 0.002656 0.020872 0.000000 0.002250 0.000000
# 4 0.000000 0.000000 0.000000 0.044761 0.000000 0.005674
# 5 -0.003173 0.001653 0.002250 0.000000 0.013858 0.000000
# 6 0.000000 0.000000 0.000000 0.005674 0.000000 0.023662
#
#
# Mechanical properties :
#
#
# Convention : Reuss Voigt Hill
#
# Bulk Modulus (GPa) = 36.14894 64.19789 50.17342
# Shear Modulus (GPa) = 30.08187 42.38542 36.23364
#
# Velocity S-wave (km/s) = 3.34609 3.97185 3.67232
# Velocity P-wave (km/s) = 5.32755 6.70285 6.05438
#
# Compressibility (1/GPa) = 0.02766332
#
# Stress axis : x y z
#
# Youngs Moduli (GPa) = 99.45628 49.35678 47.91098
#
# Poissons Ratio (x) = 0.30369 0.39597
# Poissons Ratio (y) = 0.61194 -0.12724
# Poissons Ratio (z) = 0.82198 -0.13107
#
# Static dielectric constant tensor:
#      x y z
#    x 2.005210 0.000000 0.004740 
#    y 0.000000 2.073240 0.000000 
#    z 0.004740 0.000000 2.168130 
# 
# From -- ./inp_files/36764.got.cif
#   From: 2010.05.17/outbox.cif.g08.bks.cpg/sg15_19_cif.got.tgz:36764.got - 2010.06.03 18:47:42.
