data_PCOD9293775
_publ_section_title
;
Structure prediction by ZEFSAII (Michael W. Deem and Ramdas Pophale) SiO2 
 PCOD9293775
Probable space group: C 2/C
;
_chemical_formula_sum "Si O2"
_cell_formula_units_Z 40
_cell_length_a 13.295014
_cell_length_b 7.274681
_cell_length_c 18.244693
_cell_angle_alpha 90.000000
_cell_angle_beta 121.403517
_cell_angle_gamma 90.000000
_cell_volume 1506.095156
_symmetry_space_group_name_H-M "C 2/C"
_symmetry_group_IT_number 15
_symmetry_cell_setting 'monoclinic'
loop_
_space_group_symop_operation_xyz
x,y,z
-x,y,1/2-z
-x,-y,-z
x,-y,1/2+z
1/2+x,1/2+y,z
1/2-x,1/2+y,1/2-z
1/2-x,1/2-y,-z
1/2+x,1/2-y,1/2+z
loop_
_atom_site_type_symbol
_atom_site_label
_atom_site_fract_x
_atom_site_fract_y
_atom_site_fract_z
Si Si1 0.496254 0.880046 0.661211
Si Si2 0.827252 0.097541 0.163099
Si Si3 0.587031 0.868253 0.486310
Si Si4 0.284271 0.333571 0.273171
Si Si5 0.991260 0.002345 0.100210
O O1 0.500000 0.864430 0.750000
O O2 0.634965 0.853917 0.694636
O O3 0.444908 0.706349 0.594259
O O4 0.431785 0.053039 0.602506
O O5 0.719437 0.122581 0.065210
O O6 0.823636 0.267947 0.219030
O O7 0.794991 0.910080 0.195373
O O8 0.944194 0.076346 0.160443
O O9 0.547830 0.655137 0.472018
O O10 0.500000 0.000000 0.500000
O O11 0.367776 0.479088 0.347336
#
# Coordination Sequence:
#
# PCOD9293775 Si02
#       5
#     8   8   8   8   8
#     4  10  22  47  71 103 143 194 239 296 373 431
#     4  12  24  46  71 110 142 200 244 301 377 433
#     4  12  26  44  74 111 145 188 252 304 363 448
#     4  10  24  44  73 104 147 191 248 292 369 446
#     4  10  24  50  68  99 155 185 237 313 366 430
#
# _framework density 26.558747
#
# number of rings (size 3 to 8) (size 9 to 14) (size 15 to 20)
#    1.200    0.000    4.000    1.200    2.800    8.000 
#    0.000    0.000    0.000    0.000    0.000    0.000 
#    0.000    0.000    0.000    0.000    0.000    0.000 
#
# Total GULP energy -111620.454722 kJ/mol
# GULP energy per Si atom -5581.022736 kJ/mol
# Density = 2.649830 g / cm^3
# Si number density = 26.558747 Si / 1000 Ang^3
#
#
#
# Elastic Constant Matrix: (Units=GPa)
#
#
# Indices 1 2 3 4 5 6 
#
# 1 91.1629 11.7156 3.3914 0.0000 -14.8706 0.0000
# 2 11.7156 140.8265 44.8208 0.0000 -3.8976 0.0000
# 3 3.3914 44.8208 117.3050 0.0000 1.5509 0.0000
# 4 0.0000 0.0000 0.0000 65.9047 0.0000 -10.0414
# 5 -14.8706 -3.8976 1.5509 0.0000 43.6934 0.0000
# 6 0.0000 0.0000 0.0000 -10.0414 0.0000 39.8511
#
#
#
# Elastic Compliance Matrix: (Units=1/GPa)
#
#
# Indices 1 2 3 4 5 6 
#
# 1 0.011719 -0.000845 -0.000068 0.000000 0.003916 0.000000
# 2 -0.000845 0.008175 -0.003107 0.000000 0.000552 0.000000
# 3 -0.000068 -0.003107 0.009722 0.000000 -0.000645 0.000000
# 4 0.000000 0.000000 0.000000 0.015779 0.000000 0.003976
# 5 0.003916 0.000552 -0.000645 0.000000 0.024291 0.000000
# 6 0.000000 0.000000 0.000000 0.003976 0.000000 0.026095
#
#
# Mechanical properties :
#
#
# Convention : Reuss Voigt Hill
#
# Bulk Modulus (GPa) = 46.34317 52.12778 49.23548
# Shear Modulus (GPa) = 45.03944 49.18094 47.11019
#
# Velocity S-wave (km/s) = 4.12253 4.30790 4.21623
# Velocity P-wave (km/s) = 6.33621 6.66438 6.50236
#
# Compressibility (1/GPa) = 0.02157815
#
# Stress axis : x y z
#
# Youngs Moduli (GPa) = 85.33010 122.32081 102.85697
#
# Poissons Ratio (x) = 0.10336 0.00696
# Poissons Ratio (y) = 0.07211 0.31953
# Poissons Ratio (z) = 0.00578 0.37999
#
# Static dielectric constant tensor:
#      x y z
#    x 2.094670 0.000000 -0.049230 
#    y 0.000000 2.201390 0.000000 
#    z -0.049230 0.000000 2.175560 
# 
# From -- ./inp_files/246315.got.cif
#   From: 2010.05.17/outbox.cif.g08.bks.cpg/sg15_124_cif.got.tgz:246315.got - 2010.06.03 18:47:42.
