data_PCOD9293230
_publ_section_title
;
Structure prediction by ZEFSAII (Michael W. Deem and Ramdas Pophale) SiO2 
 PCOD9293230
Probable space group: C 2/C
;
_chemical_formula_sum "Si O2"
_cell_formula_units_Z 48
_cell_length_a 21.820905
_cell_length_b 22.344069
_cell_length_c 9.289400
_cell_angle_alpha 90.000000
_cell_angle_beta 28.126197
_cell_angle_gamma 90.000000
_cell_volume 2135.139388
_symmetry_space_group_name_H-M "C 2/C"
_symmetry_group_IT_number 15
_symmetry_cell_setting 'monoclinic'
loop_
_space_group_symop_operation_xyz
x,y,z
-x,y,1/2-z
-x,-y,-z
x,-y,1/2+z
1/2+x,1/2+y,z
1/2-x,1/2+y,1/2-z
1/2-x,1/2-y,-z
1/2+x,1/2-y,1/2+z
loop_
_atom_site_type_symbol
_atom_site_label
_atom_site_fract_x
_atom_site_fract_y
_atom_site_fract_z
Si Si1 0.287053 0.004439 0.979088
Si Si2 0.669190 0.699591 0.248508
Si Si3 0.342310 0.134478 0.413224
Si Si4 0.878183 0.172132 0.833320
Si Si5 0.628889 0.879688 0.307668
Si Si6 0.875821 0.032589 0.920658
O O1 0.384034 0.049957 0.700177
O O2 0.323976 0.934887 0.905553
O O3 0.156908 0.005962 0.151077
O O4 0.249230 0.024789 0.216931
O O5 0.522030 0.694532 0.496614
O O6 0.662364 0.705604 0.435295
O O7 0.750000 0.750000 0.000000
O O8 0.753550 0.641326 0.035734
O O9 0.232049 0.172314 0.560582
O O10 0.335328 0.133749 0.600971
O O11 0.490224 0.151281 0.066204
O O12 0.894822 0.102066 0.842524
O O13 0.000000 0.010172 0.750000
#
# Coordination Sequence:
#
# PCOD9293230 Si02
#       6
#     8   8   8   8   8   8
#     4  11  20  36  57  94 135 177 220 258 323 389
#     4  11  24  45  73  93 123 170 216 282 343 393
#     4  10  24  39  64  97 138 177 216 272 321 403
#     4  10  22  45  65  98 132 161 221 274 329 396
#     4  11  22  43  61  95 135 178 226 270 329 381
#     4  11  19  34  58  93 132 176 211 262 318 396
#
# _framework density 22.480969000000002
#
# number of rings (size 3 to 8) (size 9 to 14) (size 15 to 20)
#    0.000    1.333    5.000    1.000    0.000    5.333 
#    0.000    5.000    0.000    0.000    0.000    0.000 
#    0.000    0.000    0.000    0.000    0.000    0.000 
#
# Total GULP energy -134130.080169 kJ/mol
# GULP energy per Si atom -5588.753340 kJ/mol
# Density = 2.242980 g / cm^3
# Si number density = 22.480969 Si / 1000 Ang^3
#
#
#
# Elastic Constant Matrix: (Units=GPa)
#
#
# Indices 1 2 3 4 5 6 
#
# 1 122.9316 15.6377 71.7970 -0.0001 -27.4984 -0.0001
# 2 15.6377 70.3115 24.2328 -0.0003 -4.0351 -0.0002
# 3 71.7970 24.2328 145.7942 -0.0010 -14.6728 -0.0004
# 4 -0.0001 -0.0003 -0.0010 28.3517 0.0002 0.3591
# 5 -27.4984 -4.0351 -14.6728 0.0002 34.6052 0.0002
# 6 -0.0001 -0.0002 -0.0004 0.3591 0.0002 15.4859
#
#
#
# Elastic Compliance Matrix: (Units=1/GPa)
#
#
# Indices 1 2 3 4 5 6 
#
# 1 0.013323 -0.000549 -0.005652 0.000000 0.008127 0.000000
# 2 -0.000549 0.015127 -0.002204 0.000000 0.000393 0.000000
# 3 -0.005652 -0.002204 0.009956 0.000000 -0.000527 0.000000
# 4 0.000000 0.000000 0.000000 0.035282 0.000000 -0.000818
# 5 0.008127 0.000393 -0.000527 0.000000 0.035177 0.000000
# 6 0.000000 0.000000 0.000000 -0.000818 0.000000 0.064594
#
#
# Mechanical properties :
#
#
# Convention : Reuss Voigt Hill
#
# Bulk Modulus (GPa) = 46.30659 62.48582 54.39621
# Shear Modulus (GPa) = 25.32062 30.84653 28.08358
#
# Velocity S-wave (km/s) = 3.35970 3.70823 3.53826
# Velocity P-wave (km/s) = 5.97436 6.79632 6.39855
#
# Compressibility (1/GPa) = 0.02159520
#
# Stress axis : x y z
#
# Youngs Moduli (GPa) = 75.05673 66.10779 100.44487
#
# Poissons Ratio (x) = 0.03628 0.56772
# Poissons Ratio (y) = 0.04119 0.22142
# Poissons Ratio (z) = 0.42422 0.14573
#
# Static dielectric constant tensor:
#      x y z
#    x 1.822620 0.000000 -0.022300 
#    y 0.000000 1.931500 0.000000 
#    z -0.022300 0.000000 1.837990 
# 
# From -- ./inp_files/59074.got.cif
#   From: 2010.05.17/outbox.cif.g08.bks.cpg/sg15_30_cif.got.tgz:59074.got - 2010.06.03 18:47:42.
