data_PCOD9293215
_publ_section_title
;
Structure prediction by ZEFSAII (Michael W. Deem and Ramdas Pophale) SiO2 
 PCOD9293215
Probable space group: C 2/C
;
_chemical_formula_sum "Si O2"
_cell_formula_units_Z 52
_cell_length_a 21.479347
_cell_length_b 13.318529
_cell_length_c 9.025849
_cell_angle_alpha 90.000000
_cell_angle_beta 112.532097
_cell_angle_gamma 90.000000
_cell_volume 2384.953358
_symmetry_space_group_name_H-M "C 2/C"
_symmetry_group_IT_number 15
_symmetry_cell_setting 'monoclinic'
loop_
_space_group_symop_operation_xyz
x,y,z
-x,y,1/2-z
-x,-y,-z
x,-y,1/2+z
1/2+x,1/2+y,z
1/2-x,1/2+y,1/2-z
1/2-x,1/2-y,-z
1/2+x,1/2-y,1/2+z
loop_
_atom_site_type_symbol
_atom_site_label
_atom_site_fract_x
_atom_site_fract_y
_atom_site_fract_z
Si Si1 0.000000 0.749685 0.750000
Si Si2 0.598024 0.588145 0.401819
Si Si3 0.982788 0.385264 0.957469
Si Si4 0.777279 0.447050 0.345075
Si Si5 0.890509 0.672445 0.122426
Si Si6 0.880143 0.893502 0.240792
Si Si7 0.255063 0.129381 0.507984
O O1 0.060152 0.827496 0.771957
O O2 0.974283 0.677735 0.597793
O O3 0.584616 0.477163 0.329097
O O4 0.585299 0.605352 0.565035
O O5 0.677230 0.600282 0.452006
O O6 0.917574 0.380945 0.794908
O O7 0.046861 0.336964 0.932819
O O8 0.000000 0.500000 0.000000
O O9 0.826165 0.381555 0.493392
O O10 0.698907 0.419360 0.304103
O O11 0.783572 0.565031 0.395234
O O12 0.790812 0.414154 0.188195
O O13 0.880774 0.787105 0.160659
O O14 0.250000 0.250000 0.500000
#
# Coordination Sequence:
#
# PCOD9293215 Si02
#       7
#     4   8   8   8   8   8   8
#     4  12  24  44  68  94 130 180 218 278 334 384
#     4  10  24  40  67  95 136 167 221 270 325 400
#     4  11  27  45  64  94 130 175 229 277 319 396
#     4  10  24  42  69 102 134 176 219 276 335 400
#     4  11  24  44  69  93 134 178 217 272 336 391
#     4  10  22  45  64 103 132 168 216 272 329 402
#     4  10  24  43  67 101 136 178 224 277 334 400
#
# _framework density 21.803360999999999
#
# number of rings (size 3 to 8) (size 9 to 14) (size 15 to 20)
#    0.000    1.538    1.538    1.385    6.462    9.231 
#    0.000    0.000    0.000    0.000    0.000    0.000 
#    0.000    0.000    0.000    0.000    0.000    0.000 
#
# Total GULP energy -145256.432624 kJ/mol
# GULP energy per Si atom -5586.785870 kJ/mol
# Density = 2.175374 g / cm^3
# Si number density = 21.803361 Si / 1000 Ang^3
#
#
#
# Elastic Constant Matrix: (Units=GPa)
#
#
# Indices 1 2 3 4 5 6 
#
# 1 23.9524 2.6470 9.5066 0.0000 -2.7791 0.0000
# 2 2.6470 152.3038 28.1125 0.0000 -6.8089 0.0000
# 3 9.5066 28.1125 86.4091 0.0000 14.8984 0.0000
# 4 0.0000 0.0000 0.0000 28.9782 0.0000 -1.2397
# 5 -2.7791 -6.8089 14.8984 0.0000 25.1591 0.0000
# 6 0.0000 0.0000 0.0000 -1.2397 0.0000 25.4674
#
#
#
# Elastic Compliance Matrix: (Units=1/GPa)
#
#
# Indices 1 2 3 4 5 6 
#
# 1 0.045479 0.000904 -0.006912 0.000000 0.009361 0.000000
# 2 0.000904 0.007310 -0.003158 0.000000 0.003948 0.000000
# 3 -0.006912 -0.003158 0.015191 0.000000 -0.010614 0.000000
# 4 0.000000 0.000000 0.000000 0.034581 0.000000 0.001683
# 5 0.009361 0.003948 -0.010614 0.000000 0.048135 0.000000
# 6 0.000000 0.000000 0.000000 0.001683 0.000000 0.039348
#
#
# Mechanical properties :
#
#
# Convention : Reuss Voigt Hill
#
# Bulk Modulus (GPa) = 20.14218 38.13307 29.13762
# Shear Modulus (GPa) = 22.22978 30.74756 26.48867
#
# Velocity S-wave (km/s) = 3.19652 3.75936 3.48931
# Velocity P-wave (km/s) = 4.78349 6.03086 5.44303
#
# Compressibility (1/GPa) = 0.04964706
#
# Stress axis : x y z
#
# Youngs Moduli (GPa) = 21.98825 136.80658 65.82953
#
# Poissons Ratio (x) = -0.12365 0.45499
# Poissons Ratio (y) = -0.01987 0.20791
# Poissons Ratio (z) = 0.15197 0.43208
#
# Static dielectric constant tensor:
#      x y z
#    x 1.765470 0.000000 -0.012180 
#    y 0.000000 1.791890 0.000000 
#    z -0.012180 0.000000 1.823550 
# 
# From -- ./inp_files/65599.got.cif
#   From: 2010.05.17/outbox.cif.g08.bks.cpg/sg15_33_cif.got.tgz:65599.got - 2010.06.03 18:47:42.
