data_PCOD9293334
_publ_section_title
;
Structure prediction by ZEFSAII (Michael W. Deem and Ramdas Pophale) SiO2 
 PCOD9293334
Probable space group: C 2/C
;
_chemical_formula_sum "Si O2"
_cell_formula_units_Z 56
_cell_length_a 24.699394
_cell_length_b 11.386682
_cell_length_c 11.326768
_cell_angle_alpha 90.000000
_cell_angle_beta 130.046336
_cell_angle_gamma 90.000000
_cell_volume 2438.644590
_symmetry_space_group_name_H-M "C 2/C"
_symmetry_group_IT_number 15
_symmetry_cell_setting 'monoclinic'
loop_
_space_group_symop_operation_xyz
x,y,z
-x,y,1/2-z
-x,-y,-z
x,-y,1/2+z
1/2+x,1/2+y,z
1/2-x,1/2+y,1/2-z
1/2-x,1/2-y,-z
1/2+x,1/2-y,1/2+z
loop_
_atom_site_type_symbol
_atom_site_label
_atom_site_fract_x
_atom_site_fract_y
_atom_site_fract_z
Si Si1 0.176860 0.636639 0.353782
Si Si2 0.138189 0.914591 0.679956
Si Si3 0.423628 0.058576 0.885074
Si Si4 0.421757 0.736406 0.192620
Si Si5 0.921990 0.254522 0.590404
Si Si6 0.770374 0.741747 0.391466
Si Si7 0.720489 0.372331 0.302646
O O1 0.133211 0.541888 0.220439
O O2 0.127435 0.714575 0.369718
O O3 0.232075 0.580107 0.523550
O O4 0.211601 0.734698 0.320490
O O5 0.102456 0.865234 0.749173
O O6 0.097877 0.861212 0.511305
O O7 0.218187 0.863148 0.779885
O O8 0.149099 0.053210 0.697905
O O9 0.424348 0.146889 0.775800
O O10 0.413737 0.137667 0.987071
O O11 0.500000 0.000000 0.000000
O O12 0.500000 0.715264 0.250000
O O13 0.356153 0.759257 0.011008
O O14 0.000000 0.247549 0.750000
O O15 0.750000 0.750000 0.500000
O O16 0.749064 0.858093 0.286660
#
# Coordination Sequence:
#
# PCOD9293334 Si02
#       7
#     8   8   8   8   8   8   8
#     4  11  25  45  69 110 142 189 248 304 369 440
#     4  10  23  47  71 104 145 195 246 304 367 441
#     4  11  24  40  71  99 142 185 234 301 369 435
#     4  10  24  42  69 105 141 189 250 301 365 437
#     4  11  23  44  70 106 147 186 241 308 371 436
#     4  10  22  45  70 103 143 186 244 299 357 442
#     4  11  25  46  74 103 146 194 248 301 371 442
#
# _framework density 22.963576
#
# number of rings (size 3 to 8) (size 9 to 14) (size 15 to 20)
#    0.000    1.429    2.857    0.857    4.000    4.571 
#    0.000    4.286    0.000    0.000    0.000    0.000 
#    0.000    0.000    0.000    0.000    0.000    0.000 
#
# Total GULP energy -156510.980270 kJ/mol
# GULP energy per Si atom -5589.677867 kJ/mol
# Density = 2.291131 g / cm^3
# Si number density = 22.963576 Si / 1000 Ang^3
#
#
#
# Elastic Constant Matrix: (Units=GPa)
#
#
# Indices 1 2 3 4 5 6 
#
# 1 101.9144 15.5567 32.9069 0.0000 17.8232 0.0000
# 2 15.5567 72.8573 45.0412 0.0000 6.7714 0.0000
# 3 32.9069 45.0412 162.5925 0.0000 14.2989 0.0000
# 4 0.0000 0.0000 0.0000 26.9263 0.0000 17.5590
# 5 17.8232 6.7714 14.2989 0.0000 28.8920 0.0000
# 6 0.0000 0.0000 0.0000 17.5590 0.0000 20.5815
#
#
#
# Elastic Compliance Matrix: (Units=1/GPa)
#
#
# Indices 1 2 3 4 5 6 
#
# 1 0.011523 -0.000944 -0.001532 0.000000 -0.006129 0.000000
# 2 -0.000944 0.016718 -0.004335 0.000000 -0.001190 0.000000
# 3 -0.001532 -0.004335 0.007830 0.000000 -0.001914 0.000000
# 4 0.000000 0.000000 0.000000 0.083710 0.000000 -0.071417
# 5 -0.006129 -0.001190 -0.001914 0.000000 0.039619 0.000000
# 6 0.000000 0.000000 0.000000 -0.071417 0.000000 0.109516
#
#
# Mechanical properties :
#
#
# Convention : Reuss Voigt Hill
#
# Bulk Modulus (GPa) = 44.54679 58.26376 51.40527
# Shear Modulus (GPa) = 17.24021 31.53725 24.38873
#
# Velocity S-wave (km/s) = 2.74298 3.70991 3.26246
# Velocity P-wave (km/s) = 5.42890 6.61654 6.05192
#
# Compressibility (1/GPa) = 0.02244831
#
# Stress axis : x y z
#
# Youngs Moduli (GPa) = 86.78578 59.81629 127.71957
#
# Poissons Ratio (x) = 0.05646 0.19561
# Poissons Ratio (y) = 0.08191 0.55372
# Poissons Ratio (z) = 0.13292 0.25933
#
# Static dielectric constant tensor:
#      x y z
#    x 2.009940 0.000000 -0.101460 
#    y 0.000000 1.895700 0.000000 
#    z -0.101460 0.000000 1.973950 
# 
# From -- ./inp_files/122714.got.cif
#   From: 2010.05.17/outbox.cif.g08.bks.cpg/sg15_62_cif.got.tgz:122714.got - 2010.06.03 18:47:42.
