data_PCOD9293750
_publ_section_title
;
Structure prediction by ZEFSAII (Michael W. Deem and Ramdas Pophale) SiO2 
 PCOD9293750
Probable space group: C 2/C
;
_chemical_formula_sum "Si O2"
_cell_formula_units_Z 36
_cell_length_a 28.869689
_cell_length_b 5.589108
_cell_length_c 9.893482
_cell_angle_alpha 90.000000
_cell_angle_beta 126.188344
_cell_angle_gamma 90.000000
_cell_volume 1288.399656
_symmetry_space_group_name_H-M "C 2/C"
_symmetry_group_IT_number 15
_symmetry_cell_setting 'monoclinic'
loop_
_space_group_symop_operation_xyz
x,y,z
-x,y,1/2-z
-x,-y,-z
x,-y,1/2+z
1/2+x,1/2+y,z
1/2-x,1/2+y,1/2-z
1/2-x,1/2-y,-z
1/2+x,1/2-y,1/2+z
loop_
_atom_site_type_symbol
_atom_site_label
_atom_site_fract_x
_atom_site_fract_y
_atom_site_fract_z
Si Si1 0.568289 0.227992 0.348846
Si Si2 0.088916 0.912296 0.097043
Si Si3 0.184068 0.666700 0.082431
Si Si4 0.790709 0.165580 0.450963
Si Si5 0.000000 0.700469 0.750000
O O1 0.500000 0.289820 0.250000
O O2 0.594270 0.330350 0.533806
O O3 0.555759 0.951061 0.294824
O O4 0.586381 0.383684 0.251619
O O5 0.029711 0.807491 0.934239
O O6 0.141812 0.755690 0.128417
O O7 0.168835 0.399794 0.003276
O O8 0.249034 0.636714 0.249527
O O9 0.187094 0.894761 0.987828
O O10 0.750000 0.250000 0.500000
#
# Coordination Sequence:
#
# PCOD9293750 Si02
#       5
#     8   8   8   8   4
#     4  10  25  42  65  92 139 181 227 288 345 409
#     4  12  24  43  65 102 134 184 235 285 348 422
#     4  10  25  40  69 102 132 178 230 281 352 411
#     4  10  22  47  67  98 137 176 221 291 347 415
#     4  10  24  40  68  92 136 180 232 286 346 404
#
# _framework density 27.941644
#
# number of rings (size 3 to 8) (size 9 to 14) (size 15 to 20)
#    0.667    0.889    1.111    2.000    6.222    0.000 
#    0.000    0.000    0.000    0.000    0.000    0.000 
#    0.000    0.000    0.000    0.000    0.000    0.000 
#
# Total GULP energy -100492.499248 kJ/mol
# GULP energy per Si atom -5582.916625 kJ/mol
# Density = 2.787805 g / cm^3
# Si number density = 27.941644 Si / 1000 Ang^3
#
#
#
# Elastic Constant Matrix: (Units=GPa)
#
#
# Indices 1 2 3 4 5 6 
#
# 1 71.2253 10.4138 -16.2179 0.0000 -38.2445 0.0000
# 2 10.4138 145.5993 23.6885 0.0000 -14.0839 0.0000
# 3 -16.2179 23.6885 89.4979 0.0000 7.4327 0.0000
# 4 0.0000 0.0000 0.0000 31.0989 0.0000 9.0922
# 5 -38.2445 -14.0839 7.4327 0.0000 49.6690 0.0000
# 6 0.0000 0.0000 0.0000 9.0922 0.0000 49.3372
#
#
#
# Elastic Compliance Matrix: (Units=1/GPa)
#
#
# Indices 1 2 3 4 5 6 
#
# 1 0.024704 -0.000485 0.003075 0.000000 0.018424 0.000000
# 2 -0.000485 0.007468 -0.002237 0.000000 0.002079 0.000000
# 3 0.003075 -0.002237 0.012332 0.000000 -0.000112 0.000000
# 4 0.000000 0.000000 0.000000 0.033987 0.000000 -0.006263
# 5 0.018424 0.002079 -0.000112 0.000000 0.034926 0.000000
# 6 0.000000 0.000000 0.000000 -0.006263 0.000000 0.021423
#
#
# Mechanical properties :
#
#
# Convention : Reuss Voigt Hill
#
# Bulk Modulus (GPa) = 22.11946 38.01015 30.06481
# Shear Modulus (GPa) = 33.51130 45.25022 39.38076
#
# Velocity S-wave (km/s) = 3.46689 4.02861 3.75826
# Velocity P-wave (km/s) = 4.89482 5.93907 5.44205
#
# Compressibility (1/GPa) = 0.04520905
#
# Stress axis : x y z
#
# Youngs Moduli (GPa) = 40.47973 133.90590 81.08923
#
# Poissons Ratio (x) = 0.06495 -0.24934
# Poissons Ratio (y) = 0.01963 0.18141
# Poissons Ratio (z) = -0.12447 0.29957
#
# Static dielectric constant tensor:
#      x y z
#    x 2.878520 0.000000 0.265460 
#    y 0.000000 2.787180 0.000000 
#    z 0.265460 0.000000 2.161030 
# 
# From -- ./inp_files/124847.got.cif
#   From: 2010.05.17/outbox.cif.g08.bks.cpg/sg15_63_cif.got.tgz:124847.got - 2010.06.03 18:47:42.
