data_PCOD9293455
_publ_section_title
;
Structure prediction by ZEFSAII (Michael W. Deem and Ramdas Pophale) SiO2 
 PCOD9293455
Probable space group: C 2/C
;
_chemical_formula_sum "Si O2"
_cell_formula_units_Z 36
_cell_length_a 15.751718
_cell_length_b 10.907682
_cell_length_c 13.316522
_cell_angle_alpha 90.000000
_cell_angle_beta 142.827768
_cell_angle_gamma 90.000000
_cell_volume 1382.424049
_symmetry_space_group_name_H-M "C 2/C"
_symmetry_group_IT_number 15
_symmetry_cell_setting 'monoclinic'
loop_
_space_group_symop_operation_xyz
x,y,z
-x,y,1/2-z
-x,-y,-z
x,-y,1/2+z
1/2+x,1/2+y,z
1/2-x,1/2+y,1/2-z
1/2-x,1/2-y,-z
1/2+x,1/2-y,1/2+z
loop_
_atom_site_type_symbol
_atom_site_label
_atom_site_fract_x
_atom_site_fract_y
_atom_site_fract_z
Si Si1 0.531839 0.368154 0.942379
Si Si2 0.461402 0.824519 0.534241
Si Si3 0.500000 0.450047 0.250000
Si Si4 0.750000 0.750000 0.000000
Si Si5 0.174565 0.487190 0.266958
Si Si6 0.500000 0.832978 0.250000
O O1 0.448914 0.459667 0.791651
O O2 0.562921 0.252940 0.897317
O O3 0.472769 0.303874 0.985973
O O4 0.665815 0.449743 0.094483
O O5 0.355791 0.826596 0.525829
O O6 0.399862 0.918078 0.395169
O O7 0.618083 0.872137 0.714999
O O8 0.632837 0.363844 0.394767
O O9 0.116365 0.418739 0.310122
#
# Coordination Sequence:
#
# PCOD9293455 Si02
#       6
#     8   8   4   4   8   4
#     4  10  23  49  75 112 152 211 257 321 384 484
#     4  10  26  49  76 113 159 203 261 322 391 459
#     4  11  30  49  82 108 160 197 261 316 406 466
#     4  12  30  54  72 122 152 204 252 328 394 470
#     4  10  22  45  77 114 153 206 259 324 382 462
#     4   9  20  41  72 118 152 205 261 322 382 470
#
# _framework density 26.041212000000002
#
# number of rings (size 3 to 8) (size 9 to 14) (size 15 to 20)
#    0.000    1.778    0.000    0.667    9.333    0.889 
#   20.000    0.000    0.000    0.000    0.000    0.000 
#    0.000    0.000    0.000    0.000    0.000    0.000 
#
# Total GULP energy -100331.050559 kJ/mol
# GULP energy per Si atom -5573.947253 kJ/mol
# Density = 2.598194 g / cm^3
# Si number density = 26.041212 Si / 1000 Ang^3
#
#
#
# Elastic Constant Matrix: (Units=GPa)
#
#
# Indices 1 2 3 4 5 6 
#
# 1 145.2328 52.5388 29.3644 0.0000 0.8602 0.0000
# 2 52.5388 146.5758 29.4004 0.0000 -7.8319 0.0000
# 3 29.3644 29.4004 68.2907 0.0000 3.1646 0.0000
# 4 0.0000 0.0000 0.0000 180.7933 0.0000 -77.2119
# 5 0.8602 -7.8319 3.1646 0.0000 24.4738 0.0000
# 6 0.0000 0.0000 0.0000 -77.2119 0.0000 74.7463
#
#
#
# Elastic Compliance Matrix: (Units=1/GPa)
#
#
# Indices 1 2 3 4 5 6 
#
# 1 0.008298 -0.002526 -0.002444 0.000000 -0.000784 0.000000
# 2 -0.002526 0.008435 -0.002691 0.000000 0.003136 0.000000
# 3 -0.002444 -0.002691 0.016990 0.000000 -0.002972 0.000000
# 4 0.000000 0.000000 0.000000 0.009898 0.000000 0.010224
# 5 -0.000784 0.003136 -0.002972 0.000000 0.042275 0.000000
# 6 0.000000 0.000000 0.000000 0.010224 0.000000 0.023940
#
#
# Mechanical properties :
#
#
# Convention : Reuss Voigt Hill
#
# Bulk Modulus (GPa) = 54.34261 64.74515 59.54388
# Shear Modulus (GPa) = 38.08291 72.58905 55.33598
#
# Velocity S-wave (km/s) = 3.82829 5.28538 4.61471
# Velocity P-wave (km/s) = 6.36037 7.88438 7.16302
#
# Compressibility (1/GPa) = 0.01840177
#
# Stress axis : x y z
#
# Youngs Moduli (GPa) = 120.50883 118.55236 58.85674
#
# Poissons Ratio (x) = 0.29946 0.14386
# Poissons Ratio (y) = 0.30441 0.15836
# Poissons Ratio (z) = 0.29456 0.31898
#
# Static dielectric constant tensor:
#      x y z
#    x 2.047460 0.000000 -0.168920 
#    y 0.000000 2.085010 0.000000 
#    z -0.168920 0.000000 2.273390 
# 
# From -- ./inp_files/152842.got.cif
#   From: 2010.05.17/outbox.cif.g08.bks.cpg/sg15_77_cif.got.tgz:152842.got - 2010.06.03 18:47:42.
