data_PCOD9293018
_publ_section_title
;
Structure prediction by ZEFSAII (Michael W. Deem and Ramdas Pophale) SiO2 
 PCOD9293018
Probable space group: C 2/C
;
_chemical_formula_sum "Si O2"
_cell_formula_units_Z 32
_cell_length_a 8.809243
_cell_length_b 26.501387
_cell_length_c 5.011140
_cell_angle_alpha 90.000000
_cell_angle_beta 88.250160
_cell_angle_gamma 90.000000
_cell_volume 1169.340956
_symmetry_space_group_name_H-M "C 2/C"
_symmetry_group_IT_number 15
_symmetry_cell_setting 'monoclinic'
loop_
_space_group_symop_operation_xyz
x,y,z
-x,y,1/2-z
-x,-y,-z
x,-y,1/2+z
1/2+x,1/2+y,z
1/2-x,1/2+y,1/2-z
1/2-x,1/2-y,-z
1/2+x,1/2-y,1/2+z
loop_
_atom_site_type_symbol
_atom_site_label
_atom_site_fract_x
_atom_site_fract_y
_atom_site_fract_z
Si Si1 0.000000 0.912805 0.250000
Si Si2 0.500000 0.734342 0.250000
Si Si3 0.723533 0.332806 0.470907
Si Si4 0.276493 0.032751 0.477122
Si Si5 0.000000 0.390756 0.250000
Si Si6 0.250000 0.250000 0.500000
O O1 0.899452 0.876409 0.070383
O O2 0.888741 0.945596 0.439006
O O3 0.341617 0.701360 0.280046
O O4 0.563852 0.765716 0.485091
O O5 0.883936 0.359550 0.441373
O O6 0.712898 0.292730 0.236638
O O7 0.395049 0.074405 0.567830
O O8 0.295377 0.015419 0.172930
#
# Coordination Sequence:
#
# PCOD9293018 Si02
#       6
#     4   4   8   8   4   4
#     4  10  22  44  71 108 142 190 254 311 380 468
#     4  12  25  44  77 102 150 198 260 313 378 453
#     4  11  24  47  69 110 143 202 251 311 382 453
#     4  11  24  46  74 109 150 196 251 317 401 470
#     4  10  25  46  70 106 154 188 256 312 388 463
#     4  12  24  46  72 106 152 196 260 316 380 452
#
# _framework density 27.365842000000001
#
# number of rings (size 3 to 8) (size 9 to 14) (size 15 to 20)
#    0.000    1.000    2.500    3.000    0.000    6.000 
#    4.500    0.000    0.000    0.000    0.000    0.000 
#    0.000    0.000    0.000    0.000    0.000    0.000 
#
# Total GULP energy -89291.506441 kJ/mol
# GULP energy per Si atom -5580.719153 kJ/mol
# Density = 2.730356 g / cm^3
# Si number density = 27.365842 Si / 1000 Ang^3
#
#
#
# Elastic Constant Matrix: (Units=GPa)
#
#
# Indices 1 2 3 4 5 6 
#
# 1 206.2505 69.8353 12.8876 0.0000 -7.6857 0.0000
# 2 69.8353 112.9714 10.9820 0.0000 2.6509 0.0000
# 3 12.8876 10.9820 100.6171 0.0000 -14.5610 0.0000
# 4 0.0000 0.0000 0.0000 28.1148 0.0000 -1.4227
# 5 -7.6857 2.6509 -14.5610 0.0000 30.3497 0.0000
# 6 0.0000 0.0000 0.0000 -1.4227 0.0000 105.3726
#
#
#
# Elastic Compliance Matrix: (Units=1/GPa)
#
#
# Indices 1 2 3 4 5 6 
#
# 1 0.006243 -0.003893 -0.000104 0.000000 0.001871 0.000000
# 2 -0.003893 0.011426 -0.001113 0.000000 -0.002518 0.000000
# 3 -0.000104 -0.001113 0.010836 0.000000 0.005270 0.000000
# 4 0.000000 0.000000 0.000000 0.035593 0.000000 0.000481
# 5 0.001871 -0.002518 0.005270 0.000000 0.036171 0.000000
# 6 0.000000 0.000000 0.000000 0.000481 0.000000 0.009497
#
#
# Mechanical properties :
#
#
# Convention : Reuss Voigt Hill
#
# Bulk Modulus (GPa) = 54.68921 67.47208 61.08065
# Shear Modulus (GPa) = 39.65756 54.50969 47.08362
#
# Velocity S-wave (km/s) = 3.81092 4.46790 4.15242
# Velocity P-wave (km/s) = 6.27630 7.16417 6.73488
#
# Compressibility (1/GPa) = 0.01828514
#
# Stress axis : x y z
#
# Youngs Moduli (GPa) = 160.18434 87.52338 92.28445
#
# Poissons Ratio (x) = 0.34072 0.00959
# Poissons Ratio (y) = 0.62358 0.10269
# Poissons Ratio (z) = 0.01665 0.09739
#
# Static dielectric constant tensor:
#      x y z
#    x 2.320660 0.000000 -0.257230 
#    y 0.000000 2.791490 0.000000 
#    z -0.257230 0.000000 1.355090 
# 
# From -- ./inp_files/2427.got.cif
#   From: 2010.05.17/outbox.cif.g08.bks.cpg/sg15_2_cif.got.tgz:2427.got - 2010.06.03 18:47:42.
