data_PCOD9293864
_publ_section_title
;
Structure prediction by ZEFSAII (Michael W. Deem and Ramdas Pophale) SiO2 
 PCOD9293864
Probable space group: C 2/C
;
_chemical_formula_sum "Si O2"
_cell_formula_units_Z 40
_cell_length_a 12.813898
_cell_length_b 8.914066
_cell_length_c 13.377515
_cell_angle_alpha 90.000000
_cell_angle_beta 73.955678
_cell_angle_gamma 90.000000
_cell_volume 1468.512736
_symmetry_space_group_name_H-M "C 2/C"
_symmetry_group_IT_number 15
_symmetry_cell_setting 'monoclinic'
loop_
_space_group_symop_operation_xyz
x,y,z
-x,y,1/2-z
-x,-y,-z
x,-y,1/2+z
1/2+x,1/2+y,z
1/2-x,1/2+y,1/2-z
1/2-x,1/2-y,-z
1/2+x,1/2-y,1/2+z
loop_
_atom_site_type_symbol
_atom_site_label
_atom_site_fract_x
_atom_site_fract_y
_atom_site_fract_z
Si Si1 0.496155 0.982587 0.138488
Si Si2 0.606816 0.309783 0.547299
Si Si3 0.257613 0.534205 0.327710
Si Si4 0.894640 0.043452 0.108737
Si Si5 0.636288 0.718104 0.582612
O O1 0.500000 0.923368 0.250000
O O2 0.563520 0.859585 0.058755
O O3 0.369769 0.996089 0.142275
O O4 0.561830 0.139298 0.122883
O O5 0.707385 0.352368 0.592937
O O6 0.627912 0.379434 0.431344
O O7 0.506960 0.402978 0.627305
O O8 0.330958 0.385833 0.332736
O O9 0.298175 0.587192 0.208162
O O10 0.911028 0.130194 0.999676
O O11 0.750000 0.250000 0.000000
#
# Coordination Sequence:
#
# PCOD9293864 Si02
#       5
#     8   8   8   8   8
#     4  12  27  48  79 114 150 198 257 317 382 455
#     4  10  24  48  76 110 153 199 254 315 381 457
#     4  11  25  51  80 108 152 203 253 314 382 452
#     4  10  22  48  79 108 152 205 254 311 383 457
#     4  11  26  49  76 112 154 196 250 314 378 451
#
# _framework density 27.238443
#
# number of rings (size 3 to 8) (size 9 to 14) (size 15 to 20)
#    0.000    1.200    0.000    4.200    0.000    9.600 
#    0.000   36.000    0.000    0.000    0.000    0.000 
#    0.000    0.000    0.000    0.000    0.000    0.000 
#
# Total GULP energy -111893.963483 kJ/mol
# GULP energy per Si atom -5594.698174 kJ/mol
# Density = 2.717645 g / cm^3
# Si number density = 27.238443 Si / 1000 Ang^3
#
#
#
# Elastic Constant Matrix: (Units=GPa)
#
#
# Indices 1 2 3 4 5 6 
#
# 1 197.3414 66.4664 31.1012 0.0000 31.9585 0.0000
# 2 66.4664 127.4588 21.5592 0.0000 13.1063 0.0000
# 3 31.1012 21.5592 124.4017 0.0000 -1.5852 0.0000
# 4 0.0000 0.0000 0.0000 32.1912 0.0000 0.7083
# 5 31.9585 13.1063 -1.5852 0.0000 36.6699 0.0000
# 6 0.0000 0.0000 0.0000 0.7083 0.0000 49.0054
#
#
#
# Elastic Compliance Matrix: (Units=1/GPa)
#
#
# Indices 1 2 3 4 5 6 
#
# 1 0.007113 -0.002949 -0.001334 0.000000 -0.005203 0.000000
# 2 -0.002949 0.009637 -0.000945 0.000000 -0.000915 0.000000
# 3 -0.001334 -0.000945 0.008559 0.000000 0.001870 0.000000
# 4 0.000000 0.000000 0.000000 0.031074 0.000000 -0.000449
# 5 -0.005203 -0.000915 0.001870 0.000000 0.032213 0.000000
# 6 0.000000 0.000000 0.000000 -0.000449 0.000000 0.020412
#
#
# Mechanical properties :
#
#
# Convention : Reuss Voigt Hill
#
# Bulk Modulus (GPa) = 67.31318 76.38395 71.84857
# Shear Modulus (GPa) = 40.18779 45.57830 42.88305
#
# Velocity S-wave (km/s) = 3.84527 4.09505 3.97212
# Velocity P-wave (km/s) = 6.66941 7.10372 6.88999
#
# Compressibility (1/GPa) = 0.01485593
#
# Stress axis : x y z
#
# Youngs Moduli (GPa) = 140.58061 103.76340 116.83026
#
# Poissons Ratio (x) = 0.30598 0.15581
# Poissons Ratio (y) = 0.41455 0.11036
# Poissons Ratio (z) = 0.18748 0.09802
#
# Static dielectric constant tensor:
#      x y z
#    x 0.483890 0.000000 -0.306470 
#    y 0.000000 2.779740 0.000000 
#    z -0.306470 0.000000 1.987440 
# 
# From -- ./inp_files/235876.got.cif
#   From: 2010.05.17/outbox.cif.g08.bks.cpg/sg15_118_cif.got.tgz:235876.got - 2010.06.03 18:47:42.
