data_PCOD9293716
_publ_section_title
;
Structure prediction by ZEFSAII (Michael W. Deem and Ramdas Pophale) SiO2 
 PCOD9293716
Probable space group: C 2/C
;
_chemical_formula_sum "Si O2"
_cell_formula_units_Z 40
_cell_length_a 5.331543
_cell_length_b 30.011163
_cell_length_c 11.700601
_cell_angle_alpha 90.000000
_cell_angle_beta 69.871447
_cell_angle_gamma 90.000000
_cell_volume 1757.817693
_symmetry_space_group_name_H-M "C 2/C"
_symmetry_group_IT_number 15
_symmetry_cell_setting 'monoclinic'
loop_
_space_group_symop_operation_xyz
x,y,z
-x,y,1/2-z
-x,-y,-z
x,-y,1/2+z
1/2+x,1/2+y,z
1/2-x,1/2+y,1/2-z
1/2-x,1/2-y,-z
1/2+x,1/2-y,1/2+z
loop_
_atom_site_type_symbol
_atom_site_label
_atom_site_fract_x
_atom_site_fract_y
_atom_site_fract_z
Si Si1 0.500000 0.471651 0.750000
Si Si2 0.844867 0.447888 0.125035
Si Si3 0.238239 0.675442 0.526251
Si Si4 0.461990 0.579640 0.481464
Si Si5 0.980027 0.258270 0.615291
Si Si6 0.000000 0.378551 0.250000
O O1 0.251157 0.504058 0.818091
O O2 0.443394 0.440651 0.651933
O O3 0.782334 0.413778 0.239127
O O4 0.673585 0.435756 0.041758
O O5 0.159954 0.440227 0.048685
O O6 0.438720 0.633685 0.481597
O O7 0.320174 0.714981 0.598796
O O8 0.011676 0.651831 0.636594
O O9 0.155670 0.698113 0.420428
O O10 0.250000 0.250000 0.500000
O O11 0.000000 0.260844 0.750000
#
# Coordination Sequence:
#
# PCOD9293716 Si02
#       6
#     4   8   8   8   8   4
#     4  12  24  46  69 100 146 188 225 300 360 410
#     4  11  25  44  69 103 136 184 248 284 344 423
#     4  10  24  43  65 107 132 180 237 283 354 422
#     4  11  27  43  70 103 139 188 235 294 347 432
#     4  11  25  43  74  99 142 180 229 297 355 430
#     4  10  22  46  75  98 134 190 237 294 334 426
#
# _framework density 22.755486000000001
#
# number of rings (size 3 to 8) (size 9 to 14) (size 15 to 20)
#    0.000    1.200    0.000    4.800    8.400    8.000 
#    0.000    0.000    0.000    0.000    0.000    0.000 
#    0.000    0.000    0.000    0.000    0.000    0.000 
#
# Total GULP energy -111560.372146 kJ/mol
# GULP energy per Si atom -5578.018607 kJ/mol
# Density = 2.270369 g / cm^3
# Si number density = 22.755486 Si / 1000 Ang^3
#
#
#
# Elastic Constant Matrix: (Units=GPa)
#
#
# Indices 1 2 3 4 5 6 
#
# 1 113.2207 20.8237 71.5574 0.0000 38.9476 0.0000
# 2 20.8237 125.3075 75.4284 0.0000 28.5722 0.0000
# 3 71.5574 75.4284 180.1697 0.0000 62.2086 0.0000
# 4 0.0000 0.0000 0.0000 -3.8857 0.0000 54.4530
# 5 38.9476 28.5722 62.2086 0.0000 33.6374 0.0000
# 6 0.0000 0.0000 0.0000 54.4530 0.0000 -126.6565
#
#
#
# Elastic Compliance Matrix: (Units=1/GPa)
#
#
# Indices 1 2 3 4 5 6 
#
# 1 0.015026 0.001950 -0.000567 0.000000 -0.018005 0.000000
# 2 0.001950 0.010982 -0.003795 0.000000 -0.004568 0.000000
# 3 -0.000567 -0.003795 0.016668 0.000000 -0.026945 0.000000
# 4 0.000000 0.000000 0.000000 0.051216 0.000000 0.022019
# 5 -0.018005 -0.004568 -0.026945 0.000000 0.104288 0.000000
# 6 0.000000 0.000000 0.000000 0.022019 0.000000 0.001571
#
#
# Mechanical properties :
#
#
# Convention : Reuss Voigt Hill
#
# Bulk Modulus (GPa) = 26.41920 83.81300 55.11610
# Shear Modulus (GPa) = 23.02092 -2.65506 10.18293
#
# Velocity S-wave (km/s) = 3.18412 -1.08135 2.11770
# Velocity P-wave (km/s) = 5.01532 5.94583 5.50028
#
# Compressibility (1/GPa) = 0.03785126
#
# Stress axis : x y z
#
# Youngs Moduli (GPa) = 66.55147 91.05574 59.99508
#
# Poissons Ratio (x) = -0.17756 0.03405
# Poissons Ratio (y) = -0.12977 0.22768
# Poissons Ratio (z) = 0.03777 0.34556
#
# Static dielectric constant tensor:
#      x y z
#    x 1.187240 0.000000 0.076570 
#    y 0.000000 1.943880 0.000000 
#    z 0.076570 0.000000 1.964280 
# 
# From -- ./inp_files/73795.got.cif
#   From: 2010.05.17/outbox.cif.g08.bks.cpg/sg15_37_cif.got.tgz:73795.got - 2010.06.03 18:47:42.
