data_PCOD9293528
_publ_section_title
;
Structure prediction by ZEFSAII (Michael W. Deem and Ramdas Pophale) SiO2 
 PCOD9293528
Probable space group: C 2/C
;
_chemical_formula_sum "Si O2"
_cell_formula_units_Z 36
_cell_length_a 13.664337
_cell_length_b 5.805297
_cell_length_c 19.169258
_cell_angle_alpha 90.000000
_cell_angle_beta 86.564571
_cell_angle_gamma 90.000000
_cell_volume 1517.879046
_symmetry_space_group_name_H-M "C 2/C"
_symmetry_group_IT_number 15
_symmetry_cell_setting 'monoclinic'
loop_
_space_group_symop_operation_xyz
x,y,z
-x,y,1/2-z
-x,-y,-z
x,-y,1/2+z
1/2+x,1/2+y,z
1/2-x,1/2+y,1/2-z
1/2-x,1/2-y,-z
1/2+x,1/2-y,1/2+z
loop_
_atom_site_type_symbol
_atom_site_label
_atom_site_fract_x
_atom_site_fract_y
_atom_site_fract_z
Si Si1 0.206703 0.229862 0.726220
Si Si2 0.500000 0.461089 0.250000
Si Si3 0.495780 0.591962 0.102368
Si Si4 0.577414 0.809123 0.973012
Si Si5 0.712372 0.167957 0.926724
O O1 0.243291 0.486089 0.748589
O O2 0.095301 0.195122 0.754227
O O3 0.218343 0.214752 0.641649
O O4 0.518134 0.619367 0.181764
O O5 0.474985 0.327551 0.086084
O O6 0.391203 0.708941 0.088828
O O7 0.579608 0.660619 0.043746
O O8 0.678563 0.905788 0.940695
O O9 0.500000 0.000000 0.000000
O O10 0.750000 0.250000 0.000000
#
# Coordination Sequence:
#
# PCOD9293528 Si02
#       5
#     8   4   8   8   8
#     4  12  29  54  77 116 162 205 267 323 399 477
#     4  12  26  48  78 108 156 208 256 328 400 466
#     4  10  22  46  67 105 144 195 255 313 390 463
#     4   9  21  41  70  99 140 184 248 307 377 454
#     4  11  25  45  70 109 150 200 256 324 384 464
#
# _framework density 23.717306000000001
#
# number of rings (size 3 to 8) (size 9 to 14) (size 15 to 20)
#    0.000    1.333    2.222    1.333    9.333    3.556 
#    4.000    0.000    0.000    0.000    0.000    0.000 
#    0.000    0.000    0.000    0.000    0.000    0.000 
#
# Total GULP energy -100507.770787 kJ/mol
# GULP energy per Si atom -5583.765044 kJ/mol
# Density = 2.366332 g / cm^3
# Si number density = 23.717306 Si / 1000 Ang^3
#
#
#
# Elastic Constant Matrix: (Units=GPa)
#
#
# Indices 1 2 3 4 5 6 
#
# 1 76.1784 20.6160 -11.6051 0.0000 -7.8420 0.0000
# 2 20.6160 73.8143 19.4697 0.0000 10.2154 0.0000
# 3 -11.6051 19.4697 171.8929 0.0000 -3.7843 0.0000
# 4 0.0000 0.0000 0.0000 19.4880 0.0000 -14.1036
# 5 -7.8420 10.2154 -3.7843 0.0000 37.4861 0.0000
# 6 0.0000 0.0000 0.0000 -14.1036 0.0000 12.8572
#
#
#
# Elastic Compliance Matrix: (Units=1/GPa)
#
#
# Indices 1 2 3 4 5 6 
#
# 1 0.015366 -0.005430 0.001760 0.000000 0.004872 0.000000
# 2 -0.005430 0.016500 -0.002365 0.000000 -0.005871 0.000000
# 3 0.001760 -0.002365 0.006240 0.000000 0.001643 0.000000
# 4 0.000000 0.000000 0.000000 0.248940 0.000000 0.273074
# 5 0.004872 -0.005871 0.001643 0.000000 0.029462 0.000000
# 6 0.000000 0.000000 0.000000 0.273074 0.000000 0.377325
#
#
# Mechanical properties :
#
#
# Convention : Reuss Voigt Hill
#
# Bulk Modulus (GPa) = 38.40738 42.09408 40.25073
# Shear Modulus (GPa) = 6.99709 33.52657 20.26183
#
# Velocity S-wave (km/s) = 1.71948 3.76385 2.92602
# Velocity P-wave (km/s) = 4.49123 6.05604 5.33136
#
# Compressibility (1/GPa) = 0.02603667
#
# Stress axis : x y z
#
# Youngs Moduli (GPa) = 65.07771 60.60447 160.24620
#
# Poissons Ratio (x) = 0.32909 -0.28199
# Poissons Ratio (y) = 0.35338 0.37895
# Poissons Ratio (z) = -0.11452 0.14332
#
# Static dielectric constant tensor:
#      x y z
#    x 1.950500 0.000000 0.047360 
#    y 0.000000 2.044520 0.000000 
#    z 0.047360 0.000000 1.963390 
# 
# From -- ./inp_files/241499.got.cif
#   From: 2010.05.17/outbox.cif.g08.bks.cpg/sg15_121_cif.got.tgz:241499.got - 2010.06.03 18:47:42.
