data_PCOD9293472
_publ_section_title
;
Structure prediction by ZEFSAII (Michael W. Deem and Ramdas Pophale) SiO2 
 PCOD9293472
Probable space group: C 2/C
;
_chemical_formula_sum "Si O2"
_cell_formula_units_Z 44
_cell_length_a 14.769946
_cell_length_b 13.139129
_cell_length_c 11.583684
_cell_angle_alpha 90.000000
_cell_angle_beta 96.657067
_cell_angle_gamma 90.000000
_cell_volume 2232.822334
_symmetry_space_group_name_H-M "C 2/C"
_symmetry_group_IT_number 15
_symmetry_cell_setting 'monoclinic'
loop_
_space_group_symop_operation_xyz
x,y,z
-x,y,1/2-z
-x,-y,-z
x,-y,1/2+z
1/2+x,1/2+y,z
1/2-x,1/2+y,1/2-z
1/2-x,1/2-y,-z
1/2+x,1/2-y,1/2+z
loop_
_atom_site_type_symbol
_atom_site_label
_atom_site_fract_x
_atom_site_fract_y
_atom_site_fract_z
Si Si1 0.317948 0.736545 0.400291
Si Si2 0.000000 0.223510 0.750000
Si Si3 0.145964 0.280149 0.476783
Si Si4 0.501448 0.621189 0.992655
Si Si5 0.161186 0.640689 0.232400
Si Si6 0.891840 0.588254 0.751420
O O1 0.250000 0.750000 0.500000
O O2 0.402079 0.665132 0.449392
O O3 0.257243 0.685912 0.289140
O O4 0.361386 0.840878 0.355005
O O5 0.984849 0.153078 0.857758
O O6 0.084674 0.296782 0.791177
O O7 0.250000 0.250000 0.500000
O O8 0.130665 0.336398 0.596519
O O9 0.135788 0.353358 0.367884
O O10 0.078581 0.183689 0.454174
O O11 0.500000 0.500000 0.000000
O O12 0.155555 0.520984 0.249752
O O13 0.000000 0.573139 0.750000
#
# Coordination Sequence:
#
# PCOD9293472 Si02
#       6
#     8   4   8   8   8   8
#     4  12  26  46  67 105 142 178 235 284 340 424
#     4  10  22  46  62 100 140 170 228 288 336 404
#     4  11  25  46  66 102 142 174 236 290 339 412
#     4  11  26  43  70  97 137 185 226 284 346 408
#     4  11  25  42  73  98 138 181 227 288 349 398
#     4  12  26  46  73 101 138 188 233 288 346 410
#
# _framework density 19.706001000000001
#
# number of rings (size 3 to 8) (size 9 to 14) (size 15 to 20)
#    0.000    0.727    6.364    0.000    5.091    2.182 
#    0.000    0.000    0.000    0.000    0.000    0.000 
#    0.000    0.000    0.000    0.000    0.000    0.000 
#
# Total GULP energy -122863.477957 kJ/mol
# GULP energy per Si atom -5584.703543 kJ/mol
# Density = 1.966115 g / cm^3
# Si number density = 19.706001 Si / 1000 Ang^3
#
#
#
# Elastic Constant Matrix: (Units=GPa)
#
#
# Indices 1 2 3 4 5 6 
#
# 1 110.2070 44.3390 -1.9397 0.0000 11.4679 0.0000
# 2 44.3390 174.4394 30.7993 0.0000 -6.2088 0.0000
# 3 -1.9397 30.7993 57.1525 0.0000 -4.8648 0.0000
# 4 0.0000 0.0000 0.0000 22.7182 0.0000 4.6983
# 5 11.4679 -6.2088 -4.8648 0.0000 40.1640 0.0000
# 6 0.0000 0.0000 0.0000 4.6983 0.0000 20.7469
#
#
#
# Elastic Compliance Matrix: (Units=1/GPa)
#
#
# Indices 1 2 3 4 5 6 
#
# 1 0.010723 -0.003159 0.001782 0.000000 -0.003334 0.000000
# 2 -0.003159 0.007279 -0.003898 0.000000 0.001555 0.000000
# 3 0.001782 -0.003898 0.019767 0.000000 0.001283 0.000000
# 4 0.000000 0.000000 0.000000 0.046180 0.000000 -0.010458
# 5 -0.003334 0.001555 0.001283 0.000000 0.026246 0.000000
# 6 0.000000 0.000000 0.000000 -0.010458 0.000000 0.050568
#
#
# Mechanical properties :
#
#
# Convention : Reuss Voigt Hill
#
# Bulk Modulus (GPa) = 36.73600 54.24401 45.49001
# Shear Modulus (GPa) = 27.71842 34.63249 31.17546
#
# Velocity S-wave (km/s) = 3.75453 4.19675 3.98179
# Velocity P-wave (km/s) = 6.12192 7.14633 6.65387
#
# Compressibility (1/GPa) = 0.02722125
#
# Stress axis : x y z
#
# Youngs Moduli (GPa) = 93.25662 137.37952 50.58916
#
# Poissons Ratio (x) = 0.43398 -0.09017
# Poissons Ratio (y) = 0.29460 0.19717
# Poissons Ratio (z) = -0.16623 0.53544
#
# Static dielectric constant tensor:
#      x y z
#    x 1.703590 0.000000 -0.053110 
#    y 0.000000 1.648700 0.000000 
#    z -0.053110 0.000000 1.761270 
# 
# From -- ./inp_files/94962.got.cif
#   From: 2010.05.17/outbox.cif.g08.bks.cpg/sg15_48_cif.got.tgz:94962.got - 2010.06.03 18:47:42.
