data_PCOD9293627
_publ_section_title
;
Structure prediction by ZEFSAII (Michael W. Deem and Ramdas Pophale) SiO2 
 PCOD9293627
Probable space group: C 2/C
;
_chemical_formula_sum "Si O2"
_cell_formula_units_Z 44
_cell_length_a 12.721399
_cell_length_b 25.012655
_cell_length_c 10.951568
_cell_angle_alpha 90.000000
_cell_angle_beta 33.194740
_cell_angle_gamma 90.000000
_cell_volume 1907.850362
_symmetry_space_group_name_H-M "C 2/C"
_symmetry_group_IT_number 15
_symmetry_cell_setting 'monoclinic'
loop_
_space_group_symop_operation_xyz
x,y,z
-x,y,1/2-z
-x,-y,-z
x,-y,1/2+z
1/2+x,1/2+y,z
1/2-x,1/2+y,1/2-z
1/2-x,1/2-y,-z
1/2+x,1/2-y,1/2+z
loop_
_atom_site_type_symbol
_atom_site_label
_atom_site_fract_x
_atom_site_fract_y
_atom_site_fract_z
Si Si1 0.336340 0.328992 0.042800
Si Si2 0.029134 0.559159 0.421761
Si Si3 0.516200 0.225787 0.496926
Si Si4 0.500000 0.792557 0.750000
Si Si5 0.774555 0.862549 0.827785
Si Si6 0.229920 0.893828 0.033925
O O1 0.157589 0.313052 0.298581
O O2 0.449755 0.272298 0.938868
O O3 0.268362 0.346529 0.975849
O O4 0.501078 0.370706 0.921849
O O5 0.128200 0.591303 0.436014
O O6 0.179390 0.570261 0.164394
O O7 0.000000 0.500000 0.500000
O O8 0.830211 0.582440 0.559159
O O9 0.498693 0.242060 0.373695
O O10 0.700588 0.187923 0.323557
O O11 0.321657 0.834480 0.929371
O O12 0.000000 0.893836 0.250000
#
# Coordination Sequence:
#
# PCOD9293627 Si02
#       6
#     8   8   8   4   8   8
#     4  11  26  39  68 101 146 193 240 294 356 438
#     4  10  23  47  71 103 141 182 246 318 380 437
#     4  12  22  43  63  98 145 196 240 296 348 426
#     4  10  24  40  68  98 142 194 248 294 350 420
#     4  11  23  44  65 100 142 191 238 300 368 429
#     4  10  22  46  71 100 144 186 238 311 367 439
#
# _framework density 23.062605000000001
#
# number of rings (size 3 to 8) (size 9 to 14) (size 15 to 20)
#    0.000    1.455    5.455    1.091    5.091    1.455 
#    9.818    0.000    0.000    0.000    0.000    0.000 
#    0.000    0.000    0.000    0.000    0.000    0.000 
#
# Total GULP energy -122876.347653 kJ/mol
# GULP energy per Si atom -5585.288530 kJ/mol
# Density = 2.301011 g / cm^3
# Si number density = 23.062605 Si / 1000 Ang^3
#
#
#
# Elastic Constant Matrix: (Units=GPa)
#
#
# Indices 1 2 3 4 5 6 
#
# 1 184.1835 66.9797 82.0387 0.0000 -9.0245 0.0000
# 2 66.9797 104.5588 18.8656 0.0000 -1.8617 0.0000
# 3 82.0387 18.8656 126.5157 0.0002 -24.6810 -0.0002
# 4 0.0000 0.0000 0.0002 15.3216 -0.0001 6.9293
# 5 -9.0245 -1.8617 -24.6810 -0.0001 44.0694 0.0001
# 6 0.0000 0.0000 -0.0002 6.9293 0.0001 30.9756
#
#
#
# Elastic Compliance Matrix: (Units=1/GPa)
#
#
# Indices 1 2 3 4 5 6 
#
# 1 0.009939 -0.005321 -0.005948 0.000000 -0.001521 0.000000
# 2 -0.005321 0.012685 0.001629 0.000000 0.000358 0.000000
# 3 -0.005948 0.001629 0.012680 0.000000 0.005952 0.000000
# 4 0.000000 0.000000 0.000000 0.072614 0.000000 -0.016244
# 5 -0.001521 0.000358 0.005952 0.000000 0.025729 0.000000
# 6 0.000000 0.000000 0.000000 -0.016244 0.000000 0.035917
#
#
# Mechanical properties :
#
#
# Convention : Reuss Voigt Hill
#
# Bulk Modulus (GPa) = 62.41098 83.44734 72.92916
# Shear Modulus (GPa) = 25.74851 34.56490 30.15670
#
# Velocity S-wave (km/s) = 3.34497 3.87556 3.62000
# Velocity P-wave (km/s) = 6.48373 7.50254 7.01166
#
# Compressibility (1/GPa) = 0.01602282
#
# Stress axis : x y z
#
# Youngs Moduli (GPa) = 100.61013 78.83296 78.86672
#
# Poissons Ratio (x) = 0.41946 0.46913
# Poissons Ratio (y) = 0.53534 -0.12845
# Poissons Ratio (z) = 0.59847 -0.12839
#
# Static dielectric constant tensor:
#      x y z
#    x 1.900550 0.000000 -0.026930 
#    y 0.000000 1.855860 0.000000 
#    z -0.026930 0.000000 1.945390 
# 
# From -- ./inp_files/91947.got.cif
#   From: 2010.05.17/outbox.cif.g08.bks.cpg/sg15_46_cif.got.tgz:91947.got - 2010.06.03 18:47:42.
