data_PCOD9293098
_publ_section_title
;
Structure prediction by ZEFSAII (Michael W. Deem and Ramdas Pophale) SiO2 
 PCOD9293098
Probable space group: C 2/C
;
_chemical_formula_sum "Si O2"
_cell_formula_units_Z 44
_cell_length_a 9.295748
_cell_length_b 22.250775
_cell_length_c 10.203227
_cell_angle_alpha 90.000000
_cell_angle_beta 63.288822
_cell_angle_gamma 90.000000
_cell_volume 1885.195734
_symmetry_space_group_name_H-M "C 2/C"
_symmetry_group_IT_number 15
_symmetry_cell_setting 'monoclinic'
loop_
_space_group_symop_operation_xyz
x,y,z
-x,y,1/2-z
-x,-y,-z
x,-y,1/2+z
1/2+x,1/2+y,z
1/2-x,1/2+y,1/2-z
1/2-x,1/2-y,-z
1/2+x,1/2-y,1/2+z
loop_
_atom_site_type_symbol
_atom_site_label
_atom_site_fract_x
_atom_site_fract_y
_atom_site_fract_z
Si Si1 0.540174 0.277524 0.882173
Si Si2 0.832736 0.641191 0.281561
Si Si3 0.739155 0.321440 0.325682
Si Si4 0.000000 0.100308 0.750000
Si Si5 0.704137 0.955822 0.489775
Si Si6 0.600887 0.092284 0.527990
O O1 0.500000 0.298131 0.750000
O O2 0.675533 0.321728 0.884009
O O3 0.636115 0.215638 0.815715
O O4 0.379682 0.279146 0.036233
O O5 0.834390 0.579522 0.361803
O O6 0.836299 0.625108 0.128260
O O7 0.000000 0.674183 0.250000
O O8 0.616021 0.358540 0.288509
O O9 0.839782 0.365498 0.379096
O O10 0.886329 0.058432 0.882050
O O11 0.584872 0.925573 0.429650
O O12 0.676217 0.026235 0.512664
#
# Coordination Sequence:
#
# PCOD9293098 Si02
#       6
#     8   8   8   4   8   8
#     4  12  26  48  71 104 140 198 245 307 360 434
#     4  10  22  44  73 101 142 192 237 292 370 440
#     4  12  29  47  73 107 149 193 252 304 366 435
#     4  12  28  44  72 112 144 186 242 304 370 442
#     4  10  24  46  73 109 146 190 234 301 372 441
#     4  10  24  47  75 105 146 190 244 300 364 442
#
# _framework density 23.339752000000001
#
# number of rings (size 3 to 8) (size 9 to 14) (size 15 to 20)
#    0.000    1.091    3.636    0.545    6.364    4.364 
#    0.000    0.000    0.000    0.000    0.000    0.000 
#    0.000    0.000    0.000    0.000    0.000    0.000 
#
# Total GULP energy -123158.854359 kJ/mol
# GULP energy per Si atom -5598.129744 kJ/mol
# Density = 2.328663 g / cm^3
# Si number density = 23.339752 Si / 1000 Ang^3
#
#
#
# Elastic Constant Matrix: (Units=GPa)
#
#
# Indices 1 2 3 4 5 6 
#
# 1 119.5487 69.9905 30.7935 0.0000 -6.8921 0.0000
# 2 69.9905 131.5099 33.7304 0.0000 -4.5713 0.0000
# 3 30.7935 33.7304 72.0541 0.0000 -10.4082 0.0000
# 4 0.0000 0.0000 0.0000 -309.1095 0.0000 95.8905
# 5 -6.8921 -4.5713 -10.4082 0.0000 47.6994 0.0000
# 6 0.0000 0.0000 0.0000 95.8905 0.0000 13.3146
#
#
#
# Elastic Compliance Matrix: (Units=1/GPa)
#
#
# Indices 1 2 3 4 5 6 
#
# 1 0.012570 -0.006039 -0.002443 0.000000 0.000704 0.000000
# 2 -0.006039 0.011543 -0.002880 0.000000 -0.000395 0.000000
# 3 -0.002443 -0.002880 0.016706 0.000000 0.003016 0.000000
# 4 0.000000 0.000000 0.000000 -0.001000 0.000000 0.007204
# 5 0.000704 -0.000395 0.003016 0.000000 0.021687 0.000000
# 6 0.000000 0.000000 0.000000 0.007204 0.000000 0.023223
#
#
# Mechanical properties :
#
#
# Convention : Reuss Voigt Hill
#
# Bulk Modulus (GPa) = 55.26199 65.79350 60.52774
# Shear Modulus (GPa) = 44.05895 -37.04589 3.50653
#
# Velocity S-wave (km/s) = 4.34951 -3.98835 1.22705
# Velocity P-wave (km/s) = 6.99663 2.65357 5.29123
#
# Compressibility (1/GPa) = 0.01809562
#
# Stress axis : x y z
#
# Youngs Moduli (GPa) = 79.55317 86.63449 59.85700
#
# Poissons Ratio (x) = 0.52316 0.14626
# Poissons Ratio (y) = 0.48040 0.17237
# Poissons Ratio (z) = 0.19438 0.24948
#
# Static dielectric constant tensor:
#      x y z
#    x 1.880490 0.000000 -0.008980 
#    y 0.000000 1.866300 0.000000 
#    z -0.008980 0.000000 1.897470 
# 
# From -- ./inp_files/78102.got.cif
#   From: 2010.05.17/outbox.cif.g08.bks.cpg/sg15_40_cif.got.tgz:78102.got - 2010.06.03 18:47:42.
