data_PCOD9293496
_publ_section_title
;
Structure prediction by ZEFSAII (Michael W. Deem and Ramdas Pophale) SiO2 
 PCOD9293496
Probable space group: C 2/C
;
_chemical_formula_sum "Si O2"
_cell_formula_units_Z 48
_cell_length_a 11.586608
_cell_length_b 18.007848
_cell_length_c 14.460878
_cell_angle_alpha 90.000000
_cell_angle_beta 140.212220
_cell_angle_gamma 90.000000
_cell_volume 1930.883197
_symmetry_space_group_name_H-M "C 2/C"
_symmetry_group_IT_number 15
_symmetry_cell_setting 'monoclinic'
loop_
_space_group_symop_operation_xyz
x,y,z
-x,y,1/2-z
-x,-y,-z
x,-y,1/2+z
1/2+x,1/2+y,z
1/2-x,1/2+y,1/2-z
1/2-x,1/2-y,-z
1/2+x,1/2-y,1/2+z
loop_
_atom_site_type_symbol
_atom_site_label
_atom_site_fract_x
_atom_site_fract_y
_atom_site_fract_z
Si Si1 0.326703 0.600774 0.847364
Si Si2 0.652656 0.674638 0.279323
Si Si3 0.548143 0.533495 0.397437
Si Si4 0.954351 0.350726 0.469384
Si Si5 0.374735 0.931384 0.595364
Si Si6 0.340888 0.301202 0.935291
O O1 0.338244 0.587674 0.964088
O O2 0.147053 0.616707 0.681125
O O3 0.417615 0.525504 0.866622
O O4 0.466081 0.667529 0.912965
O O5 0.500000 0.711349 0.250000
O O6 0.853079 0.681554 0.441237
O O7 0.662219 0.696742 0.178222
O O8 0.593541 0.588399 0.237409
O O9 0.704739 0.479758 0.455825
O O10 0.981340 0.408721 0.569276
O O11 0.833709 0.286711 0.445638
O O12 0.500000 0.970025 0.750000
O O13 0.298093 0.859482 0.605565
#
# Coordination Sequence:
#
# PCOD9293496 Si02
#       6
#     8   8   8   8   8   8
#     4   9  21  39  67  91 132 183 213 273 333 396
#     4  11  25  43  66  96 134 184 223 283 320 391
#     4   9  22  44  59  90 143 172 219 273 338 385
#     4  12  24  40  72 104 124 179 234 266 340 414
#     4  11  23  41  70 105 134 176 210 290 348 394
#     4  10  22  46  64  99 145 167 219 285 342 395
#
# _framework density 24.859089999999998
#
# number of rings (size 3 to 8) (size 9 to 14) (size 15 to 20)
#    0.000    1.667    1.667    2.500    2.333    4.667 
#    0.000    2.500    0.000    0.000    0.000    0.000 
#    0.000    0.000    0.000    0.000    0.000    0.000 
#
# Total GULP energy -133960.811109 kJ/mol
# GULP energy per Si atom -5581.700463 kJ/mol
# Density = 2.480251 g / cm^3
# Si number density = 24.859090 Si / 1000 Ang^3
#
#
#
# Elastic Constant Matrix: (Units=GPa)
#
#
# Indices 1 2 3 4 5 6 
#
# 1 67.6102 -12.0806 18.5948 0.0000 11.6555 0.0000
# 2 -12.0806 64.1375 6.4682 -0.0001 -4.3476 0.0000
# 3 18.5948 6.4682 126.5126 -0.0001 20.2556 0.0000
# 4 0.0000 -0.0001 -0.0001 31.7729 -0.0002 -3.9104
# 5 11.6555 -4.3476 20.2556 -0.0002 20.5082 -0.0001
# 6 0.0000 0.0000 0.0000 -3.9104 -0.0001 9.4580
#
#
#
# Elastic Compliance Matrix: (Units=1/GPa)
#
#
# Indices 1 2 3 4 5 6 
#
# 1 0.017007 0.002826 -0.001417 0.000000 -0.007667 0.000000
# 2 0.002826 0.016565 -0.001862 0.000000 0.003744 0.000000
# 3 -0.001417 -0.001862 0.009671 0.000000 -0.009142 0.000000
# 4 0.000000 0.000000 0.000000 0.033161 0.000001 0.013710
# 5 -0.007667 0.003744 -0.009142 0.000001 0.062942 0.000001
# 6 0.000000 0.000000 0.000000 0.013710 0.000001 0.111400
#
#
# Mechanical properties :
#
#
# Convention : Reuss Voigt Hill
#
# Bulk Modulus (GPa) = 23.61832 31.58059 27.59945
# Shear Modulus (GPa) = 18.81371 28.69966 23.75669
#
# Velocity S-wave (km/s) = 2.75401 3.40147 3.09472
# Velocity P-wave (km/s) = 4.43106 5.30642 4.88837
#
# Compressibility (1/GPa) = 0.04234002
#
# Stress axis : x y z
#
# Youngs Moduli (GPa) = 58.79893 60.36660 103.39714
#
# Poissons Ratio (x) = -0.17063 0.14647
# Poissons Ratio (y) = -0.16619 0.19251
# Poissons Ratio (z) = 0.08330 0.11239
#
# Static dielectric constant tensor:
#      x y z
#    x 2.122820 0.000000 -0.099830 
#    y 0.000000 2.006360 0.000000 
#    z -0.099830 0.000000 1.998960 
# 
# From -- ./inp_files/147454.got.cif
#   From: 2010.05.17/outbox.cif.g08.bks.cpg/sg15_74_cif.got.tgz:147454.got - 2010.06.03 18:47:42.
