data_PCOD9293733
_publ_section_title
;
Structure prediction by ZEFSAII (Michael W. Deem and Ramdas Pophale) SiO2 
 PCOD9293733
Probable space group: C 2/C
;
_chemical_formula_sum "Si O2"
_cell_formula_units_Z 36
_cell_length_a 17.930252
_cell_length_b 5.024552
_cell_length_c 23.010907
_cell_angle_alpha 90.000000
_cell_angle_beta 141.499089
_cell_angle_gamma 90.000000
_cell_volume 1290.552641
_symmetry_space_group_name_H-M "C 2/C"
_symmetry_group_IT_number 15
_symmetry_cell_setting 'monoclinic'
loop_
_space_group_symop_operation_xyz
x,y,z
-x,y,1/2-z
-x,-y,-z
x,-y,1/2+z
1/2+x,1/2+y,z
1/2-x,1/2+y,1/2-z
1/2-x,1/2-y,-z
1/2+x,1/2-y,1/2+z
loop_
_atom_site_type_symbol
_atom_site_label
_atom_site_fract_x
_atom_site_fract_y
_atom_site_fract_z
Si Si1 0.500000 0.194409 0.750000
Si Si2 0.762458 0.502887 0.549781
Si Si3 0.838820 0.063880 0.723542
Si Si4 0.117685 0.532926 0.153820
Si Si5 0.614242 0.288153 0.545974
O O1 0.446347 0.389630 0.766474
O O2 0.392413 0.023795 0.658629
O O3 0.750000 0.250000 0.500000
O O4 0.658888 0.536949 0.536222
O O5 0.750000 0.750000 0.500000
O O6 0.751141 0.890925 0.711973
O O7 0.879503 0.336027 0.780383
O O8 0.739838 0.126829 0.614023
O O9 0.101973 0.250207 0.108242
O O10 0.006066 0.684294 0.055951
#
# Coordination Sequence:
#
# PCOD9293733 Si02
#       5
#     4   8   8   8   8
#     4  12  28  50  84 122 178 216 288 364 428 528
#     4  12  28  51  82 119 171 226 282 347 433 509
#     4  10  22  46  80 123 162 229 278 354 427 511
#     4   9  21  45  76 113 168 215 286 343 419 508
#     4   9  22  46  75 113 168 214 283 351 412 502
#
# _framework density 27.895026000000001
#
# number of rings (size 3 to 8) (size 9 to 14) (size 15 to 20)
#    1.333    0.444    0.000    2.667    0.000    8.889 
#    0.000    6.667    0.000    0.000    0.000    0.000 
#    0.000    0.000    0.000    0.000    0.000    0.000 
#
# Total GULP energy -100424.536163 kJ/mol
# GULP energy per Si atom -5579.140898 kJ/mol
# Density = 2.783154 g / cm^3
# Si number density = 27.895026 Si / 1000 Ang^3
#
#
#
# Elastic Constant Matrix: (Units=GPa)
#
#
# Indices 1 2 3 4 5 6 
#
# 1 156.1745 81.1257 79.7559 -0.0002 7.0729 0.0006
# 2 81.1257 146.1863 37.6335 -0.0027 -13.3003 0.0100
# 3 79.7559 37.6335 182.9931 0.0018 -23.1959 0.0015
# 4 -0.0002 -0.0027 0.0018 39.1353 0.0002 -0.6604
# 5 7.0729 -13.3003 -23.1959 0.0002 52.0931 0.0000
# 6 0.0006 0.0100 0.0015 -0.6604 0.0000 65.8119
#
#
#
# Elastic Compliance Matrix: (Units=1/GPa)
#
#
# Indices 1 2 3 4 5 6 
#
# 1 0.012204 -0.006033 -0.004752 0.000000 -0.005313 0.000001
# 2 -0.006033 0.010283 0.001008 0.000001 0.003893 -0.000002
# 3 -0.004752 0.001008 0.007888 0.000000 0.004415 0.000000
# 4 0.000000 0.000001 0.000000 0.025557 0.000000 0.000256
# 5 -0.005313 0.003893 0.004415 0.000000 0.022878 -0.000001
# 6 0.000001 -0.000002 0.000000 0.000256 -0.000001 0.015197
#
#
# Mechanical properties :
#
#
# Convention : Reuss Voigt Hill
#
# Bulk Modulus (GPa) = 92.40253 98.04268 95.22260
# Shear Modulus (GPa) = 42.67376 50.53066 46.60221
#
# Velocity S-wave (km/s) = 3.91551 4.26074 4.09177
# Velocity P-wave (km/s) = 7.32384 7.70899 7.51888
#
# Compressibility (1/GPa) = 0.01082221
#
# Stress axis : x y z
#
# Youngs Moduli (GPa) = 81.93886 97.24614 126.77344
#
# Poissons Ratio (x) = 0.58667 0.60242
# Poissons Ratio (y) = 0.49432 -0.12780
# Poissons Ratio (z) = 0.38937 -0.09803
#
# Static dielectric constant tensor:
#      x y z
#    x 3.763880 0.000030 -0.009380 
#    y 0.000030 2.460310 0.000000 
#    z -0.009380 0.000000 2.245960 
# 
# From -- ./inp_files/318247.got.cif
#   From: 2010.05.17/outbox.cif.g08.bks.cpg/sg15_160_cif.got.tgz:318247.got - 2010.06.03 18:47:42.
