data_PCOD9293247
_publ_section_title
;
Structure prediction by ZEFSAII (Michael W. Deem and Ramdas Pophale) SiO2 
 PCOD9293247
Probable space group: C 2/C
;
_chemical_formula_sum "Si O2"
_cell_formula_units_Z 60
_cell_length_a 21.320653
_cell_length_b 26.796036
_cell_length_c 14.838176
_cell_angle_alpha 90.000000
_cell_angle_beta 159.422167
_cell_angle_gamma 90.000000
_cell_volume 2979.555907
_symmetry_space_group_name_H-M "C 2/C"
_symmetry_group_IT_number 15
_symmetry_cell_setting 'monoclinic'
loop_
_space_group_symop_operation_xyz
x,y,z
-x,y,1/2-z
-x,-y,-z
x,-y,1/2+z
1/2+x,1/2+y,z
1/2-x,1/2+y,1/2-z
1/2-x,1/2-y,-z
1/2+x,1/2-y,1/2+z
loop_
_atom_site_type_symbol
_atom_site_label
_atom_site_fract_x
_atom_site_fract_y
_atom_site_fract_z
Si Si1 0.295958 0.443567 0.942497
Si Si2 0.637995 0.139518 0.359117
Si Si3 0.534531 0.207898 0.058516
Si Si4 0.733227 0.870412 0.702762
Si Si5 0.813747 0.157827 0.945576
Si Si6 0.500000 0.072526 0.750000
Si Si7 0.780077 0.050735 0.973507
Si Si8 0.908562 0.824692 0.370848
O O1 0.187471 0.406721 0.862277
O O2 0.293355 0.417556 0.842804
O O3 0.224754 0.499992 0.848730
O O4 0.500000 0.444282 0.250000
O O5 0.500000 0.124002 0.250000
O O6 0.807870 0.157777 0.645087
O O7 0.556076 0.184334 0.187939
O O8 0.337280 0.200258 0.751379
O O9 0.661378 0.172652 0.170789
O O10 0.591646 0.264888 0.130075
O O11 0.590517 0.892054 0.443913
O O12 0.894308 0.846070 0.867124
O O13 0.734348 0.105055 0.872458
O O14 0.838156 0.154617 0.870890
O O15 0.000000 0.167243 0.250000
O O16 0.669077 0.047202 0.920606
O O17 0.000000 0.051299 0.250000
#
# Coordination Sequence:
#
# PCOD9293247 Si02
#       8
#     8   8   8   8   8   4   8   8
#     4  10  22  45  66  97 131 169 216 284 342 394
#     4  11  23  42  67  97 134 167 222 282 335 409
#     4  11  24  43  64  99 132 175 222 275 341 391
#     4  11  24  42  65  93 136 171 223 277 328 407
#     4  11  23  45  65  94 140 175 218 280 324 396
#     4  12  24  46  66 100 130 182 228 268 332 416
#     4  10  23  45  70  95 137 178 223 282 345 391
#     4  12  24  43  69  96 129 178 224 273 339 403
#
# _framework density 20.137229000000001
#
# number of rings (size 3 to 8) (size 9 to 14) (size 15 to 20)
#    0.000    1.067    4.000    2.800    0.933    1.067 
#    4.800    2.000    0.000    0.000    0.000    0.000 
#    0.000    0.000    0.000    0.000    0.000    0.000 
#
# Total GULP energy -167174.493805 kJ/mol
# GULP energy per Si atom -5572.483127 kJ/mol
# Density = 2.009140 g / cm^3
# Si number density = 20.137229 Si / 1000 Ang^3
#
#
#
# Elastic Constant Matrix: (Units=GPa)
#
#
# Indices 1 2 3 4 5 6 
#
# 1 75.3897 11.5155 -1.7124 0.0000 15.4735 0.0000
# 2 11.5155 54.0323 13.5521 0.0000 -5.3314 0.0000
# 3 -1.7124 13.5521 62.7710 0.0000 -5.9153 0.0000
# 4 0.0000 0.0000 0.0000 21.6351 0.0000 -7.1225
# 5 15.4735 -5.3314 -5.9153 0.0000 40.9610 0.0000
# 6 0.0000 0.0000 0.0000 -7.1225 0.0000 23.5818
#
#
#
# Elastic Compliance Matrix: (Units=1/GPa)
#
#
# Indices 1 2 3 4 5 6 
#
# 1 0.015155 -0.004012 0.000700 0.000000 -0.006146 0.000000
# 2 -0.004012 0.020786 -0.004257 0.000000 0.003606 0.000000
# 3 0.000700 -0.004257 0.017024 0.000000 0.001640 0.000000
# 4 0.000000 0.000000 0.000000 0.051324 0.000000 0.015502
# 5 -0.006146 0.003606 0.001640 0.000000 0.027441 0.000000
# 6 0.000000 0.000000 0.000000 0.015502 0.000000 0.047088
#
#
# Mechanical properties :
#
#
# Convention : Reuss Voigt Hill
#
# Bulk Modulus (GPa) = 26.43625 26.54483 26.49054
# Shear Modulus (GPa) = 24.20555 28.49142 26.34849
#
# Velocity S-wave (km/s) = 3.47079 3.76555 3.62117
# Velocity P-wave (km/s) = 5.40541 5.66713 5.53782
#
# Compressibility (1/GPa) = 0.03782684
#
# Stress axis : x y z
#
# Youngs Moduli (GPa) = 65.98689 48.10917 58.74166
#
# Poissons Ratio (x) = 0.19301 -0.04114
# Poissons Ratio (y) = 0.26473 0.25008
# Poissons Ratio (z) = -0.04622 0.20481
#
# Static dielectric constant tensor:
#      x y z
#    x 1.760650 0.000000 0.056690 
#    y 0.000000 1.692810 0.000000 
#    z 0.056690 0.000000 1.768250 
# 
# From -- ./inp_files/64112.got.cif
#   From: 2010.05.17/outbox.cif.g08.bks.cpg/sg15_33_cif.got.tgz:64112.got - 2010.06.03 18:47:42.
