data_PCOD9293875
_publ_section_title
;
Structure prediction by ZEFSAII (Michael W. Deem and Ramdas Pophale) SiO2 
 PCOD9293875
Probable space group: C 2/C
;
_chemical_formula_sum "Si O2"
_cell_formula_units_Z 20
_cell_length_a 18.165760
_cell_length_b 5.547023
_cell_length_c 12.616540
_cell_angle_alpha 90.000000
_cell_angle_beta 144.727669
_cell_angle_gamma 90.000000
_cell_volume 734.138999
_symmetry_space_group_name_H-M "C 2/C"
_symmetry_group_IT_number 15
_symmetry_cell_setting 'monoclinic'
loop_
_space_group_symop_operation_xyz
x,y,z
-x,y,1/2-z
-x,-y,-z
x,-y,1/2+z
1/2+x,1/2+y,z
1/2-x,1/2+y,1/2-z
1/2-x,1/2-y,-z
1/2+x,1/2-y,1/2+z
loop_
_atom_site_type_symbol
_atom_site_label
_atom_site_fract_x
_atom_site_fract_y
_atom_site_fract_z
Si Si1 0.000000 0.723653 0.750000
Si Si2 0.890382 0.179406 0.703272
Si Si3 0.671662 0.154290 0.150522
O O1 0.900613 0.638145 0.544725
O O2 0.089968 0.894138 0.780186
O O3 0.750000 0.250000 0.500000
O O4 0.912408 0.291948 0.843777
O O5 0.000000 0.261491 0.750000
O O6 0.754311 0.403203 0.244441
#
# Coordination Sequence:
#
# PCOD9293875 Si02
#       3
#     4   8   8
#     4  10  24  46  82 114 162 206 278 322 416 466
#     4  10  22  49  77 119 162 212 268 338 406 484
#     4  12  26  51  82 118 163 212 273 336 405 486
#
# _framework density 27.242796999999999
#
# number of rings (size 3 to 8) (size 9 to 14) (size 15 to 20)
#    1.200    0.000    4.000    1.200    0.000    3.200 
#    3.600   12.000    0.000    0.000    0.000    0.000 
#    0.000    0.000    0.000    0.000    0.000    0.000 
#
# Total GULP energy -55960.818200 kJ/mol
# GULP energy per Si atom -5596.081820 kJ/mol
# Density = 2.718079 g / cm^3
# Si number density = 27.242797 Si / 1000 Ang^3
#
#
#
# Elastic Constant Matrix: (Units=GPa)
#
#
# Indices 1 2 3 4 5 6 
#
# 1 192.1035 63.0929 66.4240 0.0001 -11.6321 0.0000
# 2 63.0929 131.9341 123.1968 0.0003 -21.4392 0.0002
# 3 66.4240 123.1968 232.9499 -0.0001 -19.6605 0.0000
# 4 0.0001 0.0003 -0.0001 48.7948 -0.0002 -0.1355
# 5 -11.6321 -21.4392 -19.6605 -0.0002 42.7469 -0.0001
# 6 0.0000 0.0002 0.0000 -0.1355 -0.0001 57.1770
#
#
#
# Elastic Compliance Matrix: (Units=1/GPa)
#
#
# Indices 1 2 3 4 5 6 
#
# 1 0.006196 -0.002558 -0.000395 0.000000 0.000221 0.000000
# 2 -0.002558 0.016727 -0.007769 0.000000 0.004120 0.000000
# 3 -0.000395 -0.007769 0.008506 0.000000 -0.000092 0.000000
# 4 0.000000 0.000000 0.000000 0.020494 0.000000 0.000049
# 5 0.000221 0.004120 -0.000092 0.000000 0.025478 0.000000
# 6 0.000000 0.000000 0.000000 0.000049 0.000000 0.017490
#
#
# Mechanical properties :
#
#
# Convention : Reuss Voigt Hill
#
# Bulk Modulus (GPa) = 100.15340 118.04611 109.09975
# Shear Modulus (GPa) = 41.78421 50.02868 45.90644
#
# Velocity S-wave (km/s) = 3.92059 4.28997 4.10943
# Velocity P-wave (km/s) = 7.57217 8.24401 7.91522
#
# Compressibility (1/GPa) = 0.00998468
#
# Stress axis : x y z
#
# Youngs Moduli (GPa) = 161.40318 59.78497 117.55903
#
# Poissons Ratio (x) = 0.15292 0.04647
# Poissons Ratio (y) = 0.41284 0.91330
# Poissons Ratio (z) = 0.06380 0.46446
#
# Static dielectric constant tensor:
#      x y z
#    x 2.198590 0.000000 0.062100 
#    y 0.000000 2.527950 0.000000 
#    z 0.062100 0.000000 1.978880 
# 
# From -- ./inp_files/101995.got.cif
#   From: 2010.05.17/outbox.cif.g08.bks.cpg/sg15_51_cif.got.tgz:101995.got - 2010.06.03 18:47:42.
