data_PCOD9293099
_publ_section_title
;
Structure prediction by ZEFSAII (Michael W. Deem and Ramdas Pophale) SiO2 
 PCOD9293099
Probable space group: C 2/C
;
_chemical_formula_sum "Si O2"
_cell_formula_units_Z 48
_cell_length_a 8.874183
_cell_length_b 12.359950
_cell_length_c 20.018208
_cell_angle_alpha 90.000000
_cell_angle_beta 113.237072
_cell_angle_gamma 90.000000
_cell_volume 2017.572786
_symmetry_space_group_name_H-M "C 2/C"
_symmetry_group_IT_number 15
_symmetry_cell_setting 'monoclinic'
loop_
_space_group_symop_operation_xyz
x,y,z
-x,y,1/2-z
-x,-y,-z
x,-y,1/2+z
1/2+x,1/2+y,z
1/2-x,1/2+y,1/2-z
1/2-x,1/2-y,-z
1/2+x,1/2-y,1/2+z
loop_
_atom_site_type_symbol
_atom_site_label
_atom_site_fract_x
_atom_site_fract_y
_atom_site_fract_z
Si Si1 0.592888 0.093848 0.592125
Si Si2 0.954800 0.177299 0.614082
Si Si3 0.123015 0.281514 0.536186
Si Si4 0.090652 0.982644 0.698869
Si Si5 0.428880 0.096264 0.307418
Si Si6 0.942980 0.227285 0.163785
O O1 0.536326 0.185195 0.635797
O O2 0.779780 0.121734 0.602227
O O3 0.531345 0.885303 0.490824
O O4 0.562929 0.984032 0.628020
O O5 0.977185 0.206036 0.539511
O O6 0.982532 0.289607 0.660330
O O7 0.096589 0.089801 0.656853
O O8 0.250000 0.250000 0.500000
O O9 0.247403 0.276899 0.620407
O O10 0.240559 0.912717 0.752540
O O11 0.988049 0.891438 0.643714
O O12 0.000000 0.020606 0.750000
O O13 0.500000 0.050653 0.250000
O O14 0.000000 0.240886 0.250000
#
# Coordination Sequence:
#
# PCOD9293099 Si02
#       6
#     8   8   8   8   8   8
#     4  11  25  47  69 106 147 189 244 297 365 440
#     4  12  25  46  71 103 148 191 245 304 367 434
#     4  10  25  46  72 104 142 196 247 297 367 440
#     4  11  23  41  70 107 142 186 243 307 364 426
#     4  12  27  43  74 111 146 194 245 304 368 435
#     4  10  22  44  73 101 144 191 240 304 363 425
#
# _framework density 23.790962
#
# number of rings (size 3 to 8) (size 9 to 14) (size 15 to 20)
#    0.000    1.000    1.667    4.500    9.333    0.667 
#    3.000    1.667    0.000    0.000    0.000    0.000 
#    0.000    0.000    0.000    0.000    0.000    0.000 
#
# Total GULP energy -133781.647480 kJ/mol
# GULP energy per Si atom -5574.235312 kJ/mol
# Density = 2.373681 g / cm^3
# Si number density = 23.790962 Si / 1000 Ang^3
#
#
#
# Elastic Constant Matrix: (Units=GPa)
#
#
# Indices 1 2 3 4 5 6 
#
# 1 81.1433 11.5360 48.9611 0.0000 -4.2001 0.0000
# 2 11.5360 125.1026 19.7059 0.0000 -7.1850 0.0000
# 3 48.9611 19.7059 87.1780 0.0000 -8.2813 0.0000
# 4 0.0000 0.0000 0.0000 43.1112 0.0000 -11.5413
# 5 -4.2001 -7.1850 -8.2813 0.0000 40.5463 0.0000
# 6 0.0000 0.0000 0.0000 -11.5413 0.0000 30.1153
#
#
#
# Elastic Compliance Matrix: (Units=1/GPa)
#
#
# Indices 1 2 3 4 5 6 
#
# 1 0.018643 -0.000082 -0.010473 0.000000 -0.000222 0.000000
# 2 -0.000082 0.008338 -0.001733 0.000000 0.001115 0.000000
# 3 -0.010473 -0.001733 0.017961 0.000000 0.002276 0.000000
# 4 0.000000 0.000000 0.000000 0.025848 0.000000 0.009906
# 5 -0.000222 0.001115 0.002276 0.000000 0.025303 0.000000
# 6 0.000000 0.000000 0.000000 0.009906 0.000000 0.037002
#
#
# Mechanical properties :
#
#
# Convention : Reuss Voigt Hill
#
# Bulk Modulus (GPa) = 49.10120 50.42556 49.76338
# Shear Modulus (GPa) = 30.40273 36.96928 33.68600
#
# Velocity S-wave (km/s) = 3.57867 3.94626 3.76695
# Velocity P-wave (km/s) = 6.14485 6.48114 6.31524
#
# Compressibility (1/GPa) = 0.02036610
#
# Stress axis : x y z
#
# Youngs Moduli (GPa) = 53.63828 119.93303 55.67751
#
# Poissons Ratio (x) = 0.00986 0.58311
# Poissons Ratio (y) = 0.00441 0.09647
# Poissons Ratio (z) = 0.56176 0.20780
#
# Static dielectric constant tensor:
#      x y z
#    x 2.025480 0.000000 0.031410 
#    y 0.000000 1.967900 0.000000 
#    z 0.031410 0.000000 1.968490 
# 
# From -- ./inp_files/263262.got.cif
#   From: 2010.05.17/outbox.cif.g08.bks.cpg/sg15_132_cif.got.tgz:263262.got - 2010.06.03 18:47:42.
