data_PCOD9293321
_publ_section_title
;
Structure prediction by ZEFSAII (Michael W. Deem and Ramdas Pophale) SiO2 
 PCOD9293321
Probable space group: C 2/C
;
_chemical_formula_sum "Si O2"
_cell_formula_units_Z 52
_cell_length_a 5.014616
_cell_length_b 18.155237
_cell_length_c 27.610514
_cell_angle_alpha 90.000000
_cell_angle_beta 121.463019
_cell_angle_gamma 90.000000
_cell_volume 2144.132073
_symmetry_space_group_name_H-M "C 2/C"
_symmetry_group_IT_number 15
_symmetry_cell_setting 'monoclinic'
loop_
_space_group_symop_operation_xyz
x,y,z
-x,y,1/2-z
-x,-y,-z
x,-y,1/2+z
1/2+x,1/2+y,z
1/2-x,1/2+y,1/2-z
1/2-x,1/2-y,-z
1/2+x,1/2-y,1/2+z
loop_
_atom_site_type_symbol
_atom_site_label
_atom_site_fract_x
_atom_site_fract_y
_atom_site_fract_z
Si Si1 0.250000 0.750000 0.500000
Si Si2 0.912794 0.740705 0.316099
Si Si3 0.500000 0.370017 0.250000
Si Si4 0.307813 0.299540 0.405758
Si Si5 0.500000 0.118314 0.250000
Si Si6 0.412396 0.058473 0.863291
Si Si7 0.081305 0.962968 0.632835
Si Si8 0.487597 0.680729 0.071173
O O1 0.325109 0.688818 0.553150
O O2 0.372066 0.685675 0.468282
O O3 0.727649 0.761649 0.347120
O O4 0.909356 0.814977 0.284658
O O5 0.837326 0.673266 0.273457
O O6 0.252478 0.717522 0.368678
O O7 0.230741 0.420459 0.202721
O O8 0.098026 0.368698 0.396197
O O9 0.315039 0.233292 0.447653
O O10 0.751814 0.070770 0.303486
O O11 0.649197 0.992521 0.876562
O O12 0.138296 0.029655 0.871471
O O13 0.915799 0.897882 0.587596
#
# Coordination Sequence:
#
# PCOD9293321 Si02
#       8
#     4   8   4   8   4   8   8   8
#     4  10  24  44  80 100 128 172 250 300 368 418
#     4   9  20  38  66 101 135 175 243 290 332 395
#     4  11  20  42  64 102 137 192 226 276 331 418
#     4  11  23  44  73  99 134 179 239 301 346 424
#     4   9  20  42  62 102 137 198 234 282 339 432
#     4  12  26  43  67 100 150 185 230 281 355 420
#     4  11  26  44  65 101 148 189 226 287 354 426
#     4  10  22  45  70 100 130 180 234 297 351 422
#
# _framework density 24.252234999999999
#
# number of rings (size 3 to 8) (size 9 to 14) (size 15 to 20)
#    0.000    1.538    1.538    2.308    8.615    1.846 
#    2.769    1.538    0.000    0.000    0.000    0.000 
#    0.000    0.000    0.000    0.000    0.000    0.000 
#
# Total GULP energy -145029.791461 kJ/mol
# GULP energy per Si atom -5578.068902 kJ/mol
# Density = 2.419704 g / cm^3
# Si number density = 24.252235 Si / 1000 Ang^3
#
#
#
# Elastic Constant Matrix: (Units=GPa)
#
#
# Indices 1 2 3 4 5 6 
#
# 1 66.6541 10.5998 30.5064 0.0000 -9.0414 0.0000
# 2 10.5998 95.6925 34.8121 0.0000 6.3835 0.0000
# 3 30.5064 34.8121 102.3350 0.0000 -4.4711 0.0000
# 4 0.0000 0.0000 0.0000 14.3722 0.0000 11.8321
# 5 -9.0414 6.3835 -4.4711 0.0000 42.9109 0.0000
# 6 0.0000 0.0000 0.0000 11.8321 0.0000 35.5109
#
#
#
# Elastic Compliance Matrix: (Units=1/GPa)
#
#
# Indices 1 2 3 4 5 6 
#
# 1 0.017814 -0.000356 -0.005046 0.000000 0.003281 0.000000
# 2 -0.000356 0.012145 -0.004126 0.000000 -0.002312 0.000000
# 3 -0.005046 -0.004126 0.012718 0.000000 0.000876 0.000000
# 4 0.000000 0.000000 0.000000 0.095879 0.000000 -0.031946
# 5 0.003281 -0.002312 0.000876 0.000000 0.024430 0.000000
# 6 0.000000 0.000000 0.000000 -0.031946 0.000000 0.038805
#
#
# Mechanical properties :
#
#
# Convention : Reuss Voigt Hill
#
# Bulk Modulus (GPa) = 42.33728 46.27982 44.30855
# Shear Modulus (GPa) = 21.86069 31.14303 26.50186
#
# Velocity S-wave (km/s) = 3.00557 3.58736 3.30928
# Velocity P-wave (km/s) = 5.43503 6.02354 5.73684
#
# Compressibility (1/GPa) = 0.02361985
#
# Stress axis : x y z
#
# Youngs Moduli (GPa) = 56.13589 82.33909 78.62941
#
# Poissons Ratio (x) = 0.02935 0.39675
# Poissons Ratio (y) = 0.02001 0.32444
# Poissons Ratio (z) = 0.28325 0.33974
#
# Static dielectric constant tensor:
#      x y z
#    x 2.107360 0.000000 0.111100 
#    y 0.000000 1.924430 0.000000 
#    z 0.111100 0.000000 1.993490 
# 
# From -- ./inp_files/286165.got.cif
#   From: 2010.05.17/outbox.cif.g08.bks.cpg/sg15_144_cif.got.tgz:286165.got - 2010.06.03 18:47:42.
