data_PCOD9293092
_publ_section_title
;
Structure prediction by ZEFSAII (Michael W. Deem and Ramdas Pophale) SiO2 
 PCOD9293092
Probable space group: C 2/C
;
_chemical_formula_sum "Si O2"
_cell_formula_units_Z 28
_cell_length_a 16.965071
_cell_length_b 8.727949
_cell_length_c 13.472830
_cell_angle_alpha 90.000000
_cell_angle_beta 142.749696
_cell_angle_gamma 90.000000
_cell_volume 1207.524919
_symmetry_space_group_name_H-M "C 2/C"
_symmetry_group_IT_number 15
_symmetry_cell_setting 'monoclinic'
loop_
_space_group_symop_operation_xyz
x,y,z
-x,y,1/2-z
-x,-y,-z
x,-y,1/2+z
1/2+x,1/2+y,z
1/2-x,1/2+y,1/2-z
1/2-x,1/2-y,-z
1/2+x,1/2-y,1/2+z
loop_
_atom_site_type_symbol
_atom_site_label
_atom_site_fract_x
_atom_site_fract_y
_atom_site_fract_z
Si Si1 0.850335 0.109676 0.109588
Si Si2 0.184924 0.527238 0.601312
Si Si3 0.500000 0.907730 0.750000
Si Si4 0.772147 0.638678 0.156710
O O1 0.000000 0.152810 0.250000
O O2 0.816515 0.035117 0.182109
O O3 0.750000 0.250000 0.000000
O O4 0.814658 0.984494 0.989382
O O5 0.167055 0.445964 0.687476
O O6 0.197687 0.710793 0.618446
O O7 0.072284 0.496841 0.407763
O O8 0.613403 0.817305 0.806417
#
# Coordination Sequence:
#
# PCOD9293092 Si02
#       4
#     8   8   4   8
#     4  11  26  46  73 107 149 192 243 303 364 428
#     4  11  25  45  73 107 144 193 242 300 360 434
#     4  10  22  44  72  98 144 190 240 290 360 420
#     4  11  25  45  73 107 144 193 242 300 360 434
#
# _framework density 23.187926000000001
#
# number of rings (size 3 to 8) (size 9 to 14) (size 15 to 20)
#    0.000    1.143    0.000    6.000   16.000    1.143 
#   10.286    0.000    0.000    0.000    0.000    0.000 
#    0.000    0.000    0.000    0.000    0.000    0.000 
#
# Total GULP energy -78331.281786 kJ/mol
# GULP energy per Si atom -5595.091556 kJ/mol
# Density = 2.313515 g / cm^3
# Si number density = 23.187926 Si / 1000 Ang^3
#
#
#
# Elastic Constant Matrix: (Units=GPa)
#
#
# Indices 1 2 3 4 5 6 
#
# 1 96.7610 35.5301 64.4252 0.0000 -7.6463 0.0000
# 2 35.5301 150.1485 53.8197 0.0000 -2.5139 0.0000
# 3 64.4252 53.8197 127.6912 0.0000 0.9221 0.0000
# 4 0.0000 0.0000 0.0000 19.3090 0.0000 -18.9757
# 5 -7.6463 -2.5139 0.9221 0.0000 57.2484 0.0000
# 6 0.0000 0.0000 0.0000 -18.9757 0.0000 -11.8385
#
#
#
# Elastic Compliance Matrix: (Units=1/GPa)
#
#
# Indices 1 2 3 4 5 6 
#
# 1 0.015972 -0.000999 -0.007654 0.000000 0.002213 0.000000
# 2 -0.000999 0.007917 -0.002835 0.000000 0.000260 0.000000
# 3 -0.007654 -0.002835 0.012897 0.000000 -0.001354 0.000000
# 4 0.000000 0.000000 0.000000 0.020111 0.000000 -0.032235
# 5 0.002213 0.000260 -0.001354 0.000000 0.017797 0.000000
# 6 0.000000 0.000000 0.000000 -0.032235 0.000000 -0.032801
#
#
# Mechanical properties :
#
#
# Convention : Reuss Voigt Hill
#
# Bulk Modulus (GPa) = 72.40043 75.79453 74.09748
# Shear Modulus (GPa) = 71.97239 27.66551 49.81895
#
# Velocity S-wave (km/s) = 5.57729 3.45787 4.64021
# Velocity P-wave (km/s) = 8.53030 6.97858 7.79315
#
# Compressibility (1/GPa) = 0.01381207
#
# Stress axis : x y z
#
# Youngs Moduli (GPa) = 62.60822 126.31200 77.53499
#
# Poissons Ratio (x) = 0.12621 0.59341
# Poissons Ratio (y) = 0.06256 0.21978
# Poissons Ratio (z) = 0.47917 0.35804
#
# Static dielectric constant tensor:
#      x y z
#    x 1.873780 0.000000 0.030090 
#    y 0.000000 1.880460 0.000000 
#    z 0.030090 0.000000 1.887780 
# 
# From -- ./inp_files/93147.got.cif
#   From: 2010.05.17/outbox.cif.g08.bks.cpg/sg15_47_cif.got.tgz:93147.got - 2010.06.03 18:47:42.
