data_PCOD9293430
_publ_section_title
;
Structure prediction by ZEFSAII (Michael W. Deem and Ramdas Pophale) SiO2 
 PCOD9293430
Probable space group: C 2/C
;
_chemical_formula_sum "Si O2"
_cell_formula_units_Z 52
_cell_length_a 8.930778
_cell_length_b 28.342798
_cell_length_c 15.458603
_cell_angle_alpha 90.000000
_cell_angle_beta 35.769659
_cell_angle_gamma 90.000000
_cell_volume 2287.218466
_symmetry_space_group_name_H-M "C 2/C"
_symmetry_group_IT_number 15
_symmetry_cell_setting 'monoclinic'
loop_
_space_group_symop_operation_xyz
x,y,z
-x,y,1/2-z
-x,-y,-z
x,-y,1/2+z
1/2+x,1/2+y,z
1/2-x,1/2+y,1/2-z
1/2-x,1/2-y,-z
1/2+x,1/2-y,1/2+z
loop_
_atom_site_type_symbol
_atom_site_label
_atom_site_fract_x
_atom_site_fract_y
_atom_site_fract_z
Si Si1 0.890032 0.046488 0.595164
Si Si2 0.075190 0.430979 0.077036
Si Si3 0.030539 0.256118 0.331808
Si Si4 0.233938 0.841973 0.205118
Si Si5 0.721934 0.155335 0.267797
Si Si6 0.676576 0.634315 0.479196
Si Si7 0.000000 0.076395 0.250000
O O1 0.678667 0.040622 0.770582
O O2 0.743530 0.073173 0.585373
O O3 0.129096 0.078415 0.511900
O O4 0.000000 0.000000 0.500000
O O5 0.957633 0.380991 0.100501
O O6 0.274614 0.449390 0.910495
O O7 0.166112 0.289077 0.339600
O O8 0.171368 0.205999 0.255683
O O9 0.000000 0.277359 0.250000
O O10 0.750000 0.250000 0.500000
O O11 0.000000 0.852298 0.250000
O O12 0.090164 0.845254 0.364483
O O13 0.416457 0.152077 0.422190
O O14 0.773043 0.147980 0.142457
O O15 0.857767 0.111929 0.251181
#
# Coordination Sequence:
#
# PCOD9293430 Si02
#       7
#     8   8   8   8   8   8   4
#     4  10  22  45  74 104 130 177 234 292 351 432
#     4  10  23  41  73  97 137 179 227 277 356 424
#     4  12  27  41  63  96 139 185 243 292 345 410
#     4  11  25  43  68  97 138 188 235 293 351 411
#     4  11  23  39  65  98 139 187 235 287 350 414
#     4  10  23  42  68  96 136 180 237 281 360 428
#     4  12  20  42  66  98 140 186 226 280 346 424
#
# _framework density 22.735037999999999
#
# number of rings (size 3 to 8) (size 9 to 14) (size 15 to 20)
#    0.000    1.231    2.308    2.769    8.615    3.077 
#    0.000    0.769    6.769    0.000    0.000    0.000 
#    0.000    0.000    0.000    0.000    0.000    0.000 
#
# Total GULP energy -145186.486440 kJ/mol
# GULP energy per Si atom -5584.095632 kJ/mol
# Density = 2.268329 g / cm^3
# Si number density = 22.735038 Si / 1000 Ang^3
#
#
#
# Elastic Constant Matrix: (Units=GPa)
#
#
# Indices 1 2 3 4 5 6 
#
# 1 92.4561 20.4842 15.0530 0.0000 -5.4851 0.0000
# 2 20.4842 74.4174 32.2423 0.0000 -21.9280 0.0000
# 3 15.0530 32.2423 147.1420 0.0000 1.1688 0.0000
# 4 0.0000 0.0000 0.0000 -6.8848 0.0000 -5.1723
# 5 -5.4851 -21.9280 1.1688 0.0000 29.2633 0.0000
# 6 0.0000 0.0000 0.0000 -5.1723 0.0000 13.1431
#
#
#
# Elastic Compliance Matrix: (Units=1/GPa)
#
#
# Indices 1 2 3 4 5 6 
#
# 1 0.011557 -0.002958 -0.000534 0.000000 -0.000029 0.000000
# 2 -0.002958 0.020548 -0.004319 0.000000 0.015015 0.000000
# 3 -0.000534 -0.004319 0.007826 0.000000 -0.003649 0.000000
# 4 0.000000 0.000000 0.000000 -0.112104 0.000000 -0.044117
# 5 -0.000029 0.015015 -0.003649 0.000000 0.045564 0.000000
# 6 0.000000 0.000000 0.000000 -0.044117 0.000000 0.058724
#
#
# Mechanical properties :
#
#
# Convention : Reuss Voigt Hill
#
# Bulk Modulus (GPa) = 41.13904 49.95273 45.54589
# Shear Modulus (GPa) = 89.54148 23.52006 56.53077
#
# Velocity S-wave (km/s) = 6.28254 3.21990 4.99190
# Velocity P-wave (km/s) = 8.41198 5.98691 7.30084
#
# Compressibility (1/GPa) = 0.02430781
#
# Stress axis : x y z
#
# Youngs Moduli (GPa) = 86.53088 48.66698 127.77645
#
# Poissons Ratio (x) = 0.14398 0.06820
# Poissons Ratio (y) = 0.25600 0.55188
# Poissons Ratio (z) = 0.04619 0.21020
#
# Static dielectric constant tensor:
#      x y z
#    x 2.016760 0.000000 -0.028900 
#    y 0.000000 2.044340 0.000000 
#    z -0.028900 0.000000 1.892020 
# 
# From -- ./inp_files/139734.got.cif
#   From: 2010.05.17/outbox.cif.g08.bks.cpg/sg15_70_cif.got.tgz:139734.got - 2010.06.03 18:47:42.
