data_PCOD9293465
_publ_section_title
;
Structure prediction by ZEFSAII (Michael W. Deem and Ramdas Pophale) SiO2 
 PCOD9293465
Probable space group: C 2/C
;
_chemical_formula_sum "Si O2"
_cell_formula_units_Z 36
_cell_length_a 22.694805
_cell_length_b 7.357478
_cell_length_c 25.012472
_cell_angle_alpha 90.000000
_cell_angle_beta 161.168379
_cell_angle_gamma 90.000000
_cell_volume 1348.123096
_symmetry_space_group_name_H-M "C 2/C"
_symmetry_group_IT_number 15
_symmetry_cell_setting 'monoclinic'
loop_
_space_group_symop_operation_xyz
x,y,z
-x,y,1/2-z
-x,-y,-z
x,-y,1/2+z
1/2+x,1/2+y,z
1/2-x,1/2+y,1/2-z
1/2-x,1/2-y,-z
1/2+x,1/2-y,1/2+z
loop_
_atom_site_type_symbol
_atom_site_label
_atom_site_fract_x
_atom_site_fract_y
_atom_site_fract_z
Si Si1 0.000000 0.000526 0.750000
Si Si2 0.707296 0.969539 0.412889
Si Si3 0.929422 0.154136 0.798174
Si Si4 0.144567 0.570674 0.744947
Si Si5 0.862892 0.619679 0.417422
O O1 0.099603 0.115813 0.789745
O O2 0.833168 0.913284 0.572218
O O3 0.500000 0.028600 0.250000
O O4 0.657227 0.855785 0.316663
O O5 0.855274 0.110185 0.513995
O O6 0.873342 0.352706 0.770004
O O7 0.818659 0.000219 0.733908
O O8 0.306914 0.675748 0.853471
O O9 0.962364 0.632411 0.559594
O O10 0.000000 0.500000 0.500000
#
# Coordination Sequence:
#
# PCOD9293465 Si02
#       5
#     4   8   8   8   8
#     4   8  22  44  82 124 174 224 266 334 426 510
#     4  10  22  45  84 127 176 223 272 335 424 510
#     4  10  24  50  81 123 166 221 282 338 427 508
#     4  12  27  50  82 117 164 218 282 350 416 510
#     4  12  30  53  81 119 166 219 295 364 426 495
#
# _framework density 26.703792
#
# number of rings (size 3 to 8) (size 9 to 14) (size 15 to 20)
#    1.333    0.000    0.000    4.000    4.667    2.667 
#    2.000    5.556    0.000    1.333    0.000    0.000 
#    0.000    0.000    0.000    0.000    0.000    0.000 
#
# Total GULP energy -100326.511635 kJ/mol
# GULP energy per Si atom -5573.695091 kJ/mol
# Density = 2.664301 g / cm^3
# Si number density = 26.703792 Si / 1000 Ang^3
#
#
#
# Elastic Constant Matrix: (Units=GPa)
#
#
# Indices 1 2 3 4 5 6 
#
# 1 88.8038 47.4627 63.6228 0.0008 14.9388 -0.0002
# 2 47.4627 170.6887 88.8562 0.0029 31.7293 0.0004
# 3 63.6228 88.8562 227.5199 -0.0017 -5.6745 -0.0005
# 4 0.0008 0.0029 -0.0017 57.5764 -0.0008 15.6516
# 5 14.9388 31.7293 -5.6745 -0.0008 60.0164 0.0000
# 6 -0.0002 0.0004 -0.0005 15.6516 0.0000 18.4552
#
#
#
# Elastic Compliance Matrix: (Units=1/GPa)
#
#
# Indices 1 2 3 4 5 6 
#
# 1 0.015397 -0.001747 -0.003705 0.000000 -0.003259 0.000000
# 2 -0.001747 0.008764 -0.003046 -0.000001 -0.004487 0.000000
# 3 -0.003705 -0.003046 0.006700 0.000001 0.003166 0.000000
# 4 0.000000 -0.000001 0.000001 0.022572 0.000001 -0.019143
# 5 -0.003259 -0.004487 0.003166 0.000001 0.020145 -0.000001
# 6 0.000000 0.000000 0.000000 -0.019143 -0.000001 0.070420
#
#
# Mechanical properties :
#
#
# Convention : Reuss Voigt Hill
#
# Bulk Modulus (GPa) = 72.12205 98.54396 85.33301
# Shear Modulus (GPa) = 30.19057 46.34766 38.26912
#
# Velocity S-wave (km/s) = 3.36605 4.17060 3.78973
# Velocity P-wave (km/s) = 6.49414 7.75723 7.15361
#
# Compressibility (1/GPa) = 0.01386538
#
# Stress axis : x y z
#
# Youngs Moduli (GPa) = 64.94842 114.10112 149.25946
#
# Poissons Ratio (x) = 0.19934 0.55293
# Poissons Ratio (y) = 0.11347 0.45467
# Poissons Ratio (z) = 0.24060 0.34757
#
# Static dielectric constant tensor:
#      x y z
#    x 2.182360 -0.000010 -0.020400 
#    y -0.000010 2.291930 -0.000010 
#    z -0.020400 -0.000010 2.057790 
# 
# From -- ./inp_files/280164.got.cif
#   From: 2010.05.17/outbox.cif.g08.bks.cpg/sg15_141_cif.got.tgz:280164.got - 2010.06.03 18:47:42.
