data_PCOD9293696
_publ_section_title
;
Structure prediction by ZEFSAII (Michael W. Deem and Ramdas Pophale) SiO2 
 PCOD9293696
Probable space group: C 2/C
;
_chemical_formula_sum "Si O2"
_cell_formula_units_Z 44
_cell_length_a 8.226362
_cell_length_b 12.048176
_cell_length_c 17.446651
_cell_angle_alpha 90.000000
_cell_angle_beta 99.914868
_cell_angle_gamma 90.000000
_cell_volume 1703.358021
_symmetry_space_group_name_H-M "C 2/C"
_symmetry_group_IT_number 15
_symmetry_cell_setting 'monoclinic'
loop_
_space_group_symop_operation_xyz
x,y,z
-x,y,1/2-z
-x,-y,-z
x,-y,1/2+z
1/2+x,1/2+y,z
1/2-x,1/2+y,1/2-z
1/2-x,1/2-y,-z
1/2+x,1/2-y,1/2+z
loop_
_atom_site_type_symbol
_atom_site_label
_atom_site_fract_x
_atom_site_fract_y
_atom_site_fract_z
Si Si1 0.000000 0.239931 0.250000
Si Si2 0.629585 0.086164 0.663490
Si Si3 0.488883 0.608710 0.659941
Si Si4 0.934867 0.704796 0.522547
Si Si5 0.610200 0.609602 0.114815
Si Si6 0.494434 0.140154 0.136744
O O1 0.861411 0.330594 0.263601
O O2 0.998758 0.160161 0.323487
O O3 0.793387 0.102489 0.627506
O O4 0.476462 0.130244 0.600212
O O5 0.600554 0.958782 0.681334
O O6 0.500000 0.573588 0.750000
O O7 0.577533 0.520635 0.613053
O O8 0.546785 0.734956 0.659466
O O9 0.750000 0.750000 0.500000
O O10 0.050296 0.814307 0.539820
O O11 0.981579 0.633565 0.452490
O O12 0.803299 0.628701 0.142549
#
# Coordination Sequence:
#
# PCOD9293696 Si02
#       6
#     4   8   8   8   8   8
#     4  10  22  46  74 100 154 184 244 296 374 414
#     4  11  27  47  73 106 151 193 242 310 359 447
#     4  12  28  46  74 110 146 195 247 300 371 436
#     4  11  25  50  76 107 148 196 244 304 371 434
#     4  11  25  46  76 106 149 193 243 312 354 448
#     4  12  27  47  77 109 146 192 249 298 374 433
#
# _framework density 25.831326000000001
#
# number of rings (size 3 to 8) (size 9 to 14) (size 15 to 20)
#    0.000    0.727    4.545    2.182    6.364    3.636 
#    0.000    0.000    0.000    0.000    0.000    0.000 
#    0.000    0.000    0.000    0.000    0.000    0.000 
#
# Total GULP energy -123195.495519 kJ/mol
# GULP energy per Si atom -5599.795251 kJ/mol
# Density = 2.577253 g / cm^3
# Si number density = 25.831326 Si / 1000 Ang^3
#
#
#
# Elastic Constant Matrix: (Units=GPa)
#
#
# Indices 1 2 3 4 5 6 
#
# 1 89.1445 49.5644 29.5052 0.0000 8.5996 0.0000
# 2 49.5644 207.5969 6.1909 0.0000 8.0789 0.0000
# 3 29.5052 6.1909 71.4966 0.0000 -2.8496 0.0000
# 4 0.0000 0.0000 0.0000 38.0338 0.0000 -17.3221
# 5 8.5996 8.0789 -2.8496 0.0000 33.6303 0.0000
# 6 0.0000 0.0000 0.0000 -17.3221 0.0000 25.0015
#
#
#
# Elastic Compliance Matrix: (Units=1/GPa)
#
#
# Indices 1 2 3 4 5 6 
#
# 1 0.015523 -0.003376 -0.006261 0.000000 -0.003689 0.000000
# 2 -0.003376 0.005612 0.000891 0.000000 -0.000410 0.000000
# 3 -0.006261 0.000891 0.016605 0.000000 0.002794 0.000000
# 4 0.000000 0.000000 0.000000 0.038414 0.000000 0.026615
# 5 -0.003689 -0.000410 0.002794 0.000000 0.031014 0.000000
# 6 0.000000 0.000000 0.000000 0.026615 0.000000 0.058438
#
#
# Mechanical properties :
#
#
# Convention : Reuss Voigt Hill
#
# Bulk Modulus (GPa) = 49.38663 59.86212 54.62438
# Shear Modulus (GPa) = 26.33721 38.19826 32.26773
#
# Velocity S-wave (km/s) = 3.19656 3.84963 3.53820
# Velocity P-wave (km/s) = 5.72576 6.55623 6.15502
#
# Compressibility (1/GPa) = 0.02024839
#
# Stress axis : x y z
#
# Youngs Moduli (GPa) = 64.42168 178.17712 60.22451
#
# Poissons Ratio (x) = 0.60150 0.37704
# Poissons Ratio (y) = 0.21748 -0.05365
# Poissons Ratio (z) = 0.40332 -0.15873
#
# Static dielectric constant tensor:
#      x y z
#    x 1.993540 0.000000 0.024290 
#    y 0.000000 2.018170 0.000000 
#    z 0.024290 0.000000 2.076230 
# 
# From -- ./inp_files/230258.got.cif
#   From: 2010.05.17/outbox.cif.g08.bks.cpg/sg15_116_cif.got.tgz:230258.got - 2010.06.03 18:47:42.
