data_PCOD9293854
_publ_section_title
;
Structure prediction by ZEFSAII (Michael W. Deem and Ramdas Pophale) SiO2 
 PCOD9293854
Probable space group: C 2/C
;
_chemical_formula_sum "Si O2"
_cell_formula_units_Z 36
_cell_length_a 15.903602
_cell_length_b 8.643087
_cell_length_c 21.597259
_cell_angle_alpha 90.000000
_cell_angle_beta 31.587207
_cell_angle_gamma 90.000000
_cell_volume 1554.980562
_symmetry_space_group_name_H-M "C 2/C"
_symmetry_group_IT_number 15
_symmetry_cell_setting 'monoclinic'
loop_
_space_group_symop_operation_xyz
x,y,z
-x,y,1/2-z
-x,-y,-z
x,-y,1/2+z
1/2+x,1/2+y,z
1/2-x,1/2+y,1/2-z
1/2-x,1/2-y,-z
1/2+x,1/2-y,1/2+z
loop_
_atom_site_type_symbol
_atom_site_label
_atom_site_fract_x
_atom_site_fract_y
_atom_site_fract_z
Si Si1 0.000000 0.737546 0.750000
Si Si2 0.053324 0.518045 0.826149
Si Si3 0.419770 0.381451 0.098310
Si Si4 0.076759 0.834860 0.269809
Si Si5 0.178615 0.418415 0.914566
O O1 0.024463 0.628491 0.676125
O O2 0.839764 0.834935 0.838587
O O3 0.234756 0.572175 0.722632
O O4 0.073016 0.346704 0.786321
O O5 0.942741 0.539686 0.955036
O O6 0.498956 0.396125 0.117269
O O7 0.402728 0.208445 0.080227
O O8 0.500000 0.500000 0.000000
O O9 0.000000 0.856978 0.250000
O O10 0.247219 0.922109 0.158323
#
# Coordination Sequence:
#
# PCOD9293854 Si02
#       5
#     4   8   8   8   8
#     4  10  22  48  74 116 148 200 248 316 388 450
#     4  11  26  47  76 109 153 200 252 315 377 455
#     4  11  29  49  77 107 152 203 259 304 383 458
#     4  12  27  48  74 114 150 195 254 315 381 442
#     4  11  26  48  79 106 156 198 256 308 389 452
#
# _framework density 23.151415
#
# number of rings (size 3 to 8) (size 9 to 14) (size 15 to 20)
#    0.000    0.889    2.222    2.000   12.444    6.222 
#    0.000    0.000    0.000    0.000    0.000    0.000 
#    0.000    0.000    0.000    0.000    0.000    0.000 
#
# Total GULP energy -100576.480583 kJ/mol
# GULP energy per Si atom -5587.582255 kJ/mol
# Density = 2.309872 g / cm^3
# Si number density = 23.151415 Si / 1000 Ang^3
#
#
#
# Elastic Constant Matrix: (Units=GPa)
#
#
# Indices 1 2 3 4 5 6 
#
# 1 156.2861 54.6606 74.4136 0.0000 39.4343 0.0001
# 2 54.6606 118.1291 88.1761 0.0000 10.1297 0.0001
# 3 74.4136 88.1761 185.8053 0.0001 29.3800 0.0000
# 4 0.0000 0.0000 0.0001 33.4808 -0.0001 17.1478
# 5 39.4343 10.1297 29.3800 -0.0001 35.4079 0.0000
# 6 0.0001 0.0001 0.0000 17.1478 0.0000 1.2831
#
#
#
# Elastic Compliance Matrix: (Units=1/GPa)
#
#
# Indices 1 2 3 4 5 6 
#
# 1 0.010553 -0.003171 -0.001159 0.000000 -0.009885 0.000000
# 2 -0.003171 0.014143 -0.006170 0.000000 0.004605 0.000000
# 3 -0.001159 -0.006170 0.009543 0.000000 -0.004863 0.000000
# 4 0.000000 0.000000 0.000000 -0.005110 0.000000 0.068294
# 5 -0.009885 0.004605 -0.004863 0.000000 0.041969 0.000000
# 6 0.000000 0.000000 0.000000 0.068294 0.000000 -0.133342
#
#
# Mechanical properties :
#
#
# Convention : Reuss Voigt Hill
#
# Bulk Modulus (GPa) = 75.52618 99.41346 87.46982
# Shear Modulus (GPa) = -135.75569 30.23235 -52.76167
#
# Velocity S-wave (km/s) = -7.66586 3.61758 -4.77905
# Velocity P-wave (km/s) = 6.75725 7.77708 2.72236
#
# Compressibility (1/GPa) = 0.01324044
#
# Stress axis : x y z
#
# Youngs Moduli (GPa) = 94.75664 70.70555 104.78773
#
# Poissons Ratio (x) = 0.22418 0.12144
# Poissons Ratio (y) = 0.30043 0.64655
# Poissons Ratio (z) = 0.10981 0.43626
#
# Static dielectric constant tensor:
#      x y z
#    x 1.936260 0.000000 0.031890 
#    y 0.000000 1.901260 0.000000 
#    z 0.031890 0.000000 1.800470 
# 
# From -- ./inp_files/121720.got.cif
#   From: 2010.05.17/outbox.cif.g08.bks.cpg/sg15_61_cif.got.tgz:121720.got - 2010.06.03 18:47:42.
