data_PCOD9293404
_publ_section_title
;
Structure prediction by ZEFSAII (Michael W. Deem and Ramdas Pophale) SiO2 
 PCOD9293404
Probable space group: C 2/C
;
_chemical_formula_sum "Si O2"
_cell_formula_units_Z 56
_cell_length_a 19.637287
_cell_length_b 23.597487
_cell_length_c 8.694583
_cell_angle_alpha 90.000000
_cell_angle_beta 144.500626
_cell_angle_gamma 90.000000
_cell_volume 2339.609547
_symmetry_space_group_name_H-M "C 2/C"
_symmetry_group_IT_number 15
_symmetry_cell_setting 'monoclinic'
loop_
_space_group_symop_operation_xyz
x,y,z
-x,y,1/2-z
-x,-y,-z
x,-y,1/2+z
1/2+x,1/2+y,z
1/2-x,1/2+y,1/2-z
1/2-x,1/2-y,-z
1/2+x,1/2-y,1/2+z
loop_
_atom_site_type_symbol
_atom_site_label
_atom_site_fract_x
_atom_site_fract_y
_atom_site_fract_z
Si Si1 0.763744 0.756459 0.368209
Si Si2 0.249949 0.890485 0.149632
Si Si3 0.002588 0.380782 0.569116
Si Si4 0.088480 0.029292 0.275169
Si Si5 0.491010 0.759494 0.389798
Si Si6 0.111859 0.821720 0.357616
Si Si7 0.753194 0.569998 0.000224
O O1 0.755561 0.824297 0.323592
O O2 0.654476 0.750218 0.307035
O O3 0.904936 0.741621 0.567293
O O4 0.693232 0.720133 0.108488
O O5 0.373154 0.902984 0.296042
O O6 0.237324 0.925492 0.285211
O O7 0.146027 0.910095 0.847320
O O8 0.000000 0.371672 0.750000
O O9 0.016080 0.321266 0.508714
O O10 0.108423 0.421754 0.720781
O O11 0.000000 0.039398 0.250000
O O12 0.196440 0.984980 0.473476
O O13 0.000000 0.000000 0.000000
O O14 0.555696 0.711715 0.611181
O O15 0.187341 0.875146 0.444536
O O16 0.000000 0.841329 0.250000
#
# Coordination Sequence:
#
# PCOD9293404 Si02
#       7
#     8   8   8   8   8   8   8
#     4  12  24  42  70 108 145 196 242 299 378 445
#     4  11  24  46  74 101 147 192 243 305 372 443
#     4  10  22  45  72  98 141 187 237 297 369 447
#     4  12  27  50  75 105 142 188 251 313 367 438
#     4  12  24  40  65 104 147 192 244 301 368 446
#     4  12  24  44  70 105 150 196 247 305 371 454
#     4  11  25  45  73 107 140 193 245 310 370 428
#
# _framework density 23.935616
#
# number of rings (size 3 to 8) (size 9 to 14) (size 15 to 20)
#    0.000    0.571    4.286    4.286    2.000    4.000 
#    2.571    0.000    0.000    0.000    0.000    0.000 
#    0.000    0.000    0.000    0.000    0.000    0.000 
#
# Total GULP energy -156483.330614 kJ/mol
# GULP energy per Si atom -5588.690379 kJ/mol
# Density = 2.388114 g / cm^3
# Si number density = 23.935616 Si / 1000 Ang^3
#
#
#
# Elastic Constant Matrix: (Units=GPa)
#
#
# Indices 1 2 3 4 5 6 
#
# 1 120.6393 28.1550 44.8059 0.0000 31.7522 0.0000
# 2 28.1550 94.5874 39.1524 0.0000 24.1166 0.0000
# 3 44.8059 39.1524 147.0058 0.0000 53.7239 0.0000
# 4 0.0000 0.0000 0.0000 49.3843 0.0000 10.7509
# 5 31.7522 24.1166 53.7239 0.0000 42.2880 0.0000
# 6 0.0000 0.0000 0.0000 10.7509 0.0000 23.0209
#
#
#
# Elastic Compliance Matrix: (Units=1/GPa)
#
#
# Indices 1 2 3 4 5 6 
#
# 1 0.010482 -0.001254 -0.000459 0.000000 -0.006572 0.000000
# 2 -0.001254 0.012664 -0.001298 0.000000 -0.004631 0.000000
# 3 -0.000459 -0.001298 0.012864 0.000000 -0.015258 0.000000
# 4 0.000000 0.000000 0.000000 0.022541 0.000000 -0.010527
# 5 -0.006572 -0.004631 -0.015258 0.000000 0.050608 0.000000
# 6 0.000000 0.000000 0.000000 -0.010527 0.000000 0.048355
#
#
# Mechanical properties :
#
#
# Convention : Reuss Voigt Hill
#
# Bulk Modulus (GPa) = 33.34729 65.16213 49.25471
# Shear Modulus (GPa) = 28.81305 39.61325 34.21315
#
# Velocity S-wave (km/s) = 3.47331 4.07257 3.78482
# Velocity P-wave (km/s) = 5.48156 7.02833 6.30258
#
# Compressibility (1/GPa) = 0.02998744
#
# Stress axis : x y z
#
# Youngs Moduli (GPa) = 95.39989 78.96599 77.73495
#
# Poissons Ratio (x) = 0.09906 0.03568
# Poissons Ratio (y) = 0.11968 0.10089
# Poissons Ratio (z) = 0.04378 0.10249
#
# Static dielectric constant tensor:
#      x y z
#    x 1.915930 0.000000 -0.068630 
#    y 0.000000 1.800950 0.000000 
#    z -0.068630 0.000000 1.955290 
# 
# From -- ./inp_files/114742.got.cif
#   From: 2010.05.17/outbox.cif.g08.bks.cpg/sg15_58_cif.got.tgz:114742.got - 2010.06.03 18:47:42.
