data_PCOD9293753
_publ_section_title
;
Structure prediction by ZEFSAII (Michael W. Deem and Ramdas Pophale) SiO2 
 PCOD9293753
Probable space group: C 2/C
;
_chemical_formula_sum "Si O2"
_cell_formula_units_Z 44
_cell_length_a 24.699220
_cell_length_b 7.720807
_cell_length_c 10.170787
_cell_angle_alpha 90.000000
_cell_angle_beta 56.974138
_cell_angle_gamma 90.000000
_cell_volume 1626.164701
_symmetry_space_group_name_H-M "C 2/C"
_symmetry_group_IT_number 15
_symmetry_cell_setting 'monoclinic'
loop_
_space_group_symop_operation_xyz
x,y,z
-x,y,1/2-z
-x,-y,-z
x,-y,1/2+z
1/2+x,1/2+y,z
1/2-x,1/2+y,1/2-z
1/2-x,1/2-y,-z
1/2+x,1/2-y,1/2+z
loop_
_atom_site_type_symbol
_atom_site_label
_atom_site_fract_x
_atom_site_fract_y
_atom_site_fract_z
Si Si1 0.914724 0.667924 0.808022
Si Si2 0.692860 0.000049 0.933270
Si Si3 0.838030 0.025828 0.809984
Si Si4 0.897919 0.627514 0.130645
Si Si5 0.879362 0.152318 0.010390
Si Si6 0.500000 0.479992 0.750000
O O1 0.928684 0.516622 0.684262
O O2 0.952393 0.847895 0.736097
O O3 0.836712 0.645404 0.931242
O O4 0.931664 0.634482 0.942108
O O5 0.763960 0.058432 0.870256
O O6 0.675797 0.929060 0.811126
O O7 0.644536 0.163211 0.007592
O O8 0.887514 0.181065 0.702229
O O9 0.856255 0.870453 0.688481
O O10 0.843386 0.019340 0.960014
O O11 0.954060 0.103378 0.896480
#
# Coordination Sequence:
#
# PCOD9293753 Si02
#       6
#     8   8   8   8   8   4
#     4  10  24  46  71 100 138 198 230 285 353 417
#     4  10  24  43  77 103 142 182 237 287 364 422
#     4  12  24  46  73 110 148 174 238 296 365 421
#     4  10  22  47  68 106 136 189 235 275 366 415
#     4  12  27  45  72 109 142 190 229 303 352 406
#     4  12  28  50  68 102 148 180 260 284 338 432
#
# _framework density 27.057531000000001
#
# number of rings (size 3 to 8) (size 9 to 14) (size 15 to 20)
#    1.091    0.000    3.636    1.636    5.091    2.182 
#    0.000    3.636    0.000    0.000    0.000    0.000 
#    0.000    0.000    0.000    0.000    0.000    0.000 
#
# Total GULP energy -122800.560030 kJ/mol
# GULP energy per Si atom -5581.843638 kJ/mol
# Density = 2.699595 g / cm^3
# Si number density = 27.057531 Si / 1000 Ang^3
#
#
#
# Elastic Constant Matrix: (Units=GPa)
#
#
# Indices 1 2 3 4 5 6 
#
# 1 113.2985 23.9659 45.6857 0.0000 -5.5066 0.0000
# 2 23.9659 128.7014 42.3817 0.0000 -16.4352 0.0000
# 3 45.6857 42.3817 108.8556 0.0000 9.9992 0.0000
# 4 0.0000 0.0000 0.0000 40.3377 0.0000 1.3438
# 5 -5.5066 -16.4352 9.9992 0.0000 48.4052 0.0000
# 6 0.0000 0.0000 0.0000 1.3438 0.0000 38.9765
#
#
#
# Elastic Compliance Matrix: (Units=1/GPa)
#
#
# Indices 1 2 3 4 5 6 
#
# 1 0.010857 -0.000212 -0.004670 0.000000 0.002128 0.000000
# 2 -0.000212 0.009666 -0.004050 0.000000 0.004095 0.000000
# 3 -0.004670 -0.004050 0.013148 0.000000 -0.004622 0.000000
# 4 0.000000 0.000000 0.000000 0.024819 0.000000 -0.000856
# 5 0.002128 0.004095 -0.004622 0.000000 0.023246 0.000000
# 6 0.000000 0.000000 0.000000 -0.000856 0.000000 0.025686
#
#
# Mechanical properties :
#
#
# Convention : Reuss Voigt Hill
#
# Bulk Modulus (GPa) = 63.26383 63.88023 63.57203
# Shear Modulus (GPa) = 38.29767 41.46536 39.88152
#
# Velocity S-wave (km/s) = 3.76628 3.91895 3.84337
# Velocity P-wave (km/s) = 6.50732 6.64363 6.57583
#
# Compressibility (1/GPa) = 0.01580682
#
# Stress axis : x y z
#
# Youngs Moduli (GPa) = 92.10233 103.45386 76.05830
#
# Poissons Ratio (x) = 0.02198 0.35516
# Poissons Ratio (y) = 0.01956 0.30806
# Poissons Ratio (z) = 0.43007 0.41903
#
# Static dielectric constant tensor:
#      x y z
#    x 2.194810 0.000000 0.032070 
#    y 0.000000 2.297050 0.000000 
#    z 0.032070 0.000000 2.171490 
# 
# From -- ./inp_files/116670.got.cif
#   From: 2010.05.17/outbox.cif.g08.bks.cpg/sg15_59_cif.got.tgz:116670.got - 2010.06.03 18:47:42.
