data_PCOD9293182
_publ_section_title
;
Structure prediction by ZEFSAII (Michael W. Deem and Ramdas Pophale) SiO2 
 PCOD9293182
Probable space group: C 2/C
;
_chemical_formula_sum "Si O2"
_cell_formula_units_Z 44
_cell_length_a 11.747205
_cell_length_b 28.398360
_cell_length_c 8.415770
_cell_angle_alpha 90.000000
_cell_angle_beta 49.822396
_cell_angle_gamma 90.000000
_cell_volume 2145.074905
_symmetry_space_group_name_H-M "C 2/C"
_symmetry_group_IT_number 15
_symmetry_cell_setting 'monoclinic'
loop_
_space_group_symop_operation_xyz
x,y,z
-x,y,1/2-z
-x,-y,-z
x,-y,1/2+z
1/2+x,1/2+y,z
1/2-x,1/2+y,1/2-z
1/2-x,1/2-y,-z
1/2+x,1/2-y,1/2+z
loop_
_atom_site_type_symbol
_atom_site_label
_atom_site_fract_x
_atom_site_fract_y
_atom_site_fract_z
Si Si1 0.134794 0.030234 0.513780
Si Si2 0.000000 0.255736 0.750000
Si Si3 0.350245 0.896243 0.989319
Si Si4 0.653609 0.945123 0.180926
Si Si5 0.631159 0.394879 0.753866
Si Si6 0.734616 0.315445 0.903608
O O1 0.246593 0.063129 0.511475
O O2 0.079364 0.063889 0.421674
O O3 0.000000 0.016037 0.750000
O O4 0.233803 0.986417 0.368754
O O5 0.890460 0.288081 0.743328
O O6 0.106825 0.222434 0.550720
O O7 0.500000 0.894084 0.750000
O O8 0.262092 0.847774 0.035827
O O9 0.379727 0.910354 0.143184
O O10 0.500000 0.965594 0.250000
O O11 0.734952 0.916775 0.968180
O O12 0.500000 0.382536 0.750000
O O13 0.688242 0.351167 0.806883
#
# Coordination Sequence:
#
# PCOD9293182 Si02
#       6
#     8   4   8   8   8   8
#     4  11  24  42  63  92 130 185 226 259 312 391
#     4  10  22  44  76  96 124 168 224 262 324 422
#     4  11  23  41  67  92 129 173 222 264 320 399
#     4  12  25  40  63  96 136 176 220 279 326 368
#     4  11  25  42  66  99 137 172 219 276 328 374
#     4  10  23  43  72  98 126 170 219 264 330 405
#
# _framework density 20.512104000000001
#
# number of rings (size 3 to 8) (size 9 to 14) (size 15 to 20)
#    0.000    1.091    0.909    5.455    7.636    4.364 
#    0.000    2.727    0.000    0.000    0.000    0.000 
#    0.000    0.000    0.000    0.000    0.000    0.000 
#
# Total GULP energy -123081.711747 kJ/mol
# GULP energy per Si atom -5594.623261 kJ/mol
# Density = 2.046542 g / cm^3
# Si number density = 20.512104 Si / 1000 Ang^3
#
#
#
# Elastic Constant Matrix: (Units=GPa)
#
#
# Indices 1 2 3 4 5 6 
#
# 1 131.3198 63.8787 39.5603 0.0000 -11.0518 0.0000
# 2 63.8787 124.4963 39.5735 0.0000 -4.9458 0.0000
# 3 39.5603 39.5735 85.2121 0.0000 -5.6640 0.0000
# 4 0.0000 0.0000 0.0000 18.6841 0.0000 -14.3741
# 5 -11.0518 -4.9458 -5.6640 0.0000 37.4252 0.0000
# 6 0.0000 0.0000 0.0000 -14.3741 0.0000 29.7619
#
#
#
# Elastic Compliance Matrix: (Units=1/GPa)
#
#
# Indices 1 2 3 4 5 6 
#
# 1 0.010876 -0.004616 -0.002760 0.000000 0.002184 0.000000
# 2 -0.004616 0.011396 -0.003172 0.000000 -0.000337 0.000000
# 3 -0.002760 -0.003172 0.014554 0.000000 0.000968 0.000000
# 4 0.000000 0.000000 0.000000 0.085166 0.000000 0.041133
# 5 0.002184 -0.000337 0.000968 0.000000 0.027467 0.000000
# 6 0.000000 0.000000 0.000000 0.041133 0.000000 0.053466
#
#
# Mechanical properties :
#
#
# Convention : Reuss Voigt Hill
#
# Bulk Modulus (GPa) = 63.57417 69.67259 66.62338
# Shear Modulus (GPa) = 21.80900 30.37529 26.09214
#
# Velocity S-wave (km/s) = 3.26425 3.85235 3.57043
# Velocity P-wave (km/s) = 6.72814 7.33674 7.03902
#
# Compressibility (1/GPa) = 0.01572966
#
# Stress axis : x y z
#
# Youngs Moduli (GPa) = 91.94737 87.75256 68.70887
#
# Poissons Ratio (x) = 0.40508 0.18965
# Poissons Ratio (y) = 0.42445 0.21792
# Poissons Ratio (z) = 0.25379 0.27832
#
# Static dielectric constant tensor:
#      x y z
#    x 1.748160 0.000000 -0.014470 
#    y 0.000000 1.728300 0.000000 
#    z -0.014470 0.000000 1.712410 
# 
# From -- ./inp_files/34022.got.cif
#   From: 2010.05.17/outbox.cif.g08.bks.cpg/sg15_18_cif.got.tgz:34022.got - 2010.06.03 18:47:42.
