data_PCOD9293228
_publ_section_title
;
Structure prediction by ZEFSAII (Michael W. Deem and Ramdas Pophale) SiO2 
 PCOD9293228
Probable space group: C 2/C
;
_chemical_formula_sum "Si O2"
_cell_formula_units_Z 48
_cell_length_a 25.066606
_cell_length_b 12.528865
_cell_length_c 13.063537
_cell_angle_alpha 90.000000
_cell_angle_beta 33.203877
_cell_angle_gamma 90.000000
_cell_volume 2246.711046
_symmetry_space_group_name_H-M "C 2/C"
_symmetry_group_IT_number 15
_symmetry_cell_setting 'monoclinic'
loop_
_space_group_symop_operation_xyz
x,y,z
-x,y,1/2-z
-x,-y,-z
x,-y,1/2+z
1/2+x,1/2+y,z
1/2-x,1/2+y,1/2-z
1/2-x,1/2-y,-z
1/2+x,1/2-y,1/2+z
loop_
_atom_site_type_symbol
_atom_site_label
_atom_site_fract_x
_atom_site_fract_y
_atom_site_fract_z
Si Si1 0.806486 0.557283 0.647821
Si Si2 0.414023 0.003702 0.282525
Si Si3 0.088959 0.373920 0.920249
Si Si4 0.107744 0.124644 0.862911
Si Si5 0.756413 0.637775 0.932748
Si Si6 0.937061 0.004066 0.254204
O O1 0.890757 0.561372 0.426754
O O2 0.821142 0.442090 0.678441
O O3 0.704217 0.573648 0.756786
O O4 0.812216 0.639259 0.733858
O O5 0.315741 0.940284 0.411827
O O6 0.431417 0.086094 0.162335
O O7 0.497640 0.913852 0.135010
O O8 0.107454 0.249544 0.887547
O O9 0.102030 0.092438 0.752866
O O10 0.012395 0.073978 0.067074
O O11 0.750000 0.750000 0.000000
O O12 0.652625 0.582688 0.076201
O O13 0.000000 0.967694 0.250000
#
# Coordination Sequence:
#
# PCOD9293228 Si02
#       6
#     8   8   8   8   8   8
#     4  11  23  41  67 104 137 184 238 294 344 435
#     4  10  22  45  65  96 143 181 241 297 347 433
#     4  10  24  44  68  98 142 191 234 300 364 417
#     4  11  24  42  70 103 136 187 239 289 360 432
#     4  11  23  41  68 104 142 187 234 293 357 428
#     4  11  23  44  67  99 142 178 233 299 353 428
#
# _framework density 21.364563
#
# number of rings (size 3 to 8) (size 9 to 14) (size 15 to 20)
#    0.000    1.333    3.333    1.500    2.333    2.000 
#    0.000   10.000    0.000    0.000    0.000    0.000 
#    0.000    0.000    0.000    0.000    0.000    0.000 
#
# Total GULP energy -134048.654094 kJ/mol
# GULP energy per Si atom -5585.360587 kJ/mol
# Density = 2.131594 g / cm^3
# Si number density = 21.364563 Si / 1000 Ang^3
#
#
#
# Elastic Constant Matrix: (Units=GPa)
#
#
# Indices 1 2 3 4 5 6 
#
# 1 138.6671 67.0428 48.5855 0.0000 11.8005 0.0000
# 2 67.0428 109.8749 58.6665 0.0000 -0.8558 0.0000
# 3 48.5855 58.6665 117.8335 0.0000 16.4504 0.0000
# 4 0.0000 0.0000 0.0000 16.3749 0.0000 2.1935
# 5 11.8005 -0.8558 16.4504 0.0000 51.5161 0.0000
# 6 0.0000 0.0000 0.0000 2.1935 0.0000 16.5269
#
#
#
# Elastic Compliance Matrix: (Units=1/GPa)
#
#
# Indices 1 2 3 4 5 6 
#
# 1 0.010653 -0.005903 -0.001151 0.000000 -0.002171 0.000000
# 2 -0.005903 0.015928 -0.005989 0.000000 0.003529 0.000000
# 3 -0.001151 -0.005989 0.012476 0.000000 -0.003820 0.000000
# 4 0.000000 0.000000 0.000000 0.062175 0.000000 -0.008252
# 5 -0.002171 0.003529 -0.003820 0.000000 0.021187 0.000000
# 6 0.000000 0.000000 0.000000 -0.008252 0.000000 0.061603
#
#
# Mechanical properties :
#
#
# Convention : Reuss Voigt Hill
#
# Bulk Modulus (GPa) = 77.08648 79.44056 78.26352
# Shear Modulus (GPa) = 23.31742 29.68895 26.50319
#
# Velocity S-wave (km/s) = 3.30723 3.73183 3.52592
# Velocity P-wave (km/s) = 7.12345 7.47213 7.29987
#
# Compressibility (1/GPa) = 0.01297244
#
# Stress axis : x y z
#
# Youngs Moduli (GPa) = 93.86700 62.78084 80.15318
#
# Poissons Ratio (x) = 0.37059 0.09223
# Poissons Ratio (y) = 0.55409 0.48005
# Poissons Ratio (z) = 0.10800 0.37600
#
# Static dielectric constant tensor:
#      x y z
#    x 1.848580 0.000000 0.014550 
#    y 0.000000 1.712050 0.000000 
#    z 0.014550 0.000000 1.821070 
# 
# From -- ./inp_files/177733.got.cif
#   From: 2010.05.17/outbox.cif.g08.bks.cpg/sg15_89_cif.got.tgz:177733.got - 2010.06.03 18:47:42.
