data_PCOD9293643
_publ_section_title
;
Structure prediction by ZEFSAII (Michael W. Deem and Ramdas Pophale) SiO2 
 PCOD9293643
Probable space group: C 2/C
;
_chemical_formula_sum "Si O2"
_cell_formula_units_Z 56
_cell_length_a 15.210298
_cell_length_b 28.631597
_cell_length_c 11.207554
_cell_angle_alpha 90.000000
_cell_angle_beta 34.235484
_cell_angle_gamma 90.000000
_cell_volume 2745.935824
_symmetry_space_group_name_H-M "C 2/C"
_symmetry_group_IT_number 15
_symmetry_cell_setting 'monoclinic'
loop_
_space_group_symop_operation_xyz
x,y,z
-x,y,1/2-z
-x,-y,-z
x,-y,1/2+z
1/2+x,1/2+y,z
1/2-x,1/2+y,1/2-z
1/2-x,1/2-y,-z
1/2+x,1/2-y,1/2+z
loop_
_atom_site_type_symbol
_atom_site_label
_atom_site_fract_x
_atom_site_fract_y
_atom_site_fract_z
Si Si1 0.751413 0.312343 0.303780
Si Si2 0.887508 0.782414 0.691955
Si Si3 0.102298 0.945982 0.757422
Si Si4 0.832320 0.366343 0.980080
Si Si5 0.824228 0.207466 0.989113
Si Si6 0.082970 0.944714 0.285965
Si Si7 0.812805 0.363072 0.454344
O O1 0.850548 0.271816 0.260111
O O2 0.571236 0.295206 0.494932
O O3 0.824123 0.327900 0.095806
O O4 0.761310 0.357907 0.374753
O O5 0.828801 0.783921 0.622618
O O6 0.784158 0.820539 0.876226
O O7 0.248036 0.911099 0.581499
O O8 0.000000 0.938591 0.750000
O O9 0.136617 0.001315 0.723021
O O10 0.019090 0.936656 0.979104
O O11 0.764674 0.339322 0.942246
O O12 0.723961 0.408826 0.136411
O O13 0.000000 0.382306 0.750000
O O14 0.000000 0.201858 0.750000
O O15 0.750000 0.250000 0.000000
O O16 0.000000 0.936281 0.250000
O O17 0.000000 0.359226 0.250000
#
# Coordination Sequence:
#
# PCOD9293643 Si02
#       7
#     8   8   8   8   8   8   8
#     4  12  26  44  65  93 131 177 221 269 323 387
#     4  12  24  43  65  89 132 172 222 270 313 388
#     4  10  22  46  71  97 132 171 218 271 333 399
#     4  12  26  38  64  97 136 167 213 268 327 390
#     4  12  23  40  62  93 126 172 217 265 326 380
#     4  10  23  43  72 100 128 172 221 270 330 399
#     4  12  27  42  67  96 130 172 220 269 327 388
#
# _framework density 20.393775000000002
#
# number of rings (size 3 to 8) (size 9 to 14) (size 15 to 20)
#    0.000    0.571    2.857    5.143    6.000    0.571 
#    0.000    0.000    0.000    6.857    0.000    0.000 
#    0.000    0.000    0.000    0.000    0.000    0.000 
#
# Total GULP energy -156451.986660 kJ/mol
# GULP energy per Si atom -5587.570952 kJ/mol
# Density = 2.034736 g / cm^3
# Si number density = 20.393775 Si / 1000 Ang^3
#
#
#
# Elastic Constant Matrix: (Units=GPa)
#
#
# Indices 1 2 3 4 5 6 
#
# 1 89.4360 21.6340 29.6603 0.0000 10.3617 0.0000
# 2 21.6340 78.4353 49.0958 0.0000 -5.1697 0.0000
# 3 29.6603 49.0958 81.3950 0.0000 -0.5186 0.0000
# 4 0.0000 0.0000 0.0000 33.5426 0.0000 4.7661
# 5 10.3617 -5.1697 -0.5186 0.0000 32.6248 0.0000
# 6 0.0000 0.0000 0.0000 4.7661 0.0000 25.8243
#
#
#
# Elastic Compliance Matrix: (Units=1/GPa)
#
#
# Indices 1 2 3 4 5 6 
#
# 1 0.013400 -0.001481 -0.004019 0.000000 -0.004554 0.000000
# 2 -0.001481 0.020954 -0.012077 0.000000 0.003599 0.000000
# 3 -0.004019 -0.012077 0.021033 0.000000 -0.000303 0.000000
# 4 0.000000 0.000000 0.000000 0.030616 0.000000 -0.005650
# 5 -0.004554 0.003599 -0.000303 0.000000 0.032663 0.000000
# 6 0.000000 0.000000 0.000000 -0.005650 0.000000 0.039766
#
#
# Mechanical properties :
#
#
# Convention : Reuss Voigt Hill
#
# Bulk Modulus (GPa) = 49.42058 50.00518 49.71288
# Shear Modulus (GPa) = 24.95894 28.32341 26.64117
#
# Velocity S-wave (km/s) = 3.50215 3.73074 3.61825
# Velocity P-wave (km/s) = 6.37489 6.56741 6.47187
#
# Compressibility (1/GPa) = 0.02023449
#
# Stress axis : x y z
#
# Youngs Moduli (GPa) = 74.62827 47.72309 47.54490
#
# Poissons Ratio (x) = 0.07066 0.19108
# Poissons Ratio (y) = 0.11049 0.57419
# Poissons Ratio (z) = 0.29992 0.57634
#
# Static dielectric constant tensor:
#      x y z
#    x 1.766510 0.000000 0.069890 
#    y 0.000000 1.736090 0.000000 
#    z 0.069890 0.000000 1.806010 
# 
# From -- ./inp_files/101756.got.cif
#   From: 2010.05.17/outbox.cif.g08.bks.cpg/sg15_51_cif.got.tgz:101756.got - 2010.06.03 18:47:42.
