data_PCOD9293999
_publ_section_title
;
Structure prediction by ZEFSAII (Michael W. Deem and Ramdas Pophale) SiO2 
 PCOD9293999
Probable space group: C 2/C
;
_chemical_formula_sum "Si O2"
_cell_formula_units_Z 36
_cell_length_a 17.644998
_cell_length_b 19.762973
_cell_length_c 8.802633
_cell_angle_alpha 90.000000
_cell_angle_beta 148.720288
_cell_angle_gamma 90.000000
_cell_volume 1593.804285
_symmetry_space_group_name_H-M "C 2/C"
_symmetry_group_IT_number 15
_symmetry_cell_setting 'monoclinic'
loop_
_space_group_symop_operation_xyz
x,y,z
-x,y,1/2-z
-x,-y,-z
x,-y,1/2+z
1/2+x,1/2+y,z
1/2-x,1/2+y,1/2-z
1/2-x,1/2-y,-z
1/2+x,1/2-y,1/2+z
loop_
_atom_site_type_symbol
_atom_site_label
_atom_site_fract_x
_atom_site_fract_y
_atom_site_fract_z
Si Si1 0.000000 0.063052 0.750000
Si Si2 0.525150 0.337467 0.549541
Si Si3 0.000000 0.520152 0.750000
Si Si4 0.000000 0.729058 0.250000
Si Si5 0.203044 0.491627 0.836026
Si Si6 0.763028 0.859571 0.324487
O O1 0.926583 0.107954 0.493226
O O2 0.872418 0.023404 0.614813
O O3 0.474254 0.275463 0.355937
O O4 0.391164 0.367370 0.418594
O O5 0.654534 0.324445 0.890899
O O6 0.880770 0.482644 0.650459
O O7 0.892858 0.553603 0.444480
O O8 0.138038 0.684196 0.532423
O O9 0.197168 0.570355 0.775789
#
# Coordination Sequence:
#
# PCOD9293999 Si02
#       6
#     4   8   4   4   8   8
#     4  11  22  40  67  94 127 165 208 254 304 373
#     4  10  23  40  62  92 122 160 209 258 304 360
#     4  10  23  38  55  90 133 166 201 246 310 376
#     4  11  23  42  62  86 122 165 207 254 310 367
#     4  11  22  39  62  92 128 165 204 252 311 370
#     4  11  22  39  63  90 122 161 207 257 308 366
#
# _framework density 22.587467
#
# number of rings (size 3 to 8) (size 9 to 14) (size 15 to 20)
#    0.000    1.333    0.000    6.000    0.000    4.444 
#    0.000    4.444    0.000    0.000    0.000    0.000 
#    0.000    0.000    0.000    0.000    0.000    0.000 
#
# Total GULP energy -100437.443479 kJ/mol
# GULP energy per Si atom -5579.857971 kJ/mol
# Density = 2.253606 g / cm^3
# Si number density = 22.587467 Si / 1000 Ang^3
#
#
#
# Elastic Constant Matrix: (Units=GPa)
#
#
# Indices 1 2 3 4 5 6 
#
# 1 157.7427 36.0574 69.2374 0.0000 1.5775 0.0000
# 2 36.0574 69.4964 37.5724 0.0000 0.0885 0.0000
# 3 69.2374 37.5724 147.7978 0.0000 -0.7985 0.0000
# 4 0.0000 0.0000 0.0000 -1.3979 0.0000 1.3714
# 5 1.5775 0.0885 -0.7985 0.0000 53.0258 0.0000
# 6 0.0000 0.0000 0.0000 1.3714 0.0000 21.3162
#
#
#
# Elastic Compliance Matrix: (Units=1/GPa)
#
#
# Indices 1 2 3 4 5 6 
#
# 1 0.008364 -0.002574 -0.003266 0.000000 -0.000294 0.000000
# 2 -0.002574 0.017474 -0.003237 0.000000 -0.000001 0.000000
# 3 -0.003266 -0.003237 0.009120 0.000000 0.000240 0.000000
# 4 0.000000 0.000000 0.000000 -0.672875 0.000000 0.043291
# 5 -0.000294 -0.000001 0.000240 0.000000 0.018871 0.000000
# 6 0.000000 0.000000 0.000000 0.043291 0.000000 0.044128
#
#
# Mechanical properties :
#
#
# Convention : Reuss Voigt Hill
#
# Bulk Modulus (GPa) = 59.50032 73.41900 66.45966
# Shear Modulus (GPa) = -9.07171 30.06680 10.49754
#
# Velocity S-wave (km/s) = -2.00623 3.65242 2.15815
# Velocity P-wave (km/s) = 4.58615 7.09660 5.97472
#
# Compressibility (1/GPa) = 0.01680663
#
# Stress axis : x y z
#
# Youngs Moduli (GPa) = 119.55987 57.22655 109.65101
#
# Poissons Ratio (x) = 0.14729 0.35807
# Poissons Ratio (y) = 0.30772 0.35489
# Poissons Ratio (z) = 0.39042 0.18522
#
# Static dielectric constant tensor:
#      x y z
#    x 1.815570 0.000000 -0.035920 
#    y 0.000000 1.864580 0.000000 
#    z -0.035920 0.000000 1.875540 
# 
# From -- ./inp_files/23133.got.cif
#   From: 2010.05.17/outbox.cif.g08.bks.cpg/sg15_12_cif.got.tgz:23133.got - 2010.06.03 18:47:42.
