data_PCOD9293767
_publ_section_title
;
Structure prediction by ZEFSAII (Michael W. Deem and Ramdas Pophale) SiO2 
 PCOD9293767
Probable space group: C 2/C
;
_chemical_formula_sum "Si O2"
_cell_formula_units_Z 32
_cell_length_a 5.489219
_cell_length_b 24.251216
_cell_length_c 9.383728
_cell_angle_alpha 90.000000
_cell_angle_beta 101.978002
_cell_angle_gamma 90.000000
_cell_volume 1221.966475
_symmetry_space_group_name_H-M "C 2/C"
_symmetry_group_IT_number 15
_symmetry_cell_setting 'monoclinic'
loop_
_space_group_symop_operation_xyz
x,y,z
-x,y,1/2-z
-x,-y,-z
x,-y,1/2+z
1/2+x,1/2+y,z
1/2-x,1/2+y,1/2-z
1/2-x,1/2-y,-z
1/2+x,1/2-y,1/2+z
loop_
_atom_site_type_symbol
_atom_site_label
_atom_site_fract_x
_atom_site_fract_y
_atom_site_fract_z
Si Si1 0.747318 0.718641 0.848356
Si Si2 0.771633 0.485834 0.081974
Si Si3 0.500000 0.685752 0.250000
Si Si4 0.161392 0.633052 0.989575
Si Si5 0.000000 0.424829 0.750000
O O1 0.500000 0.690328 0.750000
O O2 0.779696 0.770939 0.747466
O O3 0.750000 0.750000 0.000000
O O4 0.985431 0.678241 0.895522
O O5 0.785856 0.529635 0.212511
O O6 0.500000 0.500000 0.000000
O O7 0.792034 0.420158 0.103465
O O8 0.000000 0.500000 0.000000
O O9 0.418379 0.653154 0.097950
O O10 0.014925 0.611790 0.112663
#
# Coordination Sequence:
#
# PCOD9293767 Si02
#       5
#     8   8   4   8   4
#     4  12  26  47  71 108 154 194 259 315 377 467
#     4  10  23  44  68 102 138 183 245 300 364 452
#     4  12  24  45  72 102 152 187 256 316 374 466
#     4  11  23  43  74 107 138 205 240 312 398 443
#     4  10  22  47  70 102 146 183 248 314 374 462
#
# _framework density 26.187297000000001
#
# number of rings (size 3 to 8) (size 9 to 14) (size 15 to 20)
#    0.000    1.000    2.500    3.750    0.000    6.000 
#    9.000    0.000    0.000    0.000    0.000    0.000 
#    0.000    0.000    0.000    0.000    0.000    0.000 
#
# Total GULP energy -89242.112841 kJ/mol
# GULP energy per Si atom -5577.632053 kJ/mol
# Density = 2.612769 g / cm^3
# Si number density = 26.187297 Si / 1000 Ang^3
#
#
#
# Elastic Constant Matrix: (Units=GPa)
#
#
# Indices 1 2 3 4 5 6 
#
# 1 107.7345 36.9565 31.3238 0.0000 37.6934 0.0000
# 2 36.9565 167.1571 45.2840 0.0000 16.3838 0.0000
# 3 31.3238 45.2840 148.7386 0.0000 33.1910 0.0000
# 4 0.0000 0.0000 0.0000 -47.7769 0.0000 81.0222
# 5 37.6934 16.3838 33.1910 0.0000 60.0039 0.0000
# 6 0.0000 0.0000 0.0000 81.0222 0.0000 -16.2930
#
#
#
# Elastic Compliance Matrix: (Units=1/GPa)
#
#
# Indices 1 2 3 4 5 6 
#
# 1 0.012576 -0.001957 -0.000466 0.000000 -0.007107 0.000000
# 2 -0.001957 0.006857 -0.001748 0.000000 0.000324 0.000000
# 3 -0.000466 -0.001748 0.008193 0.000000 -0.003762 0.000000
# 4 0.000000 0.000000 0.000000 0.002816 0.000000 0.014003
# 5 -0.007107 0.000324 -0.003762 0.000000 0.023123 0.000000
# 6 0.000000 0.000000 0.000000 0.014003 0.000000 0.008257
#
#
# Mechanical properties :
#
#
# Convention : Reuss Voigt Hill
#
# Bulk Modulus (GPa) = 51.86029 72.30654 62.08342
# Shear Modulus (GPa) = 65.28110 19.85785 42.56948
#
# Velocity S-wave (km/s) = 4.99827 2.75671 4.03622
# Velocity P-wave (km/s) = 7.29087 6.14849 6.74391
#
# Compressibility (1/GPa) = 0.01928258
#
# Stress axis : x y z
#
# Youngs Moduli (GPa) = 79.51749 145.83961 122.05611
#
# Poissons Ratio (x) = 0.28546 0.05694
# Poissons Ratio (y) = 0.15564 0.21332
# Poissons Ratio (z) = 0.03709 0.25488
#
# Static dielectric constant tensor:
#      x y z
#    x 2.638450 0.000000 0.163010 
#    y 0.000000 2.048940 0.000000 
#    z 0.163010 0.000000 2.236620 
# 
# From -- ./inp_files/72774.got.cif
#   From: 2010.05.17/outbox.cif.g08.bks.cpg/sg15_37_cif.got.tgz:72774.got - 2010.06.03 18:47:42.
