data_PCOD9293053
_publ_section_title
;
Structure prediction by ZEFSAII (Michael W. Deem and Ramdas Pophale) SiO2 
 PCOD9293053
Probable space group: C 2/C
;
_chemical_formula_sum "Si O2"
_cell_formula_units_Z 56
_cell_length_a 12.990986
_cell_length_b 9.598172
_cell_length_c 27.055867
_cell_angle_alpha 90.000000
_cell_angle_beta 42.940042
_cell_angle_gamma 90.000000
_cell_volume 2298.198589
_symmetry_space_group_name_H-M "C 2/C"
_symmetry_group_IT_number 15
_symmetry_cell_setting 'monoclinic'
loop_
_space_group_symop_operation_xyz
x,y,z
-x,y,1/2-z
-x,-y,-z
x,-y,1/2+z
1/2+x,1/2+y,z
1/2-x,1/2+y,1/2-z
1/2-x,1/2-y,-z
1/2+x,1/2-y,1/2+z
loop_
_atom_site_type_symbol
_atom_site_label
_atom_site_fract_x
_atom_site_fract_y
_atom_site_fract_z
Si Si1 0.263104 0.918517 0.488595
Si Si2 0.674536 0.278589 0.659841
Si Si3 0.412117 0.986960 0.846393
Si Si4 0.038721 0.647898 0.509377
Si Si5 0.918827 0.953138 0.356121
Si Si6 0.328111 0.227855 0.213624
Si Si7 0.264629 0.731850 0.146091
O O1 0.250000 0.750000 0.500000
O O2 0.436306 0.915839 0.444625
O O3 0.166602 0.000307 0.563389
O O4 0.273545 0.000103 0.434580
O O5 0.570491 0.406354 0.678669
O O6 0.742630 0.279342 0.691317
O O7 0.823898 0.294188 0.571931
O O8 0.581008 0.143326 0.675848
O O9 0.555311 0.902387 0.817925
O O10 0.341950 0.897918 0.826832
O O11 0.922047 0.770152 0.561559
O O12 0.000000 0.500000 0.500000
O O13 0.820698 0.856715 0.353241
O O14 0.065339 0.865789 0.319857
O O15 0.222992 0.240539 0.299301
#
# Coordination Sequence:
#
# PCOD9293053 Si02
#       7
#     8   8   8   8   8   8   8
#     4  11  21  40  70 106 139 176 242 309 360 410
#     4  11  24  46  75 108 140 193 251 298 368 426
#     4  11  24  44  71 105 147 182 248 305 360 441
#     4  11  21  43  73 101 135 185 246 300 350 433
#     4  10  22  44  72 103 142 194 246 294 360 446
#     4  11  27  48  72 103 153 200 233 300 373 433
#     4  11  25  46  69 105 149 190 244 299 365 440
#
# _framework density 24.366911000000002
#
# number of rings (size 3 to 8) (size 9 to 14) (size 15 to 20)
#    0.000    1.143    5.714    2.571    2.000    4.000 
#    2.571    4.286    0.000    0.000    0.000    0.000 
#    0.000    0.000    0.000    0.000    0.000    0.000 
#
# Total GULP energy -155972.444263 kJ/mol
# GULP energy per Si atom -5570.444438 kJ/mol
# Density = 2.431145 g / cm^3
# Si number density = 24.366911 Si / 1000 Ang^3
#
#
#
# Elastic Constant Matrix: (Units=GPa)
#
#
# Indices 1 2 3 4 5 6 
#
# 1 105.3382 38.4552 48.4518 0.0000 26.4542 0.0000
# 2 38.4552 140.6019 45.6782 0.0000 3.3930 0.0000
# 3 48.4518 45.6782 180.1964 0.0000 15.9729 0.0000
# 4 0.0000 0.0000 0.0000 637.9509 0.0000 -193.0510
# 5 26.4542 3.3930 15.9729 0.0000 44.9278 0.0000
# 6 0.0000 0.0000 0.0000 -193.0510 0.0000 77.6801
#
#
#
# Elastic Compliance Matrix: (Units=1/GPa)
#
#
# Indices 1 2 3 4 5 6 
#
# 1 0.013231 -0.002718 -0.002268 0.000000 -0.006779 0.000000
# 2 -0.002718 0.008310 -0.001509 0.000000 0.001510 0.000000
# 3 -0.002268 -0.001509 0.006622 0.000000 -0.000905 0.000000
# 4 0.000000 0.000000 0.000000 0.006322 0.000000 0.015711
# 5 -0.006779 0.001510 -0.000905 0.000000 0.026457 0.000000
# 6 0.000000 0.000000 0.000000 0.015711 0.000000 0.051919
#
#
# Mechanical properties :
#
#
# Convention : Reuss Voigt Hill
#
# Bulk Modulus (GPa) = 65.91034 76.81185 71.36110
# Shear Modulus (GPa) = 38.19431 171.68186 104.93809
#
# Velocity S-wave (km/s) = 3.96342 8.40297 6.56957
# Velocity P-wave (km/s) = 6.93201 11.21330 9.32177
#
# Compressibility (1/GPa) = 0.01517213
#
# Stress axis : x y z
#
# Youngs Moduli (GPa) = 75.57906 120.34123 151.01073
#
# Poissons Ratio (x) = 0.32715 0.34243
# Poissons Ratio (y) = 0.20546 0.22792
# Poissons Ratio (z) = 0.17138 0.18163
#
# Static dielectric constant tensor:
#      x y z
#    x 2.159060 0.000000 -0.098290 
#    y 0.000000 1.965470 0.000000 
#    z -0.098290 0.000000 1.950310 
# 
# From -- ./inp_files/312875.got.cif
#   From: 2010.05.17/outbox.cif.g08.bks.cpg/sg15_157_cif.got.tgz:312875.got - 2010.06.03 18:47:42.
