data_PCOD9293813
_publ_section_title
;
Structure prediction by ZEFSAII (Michael W. Deem and Ramdas Pophale) SiO2 
 PCOD9293813
Probable space group: C 2/C
;
_chemical_formula_sum "Si O2"
_cell_formula_units_Z 32
_cell_length_a 24.645369
_cell_length_b 8.147170
_cell_length_c 8.929970
_cell_angle_alpha 90.000000
_cell_angle_beta 38.091904
_cell_angle_gamma 90.000000
_cell_volume 1106.176030
_symmetry_space_group_name_H-M "C 2/C"
_symmetry_group_IT_number 15
_symmetry_cell_setting 'monoclinic'
loop_
_space_group_symop_operation_xyz
x,y,z
-x,y,1/2-z
-x,-y,-z
x,-y,1/2+z
1/2+x,1/2+y,z
1/2-x,1/2+y,1/2-z
1/2-x,1/2-y,-z
1/2+x,1/2-y,1/2+z
loop_
_atom_site_type_symbol
_atom_site_label
_atom_site_fract_x
_atom_site_fract_y
_atom_site_fract_z
Si Si1 0.089343 0.398542 0.304539
Si Si2 0.728050 0.445911 0.017271
Si Si3 0.668053 0.687934 0.915922
Si Si4 0.401734 0.371851 0.463824
O O1 0.094665 0.711169 0.944168
O O2 0.000000 0.500000 0.500000
O O3 0.179714 0.497897 0.083839
O O4 0.086582 0.272029 0.170446
O O5 0.714879 0.194469 0.201237
O O6 0.634076 0.375152 0.124760
O O7 0.723095 0.620148 0.933208
O O8 0.658805 0.521444 0.828787
O O9 0.500000 0.437999 0.250000
#
# Coordination Sequence:
#
# PCOD9293813 Si02
#       4
#     8   8   8   8
#     4  12  27  54  83 130 175 216 288 370 428 495
#     4  10  24  51  84 116 169 231 282 346 430 526
#     4  10  22  47  89 114 169 227 286 337 437 517
#     4  10  24  51  82 120 167 225 292 339 433 517
#
# _framework density 28.928485999999999
#
# number of rings (size 3 to 8) (size 9 to 14) (size 15 to 20)
#    1.500    0.000    2.500    0.750    0.000    6.000 
#    4.500   18.750    0.000    0.000    0.000    0.000 
#    0.000    0.000    0.000    0.000    0.000    0.000 
#
# Total GULP energy -89255.486775 kJ/mol
# GULP energy per Si atom -5578.467923 kJ/mol
# Density = 2.886264 g / cm^3
# Si number density = 28.928486 Si / 1000 Ang^3
#
#
#
# Elastic Constant Matrix: (Units=GPa)
#
#
# Indices 1 2 3 4 5 6 
#
# 1 202.2431 55.4961 107.6322 0.0000 3.2304 0.0000
# 2 55.4961 142.2488 97.5612 0.0000 -21.4664 0.0000
# 3 107.6322 97.5612 242.0301 0.0000 -16.9282 0.0000
# 4 0.0000 0.0000 0.0000 66.5561 0.0000 -4.9785
# 5 3.2304 -21.4664 -16.9282 0.0000 72.8997 0.0000
# 6 0.0000 0.0000 0.0000 -4.9785 0.0000 69.6693
#
#
#
# Elastic Compliance Matrix: (Units=1/GPa)
#
#
# Indices 1 2 3 4 5 6 
#
# 1 0.006635 -0.000950 -0.002651 0.000000 -0.001189 0.000000
# 2 -0.000950 0.010143 -0.003511 0.000000 0.002213 0.000000
# 3 -0.002651 -0.003511 0.006772 0.000000 0.000656 0.000000
# 4 0.000000 0.000000 0.000000 0.015106 0.000000 0.001079
# 5 -0.001189 0.002213 0.000656 0.000000 0.014574 0.000000
# 6 0.000000 0.000000 0.000000 0.001079 0.000000 0.014431
#
#
# Mechanical properties :
#
#
# Convention : Reuss Voigt Hill
#
# Bulk Modulus (GPa) = 107.23326 123.10012 115.16669
# Shear Modulus (GPa) = 58.82855 63.54719 61.18787
#
# Velocity S-wave (km/s) = 4.51442 4.69198 4.60406
# Velocity P-wave (km/s) = 8.02011 8.48520 8.25593
#
# Compressibility (1/GPa) = 0.00932547
#
# Stress axis : x y z
#
# Youngs Moduli (GPa) = 150.71629 98.59279 147.67017
#
# Poissons Ratio (x) = 0.09365 0.39146
# Poissons Ratio (y) = 0.14316 0.51851
# Poissons Ratio (z) = 0.39953 0.34618
#
# Static dielectric constant tensor:
#      x y z
#    x 2.264850 0.000000 0.001080 
#    y 0.000000 2.676470 0.000000 
#    z 0.001080 0.000000 2.239180 
# 
# From -- ./inp_files/125808.got.cif
#   From: 2010.05.17/outbox.cif.g08.bks.cpg/sg15_63_cif.got.tgz:125808.got - 2010.06.03 18:47:42.
