data_PCOD9293626
_publ_section_title
;
Structure prediction by ZEFSAII (Michael W. Deem and Ramdas Pophale) SiO2 
 PCOD9293626
Probable space group: C 2/C
;
_chemical_formula_sum "Si O2"
_cell_formula_units_Z 36
_cell_length_a 7.706844
_cell_length_b 18.162689
_cell_length_c 13.226577
_cell_angle_alpha 90.000000
_cell_angle_beta 130.839868
_cell_angle_gamma 90.000000
_cell_volume 1400.671176
_symmetry_space_group_name_H-M "C 2/C"
_symmetry_group_IT_number 15
_symmetry_cell_setting 'monoclinic'
loop_
_space_group_symop_operation_xyz
x,y,z
-x,y,1/2-z
-x,-y,-z
x,-y,1/2+z
1/2+x,1/2+y,z
1/2-x,1/2+y,1/2-z
1/2-x,1/2-y,-z
1/2+x,1/2-y,1/2+z
loop_
_atom_site_type_symbol
_atom_site_label
_atom_site_fract_x
_atom_site_fract_y
_atom_site_fract_z
Si Si1 0.500000 0.424189 0.750000
Si Si2 0.824306 0.371551 0.593323
Si Si3 0.726585 0.162771 0.657584
Si Si4 0.935747 0.489593 0.359356
Si Si5 0.466366 0.301445 0.582957
O O1 0.311239 0.470634 0.737030
O O2 0.400840 0.367537 0.631559
O O3 0.866910 0.342347 0.495428
O O4 0.574550 0.342345 0.527710
O O5 0.000000 0.347023 0.750000
O O6 0.864389 0.460180 0.612297
O O7 0.662706 0.240590 0.683072
O O8 0.000000 0.151867 0.750000
O O9 0.609438 0.096007 0.674664
O O10 0.000000 0.500000 0.500000
O O11 0.250000 0.250000 0.500000
#
# Coordination Sequence:
#
# PCOD9293626 Si02
#       5
#     4   8   8   8   8
#     4  12  24  46  70 102 152 190 240 308 364 444
#     4  11  23  46  76 101 142 201 241 291 379 442
#     4  11  25  46  73 107 148 186 249 313 361 439
#     4  10  22  46  71 100 139 195 241 298 368 439
#     4  12  27  43  70 108 146 195 247 299 365 440
#
# _framework density 25.701965999999999
#
# number of rings (size 3 to 8) (size 9 to 14) (size 15 to 20)
#    0.000    0.889    3.333    4.000    3.111    0.000 
#    2.000   15.556    0.000    0.000    0.000    0.000 
#    0.000    0.000    0.000    0.000    0.000    0.000 
#
# Total GULP energy -100487.469197 kJ/mol
# GULP energy per Si atom -5582.637178 kJ/mol
# Density = 2.564347 g / cm^3
# Si number density = 25.701966 Si / 1000 Ang^3
#
#
#
# Elastic Constant Matrix: (Units=GPa)
#
#
# Indices 1 2 3 4 5 6 
#
# 1 146.3599 55.8985 16.1598 0.0000 6.0679 0.0000
# 2 55.8985 144.8243 -5.9099 0.0000 12.8649 0.0000
# 3 16.1598 -5.9099 81.4130 0.0000 0.0506 0.0000
# 4 0.0000 0.0000 0.0000 32.4629 0.0000 11.8202
# 5 6.0679 12.8649 0.0506 0.0000 33.2110 0.0000
# 6 0.0000 0.0000 0.0000 11.8202 0.0000 51.4993
#
#
#
# Elastic Compliance Matrix: (Units=1/GPa)
#
#
# Indices 1 2 3 4 5 6 
#
# 1 0.008294 -0.003256 -0.001883 0.000000 -0.000251 0.000000
# 2 -0.003256 0.008451 0.001261 0.000000 -0.002681 0.000000
# 3 -0.001883 0.001261 0.012748 0.000000 -0.000164 0.000000
# 4 0.000000 0.000000 0.000000 0.033614 0.000000 -0.007715
# 5 -0.000251 -0.002681 -0.000164 0.000000 0.031195 0.000000
# 6 0.000000 0.000000 0.000000 -0.007715 0.000000 0.021189
#
#
# Mechanical properties :
#
#
# Convention : Reuss Voigt Hill
#
# Bulk Modulus (GPa) = 45.99839 56.09931 51.04885
# Shear Modulus (GPa) = 38.31664 43.86455 41.09060
#
# Velocity S-wave (km/s) = 3.86528 4.13566 4.00275
# Velocity P-wave (km/s) = 6.15274 6.68424 6.42399
#
# Compressibility (1/GPa) = 0.02173989
#
# Stress axis : x y z
#
# Youngs Moduli (GPa) = 120.56559 118.32628 78.44126
#
# Poissons Ratio (x) = 0.38525 0.14767
# Poissons Ratio (y) = 0.39254 -0.09895
# Poissons Ratio (z) = 0.22697 -0.14926
#
# Static dielectric constant tensor:
#      x y z
#    x 2.092390 0.000000 -0.046240 
#    y 0.000000 1.810030 0.000000 
#    z -0.046240 0.000000 2.188630 
# 
# From -- ./inp_files/134669.got.cif
#   From: 2010.05.17/outbox.cif.g08.bks.cpg/sg15_68_cif.got.tgz:134669.got - 2010.06.03 18:47:42.
