data_PCOD9293424
_publ_section_title
;
Structure prediction by ZEFSAII (Michael W. Deem and Ramdas Pophale) SiO2 
 PCOD9293424
Probable space group: C 2/C
;
_chemical_formula_sum "Si O2"
_cell_formula_units_Z 48
_cell_length_a 28.111240
_cell_length_b 5.242983
_cell_length_c 13.234535
_cell_angle_alpha 90.000000
_cell_angle_beta 106.233917
_cell_angle_gamma 90.000000
_cell_volume 1872.821729
_symmetry_space_group_name_H-M "C 2/C"
_symmetry_group_IT_number 15
_symmetry_cell_setting 'monoclinic'
loop_
_space_group_symop_operation_xyz
x,y,z
-x,y,1/2-z
-x,-y,-z
x,-y,1/2+z
1/2+x,1/2+y,z
1/2-x,1/2+y,1/2-z
1/2-x,1/2-y,-z
1/2+x,1/2-y,1/2+z
loop_
_atom_site_type_symbol
_atom_site_label
_atom_site_fract_x
_atom_site_fract_y
_atom_site_fract_z
Si Si1 0.298769 0.717277 0.274758
Si Si2 0.116021 0.932593 0.080489
Si Si3 0.623690 0.100849 0.257383
Si Si4 0.217812 0.846397 0.387686
Si Si5 0.939551 0.684410 0.624386
Si Si6 0.530944 0.673766 0.939372
O O1 0.328815 0.505763 0.356985
O O2 0.338549 0.942850 0.290442
O O3 0.249367 0.761686 0.307782
O O4 0.288932 0.640050 0.151590
O O5 0.096126 0.805348 0.171447
O O6 0.084298 0.175617 0.027639
O O7 0.104516 0.739696 0.982887
O O8 0.585520 0.923139 0.291317
O O9 0.661919 0.239867 0.356708
O O10 0.250000 0.750000 0.500000
O O11 0.975960 0.462851 0.601694
O O12 0.962223 0.966762 0.645962
O O13 0.500000 0.500000 0.000000
#
# Coordination Sequence:
#
# PCOD9293424 Si02
#       6
#     8   8   8   8   8   8
#     4  11  23  44  59  99 135 180 233 288 333 405
#     4   9  24  38  72  89 139 170 222 276 345 395
#     4  11  24  42  62  95 135 174 232 273 340 401
#     4  11  26  37  64  90 135 181 233 282 337 392
#     4  10  24  41  72  97 130 178 218 272 340 406
#     4  10  22  45  73  99 133 170 221 276 342 410
#
# _framework density 25.629774999999999
#
# number of rings (size 3 to 8) (size 9 to 14) (size 15 to 20)
#    1.000    0.667    1.667    1.500   11.667    0.667 
#    0.000    0.833    0.000    0.000    0.000    0.000 
#    0.000    0.000    0.000    0.000    0.000    0.000 
#
# Total GULP energy -133846.524620 kJ/mol
# GULP energy per Si atom -5576.938526 kJ/mol
# Density = 2.557144 g / cm^3
# Si number density = 25.629775 Si / 1000 Ang^3
#
#
#
# Elastic Constant Matrix: (Units=GPa)
#
#
# Indices 1 2 3 4 5 6 
#
# 1 49.4101 -6.5452 18.1826 0.0000 -0.4980 0.0000
# 2 -6.5452 84.3794 1.6450 0.0000 8.9610 0.0000
# 3 18.1826 1.6450 77.3536 0.0000 28.3983 0.0000
# 4 0.0000 0.0000 0.0000 27.0787 0.0000 -5.6578
# 5 -0.4980 8.9610 28.3983 0.0000 42.7532 0.0000
# 6 0.0000 0.0000 0.0000 -5.6578 0.0000 23.8639
#
#
#
# Elastic Compliance Matrix: (Units=1/GPa)
#
#
# Indices 1 2 3 4 5 6 
#
# 1 0.023132 0.001429 -0.007216 0.000000 0.004763 0.000000
# 2 0.001429 0.012256 0.000450 0.000000 -0.002851 0.000000
# 3 -0.007216 0.000450 0.019414 0.000000 -0.013074 0.000000
# 4 0.000000 0.000000 0.000000 0.038854 0.000000 0.009212
# 5 0.004763 -0.002851 -0.013074 0.000000 0.032727 0.000000
# 6 0.000000 0.000000 0.000000 0.009212 0.000000 0.044088
#
#
# Mechanical properties :
#
#
# Convention : Reuss Voigt Hill
#
# Bulk Modulus (GPa) = 22.66150 26.41200 24.53675
# Shear Modulus (GPa) = 25.52908 31.92987 28.72948
#
# Velocity S-wave (km/s) = 3.15948 3.53343 3.35168
# Velocity P-wave (km/s) = 4.70859 5.19369 4.95708
#
# Compressibility (1/GPa) = 0.04412770
#
# Stress axis : x y z
#
# Youngs Moduli (GPa) = 43.23075 81.59193 51.50895
#
# Poissons Ratio (x) = -0.11660 0.37171
# Poissons Ratio (y) = -0.06178 -0.02319
# Poissons Ratio (z) = 0.31197 -0.03673
#
# Static dielectric constant tensor:
#      x y z
#    x 2.041940 0.000000 -0.011130 
#    y 0.000000 2.189080 0.000000 
#    z -0.011130 0.000000 2.070180 
# 
# From -- ./inp_files/175697.got.cif
#   From: 2010.05.17/outbox.cif.g08.bks.cpg/sg15_88_cif.got.tgz:175697.got - 2010.06.03 18:47:42.
