data_PCOD9293217
_publ_section_title
;
Structure prediction by ZEFSAII (Michael W. Deem and Ramdas Pophale) SiO2 
 PCOD9293217
Probable space group: C 2/C
;
_chemical_formula_sum "Si O2"
_cell_formula_units_Z 56
_cell_length_a 25.584457
_cell_length_b 9.219276
_cell_length_c 18.274883
_cell_angle_alpha 90.000000
_cell_angle_beta 34.059383
_cell_angle_gamma 90.000000
_cell_volume 2414.103332
_symmetry_space_group_name_H-M "C 2/C"
_symmetry_group_IT_number 15
_symmetry_cell_setting 'monoclinic'
loop_
_space_group_symop_operation_xyz
x,y,z
-x,y,1/2-z
-x,-y,-z
x,-y,1/2+z
1/2+x,1/2+y,z
1/2-x,1/2+y,1/2-z
1/2-x,1/2-y,-z
1/2+x,1/2-y,1/2+z
loop_
_atom_site_type_symbol
_atom_site_label
_atom_site_fract_x
_atom_site_fract_y
_atom_site_fract_z
Si Si1 0.505108 0.108080 0.138580
Si Si2 0.864332 0.120010 0.410277
Si Si3 0.500000 0.858260 0.250000
Si Si4 0.868614 0.222703 0.572878
Si Si5 0.066285 0.709664 0.915810
Si Si6 0.217522 0.931800 0.795506
Si Si7 0.187410 0.493837 0.170109
Si Si8 0.500000 0.364106 0.250000
O O1 0.529656 0.256486 0.150835
O O2 0.538650 0.967492 0.143974
O O3 0.392358 0.093906 0.271042
O O4 0.539387 0.111506 0.016439
O O5 0.880060 0.159403 0.478041
O O6 0.755171 0.085608 0.534110
O O7 0.919818 0.254057 0.310539
O O8 0.917225 0.974042 0.326077
O O9 0.804230 0.365090 0.650628
O O10 0.969284 0.243278 0.491792
O O11 0.808220 0.100074 0.685622
O O12 0.126759 0.842023 0.877349
O O13 0.131190 0.622157 0.784577
O O14 0.248928 0.920816 0.844402
#
# Coordination Sequence:
#
# PCOD9293217 Si02
#       8
#     8   8   4   8   8   8   8   4
#     4  11  23  40  66  95 128 172 221 260 325 389
#     4  10  22  45  64  90 133 168 221 267 319 388
#     4  10  24  40  66  90 122 184 220 262 314 384
#     4  11  23  40  68  98 133 167 211 275 336 383
#     4  12  23  40  69 103 136 165 210 276 344 383
#     4  11  22  40  61 103 131 167 206 262 342 388
#     4  11  23  38  68  96 132 163 214 282 330 382
#     4  10  24  46  64  86 130 186 216 266 308 390
#
# _framework density 23.197018
#
# number of rings (size 3 to 8) (size 9 to 14) (size 15 to 20)
#    0.000    1.143    4.286    3.429    2.000    1.143 
#    0.000    0.000    3.143    0.000    0.000    0.000 
#    0.000    0.000    0.000    0.000    0.000    0.000 
#
# Total GULP energy -156609.558799 kJ/mol
# GULP energy per Si atom -5593.198529 kJ/mol
# Density = 2.314422 g / cm^3
# Si number density = 23.197018 Si / 1000 Ang^3
#
#
#
# Elastic Constant Matrix: (Units=GPa)
#
#
# Indices 1 2 3 4 5 6 
#
# 1 53.9182 17.5704 3.2560 0.0009 -20.2421 -0.0007
# 2 17.5704 121.2844 38.7458 -0.0016 -5.3077 0.0008
# 3 3.2560 38.7458 108.5127 -0.0001 -18.1736 -0.0003
# 4 0.0009 -0.0016 -0.0001 33.1660 0.0000 -16.2722
# 5 -20.2421 -5.3077 -18.1736 0.0000 45.9602 0.0000
# 6 -0.0007 0.0008 -0.0003 -16.2722 0.0000 17.0415
#
#
#
# Elastic Compliance Matrix: (Units=1/GPa)
#
#
# Indices 1 2 3 4 5 6 
#
# 1 0.023750 -0.003748 0.002468 0.000000 0.011003 0.000001
# 2 -0.003748 0.009901 -0.003756 0.000000 -0.001993 0.000000
# 3 0.002468 -0.003756 0.011343 0.000000 0.005139 0.000000
# 4 0.000000 0.000000 0.000000 0.056726 0.000000 0.054166
# 5 0.011003 -0.001993 0.005139 0.000000 0.028406 0.000000
# 6 0.000001 0.000000 0.000000 0.054166 0.000000 0.110400
#
#
# Mechanical properties :
#
#
# Convention : Reuss Voigt Hill
#
# Bulk Modulus (GPa) = 28.63501 44.76217 36.69859
# Shear Modulus (GPa) = 19.06659 34.17643 26.62151
#
# Velocity S-wave (km/s) = 2.87006 3.84254 3.39134
# Velocity P-wave (km/s) = 4.83260 6.24702 5.58477
#
# Compressibility (1/GPa) = 0.03492229
#
# Stress axis : x y z
#
# Youngs Moduli (GPa) = 42.10596 101.00142 88.15725
#
# Poissons Ratio (x) = 0.37851 -0.21760
# Poissons Ratio (y) = 0.15780 0.33116
# Poissons Ratio (z) = -0.10393 0.37941
#
# Static dielectric constant tensor:
#      x y z
#    x 1.875570 0.000000 -0.001230 
#    y 0.000000 1.895540 0.000000 
#    z -0.001230 0.000000 1.902400 
# 
# From -- ./inp_files/258992.got.cif
#   From: 2010.05.17/outbox.cif.g08.bks.cpg/sg15_130_cif.got.tgz:258992.got - 2010.06.03 18:47:42.
