data_PCOD9293676
_publ_section_title
;
Structure prediction by ZEFSAII (Michael W. Deem and Ramdas Pophale) SiO2 
 PCOD9293676
Probable space group: C 2/C
;
_chemical_formula_sum "Si O2"
_cell_formula_units_Z 32
_cell_length_a 20.273696
_cell_length_b 8.860932
_cell_length_c 10.811286
_cell_angle_alpha 90.000000
_cell_angle_beta 43.600966
_cell_angle_gamma 90.000000
_cell_volume 1339.389653
_symmetry_space_group_name_H-M "C 2/C"
_symmetry_group_IT_number 15
_symmetry_cell_setting 'monoclinic'
loop_
_space_group_symop_operation_xyz
x,y,z
-x,y,1/2-z
-x,-y,-z
x,-y,1/2+z
1/2+x,1/2+y,z
1/2-x,1/2+y,1/2-z
1/2-x,1/2-y,-z
1/2+x,1/2-y,1/2+z
loop_
_atom_site_type_symbol
_atom_site_label
_atom_site_fract_x
_atom_site_fract_y
_atom_site_fract_z
Si Si1 0.854554 0.401444 0.661177
Si Si2 0.444167 0.875310 0.216033
Si Si3 0.287396 0.580299 0.786083
Si Si4 0.607626 0.454526 0.617682
O O1 0.867363 0.527839 0.748157
O O2 0.810435 0.489672 0.603952
O O3 0.786568 0.261584 0.784871
O O4 0.963515 0.340092 0.496943
O O5 0.500000 0.960410 0.250000
O O6 0.402050 0.721281 0.327599
O O7 0.338215 0.531910 0.842783
O O8 0.344698 0.538761 0.581771
O O9 0.500000 0.514682 0.750000
#
# Coordination Sequence:
#
# PCOD9293676 Si02
#       4
#     8   8   8   8
#     4  11  25  42  69 104 137 179 232 285 345 405
#     4  10  22  46  72  93 139 189 226 278 349 414
#     4  12  26  45  72 105 140 181 234 289 341 413
#     4  11  24  47  74  99 139 185 232 282 349 408
#
# _framework density 23.891477999999999
#
# number of rings (size 3 to 8) (size 9 to 14) (size 15 to 20)
#    0.000    1.000    5.000    2.250    3.500    4.000 
#    4.500    0.000    0.000    0.000    0.000    0.000 
#    0.000    0.000    0.000    0.000    0.000    0.000 
#
# Total GULP energy -89469.555467 kJ/mol
# GULP energy per Si atom -5591.847217 kJ/mol
# Density = 2.383710 g / cm^3
# Si number density = 23.891478 Si / 1000 Ang^3
#
#
#
# Elastic Constant Matrix: (Units=GPa)
#
#
# Indices 1 2 3 4 5 6 
#
# 1 190.0404 59.1146 19.7038 0.0000 14.3113 0.0000
# 2 59.1146 96.1454 9.7015 0.0000 -9.1785 0.0000
# 3 19.7038 9.7015 119.6704 0.0000 2.2155 0.0000
# 4 0.0000 0.0000 0.0000 21.3760 0.0000 5.9144
# 5 14.3113 -9.1785 2.2155 0.0000 39.8598 0.0000
# 6 0.0000 0.0000 0.0000 5.9144 0.0000 54.0682
#
#
#
# Elastic Compliance Matrix: (Units=1/GPa)
#
#
# Indices 1 2 3 4 5 6 
#
# 1 0.007031 -0.004588 -0.000720 0.000000 -0.003541 0.000000
# 2 -0.004588 0.013728 -0.000447 0.000000 0.004833 0.000000
# 3 -0.000720 -0.000447 0.008517 0.000000 -0.000318 0.000000
# 4 0.000000 0.000000 0.000000 0.048241 0.000000 -0.005277
# 5 -0.003541 0.004833 -0.000318 0.000000 0.027490 0.000000
# 6 0.000000 0.000000 0.000000 -0.005277 0.000000 0.019072
#
#
# Mechanical properties :
#
#
# Convention : Reuss Voigt Hill
#
# Bulk Modulus (GPa) = 56.28849 64.76621 60.52735
# Shear Modulus (GPa) = 35.33279 44.21656 39.77467
#
# Velocity S-wave (km/s) = 3.84980 4.30667 4.08463
# Velocity P-wave (km/s) = 6.58578 7.20397 6.90180
#
# Compressibility (1/GPa) = 0.01776562
#
# Stress axis : x y z
#
# Youngs Moduli (GPa) = 142.23729 72.84192 117.41272
#
# Poissons Ratio (x) = 0.33420 0.08455
# Poissons Ratio (y) = 0.65259 0.05248
# Poissons Ratio (z) = 0.10242 0.03256
#
# Static dielectric constant tensor:
#      x y z
#    x 1.865180 0.000000 -0.012100 
#    y 0.000000 1.886650 0.000000 
#    z -0.012100 0.000000 2.087680 
# 
# From -- ./inp_files/102565.got.cif
#   From: 2010.05.17/outbox.cif.g08.bks.cpg/sg15_52_cif.got.tgz:102565.got - 2010.06.03 18:47:42.
