data_PCOD9293951
_publ_section_title
;
Structure prediction by ZEFSAII (Michael W. Deem and Ramdas Pophale) SiO2 
 PCOD9293951
Probable space group: C 2/C
;
_chemical_formula_sum "Si O2"
_cell_formula_units_Z 64
_cell_length_a 13.079555
_cell_length_b 26.308302
_cell_length_c 11.068259
_cell_angle_alpha 90.000000
_cell_angle_beta 71.778600
_cell_angle_gamma 90.000000
_cell_volume 3617.616813
_symmetry_space_group_name_H-M "C 2/C"
_symmetry_group_IT_number 15
_symmetry_cell_setting 'monoclinic'
loop_
_space_group_symop_operation_xyz
x,y,z
-x,y,1/2-z
-x,-y,-z
x,-y,1/2+z
1/2+x,1/2+y,z
1/2-x,1/2+y,1/2-z
1/2-x,1/2-y,-z
1/2+x,1/2-y,1/2+z
loop_
_atom_site_type_symbol
_atom_site_label
_atom_site_fract_x
_atom_site_fract_y
_atom_site_fract_z
Si Si1 0.354147 0.784393 0.977277
Si Si2 0.808160 0.348198 0.629183
Si Si3 0.069223 0.505872 0.099386
Si Si4 0.375406 0.889452 0.836738
Si Si5 0.080647 0.757634 0.367367
Si Si6 0.288297 0.190971 0.758361
Si Si7 0.114668 0.604022 0.638891
Si Si8 0.609739 0.717084 0.135233
O O1 0.362737 0.796809 0.116205
O O2 0.250000 0.750000 0.000000
O O3 0.343236 0.839154 0.920152
O O4 0.456293 0.753778 0.888186
O O5 0.809150 0.389297 0.735994
O O6 0.863578 0.297553 0.661173
O O7 0.879764 0.367138 0.491082
O O8 0.691371 0.329487 0.629069
O O9 0.130961 0.559572 0.081020
O O10 0.136525 0.454455 0.096286
O O11 0.000000 0.508412 0.250000
O O12 0.000000 0.500000 0.000000
O O13 0.500000 0.883556 0.750000
O O14 0.164369 0.796226 0.274256
O O15 0.084079 0.776270 0.504917
O O16 0.305301 0.134863 0.803707
O O17 0.328674 0.231708 0.843510
O O18 0.000000 0.606737 0.750000
O O19 0.500000 0.711559 0.250000
#
# Coordination Sequence:
#
# PCOD9293951 Si02
#       8
#     8   8   8   8   8   8   8   8
#     4  12  25  36  55  81 114 158 193 223 289 353
#     4  11  20  36  55  81 109 152 182 231 288 335
#     4  10  23  37  56  83 114 156 195 236 294 347
#     4  11  23  38  55  77 117 156 187 230 285 344
#     4  11  20  35  53  79 115 143 189 231 283 342
#     4  11  21  33  54  81 109 150 183 233 286 332
#     4  11  20  32  56  82 113 142 187 231 286 339
#     4  11  19  32  53  81 111 143 190 233 281 336
#
# _framework density 17.691203999999999
#
# number of rings (size 3 to 8) (size 9 to 14) (size 15 to 20)
#    0.000    1.000    5.000    4.875    3.500    0.000 
#    0.000    0.000    0.000    0.000    0.000    3.500 
#    0.000    0.000    0.000    0.000    0.000    0.000 
#
# Total GULP energy -178508.971649 kJ/mol
# GULP energy per Si atom -5578.405364 kJ/mol
# Density = 1.765094 g / cm^3
# Si number density = 17.691204 Si / 1000 Ang^3
#
#
#
# Elastic Constant Matrix: (Units=GPa)
#
#
# Indices 1 2 3 4 5 6 
#
# 1 76.5094 50.2209 19.7369 0.0000 -6.9037 0.0000
# 2 50.2209 131.0765 30.3590 0.0000 3.0936 0.0000
# 3 19.7369 30.3590 77.5109 0.0000 4.5755 0.0000
# 4 0.0000 0.0000 0.0000 23.6479 0.0000 2.9207
# 5 -6.9037 3.0936 4.5755 0.0000 31.4632 0.0000
# 6 0.0000 0.0000 0.0000 2.9207 0.0000 23.1129
#
#
#
# Elastic Compliance Matrix: (Units=1/GPa)
#
#
# Indices 1 2 3 4 5 6 
#
# 1 0.018518 -0.006657 -0.002407 0.000000 0.005068 0.000000
# 2 -0.006657 0.010787 -0.002402 0.000000 -0.002172 0.000000
# 3 -0.002407 -0.002402 0.014598 0.000000 -0.002415 0.000000
# 4 0.000000 0.000000 0.000000 0.042957 0.000000 -0.005428
# 5 0.005068 -0.002172 -0.002415 0.000000 0.033460 0.000000
# 6 0.000000 0.000000 0.000000 -0.005428 0.000000 0.043952
#
#
# Mechanical properties :
#
#
# Convention : Reuss Voigt Hill
#
# Bulk Modulus (GPa) = 47.68461 53.97004 50.82732
# Shear Modulus (GPa) = 25.74729 27.96346 26.85538
#
# Velocity S-wave (km/s) = 3.81907 3.98004 3.90039
# Velocity P-wave (km/s) = 6.81612 7.18985 7.00548
#
# Compressibility (1/GPa) = 0.02097113
#
# Stress axis : x y z
#
# Youngs Moduli (GPa) = 54.00033 92.70115 68.50446
#
# Poissons Ratio (x) = 0.61714 0.16490
# Poissons Ratio (y) = 0.35950 0.16453
# Poissons Ratio (z) = 0.12998 0.22264
#
# Static dielectric constant tensor:
#      x y z
#    x 1.641650 0.000000 0.035490 
#    y 0.000000 1.627230 0.000000 
#    z 0.035490 0.000000 1.682820 
# 
# From -- ./inp_files/91254.got.cif
#   From: 2010.05.17/outbox.cif.g08.bks.cpg/sg15_46_cif.got.tgz:91254.got - 2010.06.03 18:47:42.
