data_PCOD9293041
_publ_section_title
;
Structure prediction by ZEFSAII (Michael W. Deem and Ramdas Pophale) SiO2 
 PCOD9293041
Probable space group: C 2/C
;
_chemical_formula_sum "Si O2"
_cell_formula_units_Z 36
_cell_length_a 10.705132
_cell_length_b 16.945951
_cell_length_c 9.759150
_cell_angle_alpha 90.000000
_cell_angle_beta 57.040794
_cell_angle_gamma 90.000000
_cell_volume 1485.463611
_symmetry_space_group_name_H-M "C 2/C"
_symmetry_group_IT_number 15
_symmetry_cell_setting 'monoclinic'
loop_
_space_group_symop_operation_xyz
x,y,z
-x,y,1/2-z
-x,-y,-z
x,-y,1/2+z
1/2+x,1/2+y,z
1/2-x,1/2+y,1/2-z
1/2-x,1/2-y,-z
1/2+x,1/2-y,1/2+z
loop_
_atom_site_type_symbol
_atom_site_label
_atom_site_fract_x
_atom_site_fract_y
_atom_site_fract_z
Si Si1 0.656865 0.408741 0.737812
Si Si2 0.494413 0.335350 0.419851
Si Si3 0.460026 0.844002 0.521855
Si Si4 0.500000 0.959673 0.750000
Si Si5 0.720958 0.067529 0.717687
O O1 0.500000 0.406315 0.750000
O O2 0.785319 0.354589 0.592289
O O3 0.713812 0.498989 0.720323
O O4 0.632537 0.375025 0.908743
O O5 0.500000 0.344751 0.250000
O O6 0.500840 0.243311 0.452386
O O7 0.640816 0.377573 0.389186
O O8 0.478135 0.905059 0.634872
O O9 0.586722 0.876223 0.345925
O O10 0.643553 0.014849 0.648022
#
# Coordination Sequence:
#
# PCOD9293041 Si02
#       5
#     8   8   8   4   8
#     4  11  26  47  73 108 152 195 248 306 366 439
#     4  12  27  46  75 114 152 190 246 311 373 433
#     4  11  25  47  75 102 150 201 246 299 370 450
#     4  10  22  44  72 100 142 194 248 286 360 440
#     4  11  26  44  76 105 145 201 246 306 362 449
#
# _framework density 24.234857000000002
#
# number of rings (size 3 to 8) (size 9 to 14) (size 15 to 20)
#    0.000    0.889    1.111    5.333   12.444    2.667 
#    4.000    0.000    0.000    0.000    0.000    0.000 
#    0.000    0.000    0.000    0.000    0.000    0.000 
#
# Total GULP energy -100594.436139 kJ/mol
# GULP energy per Si atom -5588.579786 kJ/mol
# Density = 2.417970 g / cm^3
# Si number density = 24.234857 Si / 1000 Ang^3
#
#
#
# Elastic Constant Matrix: (Units=GPa)
#
#
# Indices 1 2 3 4 5 6 
#
# 1 105.3157 40.8157 22.7135 0.0000 -12.0599 0.0000
# 2 40.8157 145.0519 60.5143 0.0000 -4.6471 0.0000
# 3 22.7135 60.5143 123.8287 0.0000 -18.0019 0.0000
# 4 0.0000 0.0000 0.0000 44.7562 0.0000 -1.5029
# 5 -12.0599 -4.6471 -18.0019 0.0000 43.7423 0.0000
# 6 0.0000 0.0000 0.0000 -1.5029 0.0000 25.4367
#
#
#
# Elastic Compliance Matrix: (Units=1/GPa)
#
#
# Indices 1 2 3 4 5 6 
#
# 1 0.010971 -0.002918 -0.000204 0.000000 0.002631 0.000000
# 2 -0.002918 0.009467 -0.004321 0.000000 -0.001577 0.000000
# 3 -0.000204 -0.004321 0.010795 0.000000 0.003928 0.000000
# 4 0.000000 0.000000 0.000000 0.022388 0.000000 0.001323
# 5 0.002631 -0.001577 0.003928 0.000000 0.025035 0.000000
# 6 0.000000 0.000000 0.000000 0.001323 0.000000 0.039391
#
#
# Mechanical properties :
#
#
# Convention : Reuss Voigt Hill
#
# Bulk Modulus (GPa) = 61.16518 69.14259 65.15388
# Shear Modulus (GPa) = 36.13163 39.46389 37.79776
#
# Velocity S-wave (km/s) = 3.86540 4.03971 3.95352
# Velocity P-wave (km/s) = 6.72421 7.09586 6.91253
#
# Compressibility (1/GPa) = 0.01634917
#
# Stress axis : x y z
#
# Youngs Moduli (GPa) = 91.14656 105.62921 92.63119
#
# Poissons Ratio (x) = 0.30820 0.01890
# Poissons Ratio (y) = 0.26594 0.40022
# Poissons Ratio (z) = 0.01860 0.45637
#
# Static dielectric constant tensor:
#      x y z
#    x 1.971010 0.000000 0.012330 
#    y 0.000000 1.852110 0.000000 
#    z 0.012330 0.000000 2.002790 
# 
# From -- ./inp_files/85353.got.cif
#   From: 2010.05.17/outbox.cif.g08.bks.cpg/sg15_43_cif.got.tgz:85353.got - 2010.06.03 18:47:42.
