data_PCOD9293766
_publ_section_title
;
Structure prediction by ZEFSAII (Michael W. Deem and Ramdas Pophale) SiO2 
 PCOD9293766
Probable space group: C 2/C
;
_chemical_formula_sum "Si O2"
_cell_formula_units_Z 60
_cell_length_a 24.008578
_cell_length_b 12.057568
_cell_length_c 8.483192
_cell_angle_alpha 90.000000
_cell_angle_beta 95.424252
_cell_angle_gamma 90.000000
_cell_volume 2444.760581
_symmetry_space_group_name_H-M "C 2/C"
_symmetry_group_IT_number 15
_symmetry_cell_setting 'monoclinic'
loop_
_space_group_symop_operation_xyz
x,y,z
-x,y,1/2-z
-x,-y,-z
x,-y,1/2+z
1/2+x,1/2+y,z
1/2-x,1/2+y,1/2-z
1/2-x,1/2-y,-z
1/2+x,1/2-y,1/2+z
loop_
_atom_site_type_symbol
_atom_site_label
_atom_site_fract_x
_atom_site_fract_y
_atom_site_fract_z
Si Si1 0.321762 0.237262 0.141960
Si Si2 0.061531 0.953664 0.479298
Si Si3 0.774319 0.065993 0.436463
Si Si4 0.563840 0.043439 0.792613
Si Si5 0.109579 0.247576 0.161146
Si Si6 0.000000 0.202021 0.750000
Si Si7 0.090606 0.660904 0.122718
Si Si8 0.834431 0.099104 0.122520
O O1 0.279976 0.132558 0.136110
O O2 0.358424 0.240242 0.310915
O O3 0.292207 0.355045 0.090911
O O4 0.356445 0.227960 0.988079
O O5 0.076352 0.866614 0.621152
O O6 0.049231 0.874119 0.328672
O O7 0.111834 0.035507 0.441893
O O8 0.000000 0.000000 0.500000
O O9 0.815369 0.068089 0.296526
O O10 0.781428 0.941593 0.505037
O O11 0.500000 0.010009 0.750000
O O12 0.571844 0.147003 0.679116
O O13 0.597286 0.934179 0.757259
O O14 0.583478 0.090652 0.963872
O O15 0.145951 0.223681 0.329049
O O16 0.968121 0.274772 0.870546
#
# Coordination Sequence:
#
# PCOD9293766 Si02
#       8
#     8   8   8   8   8   4   8   8
#     4  10  22  47  70 101 134 192 235 303 361 412
#     4  12  25  41  67 108 151 192 234 288 361 440
#     4  10  23  43  74  97 144 180 242 302 361 422
#     4  12  27  43  68 101 143 188 234 290 360 429
#     4  11  24  44  68 103 148 184 237 296 357 439
#     4  12  24  40  66 102 140 198 228 286 356 426
#     4  12  25  44  72  98 141 186 243 297 355 437
#     4  11  22  43  66 105 137 192 231 294 360 429
#
# _framework density 24.542280000000002
#
# number of rings (size 3 to 8) (size 9 to 14) (size 15 to 20)
#    0.000    0.800    4.667    2.800    3.733    3.200 
#    0.000    0.000    0.000    5.600    0.000    0.000 
#    0.000    0.000    0.000    0.000    0.000    0.000 
#
# Total GULP energy -167303.299414 kJ/mol
# GULP energy per Si atom -5576.776647 kJ/mol
# Density = 2.448642 g / cm^3
# Si number density = 24.542280 Si / 1000 Ang^3
#
#
#
# Elastic Constant Matrix: (Units=GPa)
#
#
# Indices 1 2 3 4 5 6 
#
# 1 85.6054 22.7150 13.5929 0.0000 6.2633 0.0000
# 2 22.7150 61.7561 2.3295 0.0000 -8.4201 0.0000
# 3 13.5929 2.3295 57.8218 0.0000 6.9267 0.0000
# 4 0.0000 0.0000 0.0000 32.3055 0.0000 -3.6726
# 5 6.2633 -8.4201 6.9267 0.0000 28.1703 0.0000
# 6 0.0000 0.0000 0.0000 -3.6726 0.0000 26.3054
#
#
#
# Elastic Compliance Matrix: (Units=1/GPa)
#
#
# Indices 1 2 3 4 5 6 
#
# 1 0.013863 -0.005565 -0.002541 0.000000 -0.004121 0.000000
# 2 -0.005565 0.019214 -0.000311 0.000000 0.007057 0.000000
# 3 -0.002541 -0.000311 0.018390 0.000000 -0.004050 0.000000
# 4 0.000000 0.000000 0.000000 0.031454 0.000000 0.004391
# 5 -0.004121 0.007057 -0.004050 0.000000 0.039520 0.000000
# 6 0.000000 0.000000 0.000000 0.004391 0.000000 0.038628
#
#
# Mechanical properties :
#
#
# Convention : Reuss Voigt Hill
#
# Bulk Modulus (GPa) = 28.87548 31.38424 30.12986
# Shear Modulus (GPa) = 26.39268 28.45930 27.42599
#
# Velocity S-wave (km/s) = 3.28288 3.40899 3.34653
# Velocity P-wave (km/s) = 5.11477 5.32076 5.21878
#
# Compressibility (1/GPa) = 0.03463146
#
# Stress axis : x y z
#
# Youngs Moduli (GPa) = 72.13349 52.04655 54.37871
#
# Poissons Ratio (x) = 0.28965 0.13818
# Poissons Ratio (y) = 0.40143 0.01692
# Poissons Ratio (z) = 0.18330 0.01620
#
# Static dielectric constant tensor:
#      x y z
#    x 2.052250 0.000000 0.039150 
#    y 0.000000 1.975940 0.000000 
#    z 0.039150 0.000000 2.049240 
# 
# From -- ./inp_files/65510.got.cif
#   From: 2010.05.17/outbox.cif.g08.bks.cpg/sg15_33_cif.got.tgz:65510.got - 2010.06.03 18:47:42.
