data_PCOD9293320
_publ_section_title
;
Structure prediction by ZEFSAII (Michael W. Deem and Ramdas Pophale) SiO2 
 PCOD9293320
Probable space group: C 2/C
;
_chemical_formula_sum "Si O2"
_cell_formula_units_Z 40
_cell_length_a 28.202957
_cell_length_b 5.560815
_cell_length_c 9.994493
_cell_angle_alpha 90.000000
_cell_angle_beta 73.673041
_cell_angle_gamma 90.000000
_cell_volume 1504.240209
_symmetry_space_group_name_H-M "C 2/C"
_symmetry_group_IT_number 15
_symmetry_cell_setting 'monoclinic'
loop_
_space_group_symop_operation_xyz
x,y,z
-x,y,1/2-z
-x,-y,-z
x,-y,1/2+z
1/2+x,1/2+y,z
1/2-x,1/2+y,1/2-z
1/2-x,1/2-y,-z
1/2+x,1/2-y,1/2+z
loop_
_atom_site_type_symbol
_atom_site_label
_atom_site_fract_x
_atom_site_fract_y
_atom_site_fract_z
Si Si1 0.434312 0.041287 0.939233
Si Si2 0.307831 0.295669 0.161489
Si Si3 0.533292 0.321993 0.888527
Si Si4 0.099630 0.774915 0.270989
Si Si5 0.713496 0.209602 0.906300
O O1 0.491277 0.127267 0.882330
O O2 0.415023 0.950006 0.811222
O O3 0.410215 0.229120 0.061901
O O4 0.431492 0.805577 0.033996
O O5 0.341593 0.296303 0.268049
O O6 0.318387 0.549398 0.082757
O O7 0.249753 0.302146 0.247150
O O8 0.313687 0.047695 0.074076
O O9 0.565716 0.491286 0.763920
O O10 0.500000 0.500000 0.000000
O O11 0.750000 0.250000 0.000000
#
# Coordination Sequence:
#
# PCOD9293320 Si02
#       5
#     8   8   8   8   8
#     4  10  24  44  67  98 141 185 240 308 361 432
#     4  10  24  41  68 107 137 184 239 291 366 432
#     4   9  22  43  65  94 134 187 240 294 367 422
#     4  11  25  42  70 106 139 190 247 304 364 442
#     4  10  22  45  69  99 143 186 228 296 365 435
#
# _framework density 26.5915
#
# number of rings (size 3 to 8) (size 9 to 14) (size 15 to 20)
#    0.000    2.000    0.000    0.600    5.600   12.000 
#    0.000    0.000    0.000    0.000    0.000    0.000 
#    0.000    0.000    0.000    0.000    0.000    0.000 
#
# Total GULP energy -111627.963805 kJ/mol
# GULP energy per Si atom -5581.398190 kJ/mol
# Density = 2.653098 g / cm^3
# Si number density = 26.591500 Si / 1000 Ang^3
#
#
#
# Elastic Constant Matrix: (Units=GPa)
#
#
# Indices 1 2 3 4 5 6 
#
# 1 114.2871 46.0752 22.5862 0.0000 19.4922 0.0000
# 2 46.0752 175.4600 26.4528 0.0000 13.8020 0.0000
# 3 22.5862 26.4528 110.2544 0.0000 12.7913 0.0000
# 4 0.0000 0.0000 0.0000 23.7947 0.0000 11.6830
# 5 19.4922 13.8020 12.7913 0.0000 39.6489 0.0000
# 6 0.0000 0.0000 0.0000 11.6830 0.0000 45.7500
#
#
#
# Elastic Compliance Matrix: (Units=1/GPa)
#
#
# Indices 1 2 3 4 5 6 
#
# 1 0.010589 -0.002289 -0.001152 0.000000 -0.004037 0.000000
# 2 -0.002289 0.006516 -0.000999 0.000000 -0.000820 0.000000
# 3 -0.001152 -0.000999 0.009807 0.000000 -0.002250 0.000000
# 4 0.000000 0.000000 0.000000 0.048051 0.000000 -0.012271
# 5 -0.004037 -0.000820 -0.002250 0.000000 0.028218 0.000000
# 6 0.000000 0.000000 0.000000 -0.012271 0.000000 0.024991
#
#
# Mechanical properties :
#
#
# Convention : Reuss Voigt Hill
#
# Bulk Modulus (GPa) = 55.45978 65.58112 60.52045
# Shear Modulus (GPa) = 34.94993 42.16452 38.55722
#
# Velocity S-wave (km/s) = 3.62930 3.98633 3.81200
# Velocity P-wave (km/s) = 6.20193 6.77523 6.49491
#
# Compressibility (1/GPa) = 0.01803109
#
# Stress axis : x y z
#
# Youngs Moduli (GPa) = 94.43709 153.47641 101.97264
#
# Poissons Ratio (x) = 0.35138 0.11742
# Poissons Ratio (y) = 0.21621 0.10188
# Poissons Ratio (z) = 0.10875 0.15334
#
# Static dielectric constant tensor:
#      x y z
#    x 2.130760 0.000000 -0.280190 
#    y 0.000000 2.370240 0.000000 
#    z -0.280190 0.000000 1.236740 
# 
# From -- ./inp_files/120813.got.cif
#   From: 2010.05.17/outbox.cif.g08.bks.cpg/sg15_61_cif.got.tgz:120813.got - 2010.06.03 18:47:42.
