data_PCOD9293446
_publ_section_title
;
Structure prediction by ZEFSAII (Michael W. Deem and Ramdas Pophale) SiO2 
 PCOD9293446
Probable space group: C 2/C
;
_chemical_formula_sum "Si O2"
_cell_formula_units_Z 64
_cell_length_a 17.691073
_cell_length_b 27.742778
_cell_length_c 11.411469
_cell_angle_alpha 90.000000
_cell_angle_beta 150.785085
_cell_angle_gamma 90.000000
_cell_volume 2733.649362
_symmetry_space_group_name_H-M "C 2/C"
_symmetry_group_IT_number 15
_symmetry_cell_setting 'monoclinic'
loop_
_space_group_symop_operation_xyz
x,y,z
-x,y,1/2-z
-x,-y,-z
x,-y,1/2+z
1/2+x,1/2+y,z
1/2-x,1/2+y,1/2-z
1/2-x,1/2-y,-z
1/2+x,1/2-y,1/2+z
loop_
_atom_site_type_symbol
_atom_site_label
_atom_site_fract_x
_atom_site_fract_y
_atom_site_fract_z
Si Si1 0.666303 0.630262 0.442462
Si Si2 0.894466 0.819691 0.877455
Si Si3 0.622445 0.945796 0.320322
Si Si4 0.139363 0.647232 0.209014
Si Si5 0.152387 0.710143 0.699787
Si Si6 0.252311 0.700334 0.575945
Si Si7 0.589731 0.496103 0.244336
Si Si8 0.615404 0.945115 0.800221
O O1 0.500000 0.609866 0.250000
O O2 0.652499 0.644189 0.288693
O O3 0.808549 0.595502 0.668465
O O4 0.701529 0.680333 0.556214
O O5 0.792384 0.836949 0.848198
O O6 0.851059 0.766035 0.774008
O O7 0.073757 0.815881 0.156394
O O8 0.500000 0.927597 0.250000
O O9 0.787210 0.960527 0.600918
O O10 0.572139 0.999038 0.211114
O O11 0.169712 0.661133 0.384641
O O12 0.110514 0.590057 0.181804
O O13 0.002208 0.680972 0.974101
O O14 0.161539 0.709035 0.572218
O O15 0.250000 0.750000 0.500000
O O16 0.500000 0.498027 0.250000
O O17 0.706817 0.450267 0.413568
O O18 0.500000 0.500000 0.000000
O O19 0.500000 0.931590 0.750000
#
# Coordination Sequence:
#
# PCOD9293446 Si02
#       8
#     8   8   8   8   8   8   8   8
#     4  12  27  49  71 105 144 198 254 295 375 443
#     4  12  26  46  73 105 147 193 243 310 370 447
#     4   9  23  50  75 103 150 195 244 311 367 434
#     4  12  26  42  76 111 140 187 249 297 376 442
#     4  12  25  47  73 103 146 195 239 312 363 454
#     4  12  23  45  72 100 148 185 235 298 373 433
#     4  10  22  45  76 107 148 197 245 310 377 445
#     4   9  22  50  70 108 145 194 246 302 368 448
#
# _framework density 23.411926999999999
#
# number of rings (size 3 to 8) (size 9 to 14) (size 15 to 20)
#    0.750    0.250    3.750    2.250    1.750    3.000 
#    6.750    1.875    0.000    0.000    0.000    0.000 
#    0.000    0.000    0.000    0.000    0.000    0.000 
#
# Total GULP energy -178629.040503 kJ/mol
# GULP energy per Si atom -5582.157516 kJ/mol
# Density = 2.335864 g / cm^3
# Si number density = 23.411927 Si / 1000 Ang^3
#
#
#
# Elastic Constant Matrix: (Units=GPa)
#
#
# Indices 1 2 3 4 5 6 
#
# 1 89.3411 16.2321 32.0705 0.0000 18.8827 0.0000
# 2 16.2321 118.7765 0.9798 0.0000 16.0249 0.0000
# 3 32.0705 0.9798 83.2691 0.0000 9.3590 0.0000
# 4 0.0000 0.0000 0.0000 32.8407 0.0000 5.1691
# 5 18.8827 16.0249 9.3590 0.0000 43.2202 0.0000
# 6 0.0000 0.0000 0.0000 5.1691 0.0000 22.7698
#
#
#
# Elastic Compliance Matrix: (Units=1/GPa)
#
#
# Indices 1 2 3 4 5 6 
#
# 1 0.014174 -0.001268 -0.004921 0.000000 -0.004657 0.000000
# 2 -0.001268 0.008982 0.000712 0.000000 -0.002930 0.000000
# 3 -0.004921 0.000712 0.014025 0.000000 -0.001151 0.000000
# 4 0.000000 0.000000 0.000000 0.031578 0.000000 -0.007169
# 5 -0.004657 -0.002930 -0.001151 0.000000 0.026508 0.000000
# 6 0.000000 0.000000 0.000000 -0.007169 0.000000 0.045545
#
#
# Mechanical properties :
#
#
# Convention : Reuss Voigt Hill
#
# Bulk Modulus (GPa) = 38.12726 43.32792 40.72759
# Shear Modulus (GPa) = 31.15088 35.90642 33.52865
#
# Velocity S-wave (km/s) = 3.65164 3.92047 3.78844
# Velocity P-wave (km/s) = 5.83952 6.24823 6.04733
#
# Compressibility (1/GPa) = 0.02622795
#
# Stress axis : x y z
#
# Youngs Moduli (GPa) = 70.55127 111.33415 71.29887
#
# Poissons Ratio (x) = 0.14119 0.35084
# Poissons Ratio (y) = 0.08947 -0.05077
# Poissons Ratio (z) = 0.34716 -0.07928
#
# Static dielectric constant tensor:
#      x y z
#    x 1.745350 0.000000 0.099550 
#    y 0.000000 2.035540 0.000000 
#    z 0.099550 0.000000 1.797010 
# 
# From -- ./inp_files/108675.got.cif
#   From: 2010.05.17/outbox.cif.g08.bks.cpg/sg15_55_cif.got.tgz:108675.got - 2010.06.03 18:47:42.
