data_PCOD9293634
_publ_section_title
;
Structure prediction by ZEFSAII (Michael W. Deem and Ramdas Pophale) SiO2 
 PCOD9293634
Probable space group: C 2/C
;
_chemical_formula_sum "Si O2"
_cell_formula_units_Z 36
_cell_length_a 5.068830
_cell_length_b 23.997609
_cell_length_c 11.454570
_cell_angle_alpha 90.000000
_cell_angle_beta 76.716591
_cell_angle_gamma 90.000000
_cell_volume 1356.053644
_symmetry_space_group_name_H-M "C 2/C"
_symmetry_group_IT_number 15
_symmetry_cell_setting 'monoclinic'
loop_
_space_group_symop_operation_xyz
x,y,z
-x,y,1/2-z
-x,-y,-z
x,-y,1/2+z
1/2+x,1/2+y,z
1/2-x,1/2+y,1/2-z
1/2-x,1/2-y,-z
1/2+x,1/2-y,1/2+z
loop_
_atom_site_type_symbol
_atom_site_label
_atom_site_fract_x
_atom_site_fract_y
_atom_site_fract_z
Si Si1 0.772070 0.143625 0.875950
Si Si2 0.500000 0.219232 0.750000
Si Si3 0.554960 0.299343 0.561794
Si Si4 0.296636 0.097840 0.166629
Si Si5 0.655955 0.484473 0.106567
O O1 0.505538 0.171107 0.849374
O O2 0.744886 0.079166 0.910087
O O3 0.000000 0.151879 0.750000
O O4 0.874103 0.176435 0.977880
O O5 0.369816 0.267743 0.678942
O O6 0.750000 0.250000 0.500000
O O7 0.740376 0.349305 0.591873
O O8 0.500000 0.109539 0.250000
O O9 0.000000 0.090339 0.250000
O O10 0.355987 0.036899 0.106095
O O11 0.500000 0.481086 0.250000
O O12 0.500000 0.500000 0.000000
#
# Coordination Sequence:
#
# PCOD9293634 Si02
#       5
#     8   4   8   8   8
#     4  11  24  45  67 101 142 184 242 298 369 432
#     4  12  26  42  72 100 142 190 240 298 374 440
#     4  12  25  44  71 101 144 191 241 303 364 447
#     4  11  26  48  75 107 145 193 247 305 368 444
#     4  10  22  46  71 103 144 189 246 307 372 436
#
# _framework density 26.547620999999999
#
# number of rings (size 3 to 8) (size 9 to 14) (size 15 to 20)
#    0.000    0.889    5.556    0.667    4.667    1.778 
#    0.000    4.444    0.000    0.000    0.000    0.000 
#    0.000    0.000    0.000    0.000    0.000    0.000 
#
# Total GULP energy -100288.584244 kJ/mol
# GULP energy per Si atom -5571.588014 kJ/mol
# Density = 2.648720 g / cm^3
# Si number density = 26.547621 Si / 1000 Ang^3
#
#
#
# Elastic Constant Matrix: (Units=GPa)
#
#
# Indices 1 2 3 4 5 6 
#
# 1 71.8589 30.6574 48.6249 0.0000 18.4947 0.0000
# 2 30.6574 290.5815 115.2487 0.0000 36.7778 0.0000
# 3 48.6249 115.2487 198.3338 0.0000 49.6834 0.0000
# 4 0.0000 0.0000 0.0000 79.6790 0.0000 26.4991
# 5 18.4947 36.7778 49.6834 0.0000 65.7992 0.0000
# 6 0.0000 0.0000 0.0000 26.4991 0.0000 11.9359
#
#
#
# Elastic Compliance Matrix: (Units=1/GPa)
#
#
# Indices 1 2 3 4 5 6 
#
# 1 0.016897 -0.000111 -0.003581 0.000000 -0.001983 0.000000
# 2 -0.000111 0.004496 -0.002422 0.000000 -0.000653 0.000000
# 3 -0.003581 -0.002422 0.008307 0.000000 -0.003912 0.000000
# 4 0.000000 0.000000 0.000000 0.047965 0.000000 -0.106488
# 5 -0.001983 -0.000653 -0.003912 0.000000 0.019074 0.000000
# 6 0.000000 0.000000 0.000000 -0.106488 0.000000 0.320196
#
#
# Mechanical properties :
#
#
# Convention : Reuss Voigt Hill
#
# Bulk Modulus (GPa) = 57.23332 105.53735 81.38534
# Shear Modulus (GPa) = 11.49452 55.89905 33.69679
#
# Velocity S-wave (km/s) = 2.08307 4.59368 3.56658
# Velocity P-wave (km/s) = 5.23365 8.24476 6.90533
#
# Compressibility (1/GPa) = 0.01747234
#
# Stress axis : x y z
#
# Youngs Moduli (GPa) = 59.18078 222.40396 120.37549
#
# Poissons Ratio (x) = 0.02477 0.43108
# Poissons Ratio (y) = 0.00659 0.29153
# Poissons Ratio (z) = 0.21194 0.53862
#
# Static dielectric constant tensor:
#      x y z
#    x 2.179210 0.000000 -0.239900 
#    y 0.000000 2.039360 0.000000 
#    z -0.239900 0.000000 2.208610 
# 
# From -- ./inp_files/72491.got.cif
#   From: 2010.05.17/outbox.cif.g08.bks.cpg/sg15_37_cif.got.tgz:72491.got - 2010.06.03 18:47:42.
