data_PCOD9293035
_publ_section_title
;
Structure prediction by ZEFSAII (Michael W. Deem and Ramdas Pophale) SiO2 
 PCOD9293035
Probable space group: C 2/C
;
_chemical_formula_sum "Si O2"
_cell_formula_units_Z 56
_cell_length_a 13.652538
_cell_length_b 29.858235
_cell_length_c 7.580194
_cell_angle_alpha 90.000000
_cell_angle_beta 53.037887
_cell_angle_gamma 90.000000
_cell_volume 2469.009260
_symmetry_space_group_name_H-M "C 2/C"
_symmetry_group_IT_number 15
_symmetry_cell_setting 'monoclinic'
loop_
_space_group_symop_operation_xyz
x,y,z
-x,y,1/2-z
-x,-y,-z
x,-y,1/2+z
1/2+x,1/2+y,z
1/2-x,1/2+y,1/2-z
1/2-x,1/2-y,-z
1/2+x,1/2-y,1/2+z
loop_
_atom_site_type_symbol
_atom_site_label
_atom_site_fract_x
_atom_site_fract_y
_atom_site_fract_z
Si Si1 0.585364 0.813346 0.499762
Si Si2 0.298387 0.040015 0.701588
Si Si3 0.615350 0.382484 0.497623
Si Si4 0.706314 0.711635 0.904470
Si Si5 0.488705 0.901754 0.459979
Si Si6 0.000000 0.263236 0.250000
Si Si7 0.500000 0.604506 0.750000
Si Si8 0.252960 0.440464 0.641604
O O1 0.500000 0.797378 0.750000
O O2 0.722996 0.794398 0.357181
O O3 0.559478 0.866217 0.507578
O O4 0.560605 0.795201 0.329274
O O5 0.434808 0.051905 0.618605
O O6 0.297396 0.052327 0.499091
O O7 0.255188 0.989166 0.762554
O O8 0.202124 0.073857 0.898619
O O9 0.500000 0.389343 0.750000
O O10 0.691875 0.339562 0.483906
O O11 0.568353 0.373288 0.346033
O O12 0.750000 0.750000 0.000000
O O13 0.569465 0.729939 0.041184
O O14 0.500000 0.885209 0.250000
O O15 0.346406 0.907924 0.660981
O O16 0.608890 0.576907 0.534386
#
# Coordination Sequence:
#
# PCOD9293035 Si02
#       8
#     8   8   8   8   8   4   4   8
#     4  11  23  41  67  97 132 173 223 271 347 409
#     4  11  24  42  66  99 135 182 236 288 355 401
#     4  11  24  44  72  97 140 186 231 287 346 423
#     4  10  22  44  71  99 135 171 226 287 349 411
#     4  12  24  41  68  97 136 184 233 288 347 407
#     4  10  22  46  63 100 132 168 212 291 338 420
#     4  10  28  44  65 106 140 188 238 281 350 414
#     4  11  25  43  65  99 142 180 236 294 335 422
#
# _framework density 22.681159999999998
#
# number of rings (size 3 to 8) (size 9 to 14) (size 15 to 20)
#    0.000    1.143    2.857    2.571    7.000    1.714 
#    1.286    0.000    0.000    0.000    0.000    0.000 
#    0.000    0.000    0.000    0.000    0.000    0.000 
#
# Total GULP energy -155961.964297 kJ/mol
# GULP energy per Si atom -5570.070153 kJ/mol
# Density = 2.262954 g / cm^3
# Si number density = 22.681160 Si / 1000 Ang^3
#
#
#
# Elastic Constant Matrix: (Units=GPa)
#
#
# Indices 1 2 3 4 5 6 
#
# 1 49.7801 16.2716 25.4560 0.0000 -0.1969 0.0000
# 2 16.2716 104.5910 54.1989 0.0000 -10.7029 0.0000
# 3 25.4560 54.1989 195.4356 0.0000 -22.4025 0.0000
# 4 0.0000 0.0000 0.0000 124.1953 0.0000 -70.9703
# 5 -0.1969 -10.7029 -22.4025 0.0000 34.7197 0.0000
# 6 0.0000 0.0000 0.0000 -70.9703 0.0000 54.9697
#
#
#
# Elastic Compliance Matrix: (Units=1/GPa)
#
#
# Indices 1 2 3 4 5 6 
#
# 1 0.022124 -0.002386 -0.002473 0.000000 -0.002206 0.000000
# 2 -0.002386 0.011502 -0.002672 0.000000 0.001808 0.000000
# 3 -0.002473 -0.002672 0.006570 0.000000 0.003401 0.000000
# 4 0.000000 0.000000 0.000000 0.030706 0.000000 0.039644
# 5 -0.002206 0.001808 0.003401 0.000000 0.031542 0.000000
# 6 0.000000 0.000000 0.000000 0.039644 0.000000 0.069375
#
#
# Mechanical properties :
#
#
# Convention : Reuss Voigt Hill
#
# Bulk Modulus (GPa) = 39.78638 60.18440 49.98539
# Shear Modulus (GPa) = 25.60720 59.70229 42.65474
#
# Velocity S-wave (km/s) = 3.36372 5.13610 4.34132
# Velocity P-wave (km/s) = 5.71540 7.85909 6.87136
#
# Compressibility (1/GPa) = 0.02513423
#
# Stress axis : x y z
#
# Youngs Moduli (GPa) = 45.19951 86.94322 152.21477
#
# Poissons Ratio (x) = 0.20747 0.37640
# Poissons Ratio (y) = 0.10786 0.40666
# Poissons Ratio (z) = 0.11177 0.23228
#
# Static dielectric constant tensor:
#      x y z
#    x 3.414110 0.000000 -0.766740 
#    y 0.000000 1.941560 0.000000 
#    z -0.766740 0.000000 2.235470 
# 
# From -- ./inp_files/52648.got.cif
#   From: 2010.05.17/outbox.cif.g08.bks.cpg/sg15_27_cif.got.tgz:52648.got - 2010.06.03 18:47:42.
