data_PCOD9293802
_publ_section_title
;
Structure prediction by ZEFSAII (Michael W. Deem and Ramdas Pophale) SiO2 
 PCOD9293802
Probable space group: C 2/C
;
_chemical_formula_sum "Si O2"
_cell_formula_units_Z 56
_cell_length_a 22.297785
_cell_length_b 21.329489
_cell_length_c 15.339014
_cell_angle_alpha 90.000000
_cell_angle_beta 161.267859
_cell_angle_gamma 90.000000
_cell_volume 2342.824879
_symmetry_space_group_name_H-M "C 2/C"
_symmetry_group_IT_number 15
_symmetry_cell_setting 'monoclinic'
loop_
_space_group_symop_operation_xyz
x,y,z
-x,y,1/2-z
-x,-y,-z
x,-y,1/2+z
1/2+x,1/2+y,z
1/2-x,1/2+y,1/2-z
1/2-x,1/2-y,-z
1/2+x,1/2-y,1/2+z
loop_
_atom_site_type_symbol
_atom_site_label
_atom_site_fract_x
_atom_site_fract_y
_atom_site_fract_z
Si Si1 0.610153 0.300220 0.657780
Si Si2 0.246055 0.264202 0.825503
Si Si3 0.566545 0.111202 0.155191
Si Si4 0.965494 0.578807 0.835085
Si Si5 0.500000 0.190452 0.750000
Si Si6 0.151882 0.989757 0.398313
Si Si7 0.000000 0.665816 0.250000
Si Si8 0.604676 0.557682 0.097953
O O1 0.616195 0.277943 0.564911
O O2 0.436373 0.268909 0.464288
O O3 0.592359 0.375495 0.629232
O O4 0.801790 0.277607 0.964992
O O5 0.181653 0.328501 0.780549
O O6 0.328384 0.213982 0.006080
O O7 0.705605 0.053485 0.353742
O O8 0.495388 0.125901 0.154677
O O9 0.427915 0.092791 0.885585
O O10 0.984226 0.644117 0.811198
O O11 0.797745 0.539826 0.560018
O O12 0.826786 0.547777 0.386856
O O13 0.000000 0.023234 0.250000
O O14 0.026776 0.942530 0.168619
O O15 0.500000 0.500000 0.000000
#
# Coordination Sequence:
#
# PCOD9293802 Si02
#       8
#     8   8   8   8   4   8   4   8
#     4  11  24  45  72 105 145 185 240 297 360 433
#     4  12  24  45  70 105 143 184 237 296 358 434
#     4  12  25  45  67 103 144 184 235 301 363 419
#     4  11  24  46  70 102 148 183 237 306 352 430
#     4  10  22  47  74  94 134 195 230 294 364 410
#     4  12  24  42  70  98 137 190 231 287 367 421
#     4  12  28  41  76 104 138 189 240 292 358 438
#     4  11  24  45  74 105 138 185 243 298 359 434
#
# _framework density 23.902767999999998
#
# number of rings (size 3 to 8) (size 9 to 14) (size 15 to 20)
#    0.000    0.571    5.714    3.429    3.000    3.429 
#    2.571    0.000    0.000    0.000    0.000    0.000 
#    0.000    0.000    0.000    0.000    0.000    0.000 
#
# Total GULP energy -156457.645685 kJ/mol
# GULP energy per Si atom -5587.773060 kJ/mol
# Density = 2.384836 g / cm^3
# Si number density = 23.902768 Si / 1000 Ang^3
#
#
#
# Elastic Constant Matrix: (Units=GPa)
#
#
# Indices 1 2 3 4 5 6 
#
# 1 80.8214 31.8826 12.5557 0.0000 -8.0336 0.0000
# 2 31.8826 63.1091 7.5914 0.0000 16.9977 0.0000
# 3 12.5557 7.5914 96.2383 0.0000 8.6513 0.0000
# 4 0.0000 0.0000 0.0000 16.9684 0.0000 -4.7037
# 5 -8.0336 16.9977 8.6513 0.0000 41.5675 0.0000
# 6 0.0000 0.0000 0.0000 -4.7037 0.0000 29.1467
#
#
#
# Elastic Compliance Matrix: (Units=1/GPa)
#
#
# Indices 1 2 3 4 5 6 
#
# 1 0.017923 -0.011063 -0.002225 0.000000 0.008451 0.000000
# 2 -0.011063 0.024691 0.000607 0.000000 -0.012361 0.000000
# 3 -0.002225 0.000607 0.010898 0.000000 -0.002946 0.000000
# 4 0.000000 0.000000 0.000000 0.061693 0.000000 0.009956
# 5 0.008451 -0.012361 -0.002946 0.000000 0.031358 0.000000
# 6 0.000000 0.000000 0.000000 0.009956 0.000000 0.035916
#
#
# Mechanical properties :
#
#
# Convention : Reuss Voigt Hill
#
# Bulk Modulus (GPa) = 35.52535 38.24758 36.88646
# Shear Modulus (GPa) = 23.01758 30.07912 26.54835
#
# Velocity S-wave (km/s) = 3.10654 3.55123 3.33630
# Velocity P-wave (km/s) = 5.26898 5.73159 5.50514
#
# Compressibility (1/GPa) = 0.02814892
#
# Stress axis : x y z
#
# Youngs Moduli (GPa) = 55.79457 40.50072 91.75830
#
# Poissons Ratio (x) = 0.44806 0.20419
# Poissons Ratio (y) = 0.61726 -0.05569
# Poissons Ratio (z) = 0.12416 -0.02458
#
# Static dielectric constant tensor:
#      x y z
#    x 2.092590 0.000000 -0.105260 
#    y 0.000000 1.881420 0.000000 
#    z -0.105260 0.000000 1.976900 
# 
# From -- ./inp_files/174797.got.cif
#   From: 2010.05.17/outbox.cif.g08.bks.cpg/sg15_88_cif.got.tgz:174797.got - 2010.06.03 18:47:42.
