data_PCOD9293275
_publ_section_title
;
Structure prediction by ZEFSAII (Michael W. Deem and Ramdas Pophale) SiO2 
 PCOD9293275
Probable space group: C 2/C
;
_chemical_formula_sum "Si O2"
_cell_formula_units_Z 36
_cell_length_a 7.051020
_cell_length_b 23.198734
_cell_length_c 13.183086
_cell_angle_alpha 90.000000
_cell_angle_beta 136.047777
_cell_angle_gamma 90.000000
_cell_volume 1496.681073
_symmetry_space_group_name_H-M "C 2/C"
_symmetry_group_IT_number 15
_symmetry_cell_setting 'monoclinic'
loop_
_space_group_symop_operation_xyz
x,y,z
-x,y,1/2-z
-x,-y,-z
x,-y,1/2+z
1/2+x,1/2+y,z
1/2-x,1/2+y,1/2-z
1/2-x,1/2-y,-z
1/2+x,1/2-y,1/2+z
loop_
_atom_site_type_symbol
_atom_site_label
_atom_site_fract_x
_atom_site_fract_y
_atom_site_fract_z
Si Si1 0.474624 0.753742 0.462353
Si Si2 0.710969 0.447147 0.691186
Si Si3 0.500000 0.342246 0.250000
Si Si4 0.252234 0.822914 0.772679
Si Si5 0.321739 0.573936 0.852184
O O1 0.273908 0.804636 0.351710
O O2 0.544828 0.774722 0.602539
O O3 0.321859 0.695027 0.370697
O O4 0.750000 0.750000 0.500000
O O5 0.778670 0.392067 0.787735
O O6 0.649057 0.512973 0.697228
O O7 0.474682 0.431510 0.519289
O O8 0.000000 0.455441 0.750000
O O9 0.524762 0.380045 0.158200
O O10 0.000000 0.813107 0.750000
O O11 0.000000 0.587096 0.750000
#
# Coordination Sequence:
#
# PCOD9293275 Si02
#       5
#     8   8   4   8   8
#     4  10  25  44  65 106 140 189 242 295 359 428
#     4  10  22  45  68 101 147 191 244 301 370 433
#     4  12  26  44  78 104 142 192 244 296 376 442
#     4  10  23  41  69  97 142 190 237 298 358 431
#     4  10  25  44  71 108 146 188 242 315 362 436
#
# _framework density 24.053222000000002
#
# number of rings (size 3 to 8) (size 9 to 14) (size 15 to 20)
#    0.000    1.778    0.000    1.333   12.444    1.778 
#    0.000    4.444    0.000    0.000    0.000    0.000 
#    0.000    0.000    0.000    0.000    0.000    0.000 
#
# Total GULP energy -100315.033107 kJ/mol
# GULP energy per Si atom -5573.057395 kJ/mol
# Density = 2.399848 g / cm^3
# Si number density = 24.053222 Si / 1000 Ang^3
#
#
#
# Elastic Constant Matrix: (Units=GPa)
#
#
# Indices 1 2 3 4 5 6 
#
# 1 104.6818 22.3612 34.7945 0.0000 7.6181 0.0000
# 2 22.3612 133.2388 27.4459 0.0000 -1.2547 0.0000
# 3 34.7945 27.4459 76.1447 0.0000 13.3505 0.0000
# 4 0.0000 0.0000 0.0000 33.8534 0.0000 -8.6383
# 5 7.6181 -1.2547 13.3505 0.0000 35.1870 0.0000
# 6 0.0000 0.0000 0.0000 -8.6383 0.0000 55.6334
#
#
#
# Elastic Compliance Matrix: (Units=1/GPa)
#
#
# Indices 1 2 3 4 5 6 
#
# 1 0.011379 -0.000940 -0.004738 0.000000 -0.000699 0.000000
# 2 -0.000940 0.008259 -0.002822 0.000000 0.001569 0.000000
# 3 -0.004738 -0.002822 0.017304 0.000000 -0.005640 0.000000
# 4 0.000000 0.000000 0.000000 0.030758 0.000000 0.004776
# 5 -0.000699 0.001569 -0.005640 0.000000 0.030767 0.000000
# 6 0.000000 0.000000 0.000000 0.004776 0.000000 0.018716
#
#
# Mechanical properties :
#
#
# Convention : Reuss Voigt Hill
#
# Bulk Modulus (GPa) = 50.14799 53.69649 51.92224
# Shear Modulus (GPa) = 35.50298 40.23234 37.86766
#
# Velocity S-wave (km/s) = 3.84607 4.09423 3.97208
# Velocity P-wave (km/s) = 6.37315 6.68751 6.53222
#
# Compressibility (1/GPa) = 0.01994098
#
# Stress axis : x y z
#
# Youngs Moduli (GPa) = 87.87769 121.07565 57.78907
#
# Poissons Ratio (x) = 0.11385 0.27382
# Poissons Ratio (y) = 0.08263 0.16310
# Poissons Ratio (z) = 0.41639 0.34173
#
# Static dielectric constant tensor:
#      x y z
#    x 2.050870 0.000000 -0.055720 
#    y 0.000000 2.030460 0.000000 
#    z -0.055720 0.000000 2.062050 
# 
# From -- ./inp_files/136535.got.cif
#   From: 2010.05.17/outbox.cif.g08.bks.cpg/sg15_69_cif.got.tgz:136535.got - 2010.06.03 18:47:42.
