data_PCOD9293042
_publ_section_title
;
Structure prediction by ZEFSAII (Michael W. Deem and Ramdas Pophale) SiO2 
 PCOD9293042
Probable space group: C 2/C
;
_chemical_formula_sum "Si O2"
_cell_formula_units_Z 40
_cell_length_a 7.442869
_cell_length_b 7.050531
_cell_length_c 29.514775
_cell_angle_alpha 90.000000
_cell_angle_beta 117.041226
_cell_angle_gamma 90.000000
_cell_volume 1379.504751
_symmetry_space_group_name_H-M "C 2/C"
_symmetry_group_IT_number 15
_symmetry_cell_setting 'monoclinic'
loop_
_space_group_symop_operation_xyz
x,y,z
-x,y,1/2-z
-x,-y,-z
x,-y,1/2+z
1/2+x,1/2+y,z
1/2-x,1/2+y,1/2-z
1/2-x,1/2-y,-z
1/2+x,1/2-y,1/2+z
loop_
_atom_site_type_symbol
_atom_site_label
_atom_site_fract_x
_atom_site_fract_y
_atom_site_fract_z
Si Si1 0.464874 0.547344 0.295866
Si Si2 0.372130 0.136547 0.177790
Si Si3 0.029252 0.972758 0.580111
Si Si4 0.392959 0.107870 0.379907
Si Si5 0.716899 0.029465 0.481492
O O1 0.500000 0.634029 0.250000
O O2 0.513804 0.326708 0.298358
O O3 0.239630 0.562945 0.289947
O O4 0.652402 0.615308 0.348755
O O5 0.519004 0.031373 0.158428
O O6 0.170703 0.168075 0.124116
O O7 0.032744 0.172296 0.607376
O O8 0.813275 0.916763 0.534779
O O9 0.154019 0.009635 0.548514
O O10 0.493376 0.010968 0.435482
O O11 0.750000 0.250000 0.500000
#
# Coordination Sequence:
#
# PCOD9293042 Si02
#       5
#     8   8   8   8   8
#     4  12  30  46  72 104 138 184 249 307 381 450
#     4  11  25  47  70 104 141 184 239 306 371 448
#     4   9  17  38  70  99 145 193 234 298 366 445
#     4  10  22  44  72 100 145 191 238 307 369 445
#     4   8  16  32  66 104 142 196 235 286 375 436
#
# _framework density 28.995913000000002
#
# number of rings (size 3 to 8) (size 9 to 14) (size 15 to 20)
#    0.000    2.000    2.000    0.000    8.400    0.000 
#    0.000    3.000    0.000    0.000    0.000    0.000 
#    0.000    0.000    0.000    0.000    0.000    0.000 
#
# Total GULP energy -111874.838838 kJ/mol
# GULP energy per Si atom -5593.741942 kJ/mol
# Density = 2.892992 g / cm^3
# Si number density = 28.995913 Si / 1000 Ang^3
#
#
#
# Elastic Constant Matrix: (Units=GPa)
#
#
# Indices 1 2 3 4 5 6 
#
# 1 230.7313 28.7279 12.6840 0.0000 -34.2183 0.0000
# 2 28.7279 78.3877 7.3420 0.0000 8.6459 0.0000
# 3 12.6840 7.3420 83.0131 0.0000 4.0388 0.0000
# 4 0.0000 0.0000 0.0000 39.1531 0.0000 9.0009
# 5 -34.2183 8.6459 4.0388 0.0000 47.2393 0.0000
# 6 0.0000 0.0000 0.0000 9.0009 0.0000 48.1367
#
#
#
# Elastic Compliance Matrix: (Units=1/GPa)
#
#
# Indices 1 2 3 4 5 6 
#
# 1 0.005317 -0.002352 -0.000816 0.000000 0.004352 0.000000
# 2 -0.002352 0.014151 -0.000686 0.000000 -0.004235 0.000000
# 3 -0.000816 -0.000686 0.012306 0.000000 -0.001518 0.000000
# 4 0.000000 0.000000 0.000000 0.026688 0.000000 -0.004990
# 5 0.004352 -0.004235 -0.001518 0.000000 0.025226 0.000000
# 6 0.000000 0.000000 0.000000 -0.004990 0.000000 0.021707
#
#
# Mechanical properties :
#
#
# Convention : Reuss Voigt Hill
#
# Bulk Modulus (GPa) = 41.55519 54.40444 47.97982
# Shear Modulus (GPa) = 41.27974 49.79769 45.53871
#
# Velocity S-wave (km/s) = 3.77721 4.14865 3.96728
# Velocity P-wave (km/s) = 5.77803 6.46158 6.12934
#
# Compressibility (1/GPa) = 0.02406438
#
# Stress axis : x y z
#
# Youngs Moduli (GPa) = 188.06993 70.66877 81.26439
#
# Poissons Ratio (x) = 0.16623 0.06632
# Poissons Ratio (y) = 0.44238 0.05575
# Poissons Ratio (z) = 0.15349 0.04848
#
# Static dielectric constant tensor:
#      x y z
#    x 2.264780 0.000000 0.002550 
#    y 0.000000 2.339510 0.000000 
#    z 0.002550 0.000000 2.349310 
# 
# From -- ./inp_files/306560.got.cif
#   From: 2010.05.17/outbox.cif.g08.bks.cpg/sg15_154_cif.got.tgz:306560.got - 2010.06.03 18:47:42.
