data_PCOD9293518
_publ_section_title
;
Structure prediction by ZEFSAII (Michael W. Deem and Ramdas Pophale) SiO2 
 PCOD9293518
Probable space group: C 2/C
;
_chemical_formula_sum "Si O2"
_cell_formula_units_Z 56
_cell_length_a 18.280628
_cell_length_b 8.229299
_cell_length_c 27.442550
_cell_angle_alpha 90.000000
_cell_angle_beta 37.537410
_cell_angle_gamma 90.000000
_cell_volume 2515.329254
_symmetry_space_group_name_H-M "C 2/C"
_symmetry_group_IT_number 15
_symmetry_cell_setting 'monoclinic'
loop_
_space_group_symop_operation_xyz
x,y,z
-x,y,1/2-z
-x,-y,-z
x,-y,1/2+z
1/2+x,1/2+y,z
1/2-x,1/2+y,1/2-z
1/2-x,1/2-y,-z
1/2+x,1/2-y,1/2+z
loop_
_atom_site_type_symbol
_atom_site_label
_atom_site_fract_x
_atom_site_fract_y
_atom_site_fract_z
Si Si1 0.671208 0.272309 0.588814
Si Si2 0.820274 0.403425 0.252310
Si Si3 0.820599 0.746692 0.513787
Si Si4 0.130151 0.533230 0.167747
Si Si5 0.448756 0.404913 0.722874
Si Si6 0.710714 0.960473 0.893131
Si Si7 0.905843 0.692794 0.137384
O O1 0.750000 0.250000 0.500000
O O2 0.579767 0.424923 0.629780
O O3 0.752695 0.309653 0.592306
O O4 0.605608 0.105627 0.639673
O O5 0.822923 0.465808 0.305962
O O6 0.892717 0.233956 0.218285
O O7 0.875916 0.545912 0.190359
O O8 0.688864 0.340232 0.306200
O O9 0.750000 0.750000 0.500000
O O10 0.739927 0.867824 0.588016
O O11 0.822817 0.590558 0.548643
O O12 0.961534 0.765223 0.428300
O O13 0.000000 0.612089 0.250000
O O14 0.500000 0.356158 0.750000
O O15 0.333374 0.512079 0.798728
O O16 0.618134 0.894162 0.902363
#
# Coordination Sequence:
#
# PCOD9293518 Si02
#       7
#     8   8   8   8   8   8   8
#     4  11  20  38  70 100 129 176 229 282 334 407
#     4  11  22  45  71  92 136 179 227 279 346 405
#     4  12  28  45  67 107 143 179 229 288 356 406
#     4  12  22  45  70  99 138 180 225 286 347 409
#     4   9  17  39  69  94 125 171 231 266 331 414
#     4  10  22  46  66  95 141 178 225 283 340 417
#     4  11  26  48  67 103 137 183 237 281 349 415
#
# _framework density 22.263486
#
# number of rings (size 3 to 8) (size 9 to 14) (size 15 to 20)
#    0.000    1.143    5.714    2.143    4.000    2.286 
#   18.000    0.000    0.000    0.000    0.000    0.000 
#    0.000    0.000    0.000    0.000    0.000    0.000 
#
# Total GULP energy -155892.712563 kJ/mol
# GULP energy per Si atom -5567.596877 kJ/mol
# Density = 2.221281 g / cm^3
# Si number density = 22.263486 Si / 1000 Ang^3
#
#
#
# Elastic Constant Matrix: (Units=GPa)
#
#
# Indices 1 2 3 4 5 6 
#
# 1 124.4292 19.5060 58.5527 -0.0002 -9.2855 -0.0003
# 2 19.5060 33.8674 24.0833 -0.0001 -4.6749 -0.0004
# 3 58.5527 24.0833 115.2894 -0.0002 -9.6348 -0.0002
# 4 -0.0002 -0.0001 -0.0002 31.9794 0.0001 0.0845
# 5 -9.2855 -4.6749 -9.6348 0.0001 47.1946 0.0001
# 6 -0.0003 -0.0004 -0.0002 0.0845 0.0001 19.2149
#
#
#
# Elastic Compliance Matrix: (Units=1/GPa)
#
#
# Indices 1 2 3 4 5 6 
#
# 1 0.010804 -0.002645 -0.004862 0.000000 0.000871 0.000000
# 2 -0.002645 0.035511 -0.005925 0.000000 0.001787 0.000001
# 3 -0.004862 -0.005925 0.012464 0.000000 0.001001 0.000000
# 4 0.000000 0.000000 0.000000 0.031271 0.000000 -0.000138
# 5 0.000871 0.001787 0.001001 0.000000 0.021742 0.000000
# 6 0.000000 0.000001 0.000000 -0.000138 0.000000 0.052043
#
#
# Mechanical properties :
#
#
# Convention : Reuss Voigt Hill
#
# Bulk Modulus (GPa) = 31.33340 53.09669 42.21504
# Shear Modulus (GPa) = 24.83392 31.10737 27.97065
#
# Velocity S-wave (km/s) = 3.34347 3.74202 3.54834
# Velocity P-wave (km/s) = 5.38604 6.52467 5.98251
#
# Compressibility (1/GPa) = 0.03191482
#
# Stress axis : x y z
#
# Youngs Moduli (GPa) = 92.55646 28.16066 80.22829
#
# Poissons Ratio (x) = 0.07449 0.39006
# Poissons Ratio (y) = 0.24483 0.47536
# Poissons Ratio (z) = 0.44999 0.16686
#
# Static dielectric constant tensor:
#      x y z
#    x 1.755230 0.000000 0.025860 
#    y 0.000000 2.180170 0.000000 
#    z 0.025860 0.000000 1.885520 
# 
# From -- ./inp_files/298525.got.cif
#   From: 2010.05.17/outbox.cif.g08.bks.cpg/sg15_150_cif.got.tgz:298525.got - 2010.06.03 18:47:42.
