data_PCOD9293405
_publ_section_title
;
Structure prediction by ZEFSAII (Michael W. Deem and Ramdas Pophale) SiO2 
 PCOD9293405
Probable space group: C 2/C
;
_chemical_formula_sum "Si O2"
_cell_formula_units_Z 48
_cell_length_a 22.162112
_cell_length_b 9.487691
_cell_length_c 9.454406
_cell_angle_alpha 90.000000
_cell_angle_beta 66.810670
_cell_angle_gamma 90.000000
_cell_volume 1827.342878
_symmetry_space_group_name_H-M "C 2/C"
_symmetry_group_IT_number 15
_symmetry_cell_setting 'monoclinic'
loop_
_space_group_symop_operation_xyz
x,y,z
-x,y,1/2-z
-x,-y,-z
x,-y,1/2+z
1/2+x,1/2+y,z
1/2-x,1/2+y,1/2-z
1/2-x,1/2-y,-z
1/2+x,1/2-y,1/2+z
loop_
_atom_site_type_symbol
_atom_site_label
_atom_site_fract_x
_atom_site_fract_y
_atom_site_fract_z
Si Si1 0.500000 0.618383 0.750000
Si Si2 0.105397 0.840026 0.547637
Si Si3 0.615431 0.177504 0.103321
Si Si4 0.712866 0.346936 0.204378
Si Si5 0.000000 0.000000 0.500000
Si Si6 0.287135 0.663019 0.344829
Si Si7 0.424798 0.953742 0.564984
O O1 0.446006 0.722900 0.879324
O O2 0.455940 0.584615 0.649353
O O3 0.163337 0.876753 0.383522
O O4 0.137149 0.836474 0.674710
O O5 0.080884 0.686530 0.525408
O O6 0.044960 0.950793 0.596661
O O7 0.674395 0.270560 0.112482
O O8 0.597161 0.082258 0.256627
O O9 0.619653 0.072305 0.967445
O O10 0.735281 0.501240 0.136916
O O11 0.766342 0.240895 0.221207
O O12 0.250000 0.750000 0.500000
O O13 0.500000 0.000000 0.500000
#
# Coordination Sequence:
#
# PCOD9293405 Si02
#       7
#     4   8   8   8   4   8   8
#     4  12  22  42  62  94 140 184 236 300 356 446
#     4  10  23  41  67 100 143 184 243 298 361 443
#     4  11  22  42  66  96 144 184 241 299 365 435
#     4  10  22  45  72  98 141 191 236 311 363 440
#     4  12  22  42  70  98 144 186 236 302 372 436
#     4  10  23  45  72 101 141 183 248 303 369 434
#     4  11  20  40  64  99 140 190 229 295 363 442
#
# _framework density 26.267648999999999
#
# number of rings (size 3 to 8) (size 9 to 14) (size 15 to 20)
#    0.000    1.333    5.000    1.000    2.333    0.000 
#    6.000    6.667    0.000    0.000    0.000    0.000 
#    0.000    0.000    0.000    0.000    0.000    0.000 
#
# Total GULP energy -133936.204329 kJ/mol
# GULP energy per Si atom -5580.675180 kJ/mol
# Density = 2.620786 g / cm^3
# Si number density = 26.267649 Si / 1000 Ang^3
#
#
#
# Elastic Constant Matrix: (Units=GPa)
#
#
# Indices 1 2 3 4 5 6 
#
# 1 166.2754 33.0979 10.1857 0.0000 25.0828 0.0000
# 2 33.0979 122.8805 11.4574 0.0000 5.0999 0.0000
# 3 10.1857 11.4574 107.5272 0.0000 17.2135 0.0000
# 4 0.0000 0.0000 0.0000 94.2287 0.0000 55.4885
# 5 25.0828 5.0999 17.2135 0.0000 34.8785 0.0000
# 6 0.0000 0.0000 0.0000 55.4885 0.0000 89.4489
#
#
#
# Elastic Compliance Matrix: (Units=1/GPa)
#
#
# Indices 1 2 3 4 5 6 
#
# 1 0.007095 -0.001732 0.000314 0.000000 -0.005003 0.000000
# 2 -0.001732 0.008665 -0.000821 0.000000 0.000384 0.000000
# 3 0.000314 -0.000821 0.010179 0.000000 -0.005129 0.000000
# 4 0.000000 0.000000 0.000000 0.016720 0.000000 -0.010372
# 5 -0.005003 0.000384 -0.005129 0.000000 0.034744 0.000000
# 6 0.000000 0.000000 0.000000 -0.010372 0.000000 0.017614
#
#
# Mechanical properties :
#
#
# Convention : Reuss Voigt Hill
#
# Bulk Modulus (GPa) = 46.59979 56.24056 51.42018
# Shear Modulus (GPa) = 46.88254 66.50737 56.69495
#
# Velocity S-wave (km/s) = 4.22927 5.03727 4.65085
# Velocity P-wave (km/s) = 6.45197 7.43567 6.96122
#
# Compressibility (1/GPa) = 0.02145932
#
# Stress axis : x y z
#
# Youngs Moduli (GPa) = 140.95339 115.40390 98.24351
#
# Poissons Ratio (x) = 0.19994 -0.03080
# Poissons Ratio (y) = 0.24420 0.08062
# Poissons Ratio (z) = -0.04419 0.09471
#
# Static dielectric constant tensor:
#      x y z
#    x 1.979600 0.000000 0.233410 
#    y 0.000000 2.206820 0.000000 
#    z 0.233410 0.000000 1.781780 
# 
# From -- ./inp_files/116308.got.cif
#   From: 2010.05.17/outbox.cif.g08.bks.cpg/sg15_59_cif.got.tgz:116308.got - 2010.06.03 18:47:42.
