data_PCOD9293749
_publ_section_title
;
Structure prediction by ZEFSAII (Michael W. Deem and Ramdas Pophale) SiO2 
 PCOD9293749
Probable space group: C 2/C
;
_chemical_formula_sum "Si O2"
_cell_formula_units_Z 48
_cell_length_a 9.253194
_cell_length_b 24.817274
_cell_length_c 14.542693
_cell_angle_alpha 90.000000
_cell_angle_beta 139.696097
_cell_angle_gamma 90.000000
_cell_volume 2160.173381
_symmetry_space_group_name_H-M "C 2/C"
_symmetry_group_IT_number 15
_symmetry_cell_setting 'monoclinic'
loop_
_space_group_symop_operation_xyz
x,y,z
-x,y,1/2-z
-x,-y,-z
x,-y,1/2+z
1/2+x,1/2+y,z
1/2-x,1/2+y,1/2-z
1/2-x,1/2-y,-z
1/2+x,1/2-y,1/2+z
loop_
_atom_site_type_symbol
_atom_site_label
_atom_site_fract_x
_atom_site_fract_y
_atom_site_fract_z
Si Si1 0.500000 0.568704 0.250000
Si Si2 0.018311 0.757831 0.941600
Si Si3 0.682318 0.322970 0.198557
Si Si4 0.500000 0.092035 0.750000
Si Si5 0.735316 0.142858 0.247924
Si Si6 0.181759 0.005751 0.506963
Si Si7 0.754817 0.116205 0.468833
O O1 0.307722 0.606957 0.197332
O O2 0.563471 0.530247 0.362619
O O3 0.846932 0.707527 0.849466
O O4 0.881494 0.803826 0.821267
O O5 0.250000 0.750000 0.000000
O O6 0.085573 0.780560 0.074893
O O7 0.833769 0.367964 0.222021
O O8 0.462381 0.356289 0.120477
O O9 0.362443 0.050685 0.620824
O O10 0.792160 0.117772 0.376056
O O11 0.469940 0.149015 0.120146
O O12 0.278359 0.947037 0.529281
O O13 0.000000 0.000000 0.500000
#
# Coordination Sequence:
#
# PCOD9293749 Si02
#       7
#     4   8   8   4   8   8   8
#     4  12  26  41  72 110 130 183 244 282 344 430
#     4  11  22  39  65 101 133 178 232 291 345 416
#     4  11  23  39  68  98 134 183 234 281 355 420
#     4  12  22  41  70  98 130 193 230 278 360 420
#     4  10  23  41  69  98 137 180 234 290 352 414
#     4  12  24  44  71 102 142 185 233 292 356 411
#     4  10  22  47  67  95 142 192 221 288 364 417
#
# _framework density 22.22044
#
# number of rings (size 3 to 8) (size 9 to 14) (size 15 to 20)
#    0.000    1.000    5.000    2.000    2.333    1.333 
#    0.000    1.667    0.000    0.000    0.000    0.000 
#    0.000    0.000    0.000    0.000    0.000    0.000 
#
# Total GULP energy -134133.864670 kJ/mol
# GULP energy per Si atom -5588.911028 kJ/mol
# Density = 2.216987 g / cm^3
# Si number density = 22.220440 Si / 1000 Ang^3
#
#
#
# Elastic Constant Matrix: (Units=GPa)
#
#
# Indices 1 2 3 4 5 6 
#
# 1 81.9953 30.4598 46.8625 0.0000 7.9905 0.0000
# 2 30.4598 129.8785 64.0806 0.0000 14.7692 0.0000
# 3 46.8625 64.0806 125.8913 0.0000 14.9505 0.0000
# 4 0.0000 0.0000 0.0000 40.5251 0.0000 10.7012
# 5 7.9905 14.7692 14.9505 0.0000 39.2464 0.0000
# 6 0.0000 0.0000 0.0000 10.7012 0.0000 23.0207
#
#
#
# Elastic Compliance Matrix: (Units=1/GPa)
#
#
# Indices 1 2 3 4 5 6 
#
# 1 0.015625 -0.001001 -0.005209 0.000000 -0.000820 0.000000
# 2 -0.001001 0.010492 -0.004738 0.000000 -0.001940 0.000000
# 3 -0.005209 -0.004738 0.012523 0.000000 -0.001927 0.000000
# 4 0.000000 0.000000 0.000000 0.028129 0.000000 -0.013076
# 5 -0.000820 -0.001940 -0.001927 0.000000 0.027111 0.000000
# 6 0.000000 0.000000 0.000000 -0.013076 0.000000 0.049517
#
#
# Mechanical properties :
#
#
# Convention : Reuss Voigt Hill
#
# Bulk Modulus (GPa) = 59.72295 68.95232 64.33764
# Shear Modulus (GPa) = 29.26109 33.64926 31.45518
#
# Velocity S-wave (km/s) = 3.63279 3.89567 3.76652
# Velocity P-wave (km/s) = 6.67323 7.16473 6.92335
#
# Compressibility (1/GPa) = 0.01674398
#
# Stress axis : x y z
#
# Youngs Moduli (GPa) = 64.00043 95.30670 79.85282
#
# Poissons Ratio (x) = 0.09539 0.41599
# Poissons Ratio (y) = 0.06406 0.37833
# Poissons Ratio (z) = 0.33341 0.45155
#
# Static dielectric constant tensor:
#      x y z
#    x 1.884100 0.000000 0.248990 
#    y 0.000000 1.717540 0.000000 
#    z 0.248990 0.000000 2.512950 
# 
# From -- ./inp_files/139071.got.cif
#   From: 2010.05.17/outbox.cif.g08.bks.cpg/sg15_70_cif.got.tgz:139071.got - 2010.06.03 18:47:42.
