data_PCOD9293355
_publ_section_title
;
Structure prediction by ZEFSAII (Michael W. Deem and Ramdas Pophale) SiO2 
 PCOD9293355
Probable space group: C 2/C
;
_chemical_formula_sum "Si O2"
_cell_formula_units_Z 48
_cell_length_a 32.072418
_cell_length_b 4.954031
_cell_length_c 26.861213
_cell_angle_alpha 90.000000
_cell_angle_beta 25.938923
_cell_angle_gamma 90.000000
_cell_volume 1866.841814
_symmetry_space_group_name_H-M "C 2/C"
_symmetry_group_IT_number 15
_symmetry_cell_setting 'monoclinic'
loop_
_space_group_symop_operation_xyz
x,y,z
-x,y,1/2-z
-x,-y,-z
x,-y,1/2+z
1/2+x,1/2+y,z
1/2-x,1/2+y,1/2-z
1/2-x,1/2-y,-z
1/2+x,1/2-y,1/2+z
loop_
_atom_site_type_symbol
_atom_site_label
_atom_site_fract_x
_atom_site_fract_y
_atom_site_fract_z
Si Si1 0.971932 0.702120 0.574396
Si Si2 0.821024 0.868014 0.045505
Si Si3 0.762476 0.121049 0.269625
Si Si4 0.485623 0.694432 0.910995
Si Si5 0.661428 0.821653 0.664774
Si Si6 0.824641 0.557483 0.947796
O O1 0.864505 0.783570 0.678567
O O2 0.000000 0.500000 0.500000
O O3 0.995791 0.504756 0.594973
O O4 0.018739 0.991032 0.537003
O O5 0.806087 0.683499 0.110409
O O6 0.714698 0.963770 0.143292
O O7 0.867320 0.717076 0.948415
O O8 0.890359 0.115671 0.984450
O O9 0.737060 0.314641 0.250090
O O10 0.583139 0.638322 0.775838
O O11 0.754946 0.661366 0.546837
O O12 0.616552 0.939030 0.661697
O O13 0.750000 0.750000 0.000000
#
# Coordination Sequence:
#
# PCOD9293355 Si02
#       6
#     8   8   8   8   8   8
#     4  12  25  46  67 104 149 185 245 301 355 427
#     4  11  24  43  71 102 145 189 243 292 369 435
#     4  12  25  42  70 105 141 193 241 292 361 435
#     4  12  26  43  73 105 143 193 236 302 360 436
#     4  10  22  45  71 101 140 186 241 298 368 423
#     4   9  21  43  72  99 135 184 234 303 360 435
#
# _framework density 25.711874999999999
#
# number of rings (size 3 to 8) (size 9 to 14) (size 15 to 20)
#    0.000    1.000    1.667    4.500    7.000    0.000 
#    0.000    9.167    0.000    0.000    0.000    0.000 
#    0.000    0.000    0.000    0.000    0.000    0.000 
#
# Total GULP energy -134236.821551 kJ/mol
# GULP energy per Si atom -5593.200898 kJ/mol
# Density = 2.565335 g / cm^3
# Si number density = 25.711875 Si / 1000 Ang^3
#
#
#
# Elastic Constant Matrix: (Units=GPa)
#
#
# Indices 1 2 3 4 5 6 
#
# 1 122.8342 27.8467 49.1711 0.0201 3.3543 -0.0363
# 2 27.8467 103.4016 6.3339 -0.0667 0.5469 0.1000
# 3 49.1711 6.3339 86.4351 0.0425 -9.6684 0.0432
# 4 0.0201 -0.0667 0.0425 33.0271 -0.0844 2.1174
# 5 3.3543 0.5469 -9.6684 -0.0844 37.0811 0.0224
# 6 -0.0363 0.1000 0.0432 2.1174 0.0224 49.8319
#
#
#
# Elastic Compliance Matrix: (Units=1/GPa)
#
#
# Indices 1 2 3 4 5 6 
#
# 1 0.011479 -0.002670 -0.006640 -0.000012 -0.002730 0.000021
# 2 -0.002670 0.010340 0.000794 0.000024 0.000296 -0.000025
# 3 -0.006640 0.000794 0.015816 -0.000001 0.004713 -0.000022
# 4 -0.000012 0.000024 -0.000001 0.030361 0.000070 -0.001290
# 5 -0.002730 0.000296 0.004713 0.000070 0.028439 -0.000022
# 6 0.000021 -0.000025 -0.000022 -0.001290 -0.000022 0.020122
#
#
# Mechanical properties :
#
#
# Convention : Reuss Voigt Hill
#
# Bulk Modulus (GPa) = 48.53604 53.26382 50.89993
# Shear Modulus (GPa) = 35.59825 39.27597 37.43711
#
# Velocity S-wave (km/s) = 3.72493 3.91262 3.81993
# Velocity P-wave (km/s) = 6.11703 6.41655 6.26858
#
# Compressibility (1/GPa) = 0.02060325
#
# Stress axis : x y z
#
# Youngs Moduli (GPa) = 87.11614 96.71232 63.22873
#
# Poissons Ratio (x) = 0.25824 0.41983
# Poissons Ratio (y) = 0.23262 -0.05023
# Poissons Ratio (z) = 0.57844 -0.07683
#
# Static dielectric constant tensor:
#      x y z
#    x 2.193960 -0.001130 0.095270 
#    y -0.001130 2.193100 -0.000130 
#    z 0.095270 -0.000130 2.037440 
# 
# From -- ./inp_files/304023.got.cif
#   From: 2010.05.17/outbox.cif.g08.bks.cpg/sg15_153_cif.got.tgz:304023.got - 2010.06.03 18:47:42.
