data_PCOD9293289
_publ_section_title
;
Structure prediction by ZEFSAII (Michael W. Deem and Ramdas Pophale) SiO2 
 PCOD9293289
Probable space group: C 2/C
;
_chemical_formula_sum "Si O2"
_cell_formula_units_Z 32
_cell_length_a 4.878642
_cell_length_b 19.449544
_cell_length_c 12.060990
_cell_angle_alpha 90.000000
_cell_angle_beta 80.678071
_cell_angle_gamma 90.000000
_cell_volume 1129.321875
_symmetry_space_group_name_H-M "C 2/C"
_symmetry_group_IT_number 15
_symmetry_cell_setting 'monoclinic'
loop_
_space_group_symop_operation_xyz
x,y,z
-x,y,1/2-z
-x,-y,-z
x,-y,1/2+z
1/2+x,1/2+y,z
1/2-x,1/2+y,1/2-z
1/2-x,1/2-y,-z
1/2+x,1/2-y,1/2+z
loop_
_atom_site_type_symbol
_atom_site_label
_atom_site_fract_x
_atom_site_fract_y
_atom_site_fract_z
Si Si1 0.367652 0.065602 0.404356
Si Si2 0.264295 0.695327 0.673854
Si Si3 0.064951 0.195279 0.443758
Si Si4 0.137152 0.973438 0.137073
O O1 0.260283 0.139380 0.374581
O O2 0.663686 0.038439 0.345842
O O3 0.137239 0.008576 0.393388
O O4 0.336704 0.067442 0.540969
O O5 0.500000 0.710078 0.750000
O O6 0.383827 0.660331 0.554436
O O7 0.000000 0.660608 0.750000
O O8 0.868298 0.764797 0.871774
O O9 0.250000 0.250000 0.500000
O O10 0.000000 0.934496 0.250000
#
# Coordination Sequence:
#
# PCOD9293289 Si02
#       4
#     8   8   8   8
#     4  10  24  42  70  98 135 176 226 286 345 405
#     4  11  24  43  65  97 144 187 231 274 343 424
#     4  11  25  44  69 102 146 181 225 290 347 421
#     4  10  22  45  68  98 131 177 231 284 342 405
#
# _framework density 28.335587
#
# number of rings (size 3 to 8) (size 9 to 14) (size 15 to 20)
#    0.000    1.500    2.500    0.750    7.000    2.000 
#    4.500    0.000    0.000    0.000    0.000    0.000 
#    0.000    0.000    0.000    0.000    0.000    0.000 
#
# Total GULP energy -89639.477694 kJ/mol
# GULP energy per Si atom -5602.467356 kJ/mol
# Density = 2.827109 g / cm^3
# Si number density = 28.335587 Si / 1000 Ang^3
#
#
#
# Elastic Constant Matrix: (Units=GPa)
#
#
# Indices 1 2 3 4 5 6 
#
# 1 207.3138 37.5989 46.1395 0.0000 4.6154 0.0000
# 2 37.5989 90.3788 6.1949 0.0000 9.2427 0.0000
# 3 46.1395 6.1949 145.8657 0.0000 -27.1439 0.0000
# 4 0.0000 0.0000 0.0000 26.4843 0.0000 -15.4292
# 5 4.6154 9.2427 -27.1439 0.0000 63.2990 0.0000
# 6 0.0000 0.0000 0.0000 -15.4292 0.0000 62.2886
#
#
#
# Elastic Compliance Matrix: (Units=1/GPa)
#
#
# Indices 1 2 3 4 5 6 
#
# 1 0.005644 -0.002128 -0.001862 0.000000 -0.000899 0.000000
# 2 -0.002128 0.012133 -0.000155 0.000000 -0.001683 0.000000
# 3 -0.001862 -0.000155 0.008129 0.000000 0.003645 0.000000
# 4 0.000000 0.000000 0.000000 0.044126 0.000000 0.010930
# 5 -0.000899 -0.001683 0.003645 0.000000 0.017672 0.000000
# 6 0.000000 0.000000 0.000000 0.010930 0.000000 0.018762
#
#
# Mechanical properties :
#
#
# Convention : Reuss Voigt Hill
#
# Bulk Modulus (GPa) = 56.77127 69.26944 63.02035
# Shear Modulus (GPa) = 41.44919 53.98937 47.71928
#
# Velocity S-wave (km/s) = 3.82880 4.36977 4.10820
# Velocity P-wave (km/s) = 6.29485 7.06817 6.69269
#
# Compressibility (1/GPa) = 0.01761454
#
# Stress axis : x y z
#
# Youngs Moduli (GPa) = 177.17584 82.42166 123.00896
#
# Poissons Ratio (x) = 0.17543 0.22908
# Poissons Ratio (y) = 0.37710 0.01909
# Poissons Ratio (z) = 0.32995 0.01279
#
# Static dielectric constant tensor:
#      x y z
#    x 2.157840 0.000000 0.050300 
#    y 0.000000 2.206670 0.000000 
#    z 0.050300 0.000000 2.453710 
# 
# From -- ./inp_files/71855.got.cif
#   From: 2010.05.17/outbox.cif.g08.bks.cpg/sg15_36_cif.got.tgz:71855.got - 2010.06.03 18:47:42.
