data_PCOD9293668
_publ_section_title
;
Structure prediction by ZEFSAII (Michael W. Deem and Ramdas Pophale) SiO2 
 PCOD9293668
Probable space group: C 2/C
;
_chemical_formula_sum "Si O2"
_cell_formula_units_Z 44
_cell_length_a 21.128919
_cell_length_b 7.621211
_cell_length_c 13.602963
_cell_angle_alpha 90.000000
_cell_angle_beta 121.045769
_cell_angle_gamma 90.000000
_cell_volume 1876.686521
_symmetry_space_group_name_H-M "C 2/C"
_symmetry_group_IT_number 15
_symmetry_cell_setting 'monoclinic'
loop_
_space_group_symop_operation_xyz
x,y,z
-x,y,1/2-z
-x,-y,-z
x,-y,1/2+z
1/2+x,1/2+y,z
1/2-x,1/2+y,1/2-z
1/2-x,1/2-y,-z
1/2+x,1/2-y,1/2+z
loop_
_atom_site_type_symbol
_atom_site_label
_atom_site_fract_x
_atom_site_fract_y
_atom_site_fract_z
Si Si1 0.360634 0.307850 0.551651
Si Si2 0.500000 0.734474 0.750000
Si Si3 0.340601 0.800461 0.247830
Si Si4 0.806825 0.684641 0.295368
Si Si5 0.514656 0.578020 0.117755
Si Si6 0.666303 0.299923 0.395412
O O1 0.329917 0.199154 0.620352
O O2 0.334727 0.250012 0.423401
O O3 0.448743 0.310019 0.612706
O O4 0.343869 0.510127 0.563829
O O5 0.476811 0.600810 0.815874
O O6 0.414928 0.803805 0.652742
O O7 0.280334 0.686447 0.256885
O O8 0.416692 0.704986 0.326494
O O9 0.335988 0.993974 0.288548
O O10 0.824243 0.802669 0.214835
O O11 0.500000 0.500000 0.000000
O O12 0.750000 0.250000 0.500000
#
# Coordination Sequence:
#
# PCOD9293668 Si02
#       6
#     8   4   8   8   8   8
#     4  11  25  51  75 109 154 198 257 326 381 466
#     4  10  22  46  72 110 150 196 248 316 384 462
#     4  12  26  48  72 108 156 200 256 323 380 468
#     4  12  28  46  76 112 152 203 260 315 397 461
#     4  11  23  45  79 103 146 202 251 307 396 460
#     4  11  24  46  79 114 150 201 260 318 394 471
#
# _framework density 23.445575999999999
#
# number of rings (size 3 to 8) (size 9 to 14) (size 15 to 20)
#    0.000    0.727    3.636    3.818    7.636    2.182 
#    3.273    0.000    0.000    0.000    0.000    0.000 
#    0.000    0.000    0.000    0.000    0.000    0.000 
#
# Total GULP energy -122772.935536 kJ/mol
# GULP energy per Si atom -5580.587979 kJ/mol
# Density = 2.339221 g / cm^3
# Si number density = 23.445576 Si / 1000 Ang^3
#
#
#
# Elastic Constant Matrix: (Units=GPa)
#
#
# Indices 1 2 3 4 5 6 
#
# 1 218.5001 49.1706 75.1727 0.0000 19.0672 0.0000
# 2 49.1706 54.6552 53.9139 0.0000 -1.1242 0.0000
# 3 75.1727 53.9139 159.8144 0.0000 -25.2511 0.0000
# 4 0.0000 0.0000 0.0000 34.8371 0.0000 3.5921
# 5 19.0672 -1.1242 -25.2511 0.0000 55.0334 0.0000
# 6 0.0000 0.0000 0.0000 3.5921 0.0000 -8.1082
#
#
#
# Elastic Compliance Matrix: (Units=1/GPa)
#
#
# Indices 1 2 3 4 5 6 
#
# 1 0.006501 -0.003550 -0.002402 0.000000 -0.003427 0.000000
# 2 -0.003550 0.030190 -0.008866 0.000000 -0.002221 0.000000
# 3 -0.002402 -0.008866 0.011300 0.000000 0.005836 0.000000
# 4 0.000000 0.000000 0.000000 0.027451 0.000000 0.012161
# 5 -0.003427 -0.002221 0.005836 0.000000 0.021990 0.000000
# 6 0.000000 0.000000 0.000000 0.012161 0.000000 -0.117944
#
#
# Mechanical properties :
#
#
# Convention : Reuss Voigt Hill
#
# Bulk Modulus (GPa) = 54.47824 87.72045 71.09935
# Shear Modulus (GPa) = 328.04357 33.33329 180.68843
#
# Velocity S-wave (km/s) = 11.84149 3.77467 8.78832
# Velocity P-wave (km/s) = 14.49992 7.51620 11.54861
#
# Compressibility (1/GPa) = 0.01835595
#
# Stress axis : x y z
#
# Youngs Moduli (GPa) = 153.82667 33.12334 88.49532
#
# Poissons Ratio (x) = 0.11758 0.21254
# Poissons Ratio (y) = 0.54605 0.78460
# Poissons Ratio (z) = 0.36945 0.29367
#
# Static dielectric constant tensor:
#      x y z
#    x 2.054130 0.000000 0.122880 
#    y 0.000000 1.846150 0.000000 
#    z 0.122880 0.000000 1.983510 
# 
# From -- ./inp_files/159452.got.cif
#   From: 2010.05.17/outbox.cif.g08.bks.cpg/sg15_80_cif.got.tgz:159452.got - 2010.06.03 18:47:42.
