data_PCOD9293409
_publ_section_title
;
Structure prediction by ZEFSAII (Michael W. Deem and Ramdas Pophale) SiO2 
 PCOD9293409
Probable space group: C 2/C
;
_chemical_formula_sum "Si O2"
_cell_formula_units_Z 36
_cell_length_a 16.435511
_cell_length_b 10.901984
_cell_length_c 14.024737
_cell_angle_alpha 90.000000
_cell_angle_beta 42.568494
_cell_angle_gamma 90.000000
_cell_volume 1699.936602
_symmetry_space_group_name_H-M "C 2/C"
_symmetry_group_IT_number 15
_symmetry_cell_setting 'monoclinic'
loop_
_space_group_symop_operation_xyz
x,y,z
-x,y,1/2-z
-x,-y,-z
x,-y,1/2+z
1/2+x,1/2+y,z
1/2-x,1/2+y,1/2-z
1/2-x,1/2-y,-z
1/2+x,1/2-y,1/2+z
loop_
_atom_site_type_symbol
_atom_site_label
_atom_site_fract_x
_atom_site_fract_y
_atom_site_fract_z
Si Si1 0.271131 0.143587 0.904355
Si Si2 0.426722 0.784193 0.936971
Si Si3 0.000000 0.511374 0.750000
Si Si4 0.629543 0.550535 0.641129
Si Si5 0.308941 0.686795 0.738611
O O1 0.408705 0.101630 0.775084
O O2 0.212395 0.172271 0.854165
O O3 0.250000 0.250000 0.000000
O O4 0.212101 0.023870 0.000664
O O5 0.388387 0.686009 0.888677
O O6 0.562665 0.756016 0.856354
O O7 0.436298 0.917950 0.879799
O O8 0.318728 0.768399 0.106360
O O9 0.500000 0.488319 0.750000
O O10 0.670783 0.564852 0.714239
#
# Coordination Sequence:
#
# PCOD9293409 Si02
#       5
#     8   8   4   8   8
#     4  12  30  43  65 107 155 186 223 294 370 434
#     4  11  22  46  80 106 130 187 255 299 335 417
#     4  12  24  48  76  96 146 184 242 296 342 422
#     4  10  22  45  73 100 139 180 241 300 348 419
#     4  11  24  43  74 107 137 188 242 291 361 415
#
# _framework density 21.177261000000001
#
# number of rings (size 3 to 8) (size 9 to 14) (size 15 to 20)
#    0.000    0.889    5.556    2.000    4.667    8.000 
#    0.000    0.000    0.000    0.000    0.000    0.000 
#    0.000    0.000    0.000    0.000    0.000    0.000 
#
# Total GULP energy -100362.164712 kJ/mol
# GULP energy per Si atom -5575.675817 kJ/mol
# Density = 2.112906 g / cm^3
# Si number density = 21.177261 Si / 1000 Ang^3
#
#
#
# Elastic Constant Matrix: (Units=GPa)
#
#
# Indices 1 2 3 4 5 6 
#
# 1 179.4293 49.4789 70.8102 0.0000 15.0360 0.0000
# 2 49.4789 70.4873 25.5965 0.0000 4.6372 0.0000
# 3 70.8102 25.5965 112.6642 0.0000 -5.3092 0.0000
# 4 0.0000 0.0000 0.0000 85.1097 0.0000 63.6577
# 5 15.0360 4.6372 -5.3092 0.0000 49.7884 0.0000
# 6 0.0000 0.0000 0.0000 63.6577 0.0000 117.2160
#
#
#
# Elastic Compliance Matrix: (Units=1/GPa)
#
#
# Indices 1 2 3 4 5 6 
#
# 1 0.008860 -0.004324 -0.004717 0.000000 -0.002776 0.000000
# 2 -0.004324 0.017739 -0.001336 0.000000 -0.000489 0.000000
# 3 -0.004717 -0.001336 0.012279 0.000000 0.002858 0.000000
# 4 0.000000 0.000000 0.000000 0.019787 0.000000 -0.010746
# 5 -0.002776 -0.000489 0.002858 0.000000 0.021274 0.000000
# 6 0.000000 0.000000 0.000000 -0.010746 0.000000 0.014367
#
#
# Mechanical properties :
#
#
# Convention : Reuss Voigt Hill
#
# Bulk Modulus (GPa) = 55.17269 72.70577 63.93923
# Shear Modulus (GPa) = 41.28851 64.86918 53.07884
#
# Velocity S-wave (km/s) = 4.42029 5.54058 5.01183
# Velocity P-wave (km/s) = 7.22228 8.67970 7.98431
#
# Compressibility (1/GPa) = 0.01812491
#
# Stress axis : x y z
#
# Youngs Moduli (GPa) = 112.87287 56.37253 81.44205
#
# Poissons Ratio (x) = 0.24373 0.38415
# Poissons Ratio (y) = 0.48801 0.10880
# Poissons Ratio (z) = 0.53240 0.07531
#
# Static dielectric constant tensor:
#      x y z
#    x 1.714340 0.000000 -0.011420 
#    y 0.000000 1.801900 0.000000 
#    z -0.011420 0.000000 1.769400 
# 
# From -- ./inp_files/102992.got.cif
#   From: 2010.05.17/outbox.cif.g08.bks.cpg/sg15_52_cif.got.tgz:102992.got - 2010.06.03 18:47:42.
