data_PCOD9293342
_publ_section_title
;
Structure prediction by ZEFSAII (Michael W. Deem and Ramdas Pophale) SiO2 
 PCOD9293342
Probable space group: C 2/C
;
_chemical_formula_sum "Si O2"
_cell_formula_units_Z 40
_cell_length_a 19.196154
_cell_length_b 12.181605
_cell_length_c 10.729525
_cell_angle_alpha 90.000000
_cell_angle_beta 134.459653
_cell_angle_gamma 90.000000
_cell_volume 1790.777421
_symmetry_space_group_name_H-M "C 2/C"
_symmetry_group_IT_number 15
_symmetry_cell_setting 'monoclinic'
loop_
_space_group_symop_operation_xyz
x,y,z
-x,y,1/2-z
-x,-y,-z
x,-y,1/2+z
1/2+x,1/2+y,z
1/2-x,1/2+y,1/2-z
1/2-x,1/2-y,-z
1/2+x,1/2-y,1/2+z
loop_
_atom_site_type_symbol
_atom_site_label
_atom_site_fract_x
_atom_site_fract_y
_atom_site_fract_z
Si Si1 0.718951 0.803449 0.778700
Si Si2 0.051152 0.940944 0.683674
Si Si3 0.340148 0.234096 0.707934
Si Si4 0.610453 0.983643 0.097697
Si Si5 0.735780 0.414274 0.402801
O O1 0.808930 0.786726 0.800755
O O2 0.681483 0.680696 0.754483
O O3 0.646772 0.891689 0.634155
O O4 0.749116 0.859859 0.945094
O O5 0.065410 0.808196 0.705066
O O6 0.000000 0.974097 0.750000
O O7 0.162631 0.985472 0.821815
O O8 0.000000 0.000000 0.500000
O O9 0.250000 0.250000 0.500000
O O10 0.352333 0.104434 0.751680
O O11 0.659889 0.935757 0.032820
O O12 0.500000 0.000000 0.000000
#
# Coordination Sequence:
#
# PCOD9293342 Si02
#       5
#     8   8   8   8   8
#     4  10  22  45  70  95 143 183 229 284 366 419
#     4  12  27  44  75 103 142 186 245 291 352 429
#     4  11  25  45  75 102 144 187 232 296 361 417
#     4  11  25  42  73 102 141 181 238 292 357 422
#     4  10  23  46  70  97 140 188 230 296 357 430
#
# _framework density 22.336666000000001
#
# number of rings (size 3 to 8) (size 9 to 14) (size 15 to 20)
#    0.000    1.200    2.000    2.400    8.400    0.800 
#    0.000    0.000    0.000    0.000    0.000    0.000 
#    0.000    0.000    0.000    0.000    0.000    0.000 
#
# Total GULP energy -111404.259533 kJ/mol
# GULP energy per Si atom -5570.212977 kJ/mol
# Density = 2.228583 g / cm^3
# Si number density = 22.336666 Si / 1000 Ang^3
#
#
#
# Elastic Constant Matrix: (Units=GPa)
#
#
# Indices 1 2 3 4 5 6 
#
# 1 151.4622 34.4232 49.7967 0.0000 -5.8375 0.0000
# 2 34.4232 93.5522 -2.1570 0.0000 5.2725 0.0000
# 3 49.7967 -2.1570 49.9968 0.0000 -4.5181 0.0000
# 4 0.0000 0.0000 0.0000 31.9351 0.0000 -0.4011
# 5 -5.8375 5.2725 -4.5181 0.0000 31.0348 0.0000
# 6 0.0000 0.0000 0.0000 -0.4011 0.0000 38.4626
#
#
#
# Elastic Compliance Matrix: (Units=1/GPa)
#
#
# Indices 1 2 3 4 5 6 
#
# 1 0.011469 -0.004556 -0.011506 0.000000 0.001256 0.000000
# 2 -0.004556 0.012607 0.004875 0.000000 -0.002289 0.000000
# 3 -0.011506 0.004875 0.031820 0.000000 0.001640 0.000000
# 4 0.000000 0.000000 0.000000 0.031318 0.000000 0.000327
# 5 0.001256 -0.002289 0.001640 0.000000 0.033086 0.000000
# 6 0.000000 0.000000 0.000000 0.000327 0.000000 0.026003
#
#
# Mechanical properties :
#
#
# Convention : Reuss Voigt Hill
#
# Bulk Modulus (GPa) = 29.83171 51.01524 40.42347
# Shear Modulus (GPa) = 27.80070 34.48306 31.14188
#
# Velocity S-wave (km/s) = 3.53175 3.93337 3.73796
# Velocity P-wave (km/s) = 5.47864 6.59677 6.06353
#
# Compressibility (1/GPa) = 0.03352138
#
# Stress axis : x y z
#
# Youngs Moduli (GPa) = 87.18980 79.32001 31.42664
#
# Poissons Ratio (x) = 0.36140 0.36161
# Poissons Ratio (y) = 0.39726 -0.15321
# Poissons Ratio (z) = 1.00324 -0.38669
#
# Static dielectric constant tensor:
#      x y z
#    x 1.706660 0.000000 -0.086700 
#    y 0.000000 1.908920 0.000000 
#    z -0.086700 0.000000 1.875060 
# 
# From -- ./inp_files/111874.got.cif
#   From: 2010.05.17/outbox.cif.g08.bks.cpg/sg15_56_cif.got.tgz:111874.got - 2010.06.03 18:47:42.
