data_PCOD9293948
_publ_section_title
;
Structure prediction by ZEFSAII (Michael W. Deem and Ramdas Pophale) SiO2 
 PCOD9293948
Probable space group: C 2/C
;
_chemical_formula_sum "Si O2"
_cell_formula_units_Z 64
_cell_length_a 20.298166
_cell_length_b 20.236823
_cell_length_c 12.960323
_cell_angle_alpha 90.000000
_cell_angle_beta 45.690236
_cell_angle_gamma 90.000000
_cell_volume 3809.511867
_symmetry_space_group_name_H-M "C 2/C"
_symmetry_group_IT_number 15
_symmetry_cell_setting 'monoclinic'
loop_
_space_group_symop_operation_xyz
x,y,z
-x,y,1/2-z
-x,-y,-z
x,-y,1/2+z
1/2+x,1/2+y,z
1/2-x,1/2+y,1/2-z
1/2-x,1/2-y,-z
1/2+x,1/2-y,1/2+z
loop_
_atom_site_type_symbol
_atom_site_label
_atom_site_fract_x
_atom_site_fract_y
_atom_site_fract_z
Si Si1 0.757595 0.848661 0.933271
Si Si2 0.138124 0.042330 0.102102
Si Si3 0.396293 0.252257 0.903333
Si Si4 0.303053 0.282592 0.346633
Si Si5 0.611638 0.386688 0.119043
Si Si6 0.986204 0.065664 0.445932
Si Si7 0.968994 0.787959 0.042923
Si Si8 0.169573 0.203652 0.360165
O O1 0.768922 0.922774 0.962130
O O2 0.832488 0.806842 0.917888
O O3 0.787207 0.836486 0.782301
O O4 0.658413 0.815564 0.055044
O O5 0.104136 0.066050 0.027039
O O6 0.066706 0.064178 0.271171
O O7 0.132165 0.963965 0.097166
O O8 0.500000 0.253607 0.750000
O O9 0.411202 0.267274 0.006746
O O10 0.250000 0.250000 0.500000
O O11 0.327124 0.356762 0.354594
O O12 0.407905 0.261578 0.204687
O O13 0.238413 0.260671 0.323587
O O14 0.500000 0.378100 0.250000
O O15 0.645104 0.346373 0.981154
O O16 0.982734 0.132218 0.517085
O O17 0.000000 0.000000 0.500000
O O18 0.073375 0.763675 0.931038
#
# Coordination Sequence:
#
# PCOD9293948 Si02
#       8
#     8   8   8   8   8   8   8   8
#     4  11  22  35  53  84 113 143 187 227 284 334
#     4  11  21  33  49  83 115 146 178 223 277 343
#     4  11  21  35  54  80 112 146 182 234 277 334
#     4  10  23  37  52  81 112 144 193 231 266 332
#     4  11  20  35  54  80 115 149 184 222 287 341
#     4  11  20  30  50  79 117 150 174 211 278 346
#     4  12  19  33  56  79 110 150 182 223 279 325
#     4  11  21  34  56  80 113 150 185 231 277 334
#
# _framework density 16.800052999999998
#
# number of rings (size 3 to 8) (size 9 to 14) (size 15 to 20)
#    0.000    1.000    7.500    1.500    0.000    0.000 
#    0.000    0.000    0.000    0.000    6.500    1.750 
#    0.000    0.000    0.000    0.000    0.000    0.000 
#
# Total GULP energy -178181.231975 kJ/mol
# GULP energy per Si atom -5568.163499 kJ/mol
# Density = 1.676181 g / cm^3
# Si number density = 16.800053 Si / 1000 Ang^3
#
#
#
# Elastic Constant Matrix: (Units=GPa)
#
#
# Indices 1 2 3 4 5 6 
#
# 1 90.4256 40.5652 3.1741 0.0000 0.7354 0.0000
# 2 40.5652 58.8532 -5.5955 0.0000 -4.5323 0.0000
# 3 3.1741 -5.5955 41.3383 0.0000 -1.4329 0.0000
# 4 0.0000 0.0000 0.0000 18.9563 0.0000 1.2980
# 5 0.7354 -4.5323 -1.4329 0.0000 26.3408 0.0000
# 6 0.0000 0.0000 0.0000 1.2980 0.0000 37.1063
#
#
#
# Elastic Compliance Matrix: (Units=1/GPa)
#
#
# Indices 1 2 3 4 5 6 
#
# 1 0.016507 -0.011865 -0.002966 0.000000 -0.002664 0.000000
# 2 -0.011865 0.025996 0.004605 0.000000 0.005055 0.000000
# 3 -0.002966 0.004605 0.025119 0.000000 0.002242 0.000000
# 4 0.000000 0.000000 0.000000 0.052880 0.000000 -0.001850
# 5 -0.002664 0.005055 0.002242 0.000000 0.039030 0.000000
# 6 0.000000 0.000000 0.000000 -0.001850 0.000000 0.027014
#
#
# Mechanical properties :
#
#
# Convention : Reuss Voigt Hill
#
# Bulk Modulus (GPa) = 21.19905 29.65608 25.42757
# Shear Modulus (GPa) = 22.44950 26.64557 24.54753
#
# Velocity S-wave (km/s) = 3.65948 3.98683 3.82666
# Velocity P-wave (km/s) = 5.52282 6.23569 5.89005
#
# Compressibility (1/GPa) = 0.04717192
#
# Stress axis : x y z
#
# Youngs Moduli (GPa) = 60.57965 38.46672 39.80987
#
# Poissons Ratio (x) = 0.45640 0.11807
# Poissons Ratio (y) = 0.71877 -0.18333
# Poissons Ratio (z) = 0.17967 -0.17714
#
# Static dielectric constant tensor:
#      x y z
#    x 1.601520 0.000000 0.036810 
#    y 0.000000 1.572800 0.000000 
#    z 0.036810 0.000000 1.644070 
# 
# From -- ./inp_files/113648.got.cif
#   From: 2010.05.17/outbox.cif.g08.bks.cpg/sg15_57_cif.got.tgz:113648.got - 2010.06.03 18:47:42.
