data_PCOD9293705
_publ_section_title
;
Structure prediction by ZEFSAII (Michael W. Deem and Ramdas Pophale) SiO2 
 PCOD9293705
Probable space group: C 2/C
;
_chemical_formula_sum "Si O2"
_cell_formula_units_Z 36
_cell_length_a 16.422210
_cell_length_b 10.647123
_cell_length_c 11.752980
_cell_angle_alpha 90.000000
_cell_angle_beta 60.214726
_cell_angle_gamma 90.000000
_cell_volume 1783.520613
_symmetry_space_group_name_H-M "C 2/C"
_symmetry_group_IT_number 15
_symmetry_cell_setting 'monoclinic'
loop_
_space_group_symop_operation_xyz
x,y,z
-x,y,1/2-z
-x,-y,-z
x,-y,1/2+z
1/2+x,1/2+y,z
1/2-x,1/2+y,1/2-z
1/2-x,1/2-y,-z
1/2+x,1/2-y,1/2+z
loop_
_atom_site_type_symbol
_atom_site_label
_atom_site_fract_x
_atom_site_fract_y
_atom_site_fract_z
Si Si1 0.000000 0.271419 0.250000
Si Si2 0.496301 0.350686 0.507313
Si Si3 0.176355 0.698097 0.960532
Si Si4 0.791940 0.797819 0.149360
Si Si5 0.817039 0.580140 0.958897
O O1 0.983034 0.191148 0.148090
O O2 0.909019 0.354949 0.341327
O O3 0.500000 0.500000 0.500000
O O4 0.415427 0.284112 0.490139
O O5 0.598828 0.304835 0.397158
O O6 0.227519 0.696528 0.803414
O O7 0.250000 0.750000 0.000000
O O8 0.156812 0.555801 0.013229
O O9 0.762123 0.910113 0.083963
O O10 0.780049 0.669090 0.086403
#
# Coordination Sequence:
#
# PCOD9293705 Si02
#       5
#     4   8   8   8   8
#     4  10  22  46  74  92 130 188 224 286 362 410
#     4  11  25  43  70 104 139 181 235 293 353 424
#     4  12  27  42  69 106 138 185 235 295 347 426
#     4  10  24  44  68  98 139 188 222 290 357 417
#     4  10  23  44  72  96 138 181 235 282 355 421
#
# _framework density 20.184795999999999
#
# number of rings (size 3 to 8) (size 9 to 14) (size 15 to 20)
#    0.000    1.333    2.222    1.333    6.222    8.000 
#    0.000    0.000    0.000    0.000    0.000    0.000 
#    0.000    0.000    0.000    0.000    0.000    0.000 
#
# Total GULP energy -100633.213135 kJ/mol
# GULP energy per Si atom -5590.734063 kJ/mol
# Density = 2.013885 g / cm^3
# Si number density = 20.184796 Si / 1000 Ang^3
#
#
#
# Elastic Constant Matrix: (Units=GPa)
#
#
# Indices 1 2 3 4 5 6 
#
# 1 169.6465 65.4362 45.6513 0.0000 -1.5991 0.0000
# 2 65.4362 144.8686 54.8064 0.0000 -0.3524 0.0000
# 3 45.6513 54.8064 91.7923 0.0000 -11.9803 0.0000
# 4 0.0000 0.0000 0.0000 10.3558 0.0000 0.0904
# 5 -1.5991 -0.3524 -11.9803 0.0000 23.4521 0.0000
# 6 0.0000 0.0000 0.0000 0.0904 0.0000 32.4176
#
#
#
# Elastic Compliance Matrix: (Units=1/GPa)
#
#
# Indices 1 2 3 4 5 6 
#
# 1 0.007477 -0.002502 -0.002317 0.000000 -0.000712 0.000000
# 2 -0.002502 0.009926 -0.005019 0.000000 -0.002586 0.000000
# 3 -0.002317 -0.005019 0.016085 0.000000 0.007984 0.000000
# 4 0.000000 0.000000 0.000000 0.096567 0.000000 -0.000269
# 5 -0.000712 -0.002586 0.007984 0.000000 0.046631 0.000000
# 6 0.000000 0.000000 0.000000 -0.000269 0.000000 0.030848
#
#
# Mechanical properties :
#
#
# Convention : Reuss Voigt Hill
#
# Bulk Modulus (GPa) = 72.41028 82.01057 77.21042
# Shear Modulus (GPa) = 21.56895 29.27266 25.42080
#
# Velocity S-wave (km/s) = 3.27245 3.81232 3.55266
# Velocity P-wave (km/s) = 7.08732 7.75219 7.42720
#
# Compressibility (1/GPa) = 0.01381019
#
# Stress axis : x y z
#
# Youngs Moduli (GPa) = 133.75019 100.74900 62.16794
#
# Poissons Ratio (x) = 0.25210 0.14406
# Poissons Ratio (y) = 0.33467 0.31204
# Poissons Ratio (z) = 0.30993 0.50569
#
# Static dielectric constant tensor:
#      x y z
#    x 1.730690 0.000000 0.025420 
#    y 0.000000 1.715170 0.000000 
#    z 0.025420 0.000000 1.659730 
# 
# From -- ./inp_files/103151.got.cif
#   From: 2010.05.17/outbox.cif.g08.bks.cpg/sg15_52_cif.got.tgz:103151.got - 2010.06.03 18:47:42.
