data_PCOD9293684
_publ_section_title
;
Structure prediction by ZEFSAII (Michael W. Deem and Ramdas Pophale) SiO2 
 PCOD9293684
Probable space group: C 2/C
;
_chemical_formula_sum "Si O2"
_cell_formula_units_Z 64
_cell_length_a 25.466723
_cell_length_b 15.475643
_cell_length_c 12.223913
_cell_angle_alpha 90.000000
_cell_angle_beta 38.574010
_cell_angle_gamma 90.000000
_cell_volume 3003.903015
_symmetry_space_group_name_H-M "C 2/C"
_symmetry_group_IT_number 15
_symmetry_cell_setting 'monoclinic'
loop_
_space_group_symop_operation_xyz
x,y,z
-x,y,1/2-z
-x,-y,-z
x,-y,1/2+z
1/2+x,1/2+y,z
1/2-x,1/2+y,1/2-z
1/2-x,1/2-y,-z
1/2+x,1/2-y,1/2+z
loop_
_atom_site_type_symbol
_atom_site_label
_atom_site_fract_x
_atom_site_fract_y
_atom_site_fract_z
Si Si1 0.250028 0.216241 0.662267
Si Si2 0.391017 0.754022 0.779383
Si Si3 0.113419 0.926639 0.745926
Si Si4 0.321199 0.737830 0.477472
Si Si5 0.566634 0.077284 0.372068
Si Si6 0.281839 0.025444 0.524872
Si Si7 0.407112 0.096811 0.927196
Si Si8 0.503296 0.591086 0.872154
O O1 0.341946 0.250501 0.475176
O O2 0.183249 0.261464 0.689863
O O3 0.252516 0.115831 0.622843
O O4 0.223756 0.225976 0.831059
O O5 0.450650 0.838569 0.675556
O O6 0.438391 0.666362 0.674588
O O7 0.124023 0.844237 0.650555
O O8 0.203256 0.972385 0.609139
O O9 0.045982 0.997099 0.814807
O O10 0.082264 0.904627 0.919298
O O11 0.250000 0.750000 0.500000
O O12 0.380900 0.821541 0.395934
O O13 0.584672 0.118110 0.460105
O O14 0.500000 0.000000 0.500000
O O15 0.650767 0.038664 0.181542
O O16 0.334137 0.972548 0.529378
O O17 0.500000 0.061367 0.750000
O O18 0.500000 0.609849 0.750000
#
# Coordination Sequence:
#
# PCOD9293684 Si02
#       8
#     8   8   8   8   8   8   8   8
#     4  10  23  44  74 102 136 187 244 292 368 434
#     4  10  22  46  73 101 137 193 240 297 359 435
#     4  11  27  45  69 105 141 188 246 291 375 430
#     4  12  27  44  72 109 147 186 238 304 366 440
#     4  11  24  45  70 103 146 188 241 291 362 437
#     4  11  24  45  72 101 139 186 239 301 354 444
#     4  12  26  44  71 103 144 189 235 299 375 434
#     4  11  27  46  72 102 144 187 243 306 355 434
#
# _framework density 21.305615
#
# number of rings (size 3 to 8) (size 9 to 14) (size 15 to 20)
#    0.000    1.000    5.000    0.000    7.000    0.500 
#    4.500    0.000    0.000    0.000    0.000    0.000 
#    0.000    0.000    0.000    0.000    0.000    0.000 
#
# Total GULP energy -178679.257833 kJ/mol
# GULP energy per Si atom -5583.726807 kJ/mol
# Density = 2.125712 g / cm^3
# Si number density = 21.305615 Si / 1000 Ang^3
#
#
#
# Elastic Constant Matrix: (Units=GPa)
#
#
# Indices 1 2 3 4 5 6 
#
# 1 44.9784 -1.1489 15.0018 0.0000 6.1361 0.0000
# 2 -1.1489 99.5265 18.9005 0.0000 -13.5551 0.0000
# 3 15.0018 18.9005 100.1917 0.0000 21.0938 0.0000
# 4 0.0000 0.0000 0.0000 36.5891 0.0000 -16.4050
# 5 6.1361 -13.5551 21.0938 0.0000 25.5843 0.0000
# 6 0.0000 0.0000 0.0000 -16.4050 0.0000 -50.7159
#
#
#
# Elastic Compliance Matrix: (Units=1/GPa)
#
#
# Indices 1 2 3 4 5 6 
#
# 1 0.023649 0.000438 -0.002999 0.000000 -0.002967 0.000000
# 2 0.000438 0.012290 -0.004517 0.000000 0.010131 0.000000
# 3 -0.002999 -0.004517 0.014078 0.000000 -0.013281 0.000000
# 4 0.000000 0.000000 0.000000 0.023869 0.000000 -0.007721
# 5 -0.002967 0.010131 -0.013281 0.000000 0.056116 0.000000
# 6 0.000000 0.000000 0.000000 -0.007721 0.000000 -0.017220
#
#
# Mechanical properties :
#
#
# Convention : Reuss Voigt Hill
#
# Bulk Modulus (GPa) = 27.88440 34.46702 31.17571
# Shear Modulus (GPa) = 35.99948 16.42105 26.21026
#
# Velocity S-wave (km/s) = 4.11502 2.77923 3.51123
# Velocity P-wave (km/s) = 5.97445 5.14892 5.57698
#
# Compressibility (1/GPa) = 0.03586235
#
# Stress axis : x y z
#
# Youngs Moduli (GPa) = 42.28483 81.36575 71.03212
#
# Poissons Ratio (x) = -0.03567 0.21303
# Poissons Ratio (y) = -0.01854 0.32085
# Poissons Ratio (z) = 0.12681 0.36753
#
# Static dielectric constant tensor:
#      x y z
#    x 1.753510 0.000000 0.016830 
#    y 0.000000 2.399020 0.000000 
#    z 0.016830 0.000000 1.593020 
# 
# From -- ./inp_files/123510.got.cif
#   From: 2010.05.17/outbox.cif.g08.bks.cpg/sg15_62_cif.got.tgz:123510.got - 2010.06.03 18:47:42.
