data_PCOD9293759
_publ_section_title
;
Structure prediction by ZEFSAII (Michael W. Deem and Ramdas Pophale) SiO2 
 PCOD9293759
Probable space group: C 2/C
;
_chemical_formula_sum "Si O2"
_cell_formula_units_Z 40
_cell_length_a 12.288680
_cell_length_b 7.217354
_cell_length_c 18.229306
_cell_angle_alpha 90.000000
_cell_angle_beta 96.524707
_cell_angle_gamma 90.000000
_cell_volume 1606.317092
_symmetry_space_group_name_H-M "C 2/C"
_symmetry_group_IT_number 15
_symmetry_cell_setting 'monoclinic'
loop_
_space_group_symop_operation_xyz
x,y,z
-x,y,1/2-z
-x,-y,-z
x,-y,1/2+z
1/2+x,1/2+y,z
1/2-x,1/2+y,1/2-z
1/2-x,1/2-y,-z
1/2+x,1/2-y,1/2+z
loop_
_atom_site_type_symbol
_atom_site_label
_atom_site_fract_x
_atom_site_fract_y
_atom_site_fract_z
Si Si1 0.389766 0.917887 0.221617
Si Si2 0.361468 0.133576 0.006746
Si Si3 0.550880 0.609168 0.872989
Si Si4 0.352627 0.521554 0.273151
Si Si5 0.573247 0.229327 0.937516
O O1 0.500000 0.027420 0.250000
O O2 0.388937 0.735097 0.272967
O O3 0.396372 0.834385 0.141479
O O4 0.275878 0.017915 0.224090
O O5 0.422369 0.198927 0.086428
O O6 0.355307 0.910014 0.006626
O O7 0.250000 0.250000 0.000000
O O8 0.447361 0.188115 0.950224
O O9 0.617013 0.569078 0.803151
O O10 0.424612 0.579906 0.840449
O O11 0.583881 0.450374 0.934667
#
# Coordination Sequence:
#
# PCOD9293759 Si02
#       5
#     8   8   8   8   8
#     4  11  23  43  71  99 142 174 229 291 345 414
#     4  11  26  43  71  97 138 187 235 283 342 415
#     4  10  22  47  68  98 141 180 233 284 354 411
#     4  10  23  43  67 103 136 177 226 294 349 413
#     4  10  24  46  62 102 133 178 234 279 338 413
#
# _framework density 24.901685000000001
#
# number of rings (size 3 to 8) (size 9 to 14) (size 15 to 20)
#    0.000    1.600    4.000    0.600    8.400    2.400 
#   10.800    0.000    0.000    0.000    0.000    0.000 
#    0.000    0.000    0.000    0.000    0.000    0.000 
#
# Total GULP energy -111910.238742 kJ/mol
# GULP energy per Si atom -5595.511937 kJ/mol
# Density = 2.484501 g / cm^3
# Si number density = 24.901685 Si / 1000 Ang^3
#
#
#
# Elastic Constant Matrix: (Units=GPa)
#
#
# Indices 1 2 3 4 5 6 
#
# 1 188.3713 17.3467 17.2214 0.0000 6.0284 0.0000
# 2 17.3467 105.9137 7.5736 0.0000 5.4134 0.0000
# 3 17.2214 7.5736 53.4902 0.0000 -0.8300 0.0000
# 4 0.0000 0.0000 0.0000 30.7301 0.0000 4.8513
# 5 6.0284 5.4134 -0.8300 0.0000 28.0280 0.0000
# 6 0.0000 0.0000 0.0000 4.8513 0.0000 37.3442
#
#
#
# Elastic Compliance Matrix: (Units=1/GPa)
#
#
# Indices 1 2 3 4 5 6 
#
# 1 0.005568 -0.000733 -0.001706 0.000000 -0.001106 0.000000
# 2 -0.000733 0.009735 -0.001170 0.000000 -0.001757 0.000000
# 3 -0.001706 -0.001170 0.019428 0.000000 0.001168 0.000000
# 4 0.000000 0.000000 0.000000 0.033223 0.000000 -0.004316
# 5 -0.001106 -0.001757 0.001168 0.000000 0.036290 0.000000
# 6 0.000000 0.000000 0.000000 -0.004316 0.000000 0.027339
#
#
# Mechanical properties :
#
#
# Convention : Reuss Voigt Hill
#
# Bulk Modulus (GPa) = 36.34615 48.00652 42.17634
# Shear Modulus (GPa) = 33.79040 39.59604 36.69322
#
# Velocity S-wave (km/s) = 3.68768 3.99193 3.84281
# Velocity P-wave (km/s) = 5.72359 6.36927 6.05504
#
# Compressibility (1/GPa) = 0.02751323
#
# Stress axis : x y z
#
# Youngs Moduli (GPa) = 179.61213 102.72003 51.47229
#
# Poissons Ratio (x) = 0.07533 0.08780
# Poissons Ratio (y) = 0.13172 0.06020
# Poissons Ratio (z) = 0.30639 0.12014
#
# Static dielectric constant tensor:
#      x y z
#    x 1.939730 0.000000 0.014020 
#    y 0.000000 1.971410 0.000000 
#    z 0.014020 0.000000 1.992130 
# 
# From -- ./inp_files/195233.got.cif
#   From: 2010.05.17/outbox.cif.g08.bks.cpg/sg15_98_cif.got.tgz:195233.got - 2010.06.03 18:47:42.
