data_PCOD9293463
_publ_section_title
;
Structure prediction by ZEFSAII (Michael W. Deem and Ramdas Pophale) SiO2 
 PCOD9293463
Probable space group: C 2/C
;
_chemical_formula_sum "Si O2"
_cell_formula_units_Z 24
_cell_length_a 17.471216
_cell_length_b 10.288767
_cell_length_c 10.664661
_cell_angle_alpha 90.000000
_cell_angle_beta 29.003800
_cell_angle_gamma 90.000000
_cell_volume 929.515654
_symmetry_space_group_name_H-M "C 2/C"
_symmetry_group_IT_number 15
_symmetry_cell_setting 'monoclinic'
loop_
_space_group_symop_operation_xyz
x,y,z
-x,y,1/2-z
-x,-y,-z
x,-y,1/2+z
1/2+x,1/2+y,z
1/2-x,1/2+y,1/2-z
1/2-x,1/2-y,-z
1/2+x,1/2-y,1/2+z
loop_
_atom_site_type_symbol
_atom_site_label
_atom_site_fract_x
_atom_site_fract_y
_atom_site_fract_z
Si Si1 0.386422 0.303605 0.028958
Si Si2 0.387571 0.356778 0.293039
Si Si3 0.174009 0.489670 0.950276
O O1 0.472175 0.320300 0.041075
O O2 0.243618 0.406615 0.250955
O O3 0.331426 0.154941 0.094612
O O4 0.500000 0.328015 0.750000
O O5 0.500000 0.360870 0.250000
O O6 0.250000 0.250000 0.500000
O O7 0.292939 0.488001 0.396041
O O8 0.000000 0.523346 0.250000
#
# Coordination Sequence:
#
# PCOD9293463 Si02
#       3
#     8   8   8
#     4   9  21  44  83 113 154 205 271 323 391 475
#     4  10  22  45  81 109 158 214 254 322 413 470
#     4   9  20  43  84 110 155 208 267 317 403 471
#
# _framework density 25.819900000000001
#
# number of rings (size 3 to 8) (size 9 to 14) (size 15 to 20)
#    2.000    0.667    0.000    1.000    0.000    1.333 
#    0.000   18.333   36.667    0.000    0.000    0.000 
#    0.000    0.000    0.000    0.000    0.000    0.000 
#
# Total GULP energy -67158.721464 kJ/mol
# GULP energy per Si atom -5596.560122 kJ/mol
# Density = 2.576113 g / cm^3
# Si number density = 25.819900 Si / 1000 Ang^3
#
#
#
# Elastic Constant Matrix: (Units=GPa)
#
#
# Indices 1 2 3 4 5 6 
#
# 1 268.3487 83.3254 107.9892 0.0000 -6.1845 0.0000
# 2 83.3254 213.8017 123.3113 0.0000 -1.6131 0.0000
# 3 107.9892 123.3113 212.8307 0.0000 32.6563 0.0000
# 4 0.0000 0.0000 0.0000 55.0740 0.0000 10.2157
# 5 -6.1845 -1.6131 32.6563 0.0000 50.6626 0.0000
# 6 0.0000 0.0000 0.0000 10.2157 0.0000 29.3212
#
#
#
# Elastic Compliance Matrix: (Units=1/GPa)
#
#
# Indices 1 2 3 4 5 6 
#
# 1 0.004966 -0.000393 -0.002645 0.000000 0.002298 0.000000
# 2 -0.000393 0.007543 -0.004662 0.000000 0.003197 0.000000
# 3 -0.002645 -0.004662 0.009781 0.000000 -0.006776 0.000000
# 4 0.000000 0.000000 0.000000 0.019412 0.000000 -0.006763
# 5 0.002298 0.003197 -0.006776 0.000000 0.024489 0.000000
# 6 0.000000 0.000000 0.000000 -0.006763 0.000000 0.036461
#
#
# Mechanical properties :
#
#
# Convention : Reuss Voigt Hill
#
# Bulk Modulus (GPa) = 145.10082 147.13700 146.11891
# Shear Modulus (GPa) = 41.54653 52.36857 46.95755
#
# Velocity S-wave (km/s) = 4.01570 4.50847 4.26920
# Velocity P-wave (km/s) = 8.82159 9.17667 9.00088
#
# Compressibility (1/GPa) = 0.00689176
#
# Stress axis : x y z
#
# Youngs Moduli (GPa) = 201.38245 132.57329 102.23743
#
# Poissons Ratio (x) = 0.05204 0.27040
# Poissons Ratio (y) = 0.07905 0.47660
# Poissons Ratio (z) = 0.53262 0.61802
#
# Static dielectric constant tensor:
#      x y z
#    x 2.036540 0.000000 0.021230 
#    y 0.000000 2.051710 0.000000 
#    z 0.021230 0.000000 2.069120 
# 
# From -- ./inp_files/103462.got.cif
#   From: 2010.05.17/outbox.cif.g08.bks.cpg/sg15_52_cif.got.tgz:103462.got - 2010.06.03 18:47:42.
