data_PCOD9293829
_publ_section_title
;
Structure prediction by ZEFSAII (Michael W. Deem and Ramdas Pophale) SiO2 
 PCOD9293829
Probable space group: C 2/C
;
_chemical_formula_sum "Si O2"
_cell_formula_units_Z 48
_cell_length_a 23.530955
_cell_length_b 6.722826
_cell_length_c 12.649841
_cell_angle_alpha 90.000000
_cell_angle_beta 102.865377
_cell_angle_gamma 90.000000
_cell_volume 1950.898816
_symmetry_space_group_name_H-M "C 2/C"
_symmetry_group_IT_number 15
_symmetry_cell_setting 'monoclinic'
loop_
_space_group_symop_operation_xyz
x,y,z
-x,y,1/2-z
-x,-y,-z
x,-y,1/2+z
1/2+x,1/2+y,z
1/2-x,1/2+y,1/2-z
1/2-x,1/2-y,-z
1/2+x,1/2-y,1/2+z
loop_
_atom_site_type_symbol
_atom_site_label
_atom_site_fract_x
_atom_site_fract_y
_atom_site_fract_z
Si Si1 0.250000 0.250000 0.500000
Si Si2 0.978130 0.414350 0.380384
Si Si3 0.426219 0.406355 0.611183
Si Si4 0.875663 0.849203 0.920991
Si Si5 0.500000 0.741798 0.750000
Si Si6 0.193427 0.650167 0.425593
Si Si7 0.812289 0.017336 0.201009
O O1 0.207011 0.419623 0.429131
O O2 0.240482 0.109834 0.388203
O O3 0.924968 0.265761 0.377389
O O4 0.962208 0.604048 0.302717
O O5 0.000000 0.500000 0.500000
O O6 0.033363 0.285347 0.362652
O O7 0.402177 0.450586 0.483840
O O8 0.465014 0.596670 0.658970
O O9 0.370332 0.410794 0.662608
O O10 0.856688 0.712414 0.011934
O O11 0.821779 0.912092 0.824506
O O12 0.250000 0.750000 0.500000
O O13 0.185490 0.777819 0.315030
#
# Coordination Sequence:
#
# PCOD9293829 Si02
#       7
#     4   8   8   8   4   8   8
#     4  10  22  48  68  96 140 174 234 298 354 424
#     4  12  26  42  70 108 143 194 246 282 355 430
#     4  11  25  44  67 103 153 184 235 294 353 420
#     4  11  23  44  71 107 143 190 237 295 354 434
#     4  12  24  44  66  94 154 192 228 300 340 424
#     4   9  22  47  68 100 138 179 231 294 361 413
#     4  10  23  43  71 100 140 186 232 291 361 424
#
# _framework density 24.604043000000001
#
# number of rings (size 3 to 8) (size 9 to 14) (size 15 to 20)
#    0.000    1.333    1.667    3.000    4.667    2.667 
#   18.000    0.000    0.000    0.000    0.000    0.000 
#    0.000    0.000    0.000    0.000    0.000    0.000 
#
# Total GULP energy -133711.224666 kJ/mol
# GULP energy per Si atom -5571.301028 kJ/mol
# Density = 2.454804 g / cm^3
# Si number density = 24.604043 Si / 1000 Ang^3
#
#
#
# Elastic Constant Matrix: (Units=GPa)
#
#
# Indices 1 2 3 4 5 6 
#
# 1 52.7927 2.3561 -21.8182 0.0000 -1.2109 0.0000
# 2 2.3561 132.2547 44.2625 0.0000 1.4768 0.0000
# 3 -21.8182 44.2625 124.1715 0.0000 11.9707 0.0000
# 4 0.0000 0.0000 0.0000 20.5036 0.0000 -18.0984
# 5 -1.2109 1.4768 11.9707 0.0000 26.8971 0.0000
# 6 0.0000 0.0000 0.0000 -18.0984 0.0000 11.2676
#
#
#
# Elastic Compliance Matrix: (Units=1/GPa)
#
#
# Indices 1 2 3 4 5 6 
#
# 1 0.020821 -0.001834 0.004401 0.000000 -0.000921 0.000000
# 2 -0.001834 0.008769 -0.003546 0.000000 0.001014 0.000000
# 3 0.004401 -0.003546 0.010503 0.000000 -0.004282 0.000000
# 4 0.000000 0.000000 0.000000 -0.116733 0.000000 -0.187500
# 5 -0.000921 0.001014 -0.004282 0.000000 0.038987 0.000000
# 6 0.000000 0.000000 0.000000 -0.187500 0.000000 -0.212418
#
#
# Mechanical properties :
#
#
# Convention : Reuss Voigt Hill
#
# Bulk Modulus (GPa) = 26.22115 39.86886 33.04501
# Shear Modulus (GPa) = -21.24036 30.69489 4.72727
#
# Velocity S-wave (km/s) = -2.94136 3.53591 1.38763
# Velocity P-wave (km/s) = 0.92471 5.73668 4.00340
#
# Compressibility (1/GPa) = 0.03813716
#
# Stress axis : x y z
#
# Youngs Moduli (GPa) = 48.02729 114.03535 95.20741
#
# Poissons Ratio (x) = 0.20909 -0.41899
# Poissons Ratio (y) = 0.08806 0.33759
# Poissons Ratio (z) = -0.21136 0.40435
#
# Static dielectric constant tensor:
#      x y z
#    x 1.942450 0.000000 0.028340 
#    y 0.000000 1.934420 0.000000 
#    z 0.028340 0.000000 1.984490 
# 
# From -- ./inp_files/180241.got.cif
#   From: 2010.05.17/outbox.cif.g08.bks.cpg/sg15_91_cif.got.tgz:180241.got - 2010.06.03 18:47:42.
