data_PCOD9293812
_publ_section_title
;
Structure prediction by ZEFSAII (Michael W. Deem and Ramdas Pophale) SiO2 
 PCOD9293812
Probable space group: C 2/C
;
_chemical_formula_sum "Si O2"
_cell_formula_units_Z 48
_cell_length_a 30.120160
_cell_length_b 6.790934
_cell_length_c 19.723538
_cell_angle_alpha 90.000000
_cell_angle_beta 152.768031
_cell_angle_gamma 90.000000
_cell_volume 1846.086469
_symmetry_space_group_name_H-M "C 2/C"
_symmetry_group_IT_number 15
_symmetry_cell_setting 'monoclinic'
loop_
_space_group_symop_operation_xyz
x,y,z
-x,y,1/2-z
-x,-y,-z
x,-y,1/2+z
1/2+x,1/2+y,z
1/2-x,1/2+y,1/2-z
1/2-x,1/2-y,-z
1/2+x,1/2-y,1/2+z
loop_
_atom_site_type_symbol
_atom_site_label
_atom_site_fract_x
_atom_site_fract_y
_atom_site_fract_z
Si Si1 0.361566 0.352068 0.440504
Si Si2 0.546461 0.271762 0.384537
Si Si3 0.343070 0.973118 0.808978
Si Si4 0.078850 0.851786 0.636044
Si Si5 0.617896 0.979261 0.286465
Si Si6 0.702609 0.974042 0.547538
O O1 0.379213 0.207646 0.401742
O O2 0.255886 0.452694 0.292052
O O3 0.433480 0.532289 0.546939
O O4 0.352150 0.214640 0.494117
O O5 0.500000 0.331864 0.250000
O O6 0.585428 0.160999 0.595118
O O7 0.470922 0.117855 0.313386
O O8 0.646935 0.159411 0.504169
O O9 0.331119 0.936065 0.712257
O O10 0.080684 0.735317 0.711089
O O11 0.185109 0.953426 0.780850
O O12 0.000000 0.000000 0.500000
O O13 0.686613 0.970668 0.445073
#
# Coordination Sequence:
#
# PCOD9293812 Si02
#       6
#     8   8   8   8   8   8
#     4  11  24  48  82 116 168 223 268 344 429 495
#     4  10  24  48  82 120 161 219 288 348 417 501
#     4   9  24  46  83 121 164 217 283 336 425 508
#     4   9  20  46  82 130 168 216 276 353 421 500
#     4   9  21  49  85 126 162 216 295 346 411 508
#     4  10  22  47  88 117 168 221 281 348 422 507
#
# _framework density 26.000947
#
# number of rings (size 3 to 8) (size 9 to 14) (size 15 to 20)
#    1.000    1.333    0.000    0.500    2.333    2.667 
#   15.000    7.500   18.333    3.000    0.000    1.167 
#    0.000    0.000    0.000    0.000    0.000    0.000 
#
# Total GULP energy -134574.916824 kJ/mol
# GULP energy per Si atom -5607.288201 kJ/mol
# Density = 2.594177 g / cm^3
# Si number density = 26.000947 Si / 1000 Ang^3
#
#
#
# Elastic Constant Matrix: (Units=GPa)
#
#
# Indices 1 2 3 4 5 6 
#
# 1 148.8988 81.9168 91.3279 0.0000 -24.4681 0.0000
# 2 81.9168 200.6916 98.3804 0.0000 -2.3788 0.0001
# 3 91.3279 98.3804 152.4334 0.0000 -15.2504 0.0000
# 4 0.0000 0.0000 0.0000 50.1167 0.0000 -6.3336
# 5 -24.4681 -2.3788 -15.2504 0.0000 44.3369 0.0000
# 6 0.0000 0.0001 0.0000 -6.3336 0.0000 52.5450
#
#
#
# Elastic Compliance Matrix: (Units=1/GPa)
#
#
# Indices 1 2 3 4 5 6 
#
# 1 0.011926 -0.002251 -0.005226 0.000000 0.004663 0.000000
# 2 -0.002251 0.007783 -0.003891 0.000000 -0.002163 0.000000
# 3 -0.005226 -0.003891 0.012317 0.000000 0.001144 0.000000
# 4 0.000000 0.000000 0.000000 0.020262 0.000000 0.002442
# 5 0.004663 -0.002163 0.001144 0.000000 0.025405 0.000000
# 6 0.000000 0.000000 0.000000 0.002442 0.000000 0.019326
#
#
# Mechanical properties :
#
#
# Convention : Reuss Voigt Hill
#
# Bulk Modulus (GPa) = 107.63853 116.14155 111.89004
# Shear Modulus (GPa) = 40.69913 44.75961 42.72937
#
# Velocity S-wave (km/s) = 3.96067 4.15355 4.05826
# Velocity P-wave (km/s) = 7.89960 8.23212 8.06757
#
# Compressibility (1/GPa) = 0.00929035
#
# Stress axis : x y z
#
# Youngs Moduli (GPa) = 83.85084 128.47944 81.18694
#
# Poissons Ratio (x) = 0.28917 0.42429
# Poissons Ratio (y) = 0.18872 0.31592
# Poissons Ratio (z) = 0.43821 0.49995
#
# Static dielectric constant tensor:
#      x y z
#    x 2.100980 0.000000 0.022890 
#    y 0.000000 2.014130 0.000000 
#    z 0.022890 0.000000 2.028790 
# 
# From -- ./inp_files/208953.got.cif
#   From: 2010.05.17/outbox.cif.g08.bks.cpg/sg15_105_cif.got.tgz:208953.got - 2010.06.03 18:47:42.
