data_PCOD9293798
_publ_section_title
;
Structure prediction by ZEFSAII (Michael W. Deem and Ramdas Pophale) SiO2 
 PCOD9293798
Probable space group: C 2/C
;
_chemical_formula_sum "Si O2"
_cell_formula_units_Z 32
_cell_length_a 13.211169
_cell_length_b 8.050810
_cell_length_c 19.561993
_cell_angle_alpha 90.000000
_cell_angle_beta 139.941632
_cell_angle_gamma 90.000000
_cell_volume 1339.023300
_symmetry_space_group_name_H-M "C 2/C"
_symmetry_group_IT_number 15
_symmetry_cell_setting 'monoclinic'
loop_
_space_group_symop_operation_xyz
x,y,z
-x,y,1/2-z
-x,-y,-z
x,-y,1/2+z
1/2+x,1/2+y,z
1/2-x,1/2+y,1/2-z
1/2-x,1/2-y,-z
1/2+x,1/2-y,1/2+z
loop_
_atom_site_type_symbol
_atom_site_label
_atom_site_fract_x
_atom_site_fract_y
_atom_site_fract_z
Si Si1 0.976456 0.463993 0.310718
Si Si2 0.851570 0.584887 0.460089
Si Si3 0.608623 0.671874 0.885140
Si Si4 0.879316 0.087849 0.885317
O O1 0.789851 0.479758 0.225330
O O2 0.000000 0.374361 0.250000
O O3 0.081068 0.389074 0.427071
O O4 0.031866 0.652148 0.327980
O O5 0.698067 0.463638 0.384097
O O6 0.832963 0.746470 0.403708
O O7 0.000000 0.500000 0.500000
O O8 0.482069 0.593761 0.870037
O O9 0.750000 0.750000 0.000000
O O10 0.000000 0.000000 0.000000
#
# Coordination Sequence:
#
# PCOD9293798 Si02
#       4
#     8   8   8   8
#     4  11  26  45  73 110 153 204 262 318 401 461
#     4  11  24  48  77 108 152 206 262 319 400 469
#     4  10  22  47  74 104 152 204 255 327 384 467
#     4  12  26  44  77 116 156 198 261 331 390 476
#
# _framework density 23.898015999999998
#
# number of rings (size 3 to 8) (size 9 to 14) (size 15 to 20)
#    0.000    1.000    5.000    3.000    3.500    4.000 
#    0.000    0.000    0.000    0.000    0.000    0.000 
#    0.000    0.000    0.000    0.000    0.000    0.000 
#
# Total GULP energy -89120.079473 kJ/mol
# GULP energy per Si atom -5570.004967 kJ/mol
# Density = 2.384362 g / cm^3
# Si number density = 23.898016 Si / 1000 Ang^3
#
#
#
# Elastic Constant Matrix: (Units=GPa)
#
#
# Indices 1 2 3 4 5 6 
#
# 1 157.6280 36.8324 63.2397 0.0000 26.1934 0.0000
# 2 36.8324 105.4363 35.4144 0.0000 20.1962 0.0000
# 3 63.2397 35.4144 104.0755 0.0000 25.7833 0.0000
# 4 0.0000 0.0000 0.0000 25.9175 0.0000 24.8111
# 5 26.1934 20.1962 25.7833 0.0000 58.3726 0.0000
# 6 0.0000 0.0000 0.0000 24.8111 0.0000 32.9243
#
#
#
# Elastic Compliance Matrix: (Units=1/GPa)
#
#
# Indices 1 2 3 4 5 6 
#
# 1 0.008680 -0.001242 -0.004484 0.000000 -0.001485 0.000000
# 2 -0.001242 0.011182 -0.002504 0.000000 -0.002206 0.000000
# 3 -0.004484 -0.002504 0.014004 0.000000 -0.003307 0.000000
# 4 0.000000 0.000000 0.000000 0.138498 0.000000 -0.104369
# 5 -0.001485 -0.002206 -0.003307 0.000000 0.020022 0.000000
# 6 0.000000 0.000000 0.000000 -0.104369 0.000000 0.109023
#
#
# Mechanical properties :
#
#
# Convention : Reuss Voigt Hill
#
# Bulk Modulus (GPa) = 57.44859 70.90144 64.17501
# Shear Modulus (GPa) = 15.44786 38.88642 27.16714
#
# Velocity S-wave (km/s) = 2.54521 4.03821 3.37530
# Velocity P-wave (km/s) = 5.72090 7.17465 6.48862
#
# Compressibility (1/GPa) = 0.01740687
#
# Stress axis : x y z
#
# Youngs Moduli (GPa) = 115.21012 89.43203 71.40660
#
# Poissons Ratio (x) = 0.11105 0.32017
# Poissons Ratio (y) = 0.14306 0.17880
# Poissons Ratio (z) = 0.51658 0.22393
#
# Static dielectric constant tensor:
#      x y z
#    x 1.889950 0.000000 -0.157700 
#    y 0.000000 1.956320 0.000000 
#    z -0.157700 0.000000 2.289590 
# 
# From -- ./inp_files/242683.got.cif
#   From: 2010.05.17/outbox.cif.g08.bks.cpg/sg15_122_cif.got.tgz:242683.got - 2010.06.03 18:47:42.
