data_PCOD9293841
_publ_section_title
;
Structure prediction by ZEFSAII (Michael W. Deem and Ramdas Pophale) SiO2 
 PCOD9293841
Probable space group: C 2/C
;
_chemical_formula_sum "Si O2"
_cell_formula_units_Z 28
_cell_length_a 15.419152
_cell_length_b 8.423487
_cell_length_c 15.940555
_cell_angle_alpha 90.000000
_cell_angle_beta 151.005079
_cell_angle_gamma 90.000000
_cell_volume 1003.592962
_symmetry_space_group_name_H-M "C 2/C"
_symmetry_group_IT_number 15
_symmetry_cell_setting 'monoclinic'
loop_
_space_group_symop_operation_xyz
x,y,z
-x,y,1/2-z
-x,-y,-z
x,-y,1/2+z
1/2+x,1/2+y,z
1/2-x,1/2+y,1/2-z
1/2-x,1/2-y,-z
1/2+x,1/2-y,1/2+z
loop_
_atom_site_type_symbol
_atom_site_label
_atom_site_fract_x
_atom_site_fract_y
_atom_site_fract_z
Si Si1 0.600137 0.757167 0.445156
Si Si2 0.500000 0.518237 0.750000
Si Si3 0.380756 0.361666 0.359617
Si Si4 0.870689 0.399446 0.500925
O O1 0.750000 0.750000 0.500000
O O2 0.493306 0.601524 0.324323
O O3 0.667677 0.732527 0.596700
O O4 0.532448 0.939177 0.386703
O O5 0.310398 0.607503 0.595779
O O6 0.500000 0.500000 0.500000
O O7 0.208286 0.409843 0.160687
O O8 0.497185 0.248940 0.396095
#
# Coordination Sequence:
#
# PCOD9293841 Si02
#       4
#     8   4   8   8
#     4  10  23  46  74  99 143 194 243 298 362 430
#     4  10  22  48  72 106 146 192 250 302 364 428
#     4  12  24  45  73 107 148 186 244 301 366 437
#     4  11  25  45  72 107 144 190 243 299 365 436
#
# _framework density 27.899756
#
# number of rings (size 3 to 8) (size 9 to 14) (size 15 to 20)
#    0.000    1.143    2.857    2.571    4.000    1.143 
#    0.000    0.000    0.000    0.000    0.000    0.000 
#    0.000    0.000    0.000    0.000    0.000    0.000 
#
# Total GULP energy -78317.951565 kJ/mol
# GULP energy per Si atom -5594.139398 kJ/mol
# Density = 2.783626 g / cm^3
# Si number density = 27.899756 Si / 1000 Ang^3
#
#
#
# Elastic Constant Matrix: (Units=GPa)
#
#
# Indices 1 2 3 4 5 6 
#
# 1 176.9519 44.1671 11.5566 0.0001 15.4677 -0.0001
# 2 44.1671 196.3035 49.8331 0.0001 14.7154 0.0000
# 3 11.5566 49.8331 82.6316 0.0002 -10.4164 0.0001
# 4 0.0001 0.0001 0.0002 66.6616 0.0002 5.2928
# 5 15.4677 14.7154 -10.4164 0.0002 55.8994 0.0000
# 6 -0.0001 0.0000 0.0001 5.2928 0.0000 49.2831
#
#
#
# Elastic Compliance Matrix: (Units=1/GPa)
#
#
# Indices 1 2 3 4 5 6 
#
# 1 0.006093 -0.001182 -0.000320 0.000000 -0.001434 0.000000
# 2 -0.001182 0.006551 -0.004057 0.000000 -0.002154 0.000000
# 3 -0.000320 -0.004057 0.015094 0.000000 0.003969 0.000000
# 4 0.000000 0.000000 0.000000 0.015130 0.000000 -0.001625
# 5 -0.001434 -0.002154 0.003969 0.000000 0.019593 0.000000
# 6 0.000000 0.000000 0.000000 -0.001625 0.000000 0.020465
#
#
# Mechanical properties :
#
#
# Convention : Reuss Voigt Hill
#
# Bulk Modulus (GPa) = 60.17091 74.11116 67.14103
# Shear Modulus (GPa) = 50.20856 57.72416 53.96636
#
# Velocity S-wave (km/s) = 4.24678 4.55354 4.40283
# Velocity P-wave (km/s) = 6.75725 7.36664 7.06852
#
# Compressibility (1/GPa) = 0.01661933
#
# Stress axis : x y z
#
# Youngs Moduli (GPa) = 164.13447 152.63688 66.25222
#
# Poissons Ratio (x) = 0.18042 0.02120
# Poissons Ratio (y) = 0.19401 0.26880
# Poissons Ratio (z) = 0.05253 0.61928
#
# Static dielectric constant tensor:
#      x y z
#    x 2.192130 0.000000 0.012310 
#    y 0.000000 2.285310 0.000000 
#    z 0.012310 0.000000 2.225530 
# 
# From -- ./inp_files/64702.got.cif
#   From: 2010.05.17/outbox.cif.g08.bks.cpg/sg15_33_cif.got.tgz:64702.got - 2010.06.03 18:47:42.
