data_PCOD9293544
_publ_section_title
;
Structure prediction by ZEFSAII (Michael W. Deem and Ramdas Pophale) SiO2 
 PCOD9293544
Probable space group: C 2/C
;
_chemical_formula_sum "Si O2"
_cell_formula_units_Z 52
_cell_length_a 20.616907
_cell_length_b 11.513758
_cell_length_c 19.615692
_cell_angle_alpha 90.000000
_cell_angle_beta 147.910125
_cell_angle_gamma 90.000000
_cell_volume 2473.672858
_symmetry_space_group_name_H-M "C 2/C"
_symmetry_group_IT_number 15
_symmetry_cell_setting 'monoclinic'
loop_
_space_group_symop_operation_xyz
x,y,z
-x,y,1/2-z
-x,-y,-z
x,-y,1/2+z
1/2+x,1/2+y,z
1/2-x,1/2+y,1/2-z
1/2-x,1/2-y,-z
1/2+x,1/2-y,1/2+z
loop_
_atom_site_type_symbol
_atom_site_label
_atom_site_fract_x
_atom_site_fract_y
_atom_site_fract_z
Si Si1 0.224652 0.830712 0.872118
Si Si2 0.193795 0.311499 0.016273
Si Si3 0.684921 0.442855 0.254141
Si Si4 0.000000 0.939430 0.750000
Si Si5 0.702343 0.921488 0.288144
Si Si6 0.082878 0.923297 0.458597
Si Si7 0.048756 0.547319 0.867828
O O1 0.218715 0.701355 0.840007
O O2 0.110494 0.863480 0.818459
O O3 0.216231 0.925893 0.804198
O O4 0.352173 0.857740 0.022119
O O5 0.288866 0.361549 0.156643
O O6 0.250000 0.250000 0.000000
O O7 0.112815 0.211776 0.978028
O O8 0.116887 0.423762 0.926186
O O9 0.767855 0.407757 0.264782
O O10 0.541857 0.437332 0.110499
O O11 0.946908 0.018853 0.641625
O O12 0.564643 0.959977 0.181604
O O13 0.801073 0.011404 0.406368
O O14 0.000000 0.574716 0.750000
#
# Coordination Sequence:
#
# PCOD9293544 Si02
#       7
#     8   8   8   4   8   8   8
#     4  10  25  45  68  98 139 177 225 281 341 406
#     4  11  24  44  72 103 138 176 231 292 351 408
#     4  10  26  46  67 100 138 185 225 285 351 412
#     4  10  22  46  68 102 134 180 222 280 340 406
#     4  12  27  43  70 102 137 183 232 278 350 421
#     4  11  24  41  71  99 133 180 232 279 347 415
#     4  11  26  43  70 106 135 179 232 287 348 407
#
# _framework density 21.021372
#
# number of rings (size 3 to 8) (size 9 to 14) (size 15 to 20)
#    0.000    1.231    0.000    5.077   12.923    4.923 
#    0.000    0.000    0.000    0.000    0.000    0.000 
#    0.000    0.000    0.000    0.000    0.000    0.000 
#
# Total GULP energy -145547.982982 kJ/mol
# GULP energy per Si atom -5597.999345 kJ/mol
# Density = 2.097353 g / cm^3
# Si number density = 21.021372 Si / 1000 Ang^3
#
#
#
# Elastic Constant Matrix: (Units=GPa)
#
#
# Indices 1 2 3 4 5 6 
#
# 1 121.8894 20.1853 38.3880 0.0000 19.5113 0.0000
# 2 20.1853 74.8476 13.5643 0.0000 2.2829 0.0000
# 3 38.3880 13.5643 100.7960 0.0000 20.1325 0.0000
# 4 0.0000 0.0000 0.0000 11.9233 0.0000 -0.0295
# 5 19.5113 2.2829 20.1325 0.0000 25.4855 0.0000
# 6 0.0000 0.0000 0.0000 -0.0295 0.0000 28.7611
#
#
#
# Elastic Compliance Matrix: (Units=1/GPa)
#
#
# Indices 1 2 3 4 5 6 
#
# 1 0.010251 -0.002142 -0.002478 0.000000 -0.005699 0.000000
# 2 -0.002142 0.014144 -0.001380 0.000000 0.001463 0.000000
# 3 -0.002478 -0.001380 0.012641 0.000000 -0.007966 0.000000
# 4 0.000000 0.000000 0.000000 0.083869 0.000000 0.000086
# 5 -0.005699 0.001463 -0.007966 0.000000 0.049763 0.000000
# 6 0.000000 0.000000 0.000000 0.000086 0.000000 0.034769
#
#
# Mechanical properties :
#
#
# Convention : Reuss Voigt Hill
#
# Bulk Modulus (GPa) = 39.93969 49.08981 44.51475
# Shear Modulus (GPa) = 22.14522 28.26034 25.20278
#
# Velocity S-wave (km/s) = 3.24923 3.67053 3.46629
# Velocity P-wave (km/s) = 5.75478 6.43170 6.10263
#
# Compressibility (1/GPa) = 0.02503775
#
# Stress axis : x y z
#
# Youngs Moduli (GPa) = 97.54690 70.70369 79.10547
#
# Poissons Ratio (x) = 0.15144 0.19600
# Poissons Ratio (y) = 0.20893 0.10915
# Poissons Ratio (z) = 0.24169 0.09756
#
# Static dielectric constant tensor:
#      x y z
#    x 1.766460 0.000000 0.000750 
#    y 0.000000 1.718430 0.000000 
#    z 0.000750 0.000000 1.767090 
# 
# From -- ./inp_files/252742.got.cif
#   From: 2010.05.17/outbox.cif.g08.bks.cpg/sg15_127_cif.got.tgz:252742.got - 2010.06.03 18:47:42.
