data_PCOD9293909
_publ_section_title
;
Structure prediction by ZEFSAII (Michael W. Deem and Ramdas Pophale) SiO2 
 PCOD9293909
Probable space group: C 2/C
;
_chemical_formula_sum "Si O2"
_cell_formula_units_Z 64
_cell_length_a 19.004818
_cell_length_b 21.724303
_cell_length_c 17.941013
_cell_angle_alpha 90.000000
_cell_angle_beta 150.318782
_cell_angle_gamma 90.000000
_cell_volume 3667.872839
_symmetry_space_group_name_H-M "C 2/C"
_symmetry_group_IT_number 15
_symmetry_cell_setting 'monoclinic'
loop_
_space_group_symop_operation_xyz
x,y,z
-x,y,1/2-z
-x,-y,-z
x,-y,1/2+z
1/2+x,1/2+y,z
1/2-x,1/2+y,1/2-z
1/2-x,1/2-y,-z
1/2+x,1/2-y,1/2+z
loop_
_atom_site_type_symbol
_atom_site_label
_atom_site_fract_x
_atom_site_fract_y
_atom_site_fract_z
Si Si1 0.078325 0.950005 0.123327
Si Si2 0.905555 0.816030 0.321328
Si Si3 0.884364 0.971108 0.086210
Si Si4 0.390837 0.946003 0.383749
Si Si5 0.902492 0.525220 0.729380
Si Si6 0.247241 0.844753 0.473101
Si Si7 0.237197 0.201132 0.126327
Si Si8 0.515954 0.110523 0.135019
O O1 0.108247 0.876568 0.139201
O O2 0.240369 0.971655 0.274345
O O3 0.980008 0.949847 0.105239
O O4 0.000000 0.000000 0.000000
O O5 0.806573 0.756253 0.237488
O O6 0.069505 0.799057 0.481815
O O7 0.861618 0.831537 0.194805
O O8 0.000000 0.997176 0.250000
O O9 0.758996 0.016118 0.946429
O O10 0.805201 0.911516 0.046653
O O11 0.439717 0.892939 0.484777
O O12 0.500000 0.000000 0.500000
O O13 0.395921 0.935618 0.299770
O O14 0.961514 0.457298 0.808700
O O15 0.000000 0.546400 0.750000
O O16 0.251823 0.800731 0.549294
O O17 0.405703 0.851809 0.585055
O O18 0.330249 0.141136 0.232065
#
# Coordination Sequence:
#
# PCOD9293909 Si02
#       8
#     8   8   8   8   8   8   8   8
#     4  12  23  40  58  79 111 156 204 246 294 345
#     4  12  25  38  54  79 116 155 204 241 287 336
#     4  12  20  34  54  77 110 149 196 241 283 335
#     4  10  23  35  56  79 107 150 194 245 295 347
#     4  11  20  35  53  81 111 148 193 241 295 348
#     4  12  20  36  54  77 113 160 200 237 278 333
#     4  12  24  37  53  80 113 158 201 239 279 340
#     4  11  20  36  54  77 112 153 198 237 285 340
#
# _framework density 17.448806000000001
#
# number of rings (size 3 to 8) (size 9 to 14) (size 15 to 20)
#    0.000    0.500    7.500    1.875    3.500    1.000 
#    0.000    0.000    0.000    0.000    0.000    0.000 
#    0.000    2.000    0.000    0.125    0.000    0.000 
#
# Total GULP energy -178276.670015 kJ/mol
# GULP energy per Si atom -5571.145938 kJ/mol
# Density = 1.740909 g / cm^3
# Si number density = 17.448806 Si / 1000 Ang^3
#
#
#
# Elastic Constant Matrix: (Units=GPa)
#
#
# Indices 1 2 3 4 5 6 
#
# 1 39.7333 1.2612 22.6715 -0.0001 5.4199 0.0000
# 2 1.2612 39.3485 20.2807 0.0000 0.4802 0.0000
# 3 22.6715 20.2807 138.6632 -0.0002 13.0813 -0.0001
# 4 -0.0001 0.0000 -0.0002 32.9629 -0.0001 -9.6317
# 5 5.4199 0.4802 13.0813 -0.0001 32.9112 0.0000
# 6 0.0000 0.0000 -0.0001 -9.6317 0.0000 16.6851
#
#
#
# Elastic Compliance Matrix: (Units=1/GPa)
#
#
# Indices 1 2 3 4 5 6 
#
# 1 0.028100 0.001475 -0.004542 0.000000 -0.002844 0.000000
# 2 0.001475 0.027612 -0.004383 0.000000 0.001096 0.000000
# 3 -0.004542 -0.004383 0.008851 0.000000 -0.002706 0.000000
# 4 0.000000 0.000000 0.000000 0.036492 0.000000 0.021066
# 5 -0.002844 0.001096 -0.002706 0.000000 0.031913 0.000000
# 6 0.000000 0.000000 0.000000 0.021066 0.000000 0.072094
#
#
# Mechanical properties :
#
#
# Convention : Reuss Voigt Hill
#
# Bulk Modulus (GPa) = 20.13552 34.01908 27.07730
# Shear Modulus (GPa) = 21.14010 28.08063 24.61037
#
# Velocity S-wave (km/s) = 3.48451 4.01598 3.75965
# Velocity P-wave (km/s) = 5.26820 6.40648 5.86502
#
# Compressibility (1/GPa) = 0.04966347
#
# Stress axis : x y z
#
# Youngs Moduli (GPa) = 35.58659 36.21561 112.98583
#
# Poissons Ratio (x) = -0.05342 0.51317
# Poissons Ratio (y) = -0.05249 0.49523
# Poissons Ratio (z) = 0.16163 0.15874
#
# Static dielectric constant tensor:
#      x y z
#    x 1.638680 0.000000 -0.015940 
#    y 0.000000 1.668980 0.000000 
#    z -0.015940 0.000000 1.643440 
# 
# From -- ./inp_files/212175.got.cif
#   From: 2010.05.17/outbox.cif.g08.bks.cpg/sg15_107_cif.got.tgz:212175.got - 2010.06.03 18:47:42.
