data_PCOD9293902
_publ_section_title
;
Structure prediction by ZEFSAII (Michael W. Deem and Ramdas Pophale) SiO2 
 PCOD9293902
Probable space group: C 2/C
;
_chemical_formula_sum "Si O2"
_cell_formula_units_Z 44
_cell_length_a 11.012367
_cell_length_b 19.560980
_cell_length_c 8.777037
_cell_angle_alpha 90.000000
_cell_angle_beta 76.685715
_cell_angle_gamma 90.000000
_cell_volume 1839.866349
_symmetry_space_group_name_H-M "C 2/C"
_symmetry_group_IT_number 15
_symmetry_cell_setting 'monoclinic'
loop_
_space_group_symop_operation_xyz
x,y,z
-x,y,1/2-z
-x,-y,-z
x,-y,1/2+z
1/2+x,1/2+y,z
1/2-x,1/2+y,1/2-z
1/2-x,1/2-y,-z
1/2+x,1/2-y,1/2+z
loop_
_atom_site_type_symbol
_atom_site_label
_atom_site_fract_x
_atom_site_fract_y
_atom_site_fract_z
Si Si1 0.500000 0.333736 0.250000
Si Si2 0.922819 0.893035 0.576776
Si Si3 0.000000 0.766094 0.750000
Si Si4 0.000000 0.536358 0.250000
Si Si5 0.816145 0.064025 0.405515
Si Si6 0.757215 0.675445 0.824066
Si Si7 0.848909 0.437075 0.069099
O O1 0.431297 0.380992 0.395269
O O2 0.380122 0.298843 0.196963
O O3 0.956660 0.817162 0.629821
O O4 0.815946 0.916964 0.725916
O O5 0.041115 0.939195 0.584554
O O6 0.873264 0.725271 0.826977
O O7 0.921347 0.484208 0.169365
O O8 0.929286 0.580131 0.397329
O O9 0.761129 0.124454 0.526631
O O10 0.753995 0.991795 0.454924
O O11 0.808017 0.629172 0.670796
#
# Coordination Sequence:
#
# PCOD9293902 Si02
#       7
#     4   8   4   4   8   8   8
#     4  10  24  40  64  98 125 153 224 278 316 370
#     4   9  22  44  65  91 123 167 223 262 317 386
#     4  10  23  44  67  88 127 180 213 254 330 386
#     4  10  23  34  57  86 136 173 215 262 308 386
#     4   9  20  38  62  86 124 169 204 258 316 381
#     4  11  23  40  65  95 130 175 209 266 319 385
#     4  11  21  39  58  93 131 174 214 261 318 387
#
# _framework density 23.91478
#
# number of rings (size 3 to 8) (size 9 to 14) (size 15 to 20)
#    0.000    2.182    1.818    0.545    5.091    8.727 
#    0.000    7.273    0.000    0.000    0.000    0.000 
#    0.000    0.000    0.000    0.000    0.000    0.000 
#
# Total GULP energy -122705.211852 kJ/mol
# GULP energy per Si atom -5577.509630 kJ/mol
# Density = 2.386035 g / cm^3
# Si number density = 23.914780 Si / 1000 Ang^3
#
#
#
# Elastic Constant Matrix: (Units=GPa)
#
#
# Indices 1 2 3 4 5 6 
#
# 1 80.5866 23.3646 18.7919 0.0000 0.1754 0.0000
# 2 23.3646 62.3325 24.8366 0.0000 -12.2113 0.0000
# 3 18.7919 24.8366 193.5381 0.0000 -25.9866 0.0000
# 4 0.0000 0.0000 0.0000 42.2807 0.0000 -32.7164
# 5 0.1754 -12.2113 -25.9866 0.0000 39.2571 0.0000
# 6 0.0000 0.0000 0.0000 -32.7164 0.0000 38.0862
#
#
#
# Elastic Compliance Matrix: (Units=1/GPa)
#
#
# Indices 1 2 3 4 5 6 
#
# 1 0.014215 -0.005398 -0.001011 0.000000 -0.002412 0.000000
# 2 -0.005398 0.019611 -0.001284 0.000000 0.005274 0.000000
# 3 -0.001011 -0.001284 0.005901 0.000000 0.003512 0.000000
# 4 0.000000 0.000000 0.000000 0.070537 0.000000 0.060592
# 5 -0.002412 0.005274 0.003512 0.000000 0.029449 0.000000
# 6 0.000000 0.000000 0.000000 0.060592 0.000000 0.078305
#
#
# Mechanical properties :
#
#
# Convention : Reuss Voigt Hill
#
# Bulk Modulus (GPa) = 41.08381 52.27149 46.67765
# Shear Modulus (GPa) = 20.70224 41.88907 31.29566
#
# Velocity S-wave (km/s) = 2.94541 4.18975 3.62143
# Velocity P-wave (km/s) = 5.36506 6.73128 6.08663
#
# Compressibility (1/GPa) = 0.02434049
#
# Stress axis : x y z
#
# Youngs Moduli (GPa) = 70.34748 50.99080 169.44921
#
# Poissons Ratio (x) = 0.27524 0.17138
# Poissons Ratio (y) = 0.37973 0.21764
# Poissons Ratio (z) = 0.07115 0.06549
#
# Static dielectric constant tensor:
#      x y z
#    x 2.193570 0.000000 0.060130 
#    y 0.000000 1.857960 0.000000 
#    z 0.060130 0.000000 1.973880 
# 
# From -- ./inp_files/30888.got.cif
#   From: 2010.05.17/outbox.cif.g08.bks.cpg/sg15_16_cif.got.tgz:30888.got - 2010.06.03 18:47:42.
