data_PCOD9293644
_publ_section_title
;
Structure prediction by ZEFSAII (Michael W. Deem and Ramdas Pophale) SiO2 
 PCOD9293644
Probable space group: C 2/C
;
_chemical_formula_sum "Si O2"
_cell_formula_units_Z 56
_cell_length_a 14.956057
_cell_length_b 12.248707
_cell_length_c 14.326191
_cell_angle_alpha 90.000000
_cell_angle_beta 83.010218
_cell_angle_gamma 90.000000
_cell_volume 2604.943495
_symmetry_space_group_name_H-M "C 2/C"
_symmetry_group_IT_number 15
_symmetry_cell_setting 'monoclinic'
loop_
_space_group_symop_operation_xyz
x,y,z
-x,y,1/2-z
-x,-y,-z
x,-y,1/2+z
1/2+x,1/2+y,z
1/2-x,1/2+y,1/2-z
1/2-x,1/2-y,-z
1/2+x,1/2-y,1/2+z
loop_
_atom_site_type_symbol
_atom_site_label
_atom_site_fract_x
_atom_site_fract_y
_atom_site_fract_z
Si Si1 0.664953 0.742604 0.442606
Si Si2 0.467416 0.800955 0.883405
Si Si3 0.414662 0.503926 0.080889
Si Si4 0.000000 0.487168 0.750000
Si Si5 0.171591 0.641891 0.411419
Si Si6 0.256298 0.131466 0.905338
Si Si7 0.000000 0.104515 0.750000
Si Si8 0.673704 0.072712 0.800213
O O1 0.750000 0.750000 0.500000
O O2 0.584238 0.795418 0.513329
O O3 0.632047 0.622330 0.418362
O O4 0.690748 0.816187 0.351782
O O5 0.443209 0.904817 0.822843
O O6 0.574275 0.816831 0.888342
O O7 0.449206 0.690974 0.825471
O O8 0.340122 0.418270 0.054141
O O9 0.444375 0.467550 0.182193
O O10 0.500000 0.500000 0.000000
O O11 0.066585 0.559336 0.801237
O O12 0.241318 0.740386 0.390422
O O13 0.172438 0.615671 0.521331
O O14 0.201634 0.533810 0.354015
O O15 0.283195 0.075465 0.806386
#
# Coordination Sequence:
#
# PCOD9293644 Si02
#       8
#     8   8   8   4   8   8   4   8
#     4  12  28  44  69 105 145 184 244 303 354 432
#     4  10  22  46  71  97 140 189 238 287 367 427
#     4  12  26  48  73 106 143 193 238 300 369 437
#     4   9  24  41  70  98 134 189 227 286 360 432
#     4  10  23  48  71  97 139 191 231 296 356 440
#     4  11  25  44  72 102 142 184 241 294 364 431
#     4  11  22  45  74  98 140 191 237 286 360 448
#     4  11  27  42  69 106 138 181 240 294 359 417
#
# _framework density 21.497586999999999
#
# number of rings (size 3 to 8) (size 9 to 14) (size 15 to 20)
#    0.000    1.143    2.857    0.857   10.000    2.857 
#    2.571    0.000    0.000    0.000    0.000    0.000 
#    0.000    0.000    0.000    0.000    0.000    0.000 
#
# Total GULP energy -156503.684704 kJ/mol
# GULP energy per Si atom -5589.417311 kJ/mol
# Density = 2.144866 g / cm^3
# Si number density = 21.497587 Si / 1000 Ang^3
#
#
#
# Elastic Constant Matrix: (Units=GPa)
#
#
# Indices 1 2 3 4 5 6 
#
# 1 47.6972 41.9249 38.3543 0.0000 17.4312 0.0000
# 2 41.9249 115.5700 42.7327 0.0000 15.7366 0.0000
# 3 38.3543 42.7327 117.6808 0.0000 16.0815 0.0000
# 4 0.0000 0.0000 0.0000 29.3024 0.0000 11.6571
# 5 17.4312 15.7366 16.0815 0.0000 40.8897 0.0000
# 6 0.0000 0.0000 0.0000 11.6571 0.0000 13.4830
#
#
#
# Elastic Compliance Matrix: (Units=1/GPa)
#
#
# Indices 1 2 3 4 5 6 
#
# 1 0.039985 -0.010201 -0.007963 0.000000 -0.009988 0.000000
# 2 -0.010201 0.012857 -0.001334 0.000000 -0.000075 0.000000
# 3 -0.007963 -0.001334 0.011670 0.000000 -0.000682 0.000000
# 4 0.000000 0.000000 0.000000 0.052019 0.000000 -0.044974
# 5 -0.009988 -0.000075 -0.000682 0.000000 0.029011 0.000000
# 6 0.000000 0.000000 0.000000 -0.044974 0.000000 0.113051
#
#
# Mechanical properties :
#
#
# Convention : Reuss Voigt Hill
#
# Bulk Modulus (GPa) = 39.18902 58.55241 48.87072
# Shear Modulus (GPa) = 16.33488 27.26409 21.79948
#
# Velocity S-wave (km/s) = 2.75952 3.56510 3.18786
# Velocity P-wave (km/s) = 5.33126 6.65150 6.02764
#
# Compressibility (1/GPa) = 0.02551735
#
# Stress axis : x y z
#
# Youngs Moduli (GPa) = 25.00913 77.78070 85.68791
#
# Poissons Ratio (x) = 0.79344 0.68232
# Poissons Ratio (y) = 0.25512 0.11428
# Poissons Ratio (z) = 0.19914 0.10373
#
# Static dielectric constant tensor:
#      x y z
#    x 1.801080 0.000000 0.013280 
#    y 0.000000 1.778120 0.000000 
#    z 0.013280 0.000000 1.783080 
# 
# From -- ./inp_files/152654.got.cif
#   From: 2010.05.17/outbox.cif.g08.bks.cpg/sg15_77_cif.got.tgz:152654.got - 2010.06.03 18:47:42.
