data_PCOD9293288
_publ_section_title
;
Structure prediction by ZEFSAII (Michael W. Deem and Ramdas Pophale) SiO2 
 PCOD9293288
Probable space group: C 2/C
;
_chemical_formula_sum "Si O2"
_cell_formula_units_Z 44
_cell_length_a 13.076238
_cell_length_b 7.644339
_cell_length_c 18.214280
_cell_angle_alpha 90.000000
_cell_angle_beta 80.943678
_cell_angle_gamma 90.000000
_cell_volume 1797.988290
_symmetry_space_group_name_H-M "C 2/C"
_symmetry_group_IT_number 15
_symmetry_cell_setting 'monoclinic'
loop_
_space_group_symop_operation_xyz
x,y,z
-x,y,1/2-z
-x,-y,-z
x,-y,1/2+z
1/2+x,1/2+y,z
1/2-x,1/2+y,1/2-z
1/2-x,1/2-y,-z
1/2+x,1/2-y,1/2+z
loop_
_atom_site_type_symbol
_atom_site_label
_atom_site_fract_x
_atom_site_fract_y
_atom_site_fract_z
Si Si1 0.140916 0.972488 0.307251
Si Si2 0.025111 0.113485 0.068762
Si Si3 0.500000 0.823447 0.750000
Si Si4 0.219723 0.984199 0.142872
Si Si5 0.320525 0.918536 0.869221
Si Si6 0.340775 0.108235 0.007504
O O1 0.190291 0.048223 0.227075
O O2 0.072153 0.807387 0.290019
O O3 0.238946 0.939970 0.348315
O O4 0.066257 0.098674 0.362053
O O5 0.055131 0.299924 0.031640
O O6 0.124331 0.035905 0.100578
O O7 0.000000 0.000000 0.000000
O O8 0.427522 0.932420 0.812767
O O9 0.220994 0.774203 0.144331
O O10 0.323250 0.054014 0.092999
O O11 0.327237 0.944537 0.955048
O O12 0.250000 0.250000 0.000000
#
# Coordination Sequence:
#
# PCOD9293288 Si02
#       6
#     8   8   4   8   8   8
#     4  11  21  44  73  99 136 189 221 288 365 399
#     4  11  22  41  68 100 139 185 229 288 352 412
#     4  10  24  48  68 110 142 180 234 300 332 434
#     4  10  22  45  68  97 142 178 236 292 343 423
#     4  11  23  45  76  99 140 184 233 291 358 412
#     4  10  23  42  66 103 139 182 234 290 339 433
#
# _framework density 24.471796000000001
#
# number of rings (size 3 to 8) (size 9 to 14) (size 15 to 20)
#    0.000    1.455    3.636    2.727    0.000    8.727 
#   13.091    1.818    0.000    0.000    0.000    0.000 
#    0.000    0.000    0.000    0.000    0.000    0.000 
#
# Total GULP energy -123090.877039 kJ/mol
# GULP energy per Si atom -5595.039865 kJ/mol
# Density = 2.441610 g / cm^3
# Si number density = 24.471796 Si / 1000 Ang^3
#
#
#
# Elastic Constant Matrix: (Units=GPa)
#
#
# Indices 1 2 3 4 5 6 
#
# 1 83.5832 17.9373 48.9926 0.0000 -12.2754 0.0000
# 2 17.9373 58.3661 54.6238 0.0000 -20.3449 0.0000
# 3 48.9926 54.6238 214.2157 0.0000 -32.6752 0.0000
# 4 0.0000 0.0000 0.0000 33.3769 0.0000 -1.5475
# 5 -12.2754 -20.3449 -32.6752 0.0000 50.2496 0.0000
# 6 0.0000 0.0000 0.0000 -1.5475 0.0000 9.8128
#
#
#
# Elastic Compliance Matrix: (Units=1/GPa)
#
#
# Indices 1 2 3 4 5 6 
#
# 1 0.013996 -0.001415 -0.002671 0.000000 0.001109 0.000000
# 2 -0.001415 0.024386 -0.004930 0.000000 0.006322 0.000000
# 3 -0.002671 -0.004930 0.006807 0.000000 0.001778 0.000000
# 4 0.000000 0.000000 0.000000 0.030182 0.000000 0.004760
# 5 0.001109 0.006322 0.001778 0.000000 0.023887 0.000000
# 6 0.000000 0.000000 0.000000 0.004760 0.000000 0.102658
#
#
# Mechanical properties :
#
#
# Convention : Reuss Voigt Hill
#
# Bulk Modulus (GPa) = 36.82294 66.58581 51.70438
# Shear Modulus (GPa) = 21.83388 34.32861 28.08125
#
# Velocity S-wave (km/s) = 2.99022 3.74944 3.39114
# Velocity P-wave (km/s) = 5.19631 6.78326 6.04212
#
# Compressibility (1/GPa) = 0.02715699
#
# Stress axis : x y z
#
# Youngs Moduli (GPa) = 71.44720 41.00731 146.89684
#
# Poissons Ratio (x) = 0.05802 0.39237
# Poissons Ratio (y) = 0.10109 0.72426
# Poissons Ratio (z) = 0.19084 0.20218
#
# Static dielectric constant tensor:
#      x y z
#    x 1.991270 0.000000 -0.019840 
#    y 0.000000 1.949900 0.000000 
#    z -0.019840 0.000000 1.920810 
# 
# From -- ./inp_files/202568.got.cif
#   From: 2010.05.17/outbox.cif.g08.bks.cpg/sg15_102_cif.got.tgz:202568.got - 2010.06.03 18:47:42.
