data_PCOD9293370
_publ_section_title
;
Structure prediction by ZEFSAII (Michael W. Deem and Ramdas Pophale) SiO2 
 PCOD9293370
Probable space group: C 2/C
;
_chemical_formula_sum "Si O2"
_cell_formula_units_Z 48
_cell_length_a 10.740595
_cell_length_b 10.056847
_cell_length_c 22.346420
_cell_angle_alpha 90.000000
_cell_angle_beta 47.298246
_cell_angle_gamma 90.000000
_cell_volume 1773.873903
_symmetry_space_group_name_H-M "C 2/C"
_symmetry_group_IT_number 15
_symmetry_cell_setting 'monoclinic'
loop_
_space_group_symop_operation_xyz
x,y,z
-x,y,1/2-z
-x,-y,-z
x,-y,1/2+z
1/2+x,1/2+y,z
1/2-x,1/2+y,1/2-z
1/2-x,1/2-y,-z
1/2+x,1/2-y,1/2+z
loop_
_atom_site_type_symbol
_atom_site_label
_atom_site_fract_x
_atom_site_fract_y
_atom_site_fract_z
Si Si1 0.353196 0.584716 0.916523
Si Si2 0.392168 0.911617 0.208968
Si Si3 0.508607 0.861077 0.917133
Si Si4 0.681188 0.726249 0.684025
Si Si5 0.854123 0.022887 0.110242
Si Si6 0.752716 0.786747 0.069471
O O1 0.161200 0.572824 0.000652
O O2 0.347153 0.598341 0.847599
O O3 0.485158 0.479836 0.898622
O O4 0.436794 0.723551 0.912565
O O5 0.425912 0.036636 0.154025
O O6 0.256692 0.815249 0.221843
O O7 0.300075 0.967093 0.297726
O O8 0.562407 0.822736 0.152885
O O9 0.648512 0.820220 0.921178
O O10 0.500000 0.791651 0.750000
O O11 0.805758 0.827135 0.609709
O O12 0.852879 0.923628 0.054485
O O13 0.750000 0.750000 0.000000
#
# Coordination Sequence:
#
# PCOD9293370 Si02
#       6
#     8   8   8   8   8   8
#     4  10  22  45  71 110 142 203 253 308 401 454
#     4  12  26  46  75 112 153 202 262 327 395 461
#     4  10  24  45  75 105 158 192 253 327 380 476
#     4  12  24  44  72 106 149 198 258 323 391 467
#     4  11  25  47  77 108 153 204 263 325 385 473
#     4  11  25  46  73 110 150 201 251 312 394 460
#
# _framework density 27.059422000000001
#
# number of rings (size 3 to 8) (size 9 to 14) (size 15 to 20)
#    0.000    1.000    1.667    4.500    2.333    6.667 
#    0.000    7.500    0.000    0.000    0.000    0.000 
#    0.000    0.000    0.000    0.000    0.000    0.000 
#
# Total GULP energy -134666.909852 kJ/mol
# GULP energy per Si atom -5611.121244 kJ/mol
# Density = 2.699783 g / cm^3
# Si number density = 27.059422 Si / 1000 Ang^3
#
#
#
# Elastic Constant Matrix: (Units=GPa)
#
#
# Indices 1 2 3 4 5 6 
#
# 1 192.8986 52.9200 59.3625 0.0000 -11.0555 0.0000
# 2 52.9200 110.1242 25.5790 0.0000 -3.3856 0.0000
# 3 59.3625 25.5790 125.7307 0.0000 3.2101 0.0000
# 4 0.0000 0.0000 0.0000 44.8863 0.0000 1.6037
# 5 -11.0555 -3.3856 3.2101 0.0000 46.1454 0.0000
# 6 0.0000 0.0000 0.0000 1.6037 0.0000 44.5190
#
#
#
# Elastic Compliance Matrix: (Units=1/GPa)
#
#
# Indices 1 2 3 4 5 6 
#
# 1 0.006834 -0.002597 -0.002740 0.000000 0.001637 0.000000
# 2 -0.002597 0.010550 -0.000926 0.000000 0.000216 0.000000
# 3 -0.002740 -0.000926 0.009471 0.000000 -0.001383 0.000000
# 4 0.000000 0.000000 0.000000 0.022307 0.000000 -0.000804
# 5 0.001637 0.000216 -0.001383 0.000000 0.022175 0.000000
# 6 0.000000 0.000000 0.000000 -0.000804 0.000000 0.022491
#
#
# Mechanical properties :
#
#
# Convention : Reuss Voigt Hill
#
# Bulk Modulus (GPa) = 69.78693 78.27515 74.03104
# Shear Modulus (GPa) = 44.99237 46.50292 45.74765
#
# Velocity S-wave (km/s) = 4.08208 4.15003 4.11620
# Velocity P-wave (km/s) = 6.93282 7.20789 7.07169
#
# Compressibility (1/GPa) = 0.01432933
#
# Stress axis : x y z
#
# Youngs Moduli (GPa) = 146.33662 94.78338 105.58845
#
# Poissons Ratio (x) = 0.24617 0.28929
# Poissons Ratio (y) = 0.38006 0.09774
# Poissons Ratio (z) = 0.40094 0.08774
#
# Static dielectric constant tensor:
#      x y z
#    x 2.104740 0.000000 -0.036160 
#    y 0.000000 2.120280 0.000000 
#    z -0.036160 0.000000 2.131520 
# 
# From -- ./inp_files/268696.got.cif
#   From: 2010.05.17/outbox.cif.g08.bks.cpg/sg15_135_cif.got.tgz:268696.got - 2010.06.03 18:47:42.
