data_PCOD9293895
_publ_section_title
;
Structure prediction by ZEFSAII (Michael W. Deem and Ramdas Pophale) SiO2 
 PCOD9293895
Probable space group: C 2/C
;
_chemical_formula_sum "Si O2"
_cell_formula_units_Z 60
_cell_length_a 17.201912
_cell_length_b 27.986815
_cell_length_c 8.877131
_cell_angle_alpha 90.000000
_cell_angle_beta 122.092288
_cell_angle_gamma 90.000000
_cell_volume 3620.640555
_symmetry_space_group_name_H-M "C 2/C"
_symmetry_group_IT_number 15
_symmetry_cell_setting 'monoclinic'
loop_
_space_group_symop_operation_xyz
x,y,z
-x,y,1/2-z
-x,-y,-z
x,-y,1/2+z
1/2+x,1/2+y,z
1/2-x,1/2+y,1/2-z
1/2-x,1/2-y,-z
1/2+x,1/2-y,1/2+z
loop_
_atom_site_type_symbol
_atom_site_label
_atom_site_fract_x
_atom_site_fract_y
_atom_site_fract_z
Si Si1 0.500000 0.898508 0.250000
Si Si2 0.814733 0.485654 0.822773
Si Si3 0.602746 0.749982 0.404352
Si Si4 0.102396 0.442271 0.887831
Si Si5 0.857438 0.341660 0.520677
Si Si6 0.798017 0.429993 0.097763
Si Si7 0.445309 0.171989 0.419653
Si Si8 0.736355 0.180267 0.858602
O O1 0.410511 0.927216 0.213442
O O2 0.538564 0.866155 0.428298
O O3 0.852009 0.455018 0.723309
O O4 0.765758 0.530473 0.687767
O O5 0.893849 0.512445 0.999818
O O6 0.770265 0.452057 0.905192
O O7 0.500000 0.736928 0.250000
O O8 0.587683 0.779097 0.541703
O O9 0.653633 0.788465 0.347361
O O10 0.670693 0.705828 0.495140
O O11 0.151397 0.398171 0.017111
O O12 0.000000 0.426262 0.750000
O O13 0.870840 0.339175 0.713719
O O14 0.779903 0.317801 0.338720
O O15 0.954600 0.324541 0.552629
O O16 0.768300 0.375031 0.092673
#
# Coordination Sequence:
#
# PCOD9293895 Si02
#       8
#     4   8   8   8   8   8   8   8
#     4  12  18  30  52  68 110 152 176 208 250 302
#     4  10  23  28  43  65 105 137 186 212 249 296
#     4  11  21  38  59  81  99 139 177 221 266 318
#     4  11  19  28  40  67  98 141 181 207 242 303
#     4  11  20  31  50  73 103 144 174 207 261 311
#     4  11  21  33  45  72 102 144 175 217 254 304
#     4  11  18  31  52  73 104 144 173 210 253 305
#     4  11  22  36  57  78 108 136 181 213 265 321
#
# _framework density 16.571653999999999
#
# number of rings (size 3 to 8) (size 9 to 14) (size 15 to 20)
#    0.000    1.067    7.333    1.200    5.600    0.533 
#    0.000    0.000    0.000    0.000    0.000    0.933 
#    0.000    0.000    0.000    0.000    0.000    0.533 
#
# Total GULP energy -167058.740448 kJ/mol
# GULP energy per Si atom -5568.624682 kJ/mol
# Density = 1.653394 g / cm^3
# Si number density = 16.571654 Si / 1000 Ang^3
#
#
#
# Elastic Constant Matrix: (Units=GPa)
#
#
# Indices 1 2 3 4 5 6 
#
# 1 37.8421 29.8594 35.7011 0.0000 2.3247 0.0000
# 2 29.8594 101.7000 52.3830 0.0000 1.2350 0.0000
# 3 35.7011 52.3830 92.5393 0.0000 -11.2826 0.0000
# 4 0.0000 0.0000 0.0000 21.5537 0.0000 18.8587
# 5 2.3247 1.2350 -11.2826 0.0000 22.9792 0.0000
# 6 0.0000 0.0000 0.0000 18.8587 0.0000 -24.5849
#
#
#
# Elastic Compliance Matrix: (Units=1/GPa)
#
#
# Indices 1 2 3 4 5 6 
#
# 1 0.047086 -0.004952 -0.016924 0.000000 -0.012807 0.000000
# 2 -0.004952 0.014939 -0.007002 0.000000 -0.003740 0.000000
# 3 -0.016924 -0.007002 0.022926 0.000000 0.013345 0.000000
# 4 0.000000 0.000000 0.000000 0.027762 0.000000 0.021296
# 5 -0.012807 -0.003740 0.013345 0.000000 0.051566 0.000000
# 6 0.000000 0.000000 0.000000 0.021296 0.000000 -0.024339
#
#
# Mechanical properties :
#
#
# Convention : Reuss Voigt Hill
#
# Bulk Modulus (GPa) = 36.77100 51.99650 44.38375
# Shear Modulus (GPa) = 24.18270 11.59880 17.89075
#
# Velocity S-wave (km/s) = 3.82420 2.64847 3.28929
# Velocity P-wave (km/s) = 6.46039 6.38728 6.42394
#
# Compressibility (1/GPa) = 0.02719534
#
# Stress axis : x y z
#
# Youngs Moduli (GPa) = 21.23774 66.94093 43.61925
#
# Poissons Ratio (x) = 0.33150 0.73820
# Poissons Ratio (y) = 0.10517 0.30540
# Poissons Ratio (z) = 0.35942 0.46869
#
# Static dielectric constant tensor:
#      x y z
#    x 1.543480 0.000000 -0.051110 
#    y 0.000000 1.596940 0.000000 
#    z -0.051110 0.000000 1.609690 
# 
# From -- ./inp_files/52034.got.cif
#   From: 2010.05.17/outbox.cif.g08.bks.cpg/sg15_27_cif.got.tgz:52034.got - 2010.06.03 18:47:42.
