data_PCOD9293133
_publ_section_title
;
Structure prediction by ZEFSAII (Michael W. Deem and Ramdas Pophale) SiO2 
 PCOD9293133
Probable space group: C 2/C
;
_chemical_formula_sum "Si O2"
_cell_formula_units_Z 40
_cell_length_a 7.307874
_cell_length_b 25.214061
_cell_length_c 9.099143
_cell_angle_alpha 90.000000
_cell_angle_beta 79.608362
_cell_angle_gamma 90.000000
_cell_volume 1649.118606
_symmetry_space_group_name_H-M "C 2/C"
_symmetry_group_IT_number 15
_symmetry_cell_setting 'monoclinic'
loop_
_space_group_symop_operation_xyz
x,y,z
-x,y,1/2-z
-x,-y,-z
x,-y,1/2+z
1/2+x,1/2+y,z
1/2-x,1/2+y,1/2-z
1/2-x,1/2-y,-z
1/2+x,1/2-y,1/2+z
loop_
_atom_site_type_symbol
_atom_site_label
_atom_site_fract_x
_atom_site_fract_y
_atom_site_fract_z
Si Si1 0.959214 0.055245 0.929611
Si Si2 0.728650 0.862058 0.060759
Si Si3 0.962501 0.558262 0.431327
Si Si4 0.714243 0.696529 0.667099
Si Si5 0.474279 0.701755 0.096937
O O1 0.000000 0.051930 0.750000
O O2 0.099108 0.097994 0.973416
O O3 0.750460 0.067759 0.001042
O O4 0.000000 0.000000 0.000000
O O5 0.710987 0.849142 0.236489
O O6 0.575325 0.893265 0.991099
O O7 0.814240 0.806160 0.992095
O O8 0.000000 0.555840 0.250000
O O9 0.000000 0.500000 0.500000
O O10 0.500000 0.712562 0.750000
O O11 0.667531 0.681195 0.506881
O O12 0.872150 0.741844 0.642773
O O13 0.500000 0.674247 0.250000
#
# Coordination Sequence:
#
# PCOD9293133 Si02
#       5
#     8   8   8   8   8
#     4  12  26  47  80 114 164 208 265 342 407 489
#     4  11  26  48  75 111 160 213 271 329 420 495
#     4  12  28  51  80 120 165 220 273 338 417 500
#     4   9  21  48  71 105 150 209 269 339 413 485
#     4  10  22  44  74 105 150 202 272 344 406 476
#
# _framework density 24.255379999999999
#
# number of rings (size 3 to 8) (size 9 to 14) (size 15 to 20)
#    0.000    1.200    2.000    3.000    2.800    3.200 
#   18.000    0.000    0.000    0.000    0.000    0.000 
#    0.000    0.000    0.000    0.000    0.000    0.000 
#
# Total GULP energy -111614.419399 kJ/mol
# GULP energy per Si atom -5580.720970 kJ/mol
# Density = 2.420017 g / cm^3
# Si number density = 24.255380 Si / 1000 Ang^3
#
#
#
# Elastic Constant Matrix: (Units=GPa)
#
#
# Indices 1 2 3 4 5 6 
#
# 1 214.9304 92.4836 91.1639 0.0000 7.6491 0.0000
# 2 92.4836 165.8406 60.3700 0.0000 5.3539 0.0000
# 3 91.1639 60.3700 225.4198 0.0000 17.9667 0.0000
# 4 0.0000 0.0000 0.0000 107.1076 0.0000 22.0937
# 5 7.6491 5.3539 17.9667 0.0000 33.1468 0.0000
# 6 0.0000 0.0000 0.0000 22.0937 0.0000 70.8516
#
#
#
# Elastic Compliance Matrix: (Units=1/GPa)
#
#
# Indices 1 2 3 4 5 6 
#
# 1 0.006798 -0.003091 -0.001919 0.000000 -0.000029 0.000000
# 2 -0.003091 0.008088 -0.000908 0.000000 -0.000101 0.000000
# 3 -0.001919 -0.000908 0.005653 0.000000 -0.002474 0.000000
# 4 0.000000 0.000000 0.000000 0.009978 0.000000 -0.003112
# 5 -0.000029 -0.000101 -0.002474 0.000000 0.031533 0.000000
# 6 0.000000 0.000000 0.000000 -0.003112 0.000000 0.015084
#
#
# Mechanical properties :
#
#
# Convention : Reuss Voigt Hill
#
# Bulk Modulus (GPa) = 114.91785 121.58065 118.24925
# Shear Modulus (GPa) = 54.42457 66.36609 60.39533
#
# Velocity S-wave (km/s) = 4.74203 5.23649 4.99538
# Velocity P-wave (km/s) = 8.80134 9.31639 9.06252
#
# Compressibility (1/GPa) = 0.00870187
#
# Stress axis : x y z
#
# Youngs Moduli (GPa) = 147.10479 123.64681 176.91240
#
# Poissons Ratio (x) = 0.38225 0.33948
# Poissons Ratio (y) = 0.45477 0.16057
# Poissons Ratio (z) = 0.28228 0.11223
#
# Static dielectric constant tensor:
#      x y z
#    x 1.895320 0.000000 -0.110030 
#    y 0.000000 1.939000 0.000000 
#    z -0.110030 0.000000 2.055130 
# 
# From -- ./inp_files/23627.got.cif
#   From: 2010.05.17/outbox.cif.g08.bks.cpg/sg15_12_cif.got.tgz:23627.got - 2010.06.03 18:47:42.
