data_PCOD9293847
_publ_section_title
;
Structure prediction by ZEFSAII (Michael W. Deem and Ramdas Pophale) SiO2 
 PCOD9293847
Probable space group: C 2/C
;
_chemical_formula_sum "Si O2"
_cell_formula_units_Z 60
_cell_length_a 17.625671
_cell_length_b 23.403072
_cell_length_c 11.585915
_cell_angle_alpha 90.000000
_cell_angle_beta 149.030980
_cell_angle_gamma 90.000000
_cell_volume 2459.218682
_symmetry_space_group_name_H-M "C 2/C"
_symmetry_group_IT_number 15
_symmetry_cell_setting 'monoclinic'
loop_
_space_group_symop_operation_xyz
x,y,z
-x,y,1/2-z
-x,-y,-z
x,-y,1/2+z
1/2+x,1/2+y,z
1/2-x,1/2+y,1/2-z
1/2-x,1/2-y,-z
1/2+x,1/2-y,1/2+z
loop_
_atom_site_type_symbol
_atom_site_label
_atom_site_fract_x
_atom_site_fract_y
_atom_site_fract_z
Si Si1 0.645670 0.217513 0.100895
Si Si2 0.500000 0.875580 0.250000
Si Si3 0.577460 0.367632 0.236466
Si Si4 0.639697 0.508487 0.766020
Si Si5 0.105006 0.339578 0.792977
Si Si6 0.773724 0.906434 0.477738
Si Si7 0.089491 0.548210 0.538172
Si Si8 0.080616 0.185344 0.179311
O O1 0.638668 0.197723 0.224005
O O2 0.800640 0.222299 0.237779
O O3 0.569154 0.164905 0.935902
O O4 0.550627 0.273530 0.958337
O O5 0.623349 0.911843 0.352757
O O6 0.500000 0.344213 0.250000
O O7 0.609893 0.433808 0.295182
O O8 0.740413 0.343486 0.439316
O O9 0.480049 0.358450 0.996024
O O10 0.500000 0.500000 0.500000
O O11 0.634873 0.457651 0.850878
O O12 0.800005 0.516913 0.910061
O O13 0.000000 0.311260 0.750000
O O14 0.026843 0.401775 0.656757
O O15 0.715218 0.916227 0.273668
O O16 0.846301 0.848083 0.618606
O O17 0.000000 0.500000 0.500000
#
# Coordination Sequence:
#
# PCOD9293847 Si02
#       8
#     8   4   8   8   8   8   8   8
#     4  11  26  48  75 108 141 193 247 310 376 432
#     4  10  22  48  74 102 146 186 242 306 362 436
#     4  12  26  48  73 104 151 193 240 304 371 442
#     4  12  27  44  70 111 150 189 238 295 368 448
#     4  12  26  48  71 107 148 192 251 308 364 447
#     4  11  24  45  74 105 149 189 240 301 370 434
#     4  12  27  45  75 109 148 201 248 293 363 452
#     4  11  27  49  75 108 144 193 248 309 375 442
#
# _framework density 24.397991999999999
#
# number of rings (size 3 to 8) (size 9 to 14) (size 15 to 20)
#    0.000    0.533    5.333    1.600    7.467    3.200 
#    2.400    0.000    0.000    0.000    0.000    0.000 
#    0.000    0.000    0.000    0.000    0.000    0.000 
#
# Total GULP energy -167751.651578 kJ/mol
# GULP energy per Si atom -5591.721719 kJ/mol
# Density = 2.434246 g / cm^3
# Si number density = 24.397992 Si / 1000 Ang^3
#
#
#
# Elastic Constant Matrix: (Units=GPa)
#
#
# Indices 1 2 3 4 5 6 
#
# 1 94.6751 -26.8331 -28.2502 0.0000 18.8967 0.0000
# 2 -26.8331 -174.6120 -169.7161 0.0000 16.8110 0.0000
# 3 -28.2502 -169.7161 -46.2876 0.0000 7.8533 0.0000
# 4 0.0000 0.0000 0.0000 30.5285 0.0000 2.2766
# 5 18.8967 16.8110 7.8533 0.0000 46.2997 0.0000
# 6 0.0000 0.0000 0.0000 2.2766 0.0000 26.5031
#
#
#
# Elastic Compliance Matrix: (Units=1/GPa)
#
#
# Indices 1 2 3 4 5 6 
#
# 1 0.010725 -0.001937 -0.000066 0.000000 -0.003663 0.000000
# 2 -0.001937 0.002599 -0.008138 0.000000 0.001227 0.000000
# 3 -0.000066 -0.008138 0.008535 0.000000 0.001534 0.000000
# 4 0.000000 0.000000 0.000000 0.032967 0.000000 -0.002832
# 5 -0.003663 0.001227 0.001534 0.000000 0.022388 0.000000
# 6 0.000000 0.000000 0.000000 -0.002832 0.000000 0.037975
#
#
# Mechanical properties :
#
#
# Convention : Reuss Voigt Hill
#
# Bulk Modulus (GPa) = 633.93806 -63.98036 284.97885
# Shear Modulus (GPa) = 36.76582 27.23794 32.00188
#
# Velocity S-wave (km/s) = 3.88612 3.34488 3.62561
# Velocity P-wave (km/s) = 16.74909 3.37089 11.60106
#
# Compressibility (1/GPa) = 0.00157744
#
# Stress axis : x y z
#
# Youngs Moduli (GPa) = 93.24055 384.80401 117.16136
#
# Poissons Ratio (x) = 0.74527 0.00772
# Poissons Ratio (y) = 0.18058 0.95347
# Poissons Ratio (z) = 0.00614 3.13158
#
# Static dielectric constant tensor:
#      x y z
#    x 2.065550 0.000000 0.399100 
#    y 0.000000 1.959390 0.000000 
#    z 0.399100 0.000000 3.701230 
# 
# From -- ./inp_files/108461.got.cif
#   From: 2010.05.17/outbox.cif.g08.bks.cpg/sg15_55_cif.got.tgz:108461.got - 2010.06.03 18:47:42.
