data_PCOD9293071
_publ_section_title
;
Structure prediction by ZEFSAII (Michael W. Deem and Ramdas Pophale) SiO2 
 PCOD9293071
Probable space group: C 2/C
;
_chemical_formula_sum "Si O2"
_cell_formula_units_Z 44
_cell_length_a 10.290686
_cell_length_b 27.002710
_cell_length_c 9.558226
_cell_angle_alpha 90.000000
_cell_angle_beta 58.493188
_cell_angle_gamma 90.000000
_cell_volume 2264.451978
_symmetry_space_group_name_H-M "C 2/C"
_symmetry_group_IT_number 15
_symmetry_cell_setting 'monoclinic'
loop_
_space_group_symop_operation_xyz
x,y,z
-x,y,1/2-z
-x,-y,-z
x,-y,1/2+z
1/2+x,1/2+y,z
1/2-x,1/2+y,1/2-z
1/2-x,1/2-y,-z
1/2+x,1/2-y,1/2+z
loop_
_atom_site_type_symbol
_atom_site_label
_atom_site_fract_x
_atom_site_fract_y
_atom_site_fract_z
Si Si1 0.830290 0.980354 0.555985
Si Si2 0.000000 0.249319 0.750000
Si Si3 0.177246 0.893677 0.155226
Si Si4 0.677742 0.914455 0.133091
Si Si5 0.339375 0.396111 0.770247
Si Si6 0.704258 0.313602 0.928059
O O1 0.819554 0.947287 0.421653
O O2 0.787587 0.941978 0.702904
O O3 0.725583 0.027932 0.598620
O O4 0.000000 0.000000 0.500000
O O5 0.150261 0.281623 0.702701
O O6 0.070772 0.218113 0.579264
O O7 0.235785 0.894650 0.279027
O O8 0.000000 0.879938 0.250000
O O9 0.260994 0.852656 0.014660
O O10 0.500000 0.909539 0.250000
O O11 0.728248 0.888522 0.962117
O O12 0.500000 0.409638 0.750000
O O13 0.355558 0.348372 0.662814
#
# Coordination Sequence:
#
# PCOD9293071 Si02
#       6
#     8   4   8   8   8   8
#     4  11  21  38  61  91 125 181 224 250 293 367
#     4  10  22  44  72  92 118 154 214 268 322 402
#     4  11  21  39  67  90 128 174 215 255 312 386
#     4  12  26  38  60  99 138 168 215 272 313 353
#     4  11  23  41  65  92 131 170 214 256 315 386
#     4  10  23  42  69  94 120 160 211 259 327 390
#
# _framework density 19.430751000000001
#
# number of rings (size 3 to 8) (size 9 to 14) (size 15 to 20)
#    0.000    1.091    4.545    2.182    2.545    2.909 
#    3.273    0.909    0.000    0.000    0.000    0.000 
#    0.000    0.000    0.000    0.000    0.000    0.000 
#
# Total GULP energy -122832.620333 kJ/mol
# GULP energy per Si atom -5583.300924 kJ/mol
# Density = 1.938653 g / cm^3
# Si number density = 19.430751 Si / 1000 Ang^3
#
#
#
# Elastic Constant Matrix: (Units=GPa)
#
#
# Indices 1 2 3 4 5 6 
#
# 1 57.3835 14.3290 43.3461 0.0000 1.0310 0.0000
# 2 14.3290 70.2222 34.0963 0.0000 6.9661 0.0000
# 3 43.3461 34.0963 127.8916 0.0000 2.9571 0.0000
# 4 0.0000 0.0000 0.0000 31.6893 0.0000 5.4624
# 5 1.0310 6.9661 2.9571 0.0000 40.1216 0.0000
# 6 0.0000 0.0000 0.0000 5.4624 0.0000 -0.1932
#
#
#
# Elastic Compliance Matrix: (Units=1/GPa)
#
#
# Indices 1 2 3 4 5 6 
#
# 1 0.023494 -0.001081 -0.007678 0.000000 0.000150 0.000000
# 2 -0.001081 0.016667 -0.004018 0.000000 -0.002570 0.000000
# 3 -0.007678 -0.004018 0.011491 0.000000 0.000048 0.000000
# 4 0.000000 0.000000 0.000000 0.005374 0.000000 0.151895
# 5 0.000150 -0.002570 0.000048 0.000000 0.025363 0.000000
# 6 0.000000 0.000000 0.000000 0.151895 0.000000 -0.881193
#
#
# Mechanical properties :
#
#
# Convention : Reuss Voigt Hill
#
# Bulk Modulus (GPa) = 38.31576 48.78224 43.54900
# Shear Modulus (GPa) = -6.53977 25.23857 9.34940
#
# Velocity S-wave (km/s) = -1.83657 3.60793 2.19593
# Velocity P-wave (km/s) = 3.90700 6.52046 5.37499
#
# Compressibility (1/GPa) = 0.02609892
#
# Stress axis : x y z
#
# Youngs Moduli (GPa) = 42.56484 59.99967 87.02136
#
# Poissons Ratio (x) = 0.06484 0.66815
# Poissons Ratio (y) = 0.04600 0.34963
# Poissons Ratio (z) = 0.32681 0.24106
#
# Static dielectric constant tensor:
#      x y z
#    x 1.637530 0.000000 0.007410 
#    y 0.000000 1.715850 0.000000 
#    z 0.007410 0.000000 1.724560 
# 
# From -- ./inp_files/34023.got.cif
#   From: 2010.05.17/outbox.cif.g08.bks.cpg/sg15_18_cif.got.tgz:34023.got - 2010.06.03 18:47:42.
