data_PCOD9293467
_publ_section_title
;
Structure prediction by ZEFSAII (Michael W. Deem and Ramdas Pophale) SiO2 
 PCOD9293467
Probable space group: C 2/C
;
_chemical_formula_sum "Si O2"
_cell_formula_units_Z 36
_cell_length_a 28.519547
_cell_length_b 9.104783
_cell_length_c 9.939356
_cell_angle_alpha 90.000000
_cell_angle_beta 32.348503
_cell_angle_gamma 90.000000
_cell_volume 1380.953981
_symmetry_space_group_name_H-M "C 2/C"
_symmetry_group_IT_number 15
_symmetry_cell_setting 'monoclinic'
loop_
_space_group_symop_operation_xyz
x,y,z
-x,y,1/2-z
-x,-y,-z
x,-y,1/2+z
1/2+x,1/2+y,z
1/2-x,1/2+y,1/2-z
1/2-x,1/2-y,-z
1/2+x,1/2-y,1/2+z
loop_
_atom_site_type_symbol
_atom_site_label
_atom_site_fract_x
_atom_site_fract_y
_atom_site_fract_z
Si Si1 0.161926 0.247204 0.965652
Si Si2 0.401045 0.856840 0.838507
Si Si3 0.169606 0.930703 0.038141
Si Si4 0.500000 0.932776 0.250000
Si Si5 0.189297 0.435702 0.153294
O O1 0.079653 0.324306 0.093420
O O2 0.170837 0.302015 0.098220
O O3 0.249380 0.320929 0.693061
O O4 0.155173 0.072516 0.980551
O O5 0.489565 0.945295 0.656355
O O6 0.354963 0.931551 0.822837
O O7 0.409269 0.685107 0.783587
O O8 0.346000 0.892630 0.111043
O O9 0.210904 0.007696 0.069387
#
# Coordination Sequence:
#
# PCOD9293467 Si02
#       5
#     8   8   8   4   8
#     4  11  23  40  69  92 137 161 224 254 331 370
#     4  11  25  40  73  90 139 162 223 253 338 364
#     4  12  22  43  65 103 121 178 207 278 303 395
#     4  10  22  46  60 100 124 182 198 278 308 398
#     4  11  21  44  65 100 123 174 210 274 307 391
#
# _framework density 26.068933999999999
#
# number of rings (size 3 to 8) (size 9 to 14) (size 15 to 20)
#    0.000    0.889    6.667    1.333    0.000    4.444 
#    0.000    0.000    0.000    8.000    0.000    0.000 
#    0.000    0.000    0.000    0.000    0.000    0.000 
#
# Total GULP energy -100366.769603 kJ/mol
# GULP energy per Si atom -5575.931645 kJ/mol
# Density = 2.600960 g / cm^3
# Si number density = 26.068934 Si / 1000 Ang^3
#
#
#
# Elastic Constant Matrix: (Units=GPa)
#
#
# Indices 1 2 3 4 5 6 
#
# 1 198.6721 84.4157 43.2104 0.0000 0.4249 0.0000
# 2 84.4157 276.9444 19.4605 0.0000 -15.2705 0.0000
# 3 43.2104 19.4605 47.3562 0.0000 15.7052 0.0000
# 4 0.0000 0.0000 0.0000 26.2610 0.0000 -3.2318
# 5 0.4249 -15.2705 15.7052 0.0000 54.2924 0.0000
# 6 0.0000 0.0000 0.0000 -3.2318 0.0000 12.4425
#
#
#
# Elastic Compliance Matrix: (Units=1/GPa)
#
#
# Indices 1 2 3 4 5 6 
#
# 1 0.007083 -0.001652 -0.006206 0.000000 0.001275 0.000000
# 2 -0.001652 0.004242 -0.000703 0.000000 0.001409 0.000000
# 3 -0.006206 -0.000703 0.029995 0.000000 -0.008826 0.000000
# 4 0.000000 0.000000 0.000000 0.039337 0.000000 0.010217
# 5 0.001275 0.001409 -0.008826 0.000000 0.021358 0.000000
# 6 0.000000 0.000000 0.000000 0.010217 0.000000 0.083023
#
#
# Mechanical properties :
#
#
# Convention : Reuss Voigt Hill
#
# Bulk Modulus (GPa) = 41.32802 90.79397 66.06100
# Shear Modulus (GPa) = 23.78387 43.65825 33.72106
#
# Velocity S-wave (km/s) = 3.02378 4.09678 3.60048
# Velocity P-wave (km/s) = 5.29894 7.56850 6.53303
#
# Compressibility (1/GPa) = 0.02419666
#
# Stress axis : x y z
#
# Youngs Moduli (GPa) = 141.18896 235.76071 33.33845
#
# Poissons Ratio (x) = 0.38958 0.20691
# Poissons Ratio (y) = 0.23331 0.02342
# Poissons Ratio (z) = 0.87629 0.16564
#
# Static dielectric constant tensor:
#      x y z
#    x 2.055200 0.000000 -0.019670 
#    y 0.000000 2.150920 0.000000 
#    z -0.019670 0.000000 2.303820 
# 
# From -- ./inp_files/125218.got.cif
#   From: 2010.05.17/outbox.cif.g08.bks.cpg/sg15_63_cif.got.tgz:125218.got - 2010.06.03 18:47:42.
