data_PCOD9293519
_publ_section_title
;
Structure prediction by ZEFSAII (Michael W. Deem and Ramdas Pophale) SiO2 
 PCOD9293519
Probable space group: C 2/C
;
_chemical_formula_sum "Si O2"
_cell_formula_units_Z 40
_cell_length_a 18.934370
_cell_length_b 8.951998
_cell_length_c 25.952132
_cell_angle_alpha 90.000000
_cell_angle_beta 158.079837
_cell_angle_gamma 90.000000
_cell_volume 1642.171363
_symmetry_space_group_name_H-M "C 2/C"
_symmetry_group_IT_number 15
_symmetry_cell_setting 'monoclinic'
loop_
_space_group_symop_operation_xyz
x,y,z
-x,y,1/2-z
-x,-y,-z
x,-y,1/2+z
1/2+x,1/2+y,z
1/2-x,1/2+y,1/2-z
1/2-x,1/2-y,-z
1/2+x,1/2-y,1/2+z
loop_
_atom_site_type_symbol
_atom_site_label
_atom_site_fract_x
_atom_site_fract_y
_atom_site_fract_z
Si Si1 0.000000 0.038594 0.750000
Si Si2 0.500000 0.958390 0.250000
Si Si3 0.305074 0.330503 0.778730
Si Si4 0.788664 0.717061 0.465994
Si Si5 0.874990 0.701212 0.231196
Si Si6 0.976458 0.887367 0.436143
O O1 0.971432 0.146758 0.779238
O O2 0.817546 0.933822 0.620837
O O3 0.509602 0.064763 0.306135
O O4 0.677927 0.851545 0.363196
O O5 0.195060 0.308857 0.758236
O O6 0.154589 0.254656 0.638611
O O7 0.375946 0.502139 0.826537
O O8 0.492843 0.231247 0.899726
O O9 0.750000 0.750000 0.500000
O O10 0.685940 0.675298 0.068105
O O11 0.000000 0.000000 0.500000
#
# Coordination Sequence:
#
# PCOD9293519 Si02
#       6
#     4   4   8   8   8   8
#     4  10  26  44  66 102 134 180 222 290 336 400
#     4  10  22  46  66  96 144 178 218 296 338 400
#     4  11  25  43  72  98 133 186 231 275 345 410
#     4  11  26  41  66 100 138 179 228 277 347 406
#     4  10  23  45  71  96 135 178 233 279 341 402
#     4  10  24  44  68 103 135 176 227 285 332 405
#
# _framework density 24.357994999999999
#
# number of rings (size 3 to 8) (size 9 to 14) (size 15 to 20)
#    0.000    1.600    2.000    0.000   11.200    2.400 
#    0.000    4.000    0.000    0.000    0.000    0.000 
#    0.000    0.000    0.000    0.000    0.000    0.000 
#
# Total GULP energy -111844.124530 kJ/mol
# GULP energy per Si atom -5592.206227 kJ/mol
# Density = 2.430256 g / cm^3
# Si number density = 24.357995 Si / 1000 Ang^3
#
#
#
# Elastic Constant Matrix: (Units=GPa)
#
#
# Indices 1 2 3 4 5 6 
#
# 1 117.2363 13.6697 -12.3155 0.0001 22.3482 -0.0002
# 2 13.6697 120.0397 11.4143 0.0003 1.6429 -0.0015
# 3 -12.3155 11.4143 59.2986 0.0058 22.7947 -0.0040
# 4 0.0001 0.0003 0.0058 34.4318 0.0000 -0.7001
# 5 22.3482 1.6429 22.7947 0.0000 37.0278 -0.0005
# 6 -0.0002 -0.0015 -0.0040 -0.7001 -0.0005 28.2270
#
#
#
# Elastic Compliance Matrix: (Units=1/GPa)
#
#
# Indices 1 2 3 4 5 6 
#
# 1 0.011660 -0.001851 0.007142 -0.000001 -0.011352 0.000001
# 2 -0.001851 0.008799 -0.003089 0.000000 0.002628 0.000000
# 3 0.007142 -0.003089 0.026915 -0.000004 -0.020743 0.000003
# 4 -0.000001 0.000000 -0.000004 0.029058 0.000003 0.000721
# 5 -0.011352 0.002628 -0.020743 0.000003 0.046511 -0.000002
# 6 0.000001 0.000000 0.000003 0.000721 -0.000002 0.035445
#
#
# Mechanical properties :
#
#
# Convention : Reuss Voigt Hill
#
# Bulk Modulus (GPa) = 19.31366 35.79019 27.55193
# Shear Modulus (GPa) = 29.19821 38.85772 34.02796
#
# Velocity S-wave (km/s) = 3.46600 3.99842 3.74169
# Velocity P-wave (km/s) = 4.89528 6.00348 5.47748
#
# Compressibility (1/GPa) = 0.05177682
#
# Stress axis : x y z
#
# Youngs Moduli (GPa) = 85.76498 113.64745 37.15389
#
# Poissons Ratio (x) = 0.21042 -0.26534
# Poissons Ratio (y) = 0.15879 0.11476
# Poissons Ratio (z) = -0.61250 0.35102
#
# Static dielectric constant tensor:
#      x y z
#    x 1.978870 0.000000 -0.096550 
#    y 0.000000 1.943930 0.000000 
#    z -0.096550 0.000000 2.015070 
# 
# From -- ./inp_files/109600.got.cif
#   From: 2010.05.17/outbox.cif.g08.bks.cpg/sg15_55_cif.got.tgz:109600.got - 2010.06.03 18:47:42.
