data_PCOD9293743
_publ_section_title
;
Structure prediction by ZEFSAII (Michael W. Deem and Ramdas Pophale) SiO2 
 PCOD9293743
Probable space group: C 2/C
;
_chemical_formula_sum "Si O2"
_cell_formula_units_Z 48
_cell_length_a 32.461269
_cell_length_b 6.238911
_cell_length_c 14.941094
_cell_angle_alpha 90.000000
_cell_angle_beta 44.611316
_cell_angle_gamma 90.000000
_cell_volume 2125.080730
_symmetry_space_group_name_H-M "C 2/C"
_symmetry_group_IT_number 15
_symmetry_cell_setting 'monoclinic'
loop_
_space_group_symop_operation_xyz
x,y,z
-x,y,1/2-z
-x,-y,-z
x,-y,1/2+z
1/2+x,1/2+y,z
1/2-x,1/2+y,1/2-z
1/2-x,1/2-y,-z
1/2+x,1/2-y,1/2+z
loop_
_atom_site_type_symbol
_atom_site_label
_atom_site_fract_x
_atom_site_fract_y
_atom_site_fract_z
Si Si1 0.354934 0.755510 0.135824
Si Si2 0.834492 0.977923 0.495648
Si Si3 0.942020 0.886079 0.055689
Si Si4 0.718713 0.949724 0.094030
Si Si5 0.400914 0.857512 0.790022
Si Si6 0.910818 0.634221 0.933211
O O1 0.322296 0.625870 0.109780
O O2 0.393551 0.576345 0.127136
O O3 0.310470 0.870046 0.269520
O O4 0.391697 0.935627 0.025785
O O5 0.776898 0.921475 0.528251
O O6 0.856041 0.218508 0.484068
O O7 0.889264 0.862109 0.362322
O O8 0.926915 0.704816 0.153377
O O9 0.945081 0.787795 0.950377
O O10 0.000000 0.000000 0.000000
O O11 0.663682 0.045171 0.127200
O O12 0.750000 0.750000 0.000000
O O13 0.434054 0.022616 0.805466
#
# Coordination Sequence:
#
# PCOD9293743 Si02
#       6
#     8   8   8   8   8   8
#     4  10  24  41  64 100 136 176 235 288 338 428
#     4  10  23  38  65 101 143 179 225 276 350 423
#     4  11  25  47  73  97 133 183 237 298 362 414
#     4  12  22  37  67  98 139 190 223 272 357 424
#     4  11  23  43  69 100 144 179 235 294 344 434
#     4  10  22  47  66 101 141 178 233 296 348 419
#
# _framework density 22.587375999999999
#
# number of rings (size 3 to 8) (size 9 to 14) (size 15 to 20)
#    0.000    1.333    3.333    1.500    2.333    0.667 
#    0.000    9.167    0.000    0.000    0.000    0.000 
#    0.000    0.000    0.000    0.000    0.000    0.000 
#
# Total GULP energy -133837.431532 kJ/mol
# GULP energy per Si atom -5576.559647 kJ/mol
# Density = 2.253597 g / cm^3
# Si number density = 22.587376 Si / 1000 Ang^3
#
#
#
# Elastic Constant Matrix: (Units=GPa)
#
#
# Indices 1 2 3 4 5 6 
#
# 1 125.7466 36.1444 25.0354 0.0000 13.1940 0.0024
# 2 36.1444 76.2425 18.6730 -0.0040 12.2178 0.0075
# 3 25.0354 18.6730 37.8358 0.0004 19.1028 0.0001
# 4 0.0000 -0.0040 0.0004 36.3290 -0.0001 5.5081
# 5 13.1940 12.2178 19.1028 -0.0001 27.4202 0.0005
# 6 0.0024 0.0075 0.0001 5.5081 0.0005 34.6399
#
#
#
# Elastic Compliance Matrix: (Units=1/GPa)
#
#
# Indices 1 2 3 4 5 6 
#
# 1 0.009928 -0.003534 -0.004949 0.000000 0.000245 0.000000
# 2 -0.003534 0.016275 -0.004460 0.000002 -0.002444 -0.000004
# 3 -0.004949 -0.004460 0.045815 -0.000001 -0.027549 0.000002
# 4 0.000000 0.000002 -0.000001 0.028206 0.000000 -0.004485
# 5 0.000245 -0.002444 -0.027549 0.000000 0.056633 0.000000
# 6 0.000000 -0.000004 0.000002 -0.004485 0.000000 0.029582
#
#
# Mechanical properties :
#
#
# Convention : Reuss Voigt Hill
#
# Bulk Modulus (GPa) = 21.67649 44.39227 33.03438
# Shear Modulus (GPa) = 21.95853 30.34264 26.15059
#
# Velocity S-wave (km/s) = 3.12133 3.66914 3.40627
# Velocity P-wave (km/s) = 4.75477 6.13567 5.48882
#
# Compressibility (1/GPa) = 0.04613294
#
# Stress axis : x y z
#
# Youngs Moduli (GPa) = 100.72738 61.44278 21.82694
#
# Poissons Ratio (x) = 0.21712 0.10802
# Poissons Ratio (y) = 0.35594 0.09735
# Poissons Ratio (z) = 0.49849 0.27403
#
# Static dielectric constant tensor:
#      x y z
#    x 1.958350 0.000000 0.004390 
#    y 0.000000 1.922430 0.000000 
#    z 0.004390 0.000000 1.804590 
# 
# From -- ./inp_files/180003.got.cif
#   From: 2010.05.17/outbox.cif.g08.bks.cpg/sg15_91_cif.got.tgz:180003.got - 2010.06.03 18:47:42.
