data_PCOD9293292
_publ_section_title
;
Structure prediction by ZEFSAII (Michael W. Deem and Ramdas Pophale) SiO2 
 PCOD9293292
Probable space group: C 2/C
;
_chemical_formula_sum "Si O2"
_cell_formula_units_Z 36
_cell_length_a 11.912424
_cell_length_b 14.530345
_cell_length_c 12.711929
_cell_angle_alpha 90.000000
_cell_angle_beta 131.847110
_cell_angle_gamma 90.000000
_cell_volume 1639.085680
_symmetry_space_group_name_H-M "C 2/C"
_symmetry_group_IT_number 15
_symmetry_cell_setting 'monoclinic'
loop_
_space_group_symop_operation_xyz
x,y,z
-x,y,1/2-z
-x,-y,-z
x,-y,1/2+z
1/2+x,1/2+y,z
1/2-x,1/2+y,1/2-z
1/2-x,1/2-y,-z
1/2+x,1/2-y,1/2+z
loop_
_atom_site_type_symbol
_atom_site_label
_atom_site_fract_x
_atom_site_fract_y
_atom_site_fract_z
Si Si1 0.751025 0.528202 0.632143
Si Si2 0.974448 0.737127 0.445741
Si Si3 0.135563 0.727348 0.766023
Si Si4 0.522552 0.440207 0.143275
Si Si5 0.000000 0.377230 0.750000
O O1 0.828197 0.626359 0.663954
O O2 0.601707 0.513633 0.469635
O O3 0.687332 0.525371 0.711686
O O4 0.858487 0.444215 0.674737
O O5 0.797493 0.722925 0.363426
O O6 0.076240 0.715099 0.609963
O O7 0.996072 0.844740 0.431484
O O8 0.014170 0.682310 0.364751
O O9 0.000000 0.769983 0.750000
O O10 0.500000 0.420363 0.250000
#
# Coordination Sequence:
#
# PCOD9293292 Si02
#       5
#     8   8   8   8   4
#     4  10  24  40  65 102 141 174 228 278 357 398
#     4  11  25  41  75 101 140 183 235 285 348 404
#     4  11  24  47  66 103 139 186 231 286 342 420
#     4  10  22  45  68  99 138 185 226 286 344 421
#     4  12  24  42  68 110 134 180 234 290 334 420
#
# _framework density 21.963463999999998
#
# number of rings (size 3 to 8) (size 9 to 14) (size 15 to 20)
#    0.000    1.333    2.222    2.000    6.222    4.444 
#    0.000   13.333    0.000    0.000    0.000    0.000 
#    0.000    0.000    0.000    0.000    0.000    0.000 
#
# Total GULP energy -100658.148064 kJ/mol
# GULP energy per Si atom -5592.119337 kJ/mol
# Density = 2.191347 g / cm^3
# Si number density = 21.963464 Si / 1000 Ang^3
#
#
#
# Elastic Constant Matrix: (Units=GPa)
#
#
# Indices 1 2 3 4 5 6 
#
# 1 94.2822 31.7408 5.4625 0.0000 12.8797 0.0000
# 2 31.7408 78.7105 11.6493 0.0000 -2.6408 0.0000
# 3 5.4625 11.6493 48.5188 0.0000 6.9786 0.0000
# 4 0.0000 0.0000 0.0000 28.5992 0.0000 -5.1876
# 5 12.8797 -2.6408 6.9786 0.0000 34.4732 0.0000
# 6 0.0000 0.0000 0.0000 -5.1876 0.0000 -11.8871
#
#
#
# Elastic Compliance Matrix: (Units=1/GPa)
#
#
# Indices 1 2 3 4 5 6 
#
# 1 0.013207 -0.005606 0.000650 0.000000 -0.005495 0.000000
# 2 -0.005606 0.015650 -0.003708 0.000000 0.004044 0.000000
# 3 0.000650 -0.003708 0.022148 0.000000 -0.005010 0.000000
# 4 0.000000 0.000000 0.000000 0.032401 0.000000 -0.014140
# 5 -0.005495 0.004044 -0.005010 0.000000 0.032385 0.000000
# 6 0.000000 0.000000 0.000000 -0.014140 0.000000 -0.077954
#
#
# Mechanical properties :
#
#
# Convention : Reuss Voigt Hill
#
# Bulk Modulus (GPa) = 29.69493 35.46853 32.58173
# Shear Modulus (GPa) = 75.30923 21.74764 48.52844
#
# Velocity S-wave (km/s) = 5.86198 3.15012 4.70564
# Velocity P-wave (km/s) = 7.70497 5.42355 6.66264
#
# Compressibility (1/GPa) = 0.03367579
#
# Stress axis : x y z
#
# Youngs Moduli (GPa) = 75.71782 63.89743 45.14996
#
# Poissons Ratio (x) = 0.35823 -0.02933
# Poissons Ratio (y) = 0.42450 0.16742
# Poissons Ratio (z) = -0.04918 0.23693
#
# Static dielectric constant tensor:
#      x y z
#    x 1.888780 0.000000 0.014350 
#    y 0.000000 1.779430 0.000000 
#    z 0.014350 0.000000 1.764890 
# 
# From -- ./inp_files/48843.got.cif
#   From: 2010.05.17/outbox.cif.g08.bks.cpg/sg15_25_cif.got.tgz:48843.got - 2010.06.03 18:47:42.
