data_PCOD9293019
_publ_section_title
;
Structure prediction by ZEFSAII (Michael W. Deem and Ramdas Pophale) SiO2 
 PCOD9293019
Probable space group: C 2/C
;
_chemical_formula_sum "Si O2"
_cell_formula_units_Z 48
_cell_length_a 13.008910
_cell_length_b 12.763618
_cell_length_c 22.778059
_cell_angle_alpha 90.000000
_cell_angle_beta 34.861496
_cell_angle_gamma 90.000000
_cell_volume 2161.819978
_symmetry_space_group_name_H-M "C 2/C"
_symmetry_group_IT_number 15
_symmetry_cell_setting 'monoclinic'
loop_
_space_group_symop_operation_xyz
x,y,z
-x,y,1/2-z
-x,-y,-z
x,-y,1/2+z
1/2+x,1/2+y,z
1/2-x,1/2+y,1/2-z
1/2-x,1/2-y,-z
1/2+x,1/2-y,1/2+z
loop_
_atom_site_type_symbol
_atom_site_label
_atom_site_fract_x
_atom_site_fract_y
_atom_site_fract_z
Si Si1 0.334519 0.714632 0.282361
Si Si2 0.307264 0.070977 0.989993
Si Si3 0.620351 0.051189 0.747159
Si Si4 0.955478 0.927546 0.575180
Si Si5 0.783574 0.013233 0.845925
Si Si6 0.921245 0.713838 0.609047
O O1 0.500000 0.701416 0.250000
O O2 0.289379 0.837843 0.315701
O O3 0.240147 0.601247 0.336546
O O4 0.377117 0.733886 0.193223
O O5 0.474366 0.058109 0.867411
O O6 0.369219 0.180325 0.990142
O O7 0.125473 0.074044 0.038857
O O8 0.291412 0.993223 0.052245
O O9 0.500000 0.010704 0.750000
O O10 0.783441 0.977660 0.686905
O O11 0.903042 0.813142 0.575986
O O12 0.000000 0.000000 0.500000
O O13 0.698808 0.114630 0.853637
O O14 0.000000 0.024382 0.750000
#
# Coordination Sequence:
#
# PCOD9293019 Si02
#       6
#     8   8   8   8   8   8
#     4   9  21  41  72  97 135 185 236 291 343 426
#     4  11  25  46  74 101 144 193 244 288 354 432
#     4  10  22  44  71 109 140 184 242 302 356 424
#     4  12  25  43  75 106 144 186 242 298 358 425
#     4  11  25  47  71 105 144 193 241 292 363 430
#     4  11  26  45  70 104 146 181 242 299 354 429
#
# _framework density 22.203514999999999
#
# number of rings (size 3 to 8) (size 9 to 14) (size 15 to 20)
#    0.000    1.333    1.667    3.000   11.667    2.000 
#    0.000    0.833    0.000    0.000    0.000    0.000 
#    0.000    0.000    0.000    0.000    0.000    0.000 
#
# Total GULP energy -133736.714075 kJ/mol
# GULP energy per Si atom -5572.363086 kJ/mol
# Density = 2.215298 g / cm^3
# Si number density = 22.203515 Si / 1000 Ang^3
#
#
#
# Elastic Constant Matrix: (Units=GPa)
#
#
# Indices 1 2 3 4 5 6 
#
# 1 102.7062 80.7799 46.0175 0.0000 -3.1248 0.0000
# 2 80.7799 181.5752 63.9613 -0.0001 -19.7176 0.0000
# 3 46.0175 63.9613 116.2505 -0.0007 -6.1502 0.0001
# 4 0.0000 -0.0001 -0.0007 31.6535 0.0000 1.3798
# 5 -3.1248 -19.7176 -6.1502 0.0000 42.5773 0.0000
# 6 0.0000 0.0000 0.0001 1.3798 0.0000 22.6418
#
#
#
# Elastic Compliance Matrix: (Units=1/GPa)
#
#
# Indices 1 2 3 4 5 6 
#
# 1 0.015941 -0.006282 -0.002969 0.000000 -0.002168 0.000000
# 2 -0.006282 0.009615 -0.002612 0.000000 0.003614 0.000000
# 3 -0.002969 -0.002612 0.011225 0.000000 0.000194 0.000000
# 4 0.000000 0.000000 0.000000 0.031676 0.000000 -0.001930
# 5 -0.002168 0.003614 0.000194 0.000000 0.025029 0.000000
# 6 0.000000 0.000000 0.000000 -0.001930 0.000000 0.044284
#
#
# Mechanical properties :
#
#
# Convention : Reuss Voigt Hill
#
# Bulk Modulus (GPa) = 76.59692 86.89436 81.74564
# Shear Modulus (GPa) = 30.14823 33.35941 31.75382
#
# Velocity S-wave (km/s) = 3.68885 3.88034 3.78580
# Velocity P-wave (km/s) = 7.26058 7.70041 7.48373
#
# Compressibility (1/GPa) = 0.01305535
#
# Stress axis : x y z
#
# Youngs Moduli (GPa) = 62.72990 104.00836 89.08838
#
# Poissons Ratio (x) = 0.65335 0.26449
# Poissons Ratio (y) = 0.39405 0.23272
# Poissons Ratio (z) = 0.18624 0.27169
#
# Static dielectric constant tensor:
#      x y z
#    x 1.875400 0.000000 0.070890 
#    y 0.000000 1.947060 0.000000 
#    z 0.070890 0.000000 1.894300 
# 
# From -- ./inp_files/296049.got.cif
#   From: 2010.05.17/outbox.cif.g08.bks.cpg/sg15_149_cif.got.tgz:296049.got - 2010.06.03 18:47:42.
