data_PCOD9293722
_publ_section_title
;
Structure prediction by ZEFSAII (Michael W. Deem and Ramdas Pophale) SiO2 
 PCOD9293722
Probable space group: C 2/C
;
_chemical_formula_sum "Si O2"
_cell_formula_units_Z 36
_cell_length_a 21.101019
_cell_length_b 12.905656
_cell_length_c 15.160115
_cell_angle_alpha 90.000000
_cell_angle_beta 162.154529
_cell_angle_gamma 90.000000
_cell_volume 1265.163983
_symmetry_space_group_name_H-M "C 2/C"
_symmetry_group_IT_number 15
_symmetry_cell_setting 'monoclinic'
loop_
_space_group_symop_operation_xyz
x,y,z
-x,y,1/2-z
-x,-y,-z
x,-y,1/2+z
1/2+x,1/2+y,z
1/2-x,1/2+y,1/2-z
1/2-x,1/2-y,-z
1/2+x,1/2-y,1/2+z
loop_
_atom_site_type_symbol
_atom_site_label
_atom_site_fract_x
_atom_site_fract_y
_atom_site_fract_z
Si Si1 0.237973 0.726915 0.174353
Si Si2 0.447676 0.644617 0.784535
Si Si3 0.000000 0.397105 0.750000
Si Si4 0.458398 0.044800 0.849304
Si Si5 0.056855 0.086233 0.205421
O O1 0.419105 0.728674 0.486154
O O2 0.131331 0.837471 0.019087
O O3 0.316313 0.657953 0.195816
O O4 0.057087 0.657280 0.976456
O O5 0.500000 0.644066 0.750000
O O6 0.207912 0.657477 0.492617
O O7 0.514720 0.530747 0.913159
O O8 0.937068 0.470214 0.584911
O O9 0.226697 0.053930 0.503822
O O10 0.500000 0.000000 0.000000
#
# Coordination Sequence:
#
# PCOD9293722 Si02
#       5
#     8   8   4   8   8
#     4  12  24  47  77 118 170 215 275 360 428 494
#     4  11  25  51  84 117 161 227 283 344 433 512
#     4  10  22  46  76 114 158 210 288 336 406 520
#     4  11  22  43  79 116 163 220 272 341 430 505
#     4  11  26  47  73 122 169 213 285 350 421 507
#
# _framework density 28.454810999999999
#
# number of rings (size 3 to 8) (size 9 to 14) (size 15 to 20)
#    0.000    0.889    4.444    4.000    0.000    7.111 
#    4.000    1.111    0.000    2.667    0.000    0.000 
#    0.000    0.000    0.000    0.000    0.000    0.000 
#
# Total GULP energy -101066.629301 kJ/mol
# GULP energy per Si atom -5614.812739 kJ/mol
# Density = 2.839005 g / cm^3
# Si number density = 28.454811 Si / 1000 Ang^3
#
#
#
# Elastic Constant Matrix: (Units=GPa)
#
#
# Indices 1 2 3 4 5 6 
#
# 1 214.1125 66.6402 68.8814 0.0002 -1.6460 0.0000
# 2 66.6402 177.1826 58.9022 -0.0002 17.7361 -0.0002
# 3 68.8814 58.9022 191.3635 -0.0003 -4.5294 -0.0001
# 4 0.0002 -0.0002 -0.0003 60.9382 0.0001 5.4833
# 5 -1.6460 17.7361 -4.5294 0.0001 51.6653 0.0000
# 6 0.0000 -0.0002 -0.0001 5.4833 0.0000 48.9755
#
#
#
# Elastic Compliance Matrix: (Units=1/GPa)
#
#
# Indices 1 2 3 4 5 6 
#
# 1 0.005691 -0.001702 -0.001510 0.000000 0.000633 0.000000
# 2 -0.001702 0.007090 -0.001632 0.000000 -0.002631 0.000000
# 3 -0.001510 -0.001632 0.006297 0.000000 0.001064 0.000000
# 4 0.000000 0.000000 0.000000 0.016577 0.000000 -0.001856
# 5 0.000633 -0.002631 0.001064 0.000000 0.020372 0.000000
# 6 0.000000 0.000000 0.000000 -0.001856 0.000000 0.020626
#
#
# Mechanical properties :
#
#
# Convention : Reuss Voigt Hill
#
# Bulk Modulus (GPa) = 106.49264 107.94513 107.21889
# Shear Modulus (GPa) = 55.88519 58.19812 57.04166
#
# Velocity S-wave (km/s) = 4.43651 4.52739 4.48218
# Velocity P-wave (km/s) = 7.98435 8.08379 8.03422
#
# Compressibility (1/GPa) = 0.00939032
#
# Stress axis : x y z
#
# Youngs Moduli (GPa) = 175.72780 141.04580 158.81782
#
# Poissons Ratio (x) = 0.24004 0.23974
# Poissons Ratio (y) = 0.29906 0.25919
# Poissons Ratio (z) = 0.26526 0.23018
#
# Static dielectric constant tensor:
#      x y z
#    x 2.223890 0.000000 0.063670 
#    y 0.000000 2.212330 0.000000 
#    z 0.063670 0.000000 2.211060 
# 
# From -- ./inp_files/215640.got.cif
#   From: 2010.05.17/outbox.cif.g08.bks.cpg/sg15_108_cif.got.tgz:215640.got - 2010.06.03 18:47:42.
