data_PCOD9293165
_publ_section_title
;
Structure prediction by ZEFSAII (Michael W. Deem and Ramdas Pophale) SiO2 
 PCOD9293165
Probable space group: C 2/C
;
_chemical_formula_sum "Si O2"
_cell_formula_units_Z 44
_cell_length_a 24.206956
_cell_length_b 8.995820
_cell_length_c 13.136732
_cell_angle_alpha 90.000000
_cell_angle_beta 35.366074
_cell_angle_gamma 90.000000
_cell_volume 1655.753236
_symmetry_space_group_name_H-M "C 2/C"
_symmetry_group_IT_number 15
_symmetry_cell_setting 'monoclinic'
loop_
_space_group_symop_operation_xyz
x,y,z
-x,y,1/2-z
-x,-y,-z
x,-y,1/2+z
1/2+x,1/2+y,z
1/2-x,1/2+y,1/2-z
1/2-x,1/2-y,-z
1/2+x,1/2-y,1/2+z
loop_
_atom_site_type_symbol
_atom_site_label
_atom_site_fract_x
_atom_site_fract_y
_atom_site_fract_z
Si Si1 0.235830 0.888557 0.762680
Si Si2 0.365549 0.887312 0.159546
Si Si3 0.958360 0.450027 0.212939
Si Si4 0.118477 0.847810 0.405560
Si Si5 0.500000 0.520181 0.750000
Si Si6 0.135395 0.752897 0.160248
O O1 0.325362 0.777927 0.614556
O O2 0.276892 0.995621 0.791070
O O3 0.192454 0.020934 0.760473
O O4 0.042206 0.073318 0.091992
O O5 0.343626 0.740202 0.128290
O O6 0.396679 0.853471 0.227845
O O7 0.451834 0.976161 0.978944
O O8 0.894834 0.592592 0.337100
O O9 0.000000 0.375850 0.250000
O O10 0.090186 0.774553 0.341270
O O11 0.414082 0.621335 0.834118
O O12 0.250000 0.750000 0.000000
#
# Coordination Sequence:
#
# PCOD9293165 Si02
#       6
#     8   8   8   8   4   8
#     4  10  22  44  76 101 150 195 250 315 381 451
#     4  10  23  45  70 108 143 196 246 320 380 448
#     4  11  24  43  73 102 146 197 253 301 375 470
#     4  11  24  47  73 112 152 197 251 320 378 465
#     4  12  26  44  72 112 154 196 252 324 390 436
#     4  12  26  46  78 111 144 207 257 306 382 477
#
# _framework density 26.574010000000001
#
# number of rings (size 3 to 8) (size 9 to 14) (size 15 to 20)
#    0.000    1.091    2.727    2.727    7.636    0.000 
#    1.636    1.818    0.000    0.000    0.000    0.000 
#    0.000    0.000    0.000    0.000    0.000    0.000 
#
# Total GULP energy -122899.107544 kJ/mol
# GULP energy per Si atom -5586.323070 kJ/mol
# Density = 2.651353 g / cm^3
# Si number density = 26.574010 Si / 1000 Ang^3
#
#
#
# Elastic Constant Matrix: (Units=GPa)
#
#
# Indices 1 2 3 4 5 6 
#
# 1 171.7164 52.2307 65.7376 0.0000 -7.4313 0.0000
# 2 52.2307 157.0615 57.6058 0.0001 -18.0652 0.0000
# 3 65.7376 57.6058 99.2333 0.0000 0.0810 0.0000
# 4 0.0000 0.0001 0.0000 44.4479 0.0000 -11.1110
# 5 -7.4313 -18.0652 0.0810 0.0000 37.4158 0.0000
# 6 0.0000 0.0000 0.0000 -11.1110 0.0000 32.8951
#
#
#
# Elastic Compliance Matrix: (Units=1/GPa)
#
#
# Indices 1 2 3 4 5 6 
#
# 1 0.007954 -0.000723 -0.004850 0.000000 0.001241 0.000000
# 2 -0.000723 0.008773 -0.004617 0.000000 0.004102 0.000000
# 3 -0.004850 -0.004617 0.015973 0.000000 -0.003227 0.000000
# 4 0.000000 0.000000 0.000000 0.024573 0.000000 0.008300
# 5 0.001241 0.004102 -0.003227 0.000000 0.028961 0.000000
# 6 0.000000 0.000000 0.000000 0.008300 0.000000 0.033203
#
#
# Mechanical properties :
#
#
# Convention : Reuss Voigt Hill
#
# Bulk Modulus (GPa) = 81.17597 86.57327 83.87462
# Shear Modulus (GPa) = 34.74062 39.78090 37.26076
#
# Velocity S-wave (km/s) = 3.61960 3.87329 3.74859
# Velocity P-wave (km/s) = 6.93413 7.25617 7.09698
#
# Compressibility (1/GPa) = 0.01231892
#
# Stress axis : x y z
#
# Youngs Moduli (GPa) = 125.72070 113.99169 62.60560
#
# Poissons Ratio (x) = 0.08247 0.30366
# Poissons Ratio (y) = 0.09095 0.28903
# Poissons Ratio (z) = 0.60978 0.52626
#
# Static dielectric constant tensor:
#      x y z
#    x 2.090370 0.000000 0.000100 
#    y 0.000000 2.032090 0.000000 
#    z 0.000100 0.000000 2.210720 
# 
# From -- ./inp_files/177509.got.cif
#   From: 2010.05.17/outbox.cif.g08.bks.cpg/sg15_89_cif.got.tgz:177509.got - 2010.06.03 18:47:42.
