data_PCOD9293488
_publ_section_title
;
Structure prediction by ZEFSAII (Michael W. Deem and Ramdas Pophale) SiO2 
 PCOD9293488
Probable space group: C 2/C
;
_chemical_formula_sum "Si O2"
_cell_formula_units_Z 60
_cell_length_a 14.118361
_cell_length_b 11.813259
_cell_length_c 15.103279
_cell_angle_alpha 90.000000
_cell_angle_beta 98.287492
_cell_angle_gamma 90.000000
_cell_volume 2492.678060
_symmetry_space_group_name_H-M "C 2/C"
_symmetry_group_IT_number 15
_symmetry_cell_setting 'monoclinic'
loop_
_space_group_symop_operation_xyz
x,y,z
-x,y,1/2-z
-x,-y,-z
x,-y,1/2+z
1/2+x,1/2+y,z
1/2-x,1/2+y,1/2-z
1/2-x,1/2-y,-z
1/2+x,1/2-y,1/2+z
loop_
_atom_site_type_symbol
_atom_site_label
_atom_site_fract_x
_atom_site_fract_y
_atom_site_fract_z
Si Si1 0.782359 0.989004 0.088853
Si Si2 0.629048 0.812263 0.115666
Si Si3 0.194282 0.620939 0.926100
Si Si4 0.500000 0.396777 0.750000
Si Si5 0.008102 0.488134 0.847628
Si Si6 0.999971 0.053300 0.902083
Si Si7 0.540756 0.781346 0.533918
Si Si8 0.804947 0.194859 0.208097
O O1 0.759862 0.078739 0.165417
O O2 0.706520 0.889016 0.077279
O O3 0.888938 0.942706 0.112769
O O4 0.771734 0.057546 0.995989
O O5 0.685815 0.728268 0.188346
O O6 0.562322 0.902849 0.159442
O O7 0.553387 0.757053 0.038801
O O8 0.231269 0.697988 0.851650
O O9 0.114939 0.532535 0.880406
O O10 0.132740 0.699785 0.985014
O O11 0.454975 0.472895 0.821273
O O12 0.582829 0.321354 0.802729
O O13 0.000000 0.434727 0.750000
O O14 0.977792 0.399281 0.918362
O O15 0.954010 0.176173 0.900123
O O16 0.000000 0.000000 0.000000
#
# Coordination Sequence:
#
# PCOD9293488 Si02
#       8
#     8   8   8   4   8   8   8   8
#     4  11  24  44  60  98 134 164 221 278 317 397
#     4  11  21  43  62  97 130 166 217 266 327 385
#     4  11  20  42  67  95 122 166 224 261 318 396
#     4  10  22  46  64  92 128 164 232 256 310 408
#     4  11  20  38  67  94 127 163 216 269 319 387
#     4  11  25  46  66  92 129 178 218 267 335 394
#     4  11  22  39  70  91 129 171 207 272 329 389
#     4  11  22  39  67  88 124 174 212 262 318 379
#
# _framework density 24.070497
#
# number of rings (size 3 to 8) (size 9 to 14) (size 15 to 20)
#    0.000    1.067    4.000    5.200    0.933    0.533 
#   14.400    0.000    0.000    0.000    0.000    0.000 
#    0.000    0.000    0.000    0.000    0.000    0.000 
#
# Total GULP energy -167968.215254 kJ/mol
# GULP energy per Si atom -5598.940508 kJ/mol
# Density = 2.401571 g / cm^3
# Si number density = 24.070497 Si / 1000 Ang^3
#
#
#
# Elastic Constant Matrix: (Units=GPa)
#
#
# Indices 1 2 3 4 5 6 
#
# 1 64.5294 10.6788 1.9837 0.0000 18.0415 0.0000
# 2 10.6788 81.2262 20.6553 0.0000 -0.8627 0.0000
# 3 1.9837 20.6553 99.1974 0.0000 10.1555 0.0000
# 4 0.0000 0.0000 0.0000 41.8691 0.0000 -1.7715
# 5 18.0415 -0.8627 10.1555 0.0000 30.0945 0.0000
# 6 0.0000 0.0000 0.0000 -1.7715 0.0000 18.2597
#
#
#
# Elastic Compliance Matrix: (Units=1/GPa)
#
#
# Indices 1 2 3 4 5 6 
#
# 1 0.019369 -0.003057 0.001499 0.000000 -0.012205 0.000000
# 2 -0.003057 0.013534 -0.003091 0.000000 0.003264 0.000000
# 3 0.001499 -0.003091 0.011182 0.000000 -0.004761 0.000000
# 4 0.000000 0.000000 0.000000 0.023982 0.000000 0.002327
# 5 -0.012205 0.003264 -0.004761 0.000000 0.042246 0.000000
# 6 0.000000 0.000000 0.000000 0.002327 0.000000 0.054991
#
#
# Mechanical properties :
#
#
# Convention : Reuss Voigt Hill
#
# Bulk Modulus (GPa) = 28.74730 34.62095 31.68412
# Shear Modulus (GPa) = 26.85305 32.15365 29.50335
#
# Velocity S-wave (km/s) = 3.34368 3.65884 3.50481
# Velocity P-wave (km/s) = 5.18419 5.68013 5.43782
#
# Compressibility (1/GPa) = 0.03478587
#
# Stress axis : x y z
#
# Youngs Moduli (GPa) = 51.62877 73.88831 89.42985
#
# Poissons Ratio (x) = 0.22589 -0.13403
# Poissons Ratio (y) = 0.15784 0.27644
# Poissons Ratio (z) = -0.07738 0.22840
#
# Static dielectric constant tensor:
#      x y z
#    x 1.893750 0.000000 0.020000 
#    y 0.000000 1.905570 0.000000 
#    z 0.020000 0.000000 1.960240 
# 
# From -- ./inp_files/160950.got.cif
#   From: 2010.05.17/outbox.cif.g08.bks.cpg/sg15_81_cif.got.tgz:160950.got - 2010.06.03 18:47:42.
