data_PCOD9293168
_publ_section_title
;
Structure prediction by ZEFSAII (Michael W. Deem and Ramdas Pophale) SiO2 
 PCOD9293168
Probable space group: C 2/C
;
_chemical_formula_sum "Si O2"
_cell_formula_units_Z 44
_cell_length_a 7.471332
_cell_length_b 26.704025
_cell_length_c 8.818763
_cell_angle_alpha 90.000000
_cell_angle_beta 93.557475
_cell_angle_gamma 90.000000
_cell_volume 1756.081891
_symmetry_space_group_name_H-M "C 2/C"
_symmetry_group_IT_number 15
_symmetry_cell_setting 'monoclinic'
loop_
_space_group_symop_operation_xyz
x,y,z
-x,y,1/2-z
-x,-y,-z
x,-y,1/2+z
1/2+x,1/2+y,z
1/2-x,1/2+y,1/2-z
1/2-x,1/2-y,-z
1/2+x,1/2-y,1/2+z
loop_
_atom_site_type_symbol
_atom_site_label
_atom_site_fract_x
_atom_site_fract_y
_atom_site_fract_z
Si Si1 0.000000 0.263237 0.250000
Si Si2 0.750000 0.750000 0.500000
Si Si3 0.000000 0.088202 0.250000
Si Si4 0.000000 0.698777 0.250000
Si Si5 0.338462 0.673431 0.439549
Si Si6 0.000000 0.146244 0.750000
Si Si7 0.196601 0.009997 0.439762
Si Si8 0.308763 0.072460 0.715814
O O1 0.146528 0.287347 0.367256
O O2 0.076134 0.223457 0.128368
O O3 0.867894 0.726579 0.362765
O O4 0.060700 0.125363 0.121357
O O5 0.160363 0.052598 0.312137
O O6 0.862607 0.670046 0.131303
O O7 0.388976 0.675871 0.617456
O O8 0.146320 0.109953 0.681231
O O9 0.316296 0.033396 0.577546
O O10 0.262031 0.960073 0.362303
O O11 0.000000 0.000000 0.500000
O O12 0.500000 0.097481 0.750000
#
# Coordination Sequence:
#
# PCOD9293168 Si02
#       8
#     4   4   4   4   8   4   8   8
#     4   9  22  42  69 102 134 172 224 272 342 418
#     4  10  22  44  76 106 142 182 230 288 344 422
#     4  11  19  38  64  84 129 188 212 284 361 404
#     4  10  24  47  72 112 143 184 238 284 357 440
#     4  10  23  41  66  98 140 177 221 278 354 435
#     4  12  23  43  67  92 144 186 230 294 360 414
#     4  12  20  40  65  86 128 175 239 300 352 407
#     4  12  25  40  62  97 124 178 247 297 353 423
#
# _framework density 25.055779999999999
#
# number of rings (size 3 to 8) (size 9 to 14) (size 15 to 20)
#    0.000    1.091    5.455    0.545    0.000    6.545 
#    4.909    0.000    0.000    0.000    0.000    0.000 
#    0.000    0.000    0.000    0.000    0.000    0.000 
#
# Total GULP energy -122535.436047 kJ/mol
# GULP energy per Si atom -5569.792548 kJ/mol
# Density = 2.499875 g / cm^3
# Si number density = 25.055780 Si / 1000 Ang^3
#
#
#
# Elastic Constant Matrix: (Units=GPa)
#
#
# Indices 1 2 3 4 5 6 
#
# 1 101.7624 28.3133 49.5467 0.0000 16.0358 0.0000
# 2 28.3133 50.2946 23.0553 0.0000 -1.9273 0.0000
# 3 49.5467 23.0553 197.5252 0.0000 11.5525 0.0000
# 4 0.0000 0.0000 0.0000 21.5899 0.0000 17.4178
# 5 16.0358 -1.9273 11.5525 0.0000 37.0676 0.0000
# 6 0.0000 0.0000 0.0000 17.4178 0.0000 23.7861
#
#
#
# Elastic Compliance Matrix: (Units=1/GPa)
#
#
# Indices 1 2 3 4 5 6 
#
# 1 0.013754 -0.006894 -0.002319 0.000000 -0.005586 0.000000
# 2 -0.006894 0.024593 -0.001416 0.000000 0.004703 0.000000
# 3 -0.002319 -0.001416 0.005862 0.000000 -0.000898 0.000000
# 4 0.000000 0.000000 0.000000 0.113180 0.000000 -0.082878
# 5 -0.005586 0.004703 -0.000898 0.000000 0.029919 0.000000
# 6 0.000000 0.000000 0.000000 -0.082878 0.000000 0.102730
#
#
# Mechanical properties :
#
#
# Convention : Reuss Voigt Hill
#
# Bulk Modulus (GPa) = 43.57021 61.26809 52.41915
# Shear Modulus (GPa) = 15.67664 33.06653 24.37158
#
# Velocity S-wave (km/s) = 2.50405 3.63673 3.12219
# Velocity P-wave (km/s) = 5.07813 6.49155 5.82785
#
# Compressibility (1/GPa) = 0.02295146
#
# Stress axis : x y z
#
# Youngs Moduli (GPa) = 72.70562 40.66153 170.58854
#
# Poissons Ratio (x) = 0.28032 0.39554
# Poissons Ratio (y) = 0.50123 0.24160
# Poissons Ratio (z) = 0.16858 0.05759
#
# Static dielectric constant tensor:
#      x y z
#    x 2.183290 0.000000 0.044110 
#    y 0.000000 2.044430 0.000000 
#    z 0.044110 0.000000 1.958080 
# 
# From -- ./inp_files/25699.got.cif
#   From: 2010.05.17/outbox.cif.g08.bks.cpg/sg15_13_cif.got.tgz:25699.got - 2010.06.03 18:47:42.
