data_PCOD9293139
_publ_section_title
;
Structure prediction by ZEFSAII (Michael W. Deem and Ramdas Pophale) SiO2 
 PCOD9293139
Probable space group: C 2/C
;
_chemical_formula_sum "Si O2"
_cell_formula_units_Z 28
_cell_length_a 10.898317
_cell_length_b 15.037615
_cell_length_c 7.293645
_cell_angle_alpha 90.000000
_cell_angle_beta 97.883562
_cell_angle_gamma 90.000000
_cell_volume 1184.019675
_symmetry_space_group_name_H-M "C 2/C"
_symmetry_group_IT_number 15
_symmetry_cell_setting 'monoclinic'
loop_
_space_group_symop_operation_xyz
x,y,z
-x,y,1/2-z
-x,-y,-z
x,-y,1/2+z
1/2+x,1/2+y,z
1/2-x,1/2+y,1/2-z
1/2-x,1/2-y,-z
1/2+x,1/2-y,1/2+z
loop_
_atom_site_type_symbol
_atom_site_label
_atom_site_fract_x
_atom_site_fract_y
_atom_site_fract_z
Si Si1 0.599561 0.379580 0.989554
Si Si2 0.563756 0.907240 0.951136
Si Si3 0.837401 0.073359 0.601755
Si Si4 0.000000 0.731071 0.750000
O O1 0.674180 0.386493 0.195768
O O2 0.456300 0.383960 0.028306
O O3 0.630306 0.468586 0.883203
O O4 0.604710 0.294313 0.861923
O O5 0.500000 0.879875 0.750000
O O6 0.710613 0.919117 0.966153
O O7 0.544367 0.832678 0.098492
O O8 0.500000 0.000000 0.000000
#
# Coordination Sequence:
#
# PCOD9293139 Si02
#       4
#     8   8   8   4
#     4  10  22  44  74 109 135 180 244 299 342 407
#     4  12  27  50  70 100 148 196 226 282 367 432
#     4  10  22  46  75 102 145 187 230 291 363 413
#     4  12  28  46  68 114 140 180 248 288 346 418
#
# _framework density 23.648254999999999
#
# number of rings (size 3 to 8) (size 9 to 14) (size 15 to 20)
#    0.000    1.143    1.429    5.143    4.000    2.286 
#    0.000    0.000    0.000    0.000    0.000    0.000 
#    0.000    0.000    0.000    0.000    0.000    0.000 
#
# Total GULP energy -78428.524329 kJ/mol
# GULP energy per Si atom -5602.037452 kJ/mol
# Density = 2.359443 g / cm^3
# Si number density = 23.648255 Si / 1000 Ang^3
#
#
#
# Elastic Constant Matrix: (Units=GPa)
#
#
# Indices 1 2 3 4 5 6 
#
# 1 85.5164 25.8925 65.7446 0.0000 35.1682 0.0000
# 2 25.8925 132.9539 62.9210 0.0000 -9.6972 0.0000
# 3 65.7446 62.9210 191.1420 0.0000 14.1731 0.0000
# 4 0.0000 0.0000 0.0000 47.2633 0.0000 -11.0170
# 5 35.1682 -9.6972 14.1731 0.0000 42.7602 0.0000
# 6 0.0000 0.0000 0.0000 -11.0170 0.0000 0.7527
#
#
#
# Elastic Compliance Matrix: (Units=1/GPa)
#
#
# Indices 1 2 3 4 5 6 
#
# 1 0.025712 -0.003518 -0.006211 0.000000 -0.019886 0.000000
# 2 -0.003518 0.009802 -0.002456 0.000000 0.005931 0.000000
# 3 -0.006211 -0.002456 0.008037 0.000000 0.001888 0.000000
# 4 0.000000 0.000000 0.000000 -0.008773 0.000000 -0.128405
# 5 -0.019886 0.005931 0.001888 0.000000 0.040461 0.000000
# 6 0.000000 0.000000 0.000000 -0.128405 0.000000 -0.550858
#
#
# Mechanical properties :
#
#
# Convention : Reuss Voigt Hill
#
# Bulk Modulus (GPa) = 52.14012 79.85873 65.99942
# Shear Modulus (GPa) = -11.23959 35.15885 11.95963
#
# Velocity S-wave (km/s) = -2.18246 3.86001 2.25128
# Velocity P-wave (km/s) = 3.96802 7.32864 5.89297
#
# Compressibility (1/GPa) = 0.01917909
#
# Stress axis : x y z
#
# Youngs Moduli (GPa) = 38.89214 102.02508 124.43056
#
# Poissons Ratio (x) = 0.35896 0.77285
# Poissons Ratio (y) = 0.13684 0.30561
# Poissons Ratio (z) = 0.24156 0.25058
#
# Static dielectric constant tensor:
#      x y z
#    x 1.878160 0.000000 0.012220 
#    y 0.000000 1.887670 0.000000 
#    z 0.012220 0.000000 1.920550 
# 
# From -- ./inp_files/27742.got.cif
#   From: 2010.05.17/outbox.cif.g08.bks.cpg/sg15_14_cif.got.tgz:27742.got - 2010.06.03 18:47:42.
