data_PCOD9293539
_publ_section_title
;
Structure prediction by ZEFSAII (Michael W. Deem and Ramdas Pophale) SiO2 
 PCOD9293539
Probable space group: C 2/C
;
_chemical_formula_sum "Si O2"
_cell_formula_units_Z 60
_cell_length_a 16.982260
_cell_length_b 23.146456
_cell_length_c 13.633771
_cell_angle_alpha 90.000000
_cell_angle_beta 31.550343
_cell_angle_gamma 90.000000
_cell_volume 2804.162502
_symmetry_space_group_name_H-M "C 2/C"
_symmetry_group_IT_number 15
_symmetry_cell_setting 'monoclinic'
loop_
_space_group_symop_operation_xyz
x,y,z
-x,y,1/2-z
-x,-y,-z
x,-y,1/2+z
1/2+x,1/2+y,z
1/2-x,1/2+y,1/2-z
1/2-x,1/2-y,-z
1/2+x,1/2-y,1/2+z
loop_
_atom_site_type_symbol
_atom_site_label
_atom_site_fract_x
_atom_site_fract_y
_atom_site_fract_z
Si Si1 0.000000 0.085564 0.750000
Si Si2 0.360895 0.725242 0.464869
Si Si3 0.416093 0.853379 0.441586
Si Si4 0.664287 0.849654 0.324770
Si Si5 0.362059 0.552170 0.693195
Si Si6 0.828882 0.924005 0.723799
Si Si7 0.825563 0.166231 0.056809
Si Si8 0.527082 0.765074 0.838009
O O1 0.051627 0.052265 0.793093
O O2 0.137547 0.127776 0.576409
O O3 0.500000 0.703074 0.250000
O O4 0.250000 0.750000 0.500000
O O5 0.400423 0.784589 0.481136
O O6 0.278225 0.682057 0.627057
O O7 0.500000 0.855296 0.250000
O O8 0.530685 0.877167 0.401104
O O9 0.261600 0.889620 0.596730
O O10 0.745773 0.896884 0.303660
O O11 0.585163 0.805013 0.481650
O O12 0.281816 0.490572 0.764188
O O13 0.491164 0.566669 0.474845
O O14 0.789350 0.880215 0.677855
O O15 0.694251 0.212077 0.180378
O O16 0.979154 0.200401 0.919965
O O17 0.500000 0.767896 0.750000
#
# Coordination Sequence:
#
# PCOD9293539 Si02
#       8
#     4   8   8   8   8   8   8   8
#     4  10  22  46  68 100 134 172 232 292 332 406
#     4  11  23  42  66 102 144 181 229 283 347 417
#     4  11  23  44  63 102 140 176 226 289 346 413
#     4  12  25  41  70 100 139 185 230 281 351 406
#     4  10  25  45  73  94 131 181 235 281 341 405
#     4  10  23  48  66  94 130 177 227 284 341 396
#     4  11  23  41  68  93 140 170 221 283 333 413
#     4  12  25  39  64 104 137 183 224 272 352 415
#
# _framework density 21.396761999999999
#
# number of rings (size 3 to 8) (size 9 to 14) (size 15 to 20)
#    0.000    1.067    4.667    2.000    5.600    0.533 
#    7.200    0.667    1.467    0.000    0.000    0.000 
#    0.000    0.000    0.000    0.000    0.000    0.000 
#
# Total GULP energy -167391.829802 kJ/mol
# GULP energy per Si atom -5579.727660 kJ/mol
# Density = 2.134806 g / cm^3
# Si number density = 21.396762 Si / 1000 Ang^3
#
#
#
# Elastic Constant Matrix: (Units=GPa)
#
#
# Indices 1 2 3 4 5 6 
#
# 1 83.4868 38.7721 13.0331 -0.0045 -3.6841 0.0022
# 2 38.7721 102.4022 40.7096 -0.0040 0.5144 0.0011
# 3 13.0331 40.7096 101.2778 0.0014 11.1471 0.0033
# 4 -0.0045 -0.0040 0.0014 22.3170 0.0037 -4.5158
# 5 -3.6841 0.5144 11.1471 0.0037 22.9227 -0.0032
# 6 0.0022 0.0011 0.0033 -4.5158 -0.0032 18.8315
#
#
#
# Elastic Compliance Matrix: (Units=1/GPa)
#
#
# Indices 1 2 3 4 5 6 
#
# 1 0.014674 -0.005607 0.000097 0.000001 0.002437 -0.000001
# 2 -0.005607 0.013864 -0.004985 0.000002 0.001212 0.000001
# 3 0.000097 -0.004985 0.012521 -0.000001 -0.005961 -0.000003
# 4 0.000001 0.000002 -0.000001 0.047094 -0.000005 0.011293
# 5 0.002437 0.001212 -0.005961 -0.000005 0.046888 0.000008
# 6 -0.000001 0.000001 -0.000003 0.011293 0.000008 0.055810
#
#
# Mechanical properties :
#
#
# Convention : Reuss Voigt Hill
#
# Bulk Modulus (GPa) = 49.82430 52.46626 51.14528
# Shear Modulus (GPa) = 22.88008 25.79106 24.33557
#
# Velocity S-wave (km/s) = 3.27360 3.47561 3.37612
# Velocity P-wave (km/s) = 6.13393 6.37812 6.25721
#
# Compressibility (1/GPa) = 0.02007053
#
# Stress axis : x y z
#
# Youngs Moduli (GPa) = 68.14678 72.13025 79.86555
#
# Poissons Ratio (x) = 0.40443 -0.00776
# Poissons Ratio (y) = 0.38209 0.39809
# Poissons Ratio (z) = -0.00662 0.35953
#
# Static dielectric constant tensor:
#      x y z
#    x 1.845560 -0.000020 0.002680 
#    y -0.000020 1.798430 0.000010 
#    z 0.002680 0.000010 1.875230 
# 
# From -- ./inp_files/164106.got.cif
#   From: 2010.05.17/outbox.cif.g08.bks.cpg/sg15_83_cif.got.tgz:164106.got - 2010.06.03 18:47:42.
