data_PCOD9293556
_publ_section_title
;
Structure prediction by ZEFSAII (Michael W. Deem and Ramdas Pophale) SiO2 
 PCOD9293556
Probable space group: C 2/C
;
_chemical_formula_sum "Si O2"
_cell_formula_units_Z 44
_cell_length_a 29.153945
_cell_length_b 10.272825
_cell_length_c 22.082933
_cell_angle_alpha 90.000000
_cell_angle_beta 163.384513
_cell_angle_gamma 90.000000
_cell_volume 1891.168009
_symmetry_space_group_name_H-M "C 2/C"
_symmetry_group_IT_number 15
_symmetry_cell_setting 'monoclinic'
loop_
_space_group_symop_operation_xyz
x,y,z
-x,y,1/2-z
-x,-y,-z
x,-y,1/2+z
1/2+x,1/2+y,z
1/2-x,1/2+y,1/2-z
1/2-x,1/2-y,-z
1/2+x,1/2-y,1/2+z
loop_
_atom_site_type_symbol
_atom_site_label
_atom_site_fract_x
_atom_site_fract_y
_atom_site_fract_z
Si Si1 0.336051 0.124888 0.916360
Si Si2 0.345448 0.023003 0.197118
Si Si3 0.086063 0.004329 0.674302
Si Si4 0.590354 0.261004 0.758390
Si Si5 0.500000 0.422571 0.750000
Si Si6 0.736880 0.411238 0.692207
O O1 0.256766 0.256345 0.789703
O O2 0.245185 0.086446 0.863191
O O3 0.300169 0.010708 0.822545
O O4 0.527529 0.127044 0.167631
O O5 0.430820 0.884077 0.292086
O O6 0.324085 0.054818 0.240514
O O7 0.161269 0.005635 0.941666
O O8 0.117860 0.860409 0.738576
O O9 0.000000 0.000000 0.500000
O O10 0.954676 0.064065 0.552821
O O11 0.468302 0.327491 0.651921
O O12 0.750000 0.250000 0.000000
#
# Coordination Sequence:
#
# PCOD9293556 Si02
#       6
#     8   8   8   8   4   8
#     4  11  26  40  70 106 143 192 245 298 380 456
#     4  11  24  41  73  97 141 185 255 294 377 438
#     4  10  23  40  68 101 152 185 239 311 380 426
#     4  10  23  41  74 103 142 191 253 302 373 447
#     4  10  22  46  68 108 140 190 246 324 354 450
#     4  11  24  44  67 101 151 189 238 303 378 451
#
# _framework density 23.266044999999998
#
# number of rings (size 3 to 8) (size 9 to 14) (size 15 to 20)
#    0.000    1.455    1.818    1.636   15.273    0.000 
#    0.000    0.909    4.000    0.000    0.000    0.000 
#    0.000    0.000    0.000    0.000    0.000    0.000 
#
# Total GULP energy -122793.426945 kJ/mol
# GULP energy per Si atom -5581.519407 kJ/mol
# Density = 2.321309 g / cm^3
# Si number density = 23.266045 Si / 1000 Ang^3
#
#
#
# Elastic Constant Matrix: (Units=GPa)
#
#
# Indices 1 2 3 4 5 6 
#
# 1 83.8170 22.8588 28.4375 -0.0001 14.9223 0.0000
# 2 22.8588 127.5222 23.5069 -0.0001 -28.0062 -0.0001
# 3 28.4375 23.5069 90.1181 0.0000 13.9768 0.0000
# 4 -0.0001 -0.0001 0.0000 22.9568 0.0000 7.4223
# 5 14.9223 -28.0062 13.9768 0.0000 33.2108 -0.0001
# 6 0.0000 -0.0001 0.0000 7.4223 -0.0001 27.2722
#
#
#
# Elastic Compliance Matrix: (Units=1/GPa)
#
#
# Indices 1 2 3 4 5 6 
#
# 1 0.015722 -0.004615 -0.002202 0.000000 -0.010029 0.000000
# 2 -0.004615 0.012576 -0.004055 0.000000 0.014385 0.000000
# 3 -0.002202 -0.004055 0.014150 0.000000 -0.008385 0.000000
# 4 0.000000 0.000000 0.000000 0.047763 0.000000 -0.012999
# 5 -0.010029 0.014385 -0.008385 0.000000 0.050277 0.000000
# 6 0.000000 0.000000 0.000000 -0.012999 0.000000 0.040205
#
#
# Mechanical properties :
#
#
# Convention : Reuss Voigt Hill
#
# Bulk Modulus (GPa) = 48.30118 50.11817 49.20968
# Shear Modulus (GPa) = 23.88493 31.79822 27.84158
#
# Velocity S-wave (km/s) = 3.20754 3.70093 3.46303
# Velocity P-wave (km/s) = 5.87564 6.31274 6.09811
#
# Compressibility (1/GPa) = 0.02070343
#
# Stress axis : x y z
#
# Youngs Moduli (GPa) = 63.60529 79.51812 70.67320
#
# Poissons Ratio (x) = 0.36697 0.15562
# Poissons Ratio (y) = 0.29353 0.28659
# Poissons Ratio (z) = 0.14005 0.32245
#
# Static dielectric constant tensor:
#      x y z
#    x 1.886310 0.000000 0.048040 
#    y 0.000000 1.915030 0.000000 
#    z 0.048040 0.000000 1.941350 
# 
# From -- ./inp_files/257544.got.cif
#   From: 2010.05.17/outbox.cif.g08.bks.cpg/sg15_129_cif.got.tgz:257544.got - 2010.06.03 18:47:42.
