data_PCOD9293442
_publ_section_title
;
Structure prediction by ZEFSAII (Michael W. Deem and Ramdas Pophale) SiO2 
 PCOD9293442
Probable space group: C 2/C
;
_chemical_formula_sum "Si O2"
_cell_formula_units_Z 44
_cell_length_a 26.043640
_cell_length_b 9.358340
_cell_length_c 10.602252
_cell_angle_alpha 90.000000
_cell_angle_beta 135.432671
_cell_angle_gamma 90.000000
_cell_volume 1813.339604
_symmetry_space_group_name_H-M "C 2/C"
_symmetry_group_IT_number 15
_symmetry_cell_setting 'monoclinic'
loop_
_space_group_symop_operation_xyz
x,y,z
-x,y,1/2-z
-x,-y,-z
x,-y,1/2+z
1/2+x,1/2+y,z
1/2-x,1/2+y,1/2-z
1/2-x,1/2-y,-z
1/2+x,1/2-y,1/2+z
loop_
_atom_site_type_symbol
_atom_site_label
_atom_site_fract_x
_atom_site_fract_y
_atom_site_fract_z
Si Si1 0.496901 0.170747 0.987470
Si Si2 0.708459 0.590673 0.268552
Si Si3 0.077501 0.071017 0.672380
Si Si4 0.324652 0.900757 0.364376
Si Si5 0.000000 0.179746 0.750000
Si Si6 0.138467 0.413403 0.351159
O O1 0.430656 0.192913 0.772504
O O2 0.628692 0.040104 0.435243
O O3 0.568454 0.269746 0.093815
O O4 0.500000 0.000000 0.000000
O O5 0.646187 0.517443 0.244905
O O6 0.681908 0.731616 0.152596
O O7 0.744214 0.468593 0.244537
O O8 0.974604 0.273882 0.587552
O O9 0.000000 0.000000 0.500000
O O10 0.434385 0.589294 0.698026
O O11 0.281718 0.142002 0.471274
O O12 0.352409 0.956969 0.278588
#
# Coordination Sequence:
#
# PCOD9293442 Si02
#       6
#     8   8   8   8   4   8
#     4  10  23  45  75 107 151 206 261 330 400 480
#     4  10  24  45  75 118 159 211 264 336 407 483
#     4  10  22  45  75 112 151 208 262 329 407 476
#     4  10  24  44  75 112 165 201 275 326 407 486
#     4   8  24  42  76 108 160 202 264 334 404 488
#     4  10  24  45  75 109 156 211 264 330 399 485
#
# _framework density 24.264621999999999
#
# number of rings (size 3 to 8) (size 9 to 14) (size 15 to 20)
#    2.182    0.000    0.000    1.636    2.545    3.636 
#    3.273    0.909    0.000    0.000    0.000    1.273 
#    0.000    0.000    0.000    0.000    0.000    0.000 
#
# Total GULP energy -122588.776188 kJ/mol
# GULP energy per Si atom -5572.217099 kJ/mol
# Density = 2.420939 g / cm^3
# Si number density = 24.264622 Si / 1000 Ang^3
#
#
#
# Elastic Constant Matrix: (Units=GPa)
#
#
# Indices 1 2 3 4 5 6 
#
# 1 86.4552 23.1731 7.5778 0.0000 -17.5207 0.0000
# 2 23.1731 115.0958 14.7034 0.0000 -14.7864 0.0000
# 3 7.5778 14.7034 95.1691 0.0000 -9.8056 0.0000
# 4 0.0000 0.0000 0.0000 31.8175 0.0000 -11.5362
# 5 -17.5207 -14.7864 -9.8056 0.0000 34.0000 0.0000
# 6 0.0000 0.0000 0.0000 -11.5362 0.0000 49.1710
#
#
#
# Elastic Compliance Matrix: (Units=1/GPa)
#
#
# Indices 1 2 3 4 5 6 
#
# 1 0.013300 -0.001889 -0.000150 0.000000 0.005989 0.000000
# 2 -0.001889 0.009572 -0.001030 0.000000 0.002892 0.000000
# 3 -0.000150 -0.001030 0.010950 0.000000 0.002633 0.000000
# 4 0.000000 0.000000 0.000000 0.034351 0.000000 0.008059
# 5 0.005989 0.002892 0.002633 0.000000 0.034515 0.000000
# 6 0.000000 0.000000 0.000000 0.008059 0.000000 0.022228
#
#
# Mechanical properties :
#
#
# Convention : Reuss Voigt Hill
#
# Bulk Modulus (GPa) = 36.12409 43.06987 39.59698
# Shear Modulus (GPa) = 35.64225 39.74875 37.69550
#
# Velocity S-wave (km/s) = 3.83678 4.05178 3.94574
# Velocity P-wave (km/s) = 5.87773 6.29903 6.09202
#
# Compressibility (1/GPa) = 0.02768236
#
# Stress axis : x y z
#
# Youngs Moduli (GPa) = 75.18871 104.47169 91.32419
#
# Poissons Ratio (x) = 0.19737 0.01371
# Poissons Ratio (y) = 0.14205 0.09410
# Poissons Ratio (z) = 0.01128 0.10765
#
# Static dielectric constant tensor:
#      x y z
#    x 1.975310 0.000000 0.055830 
#    y 0.000000 2.031630 0.000000 
#    z 0.055830 0.000000 2.126690 
# 
# From -- ./inp_files/180614.got.cif
#   From: 2010.05.17/outbox.cif.g08.bks.cpg/sg15_91_cif.got.tgz:180614.got - 2010.06.03 18:47:42.
