data_PCOD9293050
_publ_section_title
;
Structure prediction by ZEFSAII (Michael W. Deem and Ramdas Pophale) SiO2 
 PCOD9293050
Probable space group: C 2/C
;
_chemical_formula_sum "Si O2"
_cell_formula_units_Z 52
_cell_length_a 21.079590
_cell_length_b 5.103709
_cell_length_c 18.619593
_cell_angle_alpha 90.000000
_cell_angle_beta 89.668071
_cell_angle_gamma 90.000000
_cell_volume 2003.138414
_symmetry_space_group_name_H-M "C 2/C"
_symmetry_group_IT_number 15
_symmetry_cell_setting 'monoclinic'
loop_
_space_group_symop_operation_xyz
x,y,z
-x,y,1/2-z
-x,-y,-z
x,-y,1/2+z
1/2+x,1/2+y,z
1/2-x,1/2+y,1/2-z
1/2-x,1/2-y,-z
1/2+x,1/2-y,1/2+z
loop_
_atom_site_type_symbol
_atom_site_label
_atom_site_fract_x
_atom_site_fract_y
_atom_site_fract_z
Si Si1 0.741672 0.492414 0.450252
Si Si2 0.627335 0.909584 0.576867
Si Si3 0.000000 0.828507 0.250000
Si Si4 0.865941 0.719630 0.591640
Si Si5 0.493054 0.851409 0.358861
Si Si6 0.792848 0.602319 0.734005
Si Si7 0.393866 0.483908 0.803060
O O1 0.750000 0.750000 0.500000
O O2 0.803646 0.484777 0.401057
O O3 0.672889 0.508347 0.416091
O O4 0.750000 0.250000 0.500000
O O5 0.629031 0.875622 0.491147
O O6 0.622470 0.644212 0.625137
O O7 0.568457 0.104912 0.590511
O O8 0.992941 0.617512 0.316852
O O9 0.915667 0.844537 0.236890
O O10 0.938635 0.720787 0.613945
O O11 0.820114 0.585845 0.651935
O O12 0.469514 0.609524 0.309493
O O13 0.735766 0.820246 0.742302
O O14 0.849888 0.748330 0.777559
#
# Coordination Sequence:
#
# PCOD9293050 Si02
#       7
#     8   8   4   8   8   8   8
#     4  10  24  46  71 102 148 199 245 306 383 450
#     4  10  25  46  75 109 153 202 252 326 391 470
#     4  10  22  44  72 102 152 206 250 316 390 466
#     4  11  25  47  74 116 148 199 263 322 389 457
#     4  11  24  44  77 107 157 201 260 319 394 469
#     4  12  30  49  77 112 152 203 264 321 383 468
#     4  11  25  47  72 110 151 203 259 310 401 457
#
# _framework density 25.959266
#
# number of rings (size 3 to 8) (size 9 to 14) (size 15 to 20)
#    0.000    1.231    0.000    3.692   12.923    3.077 
#   11.077    0.000    0.000    0.000    0.000    0.000 
#    0.000    0.000    0.000    0.000    0.000    0.000 
#
# Total GULP energy -144889.676953 kJ/mol
# GULP energy per Si atom -5572.679883 kJ/mol
# Density = 2.590018 g / cm^3
# Si number density = 25.959266 Si / 1000 Ang^3
#
#
#
# Elastic Constant Matrix: (Units=GPa)
#
#
# Indices 1 2 3 4 5 6 
#
# 1 210.0159 31.7300 51.4472 0.0000 -16.0939 0.0000
# 2 31.7300 130.1923 40.8409 0.0000 -14.6968 0.0000
# 3 51.4472 40.8409 150.1132 0.0000 -36.6289 0.0000
# 4 0.0000 0.0000 0.0000 133.7749 0.0000 -98.3847
# 5 -16.0939 -14.6968 -36.6289 0.0000 51.6950 0.0000
# 6 0.0000 0.0000 0.0000 -98.3847 0.0000 116.1948
#
#
#
# Elastic Compliance Matrix: (Units=1/GPa)
#
#
# Indices 1 2 3 4 5 6 
#
# 1 0.005276 -0.000772 -0.001512 0.000000 0.000351 0.000000
# 2 -0.000772 0.008548 -0.001846 0.000000 0.000882 0.000000
# 3 -0.001512 -0.001846 0.008994 0.000000 0.005377 0.000000
# 4 0.000000 0.000000 0.000000 0.019814 0.000000 0.016777
# 5 0.000351 0.000882 0.005377 0.000000 0.023515 0.000000
# 6 0.000000 0.000000 0.000000 0.016777 0.000000 0.022811
#
#
# Mechanical properties :
#
#
# Convention : Reuss Voigt Hill
#
# Bulk Modulus (GPa) = 68.69211 82.03971 75.36591
# Shear Modulus (GPa) = 48.98634 84.75316 66.86975
#
# Velocity S-wave (km/s) = 4.34873 5.72009 5.08089
# Velocity P-wave (km/s) = 7.19265 8.67743 7.96969
#
# Compressibility (1/GPa) = 0.01455771
#
# Stress axis : x y z
#
# Youngs Moduli (GPa) = 189.55416 116.99179 111.18173
#
# Poissons Ratio (x) = 0.09028 0.16815
# Poissons Ratio (y) = 0.14627 0.20523
# Poissons Ratio (z) = 0.28667 0.21595
#
# Static dielectric constant tensor:
#      x y z
#    x 2.261280 0.000000 0.085930 
#    y 0.000000 2.136470 0.000000 
#    z 0.085930 0.000000 1.900360 
# 
# From -- ./inp_files/251027.got.cif
#   From: 2010.05.17/outbox.cif.g08.bks.cpg/sg15_126_cif.got.tgz:251027.got - 2010.06.03 18:47:42.
