data_PCOD9293068
_publ_section_title
;
Structure prediction by ZEFSAII (Michael W. Deem and Ramdas Pophale) SiO2 
 PCOD9293068
Probable space group: C 2/C
;
_chemical_formula_sum "Si O2"
_cell_formula_units_Z 40
_cell_length_a 18.218487
_cell_length_b 4.836643
_cell_length_c 22.140923
_cell_angle_alpha 90.000000
_cell_angle_beta 130.955494
_cell_angle_gamma 90.000000
_cell_volume 1473.414528
_symmetry_space_group_name_H-M "C 2/C"
_symmetry_group_IT_number 15
_symmetry_cell_setting 'monoclinic'
loop_
_space_group_symop_operation_xyz
x,y,z
-x,y,1/2-z
-x,-y,-z
x,-y,1/2+z
1/2+x,1/2+y,z
1/2-x,1/2+y,1/2-z
1/2-x,1/2-y,-z
1/2+x,1/2-y,1/2+z
loop_
_atom_site_type_symbol
_atom_site_label
_atom_site_fract_x
_atom_site_fract_y
_atom_site_fract_z
Si Si1 0.500000 0.214644 0.750000
Si Si2 0.824155 0.962826 0.214697
Si Si3 0.210729 0.057114 0.611955
Si Si4 0.443047 0.925589 0.593931
Si Si5 0.250000 0.250000 0.500000
Si Si6 0.951839 0.919220 0.897116
O O1 0.591932 0.412520 0.784252
O O2 0.475095 0.025702 0.678540
O O3 0.791051 0.654155 0.182535
O O4 0.863502 0.022282 0.302312
O O5 0.730275 0.146800 0.152137
O O6 0.233900 0.087532 0.554831
O O7 0.100625 0.975708 0.568041
O O8 0.334105 0.021543 0.525681
O O9 0.511256 0.108679 0.587513
O O10 0.466892 0.610953 0.591683
#
# Coordination Sequence:
#
# PCOD9293068 Si02
#       6
#     4   8   8   8   4   8
#     4  10  22  44  72 114 132 184 236 302 338 418
#     4  11  23  41  75 104 139 178 233 298 340 404
#     4  12  26  45  69 105 144 182 232 285 350 420
#     4  11  26  45  72 104 141 184 230 287 348 416
#     4  12  30  46  70 104 144 190 224 286 352 420
#     4  11  25  45  74 102 138 184 235 289 348 405
#
# _framework density 27.147825000000001
#
# number of rings (size 3 to 8) (size 9 to 14) (size 15 to 20)
#    0.000    0.800    2.000    4.800    5.600    6.400 
#    0.000    0.000    0.000    0.000    0.000    0.000 
#    0.000    0.000    0.000    0.000    0.000    0.000 
#
# Total GULP energy -111767.670542 kJ/mol
# GULP energy per Si atom -5588.383527 kJ/mol
# Density = 2.708604 g / cm^3
# Si number density = 27.147825 Si / 1000 Ang^3
#
#
#
# Elastic Constant Matrix: (Units=GPa)
#
#
# Indices 1 2 3 4 5 6 
#
# 1 106.6545 -15.7150 16.9412 -0.0001 -11.7691 0.0002
# 2 -15.7150 63.6337 15.2778 0.0009 -1.5006 -0.0006
# 3 16.9412 15.2778 57.3267 -0.0001 2.5395 0.0003
# 4 -0.0001 0.0009 -0.0001 29.4471 -0.0004 14.7239
# 5 -11.7691 -1.5006 2.5395 -0.0004 45.1990 0.0003
# 6 0.0002 -0.0006 0.0003 14.7239 0.0003 42.7473
#
#
#
# Elastic Compliance Matrix: (Units=1/GPa)
#
#
# Indices 1 2 3 4 5 6 
#
# 1 0.011005 0.003856 -0.004423 0.000000 0.003242 0.000000
# 2 0.003856 0.018170 -0.006068 -0.000001 0.001948 0.000001
# 3 -0.004423 -0.006068 0.020479 0.000000 -0.002504 0.000000
# 4 0.000000 -0.000001 0.000000 0.041025 0.000000 -0.014131
# 5 0.003242 0.001948 -0.002504 0.000000 0.023174 0.000000
# 6 0.000000 0.000001 0.000000 -0.014131 0.000000 0.028260
#
#
# Mechanical properties :
#
#
# Convention : Reuss Voigt Hill
#
# Bulk Modulus (GPa) = 27.48539 28.95808 28.22174
# Shear Modulus (GPa) = 29.84869 37.55276 33.70072
#
# Velocity S-wave (km/s) = 3.31945 3.72327 3.52714
# Velocity P-wave (km/s) = 4.98377 5.40126 5.19671
#
# Compressibility (1/GPa) = 0.03638296
#
# Stress axis : x y z
#
# Youngs Moduli (GPa) = 90.87095 55.03537 48.82997
#
# Poissons Ratio (x) = -0.21223 0.21599
# Poissons Ratio (y) = -0.35041 0.29631
# Poissons Ratio (z) = 0.40196 0.33397
#
# Static dielectric constant tensor:
#      x y z
#    x 2.079690 0.000000 0.043590 
#    y 0.000000 2.003980 0.000000 
#    z 0.043590 0.000000 2.074820 
# 
# From -- ./inp_files/297341.got.cif
#   From: 2010.05.17/outbox.cif.g08.bks.cpg/sg15_149_cif.got.tgz:297341.got - 2010.06.03 18:47:42.
