data_PCOD9293587
_publ_section_title
;
Structure prediction by ZEFSAII (Michael W. Deem and Ramdas Pophale) SiO2 
 PCOD9293587
Probable space group: C 2/C
;
_chemical_formula_sum "Si O2"
_cell_formula_units_Z 28
_cell_length_a 7.804795
_cell_length_b 13.740545
_cell_length_c 10.042896
_cell_angle_alpha 90.000000
_cell_angle_beta 80.890688
_cell_angle_gamma 90.000000
_cell_volume 1063.438327
_symmetry_space_group_name_H-M "C 2/C"
_symmetry_group_IT_number 15
_symmetry_cell_setting 'monoclinic'
loop_
_space_group_symop_operation_xyz
x,y,z
-x,y,1/2-z
-x,-y,-z
x,-y,1/2+z
1/2+x,1/2+y,z
1/2-x,1/2+y,1/2-z
1/2-x,1/2-y,-z
1/2+x,1/2-y,1/2+z
loop_
_atom_site_type_symbol
_atom_site_label
_atom_site_fract_x
_atom_site_fract_y
_atom_site_fract_z
Si Si1 0.862163 0.843871 0.952918
Si Si2 0.000000 0.544641 0.250000
Si Si3 0.693233 0.587609 0.763298
Si Si4 0.261869 0.310295 0.669644
O O1 0.817123 0.857854 0.804606
O O2 0.066582 0.819844 0.939601
O O3 0.750000 0.750000 0.000000
O O4 0.809057 0.917898 0.074531
O O5 0.138823 0.472635 0.299951
O O6 0.103846 0.621590 0.143671
O O7 0.500000 0.554632 0.750000
O O8 0.715314 0.698812 0.708724
#
# Coordination Sequence:
#
# PCOD9293587 Si02
#       4
#     8   4   8   8
#     4   9  20  42  73  97 133 181 221 277 333 397
#     4  12  26  44  68 104 134 178 228 272 336 406
#     4  11  24  45  66 101 137 173 225 280 333 399
#     4  10  22  46  69  98 138 177 225 276 337 394
#
# _framework density 26.329688999999998
#
# number of rings (size 3 to 8) (size 9 to 14) (size 15 to 20)
#    0.000    1.714    1.429    3.429    4.000    3.429 
#    5.143    0.000    0.000    0.000    0.000    0.000 
#    0.000    0.000    0.000    0.000    0.000    0.000 
#
# Total GULP energy -78300.862009 kJ/mol
# GULP energy per Si atom -5592.918715 kJ/mol
# Density = 2.626976 g / cm^3
# Si number density = 26.329689 Si / 1000 Ang^3
#
#
#
# Elastic Constant Matrix: (Units=GPa)
#
#
# Indices 1 2 3 4 5 6 
#
# 1 184.3296 96.6912 27.8013 0.0000 -37.5756 0.0000
# 2 96.6912 177.7558 10.0142 0.0000 -21.0071 0.0000
# 3 27.8013 10.0142 96.8618 0.0000 0.5750 0.0000
# 4 0.0000 0.0000 0.0000 8.3697 0.0000 -23.5502
# 5 -37.5756 -21.0071 0.5750 0.0000 53.0358 0.0000
# 6 0.0000 0.0000 0.0000 -23.5502 0.0000 58.7714
#
#
#
# Elastic Compliance Matrix: (Units=1/GPa)
#
#
# Indices 1 2 3 4 5 6 
#
# 1 0.008882 -0.004159 -0.002147 0.000000 0.004669 0.000000
# 2 -0.004159 0.007887 0.000377 0.000000 0.000173 0.000000
# 3 -0.002147 0.000377 0.010910 0.000000 -0.001490 0.000000
# 4 0.000000 0.000000 0.000000 -0.937132 0.000000 -0.375517
# 5 0.004669 0.000173 -0.001490 0.000000 0.022248 0.000000
# 6 0.000000 0.000000 0.000000 -0.375517 0.000000 -0.133458
#
#
# Mechanical properties :
#
#
# Convention : Reuss Voigt Hill
#
# Bulk Modulus (GPa) = 63.20301 80.88450 72.04375
# Shear Modulus (GPa) = -4.98241 45.66475 20.34117
#
# Velocity S-wave (km/s) = -1.37711 4.16906 2.78251
# Velocity P-wave (km/s) = 4.63983 7.34584 6.14367
#
# Compressibility (1/GPa) = 0.01582203
#
# Stress axis : x y z
#
# Youngs Moduli (GPa) = 112.58492 126.78879 91.65814
#
# Poissons Ratio (x) = 0.52729 0.19680
# Poissons Ratio (y) = 0.46821 -0.03457
# Poissons Ratio (z) = 0.24173 -0.04782
#
# Static dielectric constant tensor:
#      x y z
#    x 2.138220 0.000000 0.030140 
#    y 0.000000 2.072680 0.000000 
#    z 0.030140 0.000000 2.149350 
# 
# From -- ./inp_files/75260.got.cif
#   From: 2010.05.17/outbox.cif.g08.bks.cpg/sg15_38_cif.got.tgz:75260.got - 2010.06.03 18:47:42.
