data_PCOD9293193
_publ_section_title
;
Structure prediction by ZEFSAII (Michael W. Deem and Ramdas Pophale) SiO2 
 PCOD9293193
Probable space group: C 2/C
;
_chemical_formula_sum "Si O2"
_cell_formula_units_Z 52
_cell_length_a 6.403784
_cell_length_b 29.413060
_cell_length_c 12.920339
_cell_angle_alpha 90.000000
_cell_angle_beta 66.911561
_cell_angle_gamma 90.000000
_cell_volume 2238.678431
_symmetry_space_group_name_H-M "C 2/C"
_symmetry_group_IT_number 15
_symmetry_cell_setting 'monoclinic'
loop_
_space_group_symop_operation_xyz
x,y,z
-x,y,1/2-z
-x,-y,-z
x,-y,1/2+z
1/2+x,1/2+y,z
1/2-x,1/2+y,1/2-z
1/2-x,1/2-y,-z
1/2+x,1/2-y,1/2+z
loop_
_atom_site_type_symbol
_atom_site_label
_atom_site_fract_x
_atom_site_fract_y
_atom_site_fract_z
Si Si1 0.758131 0.555478 0.833486
Si Si2 0.500000 0.198610 0.250000
Si Si3 0.604495 0.650928 0.832515
Si Si4 0.727126 0.803975 0.004212
Si Si5 0.500000 0.702669 0.250000
Si Si6 0.500000 0.487612 0.750000
Si Si7 0.621544 0.048420 0.457865
Si Si8 0.141174 0.360391 0.528952
O O1 0.732411 0.604114 0.782049
O O2 0.571284 0.520867 0.829422
O O3 0.000000 0.536318 0.750000
O O4 0.761901 0.561123 0.955536
O O5 0.257852 0.220516 0.247580
O O6 0.401003 0.165490 0.356675
O O7 0.500000 0.672040 0.750000
O O8 0.737359 0.682613 0.883762
O O9 0.397668 0.635839 0.945334
O O10 0.895613 0.819423 0.876425
O O11 0.488037 0.826537 0.024334
O O12 0.750000 0.750000 0.000000
O O13 0.702011 0.457658 0.668407
O O14 0.459441 0.089527 0.459526
O O15 0.500000 0.000000 0.500000
#
# Coordination Sequence:
#
# PCOD9293193 Si02
#       8
#     8   4   8   8   4   4   8   8
#     4  12  24  46  70  99 146 188 241 299 369 448
#     4  10  22  44  78  99 145 192 246 306 380 444
#     4  12  25  44  74 107 146 193 240 301 383 457
#     4  11  26  48  76 107 145 193 249 312 382 455
#     4  10  22  49  72 110 147 190 247 318 369 458
#     4  12  26  43  70 103 136 192 239 312 367 430
#     4  12  25  44  69 100 141 187 241 301 363 447
#     4  11  25  46  70 102 143 191 242 307 379 448
#
# _framework density 23.227990999999999
#
# number of rings (size 3 to 8) (size 9 to 14) (size 15 to 20)
#    0.000    0.615    5.385    2.308    0.000    6.769 
#    5.538    0.000    0.000    0.000    0.000    0.000 
#    0.000    0.000    0.000    0.000    0.000    0.000 
#
# Total GULP energy -144995.732774 kJ/mol
# GULP energy per Si atom -5576.758953 kJ/mol
# Density = 2.317512 g / cm^3
# Si number density = 23.227991 Si / 1000 Ang^3
#
#
#
# Elastic Constant Matrix: (Units=GPa)
#
#
# Indices 1 2 3 4 5 6 
#
# 1 95.8651 18.0996 2.5078 0.0000 15.1446 0.0000
# 2 18.0996 79.5766 -15.8190 0.0000 9.4036 0.0000
# 3 2.5078 -15.8190 79.9527 0.0000 21.5995 0.0000
# 4 0.0000 0.0000 0.0000 21.9300 0.0000 11.2941
# 5 15.1446 9.4036 21.5995 0.0000 55.8762 0.0000
# 6 0.0000 0.0000 0.0000 11.2941 0.0000 17.5245
#
#
#
# Elastic Compliance Matrix: (Units=1/GPa)
#
#
# Indices 1 2 3 4 5 6 
#
# 1 0.011280 -0.002271 -0.000090 0.000000 -0.002640 0.000000
# 2 -0.002271 0.014211 0.003755 0.000000 -0.003227 0.000000
# 3 -0.000090 0.003755 0.014982 0.000000 -0.006399 0.000000
# 4 0.000000 0.000000 0.000000 0.068253 0.000000 -0.043987
# 5 -0.002640 -0.003227 -0.006399 0.000000 0.021629 0.000000
# 6 0.000000 0.000000 0.000000 -0.043987 0.000000 0.085412
#
#
# Mechanical properties :
#
#
# Convention : Reuss Voigt Hill
#
# Bulk Modulus (GPa) = 23.11641 29.44124 26.27882
# Shear Modulus (GPa) = 21.98777 35.77323 28.88050
#
# Velocity S-wave (km/s) = 3.08003 3.92866 3.52994
# Velocity P-wave (km/s) = 4.75630 5.76902 5.28696
#
# Compressibility (1/GPa) = 0.04325932
#
# Stress axis : x y z
#
# Youngs Moduli (GPa) = 88.65555 70.36822 66.74760
#
# Poissons Ratio (x) = 0.15984 0.00601
# Poissons Ratio (y) = 0.20137 -0.25063
# Poissons Ratio (z) = 0.00798 -0.26422
#
# Static dielectric constant tensor:
#      x y z
#    x 1.961060 0.000000 0.046070 
#    y 0.000000 1.825710 0.000000 
#    z 0.046070 0.000000 1.843740 
# 
# From -- ./inp_files/130741.got.cif
#   From: 2010.05.17/outbox.cif.g08.bks.cpg/sg15_66_cif.got.tgz:130741.got - 2010.06.03 18:47:42.
