data_PCOD9293362
_publ_section_title
;
Structure prediction by ZEFSAII (Michael W. Deem and Ramdas Pophale) SiO2 
 PCOD9293362
Probable space group: C 2/C
;
_chemical_formula_sum "Si O2"
_cell_formula_units_Z 56
_cell_length_a 17.544712
_cell_length_b 16.091472
_cell_length_c 7.945602
_cell_angle_alpha 90.000000
_cell_angle_beta 95.783880
_cell_angle_gamma 90.000000
_cell_volume 2231.784353
_symmetry_space_group_name_H-M "C 2/C"
_symmetry_group_IT_number 15
_symmetry_cell_setting 'monoclinic'
loop_
_space_group_symop_operation_xyz
x,y,z
-x,y,1/2-z
-x,-y,-z
x,-y,1/2+z
1/2+x,1/2+y,z
1/2-x,1/2+y,1/2-z
1/2-x,1/2-y,-z
1/2+x,1/2-y,1/2+z
loop_
_atom_site_type_symbol
_atom_site_label
_atom_site_fract_x
_atom_site_fract_y
_atom_site_fract_z
Si Si1 0.794088 0.750915 0.684457
Si Si2 0.443567 0.317499 0.076686
Si Si3 0.419220 0.620238 0.106753
Si Si4 0.344278 0.834304 0.670782
Si Si5 0.310956 0.071029 0.837914
Si Si6 0.059024 0.551490 0.130660
Si Si7 0.639293 0.543430 0.758687
O O1 0.750000 0.750000 0.500000
O O2 0.867936 0.808011 0.677108
O O3 0.734549 0.789748 0.802613
O O4 0.809593 0.657609 0.741856
O O5 0.500000 0.317997 0.250000
O O6 0.398627 0.230705 0.082278
O O7 0.382902 0.390309 0.101659
O O8 0.499407 0.341791 0.935267
O O9 0.411606 0.537828 0.219517
O O10 0.379887 0.586993 0.923141
O O11 0.325280 0.907519 0.536272
O O12 0.382208 0.869499 0.854308
O O13 0.229702 0.026016 0.793367
O O14 0.383974 0.019932 0.795439
O O15 0.000000 0.587464 0.250000
O O16 0.000000 0.500000 0.000000
#
# Coordination Sequence:
#
# PCOD9293362 Si02
#       7
#     8   8   8   8   8   8   8
#     4  12  25  46  72 109 147 199 255 313 379 467
#     4  10  22  45  71 103 143 197 242 309 386 451
#     4  11  25  43  76 107 149 198 250 318 382 455
#     4  12  26  48  77 102 155 198 252 313 388 461
#     4  12  27  45  73 108 149 195 256 311 382 462
#     4  12  28  49  74 112 150 200 255 323 393 466
#     4  11  24  45  70 107 145 190 252 311 381 456
#
# _framework density 25.092030999999999
#
# number of rings (size 3 to 8) (size 9 to 14) (size 15 to 20)
#    0.000    0.571    4.286    3.000    6.000    1.143 
#    0.000    1.429    0.000    0.000    0.000    0.000 
#    0.000    0.000    0.000    0.000    0.000    0.000 
#
# Total GULP energy -156663.978291 kJ/mol
# GULP energy per Si atom -5595.142082 kJ/mol
# Density = 2.503492 g / cm^3
# Si number density = 25.092031 Si / 1000 Ang^3
#
#
#
# Elastic Constant Matrix: (Units=GPa)
#
#
# Indices 1 2 3 4 5 6 
#
# 1 171.8942 66.2375 45.0368 0.0000 12.9952 0.0000
# 2 66.2375 125.1567 33.4060 0.0000 2.1716 0.0000
# 3 45.0368 33.4060 86.6368 0.0000 7.5569 0.0000
# 4 0.0000 0.0000 0.0000 35.6433 0.0000 1.6940
# 5 12.9952 2.1716 7.5569 0.0000 40.2349 0.0000
# 6 0.0000 0.0000 0.0000 1.6940 0.0000 58.0631
#
#
#
# Elastic Compliance Matrix: (Units=1/GPa)
#
#
# Indices 1 2 3 4 5 6 
#
# 1 0.008001 -0.003495 -0.002646 0.000000 -0.001899 0.000000
# 2 -0.003495 0.010435 -0.002293 0.000000 0.000996 0.000000
# 3 -0.002646 -0.002293 0.013945 0.000000 -0.001641 0.000000
# 4 0.000000 0.000000 0.000000 0.028095 0.000000 -0.000820
# 5 -0.001899 0.000996 -0.001641 0.000000 0.025722 0.000000
# 6 0.000000 0.000000 0.000000 -0.000820 0.000000 0.017247
#
#
# Mechanical properties :
#
#
# Convention : Reuss Voigt Hill
#
# Bulk Modulus (GPa) = 64.46680 74.78314 69.62497
# Shear Modulus (GPa) = 39.84567 42.72207 41.28387
#
# Velocity S-wave (km/s) = 3.98927 4.13075 4.06063
# Velocity P-wave (km/s) = 6.85324 7.25390 7.05642
#
# Compressibility (1/GPa) = 0.01551186
#
# Stress axis : x y z
#
# Youngs Moduli (GPa) = 124.98107 95.83406 71.70866
#
# Poissons Ratio (x) = 0.33497 0.18974
# Poissons Ratio (y) = 0.43685 0.16446
# Poissons Ratio (z) = 0.33069 0.21978
#
# Static dielectric constant tensor:
#      x y z
#    x 1.847350 0.000000 0.016720 
#    y 0.000000 1.963130 0.000000 
#    z 0.016720 0.000000 2.087340 
# 
# From -- ./inp_files/49126.got.cif
#   From: 2010.05.17/outbox.cif.g08.bks.cpg/sg15_25_cif.got.tgz:49126.got - 2010.06.03 18:47:42.
