data_PCOD9293563
_publ_section_title
;
Structure prediction by ZEFSAII (Michael W. Deem and Ramdas Pophale) SiO2 
 PCOD9293563
Probable space group: C 2/C
;
_chemical_formula_sum "Si O2"
_cell_formula_units_Z 44
_cell_length_a 30.524406
_cell_length_b 9.133460
_cell_length_c 24.712448
_cell_angle_alpha 90.000000
_cell_angle_beta 163.374017
_cell_angle_gamma 90.000000
_cell_volume 1971.292092
_symmetry_space_group_name_H-M "C 2/C"
_symmetry_group_IT_number 15
_symmetry_cell_setting 'monoclinic'
loop_
_space_group_symop_operation_xyz
x,y,z
-x,y,1/2-z
-x,-y,-z
x,-y,1/2+z
1/2+x,1/2+y,z
1/2-x,1/2+y,1/2-z
1/2-x,1/2-y,-z
1/2+x,1/2-y,1/2+z
loop_
_atom_site_type_symbol
_atom_site_label
_atom_site_fract_x
_atom_site_fract_y
_atom_site_fract_z
Si Si1 0.604242 0.524162 0.782622
Si Si2 0.500000 0.640159 0.250000
Si Si3 0.245143 0.023007 0.665422
Si Si4 0.070540 0.254689 0.662726
Si Si5 0.268117 0.922296 0.317674
Si Si6 0.205393 0.677485 0.071371
O O1 0.620484 0.469431 0.863389
O O2 0.423923 0.510154 0.556794
O O3 0.641478 0.683742 0.801732
O O4 0.691570 0.406250 0.849878
O O5 0.568493 0.747899 0.376123
O O6 0.239210 0.024181 0.723076
O O7 0.289305 0.187074 0.699417
O O8 0.357600 0.906065 0.772425
O O9 0.119419 0.139450 0.673596
O O10 0.893311 0.292562 0.462428
O O11 0.335480 0.055925 0.432639
#
# Coordination Sequence:
#
# PCOD9293563 Si02
#       6
#     8   4   8   8   8   8
#     4  10  23  43  65  95 129 173 222 278 325 384
#     4  10  22  46  68  94 124 174 228 274 324 390
#     4  11  23  39  67  98 137 172 218 266 327 399
#     4  11  23  42  63  95 138 170 218 268 330 391
#     4  11  24  41  66 101 136 177 212 268 331 397
#     4  10  24  40  70  96 132 172 220 270 328 391
#
# _framework density 22.320384000000001
#
# number of rings (size 3 to 8) (size 9 to 14) (size 15 to 20)
#    0.000    1.455    1.818    2.182    7.636    1.455 
#    0.000    4.545    0.000    0.000    0.000    0.000 
#    0.000    0.000    0.000    0.000    0.000    0.000 
#
# Total GULP energy -122835.690758 kJ/mol
# GULP energy per Si atom -5583.440489 kJ/mol
# Density = 2.226958 g / cm^3
# Si number density = 22.320384 Si / 1000 Ang^3
#
#
#
# Elastic Constant Matrix: (Units=GPa)
#
#
# Indices 1 2 3 4 5 6 
#
# 1 95.5243 56.9178 5.6055 -0.0001 -6.5245 -0.0008
# 2 56.9178 137.7364 6.4798 -0.0007 -8.9633 -0.0016
# 3 5.6055 6.4798 12.3572 0.0006 -3.4415 -0.0020
# 4 -0.0001 -0.0007 0.0006 27.0329 -0.0007 13.2645
# 5 -6.5245 -8.9633 -3.4415 -0.0007 32.8701 -0.0020
# 6 -0.0008 -0.0016 -0.0020 13.2645 -0.0020 60.0959
#
#
#
# Elastic Compliance Matrix: (Units=1/GPa)
#
#
# Indices 1 2 3 4 5 6 
#
# 1 0.014054 -0.005597 -0.003181 0.000000 0.000930 0.000000
# 2 -0.005597 0.009763 -0.002213 0.000000 0.001320 0.000000
# 3 -0.003181 -0.002213 0.085683 -0.000004 0.007736 0.000004
# 4 0.000000 0.000000 -0.000004 0.041485 0.000000 -0.009157
# 5 0.000930 0.001320 0.007736 0.000000 0.031777 0.000001
# 6 0.000000 0.000000 0.000004 -0.009157 0.000001 0.018661
#
#
# Mechanical properties :
#
#
# Convention : Reuss Voigt Hill
#
# Bulk Modulus (GPa) = 11.42634 42.62491 27.02563
# Shear Modulus (GPa) = 19.79583 35.77409 27.78496
#
# Velocity S-wave (km/s) = 2.98131 4.00778 3.53203
# Velocity P-wave (km/s) = 4.12084 6.36826 5.36358
#
# Compressibility (1/GPa) = 0.08751711
#
# Stress axis : x y z
#
# Youngs Moduli (GPa) = 71.15437 102.42438 11.67097
#
# Poissons Ratio (x) = 0.57331 0.03712
# Poissons Ratio (y) = 0.39828 0.02583
# Poissons Ratio (z) = 0.22634 0.22667
#
# Static dielectric constant tensor:
#      x y z
#    x 1.865370 0.000000 0.000420 
#    y 0.000000 1.856090 0.000000 
#    z 0.000420 0.000000 1.838470 
# 
# From -- ./inp_files/110056.got.cif
#   From: 2010.05.17/outbox.cif.g08.bks.cpg/sg15_56_cif.got.tgz:110056.got - 2010.06.03 18:47:42.
