data_PCOD9293428
_publ_section_title
;
Structure prediction by ZEFSAII (Michael W. Deem and Ramdas Pophale) SiO2 
 PCOD9293428
Probable space group: C 2/C
;
_chemical_formula_sum "Si O2"
_cell_formula_units_Z 44
_cell_length_a 17.343145
_cell_length_b 8.769837
_cell_length_c 10.357096
_cell_angle_alpha 90.000000
_cell_angle_beta 89.551445
_cell_angle_gamma 90.000000
_cell_volume 1575.230345
_symmetry_space_group_name_H-M "C 2/C"
_symmetry_group_IT_number 15
_symmetry_cell_setting 'monoclinic'
loop_
_space_group_symop_operation_xyz
x,y,z
-x,y,1/2-z
-x,-y,-z
x,-y,1/2+z
1/2+x,1/2+y,z
1/2-x,1/2+y,1/2-z
1/2-x,1/2-y,-z
1/2+x,1/2-y,1/2+z
loop_
_atom_site_type_symbol
_atom_site_label
_atom_site_fract_x
_atom_site_fract_y
_atom_site_fract_z
Si Si1 0.500000 0.208209 0.750000
Si Si2 0.500000 0.302598 0.250000
Si Si3 0.358606 0.757699 0.588485
Si Si4 0.103407 0.961268 0.629540
Si Si5 0.881684 0.573616 0.588358
Si Si6 0.750296 0.039825 0.699189
Si Si7 0.250000 0.750000 0.000000
O O1 0.569558 0.319221 0.710640
O O2 0.467485 0.109450 0.632122
O O3 0.573497 0.218540 0.307622
O O4 0.461842 0.411204 0.358195
O O5 0.381644 0.608948 0.509017
O O6 0.364273 0.916145 0.513211
O O7 0.275122 0.706022 0.641483
O O8 0.181982 0.021116 0.692743
O O9 0.826718 0.549612 0.715325
O O10 0.841966 0.713998 0.518172
O O11 0.754528 0.898568 0.601941
#
# Coordination Sequence:
#
# PCOD9293428 Si02
#       7
#     4   4   8   8   8   8   4
#     4  11  25  48  68 106 152 184 232 318 370 432
#     4   9  21  44  70 108 146 186 238 310 374 448
#     4  11  24  43  74 106 140 194 248 298 368 446
#     4  10  22  45  74 102 145 190 246 303 370 440
#     4  12  27  46  71 108 150 192 248 306 375 442
#     4  11  25  48  72 105 144 195 250 307 363 447
#     4  12  26  46  74 104 142 200 244 304 370 436
#
# _framework density 27.932421999999999
#
# number of rings (size 3 to 8) (size 9 to 14) (size 15 to 20)
#    0.000    1.091    1.818    3.273    2.545    3.636 
#    9.818    0.000    0.000    0.000    0.000    0.000 
#    0.000    0.000    0.000    0.000    0.000    0.000 
#
# Total GULP energy -122815.204279 kJ/mol
# GULP energy per Si atom -5582.509285 kJ/mol
# Density = 2.786885 g / cm^3
# Si number density = 27.932422 Si / 1000 Ang^3
#
#
#
# Elastic Constant Matrix: (Units=GPa)
#
#
# Indices 1 2 3 4 5 6 
#
# 1 108.8357 34.5220 24.8406 0.0000 11.2387 0.0000
# 2 34.5220 81.2276 4.4545 0.0000 2.1730 0.0000
# 3 24.8406 4.4545 44.3590 0.0000 11.3862 0.0000
# 4 0.0000 0.0000 0.0000 47.0565 0.0000 4.0780
# 5 11.2387 2.1730 11.3862 0.0000 55.7506 0.0000
# 6 0.0000 0.0000 0.0000 4.0780 0.0000 6.6543
#
#
#
# Elastic Compliance Matrix: (Units=1/GPa)
#
#
# Indices 1 2 3 4 5 6 
#
# 1 0.012217 -0.004831 -0.006092 0.000000 -0.001030 0.000000
# 2 -0.004831 0.014292 0.001227 0.000000 0.000166 0.000000
# 3 -0.006092 0.001227 0.026941 0.000000 -0.004322 0.000000
# 4 0.000000 0.000000 0.000000 0.022443 0.000000 -0.013754
# 5 -0.001030 0.000166 -0.004322 0.000000 0.019021 0.000000
# 6 0.000000 0.000000 0.000000 -0.013754 0.000000 0.158707
#
#
# Mechanical properties :
#
#
# Convention : Reuss Voigt Hill
#
# Bulk Modulus (GPa) = 29.36015 40.22851 34.79433
# Shear Modulus (GPa) = 17.58298 33.26598 25.42448
#
# Velocity S-wave (km/s) = 2.51167 3.45475 3.02025
# Velocity P-wave (km/s) = 4.35262 5.50882 4.96449
#
# Compressibility (1/GPa) = 0.03405978
#
# Stress axis : x y z
#
# Youngs Moduli (GPa) = 81.85136 69.96719 37.11827
#
# Poissons Ratio (x) = 0.33799 0.22612
# Poissons Ratio (y) = 0.39540 -0.04555
# Poissons Ratio (z) = 0.49864 -0.08587
#
# Static dielectric constant tensor:
#      x y z
#    x 2.085170 0.000000 0.000650 
#    y 0.000000 2.229320 0.000000 
#    z 0.000650 0.000000 2.421920 
# 
# From -- ./inp_files/110135.got.cif
#   From: 2010.05.17/outbox.cif.g08.bks.cpg/sg15_56_cif.got.tgz:110135.got - 2010.06.03 18:47:42.
