data_PCOD9293459
_publ_section_title
;
Structure prediction by ZEFSAII (Michael W. Deem and Ramdas Pophale) SiO2 
 PCOD9293459
Probable space group: C 2/C
;
_chemical_formula_sum "Si O2"
_cell_formula_units_Z 36
_cell_length_a 14.901531
_cell_length_b 15.875690
_cell_length_c 9.453369
_cell_angle_alpha 90.000000
_cell_angle_beta 139.134947
_cell_angle_gamma 90.000000
_cell_volume 1463.233160
_symmetry_space_group_name_H-M "C 2/C"
_symmetry_group_IT_number 15
_symmetry_cell_setting 'monoclinic'
loop_
_space_group_symop_operation_xyz
x,y,z
-x,y,1/2-z
-x,-y,-z
x,-y,1/2+z
1/2+x,1/2+y,z
1/2-x,1/2+y,1/2-z
1/2-x,1/2-y,-z
1/2+x,1/2-y,1/2+z
loop_
_atom_site_type_symbol
_atom_site_label
_atom_site_fract_x
_atom_site_fract_y
_atom_site_fract_z
Si Si1 0.785938 0.797151 0.266894
Si Si2 0.000000 0.500000 0.500000
Si Si3 0.792566 0.435246 0.530168
Si Si4 0.025870 0.309749 0.118133
Si Si5 0.141952 0.021437 0.593214
O O1 0.733659 0.842626 0.062225
O O2 0.895073 0.725075 0.379553
O O3 0.659691 0.767347 0.210661
O O4 0.855556 0.878299 0.428549
O O5 0.924605 0.551716 0.280546
O O6 0.954005 0.409188 0.372086
O O7 0.773891 0.509833 0.860434
O O8 0.672281 0.467338 0.491538
O O9 0.000000 0.288793 0.250000
O O10 0.000000 0.000000 0.500000
#
# Coordination Sequence:
#
# PCOD9293459 Si02
#       5
#     8   4   8   8   8
#     4  10  27  50  77 120 162 219 279 342 419 493
#     4  12  26  48  84 112 164 208 280 332 422 492
#     4  10  24  45  78 118 156 211 270 338 407 496
#     4  12  28  50  81 116 170 222 278 346 420 504
#     4  10  22  45  79 117 158 208 278 333 413 490
#
# _framework density 24.60305
#
# number of rings (size 3 to 8) (size 9 to 14) (size 15 to 20)
#    1.333    0.000    2.222    1.333    6.222    4.444 
#    0.000    0.000    0.000    0.000    0.000    0.000 
#    0.000    0.000    0.000    0.000    0.000    0.000 
#
# Total GULP energy -100261.948326 kJ/mol
# GULP energy per Si atom -5570.108240 kJ/mol
# Density = 2.454705 g / cm^3
# Si number density = 24.603050 Si / 1000 Ang^3
#
#
#
# Elastic Constant Matrix: (Units=GPa)
#
#
# Indices 1 2 3 4 5 6 
#
# 1 153.8156 35.9540 39.5172 0.0000 -4.2229 0.0000
# 2 35.9540 77.0659 38.5720 0.0000 7.9225 0.0000
# 3 39.5172 38.5720 99.9802 0.0000 -16.3981 0.0000
# 4 0.0000 0.0000 0.0000 40.3313 0.0000 22.3547
# 5 -4.2229 7.9225 -16.3981 0.0000 47.9552 0.0000
# 6 0.0000 0.0000 0.0000 22.3547 0.0000 -8.8049
#
#
#
# Elastic Compliance Matrix: (Units=1/GPa)
#
#
# Indices 1 2 3 4 5 6 
#
# 1 0.007625 -0.002643 -0.001920 0.000000 0.000451 0.000000
# 2 -0.002643 0.018247 -0.006916 0.000000 -0.005612 0.000000
# 3 -0.001920 -0.006916 0.014396 0.000000 0.005896 0.000000
# 4 0.000000 0.000000 0.000000 0.010300 0.000000 0.026151
# 5 0.000451 -0.005612 0.005896 0.000000 0.023836 0.000000
# 6 0.000000 0.000000 0.000000 0.026151 0.000000 -0.047180
#
#
# Mechanical properties :
#
#
# Convention : Reuss Voigt Hill
#
# Bulk Modulus (GPa) = 57.76654 62.10536 59.93595
# Shear Modulus (GPa) = 89.36427 30.35088 59.85757
#
# Velocity S-wave (km/s) = 6.03335 3.51611 4.93783
# Velocity P-wave (km/s) = 8.48914 6.46388 7.54477
#
# Compressibility (1/GPa) = 0.01731106
#
# Stress axis : x y z
#
# Youngs Moduli (GPa) = 131.15307 54.80355 69.46395
#
# Poissons Ratio (x) = 0.14482 0.13338
# Poissons Ratio (y) = 0.34658 0.48038
# Poissons Ratio (z) = 0.25183 0.37900
#
# Static dielectric constant tensor:
#      x y z
#    x 1.841130 0.000000 -0.070010 
#    y 0.000000 1.846700 0.000000 
#    z -0.070010 0.000000 1.934450 
# 
# From -- ./inp_files/152826.got.cif
#   From: 2010.05.17/outbox.cif.g08.bks.cpg/sg15_77_cif.got.tgz:152826.got - 2010.06.03 18:47:42.
