data_PCOD9293692
_publ_section_title
;
Structure prediction by ZEFSAII (Michael W. Deem and Ramdas Pophale) SiO2 
 PCOD9293692
Probable space group: C 2/C
;
_chemical_formula_sum "Si O2"
_cell_formula_units_Z 16
_cell_length_a 12.058286
_cell_length_b 6.699133
_cell_length_c 9.634224
_cell_angle_alpha 90.000000
_cell_angle_beta 48.317928
_cell_angle_gamma 90.000000
_cell_volume 581.235528
_symmetry_space_group_name_H-M "C 2/C"
_symmetry_group_IT_number 15
_symmetry_cell_setting 'monoclinic'
loop_
_space_group_symop_operation_xyz
x,y,z
-x,y,1/2-z
-x,-y,-z
x,-y,1/2+z
1/2+x,1/2+y,z
1/2-x,1/2+y,1/2-z
1/2-x,1/2-y,-z
1/2+x,1/2-y,1/2+z
loop_
_atom_site_type_symbol
_atom_site_label
_atom_site_fract_x
_atom_site_fract_y
_atom_site_fract_z
Si Si1 0.517648 0.305369 0.579478
Si Si2 0.363160 0.092184 0.473856
O O1 0.500000 0.378530 0.750000
O O2 0.500000 0.500000 0.500000
O O3 0.398224 0.168992 0.599095
O O4 0.653671 0.145446 0.481997
O O5 0.500000 0.096412 0.250000
O O6 0.250000 0.250000 0.500000
#
# Coordination Sequence:
#
# PCOD9293692 Si02
#       2
#     8   8
#     4  10  22  46  73 111 152 205 259 324 393 474
#     4  10  23  48  77 111 153 202 267 329 393 470
#
# _framework density 27.527567999999999
#
# number of rings (size 3 to 8) (size 9 to 14) (size 15 to 20)
#    0.000    2.000    0.000    1.500    0.000    4.000 
#   54.000    0.000    0.000    0.000    0.000    0.000 
#    0.000    0.000    0.000    0.000    0.000    0.000 
#
# Total GULP energy -44577.089771 kJ/mol
# GULP energy per Si atom -5572.136221 kJ/mol
# Density = 2.746491 g / cm^3
# Si number density = 27.527568 Si / 1000 Ang^3
#
#
#
# Elastic Constant Matrix: (Units=GPa)
#
#
# Indices 1 2 3 4 5 6 
#
# 1 236.4902 110.0931 72.7167 -0.0001 65.6259 0.0000
# 2 110.0931 305.8768 71.1578 -0.0004 26.9913 0.0005
# 3 72.7167 71.1578 155.9071 0.0000 47.0746 0.0000
# 4 -0.0001 -0.0004 0.0000 51.7133 0.0000 26.6424
# 5 65.6259 26.9913 47.0746 0.0000 68.8147 0.0000
# 6 0.0000 0.0005 0.0000 26.6424 0.0000 90.9807
#
#
#
# Elastic Compliance Matrix: (Units=1/GPa)
#
#
# Indices 1 2 3 4 5 6 
#
# 1 0.006739 -0.001791 -0.000753 0.000000 -0.005210 0.000000
# 2 -0.001791 0.004141 -0.001361 0.000000 0.001015 0.000000
# 3 -0.000753 -0.001361 0.008833 0.000000 -0.004790 0.000000
# 4 0.000000 0.000000 0.000000 0.022773 0.000000 -0.006669
# 5 -0.005210 0.001015 -0.004790 0.000000 0.022379 0.000000
# 6 0.000000 0.000000 0.000000 -0.006669 0.000000 0.012944
#
#
# Mechanical properties :
#
#
# Convention : Reuss Voigt Hill
#
# Bulk Modulus (GPa) = 84.00946 134.02325 109.01636
# Shear Modulus (GPa) = 55.81163 71.92218 63.86690
#
# Velocity S-wave (km/s) = 4.50764 5.11703 4.82197
# Velocity P-wave (km/s) = 7.59449 9.14903 8.40776
#
# Compressibility (1/GPa) = 0.01190342
#
# Stress axis : x y z
#
# Youngs Moduli (GPa) = 148.38238 241.49070 113.21274
#
# Poissons Ratio (x) = 0.43246 0.08525
# Poissons Ratio (y) = 0.26572 0.15410
# Poissons Ratio (z) = 0.11173 0.32870
#
# Static dielectric constant tensor:
#      x y z
#    x 2.155320 0.000000 -0.191560 
#    y 0.000000 2.273100 0.000000 
#    z -0.191560 0.000000 2.261250 
# 
# From -- ./inp_files/82802.got.cif
#   From: 2010.05.17/outbox.cif.g08.bks.cpg/sg15_42_cif.got.tgz:82802.got - 2010.06.03 18:47:42.
