data_PCOD9293167
_publ_section_title
;
Structure prediction by ZEFSAII (Michael W. Deem and Ramdas Pophale) SiO2 
 PCOD9293167
Probable space group: C 2/C
;
_chemical_formula_sum "Si O2"
_cell_formula_units_Z 36
_cell_length_a 21.188682
_cell_length_b 13.800856
_cell_length_c 12.911617
_cell_angle_alpha 90.000000
_cell_angle_beta 24.365197
_cell_angle_gamma 90.000000
_cell_volume 1557.644823
_symmetry_space_group_name_H-M "C 2/C"
_symmetry_group_IT_number 15
_symmetry_cell_setting 'monoclinic'
loop_
_space_group_symop_operation_xyz
x,y,z
-x,y,1/2-z
-x,-y,-z
x,-y,1/2+z
1/2+x,1/2+y,z
1/2-x,1/2+y,1/2-z
1/2-x,1/2-y,-z
1/2+x,1/2-y,1/2+z
loop_
_atom_site_type_symbol
_atom_site_label
_atom_site_fract_x
_atom_site_fract_y
_atom_site_fract_z
Si Si1 0.413433 0.603357 0.624629
Si Si2 0.500000 0.081787 0.750000
Si Si3 0.329391 0.928028 0.857237
Si Si4 0.541825 0.194661 0.891349
Si Si5 0.179268 0.091150 0.957624
O O1 0.500000 0.500000 0.500000
O O2 0.524436 0.692331 0.437412
O O3 0.303761 0.602775 0.689408
O O4 0.309983 0.625104 0.878320
O O5 0.466293 0.154999 0.897148
O O6 0.390151 0.005832 0.852031
O O7 0.458064 0.863410 0.610679
O O8 0.251364 0.989817 0.883227
O O9 0.719859 0.167853 0.631493
O O10 0.000000 0.094443 0.250000
#
# Coordination Sequence:
#
# PCOD9293167 Si02
#       5
#     8   4   8   8   8
#     4  12  26  45  69 104 145 189 235 299 349 414
#     4  10  22  44  76 104 142 182 236 294 358 426
#     4  11  22  47  73 103 146 185 235 297 358 423
#     4  11  26  44  76 107 139 191 243 285 360 431
#     4  11  24  45  69 104 143 183 243 288 356 420
#
# _framework density 23.111816000000001
#
# number of rings (size 3 to 8) (size 9 to 14) (size 15 to 20)
#    0.000    0.889    2.222    6.000    1.556    4.444 
#    0.000    2.222    0.000    0.000    0.000    0.000 
#    0.000    0.000    0.000    0.000    0.000    0.000 
#
# Total GULP energy -100587.544010 kJ/mol
# GULP energy per Si atom -5588.196889 kJ/mol
# Density = 2.305921 g / cm^3
# Si number density = 23.111816 Si / 1000 Ang^3
#
#
#
# Elastic Constant Matrix: (Units=GPa)
#
#
# Indices 1 2 3 4 5 6 
#
# 1 70.0989 39.0779 3.8325 0.0000 -11.3439 0.0000
# 2 39.0779 145.1179 53.7521 -0.0001 -4.0665 0.0001
# 3 3.8325 53.7521 83.3186 -0.0002 -12.8641 0.0001
# 4 0.0000 -0.0001 -0.0002 29.3094 0.0002 11.4573
# 5 -11.3439 -4.0665 -12.8641 0.0002 32.6983 -0.0001
# 6 0.0000 0.0001 0.0001 11.4573 -0.0001 21.4176
#
#
#
# Elastic Compliance Matrix: (Units=1/GPa)
#
#
# Indices 1 2 3 4 5 6 
#
# 1 0.018884 -0.006547 0.004515 0.000000 0.007514 0.000000
# 2 -0.006547 0.011373 -0.007632 0.000000 -0.003860 0.000000
# 3 0.004515 -0.007632 0.017901 0.000000 0.007660 0.000000
# 4 0.000000 0.000000 0.000000 0.043140 0.000000 -0.023078
# 5 0.007514 -0.003860 0.007660 0.000000 0.035723 0.000000
# 6 0.000000 0.000000 0.000000 -0.023078 0.000000 0.059036
#
#
# Mechanical properties :
#
#
# Convention : Reuss Voigt Hill
#
# Bulk Modulus (GPa) = 34.68548 54.65116 44.66832
# Shear Modulus (GPa) = 23.25650 30.14326 26.69988
#
# Velocity S-wave (km/s) = 3.17560 3.61534 3.40258
# Velocity P-wave (km/s) = 5.33725 6.41290 5.89964
#
# Compressibility (1/GPa) = 0.02883051
#
# Stress axis : x y z
#
# Youngs Moduli (GPa) = 52.95352 87.93024 55.86419
#
# Poissons Ratio (x) = 0.57570 -0.25224
# Poissons Ratio (y) = 0.34670 0.42634
# Poissons Ratio (z) = -0.23910 0.67106
#
# Static dielectric constant tensor:
#      x y z
#    x 1.865850 0.000000 0.033240 
#    y 0.000000 1.947380 0.000000 
#    z 0.033240 0.000000 1.877000 
# 
# From -- ./inp_files/173575.got.cif
#   From: 2010.05.17/outbox.cif.g08.bks.cpg/sg15_87_cif.got.tgz:173575.got - 2010.06.03 18:47:42.
