data_PCOD9293432
_publ_section_title
;
Structure prediction by ZEFSAII (Michael W. Deem and Ramdas Pophale) SiO2 
 PCOD9293432
Probable space group: C 2/C
;
_chemical_formula_sum "Si O2"
_cell_formula_units_Z 36
_cell_length_a 13.197670
_cell_length_b 4.912282
_cell_length_c 18.773577
_cell_angle_alpha 90.000000
_cell_angle_beta 89.274304
_cell_angle_gamma 90.000000
_cell_volume 1217.006079
_symmetry_space_group_name_H-M "C 2/C"
_symmetry_group_IT_number 15
_symmetry_cell_setting 'monoclinic'
loop_
_space_group_symop_operation_xyz
x,y,z
-x,y,1/2-z
-x,-y,-z
x,-y,1/2+z
1/2+x,1/2+y,z
1/2-x,1/2+y,1/2-z
1/2-x,1/2-y,-z
1/2+x,1/2-y,1/2+z
loop_
_atom_site_type_symbol
_atom_site_label
_atom_site_fract_x
_atom_site_fract_y
_atom_site_fract_z
Si Si1 0.039183 0.565846 0.079643
Si Si2 0.398672 0.355168 0.625742
Si Si3 0.211563 0.454834 0.711098
Si Si4 0.500000 0.295750 0.250000
Si Si5 0.146573 0.904242 0.525640
O O1 0.110266 0.302286 0.087045
O O2 0.906883 0.977592 0.051184
O O3 0.000000 0.500000 0.000000
O O4 0.884690 0.183950 0.933953
O O5 0.281354 0.359381 0.645630
O O6 0.456703 0.515692 0.687325
O O7 0.439450 0.045540 0.622871
O O8 0.236333 0.767434 0.727381
O O9 0.093466 0.374724 0.715296
O O10 0.250000 0.750000 0.500000
#
# Coordination Sequence:
#
# PCOD9293432 Si02
#       5
#     8   8   8   4   8
#     4  10  22  45  74 105 152 199 256 318 390 466
#     4  10  23  49  78 109 157 205 267 325 397 481
#     4  10  24  47  74 108 149 200 263 313 390 469
#     4  10  24  50  80 108 154 204 262 324 398 458
#     4  11  24  47  73 114 156 204 257 324 400 468
#
# _framework density 29.580787999999998
#
# number of rings (size 3 to 8) (size 9 to 14) (size 15 to 20)
#    0.000    1.778    0.000    3.333    0.000   14.222 
#   36.000    0.000    0.000    0.000    0.000    0.000 
#    0.000    0.000    0.000    0.000    0.000    0.000 
#
# Total GULP energy -100531.320385 kJ/mol
# GULP energy per Si atom -5585.073355 kJ/mol
# Density = 2.951346 g / cm^3
# Si number density = 29.580788 Si / 1000 Ang^3
#
#
#
# Elastic Constant Matrix: (Units=GPa)
#
#
# Indices 1 2 3 4 5 6 
#
# 1 168.8738 42.1495 68.4592 0.0000 -1.1656 0.0000
# 2 42.1495 220.5298 51.1606 0.0000 -16.8468 0.0000
# 3 68.4592 51.1606 145.4777 0.0000 -21.7538 0.0000
# 4 0.0000 0.0000 0.0000 63.6222 0.0000 -23.5248
# 5 -1.1656 -16.8468 -21.7538 0.0000 66.2660 0.0000
# 6 0.0000 0.0000 0.0000 -23.5248 0.0000 57.4764
#
#
#
# Elastic Compliance Matrix: (Units=1/GPa)
#
#
# Indices 1 2 3 4 5 6 
#
# 1 0.007492 -0.000722 -0.003448 0.000000 -0.001184 0.000000
# 2 -0.000722 0.005040 -0.001307 0.000000 0.000840 0.000000
# 3 -0.003448 -0.001307 0.009357 0.000000 0.002679 0.000000
# 4 0.000000 0.000000 0.000000 0.018521 0.000000 0.007580
# 5 -0.001184 0.000840 0.002679 0.000000 0.016163 0.000000
# 6 0.000000 0.000000 0.000000 0.007580 0.000000 0.020501
#
#
# Mechanical properties :
#
#
# Convention : Reuss Voigt Hill
#
# Bulk Modulus (GPa) = 91.46617 95.37997 93.42307
# Shear Modulus (GPa) = 54.54187 62.34707 58.44447
#
# Velocity S-wave (km/s) = 4.29864 4.59594 4.44977
# Velocity P-wave (km/s) = 7.45826 7.77672 7.61916
#
# Compressibility (1/GPa) = 0.01093300
#
# Stress axis : x y z
#
# Youngs Moduli (GPa) = 133.48197 198.41576 106.87329
#
# Poissons Ratio (x) = 0.14332 0.36855
# Poissons Ratio (y) = 0.09641 0.13968
# Poissons Ratio (z) = 0.46031 0.25932
#
# Static dielectric constant tensor:
#      x y z
#    x 1.801150 0.000000 0.147570 
#    y 0.000000 2.164160 0.000000 
#    z 0.147570 0.000000 2.538930 
# 
# From -- ./inp_files/241455.got.cif
#   From: 2010.05.17/outbox.cif.g08.bks.cpg/sg15_121_cif.got.tgz:241455.got - 2010.06.03 18:47:42.
