data_PCOD9293688
_publ_section_title
;
Structure prediction by ZEFSAII (Michael W. Deem and Ramdas Pophale) SiO2 
 PCOD9293688
Probable space group: C 2/C
;
_chemical_formula_sum "Si O2"
_cell_formula_units_Z 36
_cell_length_a 8.734011
_cell_length_b 14.710955
_cell_length_c 16.850716
_cell_angle_alpha 90.000000
_cell_angle_beta 130.258975
_cell_angle_gamma 90.000000
_cell_volume 1652.236448
_symmetry_space_group_name_H-M "C 2/C"
_symmetry_group_IT_number 15
_symmetry_cell_setting 'monoclinic'
loop_
_space_group_symop_operation_xyz
x,y,z
-x,y,1/2-z
-x,-y,-z
x,-y,1/2+z
1/2+x,1/2+y,z
1/2-x,1/2+y,1/2-z
1/2-x,1/2-y,-z
1/2+x,1/2-y,1/2+z
loop_
_atom_site_type_symbol
_atom_site_label
_atom_site_fract_x
_atom_site_fract_y
_atom_site_fract_z
Si Si1 0.560484 0.080511 0.079266
Si Si2 0.814720 0.619928 0.149960
Si Si3 0.408175 0.724383 0.985367
Si Si4 0.607737 0.451583 0.114217
Si Si5 0.000000 0.996691 0.750000
O O1 0.392930 0.086741 0.091352
O O2 0.795232 0.062248 0.178013
O O3 0.546709 0.180279 0.038729
O O4 0.500000 0.000000 0.000000
O O5 0.615455 0.679774 0.085412
O O6 0.779558 0.525993 0.184854
O O7 0.000000 0.672990 0.250000
O O8 0.250000 0.750000 0.000000
O O9 0.333216 0.647396 0.897964
O O10 0.503241 0.449264 0.166126
O O11 0.500000 0.500000 0.000000
#
# Coordination Sequence:
#
# PCOD9293688 Si02
#       5
#     8   8   8   8   4
#     4  12  25  46  72 105 149 195 249 311 374 444
#     4  11  22  44  70 106 148 187 245 307 377 443
#     4  11  24  46  74 104 147 194 247 310 377 448
#     4  10  22  46  73 104 147 192 246 310 367 447
#     4  12  24  46  76 108 148 206 250 304 388 444
#
# _framework density 21.788647000000001
#
# number of rings (size 3 to 8) (size 9 to 14) (size 15 to 20)
#    0.000    0.889    2.222    7.333    0.000    0.000 
#   10.000    0.000    0.000    0.000    0.000    0.000 
#    0.000    0.000    0.000    0.000    0.000    0.000 
#
# Total GULP energy -100287.688368 kJ/mol
# GULP energy per Si atom -5571.538243 kJ/mol
# Density = 2.173906 g / cm^3
# Si number density = 21.788647 Si / 1000 Ang^3
#
#
#
# Elastic Constant Matrix: (Units=GPa)
#
#
# Indices 1 2 3 4 5 6 
#
# 1 202.2171 78.0719 51.3980 0.0000 -17.0417 0.0000
# 2 78.0719 178.1186 45.2052 0.0000 -8.5153 0.0000
# 3 51.3980 45.2052 92.4183 0.0000 14.9104 0.0000
# 4 0.0000 0.0000 0.0000 6.7025 0.0000 0.9393
# 5 -17.0417 -8.5153 14.9104 0.0000 57.7080 0.0000
# 6 0.0000 0.0000 0.0000 0.9393 0.0000 44.5345
#
#
#
# Elastic Compliance Matrix: (Units=1/GPa)
#
#
# Indices 1 2 3 4 5 6 
#
# 1 0.006746 -0.002034 -0.003161 0.000000 0.002509 0.000000
# 2 -0.002034 0.007215 -0.002580 0.000000 0.001130 0.000000
# 3 -0.003161 -0.002580 0.014664 0.000000 -0.005103 0.000000
# 4 0.000000 0.000000 0.000000 0.149641 0.000000 -0.003156
# 5 0.002509 0.001130 -0.005103 0.000000 0.019555 0.000000
# 6 0.000000 0.000000 0.000000 -0.003156 0.000000 0.022521
#
#
# Mechanical properties :
#
#
# Convention : Reuss Voigt Hill
#
# Bulk Modulus (GPa) = 76.49378 91.34492 83.91935
# Shear Modulus (GPa) = 20.81175 41.66094 31.23634
#
# Velocity S-wave (km/s) = 3.09393 4.37744 3.79041
# Velocity P-wave (km/s) = 6.92435 8.21970 7.59967
#
# Compressibility (1/GPa) = 0.01307296
#
# Stress axis : x y z
#
# Youngs Moduli (GPa) = 148.24670 138.60434 68.19599
#
# Poissons Ratio (x) = 0.28199 0.21557
# Poissons Ratio (y) = 0.30160 0.17594
# Poissons Ratio (z) = 0.46862 0.35759
#
# Static dielectric constant tensor:
#      x y z
#    x 1.809120 0.000000 0.008260 
#    y 0.000000 1.801910 0.000000 
#    z 0.008260 0.000000 2.096240 
# 
# From -- ./inp_files/189098.got.cif
#   From: 2010.05.17/outbox.cif.g08.bks.cpg/sg15_95_cif.got.tgz:189098.got - 2010.06.03 18:47:42.
