data_PCOD9293741
_publ_section_title
;
Structure prediction by ZEFSAII (Michael W. Deem and Ramdas Pophale) SiO2 
 PCOD9293741
Probable space group: C 2/C
;
_chemical_formula_sum "Si O2"
_cell_formula_units_Z 60
_cell_length_a 5.917183
_cell_length_b 24.328005
_cell_length_c 21.939754
_cell_angle_alpha 90.000000
_cell_angle_beta 61.645716
_cell_angle_gamma 90.000000
_cell_volume 2779.390944
_symmetry_space_group_name_H-M "C 2/C"
_symmetry_group_IT_number 15
_symmetry_cell_setting 'monoclinic'
loop_
_space_group_symop_operation_xyz
x,y,z
-x,y,1/2-z
-x,-y,-z
x,-y,1/2+z
1/2+x,1/2+y,z
1/2-x,1/2+y,1/2-z
1/2-x,1/2-y,-z
1/2+x,1/2-y,1/2+z
loop_
_atom_site_type_symbol
_atom_site_label
_atom_site_fract_x
_atom_site_fract_y
_atom_site_fract_z
Si Si1 0.293525 0.049481 0.195809
Si Si2 0.373996 0.181396 0.552922
Si Si3 0.809417 0.323085 0.718519
Si Si4 0.735980 0.201196 0.075171
Si Si5 0.000000 0.453839 0.250000
Si Si6 0.024194 0.094519 0.875181
Si Si7 0.758658 0.516654 0.070129
Si Si8 0.893056 0.110207 0.490593
O O1 0.334570 0.110463 0.215928
O O2 0.332178 0.052966 0.118638
O O3 0.000000 0.035907 0.250000
O O4 0.449857 0.997862 0.202126
O O5 0.289119 0.192670 0.494172
O O6 0.389036 0.243770 0.574686
O O7 0.625391 0.143571 0.519482
O O8 0.154645 0.146779 0.615574
O O9 0.500000 0.311402 0.750000
O O10 0.000000 0.304074 0.750000
O O11 0.957520 0.299638 0.640728
O O12 0.900368 0.147963 0.070375
O O13 0.770736 0.414841 0.301838
O O14 0.077166 0.100085 0.941005
O O15 0.868457 0.038088 0.888411
O O16 0.591385 0.552741 0.046111
O O17 0.000000 0.500000 0.000000
#
# Coordination Sequence:
#
# PCOD9293741 Si02
#       8
#     8   8   8   8   4   8   8   8
#     4  11  24  41  62  92 135 180 219 272 341 419
#     4  10  22  47  65  98 127 170 234 279 355 408
#     4  11  26  45  67 104 139 183 233 288 350 414
#     4  10  24  42  72  94 129 176 226 295 342 409
#     4  12  24  42  62  90 136 176 222 260 338 428
#     4  11  25  41  62  99 129 178 221 275 348 419
#     4  12  23  40  65  96 135 171 221 283 342 414
#     4  11  23  40  70 100 130 168 226 287 347 408
#
# _framework density 21.587461999999999
#
# number of rings (size 3 to 8) (size 9 to 14) (size 15 to 20)
#    0.000    1.067    3.333    2.400    9.333    0.000 
#    1.200    0.000    0.000    0.000    0.000    0.000 
#    0.000    0.000    0.000    0.000    0.000    0.000 
#
# Total GULP energy -167397.158848 kJ/mol
# GULP energy per Si atom -5579.905295 kJ/mol
# Density = 2.153833 g / cm^3
# Si number density = 21.587462 Si / 1000 Ang^3
#
#
#
# Elastic Constant Matrix: (Units=GPa)
#
#
# Indices 1 2 3 4 5 6 
#
# 1 29.5600 -8.8448 -0.6307 0.0000 -7.6498 0.0000
# 2 -8.8448 52.8475 -9.2121 0.0000 -5.8581 0.0000
# 3 -0.6307 -9.2121 77.5441 0.0000 -28.6772 0.0000
# 4 0.0000 0.0000 0.0000 -104.0777 0.0000 4.5454
# 5 -7.6498 -5.8581 -28.6772 0.0000 35.8605 0.0000
# 6 0.0000 0.0000 0.0000 4.5454 0.0000 21.8969
#
#
#
# Elastic Compliance Matrix: (Units=1/GPa)
#
#
# Indices 1 2 3 4 5 6 
#
# 1 0.041307 0.010090 0.007672 0.000000 0.016595 0.000000
# 2 0.010090 0.023145 0.007137 0.000000 0.011640 0.000000
# 3 0.007672 0.007137 0.021075 0.000000 0.019656 0.000000
# 4 0.000000 0.000000 0.000000 -0.009522 0.000000 0.001977
# 5 0.016595 0.011640 0.019656 0.000000 0.049046 0.000000
# 6 0.000000 0.000000 0.000000 0.001977 0.000000 0.045258
#
#
# Mechanical properties :
#
#
# Convention : Reuss Voigt Hill
#
# Bulk Modulus (GPa) = 7.38963 13.61959 10.50461
# Shear Modulus (GPa) = 30.18937 2.64522 16.41730
#
# Velocity S-wave (km/s) = 3.74367 1.10816 2.76071
# Velocity P-wave (km/s) = 4.70290 2.82136 3.87797
#
# Compressibility (1/GPa) = 0.13532481
#
# Stress axis : x y z
#
# Youngs Moduli (GPa) = 24.20899 43.20500 47.44908
#
# Poissons Ratio (x) = -0.43595 -0.36402
# Poissons Ratio (y) = -0.24427 -0.33862
# Poissons Ratio (z) = -0.18573 -0.30834
#
# Static dielectric constant tensor:
#      x y z
#    x 1.856370 0.000000 0.021380 
#    y 0.000000 1.787470 0.000000 
#    z 0.021380 0.000000 1.741580 
# 
# From -- ./inp_files/228603.got.cif
#   From: 2010.05.17/outbox.cif.g08.bks.cpg/sg15_115_cif.got.tgz:228603.got - 2010.06.03 18:47:42.
