data_PCOD9293489
_publ_section_title
;
Structure prediction by ZEFSAII (Michael W. Deem and Ramdas Pophale) SiO2 
 PCOD9293489
Probable space group: C 2/C
;
_chemical_formula_sum "Si O2"
_cell_formula_units_Z 60
_cell_length_a 11.047815
_cell_length_b 16.446568
_cell_length_c 17.061604
_cell_angle_alpha 90.000000
_cell_angle_beta 74.052865
_cell_angle_gamma 90.000000
_cell_volume 2980.765937
_symmetry_space_group_name_H-M "C 2/C"
_symmetry_group_IT_number 15
_symmetry_cell_setting 'monoclinic'
loop_
_space_group_symop_operation_xyz
x,y,z
-x,y,1/2-z
-x,-y,-z
x,-y,1/2+z
1/2+x,1/2+y,z
1/2-x,1/2+y,1/2-z
1/2-x,1/2-y,-z
1/2+x,1/2-y,1/2+z
loop_
_atom_site_type_symbol
_atom_site_label
_atom_site_fract_x
_atom_site_fract_y
_atom_site_fract_z
Si Si1 0.621932 0.742515 0.781528
Si Si2 0.446438 0.967119 0.091328
Si Si3 0.187364 0.475130 0.634300
Si Si4 0.500000 0.457483 0.750000
Si Si5 0.723875 0.906707 0.801002
Si Si6 0.154587 0.144277 0.492549
Si Si7 0.688462 0.203314 0.889796
Si Si8 0.932027 0.076155 0.618852
O O1 0.500000 0.761201 0.750000
O O2 0.657608 0.820796 0.826522
O O3 0.739497 0.723283 0.703288
O O4 0.591563 0.663290 0.837182
O O5 0.555460 0.986007 0.134697
O O6 0.326758 0.022372 0.134406
O O7 0.403251 0.873765 0.099519
O O8 0.500000 0.000000 0.000000
O O9 0.187261 0.433663 0.719330
O O10 0.231232 0.406897 0.564722
O O11 0.299375 0.540681 0.614591
O O12 0.374094 0.404884 0.779325
O O13 0.483300 0.515461 0.677147
O O14 0.203921 0.180211 0.565768
O O15 0.124458 0.216616 0.437587
O O16 0.034782 0.089193 0.533079
#
# Coordination Sequence:
#
# PCOD9293489 Si02
#       8
#     8   8   8   4   8   8   8   8
#     4  12  22  40  66  93 124 169 221 269 316 388
#     4  12  25  42  66  98 133 170 213 272 331 386
#     4  11  23  43  63  96 129 171 214 267 329 386
#     4  10  22  46  64  92 128 176 216 268 328 384
#     4  11  25  42  68  95 130 171 219 266 324 394
#     4  11  21  39  63  95 125 163 220 267 320 389
#     4  11  23  39  63  92 127 168 214 272 323 380
#     4  11  22  39  67  91 124 172 219 263 320 394
#
# _framework density 20.129054
#
# number of rings (size 3 to 8) (size 9 to 14) (size 15 to 20)
#    0.000    0.800    4.667    4.000    1.867    0.000 
#    2.400    0.667    0.000    0.000    0.000    0.000 
#    0.000    0.000    0.000    0.000    0.000    0.000 
#
# Total GULP energy -167814.047553 kJ/mol
# GULP energy per Si atom -5593.801585 kJ/mol
# Density = 2.008324 g / cm^3
# Si number density = 20.129054 Si / 1000 Ang^3
#
#
#
# Elastic Constant Matrix: (Units=GPa)
#
#
# Indices 1 2 3 4 5 6 
#
# 1 78.0154 13.4395 -9.7729 0.0000 6.9919 0.0000
# 2 13.4395 88.3278 -13.2892 0.0000 2.5536 0.0000
# 3 -9.7729 -13.2892 39.4324 0.0000 -12.3301 0.0000
# 4 0.0000 0.0000 0.0000 5.5336 0.0000 1.4743
# 5 6.9919 2.5536 -12.3301 0.0000 21.8362 0.0000
# 6 0.0000 0.0000 0.0000 1.4743 0.0000 32.9333
#
#
#
# Elastic Compliance Matrix: (Units=1/GPa)
#
#
# Indices 1 2 3 4 5 6 
#
# 1 0.013621 -0.001708 0.001820 0.000000 -0.003134 0.000000
# 2 -0.001708 0.012161 0.004131 0.000000 0.001457 0.000000
# 3 0.001820 0.004131 0.032631 0.000000 0.017360 0.000000
# 4 0.000000 0.000000 0.000000 0.182897 0.000000 -0.008188
# 5 -0.003134 0.001457 0.017360 0.000000 0.056431 0.000000
# 6 0.000000 0.000000 0.000000 -0.008188 0.000000 0.030731
#
#
# Mechanical properties :
#
#
# Convention : Reuss Voigt Hill
#
# Bulk Modulus (GPa) = 14.94792 20.72559 17.83675
# Shear Modulus (GPa) = 14.60769 26.42049 20.51409
#
# Velocity S-wave (km/s) = 2.69681 3.62685 3.19584
# Velocity P-wave (km/s) = 4.13995 5.27801 4.74324
#
# Compressibility (1/GPa) = 0.06689895
#
# Stress axis : x y z
#
# Youngs Moduli (GPa) = 73.41548 82.23221 30.64539
#
# Poissons Ratio (x) = 0.14046 -0.05578
# Poissons Ratio (y) = 0.12540 -0.12659
# Poissons Ratio (z) = -0.13364 -0.33967
#
# Static dielectric constant tensor:
#      x y z
#    x 1.690170 0.000000 -0.002990 
#    y 0.000000 1.706230 0.000000 
#    z -0.002990 0.000000 1.715210 
# 
# From -- ./inp_files/197842.got.cif
#   From: 2010.05.17/outbox.cif.g08.bks.cpg/sg15_99_cif.got.tgz:197842.got - 2010.06.03 18:47:42.
