data_PCOD9293250
_publ_section_title
;
Structure prediction by ZEFSAII (Michael W. Deem and Ramdas Pophale) SiO2 
 PCOD9293250
Probable space group: C 2/C
;
_chemical_formula_sum "Si O2"
_cell_formula_units_Z 48
_cell_length_a 23.546398
_cell_length_b 7.781627
_cell_length_c 11.305677
_cell_angle_alpha 90.000000
_cell_angle_beta 95.924835
_cell_angle_gamma 90.000000
_cell_volume 2060.465358
_symmetry_space_group_name_H-M "C 2/C"
_symmetry_group_IT_number 15
_symmetry_cell_setting 'monoclinic'
loop_
_space_group_symop_operation_xyz
x,y,z
-x,y,1/2-z
-x,-y,-z
x,-y,1/2+z
1/2+x,1/2+y,z
1/2-x,1/2+y,1/2-z
1/2-x,1/2-y,-z
1/2+x,1/2-y,1/2+z
loop_
_atom_site_type_symbol
_atom_site_label
_atom_site_fract_x
_atom_site_fract_y
_atom_site_fract_z
Si Si1 0.879222 0.160048 0.769685
Si Si2 0.904479 0.789742 0.681459
Si Si3 0.813625 0.805676 0.490385
Si Si4 0.682215 0.716139 0.980231
Si Si5 0.079811 0.628072 0.577341
Si Si6 0.969763 0.249115 0.964888
O O1 0.838609 0.226359 0.866470
O O2 0.852308 0.248688 0.649065
O O3 0.942574 0.183699 0.837593
O O4 0.880311 0.957007 0.743022
O O5 0.851062 0.713465 0.598805
O O6 0.930062 0.665481 0.785823
O O7 0.946517 0.836671 0.581516
O O8 0.750000 0.750000 0.500000
O O9 0.822069 0.011103 0.502451
O O10 0.750000 0.750000 0.000000
O O11 0.645295 0.826147 0.065264
O O12 0.056926 0.441485 0.537970
O O13 0.037648 0.750218 0.492163
#
# Coordination Sequence:
#
# PCOD9293250 Si02
#       6
#     8   8   8   8   8   8
#     4  10  23  45  66  98 134 176 232 280 347 413
#     4  10  22  45  67 100 134 173 235 288 345 416
#     4  10  23  42  66  97 133 182 228 276 340 412
#     4  11  26  41  64 101 135 180 225 284 346 413
#     4  11  24  45  66 101 141 176 239 285 355 427
#     4  10  25  44  71  99 135 188 228 291 359 420
#
# _framework density 23.295707
#
# number of rings (size 3 to 8) (size 9 to 14) (size 15 to 20)
#    0.000    1.667    1.667    0.500    9.333    1.333 
#    6.000    0.000    0.000    0.000    0.000    0.000 
#    0.000    0.000    0.000    0.000    0.000    0.000 
#
# Total GULP energy -133949.614459 kJ/mol
# GULP energy per Si atom -5581.233936 kJ/mol
# Density = 2.324268 g / cm^3
# Si number density = 23.295707 Si / 1000 Ang^3
#
#
#
# Elastic Constant Matrix: (Units=GPa)
#
#
# Indices 1 2 3 4 5 6 
#
# 1 133.7540 3.0415 25.8924 0.0000 8.7451 0.0000
# 2 3.0415 48.2230 17.5979 0.0000 -9.2331 0.0000
# 3 25.8924 17.5979 123.9212 0.0000 14.9467 0.0000
# 4 0.0000 0.0000 0.0000 25.1626 0.0000 3.5682
# 5 8.7451 -9.2331 14.9467 0.0000 20.5643 0.0000
# 6 0.0000 0.0000 0.0000 3.5682 0.0000 24.9973
#
#
#
# Elastic Compliance Matrix: (Units=1/GPa)
#
#
# Indices 1 2 3 4 5 6 
#
# 1 0.007908 -0.000563 -0.001245 0.000000 -0.002711 0.000000
# 2 -0.000563 0.025780 -0.005446 0.000000 0.015772 0.000000
# 3 -0.001245 -0.005446 0.010231 0.000000 -0.009352 0.000000
# 4 0.000000 0.000000 0.000000 0.040563 0.000000 -0.005790
# 5 -0.002711 0.015772 -0.009352 0.000000 0.063659 0.000000
# 6 0.000000 0.000000 0.000000 -0.005790 0.000000 0.040831
#
#
# Mechanical properties :
#
#
# Convention : Reuss Voigt Hill
#
# Bulk Modulus (GPa) = 34.00214 44.32907 39.16561
# Shear Modulus (GPa) = 23.44307 31.43593 27.43950
#
# Velocity S-wave (km/s) = 3.17571 3.67744 3.43575
# Velocity P-wave (km/s) = 5.29853 6.09111 5.70859
#
# Compressibility (1/GPa) = 0.02940991
#
# Stress axis : x y z
#
# Youngs Moduli (GPa) = 126.46217 38.79034 97.74108
#
# Poissons Ratio (x) = 0.02185 0.12172
# Poissons Ratio (y) = 0.07123 0.53226
# Poissons Ratio (z) = 0.15748 0.21124
#
# Static dielectric constant tensor:
#      x y z
#    x 1.891180 0.000000 0.012960 
#    y 0.000000 1.939030 0.000000 
#    z 0.012960 0.000000 2.033200 
# 
# From -- ./inp_files/116266.got.cif
#   From: 2010.05.17/outbox.cif.g08.bks.cpg/sg15_59_cif.got.tgz:116266.got - 2010.06.03 18:47:42.
