data_PCOD9293523
_publ_section_title
;
Structure prediction by ZEFSAII (Michael W. Deem and Ramdas Pophale) SiO2 
 PCOD9293523
Probable space group: C 2/C
;
_chemical_formula_sum "Si O2"
_cell_formula_units_Z 40
_cell_length_a 8.995093
_cell_length_b 17.994258
_cell_length_c 11.326893
_cell_angle_alpha 90.000000
_cell_angle_beta 100.768052
_cell_angle_gamma 90.000000
_cell_volume 1801.088408
_symmetry_space_group_name_H-M "C 2/C"
_symmetry_group_IT_number 15
_symmetry_cell_setting 'monoclinic'
loop_
_space_group_symop_operation_xyz
x,y,z
-x,y,1/2-z
-x,-y,-z
x,-y,1/2+z
1/2+x,1/2+y,z
1/2-x,1/2+y,1/2-z
1/2-x,1/2-y,-z
1/2+x,1/2-y,1/2+z
loop_
_atom_site_type_symbol
_atom_site_label
_atom_site_fract_x
_atom_site_fract_y
_atom_site_fract_z
Si Si1 0.701670 0.730022 0.624404
Si Si2 0.500000 0.022710 0.250000
Si Si3 0.243307 0.410888 0.231487
Si Si4 0.274965 0.376456 0.780095
Si Si5 0.500000 0.513865 0.250000
Si Si6 0.364482 0.681108 0.532087
O O1 0.750000 0.750000 0.500000
O O2 0.788697 0.657652 0.686518
O O3 0.729512 0.800348 0.711907
O O4 0.524883 0.710543 0.599431
O O5 0.601268 0.965005 0.189966
O O6 0.369036 0.079003 0.188912
O O7 0.388791 0.457380 0.303932
O O8 0.297188 0.375424 0.117351
O O9 0.365886 0.427717 0.699810
O O10 0.378847 0.358015 0.907476
O O11 0.250000 0.750000 0.500000
#
# Coordination Sequence:
#
# PCOD9293523 Si02
#       6
#     8   4   8   8   4   8
#     4  12  26  45  72 102 136 182 233 281 334 410
#     4  10  26  46  66 102 142 176 228 288 334 412
#     4  11  24  47  69  99 139 178 231 277 347 400
#     4  11  24  46  70 102 137 178 232 278 341 404
#     4  10  22  46  66  98 140 180 220 280 340 412
#     4  12  24  42  76  99 135 180 226 286 335 402
#
# _framework density 22.208794000000001
#
# number of rings (size 3 to 8) (size 9 to 14) (size 15 to 20)
#    0.000    0.800    4.000    2.400    2.800    2.400 
#   14.400    0.000    0.000    0.000    0.000    0.000 
#    0.000    0.000    0.000    0.000    0.000    0.000 
#
# Total GULP energy -111464.931574 kJ/mol
# GULP energy per Si atom -5573.246579 kJ/mol
# Density = 2.215825 g / cm^3
# Si number density = 22.208794 Si / 1000 Ang^3
#
#
#
# Elastic Constant Matrix: (Units=GPa)
#
#
# Indices 1 2 3 4 5 6 
#
# 1 93.9645 42.3453 8.8969 0.0000 -2.8500 0.0000
# 2 42.3453 142.8542 34.7928 0.0000 3.3300 0.0000
# 3 8.8969 34.7928 92.7385 0.0000 -11.1580 0.0000
# 4 0.0000 0.0000 0.0000 -1.2298 0.0000 1.7857
# 5 -2.8500 3.3300 -11.1580 0.0000 26.0654 0.0000
# 6 0.0000 0.0000 0.0000 1.7857 0.0000 53.6837
#
#
#
# Elastic Compliance Matrix: (Units=1/GPa)
#
#
# Indices 1 2 3 4 5 6 
#
# 1 0.012389 -0.003842 0.000501 0.000000 0.002060 0.000000
# 2 -0.003842 0.009034 -0.003384 0.000000 -0.003023 0.000000
# 3 0.000501 -0.003384 0.012718 0.000000 0.005932 0.000000
# 4 0.000000 0.000000 0.000000 -0.775687 0.000000 0.025801
# 5 0.002060 -0.003023 0.005932 0.000000 0.041516 0.000000
# 6 0.000000 0.000000 0.000000 0.025801 0.000000 0.017769
#
#
# Mechanical properties :
#
#
# Convention : Reuss Voigt Hill
#
# Bulk Modulus (GPa) = 48.33391 55.73636 52.03514
# Shear Modulus (GPa) = -7.55386 31.93867 12.19240
#
# Velocity S-wave (km/s) = -1.84626 3.79636 2.34560
# Velocity P-wave (km/s) = 4.15521 6.66089 5.55127
#
# Compressibility (1/GPa) = 0.02068941
#
# Stress axis : x y z
#
# Youngs Moduli (GPa) = 80.71707 110.69476 78.62667
#
# Poissons Ratio (x) = 0.42533 -0.03938
# Poissons Ratio (y) = 0.31015 0.26610
# Poissons Ratio (z) = -0.04043 0.37463
#
# Static dielectric constant tensor:
#      x y z
#    x 1.826150 0.000000 0.000410 
#    y 0.000000 1.864270 0.000000 
#    z 0.000410 0.000000 1.803990 
# 
# From -- ./inp_files/76948.got.cif
#   From: 2010.05.17/outbox.cif.g08.bks.cpg/sg15_39_cif.got.tgz:76948.got - 2010.06.03 18:47:42.
