data_PCOD9293198
_publ_section_title
;
Structure prediction by ZEFSAII (Michael W. Deem and Ramdas Pophale) SiO2 
 PCOD9293198
Probable space group: C 2/C
;
_chemical_formula_sum "Si O2"
_cell_formula_units_Z 48
_cell_length_a 22.543753
_cell_length_b 11.981593
_cell_length_c 27.730032
_cell_angle_alpha 90.000000
_cell_angle_beta 14.368329
_cell_angle_gamma 90.000000
_cell_volume 1858.716792
_symmetry_space_group_name_H-M "C 2/C"
_symmetry_group_IT_number 15
_symmetry_cell_setting 'monoclinic'
loop_
_space_group_symop_operation_xyz
x,y,z
-x,y,1/2-z
-x,-y,-z
x,-y,1/2+z
1/2+x,1/2+y,z
1/2-x,1/2+y,1/2-z
1/2-x,1/2-y,-z
1/2+x,1/2-y,1/2+z
loop_
_atom_site_type_symbol
_atom_site_label
_atom_site_fract_x
_atom_site_fract_y
_atom_site_fract_z
Si Si1 0.248057 0.412607 0.831762
Si Si2 0.760205 0.628552 0.970043
Si Si3 0.215239 0.397014 0.514281
Si Si4 0.661791 0.991706 0.795885
Si Si5 0.993276 0.187558 0.515743
Si Si6 0.789233 0.202972 0.052940
O O1 0.518030 0.382359 0.630433
O O2 0.734856 0.028644 0.495152
O O3 0.248776 0.485592 0.782837
O O4 0.089149 0.301072 0.945390
O O5 0.000000 0.615107 0.750000
O O6 0.750000 0.750000 0.000000
O O7 0.115300 0.519167 0.478354
O O8 0.947934 0.359732 0.741269
O O9 0.259225 0.324089 0.432331
O O10 0.367022 0.362626 0.442872
O O11 0.771448 0.879102 0.687489
O O12 0.785602 0.095935 0.672414
O O13 0.041025 0.207798 0.534731
#
# Coordination Sequence:
#
# PCOD9293198 Si02
#       6
#     8   8   8   8   8   8
#     4  11  26  50  76 115 160 210 277 320 412 481
#     4  12  29  54  79 112 163 228 275 333 393 504
#     4  10  23  50  76 114 161 199 270 333 421 497
#     4  10  25  45  74 114 156 214 251 348 404 486
#     4  11  24  44  79 114 162 199 269 341 404 488
#     4  10  22  44  79 118 151 203 256 345 426 473
#
# _framework density 25.824266999999999
#
# number of rings (size 3 to 8) (size 9 to 14) (size 15 to 20)
#    0.000    1.333    1.667    2.000    9.333    1.333 
#   15.000    0.000    0.000    0.000    0.000    0.000 
#    0.000    0.000    0.000    0.000    0.000    0.000 
#
# Total GULP energy -134403.735935 kJ/mol
# GULP energy per Si atom -5600.155664 kJ/mol
# Density = 2.576549 g / cm^3
# Si number density = 25.824267 Si / 1000 Ang^3
#
#
#
# Elastic Constant Matrix: (Units=GPa)
#
#
# Indices 1 2 3 4 5 6 
#
# 1 106.3570 41.1439 51.6651 0.0311 -2.1640 0.0659
# 2 41.1439 208.8990 48.7829 0.2646 3.2805 0.2642
# 3 51.6651 48.7829 145.4092 0.2575 4.0865 0.4165
# 4 0.0311 0.2646 0.2575 37.0418 0.1169 15.6784
# 5 -2.1640 3.2805 4.0865 0.1169 38.0712 0.1191
# 6 0.0659 0.2642 0.4165 15.6784 0.1191 30.6524
#
#
#
# Elastic Compliance Matrix: (Units=1/GPa)
#
#
# Indices 1 2 3 4 5 6 
#
# 1 0.011811 -0.001473 -0.003736 0.000011 0.001199 0.000028
# 2 -0.001473 0.005380 -0.001270 -0.000021 -0.000411 -0.000013
# 3 -0.003736 -0.001270 0.008660 -0.000006 -0.001032 -0.000092
# 4 0.000011 -0.000021 -0.000006 0.034456 -0.000048 -0.017624
# 5 0.001199 -0.000411 -0.001032 -0.000048 0.026481 -0.000064
# 6 0.000028 -0.000013 -0.000092 -0.017624 -0.000064 0.041640
#
#
# Mechanical properties :
#
#
# Convention : Reuss Voigt Hill
#
# Bulk Modulus (GPa) = 77.55976 82.64991 80.10483
# Shear Modulus (GPa) = 34.32058 42.42464 38.37261
#
# Velocity S-wave (km/s) = 3.64951 4.05757 3.85894
# Velocity P-wave (km/s) = 6.91790 7.35024 7.13735
#
# Compressibility (1/GPa) = 0.01289328
#
# Stress axis : x y z
#
# Youngs Moduli (GPa) = 84.66382 185.86857 115.47198
#
# Poissons Ratio (x) = 0.27372 0.43145
# Poissons Ratio (y) = 0.12468 0.14666
# Poissons Ratio (z) = 0.31634 0.23607
#
# Static dielectric constant tensor:
#      x y z
#    x 2.129410 0.000840 0.079930 
#    y 0.000840 2.056500 0.001140 
#    z 0.079930 0.001140 2.155310 
# 
# From -- ./inp_files/317846.got.cif
#   From: 2010.05.17/outbox.cif.g08.bks.cpg/sg15_159_cif.got.tgz:317846.got - 2010.06.03 18:47:42.
