data_PCOD9293322
_publ_section_title
;
Structure prediction by ZEFSAII (Michael W. Deem and Ramdas Pophale) SiO2 
 PCOD9293322
Probable space group: C 2/C
;
_chemical_formula_sum "Si O2"
_cell_formula_units_Z 48
_cell_length_a 7.091721
_cell_length_b 16.906499
_cell_length_c 25.330332
_cell_angle_alpha 90.000000
_cell_angle_beta 48.810806
_cell_angle_gamma 90.000000
_cell_volume 2285.468766
_symmetry_space_group_name_H-M "C 2/C"
_symmetry_group_IT_number 15
_symmetry_cell_setting 'monoclinic'
loop_
_space_group_symop_operation_xyz
x,y,z
-x,y,1/2-z
-x,-y,-z
x,-y,1/2+z
1/2+x,1/2+y,z
1/2-x,1/2+y,1/2-z
1/2-x,1/2-y,-z
1/2+x,1/2-y,1/2+z
loop_
_atom_site_type_symbol
_atom_site_label
_atom_site_fract_x
_atom_site_fract_y
_atom_site_fract_z
Si Si1 0.210168 0.094414 0.304465
Si Si2 0.068891 0.057251 0.676519
Si Si3 0.674212 0.333081 0.357230
Si Si4 0.000000 0.197967 0.250000
Si Si5 0.135536 0.883353 0.935851
Si Si6 0.750000 0.250000 0.000000
Si Si7 0.352889 0.057283 0.915700
O O1 0.500000 0.069203 0.250000
O O2 0.156953 0.145285 0.261981
O O3 0.153928 0.136394 0.370433
O O4 0.025595 0.019969 0.336590
O O5 0.365481 0.067194 0.616013
O O6 0.000000 0.046070 0.750000
O O7 0.912180 0.129028 0.681509
O O8 0.428657 0.311434 0.435117
O O9 0.823019 0.396000 0.365894
O O10 0.831212 0.255020 0.316890
O O11 0.239174 0.810697 0.950294
O O12 0.289426 0.964745 0.918340
O O13 0.852317 0.905440 0.006556
#
# Coordination Sequence:
#
# PCOD9293322 Si02
#       7
#     8   8   8   4   8   4   8
#     4  12  26  44  70 103 137 181 228 282 342 411
#     4  12  25  41  73 101 132 183 232 278 337 416
#     4  11  25  45  66  99 138 177 225 286 337 410
#     4  12  28  44  70 102 142 180 220 290 350 396
#     4  10  22  45  70 100 142 177 228 287 336 410
#     4  10  24  42  70  98 142 178 220 286 352 384
#     4  10  23  44  70 100 132 183 231 277 337 406
#
# _framework density 21.002255999999999
#
# number of rings (size 3 to 8) (size 9 to 14) (size 15 to 20)
#    0.000    1.000    2.500    3.000    3.500    6.667 
#    0.000    3.333    0.000    0.000    0.000    0.000 
#    0.000    0.000    0.000    0.000    0.000    0.000 
#
# Total GULP energy -133723.025872 kJ/mol
# GULP energy per Si atom -5571.792745 kJ/mol
# Density = 2.095445 g / cm^3
# Si number density = 21.002256 Si / 1000 Ang^3
#
#
#
# Elastic Constant Matrix: (Units=GPa)
#
#
# Indices 1 2 3 4 5 6 
#
# 1 112.9232 51.6413 23.6860 -0.0463 -8.4057 -0.0221
# 2 51.6413 73.6990 -7.0629 -0.0221 -2.9970 -0.0083
# 3 23.6860 -7.0629 59.2291 -0.0167 11.7925 -0.0048
# 4 -0.0463 -0.0221 -0.0167 164.4995 0.0347 83.9352
# 5 -8.4057 -2.9970 11.7925 0.0347 37.9965 0.0159
# 6 -0.0221 -0.0083 -0.0048 83.9352 0.0159 74.9067
#
#
#
# Elastic Compliance Matrix: (Units=1/GPa)
#
#
# Indices 1 2 3 4 5 6 
#
# 1 0.017025 -0.012603 -0.009447 0.000000 0.005704 0.000002
# 2 -0.012603 0.023069 0.008510 0.000003 -0.003610 -0.000003
# 3 -0.009447 0.008510 0.023405 0.000005 -0.008683 -0.000004
# 4 0.000000 0.000003 0.000005 0.014195 -0.000008 -0.015906
# 5 0.005704 -0.003610 -0.008683 -0.000008 0.029990 0.000003
# 6 0.000002 -0.000003 -0.000004 -0.015906 0.000003 0.031173
#
#
# Mechanical properties :
#
#
# Convention : Reuss Voigt Hill
#
# Bulk Modulus (GPa) = 27.45930 42.48667 34.97299
# Shear Modulus (GPa) = 28.07763 67.31968 47.69865
#
# Velocity S-wave (km/s) = 3.66031 5.66773 4.77080
# Velocity P-wave (km/s) = 5.56477 7.94382 6.85824
#
# Compressibility (1/GPa) = 0.03641753
#
# Stress axis : x y z
#
# Youngs Moduli (GPa) = 58.73585 43.34904 42.72582
#
# Poissons Ratio (x) = 0.54634 0.40364
# Poissons Ratio (y) = 0.74026 -0.36358
# Poissons Ratio (z) = 0.55489 -0.36888
#
# Static dielectric constant tensor:
#      x y z
#    x 1.737240 0.000000 -0.004620 
#    y 0.000000 1.731610 0.000000 
#    z -0.004620 0.000000 1.752600 
# 
# From -- ./inp_files/285769.got.cif
#   From: 2010.05.17/outbox.cif.g08.bks.cpg/sg15_143_cif.got.tgz:285769.got - 2010.06.03 18:47:42.
