data_PCOD9293426
_publ_section_title
;
Structure prediction by ZEFSAII (Michael W. Deem and Ramdas Pophale) SiO2 
 PCOD9293426
Probable space group: C 2/C
;
_chemical_formula_sum "Si O2"
_cell_formula_units_Z 52
_cell_length_a 7.784720
_cell_length_b 20.841065
_cell_length_c 13.370463
_cell_angle_alpha 90.000000
_cell_angle_beta 83.868222
_cell_angle_gamma 90.000000
_cell_volume 2156.838137
_symmetry_space_group_name_H-M "C 2/C"
_symmetry_group_IT_number 15
_symmetry_cell_setting 'monoclinic'
loop_
_space_group_symop_operation_xyz
x,y,z
-x,y,1/2-z
-x,-y,-z
x,-y,1/2+z
1/2+x,1/2+y,z
1/2-x,1/2+y,1/2-z
1/2-x,1/2-y,-z
1/2+x,1/2-y,1/2+z
loop_
_atom_site_type_symbol
_atom_site_label
_atom_site_fract_x
_atom_site_fract_y
_atom_site_fract_z
Si Si1 0.786039 0.466990 0.458982
Si Si2 0.645886 0.765426 0.106683
Si Si3 0.166316 0.593728 0.173123
Si Si4 0.335875 0.818859 0.007570
Si Si5 0.182879 0.560187 0.888366
Si Si6 0.828558 0.120418 0.694574
Si Si7 0.000000 0.846235 0.750000
O O1 0.786507 0.531999 0.394982
O O2 0.744791 0.492769 0.573180
O O3 0.665771 0.415056 0.413241
O O4 0.983430 0.441925 0.437742
O O5 0.486165 0.806879 0.077643
O O6 0.752903 0.809126 0.177509
O O7 0.574275 0.701165 0.160388
O O8 0.750000 0.750000 0.000000
O O9 0.337522 0.614042 0.220979
O O10 0.000000 0.578854 0.250000
O O11 0.113384 0.652823 0.103202
O O12 0.231425 0.877735 0.063075
O O13 0.250000 0.750000 0.000000
O O14 0.204456 0.575275 0.770814
O O15 0.000000 0.123113 0.750000
#
# Coordination Sequence:
#
# PCOD9293426 Si02
#       7
#     8   8   8   8   8   8   4
#     4  10  23  45  72 104 138 190 244 309 369 447
#     4  12  27  45  69 104 146 190 253 309 377 454
#     4  11  24  42  69 103 140 186 245 305 379 452
#     4  11  22  42  68  92 132 186 233 298 369 443
#     4  10  22  45  73  99 139 187 245 298 375 442
#     4  12  27  43  71 108 146 195 245 310 371 457
#     4  12  26  46  72 102 148 198 242 318 380 454
#
# _framework density 24.109366999999999
#
# number of rings (size 3 to 8) (size 9 to 14) (size 15 to 20)
#    0.000    0.923    3.077    3.231    3.231    1.231 
#    2.769    0.000    0.000    0.000    0.000    0.000 
#    0.000    0.000    0.000    0.000    0.000    0.000 
#
# Total GULP energy -145469.149205 kJ/mol
# GULP energy per Si atom -5594.967277 kJ/mol
# Density = 2.405449 g / cm^3
# Si number density = 24.109367 Si / 1000 Ang^3
#
#
#
# Elastic Constant Matrix: (Units=GPa)
#
#
# Indices 1 2 3 4 5 6 
#
# 1 112.1637 34.5321 28.6759 0.0000 28.9251 0.0000
# 2 34.5321 100.7069 13.1773 0.0000 11.8733 0.0000
# 3 28.6759 13.1773 81.7844 0.0000 -0.7400 0.0000
# 4 0.0000 0.0000 0.0000 58.8795 0.0000 19.6502
# 5 28.9251 11.8733 -0.7400 0.0000 46.2474 0.0000
# 6 0.0000 0.0000 0.0000 19.6502 0.0000 34.7037
#
#
#
# Elastic Compliance Matrix: (Units=1/GPa)
#
#
# Indices 1 2 3 4 5 6 
#
# 1 0.012745 -0.002983 -0.004054 0.000000 -0.007271 0.000000
# 2 -0.002983 0.011172 -0.000763 0.000000 -0.001015 0.000000
# 3 -0.004054 -0.000763 0.013798 0.000000 0.002952 0.000000
# 4 0.000000 0.000000 0.000000 0.020941 0.000000 -0.011857
# 5 -0.007271 -0.001015 0.002952 0.000000 0.026478 0.000000
# 6 0.000000 0.000000 0.000000 -0.011857 0.000000 0.035529
#
#
# Mechanical properties :
#
#
# Convention : Reuss Voigt Hill
#
# Bulk Modulus (GPa) = 45.21719 49.71395 47.46557
# Shear Modulus (GPa) = 34.81012 42.51741 38.66377
#
# Velocity S-wave (km/s) = 3.80391 4.20399 4.00894
# Velocity P-wave (km/s) = 6.17161 6.65054 6.41554
#
# Compressibility (1/GPa) = 0.02211548
#
# Stress axis : x y z
#
# Youngs Moduli (GPa) = 78.46082 89.50858 72.47188
#
# Poissons Ratio (x) = 0.26697 0.29380
# Poissons Ratio (y) = 0.23402 0.05533
# Poissons Ratio (z) = 0.31808 0.06834
#
# Static dielectric constant tensor:
#      x y z
#    x 2.054960 0.000000 -0.045310 
#    y 0.000000 2.048900 0.000000 
#    z -0.045310 0.000000 2.036660 
# 
# From -- ./inp_files/136066.got.cif
#   From: 2010.05.17/outbox.cif.g08.bks.cpg/sg15_69_cif.got.tgz:136066.got - 2010.06.03 18:47:42.
