data_PCOD9293454
_publ_section_title
;
Structure prediction by ZEFSAII (Michael W. Deem and Ramdas Pophale) SiO2 
 PCOD9293454
Probable space group: C 2/C
;
_chemical_formula_sum "Si O2"
_cell_formula_units_Z 24
_cell_length_a 6.751326
_cell_length_b 17.234798
_cell_length_c 10.759519
_cell_angle_alpha 90.000000
_cell_angle_beta 131.220328
_cell_angle_gamma 90.000000
_cell_volume 941.695701
_symmetry_space_group_name_H-M "C 2/C"
_symmetry_group_IT_number 15
_symmetry_cell_setting 'monoclinic'
loop_
_space_group_symop_operation_xyz
x,y,z
-x,y,1/2-z
-x,-y,-z
x,-y,1/2+z
1/2+x,1/2+y,z
1/2-x,1/2+y,1/2-z
1/2-x,1/2-y,-z
1/2+x,1/2-y,1/2+z
loop_
_atom_site_type_symbol
_atom_site_label
_atom_site_fract_x
_atom_site_fract_y
_atom_site_fract_z
Si Si1 0.433347 0.179294 0.959938
Si Si2 0.264177 0.547516 0.077720
Si Si3 0.930073 0.148642 0.921092
O O1 0.688308 0.130964 0.103157
O O2 0.517984 0.268481 0.991835
O O3 0.306614 0.157777 0.775209
O O4 0.205936 0.149495 0.959824
O O5 0.361293 0.575960 0.981544
O O6 0.000000 0.500000 0.000000
O O7 0.000000 0.990563 0.750000
#
# Coordination Sequence:
#
# PCOD9293454 Si02
#       3
#     8   8   8
#     4  10  22  45  77 112 142 192 249 318 371 442
#     4  12  28  47  70 103 151 202 248 303 378 450
#     4  10  22  45  79 110 147 187 255 312 378 445
#
# _framework density 25.485938999999998
#
# number of rings (size 3 to 8) (size 9 to 14) (size 15 to 20)
#    0.000    1.333    0.000    4.000    4.667    5.333 
#    6.000    0.000    0.000    0.000    0.000    0.000 
#    0.000    0.000    0.000    0.000    0.000    0.000 
#
# Total GULP energy -66966.534727 kJ/mol
# GULP energy per Si atom -5580.544561 kJ/mol
# Density = 2.542793 g / cm^3
# Si number density = 25.485939 Si / 1000 Ang^3
#
#
#
# Elastic Constant Matrix: (Units=GPa)
#
#
# Indices 1 2 3 4 5 6 
#
# 1 183.3984 64.6478 68.0118 0.0000 -13.5647 0.0000
# 2 64.6478 143.1351 53.5956 0.0000 -8.6700 0.0000
# 3 68.0118 53.5956 91.3656 0.0000 -9.9836 0.0000
# 4 0.0000 0.0000 0.0000 29.1308 0.0000 -0.6024
# 5 -13.5647 -8.6700 -9.9836 0.0000 56.6987 0.0000
# 6 0.0000 0.0000 0.0000 -0.6024 0.0000 59.0459
#
#
#
# Elastic Compliance Matrix: (Units=1/GPa)
#
#
# Indices 1 2 3 4 5 6 
#
# 1 0.007890 -0.001729 -0.004774 0.000000 0.000783 0.000000
# 2 -0.001729 0.009343 -0.004163 0.000000 0.000282 0.000000
# 3 -0.004774 -0.004163 0.017075 0.000000 0.001228 0.000000
# 4 0.000000 0.000000 0.000000 0.034335 0.000000 0.000350
# 5 0.000783 0.000282 0.001228 0.000000 0.018084 0.000000
# 6 0.000000 0.000000 0.000000 0.000350 0.000000 0.016940
#
#
# Mechanical properties :
#
#
# Convention : Reuss Voigt Hill
#
# Bulk Modulus (GPa) = 77.05926 87.82327 82.44126
# Shear Modulus (GPa) = 38.66275 44.41799 41.54037
#
# Velocity S-wave (km/s) = 3.89912 4.17927 4.04162
# Velocity P-wave (km/s) = 7.11144 7.60412 7.36190
#
# Compressibility (1/GPa) = 0.01297703
#
# Stress axis : x y z
#
# Youngs Moduli (GPa) = 126.73936 107.03087 58.56567
#
# Poissons Ratio (x) = 0.18503 0.27958
# Poissons Ratio (y) = 0.21910 0.24381
# Poissons Ratio (z) = 0.60503 0.44557
#
# Static dielectric constant tensor:
#      x y z
#    x 2.091430 0.000000 -0.081640 
#    y 0.000000 2.036770 0.000000 
#    z -0.081640 0.000000 2.025370 
# 
# From -- ./inp_files/21155.got.cif
#   From: 2010.05.17/outbox.cif.g08.bks.cpg/sg15_11_cif.got.tgz:21155.got - 2010.06.03 18:47:42.
