data_PCOD9293112
_publ_section_title
;
Structure prediction by ZEFSAII (Michael W. Deem and Ramdas Pophale) SiO2 
 PCOD9293112
Probable space group: C 2/C
;
_chemical_formula_sum "Si O2"
_cell_formula_units_Z 36
_cell_length_a 16.100104
_cell_length_b 7.272236
_cell_length_c 12.609220
_cell_angle_alpha 90.000000
_cell_angle_beta 119.870155
_cell_angle_gamma 90.000000
_cell_volume 1280.213040
_symmetry_space_group_name_H-M "C 2/C"
_symmetry_group_IT_number 15
_symmetry_cell_setting 'monoclinic'
loop_
_space_group_symop_operation_xyz
x,y,z
-x,y,1/2-z
-x,-y,-z
x,-y,1/2+z
1/2+x,1/2+y,z
1/2-x,1/2+y,1/2-z
1/2-x,1/2-y,-z
1/2+x,1/2-y,1/2+z
loop_
_atom_site_type_symbol
_atom_site_label
_atom_site_fract_x
_atom_site_fract_y
_atom_site_fract_z
Si Si1 0.587554 0.769192 0.056902
Si Si2 0.870653 0.312348 0.864220
Si Si3 0.250000 0.250000 0.500000
Si Si4 0.383760 0.643944 0.651222
Si Si5 0.609657 0.256971 0.790681
O O1 0.616673 0.655960 0.178768
O O2 0.609375 0.968198 0.122811
O O3 0.474848 0.738698 0.966694
O O4 0.632892 0.734298 0.972869
O O5 0.795089 0.266382 0.905003
O O6 0.843229 0.236447 0.731126
O O7 0.333917 0.108592 0.606559
O O8 0.500000 0.636859 0.750000
O O9 0.349038 0.430682 0.611661
O O10 0.500000 0.226590 0.750000
#
# Coordination Sequence:
#
# PCOD9293112 Si02
#       5
#     8   8   4   8   8
#     4  10  22  44  73  98 136 186 229 286 348 411
#     4  10  23  42  70 101 139 177 236 285 346 414
#     4  12  26  42  68 106 134 184 236 286 344 426
#     4   9  22  41  70 103 132 179 237 281 347 424
#     4  11  24  43  72  97 140 184 229 290 354 413
#
# _framework density 28.120318999999999
#
# number of rings (size 3 to 8) (size 9 to 14) (size 15 to 20)
#    0.000    1.778    2.222    0.000    6.222    5.333 
#    0.000    2.222    0.000    0.000    0.000    0.000 
#    0.000    0.000    0.000    0.000    0.000    0.000 
#
# Total GULP energy -100390.225483 kJ/mol
# GULP energy per Si atom -5577.234749 kJ/mol
# Density = 2.805632 g / cm^3
# Si number density = 28.120319 Si / 1000 Ang^3
#
#
#
# Elastic Constant Matrix: (Units=GPa)
#
#
# Indices 1 2 3 4 5 6 
#
# 1 107.2958 -11.6198 15.7370 0.0000 -22.5642 0.0000
# 2 -11.6198 60.6394 -2.9223 0.0000 -3.5009 0.0000
# 3 15.7370 -2.9223 144.4210 0.0000 -0.2085 0.0000
# 4 0.0000 0.0000 0.0000 9.1728 0.0000 -27.6470
# 5 -22.5642 -3.5009 -0.2085 0.0000 58.3405 0.0000
# 6 0.0000 0.0000 0.0000 -27.6470 0.0000 -12.1171
#
#
#
# Elastic Compliance Matrix: (Units=1/GPa)
#
#
# Indices 1 2 3 4 5 6 
#
# 1 0.010614 0.002225 -0.001105 0.000000 0.004235 0.000000
# 2 0.002225 0.017031 0.000105 0.000000 0.001883 0.000000
# 3 -0.001105 0.000105 0.007046 0.000000 -0.000396 0.000000
# 4 0.000000 0.000000 0.000000 0.013840 0.000000 -0.031578
# 5 0.004235 0.001883 -0.000396 0.000000 0.018890 0.000000
# 6 0.000000 0.000000 0.000000 -0.031578 0.000000 -0.010477
#
#
# Mechanical properties :
#
#
# Convention : Reuss Voigt Hill
#
# Bulk Modulus (GPa) = 26.92522 34.97178 30.94850
# Shear Modulus (GPa) = 74.76641 31.82334 53.29488
#
# Velocity S-wave (km/s) = 5.16195 3.36770 4.35816
# Velocity P-wave (km/s) = 6.71740 5.25218 6.02946
#
# Compressibility (1/GPa) = 0.03713990
#
# Stress axis : x y z
#
# Youngs Moduli (GPa) = 94.21836 58.71628 141.92048
#
# Poissons Ratio (x) = -0.13064 0.15688
# Poissons Ratio (y) = -0.20964 -0.01488
# Poissons Ratio (z) = 0.10415 -0.00616
#
# Static dielectric constant tensor:
#      x y z
#    x 4.488220 0.000000 0.458480 
#    y 0.000000 2.300180 0.000000 
#    z 0.458480 0.000000 3.334570 
# 
# From -- ./inp_files/102893.got.cif
#   From: 2010.05.17/outbox.cif.g08.bks.cpg/sg15_52_cif.got.tgz:102893.got - 2010.06.03 18:47:42.
