data_PCOD9293017
_publ_section_title
;
Structure prediction by ZEFSAII (Michael W. Deem and Ramdas Pophale) SiO2 
 PCOD9293017
Probable space group: C 2/C
;
_chemical_formula_sum "Si O2"
_cell_formula_units_Z 40
_cell_length_a 7.098316
_cell_length_b 32.611805
_cell_length_c 10.393672
_cell_angle_alpha 90.000000
_cell_angle_beta 137.708717
_cell_angle_gamma 90.000000
_cell_volume 1619.010583
_symmetry_space_group_name_H-M "C 2/C"
_symmetry_group_IT_number 15
_symmetry_cell_setting 'monoclinic'
loop_
_space_group_symop_operation_xyz
x,y,z
-x,y,1/2-z
-x,-y,-z
x,-y,1/2+z
1/2+x,1/2+y,z
1/2-x,1/2+y,1/2-z
1/2-x,1/2-y,-z
1/2+x,1/2-y,1/2+z
loop_
_atom_site_type_symbol
_atom_site_label
_atom_site_fract_x
_atom_site_fract_y
_atom_site_fract_z
Si Si1 0.932234 0.307515 0.532753
Si Si2 0.849704 0.065949 0.424846
Si Si3 0.726441 0.722569 0.668598
Si Si4 0.915093 0.843033 0.899164
Si Si5 0.299552 0.011906 0.776573
O O1 0.030480 0.260586 0.604861
O O2 0.201056 0.336800 0.675065
O O3 0.781909 0.304381 0.322015
O O4 0.744787 0.324933 0.553745
O O5 0.500000 0.071991 0.250000
O O6 0.972969 0.109782 0.450090
O O7 0.056023 0.047279 0.641714
O O8 0.870835 0.030046 0.332017
O O9 0.654998 0.690380 0.520911
O O10 0.000000 0.743682 0.750000
O O11 0.500000 0.017784 0.750000
O O12 0.500000 0.000000 0.000000
#
# Coordination Sequence:
#
# PCOD9293017 Si02
#       5
#     8   8   8   8   8
#     4  11  23  40  64  90 132 183 239 290 345 412
#     4  10  22  44  71 108 140 183 242 299 367 442
#     4  12  25  40  63  93 137 192 239 296 359 418
#     4  11  24  41  66 100 130 179 240 296 348 415
#     4  10  24  47  77 108 148 191 233 298 381 459
#
# _framework density 24.706448000000002
#
# number of rings (size 3 to 8) (size 9 to 14) (size 15 to 20)
#    0.000    1.200    4.000    1.800    2.800    9.600 
#    7.200    2.000    0.000    0.000    0.000    0.000 
#    0.000    0.000    0.000    0.000    0.000    0.000 
#
# Total GULP energy -111435.593656 kJ/mol
# GULP energy per Si atom -5571.779683 kJ/mol
# Density = 2.465022 g / cm^3
# Si number density = 24.706448 Si / 1000 Ang^3
#
#
#
# Elastic Constant Matrix: (Units=GPa)
#
#
# Indices 1 2 3 4 5 6 
#
# 1 90.0279 -4.3831 29.2638 0.0000 3.1497 0.0000
# 2 -4.3831 194.0483 55.3331 0.0000 4.4010 0.0000
# 3 29.2638 55.3331 193.3806 0.0000 -10.2397 0.0000
# 4 0.0000 0.0000 0.0000 11.2887 0.0000 0.3655
# 5 3.1497 4.4010 -10.2397 0.0000 36.7923 0.0000
# 6 0.0000 0.0000 0.0000 0.3655 0.0000 -5.5719
#
#
#
# Elastic Compliance Matrix: (Units=1/GPa)
#
#
# Indices 1 2 3 4 5 6 
#
# 1 0.011915 0.000924 -0.002159 0.000000 -0.001731 0.000000
# 2 0.000924 0.005730 -0.001847 0.000000 -0.001279 0.000000
# 3 -0.002159 -0.001847 0.006138 0.000000 0.002114 0.000000
# 4 0.000000 0.000000 0.000000 0.088396 0.000000 0.005799
# 5 -0.001731 -0.001279 0.002114 0.000000 0.028069 0.000000
# 6 0.000000 0.000000 0.000000 0.005799 0.000000 -0.179093
#
#
# Mechanical properties :
#
#
# Convention : Reuss Voigt Hill
#
# Bulk Modulus (GPa) = 56.75679 70.87605 63.81642
# Shear Modulus (GPa) = -186.52136 34.98469 -75.76833
#
# Velocity S-wave (km/s) = -8.69821 3.76708 -5.54383
# Velocity P-wave (km/s) = 8.82362 6.90440 3.88494
#
# Compressibility (1/GPa) = 0.01761904
#
# Stress axis : x y z
#
# Youngs Moduli (GPa) = 83.92724 174.52241 162.91010
#
# Poissons Ratio (x) = -0.16128 0.35175
# Poissons Ratio (y) = -0.07756 0.30091
# Poissons Ratio (z) = 0.18121 0.32236
#
# Static dielectric constant tensor:
#      x y z
#    x 2.393460 0.000000 0.332360 
#    y 0.000000 1.864250 0.000000 
#    z 0.332360 0.000000 2.336130 
# 
# From -- ./inp_files/82401.got.cif
#   From: 2010.05.17/outbox.cif.g08.bks.cpg/sg15_42_cif.got.tgz:82401.got - 2010.06.03 18:47:42.
