data_PCOD9293016
_publ_section_title
;
Structure prediction by ZEFSAII (Michael W. Deem and Ramdas Pophale) SiO2 
 PCOD9293016
Probable space group: C 2/C
;
_chemical_formula_sum "Si O2"
_cell_formula_units_Z 48
_cell_length_a 14.607584
_cell_length_b 13.906199
_cell_length_c 11.841476
_cell_angle_alpha 90.000000
_cell_angle_beta 54.512827
_cell_angle_gamma 90.000000
_cell_volume 1958.610324
_symmetry_space_group_name_H-M "C 2/C"
_symmetry_group_IT_number 15
_symmetry_cell_setting 'monoclinic'
loop_
_space_group_symop_operation_xyz
x,y,z
-x,y,1/2-z
-x,-y,-z
x,-y,1/2+z
1/2+x,1/2+y,z
1/2-x,1/2+y,1/2-z
1/2-x,1/2-y,-z
1/2+x,1/2-y,1/2+z
loop_
_atom_site_type_symbol
_atom_site_label
_atom_site_fract_x
_atom_site_fract_y
_atom_site_fract_z
Si Si1 0.733152 0.940806 0.331941
Si Si2 0.263820 0.148976 0.890021
Si Si3 0.851806 0.176439 0.910641
Si Si4 0.194298 0.352467 0.894396
Si Si5 0.939097 0.017433 0.420543
Si Si6 0.979558 0.643100 0.389047
O O1 0.696834 0.925085 0.230712
O O2 0.831406 0.866928 0.299246
O O3 0.625483 0.912667 0.483175
O O4 0.765084 0.050935 0.325663
O O5 0.260933 0.253317 0.833818
O O6 0.335706 0.150181 0.951565
O O7 0.137813 0.112810 0.012790
O O8 0.857304 0.076219 0.972455
O O9 0.949813 0.244248 0.888023
O O10 0.750000 0.250000 0.000000
O O11 0.087670 0.360199 0.890431
O O12 0.000000 0.017827 0.250000
O O13 0.000000 0.000000 0.500000
O O14 0.000000 0.602750 0.250000
#
# Coordination Sequence:
#
# PCOD9293016 Si02
#       6
#     8   8   8   8   8   8
#     4  11  24  45  74 102 143 198 242 298 374 449
#     4  11  26  47  71 104 147 193 240 306 381 448
#     4  10  22  44  71 107 141 197 247 303 360 447
#     4  11  25  48  68 107 149 185 244 306 375 445
#     4  12  25  46  75 108 149 197 256 314 375 448
#     4  11  24  42  70 107 143 186 247 302 360 441
#
# _framework density 24.507173000000002
#
# number of rings (size 3 to 8) (size 9 to 14) (size 15 to 20)
#    0.000    1.000    1.667    4.000    2.333    3.333 
#   12.000    0.000    0.000    0.000    0.000    0.000 
#    0.000    0.000    0.000    0.000    0.000    0.000 
#
# Total GULP energy -133962.291281 kJ/mol
# GULP energy per Si atom -5581.762137 kJ/mol
# Density = 2.445139 g / cm^3
# Si number density = 24.507173 Si / 1000 Ang^3
#
#
#
# Elastic Constant Matrix: (Units=GPa)
#
#
# Indices 1 2 3 4 5 6 
#
# 1 162.9203 29.7867 39.4251 0.0000 36.3576 0.0000
# 2 29.7867 153.6502 26.3303 0.0000 4.9234 0.0000
# 3 39.4251 26.3303 114.9525 0.0000 15.2449 0.0000
# 4 0.0000 0.0000 0.0000 15.2670 0.0000 3.7290
# 5 36.3576 4.9234 15.2449 0.0000 39.3487 0.0000
# 6 0.0000 0.0000 0.0000 3.7290 0.0000 46.5532
#
#
#
# Elastic Compliance Matrix: (Units=1/GPa)
#
#
# Indices 1 2 3 4 5 6 
#
# 1 0.008275 -0.001097 -0.001677 0.000000 -0.006859 0.000000
# 2 -0.001097 0.006922 -0.001295 0.000000 0.000649 0.000000
# 3 -0.001677 -0.001295 0.009850 0.000000 -0.002105 0.000000
# 4 0.000000 0.000000 0.000000 0.066808 0.000000 -0.005351
# 5 -0.006859 0.000649 -0.002105 0.000000 0.032486 0.000000
# 6 0.000000 0.000000 0.000000 -0.005351 0.000000 0.021909
#
#
# Mechanical properties :
#
#
# Convention : Reuss Voigt Hill
#
# Bulk Modulus (GPa) = 59.14270 69.17857 64.16063
# Shear Modulus (GPa) = 31.24497 42.63249 36.93873
#
# Velocity S-wave (km/s) = 3.57449 4.17537 3.88656
# Velocity P-wave (km/s) = 6.42037 7.17872 6.81011
#
# Compressibility (1/GPa) = 0.01690826
#
# Stress axis : x y z
#
# Youngs Moduli (GPa) = 120.84503 144.46403 101.51984
#
# Poissons Ratio (x) = 0.15848 0.17027
# Poissons Ratio (y) = 0.13257 0.13151
# Poissons Ratio (z) = 0.20268 0.18714
#
# Static dielectric constant tensor:
#      x y z
#    x 2.002540 0.000000 -0.001270 
#    y 0.000000 1.910690 0.000000 
#    z -0.001270 0.000000 2.056580 
# 
# From -- ./inp_files/96846.got.cif
#   From: 2010.05.17/outbox.cif.g08.bks.cpg/sg15_49_cif.got.tgz:96846.got - 2010.06.03 18:47:42.
