data_PCOD9293352
_publ_section_title
;
Structure prediction by ZEFSAII (Michael W. Deem and Ramdas Pophale) SiO2 
 PCOD9293352
Probable space group: C 2/C
;
_chemical_formula_sum "Si O2"
_cell_formula_units_Z 32
_cell_length_a 11.029435
_cell_length_b 8.511234
_cell_length_c 19.075213
_cell_angle_alpha 90.000000
_cell_angle_beta 42.266700
_cell_angle_gamma 90.000000
_cell_volume 1204.372347
_symmetry_space_group_name_H-M "C 2/C"
_symmetry_group_IT_number 15
_symmetry_cell_setting 'monoclinic'
loop_
_space_group_symop_operation_xyz
x,y,z
-x,y,1/2-z
-x,-y,-z
x,-y,1/2+z
1/2+x,1/2+y,z
1/2-x,1/2+y,1/2-z
1/2-x,1/2-y,-z
1/2+x,1/2-y,1/2+z
loop_
_atom_site_type_symbol
_atom_site_label
_atom_site_fract_x
_atom_site_fract_y
_atom_site_fract_z
Si Si1 0.797139 0.238968 0.894675
Si Si2 0.841074 0.937433 0.240740
Si Si3 0.307070 0.910219 0.351622
Si Si4 0.418206 0.844976 0.568204
O O1 0.763051 0.200195 0.825421
O O2 0.843841 0.424187 0.873311
O O3 0.945352 0.101608 0.844445
O O4 0.893214 0.275241 0.983824
O O5 0.792387 0.932113 0.180270
O O6 0.739036 0.091512 0.313750
O O7 0.500000 0.841306 0.250000
O O8 0.175659 0.782012 0.442488
O O9 0.500000 0.000000 0.500000
#
# Coordination Sequence:
#
# PCOD9293352 Si02
#       4
#     8   8   8   8
#     4  10  22  47  68  99 143 175 233 291 338 406
#     4  10  22  45  71 100 140 182 226 293 338 402
#     4  12  24  42  72 104 138 185 234 278 347 416
#     4  10  24  42  69 101 138 183 228 284 349 406
#
# _framework density 26.569856000000001
#
# number of rings (size 3 to 8) (size 9 to 14) (size 15 to 20)
#    0.000    1.500    2.500    2.250    7.000    1.000 
#    4.500    2.500    0.000    0.000    0.000    0.000 
#    0.000    0.000    0.000    0.000    0.000    0.000 
#
# Total GULP energy -89211.942697 kJ/mol
# GULP energy per Si atom -5575.746419 kJ/mol
# Density = 2.650938 g / cm^3
# Si number density = 26.569856 Si / 1000 Ang^3
#
#
#
# Elastic Constant Matrix: (Units=GPa)
#
#
# Indices 1 2 3 4 5 6 
#
# 1 118.7614 31.4076 47.6806 0.0000 -45.6097 0.0000
# 2 31.4076 109.5347 49.7936 0.0000 -41.4943 0.0000
# 3 47.6806 49.7936 105.5966 0.0000 -40.7228 0.0000
# 4 0.0000 0.0000 0.0000 58.4127 0.0000 -8.6118
# 5 -45.6097 -41.4943 -40.7228 0.0000 68.3620 0.0000
# 6 0.0000 0.0000 0.0000 -8.6118 0.0000 30.3757
#
#
#
# Elastic Compliance Matrix: (Units=1/GPa)
#
#
# Indices 1 2 3 4 5 6 
#
# 1 0.012038 0.000408 -0.003162 0.000000 0.006396 0.000000
# 2 0.000408 0.013066 -0.004131 0.000000 0.005742 0.000000
# 3 -0.003162 -0.004131 0.014365 0.000000 0.003940 0.000000
# 4 0.000000 0.000000 0.000000 0.017866 0.000000 0.005065
# 5 0.006396 0.005742 0.003940 0.000000 0.024728 0.000000
# 6 0.000000 0.000000 0.000000 0.005065 0.000000 0.034357
#
#
# Mechanical properties :
#
#
# Convention : Reuss Voigt Hill
#
# Bulk Modulus (GPa) = 38.90968 65.73958 52.32463
# Shear Modulus (GPa) = 36.03469 45.09747 40.56608
#
# Velocity S-wave (km/s) = 3.68669 4.12432 3.91163
# Velocity P-wave (km/s) = 5.72698 6.89028 6.33539
#
# Compressibility (1/GPa) = 0.02570055
#
# Stress axis : x y z
#
# Youngs Moduli (GPa) = 83.07107 76.53665 69.61299
#
# Poissons Ratio (x) = -0.03126 0.22008
# Poissons Ratio (y) = -0.03393 0.28757
# Poissons Ratio (z) = 0.26263 0.31617
#
# Static dielectric constant tensor:
#      x y z
#    x 2.435310 0.000000 0.125830 
#    y 0.000000 2.168960 0.000000 
#    z 0.125830 0.000000 2.215740 
# 
# From -- ./inp_files/194665.got.cif
#   From: 2010.05.17/outbox.cif.g08.bks.cpg/sg15_98_cif.got.tgz:194665.got - 2010.06.03 18:47:42.
