data_PCOD9293944
_publ_section_title
;
Structure prediction by ZEFSAII (Michael W. Deem and Ramdas Pophale) SiO2 
 PCOD9293944
Probable space group: C 2/C
;
_chemical_formula_sum "Si O2"
_cell_formula_units_Z 40
_cell_length_a 23.928919
_cell_length_b 7.833691
_cell_length_c 10.137102
_cell_angle_alpha 90.000000
_cell_angle_beta 124.819143
_cell_angle_gamma 90.000000
_cell_volume 1559.999746
_symmetry_space_group_name_H-M "C 2/C"
_symmetry_group_IT_number 15
_symmetry_cell_setting 'monoclinic'
loop_
_space_group_symop_operation_xyz
x,y,z
-x,y,1/2-z
-x,-y,-z
x,-y,1/2+z
1/2+x,1/2+y,z
1/2-x,1/2+y,1/2-z
1/2-x,1/2-y,-z
1/2+x,1/2-y,1/2+z
loop_
_atom_site_type_symbol
_atom_site_label
_atom_site_fract_x
_atom_site_fract_y
_atom_site_fract_z
Si Si1 0.567395 0.613875 0.107990
Si Si2 0.404566 0.159054 0.447226
Si Si3 0.220479 0.583701 0.383238
Si Si4 0.579071 0.971557 0.270732
Si Si5 0.867512 0.993568 0.544152
O O1 0.559605 0.796956 0.168767
O O2 0.611807 0.506241 0.275117
O O3 0.500000 0.500000 0.000000
O O4 0.605903 0.639087 0.019998
O O5 0.325237 0.130904 0.304592
O O6 0.438001 0.031803 0.598733
O O7 0.404484 0.334463 0.524959
O O8 0.437033 0.128842 0.347421
O O9 0.250000 0.750000 0.500000
O O10 0.162976 0.480259 0.386407
O O11 0.286771 0.480989 0.431524
#
# Coordination Sequence:
#
# PCOD9293944 Si02
#       5
#     8   8   8   8   8
#     4  11  25  45  65  95 134 194 251 291 340 426
#     4   9  22  37  60 102 137 177 223 283 365 433
#     4  10  23  36  66 101 148 175 221 291 379 429
#     4   9  23  38  66  98 142 179 231 291 357 434
#     4  11  24  39  69  97 138 184 236 295 366 425
#
# _framework density 25.641031000000002
#
# number of rings (size 3 to 8) (size 9 to 14) (size 15 to 20)
#    1.200    0.800    0.000    1.800   11.200    1.600 
#    0.000    1.000    0.000    2.400    0.000    0.000 
#    0.000    0.000    0.000    0.000    0.000    0.000 
#
# Total GULP energy -111620.668586 kJ/mol
# GULP energy per Si atom -5581.033429 kJ/mol
# Density = 2.558267 g / cm^3
# Si number density = 25.641031 Si / 1000 Ang^3
#
#
#
# Elastic Constant Matrix: (Units=GPa)
#
#
# Indices 1 2 3 4 5 6 
#
# 1 81.2970 2.0691 7.9806 0.0000 6.4747 0.0000
# 2 2.0691 89.5341 16.7882 0.0000 -4.3707 0.0000
# 3 7.9806 16.7882 139.0210 0.0000 9.7343 0.0000
# 4 0.0000 0.0000 0.0000 40.6000 0.0000 0.6296
# 5 6.4747 -4.3707 9.7343 0.0000 49.4454 0.0000
# 6 0.0000 0.0000 0.0000 0.6296 0.0000 39.8400
#
#
#
# Elastic Compliance Matrix: (Units=1/GPa)
#
#
# Indices 1 2 3 4 5 6 
#
# 1 0.012487 -0.000256 -0.000578 0.000000 -0.001544 0.000000
# 2 -0.000256 0.011516 -0.001470 0.000000 0.001341 0.000000
# 3 -0.000578 -0.001470 0.007511 0.000000 -0.001533 0.000000
# 4 0.000000 0.000000 0.000000 0.024637 0.000000 -0.000389
# 5 -0.001544 0.001341 -0.001533 0.000000 0.020847 0.000000
# 6 0.000000 0.000000 0.000000 -0.000389 0.000000 0.025107
#
#
# Mechanical properties :
#
#
# Convention : Reuss Voigt Hill
#
# Bulk Modulus (GPa) = 37.16472 40.39199 38.77835
# Shear Modulus (GPa) = 43.22287 44.84468 44.03377
#
# Velocity S-wave (km/s) = 4.11017 4.18657 4.14855
# Velocity P-wave (km/s) = 6.08690 6.25755 6.17282
#
# Compressibility (1/GPa) = 0.02690724
#
# Stress axis : x y z
#
# Youngs Moduli (GPa) = 80.08478 86.83646 133.13499
#
# Poissons Ratio (x) = 0.02219 0.07693
# Poissons Ratio (y) = 0.02047 0.19569
# Poissons Ratio (z) = 0.04628 0.12764
#
# Static dielectric constant tensor:
#      x y z
#    x 2.015030 0.000000 0.002040 
#    y 0.000000 2.145660 0.000000 
#    z 0.002040 0.000000 1.988160 
# 
# From -- ./inp_files/121694.got.cif
#   From: 2010.05.17/outbox.cif.g08.bks.cpg/sg15_61_cif.got.tgz:121694.got - 2010.06.03 18:47:42.
