data_PCOD9293218
_publ_section_title
;
Structure prediction by ZEFSAII (Michael W. Deem and Ramdas Pophale) SiO2 
 PCOD9293218
Probable space group: C 2/C
;
_chemical_formula_sum "Si O2"
_cell_formula_units_Z 56
_cell_length_a 17.044941
_cell_length_b 16.014664
_cell_length_c 12.976336
_cell_angle_alpha 90.000000
_cell_angle_beta 51.519240
_cell_angle_gamma 90.000000
_cell_volume 2772.845997
_symmetry_space_group_name_H-M "C 2/C"
_symmetry_group_IT_number 15
_symmetry_cell_setting 'monoclinic'
loop_
_space_group_symop_operation_xyz
x,y,z
-x,y,1/2-z
-x,-y,-z
x,-y,1/2+z
1/2+x,1/2+y,z
1/2-x,1/2+y,1/2-z
1/2-x,1/2-y,-z
1/2+x,1/2-y,1/2+z
loop_
_atom_site_type_symbol
_atom_site_label
_atom_site_fract_x
_atom_site_fract_y
_atom_site_fract_z
Si Si1 0.145049 0.192662 0.281290
Si Si2 0.500000 0.150072 0.250000
Si Si3 0.864663 0.517153 0.240567
Si Si4 0.000000 0.905929 0.750000
Si Si5 0.391036 0.155138 0.816054
Si Si6 0.647849 0.722864 0.522666
Si Si7 0.197296 0.561652 0.417124
Si Si8 0.673546 0.467626 0.038020
O O1 0.050174 0.148358 0.301383
O O2 0.170394 0.273550 0.191221
O O3 0.143933 0.220492 0.401125
O O4 0.227758 0.121827 0.204128
O O5 0.424672 0.089386 0.250351
O O6 0.435545 0.211572 0.373853
O O7 0.905308 0.426293 0.234713
O O8 0.875582 0.530187 0.110590
O O9 0.749303 0.517951 0.379114
O O10 0.914316 0.964429 0.872649
O O11 0.500000 0.190331 0.750000
O O12 0.344709 0.118450 0.957472
O O13 0.750000 0.750000 0.500000
O O14 0.631787 0.625893 0.567622
O O15 0.253655 0.484269 0.424075
#
# Coordination Sequence:
#
# PCOD9293218 Si02
#       8
#     8   4   8   4   8   8   8   8
#     4  11  23  44  67  99 134 169 218 280 328 397
#     4  12  25  41  66  94 134 182 218 273 331 396
#     4  11  23  44  64  95 131 179 220 268 332 395
#     4  10  23  43  72  96 132 172 224 277 337 390
#     4  11  24  39  66  99 126 168 220 265 326 391
#     4  12  25  44  66  98 138 174 223 275 331 395
#     4  10  23  43  69  90 135 170 215 275 330 394
#     4  10  22  45  64  97 127 171 222 272 328 399
#
# _framework density 20.195855999999999
#
# number of rings (size 3 to 8) (size 9 to 14) (size 15 to 20)
#    0.000    1.143    4.286    0.857    4.000    1.143 
#    2.571    0.000    0.000    0.000    0.000    0.000 
#    0.000    0.000    0.000    0.000    0.000    0.000 
#
# Total GULP energy -156190.960112 kJ/mol
# GULP energy per Si atom -5578.248575 kJ/mol
# Density = 2.014989 g / cm^3
# Si number density = 20.195856 Si / 1000 Ang^3
#
#
#
# Elastic Constant Matrix: (Units=GPa)
#
#
# Indices 1 2 3 4 5 6 
#
# 1 81.4671 28.6349 59.5549 0.0000 16.8072 0.0000
# 2 28.6349 98.8804 33.2442 0.0000 15.3579 0.0000
# 3 59.5549 33.2442 89.9260 0.0000 29.7772 0.0000
# 4 0.0000 0.0000 0.0000 27.8073 0.0000 -26.8913
# 5 16.8072 15.3579 29.7772 0.0000 37.4583 0.0000
# 6 0.0000 0.0000 0.0000 -26.8913 0.0000 4.7710
#
#
#
# Elastic Compliance Matrix: (Units=1/GPa)
#
#
# Indices 1 2 3 4 5 6 
#
# 1 0.024310 -0.002003 -0.016314 0.000000 0.002882 0.000000
# 2 -0.002003 0.011806 -0.002352 0.000000 -0.002072 0.000000
# 3 -0.016314 -0.002352 0.027214 0.000000 -0.013350 0.000000
# 4 0.000000 0.000000 0.000000 -0.008080 0.000000 -0.045542
# 5 0.002882 -0.002072 -0.013350 0.000000 0.036865 0.000000
# 6 0.000000 0.000000 0.000000 -0.045542 0.000000 -0.047093
#
#
# Mechanical properties :
#
#
# Convention : Reuss Voigt Hill
#
# Bulk Modulus (GPa) = 45.46816 57.01571 51.24193
# Shear Modulus (GPa) = 53.36774 23.92995 38.64884
#
# Velocity S-wave (km/s) = 5.14611 3.44596 4.37933
# Velocity P-wave (km/s) = 7.60739 6.64271 7.14136
#
# Compressibility (1/GPa) = 0.02199341
#
# Stress axis : x y z
#
# Youngs Moduli (GPa) = 41.13522 84.70427 36.74562
#
# Poissons Ratio (x) = 0.16965 0.59945
# Poissons Ratio (y) = 0.08239 0.08642
# Poissons Ratio (z) = 0.67106 0.19921
#
# Static dielectric constant tensor:
#      x y z
#    x 1.877090 0.000000 0.048850 
#    y 0.000000 1.679550 0.000000 
#    z 0.048850 0.000000 1.757520 
# 
# From -- ./inp_files/105670.got.cif
#   From: 2010.05.17/outbox.cif.g08.bks.cpg/sg15_53_cif.got.tgz:105670.got - 2010.06.03 18:47:42.
