data_PCOD9293542
_publ_section_title
;
Structure prediction by ZEFSAII (Michael W. Deem and Ramdas Pophale) SiO2 
 PCOD9293542
Probable space group: C 2/C
;
_chemical_formula_sum "Si O2"
_cell_formula_units_Z 40
_cell_length_a 22.646472
_cell_length_b 18.155979
_cell_length_c 8.550638
_cell_angle_alpha 90.000000
_cell_angle_beta 150.824076
_cell_angle_gamma 90.000000
_cell_volume 1713.905850
_symmetry_space_group_name_H-M "C 2/C"
_symmetry_group_IT_number 15
_symmetry_cell_setting 'monoclinic'
loop_
_space_group_symop_operation_xyz
x,y,z
-x,y,1/2-z
-x,-y,-z
x,-y,1/2+z
1/2+x,1/2+y,z
1/2-x,1/2+y,1/2-z
1/2-x,1/2-y,-z
1/2+x,1/2-y,1/2+z
loop_
_atom_site_type_symbol
_atom_site_label
_atom_site_fract_x
_atom_site_fract_y
_atom_site_fract_z
Si Si1 0.063881 0.125596 0.254704
Si Si2 0.866040 0.229925 0.661887
Si Si3 0.667569 0.855362 0.123715
Si Si4 0.710459 0.622553 0.297356
Si Si5 0.410438 0.983996 0.151809
O O1 0.195056 0.147293 0.623109
O O2 0.105181 0.097395 0.176686
O O3 0.000000 0.081974 0.250000
O O4 0.974253 0.192742 0.008235
O O5 0.750000 0.250000 0.500000
O O6 0.906571 0.302487 0.659948
O O7 0.830969 0.173102 0.440830
O O8 0.693238 0.836063 0.364120
O O9 0.624394 0.938956 0.009837
O O10 0.786393 0.554695 0.407684
O O11 0.500000 0.936401 0.250000
O O12 0.500000 0.000000 0.500000
#
# Coordination Sequence:
#
# PCOD9293542 Si02
#       5
#     8   8   8   8   8
#     4  10  22  46  68 100 148 182 236 302 356 431
#     4  12  23  42  75 105 143 192 240 291 367 437
#     4  10  25  44  68 106 145 178 246 296 365 432
#     4  10  25  46  68 106 142 184 245 293 369 436
#     4  12  25  48  72 103 141 190 244 304 367 432
#
# _framework density 23.338507
#
# number of rings (size 3 to 8) (size 9 to 14) (size 15 to 20)
#    1.200    0.000    4.000    1.200    2.800    3.200 
#    0.000    4.000    0.000    0.000    0.000    0.000 
#    0.000    0.000    0.000    0.000    0.000    0.000 
#
# Total GULP energy -111410.956148 kJ/mol
# GULP energy per Si atom -5570.547807 kJ/mol
# Density = 2.328539 g / cm^3
# Si number density = 23.338507 Si / 1000 Ang^3
#
#
#
# Elastic Constant Matrix: (Units=GPa)
#
#
# Indices 1 2 3 4 5 6 
#
# 1 189.7584 39.0449 30.3072 0.0000 21.2039 0.0000
# 2 39.0449 65.5913 11.6602 0.0000 8.5501 0.0000
# 3 30.3072 11.6602 89.6800 0.0000 12.9971 0.0000
# 4 0.0000 0.0000 0.0000 27.7520 0.0000 0.9637
# 5 21.2039 8.5501 12.9971 0.0000 40.5601 0.0000
# 6 0.0000 0.0000 0.0000 0.9637 0.0000 13.6935
#
#
#
# Elastic Compliance Matrix: (Units=1/GPa)
#
#
# Indices 1 2 3 4 5 6 
#
# 1 0.006419 -0.003280 -0.001423 0.000000 -0.002208 0.000000
# 2 -0.003280 0.017585 -0.000932 0.000000 -0.001693 0.000000
# 3 -0.001423 -0.000932 0.012182 0.000000 -0.002963 0.000000
# 4 0.000000 0.000000 0.000000 0.036122 0.000000 -0.002542
# 5 -0.002208 -0.001693 -0.002963 0.000000 0.027116 0.000000
# 6 0.000000 0.000000 0.000000 -0.002542 0.000000 0.073206
#
#
# Mechanical properties :
#
#
# Convention : Reuss Voigt Hill
#
# Bulk Modulus (GPa) = 40.13576 56.33935 48.23756
# Shear Modulus (GPa) = 26.01379 34.00228 30.00804
#
# Velocity S-wave (km/s) = 3.34223 3.82110 3.58966
# Velocity P-wave (km/s) = 5.66821 6.60759 6.15584
#
# Compressibility (1/GPa) = 0.02491543
#
# Stress axis : x y z
#
# Youngs Moduli (GPa) = 155.79322 56.86650 82.08650
#
# Poissons Ratio (x) = 0.18653 0.11678
# Poissons Ratio (y) = 0.51103 0.07654
# Poissons Ratio (z) = 0.22165 0.05303
#
# Static dielectric constant tensor:
#      x y z
#    x 2.049030 0.000000 -0.011770 
#    y 0.000000 1.886340 0.000000 
#    z -0.011770 0.000000 1.848170 
# 
# From -- ./inp_files/62878.got.cif
#   From: 2010.05.17/outbox.cif.g08.bks.cpg/sg15_32_cif.got.tgz:62878.got - 2010.06.03 18:47:42.
