data_PCOD9293302
_publ_section_title
;
Structure prediction by ZEFSAII (Michael W. Deem and Ramdas Pophale) SiO2 
 PCOD9293302
Probable space group: C 2/C
;
_chemical_formula_sum "Si O2"
_cell_formula_units_Z 40
_cell_length_a 16.237273
_cell_length_b 9.841268
_cell_length_c 11.693439
_cell_angle_alpha 90.000000
_cell_angle_beta 82.750918
_cell_angle_gamma 90.000000
_cell_volume 1853.621807
_symmetry_space_group_name_H-M "C 2/C"
_symmetry_group_IT_number 15
_symmetry_cell_setting 'monoclinic'
loop_
_space_group_symop_operation_xyz
x,y,z
-x,y,1/2-z
-x,-y,-z
x,-y,1/2+z
1/2+x,1/2+y,z
1/2-x,1/2+y,1/2-z
1/2-x,1/2-y,-z
1/2+x,1/2-y,1/2+z
loop_
_atom_site_type_symbol
_atom_site_label
_atom_site_fract_x
_atom_site_fract_y
_atom_site_fract_z
Si Si1 0.669100 0.330331 0.968791
Si Si2 0.771753 0.096201 0.456594
Si Si3 0.021696 0.699519 0.114045
Si Si4 0.596652 0.908820 0.036724
Si Si5 0.401587 0.699081 0.266489
O O1 0.632895 0.282174 0.854315
O O2 0.750000 0.250000 0.000000
O O3 0.691368 0.490004 0.959188
O O4 0.594650 0.301891 0.069647
O O5 0.750000 0.250000 0.500000
O O6 0.678268 0.044925 0.453094
O O7 0.837201 0.099497 0.342486
O O8 0.050962 0.546446 0.079782
O O9 0.000000 0.711815 0.250000
O O10 0.946564 0.704971 0.036180
O O11 0.607834 0.835059 0.156364
O O12 0.500000 0.661859 0.250000
#
# Coordination Sequence:
#
# PCOD9293302 Si02
#       5
#     8   8   8   8   8
#     4  12  26  46  72 110 142 189 253 309 368 445
#     4  10  25  45  69 100 143 193 243 298 380 440
#     4  11  24  40  75 109 150 189 252 309 375 446
#     4  10  22  45  69 107 144 202 244 303 379 449
#     4  11  24  46  71  99 152 195 244 308 372 446
#
# _framework density 21.579373
#
# number of rings (size 3 to 8) (size 9 to 14) (size 15 to 20)
#    0.000    1.200    4.000    0.600    5.600    4.800 
#    3.600    0.000    0.000    0.000    0.000    0.000 
#    0.000    0.000    0.000    0.000    0.000    0.000 
#
# Total GULP energy -111461.754393 kJ/mol
# GULP energy per Si atom -5573.087720 kJ/mol
# Density = 2.153026 g / cm^3
# Si number density = 21.579373 Si / 1000 Ang^3
#
#
#
# Elastic Constant Matrix: (Units=GPa)
#
#
# Indices 1 2 3 4 5 6 
#
# 1 141.7528 21.1725 79.4125 0.0000 -11.6193 0.0000
# 2 21.1725 80.1344 39.5412 0.0000 11.3666 0.0000
# 3 79.4125 39.5412 125.9563 0.0000 -4.7708 0.0000
# 4 0.0000 0.0000 0.0000 31.9725 0.0000 -2.3387
# 5 -11.6193 11.3666 -4.7708 0.0000 43.3575 0.0000
# 6 0.0000 0.0000 0.0000 -2.3387 0.0000 27.6530
#
#
#
# Elastic Compliance Matrix: (Units=1/GPa)
#
#
# Indices 1 2 3 4 5 6 
#
# 1 0.011118 0.000207 -0.006993 0.000000 0.002156 0.000000
# 2 0.000207 0.015656 -0.005221 0.000000 -0.004623 0.000000
# 3 -0.006993 -0.005221 0.014026 0.000000 0.001038 0.000000
# 4 0.000000 0.000000 0.000000 0.031472 0.000000 0.002662
# 5 0.002156 -0.004623 0.001038 0.000000 0.024968 0.000000
# 6 0.000000 0.000000 0.000000 0.002662 0.000000 0.036387
#
#
# Mechanical properties :
#
#
# Convention : Reuss Voigt Hill
#
# Bulk Modulus (GPa) = 59.56757 69.78844 64.67801
# Shear Modulus (GPa) = 30.63047 34.44443 32.53745
#
# Velocity S-wave (km/s) = 3.77162 3.99955 3.88726
# Velocity P-wave (km/s) = 6.82867 7.33069 7.08413
#
# Compressibility (1/GPa) = 0.01678766
#
# Stress axis : x y z
#
# Youngs Moduli (GPa) = 89.94537 63.87272 71.29398
#
# Poissons Ratio (x) = -0.01324 0.49856
# Poissons Ratio (y) = -0.01865 0.37221
# Poissons Ratio (z) = 0.62899 0.33346
#
# Static dielectric constant tensor:
#      x y z
#    x 1.971710 0.000000 0.006590 
#    y 0.000000 1.834480 0.000000 
#    z 0.006590 0.000000 1.765240 
# 
# From -- ./inp_files/102715.got.cif
#   From: 2010.05.17/outbox.cif.g08.bks.cpg/sg15_52_cif.got.tgz:102715.got - 2010.06.03 18:47:42.
