data_PCOD9293264
_publ_section_title
;
Structure prediction by ZEFSAII (Michael W. Deem and Ramdas Pophale) SiO2 
 PCOD9293264
Probable space group: C 2/C
;
_chemical_formula_sum "Si O2"
_cell_formula_units_Z 48
_cell_length_a 18.078687
_cell_length_b 9.424209
_cell_length_c 12.611276
_cell_angle_alpha 90.000000
_cell_angle_beta 101.009062
_cell_angle_gamma 90.000000
_cell_volume 2109.133376
_symmetry_space_group_name_H-M "C 2/C"
_symmetry_group_IT_number 15
_symmetry_cell_setting 'monoclinic'
loop_
_space_group_symop_operation_xyz
x,y,z
-x,y,1/2-z
-x,-y,-z
x,-y,1/2+z
1/2+x,1/2+y,z
1/2-x,1/2+y,1/2-z
1/2-x,1/2-y,-z
1/2+x,1/2-y,1/2+z
loop_
_atom_site_type_symbol
_atom_site_label
_atom_site_fract_x
_atom_site_fract_y
_atom_site_fract_z
Si Si1 0.500000 0.970133 0.250000
Si Si2 0.142803 0.044258 0.409033
Si Si3 0.000000 0.054124 0.750000
Si Si4 0.731697 0.522694 0.115239
Si Si5 0.578436 0.795694 0.636465
Si Si6 0.135922 0.349557 0.416049
Si Si7 0.221252 0.192463 0.797521
O O1 0.570500 0.884918 0.315205
O O2 0.469602 0.071853 0.334754
O O3 0.062948 0.035955 0.328607
O O4 0.185329 0.905746 0.377868
O O5 0.154719 0.026806 0.538033
O O6 0.175485 0.200456 0.394254
O O7 0.965385 0.156892 0.831505
O O8 0.803068 0.476248 0.062052
O O9 0.725482 0.687314 0.141111
O O10 0.747492 0.424745 0.221218
O O11 0.597120 0.817444 0.518540
O O12 0.656475 0.784613 0.722381
#
# Coordination Sequence:
#
# PCOD9293264 Si02
#       7
#     4   8   4   8   8   8   8
#     4  11  23  44  66 100 136 184 228 278 336 406
#     4  11  24  44  68 101 137 176 226 281 340 400
#     4   9  23  46  68  92 138 176 226 276 340 398
#     4  12  25  44  71 100 139 177 228 277 342 403
#     4  10  22  45  67  93 138 179 223 280 335 396
#     4  12  24  41  69 101 133 177 230 281 334 406
#     4  11  24  46  66 100 138 180 220 281 339 404
#
# _framework density 22.758163
#
# number of rings (size 3 to 8) (size 9 to 14) (size 15 to 20)
#    0.000    1.000    3.333    3.000    2.333    0.667 
#    6.000    0.000    0.000    0.000    0.000    0.000 
#    0.000    0.000    0.000    0.000    0.000    0.000 
#
# Total GULP energy -134048.875732 kJ/mol
# GULP energy per Si atom -5585.369822 kJ/mol
# Density = 2.270636 g / cm^3
# Si number density = 22.758163 Si / 1000 Ang^3
#
#
#
# Elastic Constant Matrix: (Units=GPa)
#
#
# Indices 1 2 3 4 5 6 
#
# 1 44.5337 17.0024 28.3823 0.0000 2.9501 0.0000
# 2 17.0024 120.9894 36.6261 0.0000 3.8947 0.0000
# 3 28.3823 36.6261 83.5311 0.0000 5.3629 0.0000
# 4 0.0000 0.0000 0.0000 28.6263 0.0000 6.2450
# 5 2.9501 3.8947 5.3629 0.0000 43.4551 0.0000
# 6 0.0000 0.0000 0.0000 6.2450 0.0000 38.2044
#
#
#
# Elastic Compliance Matrix: (Units=1/GPa)
#
#
# Indices 1 2 3 4 5 6 
#
# 1 0.028847 -0.001242 -0.009211 0.000000 -0.000710 0.000000
# 2 -0.001242 0.009589 -0.003762 0.000000 -0.000311 0.000000
# 3 -0.009211 -0.003762 0.016823 0.000000 -0.001114 0.000000
# 4 0.000000 0.000000 0.000000 0.036225 0.000000 -0.005921
# 5 -0.000710 -0.000311 -0.001114 0.000000 0.023226 0.000000
# 6 0.000000 0.000000 0.000000 -0.005921 0.000000 0.027143
#
#
# Mechanical properties :
#
#
# Convention : Reuss Voigt Hill
#
# Bulk Modulus (GPa) = 37.27707 45.89730 41.58718
# Shear Modulus (GPa) = 27.89781 33.19338 30.54560
#
# Velocity S-wave (km/s) = 3.50499 3.82321 3.66755
# Velocity P-wave (km/s) = 5.72671 6.30083 6.02061
#
# Compressibility (1/GPa) = 0.02682614
#
# Stress axis : x y z
#
# Youngs Moduli (GPa) = 34.66582 104.28931 59.44404
#
# Poissons Ratio (x) = 0.12958 0.54755
# Poissons Ratio (y) = 0.04307 0.22364
# Poissons Ratio (z) = 0.31932 0.39236
#
# Static dielectric constant tensor:
#      x y z
#    x 1.886660 0.000000 -0.048580 
#    y 0.000000 1.815160 0.000000 
#    z -0.048580 0.000000 1.947050 
# 
# From -- ./inp_files/116487.got.cif
#   From: 2010.05.17/outbox.cif.g08.bks.cpg/sg15_59_cif.got.tgz:116487.got - 2010.06.03 18:47:42.
