data_PCOD9293158
_publ_section_title
;
Structure prediction by ZEFSAII (Michael W. Deem and Ramdas Pophale) SiO2 
 PCOD9293158
Probable space group: C 2/C
;
_chemical_formula_sum "Si O2"
_cell_formula_units_Z 60
_cell_length_a 11.597360
_cell_length_b 9.381130
_cell_length_c 19.757926
_cell_angle_alpha 90.000000
_cell_angle_beta 88.299905
_cell_angle_gamma 90.000000
_cell_volume 2148.643845
_symmetry_space_group_name_H-M "C 2/C"
_symmetry_group_IT_number 15
_symmetry_cell_setting 'monoclinic'
loop_
_space_group_symop_operation_xyz
x,y,z
-x,y,1/2-z
-x,-y,-z
x,-y,1/2+z
1/2+x,1/2+y,z
1/2-x,1/2+y,1/2-z
1/2-x,1/2-y,-z
1/2+x,1/2-y,1/2+z
loop_
_atom_site_type_symbol
_atom_site_label
_atom_site_fract_x
_atom_site_fract_y
_atom_site_fract_z
Si Si1 0.205489 0.330846 0.066231
Si Si2 0.750908 0.825885 0.322456
Si Si3 0.007238 0.728692 0.362870
Si Si4 0.523841 0.069815 0.889217
Si Si5 0.677951 0.647087 0.196475
Si Si6 0.183567 0.102121 0.490091
Si Si7 0.000000 0.550875 0.250000
Si Si8 0.480680 0.533338 0.402906
O O1 0.068063 0.344543 0.067912
O O2 0.232197 0.241383 0.133791
O O3 0.243744 0.494320 0.057165
O O4 0.250000 0.250000 0.000000
O O5 0.869666 0.751795 0.346829
O O6 0.693309 0.730177 0.265605
O O7 0.648671 0.862464 0.377346
O O8 0.778470 0.984285 0.294116
O O9 0.026602 0.595963 0.412380
O O10 0.042415 0.882992 0.385783
O O11 0.068641 0.667349 0.294088
O O12 0.467636 0.048236 0.813688
O O13 0.563282 0.386932 0.952591
O O14 0.551749 0.612883 0.165502
O O15 0.250000 0.250000 0.500000
O O16 0.138588 0.017481 0.558158
#
# Coordination Sequence:
#
# PCOD9293158 Si02
#       8
#     8   8   8   8   8   8   4   8
#     4  12  26  50  76 111 162 216 279 344 411 505
#     4  11  24  47  83 117 168 207 270 346 414 502
#     4   9  21  42  78 118 152 210 260 338 410 489
#     4  10  22  44  75 111 156 207 276 332 412 485
#     4  11  26  50  78 124 161 216 273 339 426 502
#     4  11  25  50  81 113 154 219 275 337 421 479
#     4   8  18  38  72 110 152 200 264 324 404 490
#     4  10  23  50  79 110 166 203 278 341 403 510
#
# _framework density 27.924590999999999
#
# number of rings (size 3 to 8) (size 9 to 14) (size 15 to 20)
#    0.800    0.800    1.333    2.400    3.733    0.000 
#    7.200    8.000    0.000    0.000    0.000    0.000 
#    0.000    0.000    0.000    0.000    0.000    0.000 
#
# Total GULP energy -167730.046594 kJ/mol
# GULP energy per Si atom -5591.001553 kJ/mol
# Density = 2.786103 g / cm^3
# Si number density = 27.924591 Si / 1000 Ang^3
#
#
#
# Elastic Constant Matrix: (Units=GPa)
#
#
# Indices 1 2 3 4 5 6 
#
# 1 157.0357 80.6834 60.2281 0.0000 -2.1351 0.0000
# 2 80.6834 196.5819 68.6585 0.0000 0.3901 0.0000
# 3 60.2281 68.6585 98.5274 0.0000 15.1898 0.0000
# 4 0.0000 0.0000 0.0000 60.7786 0.0000 -7.3346
# 5 -2.1351 0.3901 15.1898 0.0000 40.5896 0.0000
# 6 0.0000 0.0000 0.0000 -7.3346 0.0000 53.2812
#
#
#
# Elastic Compliance Matrix: (Units=1/GPa)
#
#
# Indices 1 2 3 4 5 6 
#
# 1 0.009251 -0.002260 -0.004413 0.000000 0.002160 0.000000
# 2 -0.002260 0.007400 -0.003976 0.000000 0.001298 0.000000
# 3 -0.004413 -0.003976 0.016606 0.000000 -0.006408 0.000000
# 4 0.000000 0.000000 0.000000 0.016731 0.000000 0.002303
# 5 0.002160 0.001298 -0.006408 0.000000 0.027136 0.000000
# 6 0.000000 0.000000 0.000000 0.002303 0.000000 0.019085
#
#
# Mechanical properties :
#
#
# Convention : Reuss Voigt Hill
#
# Bulk Modulus (GPa) = 83.61489 96.80944 90.21217
# Shear Modulus (GPa) = 41.15448 47.10155 44.12801
#
# Velocity S-wave (km/s) = 3.84314 4.11145 3.97956
# Velocity P-wave (km/s) = 7.04990 7.56850 7.31379
#
# Compressibility (1/GPa) = 0.01195959
#
# Stress axis : x y z
#
# Youngs Moduli (GPa) = 108.09605 135.12779 60.22096
#
# Poissons Ratio (x) = 0.30537 0.26577
# Poissons Ratio (y) = 0.24428 0.23942
# Poissons Ratio (z) = 0.47705 0.53722
#
# Static dielectric constant tensor:
#      x y z
#    x 2.306560 0.000000 -0.024420 
#    y 0.000000 2.262330 0.000000 
#    z -0.024420 0.000000 2.217510 
# 
# From -- ./inp_files/213854.got.cif
#   From: 2010.05.17/outbox.cif.g08.bks.cpg/sg15_107_cif.got.tgz:213854.got - 2010.06.03 18:47:42.
