data_PCOD9293369
_publ_section_title
;
Structure prediction by ZEFSAII (Michael W. Deem and Ramdas Pophale) SiO2 
 PCOD9293369
Probable space group: C 2/C
;
_chemical_formula_sum "Si O2"
_cell_formula_units_Z 60
_cell_length_a 15.420641
_cell_length_b 14.270362
_cell_length_c 11.457367
_cell_angle_alpha 90.000000
_cell_angle_beta 106.420947
_cell_angle_gamma 90.000000
_cell_volume 2418.445197
_symmetry_space_group_name_H-M "C 2/C"
_symmetry_group_IT_number 15
_symmetry_cell_setting 'monoclinic'
loop_
_space_group_symop_operation_xyz
x,y,z
-x,y,1/2-z
-x,-y,-z
x,-y,1/2+z
1/2+x,1/2+y,z
1/2-x,1/2+y,1/2-z
1/2-x,1/2-y,-z
1/2+x,1/2-y,1/2+z
loop_
_atom_site_type_symbol
_atom_site_label
_atom_site_fract_x
_atom_site_fract_y
_atom_site_fract_z
Si Si1 0.277921 0.359792 0.719072
Si Si2 0.122916 0.046810 0.438333
Si Si3 0.000000 0.736860 0.250000
Si Si4 0.496919 0.053449 0.874930
Si Si5 0.321903 0.088723 0.533185
Si Si6 0.823703 0.373902 0.586700
Si Si7 0.347264 0.199032 0.857669
Si Si8 0.031692 0.856556 0.475302
O O1 0.356071 0.422199 0.688012
O O2 0.192801 0.381878 0.605976
O O3 0.249580 0.379528 0.839614
O O4 0.299283 0.249207 0.731145
O O5 0.216546 0.086231 0.533748
O O6 0.038949 0.097801 0.463645
O O7 0.097580 0.937525 0.446453
O O8 0.911429 0.680095 0.171410
O O9 0.020582 0.804282 0.148760
O O10 0.500000 0.003263 0.750000
O O11 0.579495 0.129260 0.899837
O O12 0.402040 0.108098 0.842561
O O13 0.500000 0.000000 0.000000
O O14 0.345973 0.979977 0.561796
O O15 0.790988 0.329127 0.451504
O O16 0.414319 0.278284 0.932313
#
# Coordination Sequence:
#
# PCOD9293369 Si02
#       8
#     8   8   4   8   8   8   8   8
#     4  10  25  44  76 107 149 202 253 335 388 468
#     4   9  23  44  73 105 149 196 262 317 394 469
#     4  10  26  40  68 108 152 196 260 318 394 474
#     4  12  29  49  77 117 158 212 263 325 403 482
#     4  10  25  44  73 109 144 196 256 320 386 464
#     4  11  23  45  73 105 151 201 258 324 392 475
#     4  11  25  46  75 107 153 202 260 321 392 478
#     4  10  22  45  71 108 148 208 253 321 399 463
#
# _framework density 24.809329000000002
#
# number of rings (size 3 to 8) (size 9 to 14) (size 15 to 20)
#    0.800    0.800    1.333    1.200    8.400    4.267 
#    2.400    2.000    0.000    0.000    0.000    0.000 
#    0.000    0.000    0.000    0.000    0.000    0.000 
#
# Total GULP energy -167220.874915 kJ/mol
# GULP energy per Si atom -5574.029164 kJ/mol
# Density = 2.475286 g / cm^3
# Si number density = 24.809329 Si / 1000 Ang^3
#
#
#
# Elastic Constant Matrix: (Units=GPa)
#
#
# Indices 1 2 3 4 5 6 
#
# 1 109.2786 10.8328 46.8318 0.0000 -34.2165 0.0000
# 2 10.8328 58.5171 36.4355 0.0000 -11.4556 0.0000
# 3 46.8318 36.4355 118.7752 0.0000 -16.9734 0.0000
# 4 0.0000 0.0000 0.0000 48.9791 0.0000 7.2124
# 5 -34.2165 -11.4556 -16.9734 0.0000 47.8625 0.0000
# 6 0.0000 0.0000 0.0000 7.2124 0.0000 32.7055
#
#
#
# Elastic Compliance Matrix: (Units=1/GPa)
#
#
# Indices 1 2 3 4 5 6 
#
# 1 0.013701 0.002157 -0.004835 0.000000 0.008596 0.000000
# 2 0.002157 0.021854 -0.006938 0.000000 0.004312 0.000000
# 3 -0.004835 -0.006938 0.012349 0.000000 -0.000738 0.000000
# 4 0.000000 0.000000 0.000000 0.021102 0.000000 -0.004654
# 5 0.008596 0.004312 -0.000738 0.000000 0.027809 0.000000
# 6 0.000000 0.000000 0.000000 -0.004654 0.000000 0.031602
#
#
# Mechanical properties :
#
#
# Convention : Reuss Voigt Hill
#
# Bulk Modulus (GPa) = 34.87888 52.75236 43.81562
# Shear Modulus (GPa) = 31.80532 38.74082 35.27307
#
# Velocity S-wave (km/s) = 3.58437 3.95592 3.77472
# Velocity P-wave (km/s) = 5.58745 6.49423 6.05783
#
# Compressibility (1/GPa) = 0.02867065
#
# Stress axis : x y z
#
# Youngs Moduli (GPa) = 72.98786 45.75838 80.98009
#
# Poissons Ratio (x) = -0.09871 0.39158
# Poissons Ratio (y) = -0.15745 0.56186
# Poissons Ratio (z) = 0.35293 0.31748
#
# Static dielectric constant tensor:
#      x y z
#    x 2.157650 0.000000 0.036230 
#    y 0.000000 2.071810 0.000000 
#    z 0.036230 0.000000 2.030480 
# 
# From -- ./inp_files/105380.got.cif
#   From: 2010.05.17/outbox.cif.g08.bks.cpg/sg15_53_cif.got.tgz:105380.got - 2010.06.03 18:47:42.
