data_PCOD9293100
_publ_section_title
;
Structure prediction by ZEFSAII (Michael W. Deem and Ramdas Pophale) SiO2 
 PCOD9293100
Probable space group: C 2/C
;
_chemical_formula_sum "Si O2"
_cell_formula_units_Z 32
_cell_length_a 15.348488
_cell_length_b 10.017480
_cell_length_c 8.655717
_cell_angle_alpha 90.000000
_cell_angle_beta 66.230529
_cell_angle_gamma 90.000000
_cell_volume 1217.954518
_symmetry_space_group_name_H-M "C 2/C"
_symmetry_group_IT_number 15
_symmetry_cell_setting 'monoclinic'
loop_
_space_group_symop_operation_xyz
x,y,z
-x,y,1/2-z
-x,-y,-z
x,-y,1/2+z
1/2+x,1/2+y,z
1/2-x,1/2+y,1/2-z
1/2-x,1/2-y,-z
1/2+x,1/2-y,1/2+z
loop_
_atom_site_type_symbol
_atom_site_label
_atom_site_fract_x
_atom_site_fract_y
_atom_site_fract_z
Si Si1 0.154483 0.982101 0.912495
Si Si2 0.583542 0.891332 0.287995
Si Si3 0.710685 0.932085 0.929959
Si Si4 0.483036 0.692159 0.595361
O O1 0.231361 0.976808 0.992278
O O2 0.120507 0.127628 0.869648
O O3 0.203706 0.891762 0.745783
O O4 0.057869 0.928780 0.052744
O O5 0.500000 0.961293 0.250000
O O6 0.654193 0.845742 0.097662
O O7 0.527481 0.781606 0.427875
O O8 0.639234 0.987210 0.367948
O O9 0.500000 0.757688 0.750000
#
# Coordination Sequence:
#
# PCOD9293100 Si02
#       4
#     8   8   8   8
#     4  10  22  44  73 101 149 186 232 299 357 419
#     4  11  26  44  72 102 141 192 242 289 364 428
#     4  10  23  47  69  99 143 190 236 293 346 424
#     4  11  24  42  71 110 144 184 238 297 364 419
#
# _framework density 26.273558999999999
#
# number of rings (size 3 to 8) (size 9 to 14) (size 15 to 20)
#    0.000    1.500    2.500    0.750    3.500    7.000 
#    4.500    0.000    0.000    0.000    0.000    0.000 
#    0.000    0.000    0.000    0.000    0.000    0.000 
#
# Total GULP energy -89158.151438 kJ/mol
# GULP energy per Si atom -5572.384465 kJ/mol
# Density = 2.621376 g / cm^3
# Si number density = 26.273559 Si / 1000 Ang^3
#
#
#
# Elastic Constant Matrix: (Units=GPa)
#
#
# Indices 1 2 3 4 5 6 
#
# 1 170.7174 54.8262 75.3367 0.0000 30.2627 0.0000
# 2 54.8262 42.8884 19.9721 0.0000 14.0558 0.0000
# 3 75.3367 19.9721 204.9400 0.0000 3.5098 0.0000
# 4 0.0000 0.0000 0.0000 607.5981 0.0000 645.9582
# 5 30.2627 14.0558 3.5098 0.0000 53.2034 0.0000
# 6 0.0000 0.0000 0.0000 645.9582 0.0000 769.4820
#
#
#
# Elastic Compliance Matrix: (Units=1/GPa)
#
#
# Indices 1 2 3 4 5 6 
#
# 1 0.011844 -0.012668 -0.003065 0.000000 -0.003188 0.000000
# 2 -0.012668 0.040286 0.000791 0.000000 -0.003489 0.000000
# 3 -0.003065 0.000791 0.005909 0.000000 0.001144 0.000000
# 4 0.000000 0.000000 0.000000 0.015306 0.000000 -0.012849
# 5 -0.003188 -0.003489 0.001144 0.000000 0.021455 0.000000
# 6 0.000000 0.000000 0.000000 -0.012849 0.000000 0.012086
#
#
# Mechanical properties :
#
#
# Convention : Reuss Voigt Hill
#
# Bulk Modulus (GPa) = 35.51807 79.86842 57.69324
# Shear Modulus (GPa) = 34.21013 303.95076 169.08045
#
# Velocity S-wave (km/s) = 3.61234 10.76745 8.03079
# Velocity P-wave (km/s) = 5.56297 13.60327 10.39220
#
# Compressibility (1/GPa) = 0.02815468
#
# Stress axis : x y z
#
# Youngs Moduli (GPa) = 84.43415 24.82238 169.22267
#
# Poissons Ratio (x) = 0.31446 0.51860
# Poissons Ratio (y) = 1.06964 -0.13380
# Poissons Ratio (z) = 0.25875 -0.01963
#
# Static dielectric constant tensor:
#      x y z
#    x 2.109640 0.000000 -0.022100 
#    y 0.000000 2.127060 0.000000 
#    z -0.022100 0.000000 2.087420 
# 
# From -- ./inp_files/36766.got.cif
#   From: 2010.05.17/outbox.cif.g08.bks.cpg/sg15_19_cif.got.tgz:36766.got - 2010.06.03 18:47:42.
