data_PCOD9293136
_publ_section_title
;
Structure prediction by ZEFSAII (Michael W. Deem and Ramdas Pophale) SiO2 
 PCOD9293136
Probable space group: C 2/C
;
_chemical_formula_sum "Si O2"
_cell_formula_units_Z 56
_cell_length_a 22.882778
_cell_length_b 8.701434
_cell_length_c 10.803806
_cell_angle_alpha 90.000000
_cell_angle_beta 74.687371
_cell_angle_gamma 90.000000
_cell_volume 2074.809564
_symmetry_space_group_name_H-M "C 2/C"
_symmetry_group_IT_number 15
_symmetry_cell_setting 'monoclinic'
loop_
_space_group_symop_operation_xyz
x,y,z
-x,y,1/2-z
-x,-y,-z
x,-y,1/2+z
1/2+x,1/2+y,z
1/2-x,1/2+y,1/2-z
1/2-x,1/2-y,-z
1/2+x,1/2-y,1/2+z
loop_
_atom_site_type_symbol
_atom_site_label
_atom_site_fract_x
_atom_site_fract_y
_atom_site_fract_z
Si Si1 0.447957 0.858059 0.686595
Si Si2 0.849004 0.381084 0.919897
Si Si3 0.462870 0.503505 0.151965
Si Si4 0.133878 0.318500 0.966652
Si Si5 0.843012 0.848918 0.615011
Si Si6 0.296756 0.396205 0.950993
Si Si7 0.224094 0.179525 0.709732
O O1 0.500000 0.913066 0.750000
O O2 0.390551 0.933453 0.785118
O O3 0.448196 0.673138 0.696362
O O4 0.431469 0.871324 0.550119
O O5 0.833845 0.527910 0.006711
O O6 0.794436 0.290167 0.892159
O O7 0.878492 0.255586 0.992707
O O8 0.500000 0.566831 0.250000
O O9 0.398405 0.581599 0.160285
O O10 0.500000 0.500000 0.000000
O O11 0.175050 0.238892 0.837291
O O12 0.138912 0.194732 0.073219
O O13 0.250000 0.250000 0.000000
O O14 0.805859 0.979801 0.558262
O O15 0.793257 0.729140 0.700699
O O16 0.286300 0.506118 0.836721
#
# Coordination Sequence:
#
# PCOD9293136 Si02
#       7
#     8   8   8   8   8   8   8
#     4  10  22  45  73 106 154 207 265 342 403 476
#     4  10  22  44  74 107 162 205 262 336 413 480
#     4  11  24  48  79 115 160 212 277 341 409 491
#     4  11  23  45  70 107 152 209 260 323 409 497
#     4  11  21  43  70 112 151 207 259 332 406 478
#     4  11  22  41  68 107 150 200 254 320 399 489
#     4  10  24  44  70 107 161 199 258 332 406 494
#
# _framework density 26.990427
#
# number of rings (size 3 to 8) (size 9 to 14) (size 15 to 20)
#    0.000    1.429    1.429    5.143    0.000    2.857 
#   10.286   10.714    0.000    0.000    0.000    0.000 
#    0.000    0.000    0.000    0.000    0.000    0.000 
#
# Total GULP energy -156101.560872 kJ/mol
# GULP energy per Si atom -5575.055745 kJ/mol
# Density = 2.692900 g / cm^3
# Si number density = 26.990427 Si / 1000 Ang^3
#
#
#
# Elastic Constant Matrix: (Units=GPa)
#
#
# Indices 1 2 3 4 5 6 
#
# 1 134.8582 34.7013 57.4434 0.0000 20.8492 0.0000
# 2 34.7013 148.6628 52.0547 0.0000 16.5888 0.0000
# 3 57.4434 52.0547 133.2796 0.0000 18.3055 0.0000
# 4 0.0000 0.0000 0.0000 35.1798 0.0000 11.3450
# 5 20.8492 16.5888 18.3055 0.0000 33.8305 0.0000
# 6 0.0000 0.0000 0.0000 11.3450 0.0000 32.4208
#
#
#
# Elastic Compliance Matrix: (Units=1/GPa)
#
#
# Indices 1 2 3 4 5 6 
#
# 1 0.009599 -0.000639 -0.003368 0.000000 -0.003779 0.000000
# 2 -0.000639 0.008012 -0.002558 0.000000 -0.002150 0.000000
# 3 -0.003368 -0.002558 0.010259 0.000000 -0.002221 0.000000
# 4 0.000000 0.000000 0.000000 0.032041 0.000000 -0.011212
# 5 -0.003779 -0.002150 -0.002221 0.000000 0.034144 0.000000
# 6 0.000000 0.000000 0.000000 -0.011212 0.000000 0.034768
#
#
# Mechanical properties :
#
#
# Convention : Reuss Voigt Hill
#
# Bulk Modulus (GPa) = 67.85360 78.35549 73.10455
# Shear Modulus (GPa) = 34.04446 38.45963 36.25205
#
# Velocity S-wave (km/s) = 3.55541 3.77893 3.66887
# Velocity P-wave (km/s) = 6.48452 6.93789 6.71503
#
# Compressibility (1/GPa) = 0.01473761
#
# Stress axis : x y z
#
# Youngs Moduli (GPa) = 104.18017 124.81957 97.47652
#
# Poissons Ratio (x) = 0.07981 0.32832
# Poissons Ratio (y) = 0.06662 0.24936
# Poissons Ratio (z) = 0.35090 0.31931
#
# Static dielectric constant tensor:
#      x y z
#    x 2.257190 0.000000 0.056510 
#    y 0.000000 2.099620 0.000000 
#    z 0.056510 0.000000 2.382920 
# 
# From -- ./inp_files/111048.got.cif
#   From: 2010.05.17/outbox.cif.g08.bks.cpg/sg15_56_cif.got.tgz:111048.got - 2010.06.03 18:47:42.
