data_PCOD9293011
_publ_section_title
;
Structure prediction by ZEFSAII (Michael W. Deem and Ramdas Pophale) SiO2 
 PCOD9293011
Probable space group: C 2/C
;
_chemical_formula_sum "Si O2"
_cell_formula_units_Z 48
_cell_length_a 25.250485
_cell_length_b 6.859090
_cell_length_c 20.585099
_cell_angle_alpha 90.000000
_cell_angle_beta 30.397310
_cell_angle_gamma 90.000000
_cell_volume 1803.989168
_symmetry_space_group_name_H-M "C 2/C"
_symmetry_group_IT_number 15
_symmetry_cell_setting 'monoclinic'
loop_
_space_group_symop_operation_xyz
x,y,z
-x,y,1/2-z
-x,-y,-z
x,-y,1/2+z
1/2+x,1/2+y,z
1/2-x,1/2+y,1/2-z
1/2-x,1/2-y,-z
1/2+x,1/2-y,1/2+z
loop_
_atom_site_type_symbol
_atom_site_label
_atom_site_fract_x
_atom_site_fract_y
_atom_site_fract_z
Si Si1 0.754940 0.476523 0.471251
Si Si2 0.466885 0.103850 0.181084
Si Si3 0.377633 0.388276 0.164631
Si Si4 0.698129 0.364908 0.396021
Si Si5 0.430969 0.154376 0.615249
Si Si6 0.202115 0.576056 0.941257
O O1 0.750000 0.250000 0.500000
O O2 0.689987 0.489434 0.472130
O O3 0.729196 0.586407 0.565781
O O4 0.871141 0.553667 0.329782
O O5 0.474794 0.890242 0.139554
O O6 0.584338 0.141705 0.079191
O O7 0.500000 0.000000 0.000000
O O8 0.374457 0.347936 0.090848
O O9 0.411566 0.616022 0.126918
O O10 0.261755 0.341560 0.315608
O O11 0.443906 0.268412 0.149224
O O12 0.811260 0.422836 0.246247
O O13 0.703360 0.149738 0.419482
#
# Coordination Sequence:
#
# PCOD9293011 Si02
#       6
#     8   8   8   8   8   8
#     4   9  20  43  72 101 145 204 253 306 385 464
#     4  11  24  42  72 108 147 196 255 314 392 462
#     4  11  25  43  71 113 152 194 256 323 396 463
#     4   9  21  41  70 105 143 196 253 314 385 451
#     4  10  23  42  66 101 148 191 245 314 381 452
#     4  10  22  44  71 102 152 202 251 320 383 471
#
# _framework density 26.607697000000002
#
# number of rings (size 3 to 8) (size 9 to 14) (size 15 to 20)
#    0.000    2.000    0.000    2.500   11.667    1.333 
#    0.000    5.000    3.667    6.000    0.000    0.000 
#    0.000    0.000    0.000    0.000    0.000    0.000 
#
# Total GULP energy -133626.276755 kJ/mol
# GULP energy per Si atom -5567.761531 kJ/mol
# Density = 2.654714 g / cm^3
# Si number density = 26.607697 Si / 1000 Ang^3
#
#
#
# Elastic Constant Matrix: (Units=GPa)
#
#
# Indices 1 2 3 4 5 6 
#
# 1 144.2662 60.9772 50.0452 -0.0011 52.4883 -0.0017
# 2 60.9772 156.4292 77.5325 -0.0164 6.0715 0.0134
# 3 50.0452 77.5325 139.7172 -0.0033 16.1553 0.0050
# 4 -0.0011 -0.0164 -0.0033 47.3718 0.0028 7.4492
# 5 52.4883 6.0715 16.1553 0.0028 52.2788 -0.0022
# 6 -0.0017 0.0134 0.0050 7.4492 -0.0022 43.7889
#
#
#
# Elastic Compliance Matrix: (Units=1/GPa)
#
#
# Indices 1 2 3 4 5 6 
#
# 1 0.013947 -0.004420 -0.001020 -0.000001 -0.013174 0.000001
# 2 -0.004420 0.010232 -0.004636 0.000003 0.004682 -0.000003
# 3 -0.001020 -0.004636 0.010282 -0.000001 -0.001615 0.000000
# 4 -0.000001 0.000003 -0.000001 0.021690 -0.000001 -0.003690
# 5 -0.013174 0.004682 -0.001615 -0.000001 0.032310 0.000000
# 6 0.000001 -0.000003 0.000000 -0.003690 0.000000 0.023465
#
#
# Mechanical properties :
#
#
# Convention : Reuss Voigt Hill
#
# Bulk Modulus (GPa) = 69.88440 90.83582 80.36011
# Shear Modulus (GPa) = 36.53759 45.47841 41.00800
#
# Velocity S-wave (km/s) = 3.70969 4.13876 3.93008
# Velocity P-wave (km/s) = 6.68362 7.55328 7.13172
#
# Compressibility (1/GPa) = 0.01430934
#
# Stress axis : x y z
#
# Youngs Moduli (GPa) = 71.70238 97.73637 97.25825
#
# Poissons Ratio (x) = 0.43198 0.09916
# Poissons Ratio (y) = 0.31691 0.45089
# Poissons Ratio (z) = 0.07310 0.45311
#
# Static dielectric constant tensor:
#      x y z
#    x 2.104720 0.000000 -0.056480 
#    y 0.000000 2.247200 0.000010 
#    z -0.056480 0.000010 2.290950 
# 
# From -- ./inp_files/167152.got.cif
#   From: 2010.05.17/outbox.cif.g08.bks.cpg/sg15_84_cif.got.tgz:167152.got - 2010.06.03 18:47:42.
