data_PCOD9293822
_publ_section_title
;
Structure prediction by ZEFSAII (Michael W. Deem and Ramdas Pophale) SiO2 
 PCOD9293822
Probable space group: C 2/C
;
_chemical_formula_sum "Si O2"
_cell_formula_units_Z 44
_cell_length_a 6.035981
_cell_length_b 12.646415
_cell_length_c 24.920947
_cell_angle_alpha 90.000000
_cell_angle_beta 102.804228
_cell_angle_gamma 90.000000
_cell_volume 1854.999044
_symmetry_space_group_name_H-M "C 2/C"
_symmetry_group_IT_number 15
_symmetry_cell_setting 'monoclinic'
loop_
_space_group_symop_operation_xyz
x,y,z
-x,y,1/2-z
-x,-y,-z
x,-y,1/2+z
1/2+x,1/2+y,z
1/2-x,1/2+y,1/2-z
1/2-x,1/2-y,-z
1/2+x,1/2-y,1/2+z
loop_
_atom_site_type_symbol
_atom_site_label
_atom_site_fract_x
_atom_site_fract_y
_atom_site_fract_z
Si Si1 0.673400 0.458093 0.878118
Si Si2 0.731256 0.261644 0.833540
Si Si3 0.536854 0.684008 0.468005
Si Si4 0.000000 0.810660 0.250000
Si Si5 0.431778 0.945859 0.304784
Si Si6 0.111566 0.820411 0.422676
O O1 0.576653 0.365328 0.834014
O O2 0.632278 0.405430 0.933989
O O3 0.905820 0.481544 0.856293
O O4 0.587218 0.575680 0.885169
O O5 0.878556 0.260561 0.787848
O O6 0.595616 0.152653 0.825101
O O7 0.908991 0.255445 0.892314
O O8 0.750000 0.750000 0.500000
O O9 0.351564 0.760240 0.429384
O O10 0.413820 0.647834 0.516343
O O11 0.190119 0.889430 0.282837
O O12 0.500000 0.992254 0.250000
#
# Coordination Sequence:
#
# PCOD9293822 Si02
#       6
#     8   8   8   4   8   8
#     4  12  24  43  73  98 132 186 223 275 347 405
#     4  11  24  45  69  97 138 176 224 284 339 404
#     4  11  25  47  67 102 142 178 227 287 340 405
#     4  10  22  48  66  94 144 170 218 298 332 402
#     4  10  24  47  66 100 139 173 231 288 337 415
#     4  11  25  47  68 100 140 176 229 283 335 409
#
# _framework density 23.71969
#
# number of rings (size 3 to 8) (size 9 to 14) (size 15 to 20)
#    0.000    1.091    3.636    1.636    1.273    2.182 
#    4.909    0.000    0.000    0.000    0.000    0.000 
#    0.000    0.000    0.000    0.000    0.000    0.000 
#
# Total GULP energy -122674.725860 kJ/mol
# GULP energy per Si atom -5576.123903 kJ/mol
# Density = 2.366570 g / cm^3
# Si number density = 23.719690 Si / 1000 Ang^3
#
#
#
# Elastic Constant Matrix: (Units=GPa)
#
#
# Indices 1 2 3 4 5 6 
#
# 1 95.7059 41.6672 45.8357 0.0000 -0.0481 0.0000
# 2 41.6672 117.0752 43.3690 0.0000 -23.0964 0.0000
# 3 45.8357 43.3690 102.7356 0.0000 -36.7684 0.0000
# 4 0.0000 0.0000 0.0000 31.2692 0.0000 -18.5487
# 5 -0.0481 -23.0964 -36.7684 0.0000 68.4506 0.0000
# 6 0.0000 0.0000 0.0000 -18.5487 0.0000 26.1095
#
#
#
# Elastic Compliance Matrix: (Units=1/GPa)
#
#
# Indices 1 2 3 4 5 6 
#
# 1 0.015565 -0.003911 -0.007133 0.000000 -0.005140 0.000000
# 2 -0.003911 0.011215 -0.002025 0.000000 0.002694 0.000000
# 3 -0.007133 -0.002025 0.016744 0.000000 0.008305 0.000000
# 4 0.000000 0.000000 0.000000 0.055273 0.000000 0.039267
# 5 -0.005140 0.002694 0.008305 0.000000 0.019976 0.000000
# 6 0.000000 0.000000 0.000000 0.039267 0.000000 0.066197
#
#
# Mechanical properties :
#
#
# Convention : Reuss Voigt Hill
#
# Bulk Modulus (GPa) = 57.52235 64.14006 60.83120
# Shear Modulus (GPa) = 23.05171 37.47551 30.26361
#
# Velocity S-wave (km/s) = 3.12081 3.97915 3.57583
# Velocity P-wave (km/s) = 6.10651 6.94342 6.53837
#
# Compressibility (1/GPa) = 0.01738455
#
# Stress axis : x y z
#
# Youngs Moduli (GPa) = 64.24620 89.16448 59.72449
#
# Poissons Ratio (x) = 0.34876 0.42601
# Poissons Ratio (y) = 0.25129 0.12096
# Poissons Ratio (z) = 0.45826 0.18059
#
# Static dielectric constant tensor:
#      x y z
#    x 1.907900 0.000000 -0.047010 
#    y 0.000000 1.910470 0.000000 
#    z -0.047010 0.000000 1.947030 
# 
# From -- ./inp_files/304982.got.cif
#   From: 2010.05.17/outbox.cif.g08.bks.cpg/sg15_153_cif.got.tgz:304982.got - 2010.06.03 18:47:42.
