data_PCOD9293421
_publ_section_title
;
Structure prediction by ZEFSAII (Michael W. Deem and Ramdas Pophale) SiO2 
 PCOD9293421
Probable space group: C 2/C
;
_chemical_formula_sum "Si O2"
_cell_formula_units_Z 56
_cell_length_a 9.244615
_cell_length_b 28.326568
_cell_length_c 16.779767
_cell_angle_alpha 90.000000
_cell_angle_beta 39.684038
_cell_angle_gamma 90.000000
_cell_volume 2805.859805
_symmetry_space_group_name_H-M "C 2/C"
_symmetry_group_IT_number 15
_symmetry_cell_setting 'monoclinic'
loop_
_space_group_symop_operation_xyz
x,y,z
-x,y,1/2-z
-x,-y,-z
x,-y,1/2+z
1/2+x,1/2+y,z
1/2-x,1/2+y,1/2-z
1/2-x,1/2-y,-z
1/2+x,1/2-y,1/2+z
loop_
_atom_site_type_symbol
_atom_site_label
_atom_site_fract_x
_atom_site_fract_y
_atom_site_fract_z
Si Si1 0.781484 0.810990 0.400374
Si Si2 0.569396 0.112067 0.507359
Si Si3 0.246935 0.699060 0.104396
Si Si4 0.862906 0.452798 0.225047
Si Si5 0.552947 0.447448 0.008894
Si Si6 0.962421 0.875983 0.619611
Si Si7 0.442827 0.940642 0.645076
O O1 0.578914 0.843429 0.455205
O O2 0.729042 0.755496 0.410426
O O3 0.790052 0.818387 0.494134
O O4 0.000000 0.820897 0.250000
O O5 0.477548 0.087794 0.625622
O O6 0.532532 0.071977 0.457032
O O7 0.832499 0.125573 0.405505
O O8 0.411597 0.672854 0.096524
O O9 0.000000 0.689636 0.250000
O O10 0.600451 0.440301 0.349220
O O11 0.865206 0.505612 0.188816
O O12 0.000000 0.456343 0.250000
O O13 0.500000 0.500000 0.000000
O O14 0.465296 0.411910 0.980131
O O15 0.816044 0.438152 0.912821
O O16 0.736564 0.901683 0.748285
#
# Coordination Sequence:
#
# PCOD9293421 Si02
#       7
#     8   8   8   8   8   8   8
#     4  10  24  44  68 102 134 168 220 282 340 398
#     4  12  27  41  63  98 136 167 215 275 337 385
#     4  10  22  45  73  96 129 176 224 272 334 410
#     4  12  24  42  62  90 133 171 218 267 322 395
#     4  12  22  40  66  91 123 175 222 262 316 390
#     4  12  23  41  69  95 131 172 220 266 327 399
#     4  12  25  43  65  94 130 178 224 270 321 386
#
# _framework density 19.958231999999999
#
# number of rings (size 3 to 8) (size 9 to 14) (size 15 to 20)
#    0.000    0.571    4.286    3.857    4.000    0.571 
#    2.571    0.000    0.000    5.143    0.000    0.000 
#    0.000    0.000    0.000    0.000    0.000    0.000 
#
# Total GULP energy -156351.433945 kJ/mol
# GULP energy per Si atom -5583.979784 kJ/mol
# Density = 1.991281 g / cm^3
# Si number density = 19.958232 Si / 1000 Ang^3
#
#
#
# Elastic Constant Matrix: (Units=GPa)
#
#
# Indices 1 2 3 4 5 6 
#
# 1 104.6374 33.4793 45.4216 0.0000 -14.0531 0.0000
# 2 33.4793 45.4480 25.4509 0.0000 -3.3094 0.0000
# 3 45.4216 25.4509 122.4208 0.0000 -13.0151 0.0000
# 4 0.0000 0.0000 0.0000 4.3045 0.0000 26.0915
# 5 -14.0531 -3.3094 -13.0151 0.0000 29.4428 0.0000
# 6 0.0000 0.0000 0.0000 26.0915 0.0000 7.1618
#
#
#
# Elastic Compliance Matrix: (Units=1/GPa)
#
#
# Indices 1 2 3 4 5 6 
#
# 1 0.014165 -0.008411 -0.003031 0.000000 0.004476 0.000000
# 2 -0.008411 0.029905 -0.003322 0.000000 -0.002122 0.000000
# 3 -0.003031 -0.003322 0.010273 0.000000 0.002721 0.000000
# 4 0.000000 0.000000 0.000000 -0.011019 0.000000 0.040145
# 5 0.004476 -0.002122 0.002721 0.000000 0.037065 0.000000
# 6 0.000000 0.000000 0.000000 0.040145 0.000000 -0.006623
#
#
# Mechanical properties :
#
#
# Convention : Reuss Voigt Hill
#
# Bulk Modulus (GPa) = 40.29899 53.46776 46.88337
# Shear Modulus (GPa) = 44.81670 19.39213 32.10441
#
# Velocity S-wave (km/s) = 4.74384 3.12049 4.01506
# Velocity P-wave (km/s) = 7.08808 6.31120 6.71089
#
# Compressibility (1/GPa) = 0.02481452
#
# Stress axis : x y z
#
# Youngs Moduli (GPa) = 70.59723 33.43910 97.34187
#
# Poissons Ratio (x) = 0.28126 0.29505
# Poissons Ratio (y) = 0.59381 0.32336
# Poissons Ratio (z) = 0.21399 0.11108
#
# Static dielectric constant tensor:
#      x y z
#    x 1.695660 0.000000 -0.015140 
#    y 0.000000 1.668940 0.000000 
#    z -0.015140 0.000000 1.722860 
# 
# From -- ./inp_files/193850.got.cif
#   From: 2010.05.17/outbox.cif.g08.bks.cpg/sg15_97_cif.got.tgz:193850.got - 2010.06.03 18:47:42.
