data_PCOD9293569
_publ_section_title
;
Structure prediction by ZEFSAII (Michael W. Deem and Ramdas Pophale) SiO2 
 PCOD9293569
Probable space group: C 2/C
;
_chemical_formula_sum "Si O2"
_cell_formula_units_Z 60
_cell_length_a 21.368770
_cell_length_b 8.994559
_cell_length_c 13.579673
_cell_angle_alpha 90.000000
_cell_angle_beta 108.779191
_cell_angle_gamma 90.000000
_cell_volume 2471.106568
_symmetry_space_group_name_H-M "C 2/C"
_symmetry_group_IT_number 15
_symmetry_cell_setting 'monoclinic'
loop_
_space_group_symop_operation_xyz
x,y,z
-x,y,1/2-z
-x,-y,-z
x,-y,1/2+z
1/2+x,1/2+y,z
1/2-x,1/2+y,1/2-z
1/2-x,1/2-y,-z
1/2+x,1/2-y,1/2+z
loop_
_atom_site_type_symbol
_atom_site_label
_atom_site_fract_x
_atom_site_fract_y
_atom_site_fract_z
Si Si1 0.408725 0.106284 0.590414
Si Si2 0.948663 0.946336 0.390406
Si Si3 0.697645 0.067596 0.799948
Si Si4 0.970682 0.320247 0.634226
Si Si5 0.000000 0.160808 0.250000
Si Si6 0.266480 0.263475 0.848549
Si Si7 0.341397 0.621375 0.581972
Si Si8 0.667683 0.349329 0.042380
O O1 0.364293 0.049561 0.659814
O O2 0.458329 0.230416 0.657902
O O3 0.360705 0.187263 0.489882
O O4 0.443620 0.961933 0.563388
O O5 0.875586 0.934811 0.396987
O O6 0.972096 0.779063 0.381721
O O7 0.957962 0.052268 0.300795
O O8 0.000000 0.000000 0.500000
O O9 0.687227 0.175482 0.702807
O O10 0.756180 0.145754 0.892052
O O11 0.729104 0.908630 0.788047
O O12 0.911054 0.204477 0.625002
O O13 0.000000 0.383123 0.750000
O O14 0.206977 0.156623 0.853196
O O15 0.305946 0.312090 0.966070
O O16 0.345681 0.447173 0.562239
#
# Coordination Sequence:
#
# PCOD9293569 Si02
#       8
#     8   8   8   8   4   8   8   8
#     4  12  26  46  68 106 149 183 233 298 362 418
#     4  12  25  47  73 105 131 187 250 284 356 431
#     4  11  26  43  71 106 139 180 243 286 357 420
#     4  12  25  44  72 102 141 185 227 298 354 420
#     4  12  26  46  76  98 146 190 238 300 346 442
#     4  10  24  43  70 101 138 187 229 293 346 423
#     4  10  22  46  68  96 140 184 232 277 357 415
#     4  11  26  45  72 105 137 189 238 291 356 426
#
# _framework density 24.280619999999999
#
# number of rings (size 3 to 8) (size 9 to 14) (size 15 to 20)
#    0.000    0.800    5.333    0.400    7.467    1.600 
#    0.000    0.000    0.000    0.000    0.000    0.000 
#    0.000    0.000    0.000    0.000    0.000    0.000 
#
# Total GULP energy -168054.802795 kJ/mol
# GULP energy per Si atom -5601.826760 kJ/mol
# Density = 2.422536 g / cm^3
# Si number density = 24.280620 Si / 1000 Ang^3
#
#
#
# Elastic Constant Matrix: (Units=GPa)
#
#
# Indices 1 2 3 4 5 6 
#
# 1 79.9102 9.1095 -9.9584 0.0000 -6.1488 0.0000
# 2 9.1095 104.3478 10.2791 0.0000 -2.2682 0.0000
# 3 -9.9584 10.2791 44.3579 0.0000 4.1642 0.0000
# 4 0.0000 0.0000 0.0000 34.5943 0.0000 5.4723
# 5 -6.1488 -2.2682 4.1642 0.0000 33.5710 0.0000
# 6 0.0000 0.0000 0.0000 5.4723 0.0000 28.2151
#
#
#
# Elastic Compliance Matrix: (Units=1/GPa)
#
#
# Indices 1 2 3 4 5 6 
#
# 1 0.013213 -0.001418 0.003113 0.000000 0.001938 0.000000
# 2 -0.001418 0.009990 -0.002704 0.000000 0.000751 0.000000
# 3 0.003113 -0.002704 0.024114 0.000000 -0.002604 0.000000
# 4 0.000000 0.000000 0.000000 0.029821 0.000000 -0.005784
# 5 0.001938 0.000751 -0.002604 0.000000 0.030516 0.000000
# 6 0.000000 0.000000 0.000000 -0.005784 0.000000 0.036564
#
#
# Mechanical properties :
#
#
# Convention : Reuss Voigt Hill
#
# Bulk Modulus (GPa) = 22.07570 27.49735 24.78652
# Shear Modulus (GPa) = 30.99143 33.88846 32.43994
#
# Velocity S-wave (km/s) = 3.57653 3.73996 3.65916
# Velocity P-wave (km/s) = 5.11537 5.47715 5.29935
#
# Compressibility (1/GPa) = 0.04529867
#
# Stress axis : x y z
#
# Youngs Moduli (GPa) = 75.68441 100.10228 41.47022
#
# Poissons Ratio (x) = 0.14194 -0.12909
# Poissons Ratio (y) = 0.10732 0.11212
# Poissons Ratio (z) = -0.23560 0.27065
#
# Static dielectric constant tensor:
#      x y z
#    x 1.879560 0.000000 -0.010340 
#    y 0.000000 1.942720 0.000000 
#    z -0.010340 0.000000 1.963650 
# 
# From -- ./inp_files/172427.got.cif
#   From: 2010.05.17/outbox.cif.g08.bks.cpg/sg15_87_cif.got.tgz:172427.got - 2010.06.03 18:47:42.
