data_PCOD9293950
_publ_section_title
;
Structure prediction by ZEFSAII (Michael W. Deem and Ramdas Pophale) SiO2 
 PCOD9293950
Probable space group: C 2/C
;
_chemical_formula_sum "Si O2"
_cell_formula_units_Z 44
_cell_length_a 13.536971
_cell_length_b 32.093771
_cell_length_c 5.157171
_cell_angle_alpha 90.000000
_cell_angle_beta 88.305591
_cell_angle_gamma 90.000000
_cell_volume 2239.565884
_symmetry_space_group_name_H-M "C 2/C"
_symmetry_group_IT_number 15
_symmetry_cell_setting 'monoclinic'
loop_
_space_group_symop_operation_xyz
x,y,z
-x,y,1/2-z
-x,-y,-z
x,-y,1/2+z
1/2+x,1/2+y,z
1/2-x,1/2+y,1/2-z
1/2-x,1/2-y,-z
1/2+x,1/2-y,1/2+z
loop_
_atom_site_type_symbol
_atom_site_label
_atom_site_fract_x
_atom_site_fract_y
_atom_site_fract_z
Si Si1 0.887327 0.483365 0.861138
Si Si2 0.148352 0.733882 0.375642
Si Si3 0.608417 0.326455 0.309233
Si Si4 0.598910 0.890038 0.576003
Si Si5 0.500000 0.179347 0.750000
Si Si6 0.232241 0.160341 0.313750
O O1 0.840473 0.485962 0.577670
O O2 0.887712 0.438147 0.996989
O O3 0.000000 0.492674 0.750000
O O4 0.250000 0.750000 0.500000
O O5 0.106650 0.776369 0.263393
O O6 0.065810 0.709434 0.555393
O O7 0.194969 0.700342 0.179324
O O8 0.500000 0.342468 0.250000
O O9 0.651317 0.333800 0.593846
O O10 0.682107 0.345070 0.093421
O O11 0.500000 0.889021 0.750000
O O12 0.577595 0.853809 0.368587
O O13 0.692819 0.877121 0.739239
#
# Coordination Sequence:
#
# PCOD9293950 Si02
#       6
#     8   8   8   8   4   8
#     4   9  20  34  55  81 114 155 189 218 270 340
#     4  10  23  37  56  77 109 149 200 254 288 337
#     4  11  25  40  62  78 110 150 201 255 302 341
#     4  11  23  36  59  84 124 155 189 235 283 350
#     4  12  24  38  56  86 114 162 206 238 302 334
#     4  11  23  42  56  86 111 149 195 247 299 342
#
# _framework density 19.646664000000001
#
# number of rings (size 3 to 8) (size 9 to 14) (size 15 to 20)
#    0.000    1.455    1.818    3.273   14.000    0.000 
#    0.000    0.000    0.000    0.000    0.000    0.000 
#    0.000   14.545    0.000    0.000    0.000    0.000 
#
# Total GULP energy -122496.593457 kJ/mol
# GULP energy per Si atom -5568.026975 kJ/mol
# Density = 1.960195 g / cm^3
# Si number density = 19.646664 Si / 1000 Ang^3
#
#
#
# Elastic Constant Matrix: (Units=GPa)
#
#
# Indices 1 2 3 4 5 6 
#
# 1 76.1416 18.8451 -1.1268 0.0000 0.9412 0.0000
# 2 18.8451 69.7130 7.3624 0.0000 4.4322 0.0000
# 3 -1.1268 7.3624 55.0751 0.0000 4.2784 0.0000
# 4 0.0000 0.0000 0.0000 62.1375 0.0000 -31.1447
# 5 0.9412 4.4322 4.2784 0.0000 29.9956 0.0000
# 6 0.0000 0.0000 0.0000 -31.1447 0.0000 34.3798
#
#
#
# Elastic Compliance Matrix: (Units=1/GPa)
#
#
# Indices 1 2 3 4 5 6 
#
# 1 0.014111 -0.003901 0.000809 0.000000 0.000018 0.000000
# 2 -0.003901 0.015736 -0.002035 0.000000 -0.001912 0.000000
# 3 0.000809 -0.002035 0.018631 0.000000 -0.002382 0.000000
# 4 0.000000 0.000000 0.000000 0.029478 0.000000 0.026704
# 5 0.000018 -0.001912 -0.002382 0.000000 0.033960 0.000000
# 6 0.000000 0.000000 0.000000 0.026704 0.000000 0.053278
#
#
# Mechanical properties :
#
#
# Convention : Reuss Voigt Hill
#
# Bulk Modulus (GPa) = 26.16240 27.89900 27.03070
# Shear Modulus (GPa) = 26.56913 37.02585 31.79749
#
# Velocity S-wave (km/s) = 3.68142 4.34589 4.02738
# Velocity P-wave (km/s) = 5.60498 6.27802 5.95103
#
# Compressibility (1/GPa) = 0.03822280
#
# Stress axis : x y z
#
# Youngs Moduli (GPa) = 70.86834 63.55035 53.67504
#
# Poissons Ratio (x) = 0.24791 -0.04341
# Poissons Ratio (y) = 0.27646 0.10922
# Poissons Ratio (z) = -0.05732 0.12931
#
# Static dielectric constant tensor:
#      x y z
#    x 1.773330 0.000000 0.103340 
#    y 0.000000 1.733480 0.000000 
#    z 0.103340 0.000000 1.850640 
# 
# From -- ./inp_files/8501.got.cif
#   From: 2010.05.17/outbox.cif.g08.bks.cpg/sg15_5_cif.got.tgz:8501.got - 2010.06.03 18:47:42.
