data_PCOD9293285
_publ_section_title
;
Structure prediction by ZEFSAII (Michael W. Deem and Ramdas Pophale) SiO2 
 PCOD9293285
Probable space group: C 2/C
;
_chemical_formula_sum "Si O2"
_cell_formula_units_Z 52
_cell_length_a 8.184131
_cell_length_b 32.391535
_cell_length_c 14.635330
_cell_angle_alpha 90.000000
_cell_angle_beta 40.379036
_cell_angle_gamma 90.000000
_cell_volume 2513.478628
_symmetry_space_group_name_H-M "C 2/C"
_symmetry_group_IT_number 15
_symmetry_cell_setting 'monoclinic'
loop_
_space_group_symop_operation_xyz
x,y,z
-x,y,1/2-z
-x,-y,-z
x,-y,1/2+z
1/2+x,1/2+y,z
1/2-x,1/2+y,1/2-z
1/2-x,1/2-y,-z
1/2+x,1/2-y,1/2+z
loop_
_atom_site_type_symbol
_atom_site_label
_atom_site_fract_x
_atom_site_fract_y
_atom_site_fract_z
Si Si1 0.259978 0.409849 0.284804
Si Si2 0.500000 0.530925 0.250000
Si Si3 0.894591 0.679744 0.695323
Si Si4 0.973989 0.744078 0.160010
Si Si5 0.574145 0.472486 0.054036
Si Si6 0.792419 0.669247 0.122054
Si Si7 0.027788 0.581891 0.414902
O O1 0.500000 0.404616 0.250000
O O2 0.212643 0.366553 0.257116
O O3 0.332331 0.444895 0.183292
O O4 0.040810 0.422561 0.447808
O O5 0.622295 0.501543 0.121391
O O6 0.291521 0.558985 0.289771
O O7 0.679405 0.713225 0.765731
O O8 0.000000 0.690281 0.750000
O O9 0.098776 0.677583 0.526129
O O10 0.000000 0.726307 0.250000
O O11 0.826114 0.711632 0.161515
O O12 0.250000 0.750000 0.000000
O O13 0.500000 0.500000 0.000000
O O14 0.810857 0.440857 0.948936
O O15 0.500000 0.657130 0.250000
O O16 0.946397 0.631466 0.103476
#
# Coordination Sequence:
#
# PCOD9293285 Si02
#       7
#     8   4   8   8   8   8   8
#     4   9  20  43  69  93 130 176 223 278 337 408
#     4  12  22  44  64  94 132 174 216 284 344 396
#     4  11  25  43  71 100 136 181 230 283 344 423
#     4  12  26  45  72 104 139 184 233 286 346 413
#     4  11  24  40  69  96 130 175 226 281 341 413
#     4  11  25  47  72 101 142 183 228 289 352 415
#     4  10  22  45  68  95 136 177 222 283 351 408
#
# _framework density 20.688459000000002
#
# number of rings (size 3 to 8) (size 9 to 14) (size 15 to 20)
#    0.000    1.231    4.615    1.385    6.462    4.308 
#    2.769    0.000    0.000    0.000    0.000    0.000 
#    0.000    0.000    0.000    0.000    0.000    0.000 
#
# Total GULP energy -145242.055577 kJ/mol
# GULP energy per Si atom -5586.232907 kJ/mol
# Density = 2.064137 g / cm^3
# Si number density = 20.688459 Si / 1000 Ang^3
#
#
#
# Elastic Constant Matrix: (Units=GPa)
#
#
# Indices 1 2 3 4 5 6 
#
# 1 60.7242 23.8135 19.1950 0.0000 14.2310 0.0000
# 2 23.8135 110.4302 32.5093 0.0000 1.8013 0.0000
# 3 19.1950 32.5093 79.4973 0.0000 -4.8223 0.0000
# 4 0.0000 0.0000 0.0000 33.0514 0.0000 8.3656
# 5 14.2310 1.8013 -4.8223 0.0000 29.9708 0.0000
# 6 0.0000 0.0000 0.0000 8.3656 0.0000 60.3263
#
#
#
# Elastic Compliance Matrix: (Units=1/GPa)
#
#
# Indices 1 2 3 4 5 6 
#
# 1 0.021704 -0.003145 -0.004613 0.000000 -0.010859 0.000000
# 2 -0.003145 0.010802 -0.003642 0.000000 0.000258 0.000000
# 3 -0.004613 -0.003642 0.015480 0.000000 0.004900 0.000000
# 4 0.000000 0.000000 0.000000 0.031357 0.000000 -0.004348
# 5 -0.010859 0.000258 0.004900 0.000000 0.039295 0.000000
# 6 0.000000 0.000000 0.000000 -0.004348 0.000000 0.017180
#
#
# Mechanical properties :
#
#
# Convention : Reuss Voigt Hill
#
# Bulk Modulus (GPa) = 39.70666 44.63194 42.16930
# Shear Modulus (GPa) = 29.93784 36.34528 33.14156
#
# Velocity S-wave (km/s) = 3.80818 4.19595 4.00676
# Velocity P-wave (km/s) = 6.21052 6.71527 6.46782
#
# Compressibility (1/GPa) = 0.02518469
#
# Stress axis : x y z
#
# Youngs Moduli (GPa) = 46.07346 92.57781 64.60133
#
# Poissons Ratio (x) = 0.29118 0.29802
# Poissons Ratio (y) = 0.14491 0.23529
# Poissons Ratio (z) = 0.21255 0.33718
#
# Static dielectric constant tensor:
#      x y z
#    x 1.732970 0.000000 -0.028340 
#    y 0.000000 1.728580 0.000000 
#    z -0.028340 0.000000 1.791900 
# 
# From -- ./inp_files/139727.got.cif
#   From: 2010.05.17/outbox.cif.g08.bks.cpg/sg15_70_cif.got.tgz:139727.got - 2010.06.03 18:47:42.
