data_PCOD9293144
_publ_section_title
;
Structure prediction by ZEFSAII (Michael W. Deem and Ramdas Pophale) SiO2 
 PCOD9293144
Probable space group: C 2/C
;
_chemical_formula_sum "Si O2"
_cell_formula_units_Z 52
_cell_length_a 25.643403
_cell_length_b 10.722681
_cell_length_c 9.244745
_cell_angle_alpha 90.000000
_cell_angle_beta 108.860753
_cell_angle_gamma 90.000000
_cell_volume 2405.503761
_symmetry_space_group_name_H-M "C 2/C"
_symmetry_group_IT_number 15
_symmetry_cell_setting 'monoclinic'
loop_
_space_group_symop_operation_xyz
x,y,z
-x,y,1/2-z
-x,-y,-z
x,-y,1/2+z
1/2+x,1/2+y,z
1/2-x,1/2+y,1/2-z
1/2-x,1/2-y,-z
1/2+x,1/2-y,1/2+z
loop_
_atom_site_type_symbol
_atom_site_label
_atom_site_fract_x
_atom_site_fract_y
_atom_site_fract_z
Si Si1 0.836755 0.506707 0.364848
Si Si2 0.144283 0.899050 0.377329
Si Si3 0.236743 0.604351 0.449677
Si Si4 0.000000 0.687911 0.250000
Si Si5 0.088115 0.710456 0.554473
Si Si6 0.440319 0.384884 0.715710
Si Si7 0.406347 0.246691 0.395155
O O1 0.808531 0.453692 0.483666
O O2 0.868662 0.384473 0.335374
O O3 0.884269 0.610671 0.417480
O O4 0.788176 0.567603 0.226837
O O5 0.203046 0.953191 0.473143
O O6 0.119895 0.813741 0.485247
O O7 0.143905 0.811110 0.236302
O O8 0.103825 0.009206 0.297428
O O9 0.250000 0.750000 0.500000
O O10 0.957214 0.748557 0.326770
O O11 0.045839 0.638116 0.407584
O O12 0.057653 0.785658 0.652978
O O13 0.500000 0.444974 0.750000
O O14 0.423383 0.318555 0.552740
#
# Coordination Sequence:
#
# PCOD9293144 Si02
#       7
#     8   8   8   4   8   8   8
#     4  12  26  47  78 102 151 188 248 306 360 448
#     4  11  26  44  72 101 147 187 235 298 373 430
#     4  12  25  49  74 105 143 192 241 305 366 433
#     4  10  22  44  74  94 152 188 228 298 362 434
#     4  11  24  46  68 110 137 193 239 296 370 435
#     4  12  26  43  71 107 144 184 251 299 355 444
#     4  11  24  46  68 110 137 193 239 296 370 435
#
# _framework density 21.617093000000001
#
# number of rings (size 3 to 8) (size 9 to 14) (size 15 to 20)
#    0.000    0.615    4.615    2.769    8.615    1.846 
#    2.769    2.308    0.000    0.000    0.000    0.000 
#    0.000    0.000    0.000    0.000    0.000    0.000 
#
# Total GULP energy -145031.448150 kJ/mol
# GULP energy per Si atom -5578.132621 kJ/mol
# Density = 2.156789 g / cm^3
# Si number density = 21.617093 Si / 1000 Ang^3
#
#
#
# Elastic Constant Matrix: (Units=GPa)
#
#
# Indices 1 2 3 4 5 6 
#
# 1 62.5506 0.0818 -2.4745 0.0000 7.8962 0.0000
# 2 0.0818 54.5175 9.5997 0.0000 -5.0389 0.0000
# 3 -2.4745 9.5997 77.7298 0.0000 -1.0833 0.0000
# 4 0.0000 0.0000 0.0000 7.2470 0.0000 11.4250
# 5 7.8962 -5.0389 -1.0833 0.0000 42.5295 0.0000
# 6 0.0000 0.0000 0.0000 11.4250 0.0000 20.0083
#
#
#
# Elastic Compliance Matrix: (Units=1/GPa)
#
#
# Indices 1 2 3 4 5 6 
#
# 1 0.016397 -0.000402 0.000529 0.000000 -0.003079 0.000000
# 2 -0.000402 0.018961 -0.002323 0.000000 0.002262 0.000000
# 3 0.000529 -0.002323 0.013168 0.000000 -0.000038 0.000000
# 4 0.000000 0.000000 0.000000 1.382885 0.000000 -0.789648
# 5 -0.003079 0.002262 -0.000038 0.000000 0.024352 0.000000
# 6 0.000000 0.000000 0.000000 -0.789648 0.000000 0.500880
#
#
# Mechanical properties :
#
#
# Convention : Reuss Voigt Hill
#
# Bulk Modulus (GPa) = 22.65836 23.24578 22.95207
# Shear Modulus (GPa) = 2.53069 26.46301 14.49685
#
# Velocity S-wave (km/s) = 1.08316 3.50261 2.59244
# Velocity P-wave (km/s) = 3.47401 5.20908 4.42737
#
# Compressibility (1/GPa) = 0.04413383
#
# Stress axis : x y z
#
# Youngs Moduli (GPa) = 60.98625 52.73852 75.94008
#
# Poissons Ratio (x) = 0.02121 -0.04015
# Poissons Ratio (y) = 0.02453 0.17641
# Poissons Ratio (z) = -0.03225 0.12251
#
# Static dielectric constant tensor:
#      x y z
#    x 1.825230 0.000000 0.020860 
#    y 0.000000 1.801250 0.000000 
#    z 0.020860 0.000000 1.850520 
# 
# From -- ./inp_files/65588.got.cif
#   From: 2010.05.17/outbox.cif.g08.bks.cpg/sg15_33_cif.got.tgz:65588.got - 2010.06.03 18:47:42.
