data_PCOD9293936
_publ_section_title
;
Structure prediction by ZEFSAII (Michael W. Deem and Ramdas Pophale) SiO2 
 PCOD9293936
Probable space group: C 2/C
;
_chemical_formula_sum "Si O2"
_cell_formula_units_Z 48
_cell_length_a 25.059337
_cell_length_b 15.135686
_cell_length_c 8.321918
_cell_angle_alpha 90.000000
_cell_angle_beta 140.443988
_cell_angle_gamma 90.000000
_cell_volume 2010.111591
_symmetry_space_group_name_H-M "C 2/C"
_symmetry_group_IT_number 15
_symmetry_cell_setting 'monoclinic'
loop_
_space_group_symop_operation_xyz
x,y,z
-x,y,1/2-z
-x,-y,-z
x,-y,1/2+z
1/2+x,1/2+y,z
1/2-x,1/2+y,1/2-z
1/2-x,1/2-y,-z
1/2+x,1/2-y,1/2+z
loop_
_atom_site_type_symbol
_atom_site_label
_atom_site_fract_x
_atom_site_fract_y
_atom_site_fract_z
Si Si1 0.205807 0.284397 0.060358
Si Si2 0.000000 0.874306 0.750000
Si Si3 0.515732 0.734538 0.615870
Si Si4 0.715210 0.611524 0.292440
Si Si5 0.095922 0.396352 0.192192
Si Si6 0.826958 0.062520 0.966620
Si Si7 0.000000 0.465421 0.250000
O O1 0.216394 0.208461 0.219925
O O2 0.254857 0.373229 0.225069
O O3 0.250000 0.250000 0.000000
O O4 0.104659 0.287865 0.809331
O O5 0.989664 0.818910 0.561461
O O6 0.913577 0.926000 0.572685
O O7 0.500000 0.684269 0.750000
O O8 0.440437 0.804283 0.449033
O O9 0.806181 0.595132 0.578380
O O10 0.658254 0.593118 0.315573
O O11 0.698881 0.539285 0.116210
O O12 0.062929 0.406864 0.295594
O O13 0.054241 0.472380 0.990266
#
# Coordination Sequence:
#
# PCOD9293936 Si02
#       7
#     8   4   8   8   8   8   4
#     4  12  26  48  73 110 150 197 251 311 377 447
#     4  12  27  50  74 109 144 204 256 310 377 443
#     4  12  25  46  75 108 151 197 251 311 378 455
#     4  12  27  48  76 109 151 196 247 319 377 451
#     4  11  23  41  68 105 146 191 238 305 382 454
#     4  12  27  49  77 110 148 196 258 309 383 452
#     4  10  23  36  62 105 144 186 238 298 369 465
#
# _framework density 23.879270999999999
#
# number of rings (size 3 to 8) (size 9 to 14) (size 15 to 20)
#    0.000    0.333    2.500    6.000    7.000    0.667 
#    1.500    0.000    0.000    0.000    0.000    0.000 
#    0.000    0.000    0.000    0.000    0.000    0.000 
#
# Total GULP energy -134422.395790 kJ/mol
# GULP energy per Si atom -5600.933158 kJ/mol
# Density = 2.382492 g / cm^3
# Si number density = 23.879271 Si / 1000 Ang^3
#
#
#
# Elastic Constant Matrix: (Units=GPa)
#
#
# Indices 1 2 3 4 5 6 
#
# 1 153.4941 9.2404 26.9930 0.0000 -9.9010 0.0000
# 2 9.2404 48.0105 13.6759 0.0000 10.3877 0.0000
# 3 26.9930 13.6759 75.8017 0.0000 11.3240 0.0000
# 4 0.0000 0.0000 0.0000 47.0861 0.0000 5.3846
# 5 -9.9010 10.3877 11.3240 0.0000 44.7548 0.0000
# 6 0.0000 0.0000 0.0000 5.3846 0.0000 57.5705
#
#
#
# Elastic Compliance Matrix: (Units=1/GPa)
#
#
# Indices 1 2 3 4 5 6 
#
# 1 0.007234 -0.001164 -0.002749 0.000000 0.002566 0.000000
# 2 -0.001164 0.022953 -0.003006 0.000000 -0.004824 0.000000
# 3 -0.002749 -0.003006 0.015278 0.000000 -0.003776 0.000000
# 4 0.000000 0.000000 0.000000 0.021467 0.000000 -0.002008
# 5 0.002566 -0.004824 -0.003776 0.000000 0.024987 0.000000
# 6 0.000000 0.000000 0.000000 -0.002008 0.000000 0.017558
#
#
# Mechanical properties :
#
#
# Convention : Reuss Voigt Hill
#
# Bulk Modulus (GPa) = 31.61977 41.90277 36.76127
# Shear Modulus (GPa) = 37.35310 45.04206 41.19758
#
# Velocity S-wave (km/s) = 3.95935 4.34780 4.15811
# Velocity P-wave (km/s) = 5.84570 6.54143 6.20333
#
# Compressibility (1/GPa) = 0.03162578
#
# Stress axis : x y z
#
# Youngs Moduli (GPa) = 138.23548 43.56743 65.45454
#
# Poissons Ratio (x) = 0.05073 0.17996
# Poissons Ratio (y) = 0.16096 0.19674
# Poissons Ratio (z) = 0.38006 0.13095
#
# Static dielectric constant tensor:
#      x y z
#    x 1.940470 0.000000 -0.029510 
#    y 0.000000 1.855700 0.000000 
#    z -0.029510 0.000000 1.959560 
# 
# From -- ./inp_files/66529.got.cif
#   From: 2010.05.17/outbox.cif.g08.bks.cpg/sg15_34_cif.got.tgz:66529.got - 2010.06.03 18:47:42.
