data_PCOD9293216
_publ_section_title
;
Structure prediction by ZEFSAII (Michael W. Deem and Ramdas Pophale) SiO2 
 PCOD9293216
Probable space group: C 2/C
;
_chemical_formula_sum "Si O2"
_cell_formula_units_Z 32
_cell_length_a 8.328901
_cell_length_b 19.291941
_cell_length_c 9.181219
_cell_angle_alpha 90.000000
_cell_angle_beta 116.285501
_cell_angle_gamma 90.000000
_cell_volume 1322.701941
_symmetry_space_group_name_H-M "C 2/C"
_symmetry_group_IT_number 15
_symmetry_cell_setting 'monoclinic'
loop_
_space_group_symop_operation_xyz
x,y,z
-x,y,1/2-z
-x,-y,-z
x,-y,1/2+z
1/2+x,1/2+y,z
1/2-x,1/2+y,1/2-z
1/2-x,1/2-y,-z
1/2+x,1/2-y,1/2+z
loop_
_atom_site_type_symbol
_atom_site_label
_atom_site_fract_x
_atom_site_fract_y
_atom_site_fract_z
Si Si1 0.625333 0.491303 0.688442
Si Si2 0.000000 0.494616 0.250000
Si Si3 0.307902 0.253498 0.691060
Si Si4 0.866710 0.611635 0.890177
Si Si5 0.000000 0.330552 0.750000
O O1 0.500000 0.451410 0.750000
O O2 0.500000 0.500000 0.500000
O O3 0.819446 0.465336 0.714937
O O4 0.693367 0.562500 0.794961
O O5 0.976310 0.440236 0.106855
O O6 0.500000 0.289830 0.750000
O O7 0.250000 0.250000 0.500000
O O8 0.343272 0.178585 0.779712
O O9 0.161220 0.288074 0.736594
O O10 0.912003 0.634797 0.069970
#
# Coordination Sequence:
#
# PCOD9293216 Si02
#       5
#     8   4   8   8   4
#     4  10  23  46  72  98 132 178 237 292 359 416
#     4   8  20  44  69  94 140 170 237 284 362 396
#     4  12  23  40  68 103 148 191 235 276 346 424
#     4  10  22  45  64 105 141 186 227 293 349 415
#     4  12  24  40  69 104 152 184 235 284 346 422
#
# _framework density 24.192902
#
# number of rings (size 3 to 8) (size 9 to 14) (size 15 to 20)
#    1.500    0.000    3.750    0.750    1.750    1.000 
#    4.500    1.250    0.000    0.000    0.000    0.000 
#    0.000    0.000    0.000    0.000    0.000    0.000 
#
# Total GULP energy -89187.954440 kJ/mol
# GULP energy per Si atom -5574.247152 kJ/mol
# Density = 2.413784 g / cm^3
# Si number density = 24.192902 Si / 1000 Ang^3
#
#
#
# Elastic Constant Matrix: (Units=GPa)
#
#
# Indices 1 2 3 4 5 6 
#
# 1 249.3833 47.4293 77.7141 0.0000 -11.1955 0.0000
# 2 47.4293 106.3108 56.1227 0.0000 -14.4384 0.0000
# 3 77.7141 56.1227 222.6441 0.0000 -11.1795 0.0000
# 4 0.0000 0.0000 0.0000 19.6284 0.0000 -12.2200
# 5 -11.1955 -14.4384 -11.1795 0.0000 47.7126 0.0000
# 6 0.0000 0.0000 0.0000 -12.2200 0.0000 -0.7621
#
#
#
# Elastic Compliance Matrix: (Units=1/GPa)
#
#
# Indices 1 2 3 4 5 6 
#
# 1 0.004683 -0.001366 -0.001271 0.000000 0.000388 0.000000
# 2 -0.001366 0.011596 -0.002314 0.000000 0.002647 0.000000
# 3 -0.001271 -0.002314 0.005533 0.000000 0.000298 0.000000
# 4 0.000000 0.000000 0.000000 0.004639 0.000000 -0.074382
# 5 0.000388 0.002647 0.000298 0.000000 0.021921 0.000000
# 6 0.000000 0.000000 0.000000 -0.074382 0.000000 -0.119476
#
#
# Mechanical properties :
#
#
# Convention : Reuss Voigt Hill
#
# Bulk Modulus (GPa) = 83.94578 104.54117 94.24347
# Shear Modulus (GPa) = -87.36378 39.78725 -23.78826
#
# Velocity S-wave (km/s) = -6.01579 4.05975 -3.13912
# Velocity P-wave (km/s) = 3.67139 8.07965 5.08928
#
# Compressibility (1/GPa) = 0.01191245
#
# Stress axis : x y z
#
# Youngs Moduli (GPa) = 213.53445 86.23302 180.72580
#
# Poissons Ratio (x) = 0.11777 0.22969
# Poissons Ratio (y) = 0.29163 0.41812
# Poissons Ratio (z) = 0.27138 0.19951
#
# Static dielectric constant tensor:
#      x y z
#    x 2.025930 0.000000 -0.003740 
#    y 0.000000 1.994200 0.000000 
#    z -0.003740 0.000000 2.056220 
# 
# From -- ./inp_files/24180.got.cif
#   From: 2010.05.17/outbox.cif.g08.bks.cpg/sg15_13_cif.got.tgz:24180.got - 2010.06.03 18:47:42.
