data_PCOD9293117
_publ_section_title
;
Structure prediction by ZEFSAII (Michael W. Deem and Ramdas Pophale) SiO2 
 PCOD9293117
Probable space group: C 2/C
;
_chemical_formula_sum "Si O2"
_cell_formula_units_Z 32
_cell_length_a 8.282170
_cell_length_b 11.789040
_cell_length_c 14.245562
_cell_angle_alpha 90.000000
_cell_angle_beta 63.696945
_cell_angle_gamma 90.000000
_cell_volume 1246.908094
_symmetry_space_group_name_H-M "C 2/C"
_symmetry_group_IT_number 15
_symmetry_cell_setting 'monoclinic'
loop_
_space_group_symop_operation_xyz
x,y,z
-x,y,1/2-z
-x,-y,-z
x,-y,1/2+z
1/2+x,1/2+y,z
1/2-x,1/2+y,1/2-z
1/2-x,1/2-y,-z
1/2+x,1/2-y,1/2+z
loop_
_atom_site_type_symbol
_atom_site_label
_atom_site_fract_x
_atom_site_fract_y
_atom_site_fract_z
Si Si1 0.697857 0.463837 0.225247
Si Si2 0.020246 0.670357 0.558390
Si Si3 0.213805 0.000569 0.433349
Si Si4 0.000000 0.817056 0.750000
Si Si5 0.250000 0.750000 0.000000
O O1 0.500000 0.414521 0.250000
O O2 0.837409 0.402418 0.122746
O O3 0.753712 0.454338 0.318689
O O4 0.667450 0.597320 0.219305
O O5 0.814304 0.415266 0.478285
O O6 0.963998 0.740600 0.482146
O O7 0.028021 0.748339 0.648296
O O8 0.225599 0.370441 0.565189
O O9 0.000000 0.000000 0.500000
#
# Coordination Sequence:
#
# PCOD9293117 Si02
#       5
#     8   8   8   4   4
#     4  10  22  45  68 101 137 187 248 298 363 448
#     4  12  24  48  71 104 148 190 251 305 373 455
#     4  12  26  44  68 104 148 187 241 309 368 447
#     4  10  22  44  74 100 136 196 246 296 366 448
#     4  12  26  44  70 112 140 190 236 314 380 420
#
# _framework density 25.663477
#
# number of rings (size 3 to 8) (size 9 to 14) (size 15 to 20)
#    0.750    0.000    5.000    2.250    0.000    3.000 
#    4.500    0.000    0.000    0.000    0.000    0.000 
#    0.000    0.000    0.000    0.000    0.000    0.000 
#
# Total GULP energy -89083.842724 kJ/mol
# GULP energy per Si atom -5567.740170 kJ/mol
# Density = 2.560507 g / cm^3
# Si number density = 25.663477 Si / 1000 Ang^3
#
#
#
# Elastic Constant Matrix: (Units=GPa)
#
#
# Indices 1 2 3 4 5 6 
#
# 1 152.8268 23.6325 -1.4361 0.0000 5.3099 0.0000
# 2 23.6325 66.4158 -16.5727 0.0000 -6.9245 0.0000
# 3 -1.4361 -16.5727 46.2461 0.0000 9.1154 0.0000
# 4 0.0000 0.0000 0.0000 70.3199 0.0000 20.9087
# 5 5.3099 -6.9245 9.1154 0.0000 44.3042 0.0000
# 6 0.0000 0.0000 0.0000 20.9087 0.0000 76.2127
#
#
#
# Elastic Compliance Matrix: (Units=1/GPa)
#
#
# Indices 1 2 3 4 5 6 
#
# 1 0.007003 -0.002747 -0.000539 0.000000 -0.001158 0.000000
# 2 -0.002747 0.017699 0.005886 0.000000 0.001885 0.000000
# 3 -0.000539 0.005886 0.024516 0.000000 -0.004060 0.000000
# 4 0.000000 0.000000 0.000000 0.015484 0.000000 -0.004248
# 5 -0.001158 0.001885 -0.004060 0.000000 0.023840 0.000000
# 6 0.000000 0.000000 0.000000 -0.004248 0.000000 0.014287
#
#
# Mechanical properties :
#
#
# Convention : Reuss Voigt Hill
#
# Bulk Modulus (GPa) = 18.37593 30.74845 24.56219
# Shear Modulus (GPa) = 43.18964 55.49170 49.34067
#
# Velocity S-wave (km/s) = 4.10679 4.65508 4.38951
# Velocity P-wave (km/s) = 5.44643 6.39535 5.93987
#
# Compressibility (1/GPa) = 0.05441902
#
# Stress axis : x y z
#
# Youngs Moduli (GPa) = 142.78931 56.49925 40.78940
#
# Poissons Ratio (x) = 0.15521 0.02198
# Poissons Ratio (y) = 0.39226 -0.24008
# Poissons Ratio (z) = 0.07693 -0.33255
#
# Static dielectric constant tensor:
#      x y z
#    x 2.044980 0.000000 0.026740 
#    y 0.000000 2.476030 0.000000 
#    z 0.026740 0.000000 2.017360 
# 
# From -- ./inp_files/132364.got.cif
#   From: 2010.05.17/outbox.cif.g08.bks.cpg/sg15_67_cif.got.tgz:132364.got - 2010.06.03 18:47:42.
