data_PCOD9293883
_publ_section_title
;
Structure prediction by ZEFSAII (Michael W. Deem and Ramdas Pophale) SiO2 
 PCOD9293883
Probable space group: C 2/C
;
_chemical_formula_sum "Si O2"
_cell_formula_units_Z 44
_cell_length_a 26.576572
_cell_length_b 17.912915
_cell_length_c 10.787574
_cell_angle_alpha 90.000000
_cell_angle_beta 22.731655
_cell_angle_gamma 90.000000
_cell_volume 1984.466382
_symmetry_space_group_name_H-M "C 2/C"
_symmetry_group_IT_number 15
_symmetry_cell_setting 'monoclinic'
loop_
_space_group_symop_operation_xyz
x,y,z
-x,y,1/2-z
-x,-y,-z
x,-y,1/2+z
1/2+x,1/2+y,z
1/2-x,1/2+y,1/2-z
1/2-x,1/2-y,-z
1/2+x,1/2-y,1/2+z
loop_
_atom_site_type_symbol
_atom_site_label
_atom_site_fract_x
_atom_site_fract_y
_atom_site_fract_z
Si Si1 0.234864 0.129643 0.773447
Si Si2 0.164095 0.907512 0.919511
Si Si3 0.500000 0.455480 0.750000
Si Si4 0.867449 0.191457 0.247994
Si Si5 0.157324 0.229768 0.598057
Si Si6 0.920785 0.506467 0.807322
O O1 0.294730 0.210405 0.611527
O O2 0.351976 0.071889 0.496077
O O3 0.167959 0.135871 0.059472
O O4 0.118947 0.100022 0.945553
O O5 0.112928 0.857319 0.920891
O O6 0.302988 0.936391 0.557555
O O7 0.181230 0.853454 0.995901
O O8 0.080621 0.981530 0.144567
O O9 0.750000 0.250000 0.500000
O O10 0.002492 0.233862 0.971135
O O11 0.250000 0.250000 0.500000
O O12 0.000000 0.528990 0.750000
O O13 0.000000 0.500000 0.500000
#
# Coordination Sequence:
#
# PCOD9293883 Si02
#       6
#     8   8   4   8   8   8
#     4  11  26  44  74 106 145 189 253 304 376 447
#     4  11  24  47  74 102 145 199 250 305 379 456
#     4  10  22  50  68 108 144 192 246 304 374 456
#     4  12  25  45  75 105 148 197 247 314 376 454
#     4  12  27  45  73 106 146 195 250 312 368 450
#     4  11  27  46  72 110 152 197 250 317 387 457
#
# _framework density 22.172207
#
# number of rings (size 3 to 8) (size 9 to 14) (size 15 to 20)
#    0.000    0.727    3.636    2.182    7.636    0.727 
#    4.909    0.000    0.000    0.000    0.000    0.000 
#    0.000    0.000    0.000    0.000    0.000    0.000 
#
# Total GULP energy -122816.402381 kJ/mol
# GULP energy per Si atom -5582.563745 kJ/mol
# Density = 2.212174 g / cm^3
# Si number density = 22.172207 Si / 1000 Ang^3
#
#
#
# Elastic Constant Matrix: (Units=GPa)
#
#
# Indices 1 2 3 4 5 6 
#
# 1 114.6008 26.1393 63.3380 0.0000 0.9706 0.0000
# 2 26.1393 103.8014 58.7302 0.0000 -6.1633 0.0000
# 3 63.3380 58.7302 149.1512 -0.0001 -9.1910 0.0000
# 4 0.0000 0.0000 -0.0001 54.2833 0.0000 -9.3859
# 5 0.9706 -6.1633 -9.1910 0.0000 42.5492 0.0000
# 6 0.0000 0.0000 0.0000 -9.3859 0.0000 12.0694
#
#
#
# Elastic Compliance Matrix: (Units=1/GPa)
#
#
# Indices 1 2 3 4 5 6 
#
# 1 0.011480 -0.000213 -0.004874 0.000000 -0.001346 0.000000
# 2 -0.000213 0.012423 -0.004753 0.000000 0.000778 0.000000
# 3 -0.004874 -0.004753 0.010754 0.000000 0.001746 0.000000
# 4 0.000000 0.000000 0.000000 0.021284 0.000000 0.016552
# 5 -0.001346 0.000778 0.001746 0.000000 0.024023 0.000000
# 6 0.000000 0.000000 0.000000 0.016552 0.000000 0.095726
#
#
# Mechanical properties :
#
#
# Convention : Reuss Voigt Hill
#
# Bulk Modulus (GPa) = 66.77510 73.77426 70.27468
# Shear Modulus (GPa) = 24.95493 36.40343 30.67918
#
# Velocity S-wave (km/s) = 3.35849 4.05637 3.72382
# Velocity P-wave (km/s) = 6.72468 7.43535 7.08892
#
# Compressibility (1/GPa) = 0.01497564
#
# Stress axis : x y z
#
# Youngs Moduli (GPa) = 87.11042 80.49579 92.99215
#
# Poissons Ratio (x) = 0.01715 0.45324
# Poissons Ratio (y) = 0.01856 0.44202
# Poissons Ratio (z) = 0.42457 0.38262
#
# Static dielectric constant tensor:
#      x y z
#    x 2.002530 0.000000 0.009560 
#    y 0.000000 1.829990 0.000000 
#    z 0.009560 0.000000 1.850100 
# 
# From -- ./inp_files/127265.got.cif
#   From: 2010.05.17/outbox.cif.g08.bks.cpg/sg15_64_cif.got.tgz:127265.got - 2010.06.03 18:47:42.
