data_PCOD9293131
_publ_section_title
;
Structure prediction by ZEFSAII (Michael W. Deem and Ramdas Pophale) SiO2 
 PCOD9293131
Probable space group: C 2/C
;
_chemical_formula_sum "Si O2"
_cell_formula_units_Z 40
_cell_length_a 25.563982
_cell_length_b 8.866116
_cell_length_c 20.080259
_cell_angle_alpha 90.000000
_cell_angle_beta 161.088267
_cell_angle_gamma 90.000000
_cell_volume 1475.112674
_symmetry_space_group_name_H-M "C 2/C"
_symmetry_group_IT_number 15
_symmetry_cell_setting 'monoclinic'
loop_
_space_group_symop_operation_xyz
x,y,z
-x,y,1/2-z
-x,-y,-z
x,-y,1/2+z
1/2+x,1/2+y,z
1/2-x,1/2+y,1/2-z
1/2-x,1/2-y,-z
1/2+x,1/2-y,1/2+z
loop_
_atom_site_type_symbol
_atom_site_label
_atom_site_fract_x
_atom_site_fract_y
_atom_site_fract_z
Si Si1 0.500000 0.318439 0.750000
Si Si2 0.291749 0.982304 0.658757
Si Si3 0.250000 0.250000 0.000000
Si Si4 0.999336 0.746283 0.603043
Si Si5 0.850603 0.071653 0.748645
Si Si6 0.818847 0.239697 0.356989
O O1 0.358003 0.427129 0.553590
O O2 0.534960 0.227175 0.724941
O O3 0.423565 0.101478 0.838506
O O4 0.340932 0.868784 0.659560
O O5 0.226967 0.885277 0.642209
O O6 0.273867 0.379302 0.086355
O O7 0.811918 0.746819 0.358923
O O8 0.080411 0.904241 0.678832
O O9 0.719026 0.105664 0.647571
O O10 0.003953 0.182225 0.949988
#
# Coordination Sequence:
#
# PCOD9293131 Si02
#       6
#     4   8   4   8   8   8
#     4  12  24  46  74 100 156 192 258 310 382 438
#     4  11  23  47  72 105 149 204 243 324 373 459
#     4  10  22  44  74 104 150 192 258 298 386 440
#     4  12  26  46  74 110 150 202 256 313 384 456
#     4  11  25  48  74 111 152 204 251 320 375 464
#     4  11  26  48  75 109 156 195 254 314 388 446
#
# _framework density 27.116572000000001
#
# number of rings (size 3 to 8) (size 9 to 14) (size 15 to 20)
#    0.000    0.800    4.000    1.800    2.800    5.600 
#    7.200    1.000    0.000    0.000    0.000    0.000 
#    0.000    0.000    0.000    0.000    0.000    0.000 
#
# Total GULP energy -111609.299874 kJ/mol
# GULP energy per Si atom -5580.464994 kJ/mol
# Density = 2.705485 g / cm^3
# Si number density = 27.116572 Si / 1000 Ang^3
#
#
#
# Elastic Constant Matrix: (Units=GPa)
#
#
# Indices 1 2 3 4 5 6 
#
# 1 91.1064 26.6819 44.2568 0.0000 -13.7622 0.0000
# 2 26.6819 95.2931 5.7549 0.0000 6.1167 0.0000
# 3 44.2568 5.7549 106.4214 0.0000 -21.6606 0.0000
# 4 0.0000 0.0000 0.0000 45.8826 0.0000 3.4229
# 5 -13.7622 6.1167 -21.6606 0.0000 53.5190 0.0000
# 6 0.0000 0.0000 0.0000 3.4229 0.0000 44.3552
#
#
#
# Elastic Compliance Matrix: (Units=1/GPa)
#
#
# Indices 1 2 3 4 5 6 
#
# 1 0.015247 -0.004058 -0.005698 0.000000 0.002078 0.000000
# 2 -0.004058 0.011730 0.000619 0.000000 -0.002134 0.000000
# 3 -0.005698 0.000619 0.012445 0.000000 0.003501 0.000000
# 4 0.000000 0.000000 0.000000 0.021921 0.000000 -0.001692
# 5 0.002078 -0.002134 0.003501 0.000000 0.020880 0.000000
# 6 0.000000 0.000000 0.000000 -0.001692 0.000000 0.022676
#
#
# Mechanical properties :
#
#
# Convention : Reuss Voigt Hill
#
# Bulk Modulus (GPa) = 47.28741 49.57869 48.43305
# Shear Modulus (GPa) = 38.39592 43.15984 40.77788
#
# Velocity S-wave (km/s) = 3.76700 3.99387 3.88209
# Velocity P-wave (km/s) = 6.03298 6.29215 6.16393
#
# Compressibility (1/GPa) = 0.02114728
#
# Stress axis : x y z
#
# Youngs Moduli (GPa) = 65.58842 85.25286 80.35161
#
# Poissons Ratio (x) = 0.34598 0.45785
# Poissons Ratio (y) = 0.26618 -0.04975
# Poissons Ratio (z) = 0.37373 -0.05278
#
# Static dielectric constant tensor:
#      x y z
#    x 2.177140 0.000000 0.062000 
#    y 0.000000 2.141790 0.000000 
#    z 0.062000 0.000000 2.030300 
# 
# From -- ./inp_files/125466.got.cif
#   From: 2010.05.17/outbox.cif.g08.bks.cpg/sg15_63_cif.got.tgz:125466.got - 2010.06.03 18:47:42.
