data_PCOD9293305
_publ_section_title
;
Structure prediction by ZEFSAII (Michael W. Deem and Ramdas Pophale) SiO2 
 PCOD9293305
Probable space group: C 2/C
;
_chemical_formula_sum "Si O2"
_cell_formula_units_Z 56
_cell_length_a 5.368886
_cell_length_b 19.572096
_cell_length_c 28.734970
_cell_angle_alpha 90.000000
_cell_angle_beta 56.729971
_cell_angle_gamma 90.000000
_cell_volume 2524.571072
_symmetry_space_group_name_H-M "C 2/C"
_symmetry_group_IT_number 15
_symmetry_cell_setting 'monoclinic'
loop_
_space_group_symop_operation_xyz
x,y,z
-x,y,1/2-z
-x,-y,-z
x,-y,1/2+z
1/2+x,1/2+y,z
1/2-x,1/2+y,1/2-z
1/2-x,1/2-y,-z
1/2+x,1/2-y,1/2+z
loop_
_atom_site_type_symbol
_atom_site_label
_atom_site_fract_x
_atom_site_fract_y
_atom_site_fract_z
Si Si1 0.594577 0.550559 0.877624
Si Si2 0.328738 0.936284 0.995901
Si Si3 0.663833 0.345012 0.685832
Si Si4 0.263419 0.169332 0.007926
Si Si5 0.265644 0.918306 0.901955
Si Si6 0.164598 0.260334 0.685468
Si Si7 0.424038 0.122538 0.619964
O O1 0.636151 0.468879 0.876226
O O2 0.370690 0.578482 0.862030
O O3 0.908995 0.587114 0.853719
O O4 0.434158 0.573713 0.941577
O O5 0.259375 0.958534 0.951140
O O6 0.508776 0.864684 0.978268
O O7 0.500000 0.000000 0.000000
O O8 0.500000 0.368150 0.750000
O O9 0.413268 0.316311 0.676232
O O10 0.894405 0.399955 0.642707
O O11 0.902082 0.287768 0.678952
O O12 0.382796 0.134276 0.947626
O O13 0.250000 0.250000 0.000000
O O14 0.947872 0.144347 0.061429
O O15 0.327968 0.197792 0.645059
O O16 0.000000 0.239451 0.750000
#
# Coordination Sequence:
#
# PCOD9293305 Si02
#       7
#     8   8   8   8   8   8   8
#     4  11  23  39  61  93 127 177 211 259 316 409
#     4  11  22  40  61  88 132 179 223 251 331 411
#     4  10  24  42  68  96 126 169 218 273 337 399
#     4  11  24  36  58  96 132 165 212 273 323 386
#     4  12  23  39  66  90 132 173 218 266 337 385
#     4  10  22  45  69  92 126 173 218 267 341 405
#     4  11  23  40  62  93 131 161 219 265 319 384
#
# _framework density 22.181985000000001
#
# number of rings (size 3 to 8) (size 9 to 14) (size 15 to 20)
#    0.000    1.143    2.857    3.857    4.000    1.714 
#    0.000    0.714    0.000    1.714    0.000    0.000 
#    0.000    0.000    0.000    0.000    0.000    0.000 
#
# Total GULP energy -156243.707759 kJ/mol
# GULP energy per Si atom -5580.132420 kJ/mol
# Density = 2.213150 g / cm^3
# Si number density = 22.181985 Si / 1000 Ang^3
#
#
#
# Elastic Constant Matrix: (Units=GPa)
#
#
# Indices 1 2 3 4 5 6 
#
# 1 88.1802 22.4317 7.5180 0.0000 -15.1428 0.0000
# 2 22.4317 84.1919 8.9823 0.0000 -6.6967 0.0000
# 3 7.5180 8.9823 60.7615 0.0000 -24.6219 0.0000
# 4 0.0000 0.0000 0.0000 14.2632 0.0000 -4.4031
# 5 -15.1428 -6.6967 -24.6219 0.0000 27.4132 0.0000
# 6 0.0000 0.0000 0.0000 -4.4031 0.0000 37.3728
#
#
#
# Elastic Compliance Matrix: (Units=1/GPa)
#
#
# Indices 1 2 3 4 5 6 
#
# 1 0.013444 -0.003135 0.002357 0.000000 0.008778 0.000000
# 2 -0.003135 0.012878 -0.001482 0.000000 0.000083 0.000000
# 3 0.002357 -0.001482 0.026360 0.000000 0.024616 0.000000
# 4 0.000000 0.000000 0.000000 0.072757 0.000000 0.008572
# 5 0.008778 0.000083 0.024616 0.000000 0.063457 0.000000
# 6 0.000000 0.000000 0.000000 0.008572 0.000000 0.027767
#
#
# Mechanical properties :
#
#
# Convention : Reuss Voigt Hill
#
# Bulk Modulus (GPa) = 20.76383 34.55529 27.65956
# Shear Modulus (GPa) = 21.07584 28.75661 24.91623
#
# Velocity S-wave (km/s) = 3.08577 3.60445 3.35515
# Velocity P-wave (km/s) = 4.69861 5.73888 5.24460
#
# Compressibility (1/GPa) = 0.04816067
#
# Stress axis : x y z
#
# Youngs Moduli (GPa) = 74.38043 77.65355 37.93602
#
# Poissons Ratio (x) = 0.24347 -0.08941
# Poissons Ratio (y) = 0.23321 0.05623
# Poissons Ratio (z) = -0.17531 0.11511
#
# Static dielectric constant tensor:
#      x y z
#    x 1.961840 0.000000 0.012250 
#    y 0.000000 1.854500 0.000000 
#    z 0.012250 0.000000 1.852340 
# 
# From -- ./inp_files/305739.got.cif
#   From: 2010.05.17/outbox.cif.g08.bks.cpg/sg15_153_cif.got.tgz:305739.got - 2010.06.03 18:47:42.
