data_PCOD9293526
_publ_section_title
;
Structure prediction by ZEFSAII (Michael W. Deem and Ramdas Pophale) SiO2 
 PCOD9293526
Probable space group: C 2/C
;
_chemical_formula_sum "Si O2"
_cell_formula_units_Z 48
_cell_length_a 5.944453
_cell_length_b 23.995855
_cell_length_c 20.036897
_cell_angle_alpha 90.000000
_cell_angle_beta 52.599279
_cell_angle_gamma 90.000000
_cell_volume 2270.500711
_symmetry_space_group_name_H-M "C 2/C"
_symmetry_group_IT_number 15
_symmetry_cell_setting 'monoclinic'
loop_
_space_group_symop_operation_xyz
x,y,z
-x,y,1/2-z
-x,-y,-z
x,-y,1/2+z
1/2+x,1/2+y,z
1/2-x,1/2+y,1/2-z
1/2-x,1/2-y,-z
1/2+x,1/2-y,1/2+z
loop_
_atom_site_type_symbol
_atom_site_label
_atom_site_fract_x
_atom_site_fract_y
_atom_site_fract_z
Si Si1 0.500000 0.072275 0.750000
Si Si2 0.755719 0.324726 0.940165
Si Si3 0.678460 0.795759 0.418652
Si Si4 0.307960 0.011578 0.911104
Si Si5 0.255630 0.610225 0.493979
Si Si6 0.500000 0.365846 0.250000
Si Si7 0.225521 0.407149 0.844963
O O1 0.310587 0.036331 0.835896
O O2 0.261625 0.102969 0.744208
O O3 0.675006 0.270671 0.911674
O O4 0.560250 0.378733 0.969355
O O5 0.060984 0.348525 0.864339
O O6 0.726105 0.307549 0.022639
O O7 0.387402 0.829798 0.469143
O O8 0.867413 0.826242 0.330347
O O9 0.519712 0.959769 0.871882
O O10 0.418162 0.061965 0.938517
O O11 0.000000 0.000000 0.000000
O O12 0.295744 0.594552 0.410470
O O13 0.500000 0.411767 0.750000
#
# Coordination Sequence:
#
# PCOD9293526 Si02
#       7
#     4   8   8   8   8   4   8
#     4  12  30  48  77 110 153 192 256 312 376 452
#     4  10  22  46  67 100 142 188 244 298 383 447
#     4  10  23  41  71 103 139 189 243 307 370 448
#     4  12  26  45  73 101 143 198 243 311 377 454
#     4  11  22  44  70  95 139 186 243 304 370 447
#     4  12  26  48  71 110 147 188 248 310 368 446
#     4  11  27  42  67 104 140 190 245 307 373 455
#
# _framework density 21.140713000000002
#
# number of rings (size 3 to 8) (size 9 to 14) (size 15 to 20)
#    0.000    1.000    3.333    2.000    5.833    2.000 
#    1.500    0.000    0.000    0.000    0.000    0.000 
#    0.000    0.000    0.000    0.000    0.000    0.000 
#
# Total GULP energy -133743.819666 kJ/mol
# GULP energy per Si atom -5572.659153 kJ/mol
# Density = 2.109260 g / cm^3
# Si number density = 21.140713 Si / 1000 Ang^3
#
#
#
# Elastic Constant Matrix: (Units=GPa)
#
#
# Indices 1 2 3 4 5 6 
#
# 1 50.9593 41.2981 44.3631 0.0000 6.6491 0.0000
# 2 41.2981 106.8479 119.3569 0.0000 135.8701 0.0000
# 3 44.3631 119.3569 152.3288 0.0000 -168.2732 0.0000
# 4 0.0000 0.0000 0.0000 45.8583 0.0000 -1.1231
# 5 6.6491 135.8701 -168.2732 0.0000 -531.4721 0.0000
# 6 0.0000 0.0000 0.0000 -1.1231 0.0000 48.4636
#
#
#
# Elastic Compliance Matrix: (Units=1/GPa)
#
#
# Indices 1 2 3 4 5 6 
#
# 1 0.027955 -0.006741 -0.003243 0.000000 -0.000347 0.000000
# 2 -0.006741 0.010457 -0.002497 0.000000 0.003379 0.000000
# 3 -0.003243 -0.002497 0.006457 0.000000 -0.002723 0.000000
# 4 0.000000 0.000000 0.000000 0.021819 0.000000 0.000506
# 5 -0.000347 0.003379 -0.002723 0.000000 -0.000160 0.000000
# 6 0.000000 0.000000 0.000000 0.000506 0.000000 0.020646
#
#
# Mechanical properties :
#
#
# Convention : Reuss Voigt Hill
#
# Bulk Modulus (GPa) = 50.23339 80.01912 65.12625
# Shear Modulus (GPa) = 42.09795 -80.42220 -19.16212
#
# Velocity S-wave (km/s) = 4.46726 -6.17446 -3.01393
# Velocity P-wave (km/s) = 7.10082 3.59153 4.33143
#
# Compressibility (1/GPa) = 0.01990708
#
# Stress axis : x y z
#
# Youngs Moduli (GPa) = 35.77176 95.63388 154.86863
#
# Poissons Ratio (x) = 0.64471 0.50217
# Poissons Ratio (y) = 0.24115 0.38667
# Poissons Ratio (z) = 0.11599 0.23878
#
# Static dielectric constant tensor:
#      x y z
#    x 1.762660 0.000000 0.040880 
#    y 0.000000 1.838290 0.000000 
#    z 0.040880 0.000000 1.652320 
# 
# From -- ./inp_files/228043.got.cif
#   From: 2010.05.17/outbox.cif.g08.bks.cpg/sg15_115_cif.got.tgz:228043.got - 2010.06.03 18:47:42.
