data_PCOD9293358
_publ_section_title
;
Structure prediction by ZEFSAII (Michael W. Deem and Ramdas Pophale) SiO2 
 PCOD9293358
Probable space group: C 2/C
;
_chemical_formula_sum "Si O2"
_cell_formula_units_Z 32
_cell_length_a 16.368128
_cell_length_b 9.296374
_cell_length_c 9.935927
_cell_angle_alpha 90.000000
_cell_angle_beta 66.018424
_cell_angle_gamma 90.000000
_cell_volume 1381.380447
_symmetry_space_group_name_H-M "C 2/C"
_symmetry_group_IT_number 15
_symmetry_cell_setting 'monoclinic'
loop_
_space_group_symop_operation_xyz
x,y,z
-x,y,1/2-z
-x,-y,-z
x,-y,1/2+z
1/2+x,1/2+y,z
1/2-x,1/2+y,1/2-z
1/2-x,1/2-y,-z
1/2+x,1/2-y,1/2+z
loop_
_atom_site_type_symbol
_atom_site_label
_atom_site_fract_x
_atom_site_fract_y
_atom_site_fract_z
Si Si1 0.772513 0.923894 0.741972
Si Si2 0.079414 0.395495 0.990014
Si Si3 0.948235 0.095526 0.645005
Si Si4 0.805117 0.650442 0.860339
O O1 0.676441 0.950905 0.875795
O O2 0.800384 0.756760 0.734065
O O3 0.855837 0.014414 0.740090
O O4 0.748964 0.002378 0.618065
O O5 0.067539 0.246327 0.918987
O O6 0.098654 0.372617 0.136276
O O7 0.000000 0.500000 0.000000
O O8 0.000000 0.114523 0.750000
O O9 0.000000 0.000000 0.500000
O O10 0.750000 0.750000 0.000000
#
# Coordination Sequence:
#
# PCOD9293358 Si02
#       4
#     8   8   8   8
#     4  11  23  47  73 100 145 195 237 308 359 444
#     4  11  27  46  72 108 145 192 245 307 364 446
#     4  12  28  48  73 111 148 193 248 303 374 438
#     4  10  22  45  71 102 145 186 253 288 374 431
#
# _framework density 23.165233000000001
#
# number of rings (size 3 to 8) (size 9 to 14) (size 15 to 20)
#    0.000    1.000    5.000    1.500   10.500    0.000 
#    0.000    7.500    0.000    0.000    0.000    0.000 
#    0.000    0.000    0.000    0.000    0.000    0.000 
#
# Total GULP energy -89274.632764 kJ/mol
# GULP energy per Si atom -5579.664548 kJ/mol
# Density = 2.311251 g / cm^3
# Si number density = 23.165233 Si / 1000 Ang^3
#
#
#
# Elastic Constant Matrix: (Units=GPa)
#
#
# Indices 1 2 3 4 5 6 
#
# 1 219.8732 88.7737 43.8213 0.0000 8.7090 0.0000
# 2 88.7737 166.8763 39.7612 0.0000 5.3352 0.0000
# 3 43.8213 39.7612 51.4197 0.0000 0.8891 0.0000
# 4 0.0000 0.0000 0.0000 27.7998 0.0000 11.0337
# 5 8.7090 5.3352 0.8891 0.0000 54.9582 0.0000
# 6 0.0000 0.0000 0.0000 11.0337 0.0000 61.4492
#
#
#
# Elastic Compliance Matrix: (Units=1/GPa)
#
#
# Indices 1 2 3 4 5 6 
#
# 1 0.006261 -0.002501 -0.003390 0.000000 -0.000695 0.000000
# 2 -0.002501 0.008366 -0.004332 0.000000 -0.000346 0.000000
# 3 -0.003390 -0.004332 0.025677 0.000000 0.000542 0.000000
# 4 0.000000 0.000000 0.000000 0.038732 0.000000 -0.006955
# 5 -0.000695 -0.000346 0.000542 0.000000 0.018330 0.000000
# 6 0.000000 0.000000 0.000000 -0.006955 0.000000 0.017522
#
#
# Mechanical properties :
#
#
# Convention : Reuss Voigt Hill
#
# Bulk Modulus (GPa) = 50.35558 86.98682 68.67120
# Shear Modulus (GPa) = 35.22275 46.56231 40.89253
#
# Velocity S-wave (km/s) = 3.90359 4.48818 4.20605
# Velocity P-wave (km/s) = 6.48861 8.03059 7.30043
#
# Compressibility (1/GPa) = 0.01985877
#
# Stress axis : x y z
#
# Youngs Moduli (GPa) = 159.72223 119.53151 38.94494
#
# Poissons Ratio (x) = 0.29891 0.13202
# Poissons Ratio (y) = 0.39942 0.16871
# Poissons Ratio (z) = 0.54146 0.51781
#
# Static dielectric constant tensor:
#      x y z
#    x 1.948010 0.000000 0.180110 
#    y 0.000000 1.752030 0.000000 
#    z 0.180110 0.000000 2.295800 
# 
# From -- ./inp_files/93411.got.cif
#   From: 2010.05.17/outbox.cif.g08.bks.cpg/sg15_47_cif.got.tgz:93411.got - 2010.06.03 18:47:42.
