data_PCOD9293138
_publ_section_title
;
Structure prediction by ZEFSAII (Michael W. Deem and Ramdas Pophale) SiO2 
 PCOD9293138
Probable space group: C 2/C
;
_chemical_formula_sum "Si O2"
_cell_formula_units_Z 64
_cell_length_a 11.941574
_cell_length_b 14.021162
_cell_length_c 16.078301
_cell_angle_alpha 90.000000
_cell_angle_beta 122.119244
_cell_angle_gamma 90.000000
_cell_volume 2280.027684
_symmetry_space_group_name_H-M "C 2/C"
_symmetry_group_IT_number 15
_symmetry_cell_setting 'monoclinic'
loop_
_space_group_symop_operation_xyz
x,y,z
-x,y,1/2-z
-x,-y,-z
x,-y,1/2+z
1/2+x,1/2+y,z
1/2-x,1/2+y,1/2-z
1/2-x,1/2-y,-z
1/2+x,1/2-y,1/2+z
loop_
_atom_site_type_symbol
_atom_site_label
_atom_site_fract_x
_atom_site_fract_y
_atom_site_fract_z
Si Si1 0.393301 0.113164 0.803360
Si Si2 0.446420 0.251240 0.535475
Si Si3 0.696285 0.709690 0.343128
Si Si4 0.601397 0.002851 0.960976
Si Si5 0.604873 0.459311 0.962615
Si Si6 0.137012 0.802281 0.341003
Si Si7 0.348110 0.502255 0.253557
Si Si8 0.772966 0.136752 0.449516
O O1 0.338926 0.197284 0.724693
O O2 0.289745 0.025994 0.757796
O O3 0.617484 0.266664 0.897348
O O4 0.533278 0.058255 0.857616
O O5 0.656833 0.389381 0.783462
O O6 0.349319 0.208850 0.428529
O O7 0.445253 0.363209 0.514632
O O8 0.564761 0.822173 0.098185
O O9 0.750683 0.048843 0.028491
O O10 0.640376 0.898697 0.944313
O O11 0.500000 0.000000 0.000000
O O12 0.488198 0.496986 0.856910
O O13 0.654441 0.539467 0.046188
O O14 0.158500 0.906479 0.308368
O O15 0.141779 0.817517 0.442175
O O16 0.233999 0.712383 0.366014
O O17 0.000000 0.770080 0.250000
#
# Coordination Sequence:
#
# PCOD9293138 Si02
#       8
#     8   8   8   8   8   8   8   8
#     4  12  27  45  74 122 156 195 272 342 387 484
#     4  11  24  47  81 112 147 208 269 335 398 474
#     4  11  26  49  79 114 155 206 269 333 403 482
#     4  10  22  44  74 108 153 205 260 323 397 470
#     4  10  22  48  75 107 146 207 263 310 406 474
#     4  11  20  41  66  97 140 197 258 301 370 480
#     4  12  26  47  80 109 154 210 262 323 408 483
#     4   9  22  40  66 103 141 198 249 313 378 462
#
# _framework density 28.069835999999999
#
# number of rings (size 3 to 8) (size 9 to 14) (size 15 to 20)
#    0.750    0.500    2.500    3.375    5.250    0.000 
#    6.750    0.625    0.000    0.000    0.000    0.000 
#    0.000    0.000    0.000    0.000    0.000    0.000 
#
# Total GULP energy -178554.509652 kJ/mol
# GULP energy per Si atom -5579.828427 kJ/mol
# Density = 2.800595 g / cm^3
# Si number density = 28.069836 Si / 1000 Ang^3
#
#
#
# Elastic Constant Matrix: (Units=GPa)
#
#
# Indices 1 2 3 4 5 6 
#
# 1 81.1649 34.3816 40.9657 0.0000 10.9291 0.0000
# 2 34.3816 218.3250 97.9191 0.0000 12.2496 0.0000
# 3 40.9657 97.9191 215.7762 0.0000 33.9661 0.0000
# 4 0.0000 0.0000 0.0000 71.0602 0.0000 22.1177
# 5 10.9291 12.2496 33.9661 0.0000 23.6418 0.0000
# 6 0.0000 0.0000 0.0000 22.1177 0.0000 4.2294
#
#
#
# Elastic Compliance Matrix: (Units=1/GPa)
#
#
# Indices 1 2 3 4 5 6 
#
# 1 0.014143 -0.001352 -0.001490 0.000000 -0.003697 0.000000
# 2 -0.001352 0.005898 -0.002633 0.000000 0.001351 0.000000
# 3 -0.001490 -0.002633 0.007481 0.000000 -0.008695 0.000000
# 4 0.000000 0.000000 0.000000 -0.022419 0.000000 0.117242
# 5 -0.003697 0.001351 -0.008695 0.000000 0.055799 0.000000
# 6 0.000000 0.000000 0.000000 0.117242 0.000000 -0.376678
#
#
# Mechanical properties :
#
#
# Convention : Reuss Voigt Hill
#
# Bulk Modulus (GPa) = 60.33648 95.75544 78.04596
# Shear Modulus (GPa) = -16.70539 42.58625 12.94043
#
# Velocity S-wave (km/s) = -2.44219 3.89929 2.14944
# Velocity P-wave (km/s) = 3.68638 7.37970 5.83307
#
# Compressibility (1/GPa) = 0.01657372
#
# Stress axis : x y z
#
# Youngs Moduli (GPa) = 70.70688 169.54577 133.67917
#
# Poissons Ratio (x) = 0.22917 0.19914
# Poissons Ratio (y) = 0.09557 0.35193
# Poissons Ratio (z) = 0.10533 0.44635
#
# Static dielectric constant tensor:
#      x y z
#    x 2.535410 0.000000 -0.065720 
#    y 0.000000 2.250280 0.000000 
#    z -0.065720 0.000000 2.168010 
# 
# From -- ./inp_files/277652.got.cif
#   From: 2010.05.17/outbox.cif.g08.bks.cpg/sg15_139_cif.got.tgz:277652.got - 2010.06.03 18:47:42.
