data_PCOD9293531
_publ_section_title
;
Structure prediction by ZEFSAII (Michael W. Deem and Ramdas Pophale) SiO2 
 PCOD9293531
Probable space group: C 2/C
;
_chemical_formula_sum "Si O2"
_cell_formula_units_Z 60
_cell_length_a 26.779548
_cell_length_b 8.255162
_cell_length_c 11.432883
_cell_angle_alpha 90.000000
_cell_angle_beta 94.332456
_cell_angle_gamma 90.000000
_cell_volume 2520.239589
_symmetry_space_group_name_H-M "C 2/C"
_symmetry_group_IT_number 15
_symmetry_cell_setting 'monoclinic'
loop_
_space_group_symop_operation_xyz
x,y,z
-x,y,1/2-z
-x,-y,-z
x,-y,1/2+z
1/2+x,1/2+y,z
1/2-x,1/2+y,1/2-z
1/2-x,1/2-y,-z
1/2+x,1/2-y,1/2+z
loop_
_atom_site_type_symbol
_atom_site_label
_atom_site_fract_x
_atom_site_fract_y
_atom_site_fract_z
Si Si1 0.321058 0.226846 0.738073
Si Si2 0.805876 0.688526 0.984555
Si Si3 0.022185 0.076891 0.883827
Si Si4 0.646316 0.848585 0.766318
Si Si5 0.500000 0.147820 0.750000
Si Si6 0.722704 0.828801 0.604973
Si Si7 0.589164 0.691098 0.402275
Si Si8 0.545811 0.871338 0.617960
O O1 0.332146 0.264931 0.875262
O O2 0.266811 0.306368 0.708153
O O3 0.357040 0.290506 0.643920
O O4 0.329628 0.031527 0.729943
O O5 0.796032 0.501067 0.947450
O O6 0.750000 0.750000 0.000000
O O7 0.839189 0.712324 0.104164
O O8 0.000000 0.034747 0.750000
O O9 0.003317 0.259341 0.889281
O O10 0.076888 0.000111 0.905390
O O11 0.000000 0.000000 0.000000
O O12 0.675203 0.756840 0.666210
O O13 0.587654 0.849358 0.727448
O O14 0.452394 0.243725 0.695463
O O15 0.522312 0.044781 0.644499
O O16 0.750000 0.750000 0.500000
O O17 0.577171 0.806928 0.511279
#
# Coordination Sequence:
#
# PCOD9293531 Si02
#       8
#     8   8   8   8   4   8   8   8
#     4  11  23  42  69 104 137 184 230 283 349 414
#     4  11  24  45  66 101 144 183 233 290 340 414
#     4  10  22  46  67  93 139 181 229 288 350 414
#     4  11  23  42  71 102 138 181 237 284 343 417
#     4  12  22  40  72 100 136 176 230 290 352 404
#     4  11  22  41  71  97 142 182 226 284 350 411
#     4  11  24  44  68 102 139 181 234 287 351 416
#     4  11  24  43  70 100 133 182 235 286 353 416
#
# _framework density 23.807259999999999
#
# number of rings (size 3 to 8) (size 9 to 14) (size 15 to 20)
#    0.000    1.067    5.333    1.200    1.867    0.000 
#    7.200    1.333    0.000    0.000    0.000    0.000 
#    0.000    0.000    0.000    0.000    0.000    0.000 
#
# Total GULP energy -167137.297855 kJ/mol
# GULP energy per Si atom -5571.243262 kJ/mol
# Density = 2.375307 g / cm^3
# Si number density = 23.807260 Si / 1000 Ang^3
#
#
#
# Elastic Constant Matrix: (Units=GPa)
#
#
# Indices 1 2 3 4 5 6 
#
# 1 98.8739 17.7598 3.6746 0.0000 -16.3778 0.0000
# 2 17.7598 34.3804 14.2567 0.0000 6.2638 0.0000
# 3 3.6746 14.2567 126.3369 0.0000 -16.5077 0.0000
# 4 0.0000 0.0000 0.0000 15.7405 0.0000 -0.2807
# 5 -16.3778 6.2638 -16.5077 0.0000 43.9682 0.0000
# 6 0.0000 0.0000 0.0000 -0.2807 0.0000 29.3143
#
#
#
# Elastic Compliance Matrix: (Units=1/GPa)
#
#
# Indices 1 2 3 4 5 6 
#
# 1 0.012605 -0.008258 0.001401 0.000000 0.006398 0.000000
# 2 -0.008258 0.037470 -0.005350 0.000000 -0.010423 0.000000
# 3 0.001401 -0.005350 0.009092 0.000000 0.004698 0.000000
# 4 0.000000 0.000000 0.000000 0.063541 0.000000 0.000608
# 5 0.006398 -0.010423 0.004698 0.000000 0.028375 0.000000
# 6 0.000000 0.000000 0.000000 0.000608 0.000000 0.034119
#
#
# Mechanical properties :
#
#
# Convention : Reuss Voigt Hill
#
# Bulk Modulus (GPa) = 28.77438 36.77483 32.77460
# Shear Modulus (GPa) = 22.60399 32.73127 27.66763
#
# Velocity S-wave (km/s) = 3.08467 3.71191 3.41273
# Velocity P-wave (km/s) = 4.97991 5.81820 5.41530
#
# Compressibility (1/GPa) = 0.03475314
#
# Stress axis : x y z
#
# Youngs Moduli (GPa) = 79.33453 26.68834 109.98504
#
# Poissons Ratio (x) = 0.22039 -0.15411
# Poissons Ratio (y) = 0.65514 0.58842
# Poissons Ratio (z) = -0.11116 0.14278
#
# Static dielectric constant tensor:
#      x y z
#    x 2.136850 0.000000 0.080400 
#    y 0.000000 1.970430 0.000000 
#    z 0.080400 0.000000 2.004860 
# 
# From -- ./inp_files/121952.got.cif
#   From: 2010.05.17/outbox.cif.g08.bks.cpg/sg15_61_cif.got.tgz:121952.got - 2010.06.03 18:47:42.
