data_PCOD9293548
_publ_section_title
;
Structure prediction by ZEFSAII (Michael W. Deem and Ramdas Pophale) SiO2 
 PCOD9293548
Probable space group: C 2/C
;
_chemical_formula_sum "Si O2"
_cell_formula_units_Z 48
_cell_length_a 21.755561
_cell_length_b 11.041928
_cell_length_c 20.300699
_cell_angle_alpha 90.000000
_cell_angle_beta 21.537429
_cell_angle_gamma 90.000000
_cell_volume 1790.280845
_symmetry_space_group_name_H-M "C 2/C"
_symmetry_group_IT_number 15
_symmetry_cell_setting 'monoclinic'
loop_
_space_group_symop_operation_xyz
x,y,z
-x,y,1/2-z
-x,-y,-z
x,-y,1/2+z
1/2+x,1/2+y,z
1/2-x,1/2+y,1/2-z
1/2-x,1/2-y,-z
1/2+x,1/2-y,1/2+z
loop_
_atom_site_type_symbol
_atom_site_label
_atom_site_fract_x
_atom_site_fract_y
_atom_site_fract_z
Si Si1 0.489941 0.861219 0.034458
Si Si2 0.654361 0.609170 0.940493
Si Si3 0.658389 0.350254 0.051891
Si Si4 0.991224 0.146089 0.588871
Si Si5 0.187912 0.588947 0.580077
Si Si6 0.211093 0.076905 0.170064
O O1 0.300281 0.849723 0.247992
O O2 0.172405 0.935468 0.229251
O O3 0.626898 0.868814 0.956697
O O4 0.500000 0.000000 0.000000
O O5 0.458903 0.641645 0.136384
O O6 0.624586 0.466007 0.946381
O O7 0.717906 0.645387 0.951081
O O8 0.500000 0.403043 0.250000
O O9 0.927980 0.202268 0.926465
O O10 0.750000 0.250000 0.000000
O O11 0.799291 0.452323 0.904160
O O12 0.972946 0.253663 0.555023
O O13 0.277260 0.587763 0.420268
O O14 0.000000 0.626935 0.750000
#
# Coordination Sequence:
#
# PCOD9293548 Si02
#       6
#     8   8   8   8   8   8
#     4  12  26  42  67 101 151 210 266 298 377 486
#     4   9  22  45  67 104 156 199 248 322 383 459
#     4  11  21  34  59  96 142 189 229 296 393 473
#     4   9  24  45  65 104 154 201 255 310 382 473
#     4  11  18  37  71 105 145 190 243 313 410 462
#     4  10  22  46  68 102 156 200 248 324 383 458
#
# _framework density 26.811437000000002
#
# number of rings (size 3 to 8) (size 9 to 14) (size 15 to 20)
#    1.000    0.667    3.333    1.000    2.333    4.667 
#    3.000    0.000    0.000    0.000    0.000    0.000 
#   10.000   10.667    0.000    0.667    0.000    0.000 
#
# Total GULP energy -134031.422979 kJ/mol
# GULP energy per Si atom -5584.642624 kJ/mol
# Density = 2.675041 g / cm^3
# Si number density = 26.811437 Si / 1000 Ang^3
#
#
#
# Elastic Constant Matrix: (Units=GPa)
#
#
# Indices 1 2 3 4 5 6 
#
# 1 208.5445 67.9615 54.3925 0.0003 -17.2079 -0.0006
# 2 67.9615 144.5226 53.8040 -0.0030 -2.1452 0.0017
# 3 54.3925 53.8040 123.4831 -0.0029 -7.3335 0.0024
# 4 0.0003 -0.0030 -0.0029 39.1825 0.0008 -11.7007
# 5 -17.2079 -2.1452 -7.3335 0.0008 48.5107 -0.0007
# 6 -0.0006 0.0017 0.0024 -11.7007 -0.0007 44.2407
#
#
#
# Elastic Compliance Matrix: (Units=1/GPa)
#
#
# Indices 1 2 3 4 5 6 
#
# 1 0.006093 -0.002243 -0.001598 0.000000 0.001821 0.000000
# 2 -0.002243 0.009086 -0.003022 0.000000 -0.000851 0.000000
# 3 -0.001598 -0.003022 0.010169 0.000000 0.000837 0.000000
# 4 0.000000 0.000000 0.000000 0.027710 0.000000 0.007329
# 5 0.001821 -0.000851 0.000837 0.000000 0.021349 0.000000
# 6 0.000000 0.000000 0.000000 0.007329 0.000000 0.024542
#
#
# Mechanical properties :
#
#
# Convention : Reuss Voigt Hill
#
# Bulk Modulus (GPa) = 86.04478 92.09624 89.07051
# Shear Modulus (GPa) = 42.90019 46.41294 44.65657
#
# Velocity S-wave (km/s) = 4.00443 4.16515 4.08558
# Velocity P-wave (km/s) = 7.31730 7.58653 7.45313
#
# Compressibility (1/GPa) = 0.01162185
#
# Stress axis : x y z
#
# Youngs Moduli (GPa) = 164.11411 110.05355 98.34188
#
# Poissons Ratio (x) = 0.24688 0.15720
# Poissons Ratio (y) = 0.36815 0.29715
# Poissons Ratio (z) = 0.26233 0.33253
#
# Static dielectric constant tensor:
#      x y z
#    x 2.180960 0.000000 0.068510 
#    y 0.000000 2.368690 0.000000 
#    z 0.068510 0.000000 2.083780 
# 
# From -- ./inp_files/253286.got.cif
#   From: 2010.05.17/outbox.cif.g08.bks.cpg/sg15_127_cif.got.tgz:253286.got - 2010.06.03 18:47:42.
