data_PCOD9293271
_publ_section_title
;
Structure prediction by ZEFSAII (Michael W. Deem and Ramdas Pophale) SiO2 
 PCOD9293271
Probable space group: C 2/C
;
_chemical_formula_sum "Si O2"
_cell_formula_units_Z 52
_cell_length_a 14.967291
_cell_length_b 5.779471
_cell_length_c 25.012058
_cell_angle_alpha 90.000000
_cell_angle_beta 102.245093
_cell_angle_gamma 90.000000
_cell_volume 2114.394766
_symmetry_space_group_name_H-M "C 2/C"
_symmetry_group_IT_number 15
_symmetry_cell_setting 'monoclinic'
loop_
_space_group_symop_operation_xyz
x,y,z
-x,y,1/2-z
-x,-y,-z
x,-y,1/2+z
1/2+x,1/2+y,z
1/2-x,1/2+y,1/2-z
1/2-x,1/2-y,-z
1/2+x,1/2-y,1/2+z
loop_
_atom_site_type_symbol
_atom_site_label
_atom_site_fract_x
_atom_site_fract_y
_atom_site_fract_z
Si Si1 0.045112 0.538052 0.063186
Si Si2 0.211432 0.209514 0.769707
Si Si3 0.500000 0.842559 0.750000
Si Si4 0.449253 0.162291 0.645781
Si Si5 0.226706 0.344910 0.892936
Si Si6 0.920590 0.951197 0.079401
Si Si7 0.668161 0.675610 0.527116
O O1 0.147026 0.606603 0.062280
O O2 0.021075 0.362304 0.106194
O O3 0.999773 0.771045 0.080235
O O4 0.000000 0.500000 0.000000
O O5 0.250508 0.957024 0.752818
O O6 0.238972 0.241357 0.835635
O O7 0.098782 0.215637 0.753184
O O8 0.486197 0.018693 0.699078
O O9 0.349920 0.051080 0.621660
O O10 0.433175 0.433966 0.639472
O O11 0.175214 0.179850 0.927672
O O12 0.312443 0.459558 0.932385
O O13 0.909266 0.107450 0.025538
O O14 0.750000 0.750000 0.500000
#
# Coordination Sequence:
#
# PCOD9293271 Si02
#       7
#     8   8   4   8   8   8   8
#     4  11  23  40  63  99 135 176 233 283 354 447
#     4  11  28  51  77 114 149 197 261 320 382 456
#     4  10  26  50  78 104 152 202 250 326 380 450
#     4  10  22  45  67  97 134 183 236 293 366 436
#     4  10  24  42  67  98 138 179 232 304 357 446
#     4  11  22  43  66  93 137 183 224 288 362 435
#     4  12  22  39  65  96 137 180 223 287 361 432
#
# _framework density 24.593326000000001
#
# number of rings (size 3 to 8) (size 9 to 14) (size 15 to 20)
#    0.000    1.231    3.077    1.846    6.462    1.846 
#    2.769    0.000    0.000    0.000    0.000    0.000 
#    0.000    0.000    0.000    0.000    0.000    0.000 
#
# Total GULP energy -145097.174641 kJ/mol
# GULP energy per Si atom -5580.660563 kJ/mol
# Density = 2.453735 g / cm^3
# Si number density = 24.593326 Si / 1000 Ang^3
#
#
#
# Elastic Constant Matrix: (Units=GPa)
#
#
# Indices 1 2 3 4 5 6 
#
# 1 106.4537 24.1944 19.5384 0.0000 -11.3000 0.0000
# 2 24.1944 66.9774 10.4314 0.0000 -9.4324 0.0000
# 3 19.5384 10.4314 90.8207 0.0000 -11.1965 0.0000
# 4 0.0000 0.0000 0.0000 35.7823 0.0000 -8.5354
# 5 -11.3000 -9.4324 -11.1965 0.0000 35.4523 0.0000
# 6 0.0000 0.0000 0.0000 -8.5354 0.0000 41.9533
#
#
#
# Elastic Compliance Matrix: (Units=1/GPa)
#
#
# Indices 1 2 3 4 5 6 
#
# 1 0.010664 -0.003312 -0.001668 0.000000 0.001991 0.000000
# 2 -0.003312 0.016695 -0.000819 0.000000 0.003127 0.000000
# 3 -0.001668 -0.000819 0.011832 0.000000 0.002987 0.000000
# 4 0.000000 0.000000 0.000000 0.029372 0.000000 0.005976
# 5 0.001991 0.003127 0.002987 0.000000 0.030617 0.000000
# 6 0.000000 0.000000 0.000000 0.005976 0.000000 0.025052
#
#
# Mechanical properties :
#
#
# Convention : Reuss Voigt Hill
#
# Bulk Modulus (GPa) = 36.24322 41.39779 38.82050
# Shear Modulus (GPa) = 34.47601 36.64344 35.55972
#
# Velocity S-wave (km/s) = 3.74818 3.86421 3.80664
# Velocity P-wave (km/s) = 5.78799 6.06456 5.92789
#
# Compressibility (1/GPa) = 0.02759137
#
# Stress axis : x y z
#
# Youngs Moduli (GPa) = 93.77318 59.89868 84.51674
#
# Poissons Ratio (x) = 0.19838 0.14100
# Poissons Ratio (y) = 0.31057 0.06926
# Poissons Ratio (z) = 0.15644 0.04908
#
# Static dielectric constant tensor:
#      x y z
#    x 2.037480 0.000000 0.016050 
#    y 0.000000 1.358500 0.000000 
#    z 0.016050 0.000000 1.940070 
# 
# From -- ./inp_files/297516.got.cif
#   From: 2010.05.17/outbox.cif.g08.bks.cpg/sg15_149_cif.got.tgz:297516.got - 2010.06.03 18:47:42.
