data_PCOD9293431
_publ_section_title
;
Structure prediction by ZEFSAII (Michael W. Deem and Ramdas Pophale) SiO2 
 PCOD9293431
Probable space group: C 2/C
;
_chemical_formula_sum "Si O2"
_cell_formula_units_Z 40
_cell_length_a 5.435324
_cell_length_b 28.829103
_cell_length_c 10.251561
_cell_angle_alpha 90.000000
_cell_angle_beta 101.290518
_cell_angle_gamma 90.000000
_cell_volume 1575.285603
_symmetry_space_group_name_H-M "C 2/C"
_symmetry_group_IT_number 15
_symmetry_cell_setting 'monoclinic'
loop_
_space_group_symop_operation_xyz
x,y,z
-x,y,1/2-z
-x,-y,-z
x,-y,1/2+z
1/2+x,1/2+y,z
1/2-x,1/2+y,1/2-z
1/2-x,1/2-y,-z
1/2+x,1/2-y,1/2+z
loop_
_atom_site_type_symbol
_atom_site_label
_atom_site_fract_x
_atom_site_fract_y
_atom_site_fract_z
Si Si1 0.654827 0.215753 0.378672
Si Si2 0.786669 0.078420 0.334064
Si Si3 0.691574 0.304285 0.963682
Si Si4 0.338909 0.018902 0.604050
Si Si5 0.450256 0.611141 0.898579
O O1 0.500000 0.241819 0.250000
O O2 0.750000 0.250000 0.500000
O O3 0.063621 0.317944 0.593173
O O4 0.919152 0.193990 0.368207
O O5 0.500000 0.081571 0.250000
O O6 0.819175 0.104296 0.476597
O O7 0.000000 0.092348 0.250000
O O8 0.838582 0.023952 0.373601
O O9 0.667504 0.338656 0.083015
O O10 0.750000 0.250000 0.000000
O O11 0.500000 0.025585 0.750000
O O12 0.224342 0.069253 0.570874
O O13 0.500000 0.000000 0.500000
O O14 0.500000 0.605886 0.750000
#
# Coordination Sequence:
#
# PCOD9293431 Si02
#       5
#     8   8   8   8   8
#     4  10  22  45  74 105 141 192 250 316 389 464
#     4  11  25  47  74 110 157 205 248 311 398 478
#     4  10  25  46  71 106 152 199 252 322 393 450
#     4  11  23  44  74 114 161 205 253 320 392 470
#     4  12  26  46  78 117 153 207 274 331 382 464
#
# _framework density 25.392220999999999
#
# number of rings (size 3 to 8) (size 9 to 14) (size 15 to 20)
#    0.000    1.200    0.000    5.400    0.000   10.400 
#    0.000    9.000    0.000    0.000    0.000    0.000 
#    0.000    0.000    0.000    0.000    0.000    0.000 
#
# Total GULP energy -111708.435479 kJ/mol
# GULP energy per Si atom -5585.421774 kJ/mol
# Density = 2.533443 g / cm^3
# Si number density = 25.392221 Si / 1000 Ang^3
#
#
#
# Elastic Constant Matrix: (Units=GPa)
#
#
# Indices 1 2 3 4 5 6 
#
# 1 209.8424 52.1343 84.3471 0.0000 -3.7655 0.0000
# 2 52.1343 165.8845 51.4968 0.0000 1.2504 0.0000
# 3 84.3471 51.4968 185.1430 0.0000 1.4643 0.0000
# 4 0.0000 0.0000 0.0000 27.3400 0.0000 -10.6196
# 5 -3.7655 1.2504 1.4643 0.0000 45.5249 0.0000
# 6 0.0000 0.0000 0.0000 -10.6196 0.0000 38.6392
#
#
#
# Elastic Compliance Matrix: (Units=1/GPa)
#
#
# Indices 1 2 3 4 5 6 
#
# 1 0.006041 -0.001146 -0.002438 0.000000 0.000610 0.000000
# 2 -0.001146 0.006816 -0.001372 0.000000 -0.000238 0.000000
# 3 -0.002438 -0.001372 0.006897 0.000000 -0.000386 0.000000
# 4 0.000000 0.000000 0.000000 0.040948 0.000000 0.011254
# 5 0.000610 -0.000238 -0.000386 0.000000 0.022035 0.000000
# 6 0.000000 0.000000 0.000000 0.011254 0.000000 0.028974
#
#
# Mechanical properties :
#
#
# Convention : Reuss Voigt Hill
#
# Bulk Modulus (GPa) = 101.61129 104.09180 102.85155
# Shear Modulus (GPa) = 40.03074 47.16027 43.59550
#
# Velocity S-wave (km/s) = 3.97482 4.31428 4.14803
# Velocity P-wave (km/s) = 7.82107 8.11788 7.97086
#
# Compressibility (1/GPa) = 0.00984143
#
# Stress axis : x y z
#
# Youngs Moduli (GPa) = 165.52771 146.70917 144.99791
#
# Poissons Ratio (x) = 0.16818 0.35354
# Poissons Ratio (y) = 0.18975 0.19891
# Poissons Ratio (z) = 0.40360 0.20125
#
# Static dielectric constant tensor:
#      x y z
#    x 2.049680 0.000000 -0.007910 
#    y 0.000000 2.097030 0.000000 
#    z -0.007910 0.000000 2.038740 
# 
# From -- ./inp_files/74081.got.cif
#   From: 2010.05.17/outbox.cif.g08.bks.cpg/sg15_38_cif.got.tgz:74081.got - 2010.06.03 18:47:42.
