data_PCOD9293208
_publ_section_title
;
Structure prediction by ZEFSAII (Michael W. Deem and Ramdas Pophale) SiO2 
 PCOD9293208
Probable space group: C 2/C
;
_chemical_formula_sum "Si O2"
_cell_formula_units_Z 52
_cell_length_a 29.958132
_cell_length_b 9.445037
_cell_length_c 8.439606
_cell_angle_alpha 90.000000
_cell_angle_beta 71.367100
_cell_angle_gamma 90.000000
_cell_volume 2262.865756
_symmetry_space_group_name_H-M "C 2/C"
_symmetry_group_IT_number 15
_symmetry_cell_setting 'monoclinic'
loop_
_space_group_symop_operation_xyz
x,y,z
-x,y,1/2-z
-x,-y,-z
x,-y,1/2+z
1/2+x,1/2+y,z
1/2-x,1/2+y,1/2-z
1/2-x,1/2-y,-z
1/2+x,1/2-y,1/2+z
loop_
_atom_site_type_symbol
_atom_site_label
_atom_site_fract_x
_atom_site_fract_y
_atom_site_fract_z
Si Si1 0.327690 0.556578 0.767384
Si Si2 0.627733 0.689258 0.496468
Si Si3 0.760828 0.893056 0.078417
Si Si4 0.404792 0.874354 0.427445
Si Si5 0.535358 0.843794 0.565773
Si Si6 0.500000 0.802258 0.250000
Si Si7 0.658392 0.958526 0.297811
O O1 0.351501 0.427440 0.645904
O O2 0.296983 0.642804 0.677342
O O3 0.364640 0.636532 0.834548
O O4 0.289024 0.494992 0.930825
O O5 0.573701 0.720106 0.520998
O O6 0.654875 0.838147 0.438502
O O7 0.712643 0.966611 0.189438
O O8 0.750000 0.750000 0.000000
O O9 0.445538 0.754532 0.363802
O O10 0.372778 0.890272 0.308137
O O11 0.437192 0.014549 0.411426
O O12 0.368083 0.900306 0.612248
O O13 0.500000 0.816871 0.750000
O O14 0.515408 0.858681 0.409880
#
# Coordination Sequence:
#
# PCOD9293208 Si02
#       7
#     8   8   8   8   8   4   8
#     4  10  23  45  69  83 127 173 211 276 320 382
#     4  10  22  45  63  92 121 169 221 263 326 383
#     4  11  22  43  65  95 126 169 216 261 327 384
#     4  11  20  37  60  93 137 165 197 259 324 397
#     4  11  23  41  65 100 135 171 218 268 329 401
#     4  12  20  40  66  94 142 178 206 260 338 404
#     4  11  22  38  60  97 132 163 208 261 320 397
#
# _framework density 22.979710000000001
#
# number of rings (size 3 to 8) (size 9 to 14) (size 15 to 20)
#    0.000    1.231    5.385    2.308    0.000    0.615 
#   19.385    0.769    0.000    0.000    0.000    0.000 
#    0.000    0.000    0.000    0.000    0.000    0.000 
#
# Total GULP energy -145017.238992 kJ/mol
# GULP energy per Si atom -5577.586115 kJ/mol
# Density = 2.292741 g / cm^3
# Si number density = 22.979710 Si / 1000 Ang^3
#
#
#
# Elastic Constant Matrix: (Units=GPa)
#
#
# Indices 1 2 3 4 5 6 
#
# 1 143.7460 37.3601 58.8299 0.0000 -0.1774 0.0000
# 2 37.3601 41.0706 34.8877 0.0000 0.5420 0.0000
# 3 58.8299 34.8877 132.3258 0.0000 -7.8598 0.0000
# 4 0.0000 0.0000 0.0000 9.7244 0.0000 6.5391
# 5 -0.1774 0.5420 -7.8598 0.0000 59.2884 0.0000
# 6 0.0000 0.0000 0.0000 6.5391 0.0000 29.2901
#
#
#
# Elastic Compliance Matrix: (Units=1/GPa)
#
#
# Indices 1 2 3 4 5 6 
#
# 1 0.009749 -0.006663 -0.002593 0.000000 -0.000254 0.000000
# 2 -0.006663 0.036043 -0.006614 0.000000 -0.001226 0.000000
# 3 -0.002593 -0.006614 0.010540 0.000000 0.001450 0.000000
# 4 0.000000 0.000000 0.000000 0.120998 0.000000 -0.027013
# 5 -0.000254 -0.001226 0.001450 0.000000 0.017069 0.000000
# 6 0.000000 0.000000 0.000000 -0.027013 0.000000 0.040172
#
#
# Mechanical properties :
#
#
# Convention : Reuss Voigt Hill
#
# Bulk Modulus (GPa) = 40.66027 64.36641 52.51334
# Shear Modulus (GPa) = 18.21446 32.06491 25.13968
#
# Velocity S-wave (km/s) = 2.81843 3.73950 3.31115
# Velocity P-wave (km/s) = 5.32201 6.83492 6.12535
#
# Compressibility (1/GPa) = 0.02459403
#
# Stress axis : x y z
#
# Youngs Moduli (GPa) = 102.57291 27.74465 94.88028
#
# Poissons Ratio (x) = 0.18485 0.24601
# Poissons Ratio (y) = 0.68340 0.62749
# Poissons Ratio (z) = 0.26595 0.18349
#
# Static dielectric constant tensor:
#      x y z
#    x 1.888190 0.000000 -0.025540 
#    y 0.000000 1.865260 0.000000 
#    z -0.025540 0.000000 1.927460 
# 
# From -- ./inp_files/65073.got.cif
#   From: 2010.05.17/outbox.cif.g08.bks.cpg/sg15_33_cif.got.tgz:65073.got - 2010.06.03 18:47:42.
