data_PCOD9293303
_publ_section_title
;
Structure prediction by ZEFSAII (Michael W. Deem and Ramdas Pophale) SiO2 
 PCOD9293303
Probable space group: C 2/C
;
_chemical_formula_sum "Si O2"
_cell_formula_units_Z 56
_cell_length_a 20.935352
_cell_length_b 18.715287
_cell_length_c 14.598146
_cell_angle_alpha 90.000000
_cell_angle_beta 155.056286
_cell_angle_gamma 90.000000
_cell_volume 2412.162784
_symmetry_space_group_name_H-M "C 2/C"
_symmetry_group_IT_number 15
_symmetry_cell_setting 'monoclinic'
loop_
_space_group_symop_operation_xyz
x,y,z
-x,y,1/2-z
-x,-y,-z
x,-y,1/2+z
1/2+x,1/2+y,z
1/2-x,1/2+y,1/2-z
1/2-x,1/2-y,-z
1/2+x,1/2-y,1/2+z
loop_
_atom_site_type_symbol
_atom_site_label
_atom_site_fract_x
_atom_site_fract_y
_atom_site_fract_z
Si Si1 0.224396 0.019453 0.774794
Si Si2 0.331179 0.247559 0.008927
Si Si3 0.744332 0.137279 0.260192
Si Si4 0.906581 0.593112 0.869292
Si Si5 0.851531 0.837122 0.381544
Si Si6 0.837820 0.545678 0.590065
Si Si7 0.813030 0.194105 0.154308
O O1 0.200967 0.941408 0.700557
O O2 0.107409 0.080451 0.593077
O O3 0.376633 0.051838 0.925158
O O4 0.252323 0.013378 0.919002
O O5 0.500000 0.221780 0.250000
O O6 0.250000 0.250000 0.000000
O O7 0.332533 0.323421 0.956643
O O8 0.232948 0.197725 0.814223
O O9 0.494241 0.299663 0.892220
O O10 0.756577 0.188315 0.186721
O O11 0.776129 0.653373 0.706709
O O12 0.862857 0.539956 0.730253
O O13 0.070075 0.625807 0.064338
O O14 0.740984 0.617182 0.452417
O O15 0.000000 0.556428 0.750000
O O16 0.750000 0.250000 0.000000
#
# Coordination Sequence:
#
# PCOD9293303 Si02
#       7
#     8   8   8   8   8   8   8
#     4   9  23  43  74 101 147 181 248 300 369 426
#     4  12  27  48  72 104 143 196 246 295 370 443
#     4  11  23  45  74 104 146 195 244 304 371 441
#     4  10  22  45  69 108 145 182 246 302 359 440
#     4  10  26  47  72 108 150 188 247 316 363 442
#     4  11  22  40  68 109 140 190 240 291 376 442
#     4  11  26  43  71 105 150 195 240 303 379 438
#
# _framework density 23.215679000000002
#
# number of rings (size 3 to 8) (size 9 to 14) (size 15 to 20)
#    0.857    0.571    2.857    2.143    4.000    4.571 
#    0.000    2.143    0.000    0.000    0.000    0.000 
#    0.000    0.000    0.000    0.000    0.000    0.000 
#
# Total GULP energy -156406.791714 kJ/mol
# GULP energy per Si atom -5585.956847 kJ/mol
# Density = 2.316284 g / cm^3
# Si number density = 23.215679 Si / 1000 Ang^3
#
#
#
# Elastic Constant Matrix: (Units=GPa)
#
#
# Indices 1 2 3 4 5 6 
#
# 1 91.0308 6.0983 43.4637 0.0000 2.8921 0.0000
# 2 6.0983 92.8387 39.9974 0.0000 -3.5302 0.0000
# 3 43.4637 39.9974 131.5431 0.0000 7.4653 0.0000
# 4 0.0000 0.0000 0.0000 38.8396 0.0000 -8.4378
# 5 2.8921 -3.5302 7.4653 0.0000 38.5586 0.0000
# 6 0.0000 0.0000 0.0000 -8.4378 0.0000 34.3182
#
#
#
# Elastic Compliance Matrix: (Units=1/GPa)
#
#
# Indices 1 2 3 4 5 6 
#
# 1 0.013151 0.001162 -0.004700 0.000000 0.000030 0.000000
# 2 0.001162 0.012635 -0.004334 0.000000 0.001909 0.000000
# 3 -0.004700 -0.004334 0.010592 0.000000 -0.002095 0.000000
# 4 0.000000 0.000000 0.000000 0.027200 0.000000 0.006688
# 5 0.000030 0.001909 -0.002095 0.000000 0.026513 0.000000
# 6 0.000000 0.000000 0.000000 0.006688 0.000000 0.030783
#
#
# Mechanical properties :
#
#
# Convention : Reuss Voigt Hill
#
# Bulk Modulus (GPa) = 48.46571 54.94793 51.70682
# Shear Modulus (GPa) = 34.84439 37.40018 36.12228
#
# Velocity S-wave (km/s) = 3.87835 4.01807 3.94882
# Velocity P-wave (km/s) = 6.40133 6.72654 6.56595
#
# Compressibility (1/GPa) = 0.02063315
#
# Stress axis : x y z
#
# Youngs Moduli (GPa) = 76.04170 79.14603 94.41206
#
# Poissons Ratio (x) = -0.09199 0.44376
# Poissons Ratio (y) = -0.08839 0.40920
# Poissons Ratio (z) = 0.35742 0.34303
#
# Static dielectric constant tensor:
#      x y z
#    x 1.865820 0.000000 0.001450 
#    y 0.000000 1.942120 0.000000 
#    z 0.001450 0.000000 1.838940 
# 
# From -- ./inp_files/169157.got.cif
#   From: 2010.05.17/outbox.cif.g08.bks.cpg/sg15_85_cif.got.tgz:169157.got - 2010.06.03 18:47:42.
