data_PCOD9293199
_publ_section_title
;
Structure prediction by ZEFSAII (Michael W. Deem and Ramdas Pophale) SiO2 
 PCOD9293199
Probable space group: C 2/C
;
_chemical_formula_sum "Si O2"
_cell_formula_units_Z 36
_cell_length_a 16.013471
_cell_length_b 10.157724
_cell_length_c 22.253252
_cell_angle_alpha 90.000000
_cell_angle_beta 24.426844
_cell_angle_gamma 90.000000
_cell_volume 1496.867988
_symmetry_space_group_name_H-M "C 2/C"
_symmetry_group_IT_number 15
_symmetry_cell_setting 'monoclinic'
loop_
_space_group_symop_operation_xyz
x,y,z
-x,y,1/2-z
-x,-y,-z
x,-y,1/2+z
1/2+x,1/2+y,z
1/2-x,1/2+y,1/2-z
1/2-x,1/2-y,-z
1/2+x,1/2-y,1/2+z
loop_
_atom_site_type_symbol
_atom_site_label
_atom_site_fract_x
_atom_site_fract_y
_atom_site_fract_z
Si Si1 0.948969 0.180415 0.396076
Si Si2 0.742324 0.213681 0.210399
Si Si3 0.221839 0.542169 0.112496
Si Si4 0.297905 0.826318 0.050365
Si Si5 0.000000 0.046233 0.250000
O O1 0.750000 0.250000 0.500000
O O2 0.092677 0.253242 0.348587
O O3 0.879897 0.053790 0.479545
O O4 0.074187 0.135772 0.255834
O O5 0.774631 0.085071 0.146035
O O6 0.531789 0.185697 0.381533
O O7 0.748261 0.323882 0.154480
O O8 0.209245 0.684861 0.087513
O O9 0.000000 0.481847 0.250000
O O10 0.177890 0.953659 0.107991
#
# Coordination Sequence:
#
# PCOD9293199 Si02
#       5
#     8   8   8   8   4
#     4  12  29  46  66 106 153 196 228 288 371 440
#     4  10  24  44  76 104 146 181 243 294 359 426
#     4  10  22  44  79  98 139 181 242 293 354 417
#     4  10  22  46  77 108 127 186 248 302 344 409
#     4  12  26  46  74 102 146 184 250 298 350 424
#
# _framework density 24.050215999999999
#
# number of rings (size 3 to 8) (size 9 to 14) (size 15 to 20)
#    1.333    0.000    1.111    3.333    4.667    3.556 
#    8.000    0.000    0.000    0.000    0.000    0.000 
#    0.000    0.000    0.000    0.000    0.000    0.000 
#
# Total GULP energy -100503.092060 kJ/mol
# GULP energy per Si atom -5583.505114 kJ/mol
# Density = 2.399548 g / cm^3
# Si number density = 24.050216 Si / 1000 Ang^3
#
#
#
# Elastic Constant Matrix: (Units=GPa)
#
#
# Indices 1 2 3 4 5 6 
#
# 1 131.6385 8.6784 28.2041 -0.0057 -8.4801 0.0036
# 2 8.6784 33.0301 -0.0179 -0.0009 6.0331 -0.0013
# 3 28.2041 -0.0179 85.6335 -0.0048 7.8600 -0.0012
# 4 -0.0057 -0.0009 -0.0048 24.6825 0.0006 6.3656
# 5 -8.4801 6.0331 7.8600 0.0006 27.3189 -0.0011
# 6 0.0036 -0.0013 -0.0012 6.3656 -0.0011 15.8531
#
#
#
# Elastic Compliance Matrix: (Units=1/GPa)
#
#
# Indices 1 2 3 4 5 6 
#
# 1 0.008789 -0.003108 -0.003296 0.000002 0.004363 -0.000003
# 2 -0.003108 0.032684 0.001830 0.000000 -0.008709 0.000003
# 3 -0.003296 0.001830 0.013244 0.000002 -0.005238 0.000001
# 4 0.000002 0.000000 0.000002 0.045195 -0.000002 -0.018147
# 5 0.004363 -0.008709 -0.005238 -0.000002 0.041389 0.000001
# 6 -0.000003 0.000003 0.000001 -0.018147 0.000001 0.070366
#
#
# Mechanical properties :
#
#
# Convention : Reuss Voigt Hill
#
# Bulk Modulus (GPa) = 21.94465 36.00348 28.97407
# Shear Modulus (GPa) = 21.18614 27.80007 24.49310
#
# Velocity S-wave (km/s) = 2.97124 3.40357 3.19472
# Velocity P-wave (km/s) = 4.57333 5.51800 5.06772
#
# Compressibility (1/GPa) = 0.04556918
#
# Stress axis : x y z
#
# Youngs Moduli (GPa) = 113.78383 30.59630 75.50447
#
# Poissons Ratio (x) = 0.09509 0.24884
# Poissons Ratio (y) = 0.35361 -0.13816
# Poissons Ratio (z) = 0.37499 -0.05598
#
# Static dielectric constant tensor:
#      x y z
#    x 1.937730 0.000000 0.033270 
#    y 0.000000 1.915780 0.000000 
#    z 0.033270 0.000000 1.961840 
# 
# From -- ./inp_files/152827.got.cif
#   From: 2010.05.17/outbox.cif.g08.bks.cpg/sg15_77_cif.got.tgz:152827.got - 2010.06.03 18:47:42.
