data_PCOD9293003
_publ_section_title
;
Structure prediction by ZEFSAII (Michael W. Deem and Ramdas Pophale) SiO2 
 PCOD9293003
Probable space group: C 2/C
;
_chemical_formula_sum "Si O2"
_cell_formula_units_Z 56
_cell_length_a 7.446359
_cell_length_b 31.222865
_cell_length_c 10.896337
_cell_angle_alpha 90.000000
_cell_angle_beta 70.278032
_cell_angle_gamma 90.000000
_cell_volume 2384.758077
_symmetry_space_group_name_H-M "C 2/C"
_symmetry_group_IT_number 15
_symmetry_cell_setting 'monoclinic'
loop_
_space_group_symop_operation_xyz
x,y,z
-x,y,1/2-z
-x,-y,-z
x,-y,1/2+z
1/2+x,1/2+y,z
1/2-x,1/2+y,1/2-z
1/2-x,1/2-y,-z
1/2+x,1/2-y,1/2+z
loop_
_atom_site_type_symbol
_atom_site_label
_atom_site_fract_x
_atom_site_fract_y
_atom_site_fract_z
Si Si1 0.382543 0.461398 0.902304
Si Si2 0.500000 0.096106 0.250000
Si Si3 0.265949 0.449173 0.494561
Si Si4 0.715749 0.879029 0.053770
Si Si5 0.741891 0.129353 0.824169
Si Si6 0.300161 0.171432 0.165852
Si Si7 0.856917 0.712198 0.544895
Si Si8 0.000000 0.756482 0.750000
O O1 0.500000 0.455515 0.750000
O O2 0.550946 0.457550 0.963197
O O3 0.259383 0.505122 0.927341
O O4 0.246004 0.423964 0.980339
O O5 0.404425 0.066713 0.376853
O O6 0.336183 0.128948 0.238324
O O7 0.301366 0.410966 0.391206
O O8 0.489538 0.872093 0.117964
O O9 0.799420 0.875372 0.169810
O O10 0.794561 0.844550 0.939800
O O11 0.784993 0.175946 0.869427
O O12 0.177007 0.211761 0.232668
O O13 0.509017 0.188958 0.085033
O O14 0.750000 0.750000 0.500000
O O15 0.990430 0.727885 0.628623
#
# Coordination Sequence:
#
# PCOD9293003 Si02
#       8
#     8   4   8   8   8   8   8   4
#     4  11  27  45  67 105 140 177 230 287 355 419
#     4  12  22  46  72  99 138 192 237 282 352 434
#     4  11  26  44  70  98 137 179 228 293 338 422
#     4  10  22  44  71 100 139 182 230 287 350 418
#     4  10  23  45  72 100 136 183 241 285 352 420
#     4  11  24  43  68 106 140 188 234 287 362 423
#     4  11  23  45  69 103 142 189 240 300 351 421
#     4  12  26  40  72 103 150 178 239 306 350 426
#
# _framework density 23.482465999999999
#
# number of rings (size 3 to 8) (size 9 to 14) (size 15 to 20)
#    0.000    1.143    2.857    3.857    7.000    1.714 
#    0.000    1.429    0.000    0.000    0.000    0.000 
#    0.000    0.000    0.000    0.000    0.000    0.000 
#
# Total GULP energy -156478.189644 kJ/mol
# GULP energy per Si atom -5588.506773 kJ/mol
# Density = 2.342902 g / cm^3
# Si number density = 23.482466 Si / 1000 Ang^3
#
#
#
# Elastic Constant Matrix: (Units=GPa)
#
#
# Indices 1 2 3 4 5 6 
#
# 1 45.6511 24.3422 16.4191 0.0000 4.4071 0.0000
# 2 24.3422 174.1072 69.1280 0.0000 6.9151 0.0000
# 3 16.4191 69.1280 104.9458 0.0000 13.6705 0.0000
# 4 0.0000 0.0000 0.0000 -36.2595 0.0000 118.7125
# 5 4.4071 6.9151 13.6705 0.0000 33.9388 0.0000
# 6 0.0000 0.0000 0.0000 118.7125 0.0000 -161.6872
#
#
#
# Elastic Compliance Matrix: (Units=1/GPa)
#
#
# Indices 1 2 3 4 5 6 
#
# 1 0.024116 -0.002568 -0.001838 0.000000 -0.001868 0.000000
# 2 -0.002568 0.008059 -0.004999 0.000000 0.000705 0.000000
# 3 -0.001838 -0.004999 0.013662 0.000000 -0.004246 0.000000
# 4 0.000000 0.000000 0.000000 0.019646 0.000000 0.014424
# 5 -0.001868 0.000705 -0.004246 0.000000 0.031274 0.000000
# 6 0.000000 0.000000 0.000000 0.014424 0.000000 0.004406
#
#
# Mechanical properties :
#
#
# Convention : Reuss Voigt Hill
#
# Bulk Modulus (GPa) = 36.99897 60.49809 48.74853
# Shear Modulus (GPa) = 38.76507 -18.48058 10.14225
#
# Velocity S-wave (km/s) = 4.06742 -2.80839 2.08049
# Velocity P-wave (km/s) = 6.15214 3.91190 5.15518
#
# Compressibility (1/GPa) = 0.02702778
#
# Stress axis : x y z
#
# Youngs Moduli (GPa) = 41.46641 124.08029 73.19494
#
# Poissons Ratio (x) = 0.31858 0.13457
# Poissons Ratio (y) = 0.10647 0.36589
# Poissons Ratio (z) = 0.07623 0.62025
#
# Static dielectric constant tensor:
#      x y z
#    x 1.949350 0.000000 0.032620 
#    y 0.000000 1.906880 0.000000 
#    z 0.032620 0.000000 1.903500 
# 
# From -- ./inp_files/81305.got.cif
#   From: 2010.05.17/outbox.cif.g08.bks.cpg/sg15_41_cif.got.tgz:81305.got - 2010.06.03 18:47:42.
