data_PCOD9293270
_publ_section_title
;
Structure prediction by ZEFSAII (Michael W. Deem and Ramdas Pophale) SiO2 
 PCOD9293270
Probable space group: C 2/C
;
_chemical_formula_sum "Si O2"
_cell_formula_units_Z 60
_cell_length_a 15.212812
_cell_length_b 10.129065
_cell_length_c 19.393812
_cell_angle_alpha 90.000000
_cell_angle_beta 73.207378
_cell_angle_gamma 90.000000
_cell_volume 2860.986592
_symmetry_space_group_name_H-M "C 2/C"
_symmetry_group_IT_number 15
_symmetry_cell_setting 'monoclinic'
loop_
_space_group_symop_operation_xyz
x,y,z
-x,y,1/2-z
-x,-y,-z
x,-y,1/2+z
1/2+x,1/2+y,z
1/2-x,1/2+y,1/2-z
1/2-x,1/2-y,-z
1/2+x,1/2-y,1/2+z
loop_
_atom_site_type_symbol
_atom_site_label
_atom_site_fract_x
_atom_site_fract_y
_atom_site_fract_z
Si Si1 0.368465 0.265804 0.941490
Si Si2 0.785239 0.644759 0.656997
Si Si3 0.107811 0.512879 0.989245
Si Si4 0.000000 0.691005 0.250000
Si Si5 0.159590 0.367746 0.616076
Si Si6 0.875273 0.091709 0.706959
Si Si7 0.453941 0.699920 0.188205
Si Si8 0.716931 0.376567 0.412450
O O1 0.466827 0.286045 0.886787
O O2 0.291180 0.241735 0.900867
O O3 0.337352 0.375405 0.002914
O O4 0.365958 0.128171 0.984160
O O5 0.836756 0.549141 0.591958
O O6 0.717952 0.741348 0.627793
O O7 0.717731 0.577946 0.727401
O O8 0.863900 0.722987 0.681881
O O9 0.129691 0.623029 0.042863
O O10 0.000000 0.500000 0.000000
O O11 0.068147 0.614939 0.183229
O O12 0.065178 0.788776 0.277563
O O13 0.226572 0.490636 0.611792
O O14 0.851395 0.131796 0.634928
O O15 0.927691 0.953701 0.699891
O O16 0.500000 0.745042 0.250000
#
# Coordination Sequence:
#
# PCOD9293270 Si02
#       8
#     8   8   8   4   8   8   8   8
#     4  10  24  44  68  97 133 171 221 271 330 395
#     4  11  24  44  67  94 132 172 219 270 326 395
#     4  11  23  42  66  98 127 170 219 268 329 388
#     4  10  24  44  64  96 132 174 222 270 320 396
#     4  10  23  44  67  95 130 171 219 266 328 387
#     4  11  24  42  66  97 131 176 216 268 332 388
#     4  12  24  44  67  99 133 174 221 272 331 394
#     4  10  22  45  67  97 130 171 215 268 331 386
#
# _framework density 20.971786999999999
#
# number of rings (size 3 to 8) (size 9 to 14) (size 15 to 20)
#    0.000    1.333    3.333    1.200    1.867    5.867 
#    7.200    0.000    0.000    0.000    0.000    0.000 
#    0.000    0.000    0.000    0.000    0.000    0.000 
#
# Total GULP energy -167662.628329 kJ/mol
# GULP energy per Si atom -5588.754278 kJ/mol
# Density = 2.092405 g / cm^3
# Si number density = 20.971787 Si / 1000 Ang^3
#
#
#
# Elastic Constant Matrix: (Units=GPa)
#
#
# Indices 1 2 3 4 5 6 
#
# 1 98.9031 7.1360 31.4440 0.0000 4.0265 0.0000
# 2 7.1360 49.1823 32.5011 0.0000 -12.1679 0.0000
# 3 31.4440 32.5011 92.7680 0.0000 -13.3791 0.0000
# 4 0.0000 0.0000 0.0000 23.9629 0.0000 -12.3603
# 5 4.0265 -12.1679 -13.3791 0.0000 48.5627 0.0000
# 6 0.0000 0.0000 0.0000 -12.3603 0.0000 11.6735
#
#
#
# Elastic Compliance Matrix: (Units=1/GPa)
#
#
# Indices 1 2 3 4 5 6 
#
# 1 0.011560 0.000792 -0.004484 0.000000 -0.001995 0.000000
# 2 0.000792 0.027380 -0.009249 0.000000 0.004247 0.000000
# 3 -0.004484 -0.009249 0.015890 0.000000 0.002432 0.000000
# 4 0.000000 0.000000 0.000000 0.091951 0.000000 0.097361
# 5 -0.001995 0.004247 0.002432 0.000000 0.022492 0.000000
# 6 0.000000 0.000000 0.000000 0.097361 0.000000 0.188754
#
#
# Mechanical properties :
#
#
# Convention : Reuss Voigt Hill
#
# Bulk Modulus (GPa) = 34.54196 42.55730 38.54963
# Shear Modulus (GPa) = 12.70462 28.15797 20.43129
#
# Velocity S-wave (km/s) = 2.46396 3.66821 3.12465
# Velocity P-wave (km/s) = 4.95996 6.18690 5.60709
#
# Compressibility (1/GPa) = 0.02895030
#
# Stress axis : x y z
#
# Youngs Moduli (GPa) = 86.50151 36.52305 62.93135
#
# Poissons Ratio (x) = -0.02892 0.28217
# Poissons Ratio (y) = -0.06851 0.58202
# Poissons Ratio (z) = 0.38785 0.33778
#
# Static dielectric constant tensor:
#      x y z
#    x 1.769070 0.000000 0.024210 
#    y 0.000000 1.748840 0.000000 
#    z 0.024210 0.000000 1.752640 
# 
# From -- ./inp_files/204445.got.cif
#   From: 2010.05.17/outbox.cif.g08.bks.cpg/sg15_103_cif.got.tgz:204445.got - 2010.06.03 18:47:42.
