data_PCOD9293646
_publ_section_title
;
Structure prediction by ZEFSAII (Michael W. Deem and Ramdas Pophale) SiO2 
 PCOD9293646
Probable space group: C 2/C
;
_chemical_formula_sum "Si O2"
_cell_formula_units_Z 32
_cell_length_a 7.812110
_cell_length_b 18.636754
_cell_length_c 8.938762
_cell_angle_alpha 90.000000
_cell_angle_beta 92.592777
_cell_angle_gamma 90.000000
_cell_volume 1300.083280
_symmetry_space_group_name_H-M "C 2/C"
_symmetry_group_IT_number 15
_symmetry_cell_setting 'monoclinic'
loop_
_space_group_symop_operation_xyz
x,y,z
-x,y,1/2-z
-x,-y,-z
x,-y,1/2+z
1/2+x,1/2+y,z
1/2-x,1/2+y,1/2-z
1/2-x,1/2-y,-z
1/2+x,1/2-y,1/2+z
loop_
_atom_site_type_symbol
_atom_site_label
_atom_site_fract_x
_atom_site_fract_y
_atom_site_fract_z
Si Si1 0.270913 0.400305 0.865263
Si Si2 0.615794 0.046693 0.888589
Si Si3 0.566254 0.774801 0.921630
Si Si4 0.122656 0.847948 0.951938
O O1 0.236606 0.482545 0.830179
O O2 0.103006 0.359873 0.921539
O O3 0.441547 0.389856 0.969360
O O4 0.315840 0.357724 0.715519
O O5 0.500000 0.074011 0.750000
O O6 0.734970 0.110315 0.950061
O O7 0.500000 0.000000 0.000000
O O8 0.500000 0.755897 0.750000
O O9 0.750000 0.750000 0.000000
O O10 0.428054 0.733765 0.016088
#
# Coordination Sequence:
#
# PCOD9293646 Si02
#       4
#     8   8   8   8
#     4  10  22  46  71  99 144 184 238 295 357 426
#     4  12  24  42  69 104 143 185 235 297 358 427
#     4  10  23  44  71 101 140 186 242 294 356 428
#     4  10  23  44  72 101 138 190 234 295 360 423
#
# _framework density 24.613807000000001
#
# number of rings (size 3 to 8) (size 9 to 14) (size 15 to 20)
#    0.000    1.500    2.500    1.500    0.000    5.000 
#    4.500    0.000    0.000    0.000    0.000    0.000 
#    0.000    0.000    0.000    0.000    0.000    0.000 
#
# Total GULP energy -89356.819101 kJ/mol
# GULP energy per Si atom -5584.801194 kJ/mol
# Density = 2.455778 g / cm^3
# Si number density = 24.613807 Si / 1000 Ang^3
#
#
#
# Elastic Constant Matrix: (Units=GPa)
#
#
# Indices 1 2 3 4 5 6 
#
# 1 200.7182 75.1716 64.6885 0.0000 33.1948 0.0000
# 2 75.1716 153.5307 33.8685 0.0000 7.4282 0.0000
# 3 64.6885 33.8685 88.4508 0.0000 34.0556 0.0000
# 4 0.0000 0.0000 0.0000 14.5024 0.0000 2.4003
# 5 33.1948 7.4282 34.0556 0.0000 49.9568 0.0000
# 6 0.0000 0.0000 0.0000 2.4003 0.0000 37.5370
#
#
#
# Elastic Compliance Matrix: (Units=1/GPa)
#
#
# Indices 1 2 3 4 5 6 
#
# 1 0.007551 -0.002792 -0.003635 0.000000 -0.002124 0.000000
# 2 -0.002792 0.008190 -0.001816 0.000000 0.001876 0.000000
# 3 -0.003635 -0.001816 0.018475 0.000000 -0.009909 0.000000
# 4 0.000000 0.000000 0.000000 0.069692 0.000000 -0.004456
# 5 -0.002124 0.001876 -0.009909 0.000000 0.027904 0.000000
# 6 0.000000 0.000000 0.000000 -0.004456 0.000000 0.026925
#
#
# Mechanical properties :
#
#
# Convention : Reuss Voigt Hill
#
# Bulk Modulus (GPa) = 56.40635 87.79521 72.10078
# Shear Modulus (GPa) = 27.60378 38.33066 32.96722
#
# Velocity S-wave (km/s) = 3.35248 3.95052 3.66372
# Velocity P-wave (km/s) = 6.16050 7.52033 6.87412
#
# Compressibility (1/GPa) = 0.01772850
#
# Stress axis : x y z
#
# Youngs Moduli (GPa) = 132.43818 122.09406 54.12734
#
# Poissons Ratio (x) = 0.34092 0.19677
# Poissons Ratio (y) = 0.36980 0.09831
# Poissons Ratio (z) = 0.48145 0.22175
#
# Static dielectric constant tensor:
#      x y z
#    x 2.026570 0.000000 -0.030600 
#    y 0.000000 1.933560 0.000000 
#    z -0.030600 0.000000 2.110030 
# 
# From -- ./inp_files/22231.got.cif
#   From: 2010.05.17/outbox.cif.g08.bks.cpg/sg15_12_cif.got.tgz:22231.got - 2010.06.03 18:47:42.
