data_PCOD9293434
_publ_section_title
;
Structure prediction by ZEFSAII (Michael W. Deem and Ramdas Pophale) SiO2 
 PCOD9293434
Probable space group: C 2/C
;
_chemical_formula_sum "Si O2"
_cell_formula_units_Z 60
_cell_length_a 19.121365
_cell_length_b 9.368196
_cell_length_c 19.046098
_cell_angle_alpha 90.000000
_cell_angle_beta 44.791553
_cell_angle_gamma 90.000000
_cell_volume 2403.699172
_symmetry_space_group_name_H-M "C 2/C"
_symmetry_group_IT_number 15
_symmetry_cell_setting 'monoclinic'
loop_
_space_group_symop_operation_xyz
x,y,z
-x,y,1/2-z
-x,-y,-z
x,-y,1/2+z
1/2+x,1/2+y,z
1/2-x,1/2+y,1/2-z
1/2-x,1/2-y,-z
1/2+x,1/2-y,1/2+z
loop_
_atom_site_type_symbol
_atom_site_label
_atom_site_fract_x
_atom_site_fract_y
_atom_site_fract_z
Si Si1 0.588583 0.164540 0.322974
Si Si2 0.842311 0.793499 0.085488
Si Si3 0.389839 0.378218 0.318498
Si Si4 0.670757 0.124303 0.537161
Si Si5 0.306193 0.399234 0.632589
Si Si6 0.500000 0.801811 0.250000
Si Si7 0.864830 0.856152 0.743569
Si Si8 0.138203 0.679947 0.026205
O O1 0.601108 0.262634 0.382784
O O2 0.596129 0.251298 0.246335
O O3 0.692736 0.076989 0.242674
O O4 0.473512 0.117912 0.407420
O O5 0.841622 0.959454 0.066935
O O6 0.728767 0.748026 0.181006
O O7 0.876368 0.688494 0.000036
O O8 0.500000 0.440674 0.250000
O O9 0.340262 0.503323 0.306725
O O10 0.364249 0.295802 0.409293
O O11 0.750000 0.250000 0.500000
O O12 0.593350 0.112817 0.655433
O O13 0.372380 0.384652 0.655622
O O14 0.200357 0.460763 0.503052
O O15 0.320125 0.262632 0.572021
O O16 0.540783 0.713633 0.286881
#
# Coordination Sequence:
#
# PCOD9293434 Si02
#       8
#     8   8   8   8   8   4   8   8
#     4  10  25  47  77 108 155 202 265 315 392 468
#     4  11  26  47  74 112 159 198 257 328 386 466
#     4  10  22  45  74 110 146 196 255 314 377 461
#     4  12  30  51  75 118 157 203 263 321 392 465
#     4  11  27  47  79 115 156 206 258 327 391 466
#     4  12  28  48  80 104 160 206 248 324 390 458
#     4  11  24  47  76 115 152 204 256 315 392 457
#     4  11  29  49  79 113 153 211 263 323 387 472
#
# _framework density 24.961525999999999
#
# number of rings (size 3 to 8) (size 9 to 14) (size 15 to 20)
#    0.000    1.067    3.333    0.000   12.133    2.667 
#    0.000    0.000    0.000    0.000    0.000    0.000 
#    0.000    0.000    0.000    0.000    0.000    0.000 
#
# Total GULP energy -167561.385781 kJ/mol
# GULP energy per Si atom -5585.379526 kJ/mol
# Density = 2.490471 g / cm^3
# Si number density = 24.961526 Si / 1000 Ang^3
#
#
#
# Elastic Constant Matrix: (Units=GPa)
#
#
# Indices 1 2 3 4 5 6 
#
# 1 98.2592 34.7307 36.8792 0.0000 16.5372 0.0000
# 2 34.7307 148.3314 50.9411 0.0000 12.0075 0.0000
# 3 36.8792 50.9411 113.3883 0.0000 18.3417 0.0000
# 4 0.0000 0.0000 0.0000 12.9781 0.0000 4.1346
# 5 16.5372 12.0075 18.3417 0.0000 32.6827 0.0000
# 6 0.0000 0.0000 0.0000 4.1346 0.0000 17.6476
#
#
#
# Elastic Compliance Matrix: (Units=1/GPa)
#
#
# Indices 1 2 3 4 5 6 
#
# 1 0.012463 -0.001678 -0.002617 0.000000 -0.004221 0.000000
# 2 -0.001678 0.008228 -0.003079 0.000000 -0.000446 0.000000
# 3 -0.002617 -0.003079 0.011720 0.000000 -0.004122 0.000000
# 4 0.000000 0.000000 0.000000 0.083268 0.000000 -0.019509
# 5 -0.004221 -0.000446 -0.004122 0.000000 0.035210 0.000000
# 6 0.000000 0.000000 0.000000 -0.019509 0.000000 0.061236
#
#
# Mechanical properties :
#
#
# Convention : Reuss Voigt Hill
#
# Bulk Modulus (GPa) = 56.61075 67.23121 61.92098
# Shear Modulus (GPa) = 21.48135 28.49020 24.98577
#
# Velocity S-wave (km/s) = 2.93674 3.38207 3.16725
# Velocity P-wave (km/s) = 5.85045 6.49951 6.18350
#
# Compressibility (1/GPa) = 0.01766449
#
# Stress axis : x y z
#
# Youngs Moduli (GPa) = 80.23898 121.53794 85.32171
#
# Poissons Ratio (x) = 0.20390 0.22329
# Poissons Ratio (y) = 0.13461 0.26268
# Poissons Ratio (z) = 0.20998 0.37417
#
# Static dielectric constant tensor:
#      x y z
#    x 2.243370 0.000000 -0.506430 
#    y 0.000000 1.971350 0.000000 
#    z -0.506430 0.000000 2.912680 
# 
# From -- ./inp_files/210954.got.cif
#   From: 2010.05.17/outbox.cif.g08.bks.cpg/sg15_106_cif.got.tgz:210954.got - 2010.06.03 18:47:42.
