data_PCOD9293541
_publ_section_title
;
Structure prediction by ZEFSAII (Michael W. Deem and Ramdas Pophale) SiO2 
 PCOD9293541
Probable space group: C 2/C
;
_chemical_formula_sum "Si O2"
_cell_formula_units_Z 48
_cell_length_a 24.924099
_cell_length_b 4.841424
_cell_length_c 15.707807
_cell_angle_alpha 90.000000
_cell_angle_beta 86.082124
_cell_angle_gamma 90.000000
_cell_volume 1891.002109
_symmetry_space_group_name_H-M "C 2/C"
_symmetry_group_IT_number 15
_symmetry_cell_setting 'monoclinic'
loop_
_space_group_symop_operation_xyz
x,y,z
-x,y,1/2-z
-x,-y,-z
x,-y,1/2+z
1/2+x,1/2+y,z
1/2-x,1/2+y,1/2-z
1/2-x,1/2-y,-z
1/2+x,1/2-y,1/2+z
loop_
_atom_site_type_symbol
_atom_site_label
_atom_site_fract_x
_atom_site_fract_y
_atom_site_fract_z
Si Si1 0.708328 0.530437 0.463916
Si Si2 0.886068 0.619325 0.261700
Si Si3 0.552177 0.376011 0.798300
Si Si4 0.226580 0.296573 0.794334
Si Si5 0.589888 0.299012 0.973235
Si Si6 0.381413 0.788085 0.436719
O O1 0.750000 0.750000 0.500000
O O2 0.832262 0.583143 0.214015
O O3 0.731181 0.364518 0.381670
O O4 0.678729 0.305916 0.528711
O O5 0.934204 0.445311 0.215788
O O6 0.846878 0.821981 0.560960
O O7 0.877899 0.474648 0.353606
O O8 0.901187 0.938560 0.249460
O O9 0.500000 0.444245 0.750000
O O10 0.554076 0.407211 0.899778
O O11 0.264822 0.558943 0.777880
O O12 0.586967 0.498959 0.056134
O O13 0.586633 0.983709 0.000632
#
# Coordination Sequence:
#
# PCOD9293541 Si02
#       6
#     8   8   8   8   8   8
#     4  10  25  46  71 102 148 198 245 292 368 431
#     4  12  25  50  70 108 150 186 249 310 360 441
#     4  12  25  47  80 106 141 197 247 306 380 436
#     4  12  28  45  72 109 150 198 247 295 359 444
#     4  10  22  46  68 100 146 185 242 296 370 424
#     4  10  24  44  73  99 146 197 230 305 370 421
#
# _framework density 25.383368999999998
#
# number of rings (size 3 to 8) (size 9 to 14) (size 15 to 20)
#    1.000    0.000    1.667    4.500    4.667    2.000 
#    0.000    5.833    0.000    0.000    0.000    0.000 
#    0.000    0.000    0.000    0.000    0.000    0.000 
#
# Total GULP energy -134108.891363 kJ/mol
# GULP energy per Si atom -5587.870473 kJ/mol
# Density = 2.532559 g / cm^3
# Si number density = 25.383369 Si / 1000 Ang^3
#
#
#
# Elastic Constant Matrix: (Units=GPa)
#
#
# Indices 1 2 3 4 5 6 
#
# 1 52.1607 -3.7222 11.5700 0.0000 29.0902 0.0000
# 2 -3.7222 118.4975 23.2077 0.0000 9.9173 0.0000
# 3 11.5700 23.2077 113.1717 0.0000 31.3741 0.0000
# 4 0.0000 0.0000 0.0000 -52.2156 0.0000 -21.4757
# 5 29.0902 9.9173 31.3741 0.0000 29.9814 0.0000
# 6 0.0000 0.0000 0.0000 -21.4757 0.0000 29.5053
#
#
#
# Elastic Compliance Matrix: (Units=1/GPa)
#
#
# Indices 1 2 3 4 5 6 
#
# 1 0.053881 0.004919 0.011871 0.000000 -0.066329 0.000000
# 2 0.004919 0.009285 -0.000327 0.000000 -0.007501 0.000000
# 3 0.011871 -0.000327 0.015288 0.000000 -0.027407 0.000000
# 4 0.000000 0.000000 0.000000 -0.014739 0.000000 -0.010728
# 5 -0.066329 -0.007501 -0.027407 0.000000 0.128873 0.000000
# 6 0.000000 0.000000 0.000000 -0.010728 0.000000 0.026084
#
#
# Mechanical properties :
#
#
# Convention : Reuss Voigt Hill
#
# Bulk Modulus (GPa) = 8.97837 38.43789 23.70813
# Shear Modulus (GPa) = 22.43421 18.30586 20.37004
#
# Velocity S-wave (km/s) = 2.97613 2.68838 2.83591
# Velocity P-wave (km/s) = 3.91849 4.98120 4.48146
#
# Compressibility (1/GPa) = 0.11137882
#
# Stress axis : x y z
#
# Youngs Moduli (GPa) = 18.55933 107.69550 65.41202
#
# Poissons Ratio (x) = -0.52973 -0.77650
# Poissons Ratio (y) = -0.09129 0.02142
# Poissons Ratio (z) = -0.22031 0.03526
#
# Static dielectric constant tensor:
#      x y z
#    x 1.978990 0.000000 -0.000240 
#    y 0.000000 1.978860 0.000000 
#    z -0.000240 0.000000 2.116150 
# 
# From -- ./inp_files/175685.got.cif
#   From: 2010.05.17/outbox.cif.g08.bks.cpg/sg15_88_cif.got.tgz:175685.got - 2010.06.03 18:47:42.
