data_PCOD9293012
_publ_section_title
;
Structure prediction by ZEFSAII (Michael W. Deem and Ramdas Pophale) SiO2 
 PCOD9293012
Probable space group: C 2/C
;
_chemical_formula_sum "Si O2"
_cell_formula_units_Z 36
_cell_length_a 7.116165
_cell_length_b 9.910923
_cell_length_c 26.378640
_cell_angle_alpha 90.000000
_cell_angle_beta 52.663013
_cell_angle_gamma 90.000000
_cell_volume 1479.191834
_symmetry_space_group_name_H-M "C 2/C"
_symmetry_group_IT_number 15
_symmetry_cell_setting 'monoclinic'
loop_
_space_group_symop_operation_xyz
x,y,z
-x,y,1/2-z
-x,-y,-z
x,-y,1/2+z
1/2+x,1/2+y,z
1/2-x,1/2+y,1/2-z
1/2-x,1/2-y,-z
1/2+x,1/2-y,1/2+z
loop_
_atom_site_type_symbol
_atom_site_label
_atom_site_fract_x
_atom_site_fract_y
_atom_site_fract_z
Si Si1 0.859141 0.036230 0.445852
Si Si2 0.516037 0.298741 0.144907
Si Si3 0.500000 0.770597 0.250000
Si Si4 0.873197 0.519397 0.414221
Si Si5 0.081460 0.253130 0.346023
O O1 0.850934 0.918051 0.405748
O O2 0.112780 0.021049 0.432236
O O3 0.665345 0.021918 0.521095
O O4 0.889292 0.178132 0.412685
O O5 0.662110 0.248566 0.169918
O O6 0.249121 0.344421 0.199772
O O7 0.515951 0.167244 0.109062
O O8 0.557175 0.695746 0.293450
O O9 0.018733 0.410868 0.358432
#
# Coordination Sequence:
#
# PCOD9293012 Si02
#       5
#     8   8   4   8   8
#     4  10  22  44  71 103 136 168 220 280 335 395
#     4  11  25  44  68 101 130 179 222 269 336 395
#     4  12  26  48  64  92 144 176 222 280 320 386
#     4  10  22  44  71 103 136 168 220 280 335 395
#     4  11  25  44  68 101 130 179 222 269 336 395
#
# _framework density 24.337613999999999
#
# number of rings (size 3 to 8) (size 9 to 14) (size 15 to 20)
#    0.000    1.333    2.222    2.000    3.111    2.667 
#    0.000    0.000    0.000    0.000    0.000    0.000 
#    0.000    0.000    0.000    0.000    0.000    0.000 
#
# Total GULP energy -100646.343758 kJ/mol
# GULP energy per Si atom -5591.463542 kJ/mol
# Density = 2.428222 g / cm^3
# Si number density = 24.337614 Si / 1000 Ang^3
#
#
#
# Elastic Constant Matrix: (Units=GPa)
#
#
# Indices 1 2 3 4 5 6 
#
# 1 147.7679 0.6963 54.9798 0.0000 4.9552 0.0000
# 2 0.6963 84.1932 10.0954 0.0000 -8.4913 0.0000
# 3 54.9798 10.0954 113.7217 -0.0001 1.8772 0.0000
# 4 0.0000 0.0000 -0.0001 -8.7041 0.0001 1.5376
# 5 4.9552 -8.4913 1.8772 0.0001 48.5457 0.0000
# 6 0.0000 0.0000 0.0000 1.5376 0.0000 11.8646
#
#
#
# Elastic Compliance Matrix: (Units=1/GPa)
#
#
# Indices 1 2 3 4 5 6 
#
# 1 0.008285 0.000351 -0.004026 0.000000 -0.000629 0.000000
# 2 0.000351 0.012247 -0.001292 0.000000 0.002156 0.000000
# 3 -0.004026 -0.001292 0.010858 0.000000 -0.000235 0.000000
# 4 0.000000 0.000000 0.000000 -0.112318 0.000000 0.014556
# 5 -0.000629 0.002156 -0.000235 0.000000 0.021050 0.000000
# 6 0.000000 0.000000 0.000000 0.014556 0.000000 0.082398
#
#
# Mechanical properties :
#
#
# Convention : Reuss Voigt Hill
#
# Bulk Modulus (GPa) = 46.60949 53.02509 49.81729
# Shear Modulus (GPa) = 126.23852 29.00199 77.62025
#
# Velocity S-wave (km/s) = 7.20988 3.45578 5.65353
# Velocity P-wave (km/s) = 9.40758 6.14474 7.94545
#
# Compressibility (1/GPa) = 0.02145486
#
# Stress axis : x y z
#
# Youngs Moduli (GPa) = 120.70314 81.65275 92.09400
#
# Poissons Ratio (x) = -0.02865 0.37078
# Poissons Ratio (y) = -0.04235 0.11902
# Poissons Ratio (z) = 0.48597 0.10553
#
# Static dielectric constant tensor:
#      x y z
#    x 1.981590 0.000000 0.046150 
#    y 0.000000 1.877760 0.000000 
#    z 0.046150 0.000000 1.915300 
# 
# From -- ./inp_files/306412.got.cif
#   From: 2010.05.17/outbox.cif.g08.bks.cpg/sg15_154_cif.got.tgz:306412.got - 2010.06.03 18:47:42.
