data_PCOD9293462
_publ_section_title
;
Structure prediction by ZEFSAII (Michael W. Deem and Ramdas Pophale) SiO2 
 PCOD9293462
Probable space group: C 2/C
;
_chemical_formula_sum "Si O2"
_cell_formula_units_Z 48
_cell_length_a 17.981080
_cell_length_b 6.556283
_cell_length_c 24.389723
_cell_angle_alpha 90.000000
_cell_angle_beta 39.400288
_cell_angle_gamma 90.000000
_cell_volume 1825.039913
_symmetry_space_group_name_H-M "C 2/C"
_symmetry_group_IT_number 15
_symmetry_cell_setting 'monoclinic'
loop_
_space_group_symop_operation_xyz
x,y,z
-x,y,1/2-z
-x,-y,-z
x,-y,1/2+z
1/2+x,1/2+y,z
1/2-x,1/2+y,1/2-z
1/2-x,1/2-y,-z
1/2+x,1/2-y,1/2+z
loop_
_atom_site_type_symbol
_atom_site_label
_atom_site_fract_x
_atom_site_fract_y
_atom_site_fract_z
Si Si1 0.309199 0.196719 0.844628
Si Si2 0.876824 0.369147 0.467335
Si Si3 0.146661 0.325249 0.619700
Si Si4 0.619984 0.525771 0.871407
Si Si5 0.104628 0.286152 0.468040
Si Si6 0.528927 0.469033 0.814745
O O1 0.378152 0.990755 0.818906
O O2 0.217293 0.150234 0.848886
O O3 0.397816 0.367032 0.775079
O O4 0.233975 0.262228 0.940609
O O5 0.847585 0.538903 0.438569
O O6 0.931490 0.491668 0.488538
O O7 0.006618 0.128109 0.544865
O O8 0.055948 0.147681 0.657036
O O9 0.626836 0.540707 0.802604
O O10 0.728428 0.247027 0.928818
O O11 0.624899 0.298717 0.894998
O O12 0.043889 0.797955 0.609165
#
# Coordination Sequence:
#
# PCOD9293462 Si02
#       6
#     8   8   8   8   8   8
#     4  11  29  51  82 123 163 216 282 338 422 506
#     4  12  26  47  83 118 159 221 273 332 418 498
#     4  11  26  53  77 119 165 214 273 354 411 494
#     4  10  23  47  78 119 164 217 272 337 420 489
#     4  10  22  45  80 117 160 214 270 341 405 499
#     4  12  28  53  83 119 167 216 279 345 424 494
#
# _framework density 26.300794
#
# number of rings (size 3 to 8) (size 9 to 14) (size 15 to 20)
#    0.000    1.000    1.667    4.000    4.667    6.000 
#   12.000    0.000    0.000    0.000    0.000    0.000 
#    0.000    0.000    0.000    0.000    0.000    0.000 
#
# Total GULP energy -134416.507369 kJ/mol
# GULP energy per Si atom -5600.687807 kJ/mol
# Density = 2.624093 g / cm^3
# Si number density = 26.300794 Si / 1000 Ang^3
#
#
#
# Elastic Constant Matrix: (Units=GPa)
#
#
# Indices 1 2 3 4 5 6 
#
# 1 167.8165 71.2145 38.9752 -0.0010 3.4795 0.0019
# 2 71.2145 157.0859 59.4372 -0.0045 -4.5868 -0.0003
# 3 38.9752 59.4372 111.5474 -0.0007 -10.0523 0.0003
# 4 -0.0010 -0.0045 -0.0007 48.4884 -0.0001 4.7261
# 5 3.4795 -4.5868 -10.0523 -0.0001 27.9227 -0.0008
# 6 0.0019 -0.0003 0.0003 4.7261 -0.0008 62.1239
#
#
#
# Elastic Compliance Matrix: (Units=1/GPa)
#
#
# Indices 1 2 3 4 5 6 
#
# 1 0.007561 -0.003030 -0.001196 0.000000 -0.001870 0.000000
# 2 -0.003030 0.009189 -0.003791 0.000001 0.000522 0.000000
# 3 -0.001196 -0.003791 0.011741 0.000000 0.003753 0.000000
# 4 0.000000 0.000001 0.000000 0.020778 0.000000 -0.001581
# 5 -0.001870 0.000522 0.003753 0.000000 0.037483 0.000001
# 6 0.000000 0.000000 0.000000 -0.001581 0.000001 0.016217
#
#
# Mechanical properties :
#
#
# Convention : Reuss Voigt Hill
#
# Bulk Modulus (GPa) = 80.27017 86.18929 83.22973
# Shear Modulus (GPa) = 40.59940 45.49518 43.04729
#
# Velocity S-wave (km/s) = 3.93320 4.16360 4.05004
# Velocity P-wave (km/s) = 7.15633 7.48036 7.32014
#
# Compressibility (1/GPa) = 0.01245793
#
# Stress axis : x y z
#
# Youngs Moduli (GPa) = 132.25365 108.82496 85.17393
#
# Poissons Ratio (x) = 0.32973 0.10187
# Poissons Ratio (y) = 0.40072 0.32286
# Poissons Ratio (z) = 0.15818 0.41251
#
# Static dielectric constant tensor:
#      x y z
#    x 2.117440 0.000000 0.026320 
#    y 0.000000 2.106630 0.000000 
#    z 0.026320 0.000000 2.066130 
# 
# From -- ./inp_files/276208.got.cif
#   From: 2010.05.17/outbox.cif.g08.bks.cpg/sg15_139_cif.got.tgz:276208.got - 2010.06.03 18:47:42.
