data_PCOD9293993
_publ_section_title
;
Structure prediction by ZEFSAII (Michael W. Deem and Ramdas Pophale) SiO2 
 PCOD9293993
Probable space group: C 2/C
;
_chemical_formula_sum "Si O2"
_cell_formula_units_Z 56
_cell_length_a 28.556410
_cell_length_b 5.092314
_cell_length_c 18.206561
_cell_angle_alpha 90.000000
_cell_angle_beta 115.283563
_cell_angle_gamma 90.000000
_cell_volume 2393.942213
_symmetry_space_group_name_H-M "C 2/C"
_symmetry_group_IT_number 15
_symmetry_cell_setting 'monoclinic'
loop_
_space_group_symop_operation_xyz
x,y,z
-x,y,1/2-z
-x,-y,-z
x,-y,1/2+z
1/2+x,1/2+y,z
1/2-x,1/2+y,1/2-z
1/2-x,1/2-y,-z
1/2+x,1/2-y,1/2+z
loop_
_atom_site_type_symbol
_atom_site_label
_atom_site_fract_x
_atom_site_fract_y
_atom_site_fract_z
Si Si1 0.088288 0.627841 0.844479
Si Si2 0.371869 0.322937 0.411088
Si Si3 0.633455 0.198610 0.494433
Si Si4 0.912908 0.275712 0.780487
Si Si5 0.750000 0.250000 0.500000
Si Si6 0.500000 0.526679 0.250000
Si Si7 0.218848 0.874921 0.734771
Si Si8 0.322784 0.437896 0.647494
O O1 0.084880 0.561288 0.755047
O O2 0.142562 0.778791 0.886392
O O3 0.037805 0.795068 0.824601
O O4 0.095047 0.383214 0.902241
O O5 0.389403 0.547852 0.479365
O O6 0.406756 0.258410 0.362957
O O7 0.320982 0.469645 0.343713
O O8 0.363670 0.051153 0.448581
O O9 0.690339 0.247100 0.498205
O O10 0.962602 0.138517 0.777670
O O11 0.860826 0.152826 0.708964
O O12 0.727660 0.450710 0.424045
O O13 0.243308 0.614470 0.717268
O O14 0.194185 0.768055 0.793735
#
# Coordination Sequence:
#
# PCOD9293993 Si02
#       8
#     8   8   8   8   4   4   8   8
#     4  11  24  46  75 104 140 189 249 304 367 452
#     4  11  26  44  68 104 150 194 235 310 374 418
#     4  12  27  45  70 107 153 195 242 301 364 436
#     4  10  23  46  73 103 141 185 248 301 366 446
#     4  12  22  44  66 104 152 202 240 294 356 440
#     4  10  24  46  82 106 130 190 248 310 374 458
#     4  11  23  38  61  94 138 190 249 290 344 424
#     4  10  23  37  67  97 141 191 245 289 352 427
#
# _framework density 23.392378999999998
#
# number of rings (size 3 to 8) (size 9 to 14) (size 15 to 20)
#    0.000    1.143    1.429    3.857   12.000    3.429 
#    0.000    1.429    0.000    0.000    0.000    0.000 
#    0.000    0.000    0.000    0.000    0.000    0.000 
#
# Total GULP energy -155997.300145 kJ/mol
# GULP energy per Si atom -5571.332148 kJ/mol
# Density = 2.333914 g / cm^3
# Si number density = 23.392379 Si / 1000 Ang^3
#
#
#
# Elastic Constant Matrix: (Units=GPa)
#
#
# Indices 1 2 3 4 5 6 
#
# 1 104.0867 37.2508 36.1936 -0.0001 -2.5042 0.0001
# 2 37.2508 92.1268 31.0556 -0.0013 -10.3491 -0.0007
# 3 36.1936 31.0556 85.6534 -0.0003 -20.4852 0.0000
# 4 -0.0001 -0.0013 -0.0003 38.1070 0.0000 -6.6378
# 5 -2.5042 -10.3491 -20.4852 0.0000 25.7772 0.0000
# 6 0.0001 -0.0007 0.0000 -6.6378 0.0000 14.7856
#
#
#
# Elastic Compliance Matrix: (Units=1/GPa)
#
#
# Indices 1 2 3 4 5 6 
#
# 1 0.012623 -0.003921 -0.004933 0.000000 -0.004268 0.000000
# 2 -0.003921 0.013647 -0.002558 0.000001 0.003065 0.000001
# 3 -0.004933 -0.002558 0.017689 0.000000 0.012551 0.000000
# 4 0.000000 0.000001 0.000000 0.028468 0.000000 0.012780
# 5 -0.004268 0.003065 0.012551 0.000000 0.049584 0.000000
# 6 0.000000 0.000001 0.000000 0.012780 0.000000 0.073371
#
#
# Mechanical properties :
#
#
# Convention : Reuss Voigt Hill
#
# Bulk Modulus (GPa) = 47.31618 54.54077 50.92847
# Shear Modulus (GPa) = 22.19746 27.55841 24.87794
#
# Velocity S-wave (km/s) = 3.08379 3.43606 3.26468
# Velocity P-wave (km/s) = 5.74028 6.25366 6.00246
#
# Compressibility (1/GPa) = 0.02113442
#
# Stress axis : x y z
#
# Youngs Moduli (GPa) = 79.21887 73.27880 56.53262
#
# Poissons Ratio (x) = 0.28729 0.27890
# Poissons Ratio (y) = 0.31058 0.14462
# Poissons Ratio (z) = 0.39082 0.18746
#
# Static dielectric constant tensor:
#      x y z
#    x 1.883280 0.000000 -0.008420 
#    y 0.000000 1.924780 0.000000 
#    z -0.008420 0.000000 1.924380 
# 
# From -- ./inp_files/221320.got.cif
#   From: 2010.05.17/outbox.cif.g08.bks.cpg/sg15_111_cif.got.tgz:221320.got - 2010.06.03 18:47:42.
