data_PCOD9293095
_publ_section_title
;
Structure prediction by ZEFSAII (Michael W. Deem and Ramdas Pophale) SiO2 
 PCOD9293095
Probable space group: C 2/C
;
_chemical_formula_sum "Si O2"
_cell_formula_units_Z 64
_cell_length_a 12.103439
_cell_length_b 7.550774
_cell_length_c 31.552073
_cell_angle_alpha 90.000000
_cell_angle_beta 97.745110
_cell_angle_gamma 90.000000
_cell_volume 2857.248937
_symmetry_space_group_name_H-M "C 2/C"
_symmetry_group_IT_number 15
_symmetry_cell_setting 'monoclinic'
loop_
_space_group_symop_operation_xyz
x,y,z
-x,y,1/2-z
-x,-y,-z
x,-y,1/2+z
1/2+x,1/2+y,z
1/2-x,1/2+y,1/2-z
1/2-x,1/2-y,-z
1/2+x,1/2-y,1/2+z
loop_
_atom_site_type_symbol
_atom_site_label
_atom_site_fract_x
_atom_site_fract_y
_atom_site_fract_z
Si Si1 0.243387 0.568948 0.745612
Si Si2 0.339360 0.136954 0.190017
Si Si3 0.597345 0.241847 0.196095
Si Si4 0.099712 0.323460 0.955015
Si Si5 0.635535 0.855886 0.603833
Si Si6 0.230354 0.744020 0.599081
Si Si7 0.809296 0.709661 0.547631
Si Si8 0.039549 0.148902 0.035002
O O1 0.259384 0.728157 0.712757
O O2 0.170753 0.550441 0.785585
O O3 0.364737 0.585284 0.775225
O O4 0.184508 0.411493 0.716168
O O5 0.468747 0.194090 0.198106
O O6 0.295612 0.157464 0.140162
O O7 0.615125 0.243610 0.146915
O O8 0.178625 0.191134 0.932483
O O9 0.163250 0.504485 0.950930
O O10 0.977492 0.336179 0.928987
O O11 0.087355 0.292677 0.004288
O O12 0.733947 0.770849 0.582016
O O13 0.668270 0.063753 0.610811
O O14 0.136363 0.870908 0.573981
O O15 0.750000 0.750000 0.500000
O O16 0.929710 0.798304 0.553814
O O17 0.000000 0.000000 0.000000
#
# Coordination Sequence:
#
# PCOD9293095 Si02
#       8
#     8   8   8   8   8   8   8   8
#     4  10  22  44  72  99 130 177 220 279 352 424
#     4  11  24  46  72 101 145 178 230 288 354 420
#     4  11  24  46  72 102 139 179 226 287 353 420
#     4  12  25  46  72  96 144 192 229 298 352 410
#     4  12  25  45  71 103 141 184 238 290 355 423
#     4  12  25  45  70 104 143 187 240 294 351 422
#     4  12  24  43  69  99 140 188 239 288 350 409
#     4  12  25  45  70 105 145 190 246 295 350 416
#
# _framework density 22.399169000000001
#
# number of rings (size 3 to 8) (size 9 to 14) (size 15 to 20)
#    0.000    0.500    5.000    4.500    1.750    0.000 
#    2.250   10.000    0.000    0.000    0.000    0.000 
#    0.000    0.000    0.000    0.000    0.000    0.000 
#
# Total GULP energy -178532.384048 kJ/mol
# GULP energy per Si atom -5579.137002 kJ/mol
# Density = 2.234819 g / cm^3
# Si number density = 22.399169 Si / 1000 Ang^3
#
#
#
# Elastic Constant Matrix: (Units=GPa)
#
#
# Indices 1 2 3 4 5 6 
#
# 1 171.0950 37.8726 66.8490 0.0000 1.5990 0.0000
# 2 37.8726 62.7372 19.4414 0.0000 -1.0243 0.0000
# 3 66.8490 19.4414 126.6980 0.0000 18.1057 0.0000
# 4 0.0000 0.0000 0.0000 27.5276 0.0000 -2.3776
# 5 1.5990 -1.0243 18.1057 0.0000 40.4783 0.0000
# 6 0.0000 0.0000 0.0000 -2.3776 0.0000 32.9507
#
#
#
# Elastic Compliance Matrix: (Units=1/GPa)
#
#
# Indices 1 2 3 4 5 6 
#
# 1 0.008194 -0.003701 -0.003948 0.000000 0.001349 0.000000
# 2 -0.003701 0.018514 -0.001043 0.000000 0.001081 0.000000
# 3 -0.003948 -0.001043 0.010808 0.000000 -0.004705 0.000000
# 4 0.000000 0.000000 0.000000 0.036555 0.000000 0.002638
# 5 0.001349 0.001081 -0.004705 0.000000 0.026783 0.000000
# 6 0.000000 0.000000 0.000000 0.002638 0.000000 0.030539
#
#
# Mechanical properties :
#
#
# Convention : Reuss Voigt Hill
#
# Bulk Modulus (GPa) = 49.66984 67.65069 58.66026
# Shear Modulus (GPa) = 32.15679 35.94914 34.05296
#
# Velocity S-wave (km/s) = 3.79307 4.01051 3.90330
# Velocity P-wave (km/s) = 6.43477 7.19121 6.82348
#
# Compressibility (1/GPa) = 0.02013294
#
# Stress axis : x y z
#
# Youngs Moduli (GPa) = 122.04192 54.01186 92.52167
#
# Poissons Ratio (x) = 0.19989 0.36529
# Poissons Ratio (y) = 0.45167 0.09648
# Poissons Ratio (z) = 0.48184 0.05632
#
# Static dielectric constant tensor:
#      x y z
#    x 1.830630 0.000000 -0.049390 
#    y 0.000000 1.978300 0.000000 
#    z -0.049390 0.000000 1.903840 
# 
# From -- ./inp_files/310318.got.cif
#   From: 2010.05.17/outbox.cif.g08.bks.cpg/sg15_156_cif.got.tgz:310318.got - 2010.06.03 18:47:42.
