data_PCOD9293711
_publ_section_title
;
Structure prediction by ZEFSAII (Michael W. Deem and Ramdas Pophale) SiO2 
 PCOD9293711
Probable space group: C 2/C
;
_chemical_formula_sum "Si O2"
_cell_formula_units_Z 24
_cell_length_a 8.446570
_cell_length_b 9.743452
_cell_length_c 21.083188
_cell_angle_alpha 90.000000
_cell_angle_beta 27.357664
_cell_angle_gamma 90.000000
_cell_volume 797.363380
_symmetry_space_group_name_H-M "C 2/C"
_symmetry_group_IT_number 15
_symmetry_cell_setting 'monoclinic'
loop_
_space_group_symop_operation_xyz
x,y,z
-x,y,1/2-z
-x,-y,-z
x,-y,1/2+z
1/2+x,1/2+y,z
1/2-x,1/2+y,1/2-z
1/2-x,1/2-y,-z
1/2+x,1/2-y,1/2+z
loop_
_atom_site_type_symbol
_atom_site_label
_atom_site_fract_x
_atom_site_fract_y
_atom_site_fract_z
Si Si1 0.694188 0.789612 0.092367
Si Si2 0.348245 0.064042 0.237947
Si Si3 0.794378 0.886577 0.392025
O O1 0.625379 0.951159 0.116659
O O2 0.357091 0.687555 0.226061
O O3 0.750000 0.750000 0.000000
O O4 0.063419 0.746066 0.990379
O O5 0.500000 0.115857 0.250000
O O6 0.053754 0.948021 0.350670
O O7 0.000000 0.892237 0.250000
O O8 0.500000 0.000000 0.500000
#
# Coordination Sequence:
#
# PCOD9293711 Si02
#       3
#     8   8   8
#     4  11  25  49  77 107 157 200 255 320 386 460
#     4  11  27  48  77 114 147 204 261 317 386 464
#     4  10  22  46  75 106 154 201 249 316 384 448
#
# _framework density 30.099198999999999
#
# number of rings (size 3 to 8) (size 9 to 14) (size 15 to 20)
#    0.000    1.333    3.333    0.000    4.667    8.000 
#    0.000    0.000    0.000    0.000    0.000    0.000 
#    0.000    0.000    0.000    0.000    0.000    0.000 
#
# Total GULP energy -66865.325981 kJ/mol
# GULP energy per Si atom -5572.110498 kJ/mol
# Density = 3.003069 g / cm^3
# Si number density = 30.099199 Si / 1000 Ang^3
#
#
#
# Elastic Constant Matrix: (Units=GPa)
#
#
# Indices 1 2 3 4 5 6 
#
# 1 91.2714 -2.2865 56.6143 -0.0198 -14.3310 0.0068
# 2 -2.2865 260.8844 90.2504 -0.0264 21.3560 0.0113
# 3 56.6143 90.2504 187.6288 -0.0576 -1.7120 0.0166
# 4 -0.0198 -0.0264 -0.0576 85.0753 0.0149 8.1816
# 5 -14.3310 21.3560 -1.7120 0.0149 52.8340 -0.0180
# 6 0.0068 0.0113 0.0166 8.1816 -0.0180 8.6648
#
#
#
# Elastic Compliance Matrix: (Units=1/GPa)
#
#
# Indices 1 2 3 4 5 6 
#
# 1 0.014733 0.001679 -0.005224 0.000000 0.003149 0.000003
# 2 0.001679 0.004995 -0.002924 0.000001 -0.001659 -0.000007
# 3 -0.005224 -0.002924 0.008313 0.000005 0.000034 -0.000012
# 4 0.000000 0.000001 0.000005 0.012928 -0.000008 -0.012207
# 5 0.003149 -0.001659 0.000034 -0.000008 0.020453 0.000050
# 6 0.000003 -0.000007 -0.000012 -0.012207 0.000050 0.126936
#
#
# Mechanical properties :
#
#
# Convention : Reuss Voigt Hill
#
# Bulk Modulus (GPa) = 66.21835 92.10455 79.16145
# Shear Modulus (GPa) = 24.23277 55.66191 39.94734
#
# Velocity S-wave (km/s) = 2.84050 4.30499 3.64701
# Velocity P-wave (km/s) = 5.72763 7.44160 6.64015
#
# Compressibility (1/GPa) = 0.01510155
#
# Stress axis : x y z
#
# Youngs Moduli (GPa) = 67.87340 200.18946 120.29353
#
# Poissons Ratio (x) = -0.33606 0.62845
# Poissons Ratio (y) = -0.11394 0.35179
# Poissons Ratio (z) = 0.35459 0.58543
#
# Static dielectric constant tensor:
#      x y z
#    x 2.384130 0.000020 -0.039530 
#    y 0.000020 2.481450 -0.000030 
#    z -0.039530 -0.000030 2.643680 
# 
# From -- ./inp_files/27056.got.cif
#   From: 2010.05.17/outbox.cif.g08.bks.cpg/sg15_14_cif.got.tgz:27056.got - 2010.06.03 18:47:42.
