data_PCOD9293406
_publ_section_title
;
Structure prediction by ZEFSAII (Michael W. Deem and Ramdas Pophale) SiO2 
 PCOD9293406
Probable space group: C 2/C
;
_chemical_formula_sum "Si O2"
_cell_formula_units_Z 36
_cell_length_a 6.764041
_cell_length_b 22.766951
_cell_length_c 11.923495
_cell_angle_alpha 90.000000
_cell_angle_beta 125.373638
_cell_angle_gamma 90.000000
_cell_volume 1497.208613
_symmetry_space_group_name_H-M "C 2/C"
_symmetry_group_IT_number 15
_symmetry_cell_setting 'monoclinic'
loop_
_space_group_symop_operation_xyz
x,y,z
-x,y,1/2-z
-x,-y,-z
x,-y,1/2+z
1/2+x,1/2+y,z
1/2-x,1/2+y,1/2-z
1/2-x,1/2-y,-z
1/2+x,1/2-y,1/2+z
loop_
_atom_site_type_symbol
_atom_site_label
_atom_site_fract_x
_atom_site_fract_y
_atom_site_fract_z
Si Si1 0.258665 0.953358 0.779876
Si Si2 0.968494 0.369149 0.038158
Si Si3 0.000000 0.438143 0.250000
Si Si4 0.000000 0.635524 0.250000
Si Si5 0.712733 0.233106 0.154287
Si Si6 0.500000 0.674078 0.750000
O O1 0.344980 0.017658 0.775358
O O2 0.282903 0.913446 0.675430
O O3 0.000000 0.954867 0.750000
O O4 0.415124 0.916236 0.922246
O O5 0.864448 0.396264 0.118133
O O6 0.864966 0.303328 0.982464
O O7 0.256305 0.361134 0.144687
O O8 0.134187 0.681700 0.214425
O O9 0.563744 0.287070 0.159115
O O10 0.000000 0.243463 0.250000
#
# Coordination Sequence:
#
# PCOD9293406 Si02
#       6
#     8   8   4   4   8   4
#     4  10  22  45  72  99 134 179 226 279 337 397
#     4  11  24  47  67 101 141 174 225 279 335 408
#     4  11  26  45  66 106 134 181 226 273 346 392
#     4   8  16  36  66 102 122 166 220 262 336 386
#     4  10  22  45  73  99 133 179 227 279 337 396
#     4  11  26  45  66 104 138 177 224 275 344 402
#
# _framework density 24.044747000000001
#
# number of rings (size 3 to 8) (size 9 to 14) (size 15 to 20)
#    0.000    1.778    0.000    4.000    3.111    1.778 
#   24.000    0.000    0.000    0.000    0.000    0.000 
#    0.000    0.000    0.000    0.000    0.000    0.000 
#
# Total GULP energy -100228.105003 kJ/mol
# GULP energy per Si atom -5568.228056 kJ/mol
# Density = 2.399002 g / cm^3
# Si number density = 24.044747 Si / 1000 Ang^3
#
#
#
# Elastic Constant Matrix: (Units=GPa)
#
#
# Indices 1 2 3 4 5 6 
#
# 1 126.6870 65.7185 39.5973 0.0000 10.1452 0.0000
# 2 65.7185 130.5994 48.5909 0.0000 1.1584 0.0000
# 3 39.5973 48.5909 92.9025 0.0000 6.4906 0.0000
# 4 0.0000 0.0000 0.0000 -893.1933 0.0000 -461.8637
# 5 10.1452 1.1584 6.4906 0.0000 40.2945 0.0000
# 6 0.0000 0.0000 0.0000 -461.8637 0.0000 -175.1466
#
#
#
# Elastic Compliance Matrix: (Units=1/GPa)
#
#
# Indices 1 2 3 4 5 6 
#
# 1 0.011261 -0.004868 -0.002088 0.000000 -0.002359 0.000000
# 2 -0.004868 0.011623 -0.004113 0.000000 0.001554 0.000000
# 3 -0.002088 -0.004113 0.013917 0.000000 -0.001598 0.000000
# 4 0.000000 0.000000 0.000000 0.003079 0.000000 -0.008120
# 5 -0.002359 0.001554 -0.001598 0.000000 0.025624 0.000000
# 6 0.000000 0.000000 0.000000 -0.008120 0.000000 0.015704
#
#
# Mechanical properties :
#
#
# Convention : Reuss Voigt Hill
#
# Bulk Modulus (GPa) = 68.20663 73.11138 70.65900
# Shear Modulus (GPa) = 46.19615 -192.52359 -73.16372
#
# Velocity S-wave (km/s) = 4.38797 -8.95783 -5.52216
# Velocity P-wave (km/s) = 7.35530 8.74745 3.34794
#
# Compressibility (1/GPa) = 0.01466133
#
# Stress axis : x y z
#
# Youngs Moduli (GPa) = 88.80502 86.03402 71.85519
#
# Poissons Ratio (x) = 0.41886 0.15006
# Poissons Ratio (y) = 0.43235 0.29553
# Poissons Ratio (z) = 0.18546 0.35385
#
# Static dielectric constant tensor:
#      x y z
#    x 2.001760 0.000000 -0.182620 
#    y 0.000000 1.929100 0.000000 
#    z -0.182620 0.000000 2.133950 
# 
# From -- ./inp_files/129253.got.cif
#   From: 2010.05.17/outbox.cif.g08.bks.cpg/sg15_65_cif.got.tgz:129253.got - 2010.06.03 18:47:42.
