data_PCOD9293313
_publ_section_title
;
Structure prediction by ZEFSAII (Michael W. Deem and Ramdas Pophale) SiO2 
 PCOD9293313
Probable space group: C 2/C
;
_chemical_formula_sum "Si O2"
_cell_formula_units_Z 44
_cell_length_a 20.986220
_cell_length_b 17.811371
_cell_length_c 13.425510
_cell_angle_alpha 90.000000
_cell_angle_beta 24.444799
_cell_angle_gamma 90.000000
_cell_volume 2076.682091
_symmetry_space_group_name_H-M "C 2/C"
_symmetry_group_IT_number 15
_symmetry_cell_setting 'monoclinic'
loop_
_space_group_symop_operation_xyz
x,y,z
-x,y,1/2-z
-x,-y,-z
x,-y,1/2+z
1/2+x,1/2+y,z
1/2-x,1/2+y,1/2-z
1/2-x,1/2-y,-z
1/2+x,1/2-y,1/2+z
loop_
_atom_site_type_symbol
_atom_site_label
_atom_site_fract_x
_atom_site_fract_y
_atom_site_fract_z
Si Si1 0.765171 0.172756 0.208925
Si Si2 0.456097 0.912012 0.076163
Si Si3 0.500000 0.575225 0.750000
Si Si4 0.827402 0.386790 0.465442
Si Si5 0.148809 0.029598 0.728142
Si Si6 0.158489 0.338982 0.462845
O O1 0.611031 0.132758 0.386695
O O2 0.773049 0.165167 0.318388
O O3 0.775750 0.257897 0.158658
O O4 0.902625 0.126579 0.963085
O O5 0.333537 0.891140 0.337703
O O6 0.388657 0.882861 0.069349
O O7 0.500000 0.000000 0.000000
O O8 0.607555 0.527760 0.670111
O O9 0.783704 0.470958 0.560282
O O10 0.000000 0.367949 0.250000
O O11 0.213832 0.111159 0.662505
O O12 0.000000 0.000000 0.000000
O O13 0.000000 0.330563 0.750000
#
# Coordination Sequence:
#
# PCOD9293313 Si02
#       6
#     8   8   4   8   8   8
#     4  11  24  42  69 101 138 182 229 294 345 416
#     4  11  24  44  73  97 138 188 240 280 350 424
#     4  12  24  42  66  98 146 172 224 294 352 404
#     4  10  22  45  69  97 138 184 234 284 345 422
#     4  12  26  42  69 103 139 177 235 291 352 413
#     4  12  26  44  71 102 138 187 236 285 359 424
#
# _framework density 21.187643000000001
#
# number of rings (size 3 to 8) (size 9 to 14) (size 15 to 20)
#    0.000    0.727    2.727    6.000    5.091    2.182 
#    0.000    3.636    0.000    0.000    0.000    0.000 
#    0.000    0.000    0.000    0.000    0.000    0.000 
#
# Total GULP energy -122888.254222 kJ/mol
# GULP energy per Si atom -5585.829737 kJ/mol
# Density = 2.113942 g / cm^3
# Si number density = 21.187643 Si / 1000 Ang^3
#
#
#
# Elastic Constant Matrix: (Units=GPa)
#
#
# Indices 1 2 3 4 5 6 
#
# 1 119.0465 34.4744 33.1501 -0.0006 23.7473 0.0002
# 2 34.4744 121.0887 40.6375 -0.0006 6.1272 0.0005
# 3 33.1501 40.6375 118.8553 -0.0008 29.3780 0.0007
# 4 -0.0006 -0.0006 -0.0008 27.1910 0.0004 -2.7989
# 5 23.7473 6.1272 29.3780 0.0004 38.1319 -0.0002
# 6 0.0002 0.0005 0.0007 -2.7989 -0.0002 15.1228
#
#
#
# Elastic Compliance Matrix: (Units=1/GPa)
#
#
# Indices 1 2 3 4 5 6 
#
# 1 0.010411 -0.002450 -0.000693 0.000000 -0.005556 0.000000
# 2 -0.002450 0.009949 -0.003335 0.000000 0.002497 0.000000
# 3 -0.000693 -0.003335 0.011745 0.000000 -0.008081 0.000000
# 4 0.000000 0.000000 0.000000 0.037491 -0.000001 0.006939
# 5 -0.005556 0.002497 -0.008081 -0.000001 0.035510 0.000001
# 6 0.000000 0.000000 0.000000 0.006939 0.000001 0.067410
#
#
# Mechanical properties :
#
#
# Convention : Reuss Voigt Hill
#
# Bulk Modulus (GPa) = 52.22535 63.94604 58.08570
# Shear Modulus (GPa) = 26.06139 32.80437 29.43288
#
# Velocity S-wave (km/s) = 3.51098 3.93909 3.73118
# Velocity P-wave (km/s) = 6.41393 7.13687 6.78503
#
# Compressibility (1/GPa) = 0.01914779
#
# Stress axis : x y z
#
# Youngs Moduli (GPa) = 96.05315 100.51185 85.14536
#
# Poissons Ratio (x) = 0.24630 0.05896
# Poissons Ratio (y) = 0.23537 0.28400
# Poissons Ratio (z) = 0.06652 0.33525
#
# Static dielectric constant tensor:
#      x y z
#    x 1.804960 0.000000 0.028480 
#    y 0.000000 1.729020 0.000000 
#    z 0.028480 0.000000 1.809870 
# 
# From -- ./inp_files/174186.got.cif
#   From: 2010.05.17/outbox.cif.g08.bks.cpg/sg15_88_cif.got.tgz:174186.got - 2010.06.03 18:47:42.
