data_PCOD9293785
_publ_section_title
;
Structure prediction by ZEFSAII (Michael W. Deem and Ramdas Pophale) SiO2 
 PCOD9293785
Probable space group: C 2/C
;
_chemical_formula_sum "Si O2"
_cell_formula_units_Z 60
_cell_length_a 22.486209
_cell_length_b 8.927942
_cell_length_c 14.701861
_cell_angle_alpha 90.000000
_cell_angle_beta 109.406340
_cell_angle_gamma 90.000000
_cell_volume 2783.794766
_symmetry_space_group_name_H-M "C 2/C"
_symmetry_group_IT_number 15
_symmetry_cell_setting 'monoclinic'
loop_
_space_group_symop_operation_xyz
x,y,z
-x,y,1/2-z
-x,-y,-z
x,-y,1/2+z
1/2+x,1/2+y,z
1/2-x,1/2+y,1/2-z
1/2-x,1/2-y,-z
1/2+x,1/2-y,1/2+z
loop_
_atom_site_type_symbol
_atom_site_label
_atom_site_fract_x
_atom_site_fract_y
_atom_site_fract_z
Si Si1 0.116868 0.376563 0.244900
Si Si2 0.227054 0.184826 0.392121
Si Si3 0.583128 0.420045 0.187988
Si Si4 0.244821 0.171991 0.900676
Si Si5 0.447846 0.641072 0.622374
Si Si6 0.169824 0.321852 0.709608
Si Si7 0.500000 0.927169 0.750000
Si Si8 0.372569 0.679968 0.401993
O O1 0.161377 0.265116 0.327531
O O2 0.162196 0.504999 0.227165
O O3 0.059739 0.466067 0.261704
O O4 0.087900 0.285898 0.145237
O O5 0.250000 0.250000 0.500000
O O6 0.279802 0.215685 0.341835
O O7 0.230192 0.003892 0.400799
O O8 0.579931 0.422614 0.296695
O O9 0.510458 0.450412 0.126312
O O10 0.602986 0.257380 0.159847
O O11 0.631049 0.530503 0.161035
O O12 0.190871 0.245672 0.813594
O O13 0.308378 0.229458 0.883979
O O14 0.250000 0.250000 0.000000
O O15 0.473271 0.807640 0.661778
O O16 0.401037 0.645916 0.514503
#
# Coordination Sequence:
#
# PCOD9293785 Si02
#       8
#     8   8   8   8   8   8   4   8
#     4  12  25  47  73 105 148 194 250 310 372 443
#     4  12  27  45  70 108 145 186 248 302 373 451
#     4  10  23  44  72 102 142 194 247 301 366 447
#     4  12  27  43  70 104 141 192 235 306 381 442
#     4  10  22  47  72 101 150 199 250 301 384 433
#     4  12  22  47  70  99 146 187 238 304 371 442
#     4  10  24  46  72 108 148 206 240 316 376 450
#     4  12  25  42  72 107 143 193 254 307 374 448
#
# _framework density 21.553314
#
# number of rings (size 3 to 8) (size 9 to 14) (size 15 to 20)
#    0.000    0.800    5.333    2.800    5.600    1.600 
#    2.400    0.000    0.000    0.000    0.000    0.000 
#    0.000    0.000    0.000    0.000    0.000    0.000 
#
# Total GULP energy -167358.478111 kJ/mol
# GULP energy per Si atom -5578.615937 kJ/mol
# Density = 2.150426 g / cm^3
# Si number density = 21.553314 Si / 1000 Ang^3
#
#
#
# Elastic Constant Matrix: (Units=GPa)
#
#
# Indices 1 2 3 4 5 6 
#
# 1 111.5038 42.7330 35.9948 0.0000 -3.9308 0.0000
# 2 42.7330 138.3030 37.8621 0.0000 -7.2276 0.0000
# 3 35.9948 37.8621 95.7896 0.0000 0.7551 0.0000
# 4 0.0000 0.0000 0.0000 32.0046 0.0000 -1.1438
# 5 -3.9308 -7.2276 0.7551 0.0000 22.4285 0.0000
# 6 0.0000 0.0000 0.0000 -1.1438 0.0000 30.9576
#
#
#
# Elastic Compliance Matrix: (Units=1/GPa)
#
#
# Indices 1 2 3 4 5 6 
#
# 1 0.010976 -0.002461 -0.003161 0.000000 0.001237 0.000000
# 2 -0.002461 0.008829 -0.002585 0.000000 0.002501 0.000000
# 3 -0.003161 -0.002585 0.012663 0.000000 -0.001813 0.000000
# 4 0.000000 0.000000 0.000000 0.031287 0.000000 0.001156
# 5 0.001237 0.002501 -0.001813 0.000000 0.045670 0.000000
# 6 0.000000 0.000000 0.000000 0.001156 0.000000 0.032345
#
#
# Mechanical properties :
#
#
# Convention : Reuss Voigt Hill
#
# Bulk Modulus (GPa) = 62.29009 64.30846 63.29928
# Shear Modulus (GPa) = 30.57438 32.34525 31.45982
#
# Velocity S-wave (km/s) = 3.77045 3.87810 3.82465
# Velocity P-wave (km/s) = 6.92230 7.06786 6.99546
#
# Compressibility (1/GPa) = 0.01605392
#
# Stress axis : x y z
#
# Youngs Moduli (GPa) = 91.11097 113.25964 78.96770
#
# Poissons Ratio (x) = 0.27875 0.24964
# Poissons Ratio (y) = 0.22424 0.20411
# Poissons Ratio (z) = 0.28802 0.29275
#
# Static dielectric constant tensor:
#      x y z
#    x 1.872150 0.000000 0.004300 
#    y 0.000000 1.765250 0.000000 
#    z 0.004300 0.000000 1.754310 
# 
# From -- ./inp_files/172424.got.cif
#   From: 2010.05.17/outbox.cif.g08.bks.cpg/sg15_87_cif.got.tgz:172424.got - 2010.06.03 18:47:42.
