data_PCOD9293625
_publ_section_title
;
Structure prediction by ZEFSAII (Michael W. Deem and Ramdas Pophale) SiO2 
 PCOD9293625
Probable space group: C 2/C
;
_chemical_formula_sum "Si O2"
_cell_formula_units_Z 36
_cell_length_a 7.792803
_cell_length_b 16.930769
_cell_length_c 16.344517
_cell_angle_alpha 90.000000
_cell_angle_beta 126.422991
_cell_angle_gamma 90.000000
_cell_volume 1735.211901
_symmetry_space_group_name_H-M "C 2/C"
_symmetry_group_IT_number 15
_symmetry_cell_setting 'monoclinic'
loop_
_space_group_symop_operation_xyz
x,y,z
-x,y,1/2-z
-x,-y,-z
x,-y,1/2+z
1/2+x,1/2+y,z
1/2-x,1/2+y,1/2-z
1/2-x,1/2-y,-z
1/2+x,1/2-y,1/2+z
loop_
_atom_site_type_symbol
_atom_site_label
_atom_site_fract_x
_atom_site_fract_y
_atom_site_fract_z
Si Si1 0.401613 0.523530 0.382582
Si Si2 0.000000 0.358806 0.750000
Si Si3 0.993842 0.724515 0.077706
Si Si4 0.795965 0.368767 0.147671
Si Si5 0.356764 0.074770 0.482506
O O1 0.500000 0.500000 0.500000
O O2 0.303511 0.440106 0.326943
O O3 0.607542 0.556135 0.393431
O O4 0.207028 0.585887 0.327685
O O5 0.960285 0.303774 0.817020
O O6 0.127869 0.800097 0.088131
O O7 0.055868 0.650073 0.040252
O O8 0.750000 0.750000 0.000000
O O9 0.000000 0.334472 0.250000
O O10 0.866424 0.405774 0.081459
O O11 0.500000 0.000000 0.500000
#
# Coordination Sequence:
#
# PCOD9293625 Si02
#       5
#     8   4   8   8   8
#     4  10  22  46  71 100 138 183 242 299 346 434
#     4  12  26  46  74 104 140 202 238 292 376 430
#     4  12  27  45  69 105 148 187 240 301 361 436
#     4  11  24  43  70 101 142 179 233 298 366 425
#     4  11  24  45  74 102 139 187 236 300 358 425
#
# _framework density 20.746746000000002
#
# number of rings (size 3 to 8) (size 9 to 14) (size 15 to 20)
#    0.000    0.889    1.111    7.333    6.222    0.000 
#    0.000    0.000    0.000    0.000    0.000    0.000 
#    0.000    0.000    0.000    0.000    0.000    0.000 
#
# Total GULP energy -100611.594641 kJ/mol
# GULP energy per Si atom -5589.533036 kJ/mol
# Density = 2.069953 g / cm^3
# Si number density = 20.746746 Si / 1000 Ang^3
#
#
#
# Elastic Constant Matrix: (Units=GPa)
#
#
# Indices 1 2 3 4 5 6 
#
# 1 142.8510 72.3702 49.2196 0.0000 19.2801 0.0000
# 2 72.3702 123.1462 18.2295 0.0000 -4.9262 0.0000
# 3 49.2196 18.2295 82.0293 0.0000 10.3090 0.0000
# 4 0.0000 0.0000 0.0000 34.7297 0.0000 -23.3889
# 5 19.2801 -4.9262 10.3090 0.0000 30.3720 0.0000
# 6 0.0000 0.0000 0.0000 -23.3889 0.0000 -94.0793
#
#
#
# Elastic Compliance Matrix: (Units=1/GPa)
#
#
# Indices 1 2 3 4 5 6 
#
# 1 0.013936 -0.007685 -0.005626 0.000000 -0.008184 0.000000
# 2 -0.007685 0.012762 0.000942 0.000000 0.006629 0.000000
# 3 -0.005626 0.000942 0.015553 0.000000 -0.001555 0.000000
# 4 0.000000 0.000000 0.000000 0.024664 0.000000 -0.006132
# 5 -0.008184 0.006629 -0.001555 0.000000 0.039723 0.000000
# 6 0.000000 0.000000 0.000000 -0.006132 0.000000 -0.009105
#
#
# Mechanical properties :
#
#
# Convention : Reuss Voigt Hill
#
# Bulk Modulus (GPa) = 57.09845 69.74055 63.41950
# Shear Modulus (GPa) = 39.02926 8.08498 23.55712
#
# Velocity S-wave (km/s) = 4.34201 1.97622 3.37332
# Velocity P-wave (km/s) = 7.26077 6.23662 6.76810
#
# Compressibility (1/GPa) = 0.01751361
#
# Stress axis : x y z
#
# Youngs Moduli (GPa) = 71.75463 78.35603 64.29801
#
# Poissons Ratio (x) = 0.60214 0.36174
# Poissons Ratio (y) = 0.55141 -0.06055
# Poissons Ratio (z) = 0.40369 -0.07379
#
# Static dielectric constant tensor:
#      x y z
#    x 1.762170 0.000000 -0.031220 
#    y 0.000000 1.718620 0.000000 
#    z -0.031220 0.000000 1.769160 
# 
# From -- ./inp_files/132922.got.cif
#   From: 2010.05.17/outbox.cif.g08.bks.cpg/sg15_67_cif.got.tgz:132922.got - 2010.06.03 18:47:42.
