data_PCOD9293885
_publ_section_title
;
Structure prediction by ZEFSAII (Michael W. Deem and Ramdas Pophale) SiO2 
 PCOD9293885
Probable space group: C 2/C
;
_chemical_formula_sum "Si O2"
_cell_formula_units_Z 36
_cell_length_a 17.272249
_cell_length_b 10.131208
_cell_length_c 14.390073
_cell_angle_alpha 90.000000
_cell_angle_beta 143.678999
_cell_angle_gamma 90.000000
_cell_volume 1491.492639
_symmetry_space_group_name_H-M "C 2/C"
_symmetry_group_IT_number 15
_symmetry_cell_setting 'monoclinic'
loop_
_space_group_symop_operation_xyz
x,y,z
-x,y,1/2-z
-x,-y,-z
x,-y,1/2+z
1/2+x,1/2+y,z
1/2-x,1/2+y,1/2-z
1/2-x,1/2-y,-z
1/2+x,1/2-y,1/2+z
loop_
_atom_site_type_symbol
_atom_site_label
_atom_site_fract_x
_atom_site_fract_y
_atom_site_fract_z
Si Si1 0.637111 0.944812 0.934595
Si Si2 0.483197 0.357415 0.629900
Si Si3 0.500000 0.378974 0.250000
Si Si4 0.230254 0.318952 0.656719
Si Si5 0.779800 0.705580 0.142122
O O1 0.500000 0.967922 0.750000
O O2 0.733729 0.917557 0.940955
O O3 0.662740 0.813048 0.022701
O O4 0.680840 0.064861 0.041035
O O5 0.500000 0.298136 0.750000
O O6 0.485119 0.513343 0.651404
O O7 0.613356 0.313614 0.701521
O O8 0.351244 0.307835 0.455302
O O9 0.399909 0.281455 0.208057
O O10 0.196236 0.339761 0.731323
#
# Coordination Sequence:
#
# PCOD9293885 Si02
#       5
#     8   8   4   8   8
#     4  11  25  50  76 109 156 206 255 328 387 463
#     4  10  24  47  76 109 163 200 260 326 395 459
#     4  10  22  50  70 108 154 216 242 318 400 464
#     4  12  26  48  79 122 148 210 271 324 384 478
#     4  11  26  49  79 110 159 205 262 317 406 464
#
# _framework density 24.136894000000002
#
# number of rings (size 3 to 8) (size 9 to 14) (size 15 to 20)
#    0.667    0.444    3.333    1.333    3.111    3.556 
#   16.000    0.000    0.000    0.000    0.000    0.000 
#    0.000    0.000    0.000    0.000    0.000    0.000 
#
# Total GULP energy -100363.733549 kJ/mol
# GULP energy per Si atom -5575.762975 kJ/mol
# Density = 2.408196 g / cm^3
# Si number density = 24.136894 Si / 1000 Ang^3
#
#
#
# Elastic Constant Matrix: (Units=GPa)
#
#
# Indices 1 2 3 4 5 6 
#
# 1 147.7433 46.5371 51.2947 0.0000 -9.6552 0.0000
# 2 46.5371 93.9195 46.3241 0.0000 -11.5248 0.0000
# 3 51.2947 46.3241 77.7809 0.0000 0.8977 0.0000
# 4 0.0000 0.0000 0.0000 36.9623 0.0000 11.5158
# 5 -9.6552 -11.5248 0.8977 0.0000 63.5063 0.0000
# 6 0.0000 0.0000 0.0000 11.5158 0.0000 4.6785
#
#
#
# Elastic Compliance Matrix: (Units=1/GPa)
#
#
# Indices 1 2 3 4 5 6 
#
# 1 0.009159 -0.002008 -0.004857 0.000000 0.001097 0.000000
# 2 -0.002008 0.016056 -0.008269 0.000000 0.002725 0.000000
# 3 -0.004857 -0.008269 0.021014 0.000000 -0.002536 0.000000
# 4 0.000000 0.000000 0.000000 0.116048 0.000000 -0.285642
# 5 0.001097 0.002725 -0.002536 0.000000 0.016444 0.000000
# 6 0.000000 0.000000 0.000000 -0.285642 0.000000 0.916830
#
#
# Mechanical properties :
#
#
# Convention : Reuss Voigt Hill
#
# Bulk Modulus (GPa) = 62.65760 67.52840 65.09300
# Shear Modulus (GPa) = 4.42032 32.71528 18.56780
#
# Velocity S-wave (km/s) = 1.35474 3.68558 2.77658
# Velocity P-wave (km/s) = 5.33505 6.79333 6.10786
#
# Compressibility (1/GPa) = 0.01595976
#
# Stress axis : x y z
#
# Youngs Moduli (GPa) = 109.18329 62.28359 47.58769
#
# Poissons Ratio (x) = 0.12508 0.23112
# Poissons Ratio (y) = 0.21926 0.39352
# Poissons Ratio (z) = 0.53028 0.51505
#
# Static dielectric constant tensor:
#      x y z
#    x 1.975310 0.000000 0.208770 
#    y 0.000000 1.969220 0.000000 
#    z 0.208770 0.000000 2.322570 
# 
# From -- ./inp_files/160589.got.cif
#   From: 2010.05.17/outbox.cif.g08.bks.cpg/sg15_81_cif.got.tgz:160589.got - 2010.06.03 18:47:42.
