data_PCOD9293693
_publ_section_title
;
Structure prediction by ZEFSAII (Michael W. Deem and Ramdas Pophale) SiO2 
 PCOD9293693
Probable space group: C 2/C
;
_chemical_formula_sum "Si O2"
_cell_formula_units_Z 52
_cell_length_a 8.555001
_cell_length_b 27.975283
_cell_length_c 11.851030
_cell_angle_alpha 90.000000
_cell_angle_beta 121.511956
_cell_angle_gamma 90.000000
_cell_volume 2418.025571
_symmetry_space_group_name_H-M "C 2/C"
_symmetry_group_IT_number 15
_symmetry_cell_setting 'monoclinic'
loop_
_space_group_symop_operation_xyz
x,y,z
-x,y,1/2-z
-x,-y,-z
x,-y,1/2+z
1/2+x,1/2+y,z
1/2-x,1/2+y,1/2-z
1/2-x,1/2-y,-z
1/2+x,1/2-y,1/2+z
loop_
_atom_site_type_symbol
_atom_site_label
_atom_site_fract_x
_atom_site_fract_y
_atom_site_fract_z
Si Si1 0.500000 0.948142 0.750000
Si Si2 0.335068 0.896253 0.272735
Si Si3 0.365595 0.913962 0.938218
Si Si4 0.517068 0.752629 0.522778
Si Si5 0.304651 0.524387 0.933099
Si Si6 0.354923 0.682266 0.096751
Si Si7 0.316083 0.700673 0.718415
O O1 0.409767 0.920266 0.822454
O O2 0.657699 0.983690 0.850831
O O3 0.500000 0.903444 0.250000
O O4 0.432273 0.907291 0.428622
O O5 0.195546 0.933746 0.163978
O O6 0.286835 0.840385 0.251962
O O7 0.227966 0.869919 0.913301
O O8 0.261854 0.955473 0.969811
O O9 0.533278 0.700429 0.470451
O O10 0.668305 0.787011 0.524833
O O11 0.597237 0.743626 0.676523
O O12 0.322862 0.777497 0.425625
O O13 0.500000 0.500000 0.000000
O O14 0.500000 0.694245 0.250000
O O15 0.500000 0.673790 0.750000
#
# Coordination Sequence:
#
# PCOD9293693 Si02
#       7
#     4   8   8   8   8   8   8
#     4  12  26  46  68 100 144 180 222 302 356 426
#     4  10  22  46  73  95 134 182 236 287 344 424
#     4  11  24  47  69 103 145 179 236 290 359 419
#     4  11  23  43  69  99 136 185 236 284 348 423
#     4  11  25  45  74 101 131 187 235 292 351 433
#     4  11  23  41  72  99 131 182 235 290 336 419
#     4  12  25  43  66 103 141 183 229 293 355 415
#
# _framework density 21.505148999999999
#
# number of rings (size 3 to 8) (size 9 to 14) (size 15 to 20)
#    0.000    0.923    5.385    2.769    4.308    1.231 
#    4.154    0.000    0.000    0.000    0.000    0.000 
#    0.000    0.000    0.000    0.000    0.000    0.000 
#
# Total GULP energy -144799.810509 kJ/mol
# GULP energy per Si atom -5569.223481 kJ/mol
# Density = 2.145620 g / cm^3
# Si number density = 21.505149 Si / 1000 Ang^3
#
#
#
# Elastic Constant Matrix: (Units=GPa)
#
#
# Indices 1 2 3 4 5 6 
#
# 1 61.5421 30.2917 46.2857 0.0000 19.3262 0.0000
# 2 30.2917 86.2350 37.1939 0.0000 3.4778 0.0000
# 3 46.2857 37.1939 83.3840 0.0000 8.5695 0.0000
# 4 0.0000 0.0000 0.0000 23.4162 0.0000 2.1435
# 5 19.3262 3.4778 8.5695 0.0000 47.2093 0.0000
# 6 0.0000 0.0000 0.0000 2.1435 0.0000 16.6261
#
#
#
# Elastic Compliance Matrix: (Units=1/GPa)
#
#
# Indices 1 2 3 4 5 6 
#
# 1 0.033443 -0.004684 -0.015390 0.000000 -0.010552 0.000000
# 2 -0.004684 0.015015 -0.004260 0.000000 0.001585 0.000000
# 3 -0.015390 -0.004260 0.022170 0.000000 0.002590 0.000000
# 4 0.000000 0.000000 0.000000 0.043215 0.000000 -0.005572
# 5 -0.010552 0.001585 0.002590 0.000000 0.024915 0.000000
# 6 0.000000 0.000000 0.000000 -0.005572 0.000000 0.060865
#
#
# Mechanical properties :
#
#
# Convention : Reuss Voigt Hill
#
# Bulk Modulus (GPa) = 45.53955 50.96710 48.25332
# Shear Modulus (GPa) = 19.56084 25.27631 22.41858
#
# Velocity S-wave (km/s) = 3.01921 3.43207 3.23224
# Velocity P-wave (km/s) = 5.77722 6.28147 6.03462
#
# Compressibility (1/GPa) = 0.02195893
#
# Stress axis : x y z
#
# Youngs Moduli (GPa) = 29.90139 66.59900 45.10627
#
# Poissons Ratio (x) = 0.31196 0.69419
# Poissons Ratio (y) = 0.14006 0.19217
# Poissons Ratio (z) = 0.46019 0.28374
#
# Static dielectric constant tensor:
#      x y z
#    x 1.870700 0.000000 -0.020200 
#    y 0.000000 1.812880 0.000000 
#    z -0.020200 0.000000 1.953940 
# 
# From -- ./inp_files/82316.got.cif
#   From: 2010.05.17/outbox.cif.g08.bks.cpg/sg15_42_cif.got.tgz:82316.got - 2010.06.03 18:47:42.
