data_PCOD9293429
_publ_section_title
;
Structure prediction by ZEFSAII (Michael W. Deem and Ramdas Pophale) SiO2 
 PCOD9293429
Probable space group: C 2/C
;
_chemical_formula_sum "Si O2"
_cell_formula_units_Z 64
_cell_length_a 11.830422
_cell_length_b 8.487456
_cell_length_c 27.918532
_cell_angle_alpha 90.000000
_cell_angle_beta 87.178930
_cell_angle_gamma 90.000000
_cell_volume 2799.907687
_symmetry_space_group_name_H-M "C 2/C"
_symmetry_group_IT_number 15
_symmetry_cell_setting 'monoclinic'
loop_
_space_group_symop_operation_xyz
x,y,z
-x,y,1/2-z
-x,-y,-z
x,-y,1/2+z
1/2+x,1/2+y,z
1/2-x,1/2+y,1/2-z
1/2-x,1/2-y,-z
1/2+x,1/2-y,1/2+z
loop_
_atom_site_type_symbol
_atom_site_label
_atom_site_fract_x
_atom_site_fract_y
_atom_site_fract_z
Si Si1 0.128663 0.160412 0.008453
Si Si2 0.471579 0.433129 0.304185
Si Si3 0.111089 0.796723 0.622476
Si Si4 0.124415 0.797848 0.984584
Si Si5 0.846007 0.692605 0.159355
Si Si6 0.248532 0.718799 0.197573
Si Si7 0.134923 0.536004 0.750190
Si Si8 0.897512 0.621617 0.614257
O O1 0.115535 0.147181 0.066951
O O2 0.006105 0.230340 0.992546
O O3 0.250000 0.250000 0.000000
O O4 0.133077 0.988182 0.984051
O O5 0.500000 0.491209 0.250000
O O6 0.435247 0.566169 0.342104
O O7 0.569648 0.328295 0.326161
O O8 0.367285 0.315746 0.298579
O O9 0.230637 0.745542 0.640150
O O10 0.023760 0.655370 0.628762
O O11 0.117040 0.697105 0.936675
O O12 0.250000 0.750000 0.000000
O O13 0.833369 0.575627 0.205195
O O14 0.881663 0.564252 0.118493
O O15 0.209141 0.541619 0.206832
O O16 0.326066 0.788731 0.238453
O O17 0.314239 0.774185 0.149241
O O18 0.000000 0.526452 0.750000
#
# Coordination Sequence:
#
# PCOD9293429 Si02
#       8
#     8   8   8   8   8   8   8   8
#     4  10  24  48  71 105 144 175 232 293 357 430
#     4  12  24  45  67  96 134 181 228 280 340 397
#     4  11  25  45  69 100 133 180 227 278 346 410
#     4  10  22  45  74 103 138 179 229 285 350 421
#     4  11  22  43  63  92 138 172 226 275 332 403
#     4  11  23  42  63  91 133 171 225 275 330 400
#     4  11  22  41  59  89 129 174 222 275 329 392
#     4  10  24  43  63 102 134 173 225 280 338 409
#
# _framework density 22.857894999999999
#
# number of rings (size 3 to 8) (size 9 to 14) (size 15 to 20)
#    0.000    1.250    5.000    0.750    1.750    5.500 
#    6.750    0.625    0.000    0.000    0.000    0.000 
#    0.000    0.000    0.000    0.000    0.000    0.000 
#
# Total GULP energy -178678.660194 kJ/mol
# GULP energy per Si atom -5583.708131 kJ/mol
# Density = 2.280587 g / cm^3
# Si number density = 22.857895 Si / 1000 Ang^3
#
#
#
# Elastic Constant Matrix: (Units=GPa)
#
#
# Indices 1 2 3 4 5 6 
#
# 1 182.7897 37.8720 29.7004 0.0000 17.6497 0.0000
# 2 37.8720 40.9664 13.1438 0.0000 -9.2753 0.0000
# 3 29.7004 13.1438 59.0916 0.0000 -5.7527 0.0000
# 4 0.0000 0.0000 0.0000 34.9813 0.0000 -12.1136
# 5 17.6497 -9.2753 -5.7527 0.0000 31.9762 0.0000
# 6 0.0000 0.0000 0.0000 -12.1136 0.0000 47.9807
#
#
#
# Elastic Compliance Matrix: (Units=1/GPa)
#
#
# Indices 1 2 3 4 5 6 
#
# 1 0.008515 -0.008629 -0.003116 0.000000 -0.007763 0.000000
# 2 -0.008629 0.036518 -0.002331 0.000000 0.014936 0.000000
# 3 -0.003116 -0.002331 0.019450 0.000000 0.004543 0.000000
# 4 0.000000 0.000000 0.000000 0.031325 0.000000 0.007909
# 5 -0.007763 0.014936 0.004543 0.000000 0.040708 0.000000
# 6 0.000000 0.000000 0.000000 0.007909 0.000000 0.022838
#
#
# Mechanical properties :
#
#
# Convention : Reuss Voigt Hill
#
# Bulk Modulus (GPa) = 27.52643 49.36448 38.44546
# Shear Modulus (GPa) = 25.04799 36.46308 30.75554
#
# Velocity S-wave (km/s) = 3.31390 3.99834 3.67210
# Velocity P-wave (km/s) = 5.16828 6.55429 5.90211
#
# Compressibility (1/GPa) = 0.03632872
#
# Stress axis : x y z
#
# Youngs Moduli (GPa) = 117.44521 27.38404 51.41449
#
# Poissons Ratio (x) = 0.23631 0.16020
# Poissons Ratio (y) = 1.01349 0.11986
# Poissons Ratio (z) = 0.36595 0.06384
#
# Static dielectric constant tensor:
#      x y z
#    x 1.913140 0.000000 -0.020210 
#    y 0.000000 1.908030 0.000000 
#    z -0.020210 0.000000 1.883430 
# 
# From -- ./inp_files/310328.got.cif
#   From: 2010.05.17/outbox.cif.g08.bks.cpg/sg15_156_cif.got.tgz:310328.got - 2010.06.03 18:47:42.
