data_PCOD9293717
_publ_section_title
;
Structure prediction by ZEFSAII (Michael W. Deem and Ramdas Pophale) SiO2 
 PCOD9293717
Probable space group: C 2/C
;
_chemical_formula_sum "Si O2"
_cell_formula_units_Z 36
_cell_length_a 25.853248
_cell_length_b 5.233188
_cell_length_c 12.338067
_cell_angle_alpha 90.000000
_cell_angle_beta 115.462999
_cell_angle_gamma 90.000000
_cell_volume 1507.129202
_symmetry_space_group_name_H-M "C 2/C"
_symmetry_group_IT_number 15
_symmetry_cell_setting 'monoclinic'
loop_
_space_group_symop_operation_xyz
x,y,z
-x,y,1/2-z
-x,-y,-z
x,-y,1/2+z
1/2+x,1/2+y,z
1/2-x,1/2+y,1/2-z
1/2-x,1/2-y,-z
1/2+x,1/2-y,1/2+z
loop_
_atom_site_type_symbol
_atom_site_label
_atom_site_fract_x
_atom_site_fract_y
_atom_site_fract_z
Si Si1 0.443090 0.535006 0.877071
Si Si2 0.201646 0.393317 0.025003
Si Si3 0.338281 0.598864 0.930540
Si Si4 0.602336 0.173115 0.832347
Si Si5 0.500000 0.114838 0.250000
O O1 0.420188 0.272038 0.802202
O O2 0.464752 0.714278 0.800346
O O3 0.500000 0.500000 0.000000
O O4 0.388066 0.649569 0.889247
O O5 0.206661 0.668923 0.090818
O O6 0.152296 0.467206 0.893217
O O7 0.185676 0.184248 0.101160
O O8 0.250000 0.250000 0.000000
O O9 0.371578 0.592905 0.076332
O O10 0.547343 0.065470 0.846598
#
# Coordination Sequence:
#
# PCOD9293717 Si02
#       5
#     8   8   8   8   4
#     4  12  24  40  65 103 148 191 237 288 364 441
#     4  10  22  46  75  99 133 185 239 305 368 415
#     4  10  24  43  71 103 136 187 240 295 359 436
#     4  10  24  39  69 101 141 187 238 297 352 436
#     4  12  24  42  64 100 146 186 236 290 356 432
#
# _framework density 23.886469999999999
#
# number of rings (size 3 to 8) (size 9 to 14) (size 15 to 20)
#    1.333    0.000    0.000    6.667    3.111    1.778 
#    0.000    0.000    9.778    0.000    0.000    0.000 
#    0.000    0.000    0.000    0.000    0.000    0.000 
#
# Total GULP energy -100311.450157 kJ/mol
# GULP energy per Si atom -5572.858342 kJ/mol
# Density = 2.383210 g / cm^3
# Si number density = 23.886470 Si / 1000 Ang^3
#
#
#
# Elastic Constant Matrix: (Units=GPa)
#
#
# Indices 1 2 3 4 5 6 
#
# 1 100.4827 22.7420 16.3849 0.0000 -10.7855 0.0000
# 2 22.7420 134.9078 25.2283 0.0000 1.0219 0.0000
# 3 16.3849 25.2283 47.0077 0.0000 3.7155 0.0000
# 4 0.0000 0.0000 0.0000 2.0483 0.0000 -7.1468
# 5 -10.7855 1.0219 3.7155 0.0000 33.8630 0.0000
# 6 0.0000 0.0000 0.0000 -7.1468 0.0000 37.4162
#
#
#
# Elastic Compliance Matrix: (Units=1/GPa)
#
#
# Indices 1 2 3 4 5 6 
#
# 1 0.011249 -0.001261 -0.003561 0.000000 0.004011 0.000000
# 2 -0.001261 0.008383 -0.004043 0.000000 -0.000211 0.000000
# 3 -0.003561 -0.004043 0.024981 0.000000 -0.003753 0.000000
# 4 0.000000 0.000000 0.000000 1.463581 0.000000 0.279555
# 5 0.004011 -0.000211 -0.003753 0.000000 0.031227 0.000000
# 6 0.000000 0.000000 0.000000 0.279555 0.000000 0.080123
#
#
# Mechanical properties :
#
#
# Convention : Reuss Voigt Hill
#
# Bulk Modulus (GPa) = 37.19875 45.67873 41.43874
# Shear Modulus (GPa) = 3.03724 29.20171 16.11947
#
# Velocity S-wave (km/s) = 1.12884 3.50025 2.60058
# Velocity P-wave (km/s) = 4.16005 5.95823 5.13841
#
# Compressibility (1/GPa) = 0.02688262
#
# Stress axis : x y z
#
# Youngs Moduli (GPa) = 88.90021 119.29491 40.03082
#
# Poissons Ratio (x) = 0.15039 0.14256
# Poissons Ratio (y) = 0.11207 0.16183
# Poissons Ratio (z) = 0.31660 0.48228
#
# Static dielectric constant tensor:
#      x y z
#    x 1.963340 0.000000 0.018170 
#    y 0.000000 2.039970 0.000000 
#    z 0.018170 0.000000 1.944910 
# 
# From -- ./inp_files/170274.got.cif
#   From: 2010.05.17/outbox.cif.g08.bks.cpg/sg15_86_cif.got.tgz:170274.got - 2010.06.03 18:47:42.
