data_PCOD9293130
_publ_section_title
;
Structure prediction by ZEFSAII (Michael W. Deem and Ramdas Pophale) SiO2 
 PCOD9293130
Probable space group: C 2/C
;
_chemical_formula_sum "Si O2"
_cell_formula_units_Z 36
_cell_length_a 12.450001
_cell_length_b 20.717935
_cell_length_c 6.794678
_cell_angle_alpha 90.000000
_cell_angle_beta 133.179259
_cell_angle_gamma 90.000000
_cell_volume 1278.030302
_symmetry_space_group_name_H-M "C 2/C"
_symmetry_group_IT_number 15
_symmetry_cell_setting 'monoclinic'
loop_
_space_group_symop_operation_xyz
x,y,z
-x,y,1/2-z
-x,-y,-z
x,-y,1/2+z
1/2+x,1/2+y,z
1/2-x,1/2+y,1/2-z
1/2-x,1/2-y,-z
1/2+x,1/2-y,1/2+z
loop_
_atom_site_type_symbol
_atom_site_label
_atom_site_fract_x
_atom_site_fract_y
_atom_site_fract_z
Si Si1 0.128921 0.280186 0.695047
Si Si2 0.120129 0.014471 0.270449
Si Si3 0.000000 0.821373 0.250000
Si Si4 0.214599 0.606929 0.530196
Si Si5 0.332016 0.128526 0.575752
O O1 0.169688 0.300968 0.528415
O O2 0.998387 0.229815 0.565803
O O3 0.250000 0.250000 0.000000
O O4 0.110571 0.352510 0.757847
O O5 0.192833 0.085118 0.330441
O O6 0.073016 0.011671 0.468429
O O7 0.267592 0.968918 0.470339
O O8 0.125435 0.869705 0.341590
O O9 0.194013 0.629909 0.725009
O O10 0.500000 0.103399 0.750000
#
# Coordination Sequence:
#
# PCOD9293130 Si02
#       5
#     8   8   4   8   8
#     4  10  24  45  71 107 154 207 257 323 397 471
#     4  12  24  46  76 114 155 205 267 328 394 484
#     4  10  22  44  74 104 148 206 258 322 382 462
#     4  11  24  46  76 110 157 202 269 327 397 474
#     4  12  28  47  76 120 162 209 262 330 414 482
#
# _framework density 28.168346
#
# number of rings (size 3 to 8) (size 9 to 14) (size 15 to 20)
#    0.000    0.889    3.333    2.667    3.111    4.444 
#    2.000    4.444    0.000    0.000    0.000    0.000 
#    0.000    0.000    0.000    0.000    0.000    0.000 
#
# Total GULP energy -100347.029448 kJ/mol
# GULP energy per Si atom -5574.834969 kJ/mol
# Density = 2.810423 g / cm^3
# Si number density = 28.168346 Si / 1000 Ang^3
#
#
#
# Elastic Constant Matrix: (Units=GPa)
#
#
# Indices 1 2 3 4 5 6 
#
# 1 209.2336 35.2630 69.4735 0.0000 -26.5840 0.0000
# 2 35.2630 88.5235 23.5541 0.0000 -15.6014 0.0000
# 3 69.4735 23.5541 135.1277 0.0000 -13.2773 0.0000
# 4 0.0000 0.0000 0.0000 44.8082 0.0000 -6.8784
# 5 -26.5840 -15.6014 -13.2773 0.0000 64.2439 0.0000
# 6 0.0000 0.0000 0.0000 -6.8784 0.0000 59.8693
#
#
#
# Elastic Compliance Matrix: (Units=1/GPa)
#
#
# Indices 1 2 3 4 5 6 
#
# 1 0.006139 -0.001428 -0.002748 0.000000 0.001626 0.000000
# 2 -0.001428 0.012585 -0.001243 0.000000 0.002209 0.000000
# 3 -0.002748 -0.001243 0.009072 0.000000 0.000436 0.000000
# 4 0.000000 0.000000 0.000000 0.022718 0.000000 0.002610
# 5 0.001626 0.002209 0.000436 0.000000 0.016865 0.000000
# 6 0.000000 0.000000 0.000000 0.002610 0.000000 0.017003
#
#
# Mechanical properties :
#
#
# Convention : Reuss Voigt Hill
#
# Bulk Modulus (GPa) = 58.96075 76.60734 67.78405
# Shear Modulus (GPa) = 49.56797 54.09056 51.82927
#
# Velocity S-wave (km/s) = 4.19943 4.38683 4.29416
# Velocity P-wave (km/s) = 6.67013 7.27423 6.97872
#
# Compressibility (1/GPa) = 0.01696044
#
# Stress axis : x y z
#
# Youngs Moduli (GPa) = 162.89779 79.45926 110.22342
#
# Poissons Ratio (x) = 0.11345 0.30284
# Poissons Ratio (y) = 0.23259 0.13696
# Poissons Ratio (z) = 0.44757 0.09874
#
# Static dielectric constant tensor:
#      x y z
#    x 2.517590 0.000000 0.003610 
#    y 0.000000 2.167850 0.000000 
#    z 0.003610 0.000000 2.491090 
# 
# From -- ./inp_files/7208.got.cif
#   From: 2010.05.17/outbox.cif.g08.bks.cpg/sg15_4_cif.got.tgz:7208.got - 2010.06.03 18:47:42.
