data_PCOD9293096
_publ_section_title
;
Structure prediction by ZEFSAII (Michael W. Deem and Ramdas Pophale) SiO2 
 PCOD9293096
Probable space group: C 2/C
;
_chemical_formula_sum "Si O2"
_cell_formula_units_Z 64
_cell_length_a 8.398937
_cell_length_b 14.809985
_cell_length_c 22.249437
_cell_angle_alpha 90.000000
_cell_angle_beta 85.578760
_cell_angle_gamma 90.000000
_cell_volume 2759.330281
_symmetry_space_group_name_H-M "C 2/C"
_symmetry_group_IT_number 15
_symmetry_cell_setting 'monoclinic'
loop_
_space_group_symop_operation_xyz
x,y,z
-x,y,1/2-z
-x,-y,-z
x,-y,1/2+z
1/2+x,1/2+y,z
1/2-x,1/2+y,1/2-z
1/2-x,1/2-y,-z
1/2+x,1/2-y,1/2+z
loop_
_atom_site_type_symbol
_atom_site_label
_atom_site_fract_x
_atom_site_fract_y
_atom_site_fract_z
Si Si1 0.852927 0.890603 0.462881
Si Si2 0.350065 0.704556 0.212593
Si Si3 0.352256 0.944589 0.717682
Si Si4 0.302529 0.723228 0.079756
Si Si5 0.682321 0.372693 0.384982
Si Si6 0.574008 0.174400 0.397672
Si Si7 0.316391 0.389111 0.249601
Si Si8 0.842349 0.559361 0.995350
O O1 0.716052 0.830094 0.433700
O O2 0.881105 0.830531 0.522308
O O3 0.009223 0.896442 0.417611
O O4 0.796230 0.989099 0.483141
O O5 0.500000 0.684915 0.250000
O O6 0.215712 0.634191 0.237490
O O7 0.381950 0.700230 0.140687
O O8 0.289290 0.805367 0.227298
O O9 0.500000 0.986198 0.750000
O O10 0.402240 0.900343 0.653815
O O11 0.222685 0.022250 0.711410
O O12 0.115419 0.693061 0.089779
O O13 0.667004 0.264972 0.376376
O O14 0.711555 0.413796 0.319135
O O15 0.811039 0.403932 0.429780
O O16 0.644050 0.140699 0.458425
O O17 0.500000 0.361561 0.250000
O O18 0.000000 0.500000 0.000000
#
# Coordination Sequence:
#
# PCOD9293096 Si02
#       8
#     8   8   8   8   8   8   8   8
#     4  10  23  45  70 104 134 191 227 294 350 420
#     4  12  26  47  72 108 143 190 239 300 366 436
#     4  12  26  46  74 105 142 189 242 301 368 429
#     4  10  22  44  73 100 145 180 237 286 362 424
#     4  11  26  47  70 101 148 188 235 291 359 435
#     4  11  23  46  72 101 142 189 231 296 363 428
#     4  12  27  49  74 107 147 192 245 299 364 436
#     4  12  26  42  70 105 139 181 240 295 352 418
#
# _framework density 23.194033999999998
#
# number of rings (size 3 to 8) (size 9 to 14) (size 15 to 20)
#    0.000    0.750    3.750    3.375    7.000    2.000 
#    0.000    0.000    0.000    0.000    0.000    0.000 
#    0.000    0.000    0.000    0.000    0.000    0.000 
#
# Total GULP energy -179308.157848 kJ/mol
# GULP energy per Si atom -5603.379933 kJ/mol
# Density = 2.314124 g / cm^3
# Si number density = 23.194034 Si / 1000 Ang^3
#
#
#
# Elastic Constant Matrix: (Units=GPa)
#
#
# Indices 1 2 3 4 5 6 
#
# 1 45.2329 11.1868 20.5982 0.0000 8.6976 0.0000
# 2 11.1868 59.1921 0.3144 0.0000 -11.6936 0.0000
# 3 20.5982 0.3144 89.8110 0.0000 10.9163 0.0000
# 4 0.0000 0.0000 0.0000 35.3037 0.0000 -6.8782
# 5 8.6976 -11.6936 10.9163 0.0000 39.6804 0.0000
# 6 0.0000 0.0000 0.0000 -6.8782 0.0000 23.8638
#
#
#
# Elastic Compliance Matrix: (Units=1/GPa)
#
#
# Indices 1 2 3 4 5 6 
#
# 1 0.027424 -0.006416 -0.005490 0.000000 -0.006392 0.000000
# 2 -0.006416 0.019486 0.000553 0.000000 0.006997 0.000000
# 3 -0.005490 0.000553 0.012649 0.000000 -0.002113 0.000000
# 4 0.000000 0.000000 0.000000 0.030011 0.000000 0.008650
# 5 -0.006392 0.006997 -0.002113 0.000000 0.029246 0.000000
# 6 0.000000 0.000000 0.000000 0.008650 0.000000 0.044398
#
#
# Mechanical properties :
#
#
# Convention : Reuss Voigt Hill
#
# Bulk Modulus (GPa) = 27.13629 28.71498 27.92564
# Shear Modulus (GPa) = 25.22655 30.57871 27.90263
#
# Velocity S-wave (km/s) = 3.30150 3.63490 3.47220
# Velocity P-wave (km/s) = 5.12429 5.47940 5.30482
#
# Compressibility (1/GPa) = 0.03685102
#
# Stress axis : x y z
#
# Youngs Moduli (GPa) = 36.46461 51.31863 79.05997
#
# Poissons Ratio (x) = 0.32928 0.43406
# Poissons Ratio (y) = 0.23397 -0.04372
# Poissons Ratio (z) = 0.20020 -0.02838
#
# Static dielectric constant tensor:
#      x y z
#    x 1.847170 0.000000 -0.015040 
#    y 0.000000 1.856340 0.000000 
#    z -0.015040 0.000000 1.800530 
# 
# From -- ./inp_files/264730.got.cif
#   From: 2010.05.17/outbox.cif.g08.bks.cpg/sg15_133_cif.got.tgz:264730.got - 2010.06.03 18:47:42.
