data_PCOD9293583
_publ_section_title
;
Structure prediction by ZEFSAII (Michael W. Deem and Ramdas Pophale) SiO2 
 PCOD9293583
Probable space group: C 2/C
;
_chemical_formula_sum "Si O2"
_cell_formula_units_Z 36
_cell_length_a 12.090172
_cell_length_b 15.351261
_cell_length_c 11.602421
_cell_angle_alpha 90.000000
_cell_angle_beta 56.183251
_cell_angle_gamma 90.000000
_cell_volume 1789.093534
_symmetry_space_group_name_H-M "C 2/C"
_symmetry_group_IT_number 15
_symmetry_cell_setting 'monoclinic'
loop_
_space_group_symop_operation_xyz
x,y,z
-x,y,1/2-z
-x,-y,-z
x,-y,1/2+z
1/2+x,1/2+y,z
1/2-x,1/2+y,1/2-z
1/2-x,1/2-y,-z
1/2+x,1/2-y,1/2+z
loop_
_atom_site_type_symbol
_atom_site_label
_atom_site_fract_x
_atom_site_fract_y
_atom_site_fract_z
Si Si1 0.499327 0.903514 0.049937
Si Si2 0.911349 0.254055 0.917531
Si Si3 0.000000 0.186679 0.250000
Si Si4 0.181886 0.349831 0.130766
Si Si5 0.015443 0.897919 0.507674
O O1 0.640799 0.888299 0.030746
O O2 0.399040 0.893064 0.216103
O O3 0.457972 0.829809 0.980746
O O4 0.500000 0.000000 0.000000
O O5 0.000000 0.266437 0.750000
O O6 0.750000 0.250000 0.000000
O O7 0.947794 0.160412 0.949861
O O8 0.875990 0.252035 0.341876
O O9 0.038484 0.129746 0.336532
O O10 0.332543 0.366412 0.074143
O O11 0.000000 0.000000 0.500000
#
# Coordination Sequence:
#
# PCOD9293583 Si02
#       5
#     8   8   4   8   8
#     4  10  23  42  71  99 131 179 231 279 333 413
#     4  12  28  45  67 101 144 182 220 285 354 404
#     4  10  22  46  72  90 130 188 228 276 332 408
#     4  10  22  46  69  95 131 179 237 273 336 400
#     4  12  27  43  69 102 137 175 230 287 339 404
#
# _framework density 20.121922000000001
#
# number of rings (size 3 to 8) (size 9 to 14) (size 15 to 20)
#    0.000    1.333    4.444    2.000    7.778    1.778 
#    0.000    0.000    0.000    0.000    0.000    0.000 
#    0.000    0.000    0.000    0.000    0.000    0.000 
#
# Total GULP energy -100485.526243 kJ/mol
# GULP energy per Si atom -5582.529236 kJ/mol
# Density = 2.007612 g / cm^3
# Si number density = 20.121922 Si / 1000 Ang^3
#
#
#
# Elastic Constant Matrix: (Units=GPa)
#
#
# Indices 1 2 3 4 5 6 
#
# 1 172.3422 71.9875 56.7620 0.0000 -7.7719 0.0000
# 2 71.9875 196.7744 57.0111 0.0000 20.5757 0.0000
# 3 56.7620 57.0111 107.8542 0.0000 20.3158 0.0000
# 4 0.0000 0.0000 0.0000 26.1425 0.0000 20.4455
# 5 -7.7719 20.5757 20.3158 0.0000 39.0614 0.0000
# 6 0.0000 0.0000 0.0000 20.4455 0.0000 28.0149
#
#
#
# Elastic Compliance Matrix: (Units=1/GPa)
#
#
# Indices 1 2 3 4 5 6 
#
# 1 0.008387 -0.002412 -0.004093 0.000000 0.005068 0.000000
# 2 -0.002412 0.006795 -0.001727 0.000000 -0.003161 0.000000
# 3 -0.004093 -0.001727 0.013659 0.000000 -0.007009 0.000000
# 4 0.000000 0.000000 0.000000 0.089117 0.000000 -0.065038
# 5 0.005068 -0.003161 -0.007009 0.000000 0.031920 0.000000
# 6 0.000000 0.000000 0.000000 -0.065038 0.000000 0.083161
#
#
# Mechanical properties :
#
#
# Convention : Reuss Voigt Hill
#
# Bulk Modulus (GPa) = 80.80152 94.27690 87.53921
# Shear Modulus (GPa) = 19.71381 38.05776 28.88579
#
# Velocity S-wave (km/s) = 3.13344 4.35369 3.79296
# Velocity P-wave (km/s) = 7.30304 8.49867 7.92344
#
# Compressibility (1/GPa) = 0.01237600
#
# Stress axis : x y z
#
# Youngs Moduli (GPa) = 119.23605 147.15964 73.21063
#
# Poissons Ratio (x) = 0.35497 0.29968
# Poissons Ratio (y) = 0.28762 0.12644
# Poissons Ratio (z) = 0.48808 0.25415
#
# Static dielectric constant tensor:
#      x y z
#    x 1.716980 0.000000 -0.033730 
#    y 0.000000 1.708110 0.000000 
#    z -0.033730 0.000000 1.729700 
# 
# From -- ./inp_files/85383.got.cif
#   From: 2010.05.17/outbox.cif.g08.bks.cpg/sg15_43_cif.got.tgz:85383.got - 2010.06.03 18:47:42.
