data_PCOD9293561
_publ_section_title
;
Structure prediction by ZEFSAII (Michael W. Deem and Ramdas Pophale) SiO2 
 PCOD9293561
Probable space group: C 2/C
;
_chemical_formula_sum "Si O2"
_cell_formula_units_Z 56
_cell_length_a 17.578146
_cell_length_b 6.316802
_cell_length_c 23.573785
_cell_angle_alpha 90.000000
_cell_angle_beta 98.372107
_cell_angle_gamma 90.000000
_cell_volume 2589.683448
_symmetry_space_group_name_H-M "C 2/C"
_symmetry_group_IT_number 15
_symmetry_cell_setting 'monoclinic'
loop_
_space_group_symop_operation_xyz
x,y,z
-x,y,1/2-z
-x,-y,-z
x,-y,1/2+z
1/2+x,1/2+y,z
1/2-x,1/2+y,1/2-z
1/2-x,1/2-y,-z
1/2+x,1/2-y,1/2+z
loop_
_atom_site_type_symbol
_atom_site_label
_atom_site_fract_x
_atom_site_fract_y
_atom_site_fract_z
Si Si1 0.205368 0.604643 0.075800
Si Si2 0.225799 0.505847 0.356519
Si Si3 0.583058 0.036348 0.983105
Si Si4 0.418371 0.911472 0.230722
Si Si5 0.660809 0.334207 0.439658
Si Si6 0.371957 0.243398 0.849433
Si Si7 0.544489 0.666451 0.377217
O O1 0.253452 0.776111 0.116334
O O2 0.269530 0.495176 0.042586
O O3 0.161971 0.442912 0.114147
O O4 0.136610 0.683594 0.028105
O O5 0.154835 0.518863 0.305834
O O6 0.201411 0.663389 0.403618
O O7 0.304767 0.586413 0.338439
O O8 0.574040 0.141123 0.920428
O O9 0.623626 0.806680 0.984522
O O10 0.500000 0.000000 0.000000
O O11 0.500000 0.029844 0.250000
O O12 0.390563 0.839153 0.288922
O O13 0.439826 0.729300 0.186584
O O14 0.592288 0.461376 0.401072
O O15 0.453102 0.341514 0.878690
#
# Coordination Sequence:
#
# PCOD9293561 Si02
#       7
#     8   8   8   8   8   8   8
#     4  11  24  45  66  99 139 176 223 277 332 406
#     4  11  24  44  67 100 133 174 223 273 337 404
#     4  12  25  42  70  99 135 180 227 278 338 393
#     4  10  22  46  68  92 135 174 222 277 331 405
#     4  11  24  43  69  94 137 170 224 270 339 393
#     4  10  25  41  69  98 137 175 224 279 340 393
#     4  11  23  46  65 100 135 175 225 282 333 409
#
# _framework density 21.624262999999999
#
# number of rings (size 3 to 8) (size 9 to 14) (size 15 to 20)
#    0.000    1.143    4.286    0.429    4.000    5.143 
#    0.000    0.714    0.000    0.000    0.000    0.000 
#    0.000    0.000    0.000    0.000    0.000    0.000 
#
# Total GULP energy -156344.280833 kJ/mol
# GULP energy per Si atom -5583.724315 kJ/mol
# Density = 2.157505 g / cm^3
# Si number density = 21.624263 Si / 1000 Ang^3
#
#
#
# Elastic Constant Matrix: (Units=GPa)
#
#
# Indices 1 2 3 4 5 6 
#
# 1 176.7125 43.2736 44.0436 0.0000 14.5419 0.0000
# 2 43.2736 41.1354 9.5873 0.0000 -2.8738 0.0000
# 3 44.0436 9.5873 88.1409 0.0000 8.1922 0.0000
# 4 0.0000 0.0000 0.0000 11.5169 0.0000 12.5487
# 5 14.5419 -2.8738 8.1922 0.0000 52.4075 0.0000
# 6 0.0000 0.0000 0.0000 12.5487 0.0000 30.4589
#
#
#
# Elastic Compliance Matrix: (Units=1/GPa)
#
#
# Indices 1 2 3 4 5 6 
#
# 1 0.008779 -0.008652 -0.003222 0.000000 -0.002407 0.000000
# 2 -0.008652 0.033642 0.000274 0.000000 0.004203 0.000000
# 3 -0.003222 0.000274 0.013031 0.000000 -0.001128 0.000000
# 4 0.000000 0.000000 0.000000 0.157556 0.000000 -0.064911
# 5 -0.002407 0.004203 -0.001128 0.000000 0.020156 0.000000
# 6 0.000000 0.000000 0.000000 -0.064911 0.000000 0.059574
#
#
# Mechanical properties :
#
#
# Convention : Reuss Voigt Hill
#
# Bulk Modulus (GPa) = 31.00785 55.53309 43.27047
# Shear Modulus (GPa) = 15.30515 32.81562 24.06038
#
# Velocity S-wave (km/s) = 2.66329 3.89978 3.33927
# Velocity P-wave (km/s) = 4.88139 6.78339 5.90942
#
# Compressibility (1/GPa) = 0.03224990
#
# Stress axis : x y z
#
# Youngs Moduli (GPa) = 113.91114 29.72487 76.74301
#
# Poissons Ratio (x) = 0.25719 0.24726
# Poissons Ratio (y) = 0.98559 -0.02099
# Poissons Ratio (z) = 0.36701 -0.00813
#
# Static dielectric constant tensor:
#      x y z
#    x 1.802090 0.000000 0.021410 
#    y 0.000000 1.829620 0.000000 
#    z 0.021410 0.000000 1.784160 
# 
# From -- ./inp_files/297797.got.cif
#   From: 2010.05.17/outbox.cif.g08.bks.cpg/sg15_149_cif.got.tgz:297797.got - 2010.06.03 18:47:42.
