data_PCOD9293189
_publ_section_title
;
Structure prediction by ZEFSAII (Michael W. Deem and Ramdas Pophale) SiO2 
 PCOD9293189
Probable space group: C 2/C
;
_chemical_formula_sum "Si O2"
_cell_formula_units_Z 48
_cell_length_a 14.668104
_cell_length_b 8.944774
_cell_length_c 14.070432
_cell_angle_alpha 90.000000
_cell_angle_beta 57.857742
_cell_angle_gamma 90.000000
_cell_volume 1563.131841
_symmetry_space_group_name_H-M "C 2/C"
_symmetry_group_IT_number 15
_symmetry_cell_setting 'monoclinic'
loop_
_space_group_symop_operation_xyz
x,y,z
-x,y,1/2-z
-x,-y,-z
x,-y,1/2+z
1/2+x,1/2+y,z
1/2-x,1/2+y,1/2-z
1/2-x,1/2-y,-z
1/2+x,1/2-y,1/2+z
loop_
_atom_site_type_symbol
_atom_site_label
_atom_site_fract_x
_atom_site_fract_y
_atom_site_fract_z
Si Si1 0.409877 0.705896 0.632744
Si Si2 0.744793 0.605823 0.312086
Si Si3 0.607306 0.815513 0.267596
Si Si4 0.139864 0.152753 0.056258
Si Si5 0.560036 0.954738 0.561098
Si Si6 0.695982 0.618276 0.621206
O O1 0.412171 0.663030 0.520707
O O2 0.315740 0.052375 0.536219
O O3 0.514221 0.792128 0.613957
O O4 0.320921 0.836917 0.685304
O O5 0.638673 0.703707 0.339155
O O6 0.794818 0.439279 0.301327
O O7 0.637458 0.406078 0.258781
O O8 0.788024 0.703719 0.378183
O O9 0.602616 0.706194 0.181042
O O10 0.499429 0.916692 0.344007
O O11 0.136030 0.974342 0.074302
O O12 0.250000 0.250000 0.000000
O O13 0.500000 0.000000 0.500000
#
# Coordination Sequence:
#
# PCOD9293189 Si02
#       6
#     8   8   8   8   8   8
#     4   9  22  42  72 111 155 204 259 331 403 481
#     4   9  19  39  65  97 141 204 242 318 391 469
#     4  11  21  37  70 102 148 191 272 319 392 476
#     4  12  22  41  74 115 145 208 265 329 408 476
#     4  11  20  41  74 112 141 208 269 317 402 482
#     4  10  22  44  78 108 157 209 264 330 405 490
#
# _framework density 30.707583
#
# number of rings (size 3 to 8) (size 9 to 14) (size 15 to 20)
#    1.000    0.667    3.333    2.000    0.000    0.000 
#    3.000    2.500   11.000    6.000    0.000    0.000 
#    0.000    0.000    0.000    0.000    0.000    0.000 
#
# Total GULP energy -133641.666751 kJ/mol
# GULP energy per Si atom -5568.402781 kJ/mol
# Density = 3.063769 g / cm^3
# Si number density = 30.707583 Si / 1000 Ang^3
#
#
#
# Elastic Constant Matrix: (Units=GPa)
#
#
# Indices 1 2 3 4 5 6 
#
# 1 74.8550 49.5110 68.0158 0.0000 1.5630 0.0000
# 2 49.5110 229.9599 59.6410 0.0000 8.0342 0.0000
# 3 68.0158 59.6410 141.6029 0.0000 18.3752 0.0000
# 4 0.0000 0.0000 0.0000 78.3716 0.0000 22.4065
# 5 1.5630 8.0342 18.3752 0.0000 65.7701 0.0000
# 6 0.0000 0.0000 0.0000 22.4065 0.0000 40.7494
#
#
#
# Elastic Compliance Matrix: (Units=1/GPa)
#
#
# Indices 1 2 3 4 5 6 
#
# 1 0.025497 -0.002601 -0.011532 0.000000 0.002934 0.000000
# 2 -0.002601 0.005147 -0.000877 0.000000 -0.000322 0.000000
# 3 -0.011532 -0.000877 0.013407 0.000000 -0.003365 0.000000
# 4 0.000000 0.000000 0.000000 0.015140 0.000000 -0.008325
# 5 0.002934 -0.000322 -0.003365 0.000000 0.016114 0.000000
# 6 0.000000 0.000000 0.000000 -0.008325 0.000000 0.029118
#
#
# Mechanical properties :
#
#
# Convention : Reuss Voigt Hill
#
# Bulk Modulus (GPa) = 71.26927 88.97261 80.12094
# Shear Modulus (GPa) = 35.94045 54.92823 45.43434
#
# Velocity S-wave (km/s) = 3.42484 4.23395 3.85070
# Velocity P-wave (km/s) = 6.23689 7.27591 6.77634
#
# Compressibility (1/GPa) = 0.01403129
#
# Stress axis : x y z
#
# Youngs Moduli (GPa) = 39.22090 194.27810 74.58813
#
# Poissons Ratio (x) = 0.50535 0.86014
# Poissons Ratio (y) = 0.10202 0.06540
# Poissons Ratio (z) = 0.45229 0.17034
#
# Static dielectric constant tensor:
#      x y z
#    x 2.685400 0.000000 -0.092710 
#    y 0.000000 2.674950 0.000000 
#    z -0.092710 0.000000 2.735740 
# 
# From -- ./inp_files/251268.got.cif
#   From: 2010.05.17/outbox.cif.g08.bks.cpg/sg15_126_cif.got.tgz:251268.got - 2010.06.03 18:47:42.
