data_PCOD9293653
_publ_section_title
;
Structure prediction by ZEFSAII (Michael W. Deem and Ramdas Pophale) SiO2 
 PCOD9293653
Probable space group: C 2/C
;
_chemical_formula_sum "Si O2"
_cell_formula_units_Z 56
_cell_length_a 7.177080
_cell_length_b 21.610130
_cell_length_c 14.496944
_cell_angle_alpha 90.000000
_cell_angle_beta 99.101740
_cell_angle_gamma 90.000000
_cell_volume 2220.131561
_symmetry_space_group_name_H-M "C 2/C"
_symmetry_group_IT_number 15
_symmetry_cell_setting 'monoclinic'
loop_
_space_group_symop_operation_xyz
x,y,z
-x,y,1/2-z
-x,-y,-z
x,-y,1/2+z
1/2+x,1/2+y,z
1/2-x,1/2+y,1/2-z
1/2-x,1/2-y,-z
1/2+x,1/2-y,1/2+z
loop_
_atom_site_type_symbol
_atom_site_label
_atom_site_fract_x
_atom_site_fract_y
_atom_site_fract_z
Si Si1 0.230921 0.007123 0.341425
Si Si2 0.310138 0.467579 0.862465
Si Si3 0.216274 0.335751 0.937025
Si Si4 0.226401 0.303237 0.573114
Si Si5 0.803004 0.368542 0.369339
Si Si6 0.269769 0.751692 0.730592
Si Si7 0.316031 0.923935 0.016774
O O1 0.289164 0.026368 0.244261
O O2 0.366935 0.034928 0.430214
O O3 0.029567 0.034521 0.353557
O O4 0.205080 0.933361 0.340411
O O5 0.245324 0.405882 0.907490
O O6 0.282225 0.528124 0.922660
O O7 0.294660 0.291237 0.863770
O O8 0.994820 0.318795 0.927308
O O9 0.286656 0.334193 0.048104
O O10 0.250000 0.250000 0.500000
O O11 0.296584 0.282078 0.678933
O O12 0.302445 0.366002 0.532400
O O13 0.796609 0.318654 0.288392
O O14 0.010057 0.392534 0.415629
O O15 0.500000 0.751084 0.750000
#
# Coordination Sequence:
#
# PCOD9293653 Si02
#       7
#     8   8   8   8   8   8   8
#     4  11  25  44  71 109 145 193 247 310 368 449
#     4  11  25  44  74 107 146 196 251 299 377 449
#     4  10  22  46  72 103 140 194 241 302 362 441
#     4  10  24  44  71 103 146 191 242 298 366 432
#     4  11  24  42  72 109 143 186 250 305 373 445
#     4  10  23  45  73 101 141 197 250 302 365 445
#     4  11  24  47  70 108 150 189 240 310 380 441
#
# _framework density 25.223728999999999
#
# number of rings (size 3 to 8) (size 9 to 14) (size 15 to 20)
#    0.000    1.429    1.429    2.143    6.000    2.857 
#    7.714    0.000    0.000    0.000    0.000    0.000 
#    0.000    0.000    0.000    0.000    0.000    0.000 
#
# Total GULP energy -156836.749198 kJ/mol
# GULP energy per Si atom -5601.312471 kJ/mol
# Density = 2.516632 g / cm^3
# Si number density = 25.223729 Si / 1000 Ang^3
#
#
#
# Elastic Constant Matrix: (Units=GPa)
#
#
# Indices 1 2 3 4 5 6 
#
# 1 85.3243 42.4853 26.1812 0.0000 -8.2372 0.0000
# 2 42.4853 177.9340 60.0686 0.0000 -18.4697 0.0000
# 3 26.1812 60.0686 129.0659 0.0000 -16.6294 0.0000
# 4 0.0000 0.0000 0.0000 33.6100 0.0000 31.0456
# 5 -8.2372 -18.4697 -16.6294 0.0000 24.3779 0.0000
# 6 0.0000 0.0000 0.0000 31.0456 0.0000 11.1693
#
#
#
# Elastic Compliance Matrix: (Units=1/GPa)
#
#
# Indices 1 2 3 4 5 6 
#
# 1 0.013596 -0.002625 -0.001316 0.000000 0.001707 0.000000
# 2 -0.002625 0.007413 -0.002531 0.000000 0.003003 0.000000
# 3 -0.001316 -0.002531 0.009745 0.000000 0.004285 0.000000
# 4 0.000000 0.000000 0.000000 -0.018982 0.000000 0.052760
# 5 0.001707 0.003003 0.004285 0.000000 0.046796 0.000000
# 6 0.000000 0.000000 0.000000 0.052760 0.000000 -0.057118
#
#
# Mechanical properties :
#
#
# Convention : Reuss Voigt Hill
#
# Bulk Modulus (GPa) = 56.14797 72.19938 64.17368
# Shear Modulus (GPa) = 245.94468 31.40405 138.67436
#
# Velocity S-wave (km/s) = 9.88519 3.53231 7.42274
# Velocity P-wave (km/s) = 12.35304 6.73216 9.94785
#
# Compressibility (1/GPa) = 0.01781008
#
# Stress axis : x y z
#
# Youngs Moduli (GPa) = 73.55318 134.90207 102.61733
#
# Poissons Ratio (x) = 0.35406 0.13508
# Poissons Ratio (y) = 0.19305 0.25969
# Poissons Ratio (z) = 0.09682 0.34139
#
# Static dielectric constant tensor:
#      x y z
#    x 2.097540 0.000000 0.055460 
#    y 0.000000 1.958050 0.000000 
#    z 0.055460 0.000000 2.000270 
# 
# From -- ./inp_files/136450.got.cif
#   From: 2010.05.17/outbox.cif.g08.bks.cpg/sg15_69_cif.got.tgz:136450.got - 2010.06.03 18:47:42.
