data_PCOD9293491
_publ_section_title
;
Structure prediction by ZEFSAII (Michael W. Deem and Ramdas Pophale) SiO2 
 PCOD9293491
Probable space group: C 2/C
;
_chemical_formula_sum "Si O2"
_cell_formula_units_Z 56
_cell_length_a 8.578461
_cell_length_b 12.116926
_cell_length_c 28.023691
_cell_angle_alpha 90.000000
_cell_angle_beta 71.438455
_cell_angle_gamma 90.000000
_cell_volume 2761.387712
_symmetry_space_group_name_H-M "C 2/C"
_symmetry_group_IT_number 15
_symmetry_cell_setting 'monoclinic'
loop_
_space_group_symop_operation_xyz
x,y,z
-x,y,1/2-z
-x,-y,-z
x,-y,1/2+z
1/2+x,1/2+y,z
1/2-x,1/2+y,1/2-z
1/2-x,1/2-y,-z
1/2+x,1/2-y,1/2+z
loop_
_atom_site_type_symbol
_atom_site_label
_atom_site_fract_x
_atom_site_fract_y
_atom_site_fract_z
Si Si1 0.317032 0.287150 0.085167
Si Si2 0.396826 0.167804 0.499867
Si Si3 0.676511 0.543733 0.999847
Si Si4 0.210839 0.129289 0.812512
Si Si5 0.000000 0.208712 0.250000
Si Si6 0.500000 0.714850 0.750000
Si Si7 0.218233 0.122970 0.313735
Si Si8 0.003241 0.789291 0.585013
O O1 0.448946 0.201841 0.049242
O O2 0.280486 0.378231 0.048325
O O3 0.376001 0.336492 0.129243
O O4 0.129505 0.251733 0.112686
O O5 0.250000 0.250000 0.500000
O O6 0.447425 0.203218 0.549060
O O7 0.314793 0.046828 0.499758
O O8 0.500000 0.500000 0.000000
O O9 0.621745 0.621642 0.048167
O O10 0.356686 0.212432 0.784400
O O11 0.081053 0.141323 0.782771
O O12 0.271230 0.004043 0.810381
O O13 0.083146 0.139041 0.284729
O O14 0.635722 0.794462 0.713483
O O15 0.146509 0.156556 0.372459
#
# Coordination Sequence:
#
# PCOD9293491 Si02
#       8
#     8   8   8   8   4   4   8   8
#     4  11  24  40  62  95 128 169 215 262 318 385
#     4  11  23  39  62  91 132 169 213 260 309 378
#     4  11  21  39  62  91 128 173 207 256 314 374
#     4  11  23  42  68  92 126 166 211 266 327 383
#     4  10  22  46  64  94 124 162 206 274 328 374
#     4  10  26  42  64  98 124 158 222 270 320 394
#     4  11  23  42  68  92 126 166 211 266 327 383
#     4  11  24  40  62  95 128 169 215 262 318 385
#
# _framework density 20.279658000000001
#
# number of rings (size 3 to 8) (size 9 to 14) (size 15 to 20)
#    0.000    1.143    4.286    3.429    2.000    2.286 
#    0.000    0.000    0.000    0.000    0.000    0.000 
#    0.000    0.000    0.000    0.000    0.000    0.000 
#
# Total GULP energy -156114.969203 kJ/mol
# GULP energy per Si atom -5575.534614 kJ/mol
# Density = 2.023350 g / cm^3
# Si number density = 20.279658 Si / 1000 Ang^3
#
#
#
# Elastic Constant Matrix: (Units=GPa)
#
#
# Indices 1 2 3 4 5 6 
#
# 1 89.9429 12.2781 14.7894 0.0000 5.1052 0.0000
# 2 12.2781 81.6110 32.3216 0.0000 -2.1943 0.0000
# 3 14.7894 32.3216 118.8921 0.0000 8.1528 0.0000
# 4 0.0000 0.0000 0.0000 16.5032 0.0000 -3.4111
# 5 5.1052 -2.1943 8.1528 0.0000 22.9183 0.0000
# 6 0.0000 0.0000 0.0000 -3.4111 0.0000 37.4390
#
#
#
# Elastic Compliance Matrix: (Units=1/GPa)
#
#
# Indices 1 2 3 4 5 6 
#
# 1 0.011599 -0.001461 -0.000880 0.000000 -0.002411 0.000000
# 2 -0.001461 0.014082 -0.003855 0.000000 0.003045 0.000000
# 3 -0.000880 -0.003855 0.009820 0.000000 -0.003666 0.000000
# 4 0.000000 0.000000 0.000000 0.061757 0.000000 0.005627
# 5 -0.002411 0.003045 -0.003666 0.000000 0.045766 0.000000
# 6 0.000000 0.000000 0.000000 0.005627 0.000000 0.027223
#
#
# Mechanical properties :
#
#
# Convention : Reuss Voigt Hill
#
# Bulk Modulus (GPa) = 43.27623 45.46933 44.37278
# Shear Modulus (GPa) = 26.26835 30.77591 28.52213
#
# Velocity S-wave (km/s) = 3.60294 3.89983 3.75432
# Velocity P-wave (km/s) = 6.22047 6.53820 6.38132
#
# Compressibility (1/GPa) = 0.02310737
#
# Stress axis : x y z
#
# Youngs Moduli (GPa) = 86.21270 71.01349 101.83311
#
# Poissons Ratio (x) = 0.10377 0.08965
# Poissons Ratio (y) = 0.12598 0.39260
# Poissons Ratio (z) = 0.07589 0.27378
#
# Static dielectric constant tensor:
#      x y z
#    x 1.913350 0.000000 -0.012600 
#    y 0.000000 1.809530 0.000000 
#    z -0.012600 0.000000 1.666510 
# 
# From -- ./inp_files/287974.got.cif
#   From: 2010.05.17/outbox.cif.g08.bks.cpg/sg15_144_cif.got.tgz:287974.got - 2010.06.03 18:47:42.
