data_PCOD9293922
_publ_section_title
;
Structure prediction by ZEFSAII (Michael W. Deem and Ramdas Pophale) SiO2 
 PCOD9293922
Probable space group: C 2/C
;
_chemical_formula_sum "Si O2"
_cell_formula_units_Z 60
_cell_length_a 25.507933
_cell_length_b 13.300844
_cell_length_c 18.326315
_cell_angle_alpha 90.000000
_cell_angle_beta 28.937591
_cell_angle_gamma 90.000000
_cell_volume 3008.474520
_symmetry_space_group_name_H-M "C 2/C"
_symmetry_group_IT_number 15
_symmetry_cell_setting 'monoclinic'
loop_
_space_group_symop_operation_xyz
x,y,z
-x,y,1/2-z
-x,-y,-z
x,-y,1/2+z
1/2+x,1/2+y,z
1/2-x,1/2+y,1/2-z
1/2-x,1/2-y,-z
1/2+x,1/2-y,1/2+z
loop_
_atom_site_type_symbol
_atom_site_label
_atom_site_fract_x
_atom_site_fract_y
_atom_site_fract_z
Si Si1 0.377994 0.382777 0.555001
Si Si2 0.500000 0.838694 0.750000
Si Si3 0.804787 0.671074 0.580199
Si Si4 0.775167 0.314442 0.396371
Si Si5 0.673435 0.612985 0.877896
Si Si6 0.071820 0.159388 0.343590
Si Si7 0.106564 0.167255 0.711879
Si Si8 0.883886 0.037665 0.354914
O O1 0.327339 0.287051 0.575569
O O2 0.339293 0.495567 0.583898
O O3 0.370023 0.366934 0.651700
O O4 0.504515 0.372029 0.382163
O O5 0.589665 0.882088 0.584866
O O6 0.573728 0.769106 0.712509
O O7 0.761499 0.619742 0.706627
O O8 0.710004 0.672226 0.636492
O O9 0.750000 0.250000 0.500000
O O10 0.704955 0.314028 0.406898
O O11 0.889907 0.269714 0.230753
O O12 0.731790 0.422025 0.475959
O O13 0.556615 0.648756 0.991640
O O14 0.106387 0.080325 0.239038
O O15 0.120787 0.081331 0.634423
O O16 0.000000 0.071249 0.250000
#
# Coordination Sequence:
#
# PCOD9293922 Si02
#       8
#     8   4   8   8   8   8   8   8
#     4  11  22  38  66 102 122 157 227 267 312 383
#     4  10  24  40  56  90 126 160 212 256 318 378
#     4  11  24  39  65  94 129 166 210 274 322 374
#     4  10  23  36  57  94 136 165 199 266 325 378
#     4  12  21  40  68  94 124 170 214 270 323 373
#     4  11  20  36  60  95 128 155 207 265 316 375
#     4  11  20  38  65  92 122 163 208 273 310 367
#     4  11  19  34  61  95 124 164 212 259 311 376
#
# _framework density 19.943663000000001
#
# number of rings (size 3 to 8) (size 9 to 14) (size 15 to 20)
#    0.000    1.067    6.000    1.600    1.867    0.000 
#    0.000    0.000    2.933    4.000    1.733    0.000 
#    0.000    0.000    0.000    0.000    0.000    0.000 
#
# Total GULP energy -167040.846934 kJ/mol
# GULP energy per Si atom -5568.028231 kJ/mol
# Density = 1.989827 g / cm^3
# Si number density = 19.943663 Si / 1000 Ang^3
#
#
#
# Elastic Constant Matrix: (Units=GPa)
#
#
# Indices 1 2 3 4 5 6 
#
# 1 85.7822 10.0690 18.2634 0.0000 10.6923 0.0000
# 2 10.0690 46.2205 39.2642 0.0000 -9.8421 0.0000
# 3 18.2634 39.2642 107.6402 0.0000 9.0005 0.0000
# 4 0.0000 0.0000 0.0000 26.2141 0.0000 2.5225
# 5 10.6923 -9.8421 9.0005 0.0000 28.0398 0.0000
# 6 0.0000 0.0000 0.0000 2.5225 0.0000 23.8848
#
#
#
# Elastic Compliance Matrix: (Units=1/GPa)
#
#
# Indices 1 2 3 4 5 6 
#
# 1 0.012950 -0.003956 -0.000231 0.000000 -0.006253 0.000000
# 2 -0.003956 0.040294 -0.015759 0.000000 0.020711 0.000000
# 3 -0.000231 -0.015759 0.015961 0.000000 -0.010567 0.000000
# 4 0.000000 0.000000 0.000000 0.038539 0.000000 -0.004070
# 5 -0.006253 0.020711 -0.010567 0.000000 0.048709 0.000000
# 6 0.000000 0.000000 0.000000 -0.004070 0.000000 0.042298
#
#
# Mechanical properties :
#
#
# Convention : Reuss Voigt Hill
#
# Bulk Modulus (GPa) = 34.11384 41.64846 37.88115
# Shear Modulus (GPa) = 20.12755 27.09748 23.61252
#
# Velocity S-wave (km/s) = 3.18027 3.69006 3.44461
# Velocity P-wave (km/s) = 5.53423 6.25170 5.90387
#
# Compressibility (1/GPa) = 0.02931361
#
# Stress axis : x y z
#
# Youngs Moduli (GPa) = 77.21754 24.81737 62.65113
#
# Poissons Ratio (x) = 0.09818 0.01450
# Poissons Ratio (y) = 0.30548 0.98731
# Poissons Ratio (z) = 0.01787 0.39109
#
# Static dielectric constant tensor:
#      x y z
#    x 1.731420 0.000000 0.056160 
#    y 0.000000 1.730920 0.000000 
#    z 0.056160 0.000000 1.788040 
# 
# From -- ./inp_files/219586.got.cif
#   From: 2010.05.17/outbox.cif.g08.bks.cpg/sg15_110_cif.got.tgz:219586.got - 2010.06.03 18:47:42.
