data_PCOD9293941
_publ_section_title
;
Structure prediction by ZEFSAII (Michael W. Deem and Ramdas Pophale) SiO2 
 PCOD9293941
Probable space group: C 2/C
;
_chemical_formula_sum "Si O2"
_cell_formula_units_Z 40
_cell_length_a 16.530986
_cell_length_b 7.380846
_cell_length_c 17.656097
_cell_angle_alpha 90.000000
_cell_angle_beta 67.232750
_cell_angle_gamma 90.000000
_cell_volume 1986.416579
_symmetry_space_group_name_H-M "C 2/C"
_symmetry_group_IT_number 15
_symmetry_cell_setting 'monoclinic'
loop_
_space_group_symop_operation_xyz
x,y,z
-x,y,1/2-z
-x,-y,-z
x,-y,1/2+z
1/2+x,1/2+y,z
1/2-x,1/2+y,1/2-z
1/2-x,1/2-y,-z
1/2+x,1/2-y,1/2+z
loop_
_atom_site_type_symbol
_atom_site_label
_atom_site_fract_x
_atom_site_fract_y
_atom_site_fract_z
Si Si1 0.419726 0.395891 0.222974
Si Si2 0.224205 0.158517 0.616262
Si Si3 0.115775 0.825654 0.884960
Si Si4 0.964162 0.479837 0.181688
Si Si5 0.886268 0.362429 0.969124
O O1 0.500000 0.442988 0.250000
O O2 0.329870 0.440632 0.299682
O O3 0.420571 0.500318 0.143740
O O4 0.424839 0.180136 0.208161
O O5 0.281106 0.324319 0.630881
O O6 0.154567 0.237094 0.581854
O O7 0.301192 0.053568 0.543023
O O8 0.101394 0.661539 0.831391
O O9 0.072526 0.763360 0.979994
O O10 0.000000 0.417645 0.250000
O O11 0.045077 0.505892 0.094203
#
# Coordination Sequence:
#
# PCOD9293941 Si02
#       5
#     8   8   8   8   8
#     4  11  22  39  59  88 121 154 193 244 298 345
#     4   9  20  38  60  84 121 157 188 246 299 338
#     4  10  23  36  64  87 113 152 209 237 277 364
#     4  11  21  38  63  86 120 161 190 242 302 342
#     4   9  19  40  61  84 123 159 189 246 300 342
#
# _framework density 20.136763999999999
#
# number of rings (size 3 to 8) (size 9 to 14) (size 15 to 20)
#    1.200    0.800    4.000    1.200    2.800    0.800 
#    0.000    0.000    0.000    7.200    0.000    0.000 
#    0.000    0.000    0.000    0.000    0.000    0.000 
#
# Total GULP energy -111353.529287 kJ/mol
# GULP energy per Si atom -5567.676464 kJ/mol
# Density = 2.009093 g / cm^3
# Si number density = 20.136764 Si / 1000 Ang^3
#
#
#
# Elastic Constant Matrix: (Units=GPa)
#
#
# Indices 1 2 3 4 5 6 
#
# 1 33.5061 8.2095 40.2286 0.0000 15.2070 0.0000
# 2 8.2095 33.3263 19.5473 -0.0001 18.8945 0.0000
# 3 40.2286 19.5473 75.4207 0.0000 6.3358 0.0000
# 4 0.0000 -0.0001 0.0000 -16.9123 0.0000 -7.7340
# 5 15.2070 18.8945 6.3358 0.0000 58.8074 0.0000
# 6 0.0000 0.0000 0.0000 -7.7340 0.0000 6.9080
#
#
#
# Elastic Compliance Matrix: (Units=1/GPa)
#
#
# Indices 1 2 3 4 5 6 
#
# 1 0.121423 0.029990 -0.069722 0.000000 -0.033523 0.000000
# 2 0.029990 0.050599 -0.027341 0.000000 -0.021067 0.000000
# 3 -0.069722 -0.027341 0.055787 0.000000 0.020804 0.000000
# 4 0.000000 0.000000 0.000000 -0.039107 0.000000 -0.043783
# 5 -0.033523 -0.021067 0.020804 0.000000 0.030201 0.000000
# 6 0.000000 0.000000 0.000000 -0.043783 0.000000 0.095741
#
#
# Mechanical properties :
#
#
# Convention : Reuss Voigt Hill
#
# Bulk Modulus (GPa) = 10.67665 30.91376 20.79520
# Shear Modulus (GPa) = 10.41645 14.71181 12.56413
#
# Velocity S-wave (km/s) = 2.27686 2.70588 2.50059
# Velocity P-wave (km/s) = 3.49653 5.01474 4.32281
#
# Compressibility (1/GPa) = 0.09366231
#
# Stress axis : x y z
#
# Youngs Moduli (GPa) = 8.23569 19.76322 17.92547
#
# Poissons Ratio (x) = -0.59270 1.24980
# Poissons Ratio (y) = -0.24699 0.49009
# Poissons Ratio (z) = 0.57421 0.54034
#
# Static dielectric constant tensor:
#      x y z
#    x 1.748800 0.000000 -0.008630 
#    y 0.000000 1.689380 0.000000 
#    z -0.008630 0.000000 1.762190 
# 
# From -- ./inp_files/208225.got.cif
#   From: 2010.05.17/outbox.cif.g08.bks.cpg/sg15_105_cif.got.tgz:208225.got - 2010.06.03 18:47:42.
