data_PCOD9293114
_publ_section_title
;
Structure prediction by ZEFSAII (Michael W. Deem and Ramdas Pophale) SiO2 
 PCOD9293114
Probable space group: C 2/C
;
_chemical_formula_sum "Si O2"
_cell_formula_units_Z 40
_cell_length_a 7.426978
_cell_length_b 18.317543
_cell_length_c 13.762322
_cell_angle_alpha 90.000000
_cell_angle_beta 122.384772
_cell_angle_gamma 90.000000
_cell_volume 1581.085864
_symmetry_space_group_name_H-M "C 2/C"
_symmetry_group_IT_number 15
_symmetry_cell_setting 'monoclinic'
loop_
_space_group_symop_operation_xyz
x,y,z
-x,y,1/2-z
-x,-y,-z
x,-y,1/2+z
1/2+x,1/2+y,z
1/2-x,1/2+y,1/2-z
1/2-x,1/2-y,-z
1/2+x,1/2-y,1/2+z
loop_
_atom_site_type_symbol
_atom_site_label
_atom_site_fract_x
_atom_site_fract_y
_atom_site_fract_z
Si Si1 0.159555 0.665344 0.701957
Si Si2 0.220935 0.820002 0.755401
Si Si3 0.251170 0.035256 0.679299
Si Si4 0.935008 0.098037 0.457056
Si Si5 0.539023 0.086603 0.480406
O O1 0.298158 0.736190 0.768192
O O2 0.287563 0.589873 0.745413
O O3 0.042535 0.649056 0.566292
O O4 0.000000 0.662000 0.750000
O O5 0.140050 0.831967 0.621476
O O6 0.000000 0.821358 0.750000
O O7 0.378848 0.877788 0.852441
O O8 0.500000 0.014234 0.750000
O O9 0.169137 0.081884 0.562704
O O10 0.111475 0.963951 0.636328
O O11 0.769748 0.085547 0.495967
O O12 0.500000 0.000000 0.500000
#
# Coordination Sequence:
#
# PCOD9293114 Si02
#       5
#     8   8   8   8   8
#     4  10  24  44  71 101 144 188 236 287 357 421
#     4  11  27  43  73 105 143 188 237 288 357 428
#     4  10  22  44  73  98 142 181 229 295 345 418
#     4  11  25  45  72 107 141 182 238 293 352 419
#     4  12  26  47  75 104 142 192 238 294 355 422
#
# _framework density 25.299071000000001
#
# number of rings (size 3 to 8) (size 9 to 14) (size 15 to 20)
#    0.000    1.200    0.000    5.400   14.000    3.200 
#    3.600    0.000    0.000    0.000    0.000    0.000 
#    0.000    0.000    0.000    0.000    0.000    0.000 
#
# Total GULP energy -111415.483257 kJ/mol
# GULP energy per Si atom -5570.774163 kJ/mol
# Density = 2.524149 g / cm^3
# Si number density = 25.299071 Si / 1000 Ang^3
#
#
#
# Elastic Constant Matrix: (Units=GPa)
#
#
# Indices 1 2 3 4 5 6 
#
# 1 110.2151 10.8655 16.2964 0.0000 -2.0896 0.0000
# 2 10.8655 83.5334 15.0371 0.0000 3.0092 0.0000
# 3 16.2964 15.0371 147.4885 0.0000 16.5362 0.0000
# 4 0.0000 0.0000 0.0000 28.0964 0.0000 -1.6450
# 5 -2.0896 3.0092 16.5362 0.0000 43.5318 0.0000
# 6 0.0000 0.0000 0.0000 -1.6450 0.0000 2.5137
#
#
#
# Elastic Compliance Matrix: (Units=1/GPa)
#
#
# Indices 1 2 3 4 5 6 
#
# 1 0.009347 -0.001064 -0.001027 0.000000 0.000912 0.000000
# 2 -0.001064 0.012322 -0.001084 0.000000 -0.000491 0.000000
# 3 -0.001027 -0.001084 0.007313 0.000000 -0.002752 0.000000
# 4 0.000000 0.000000 0.000000 0.037010 0.000000 0.024219
# 5 0.000912 -0.000491 -0.002752 0.000000 0.024095 0.000000
# 6 0.000000 0.000000 0.000000 0.024219 0.000000 0.413672
#
#
# Mechanical properties :
#
#
# Convention : Reuss Voigt Hill
#
# Bulk Modulus (GPa) = 44.18154 47.29278 45.73716
# Shear Modulus (GPa) = 9.65900 34.76424 22.21162
#
# Velocity S-wave (km/s) = 1.95607 3.71095 2.96626
# Velocity P-wave (km/s) = 4.75429 6.09062 5.46346
#
# Compressibility (1/GPa) = 0.02263389
#
# Stress axis : x y z
#
# Youngs Moduli (GPa) = 106.98467 81.15288 136.74874
#
# Poissons Ratio (x) = 0.08634 0.14039
# Poissons Ratio (y) = 0.11382 0.14819
# Poissons Ratio (z) = 0.10983 0.08795
#
# Static dielectric constant tensor:
#      x y z
#    x 2.092070 0.000000 -0.192620 
#    y 0.000000 2.085030 0.000000 
#    z -0.192620 0.000000 2.387660 
# 
# From -- ./inp_files/136297.got.cif
#   From: 2010.05.17/outbox.cif.g08.bks.cpg/sg15_69_cif.got.tgz:136297.got - 2010.06.03 18:47:42.
