data_PCOD9293260
_publ_section_title
;
Structure prediction by ZEFSAII (Michael W. Deem and Ramdas Pophale) SiO2 
 PCOD9293260
Probable space group: C 2/C
;
_chemical_formula_sum "Si O2"
_cell_formula_units_Z 52
_cell_length_a 12.435894
_cell_length_b 14.072402
_cell_length_c 15.698310
_cell_angle_alpha 90.000000
_cell_angle_beta 116.189994
_cell_angle_gamma 90.000000
_cell_volume 2465.204634
_symmetry_space_group_name_H-M "C 2/C"
_symmetry_group_IT_number 15
_symmetry_cell_setting 'monoclinic'
loop_
_space_group_symop_operation_xyz
x,y,z
-x,y,1/2-z
-x,-y,-z
x,-y,1/2+z
1/2+x,1/2+y,z
1/2-x,1/2+y,1/2-z
1/2-x,1/2-y,-z
1/2+x,1/2-y,1/2+z
loop_
_atom_site_type_symbol
_atom_site_label
_atom_site_fract_x
_atom_site_fract_y
_atom_site_fract_z
Si Si1 0.415387 0.666785 0.337583
Si Si2 0.213125 0.468179 0.375816
Si Si3 0.730666 0.047312 0.200881
Si Si4 0.620440 0.510105 0.413255
Si Si5 0.000000 0.329340 0.250000
Si Si6 0.477136 0.122349 0.143668
Si Si7 0.378116 0.701602 0.522751
O O1 0.294189 0.647465 0.242501
O O2 0.507109 0.578450 0.356219
O O3 0.469471 0.761533 0.317804
O O4 0.386638 0.680236 0.425996
O O5 0.262570 0.491441 0.299068
O O6 0.314826 0.446593 0.479984
O O7 0.142915 0.558979 0.391845
O O8 0.110292 0.392610 0.320259
O O9 0.788641 0.011109 0.134734
O O10 0.587953 0.058459 0.150536
O O11 0.595349 0.399291 0.423120
O O12 0.500000 0.149582 0.250000
O O13 0.467494 0.215673 0.083790
O O14 0.250000 0.750000 0.500000
#
# Coordination Sequence:
#
# PCOD9293260 Si02
#       7
#     8   8   8   8   4   8   8
#     4  12  27  49  64 106 147 183 235 292 353 426
#     4  11  24  45  72 104 140 181 235 294 346 416
#     4  11  23  47  70  97 146 182 232 291 350 415
#     4  12  26  46  72 103 145 185 233 294 357 415
#     4  12  26  46  74  96 146 184 230 286 356 414
#     4  10  22  45  67 106 137 179 237 288 346 423
#     4  12  25  44  73 104 138 185 232 292 351 421
#
# _framework density 21.093584
#
# number of rings (size 3 to 8) (size 9 to 14) (size 15 to 20)
#    0.000    0.615    6.923    1.385    4.308    3.692 
#    0.000    0.000    0.000    0.000    0.000    0.000 
#    0.000    0.000    0.000    0.000    0.000    0.000 
#
# Total GULP energy -145299.199035 kJ/mol
# GULP energy per Si atom -5588.430732 kJ/mol
# Density = 2.104557 g / cm^3
# Si number density = 21.093584 Si / 1000 Ang^3
#
#
#
# Elastic Constant Matrix: (Units=GPa)
#
#
# Indices 1 2 3 4 5 6 
#
# 1 83.1150 16.5736 22.8150 0.0000 -23.4143 0.0000
# 2 16.5736 96.6563 16.9825 0.0000 -12.1923 0.0000
# 3 22.8150 16.9825 63.5935 0.0000 -20.1547 0.0000
# 4 0.0000 0.0000 0.0000 -10.0548 0.0000 8.2697
# 5 -23.4143 -12.1923 -20.1547 0.0000 48.7666 0.0000
# 6 0.0000 0.0000 0.0000 8.2697 0.0000 22.0538
#
#
#
# Elastic Compliance Matrix: (Units=1/GPa)
#
#
# Indices 1 2 3 4 5 6 
#
# 1 0.014691 -0.001272 -0.003218 0.000000 0.005406 0.000000
# 2 -0.001272 0.011096 -0.002096 0.000000 0.001297 0.000000
# 3 -0.003218 -0.002096 0.019313 0.000000 0.005913 0.000000
# 4 0.000000 0.000000 0.000000 -0.076013 0.000000 0.028503
# 5 0.005406 0.001297 0.005913 0.000000 0.025869 0.000000
# 6 0.000000 0.000000 0.000000 0.028503 0.000000 0.034656
#
#
# Mechanical properties :
#
#
# Convention : Reuss Voigt Hill
#
# Bulk Modulus (GPa) = 31.31895 39.56744 35.44319
# Shear Modulus (GPa) = 93.58686 24.61937 59.10312
#
# Velocity S-wave (km/s) = 6.66812 3.42006 5.29909
# Velocity P-wave (km/s) = 8.61190 5.86469 7.36748
#
# Compressibility (1/GPa) = 0.03192955
#
# Stress axis : x y z
#
# Youngs Moduli (GPa) = 68.06747 90.12360 51.77881
#
# Poissons Ratio (x) = 0.11462 0.16661
# Poissons Ratio (y) = 0.08657 0.10851
# Poissons Ratio (z) = 0.21903 0.18887
#
# Static dielectric constant tensor:
#      x y z
#    x 1.848700 0.000000 0.045640 
#    y 0.000000 1.756460 0.000000 
#    z 0.045640 0.000000 1.758190 
# 
# From -- ./inp_files/144345.got.cif
#   From: 2010.05.17/outbox.cif.g08.bks.cpg/sg15_73_cif.got.tgz:144345.got - 2010.06.03 18:47:42.
