data_PCOD9293825
_publ_section_title
;
Structure prediction by ZEFSAII (Michael W. Deem and Ramdas Pophale) SiO2 
 PCOD9293825
Probable space group: C 2/C
;
_chemical_formula_sum "Si O2"
_cell_formula_units_Z 48
_cell_length_a 28.413293
_cell_length_b 6.262263
_cell_length_c 18.459198
_cell_angle_alpha 90.000000
_cell_angle_beta 137.050612
_cell_angle_gamma 90.000000
_cell_volume 2237.882456
_symmetry_space_group_name_H-M "C 2/C"
_symmetry_group_IT_number 15
_symmetry_cell_setting 'monoclinic'
loop_
_space_group_symop_operation_xyz
x,y,z
-x,y,1/2-z
-x,-y,-z
x,-y,1/2+z
1/2+x,1/2+y,z
1/2-x,1/2+y,1/2-z
1/2-x,1/2-y,-z
1/2+x,1/2-y,1/2+z
loop_
_atom_site_type_symbol
_atom_site_label
_atom_site_fract_x
_atom_site_fract_y
_atom_site_fract_z
Si Si1 0.633637 0.356025 0.748687
Si Si2 0.715671 0.246451 0.110667
Si Si3 0.606703 0.539255 0.577381
Si Si4 0.002221 0.392887 0.082792
Si Si5 0.388758 0.854232 0.524227
Si Si6 0.312645 0.589272 0.548604
O O1 0.703877 0.287149 0.788343
O O2 0.598308 0.519549 0.653325
O O3 0.579219 0.165249 0.693611
O O4 0.658237 0.464200 0.849798
O O5 0.677629 0.343851 0.136951
O O6 0.708963 0.412491 0.035887
O O7 0.672836 0.029237 0.048098
O O8 0.544381 0.678964 0.475730
O O9 0.611812 0.311658 0.543471
O O10 0.961727 0.531465 0.096351
O O11 0.000000 0.500000 0.000000
O O12 0.373409 0.723074 0.579071
O O13 0.250000 0.750000 0.500000
#
# Coordination Sequence:
#
# PCOD9293825 Si02
#       6
#     8   8   8   8   8   8
#     4  12  24  40  73 102 132 182 238 277 358 438
#     4  10  24  43  68 102 135 175 235 290 354 420
#     4  10  24  43  68 102 135 175 235 290 354 420
#     4  11  24  45  70  97 142 181 232 295 354 425
#     4  10  22  48  67  94 148 180 218 311 352 408
#     4  11  24  45  70  97 142 181 232 295 354 425
#
# _framework density 21.44885
#
# number of rings (size 3 to 8) (size 9 to 14) (size 15 to 20)
#    0.000    1.333    3.333    1.000    2.333    1.333 
#    0.000    9.167    0.000    0.000    0.000    0.000 
#    0.000    0.000    0.000    0.000    0.000    0.000 
#
# Total GULP energy -134099.193541 kJ/mol
# GULP energy per Si atom -5587.466398 kJ/mol
# Density = 2.140003 g / cm^3
# Si number density = 21.448850 Si / 1000 Ang^3
#
#
#
# Elastic Constant Matrix: (Units=GPa)
#
#
# Indices 1 2 3 4 5 6 
#
# 1 108.7855 32.1398 41.0022 0.0000 21.5838 0.0000
# 2 32.1398 87.0069 22.5859 0.0001 13.8740 0.0001
# 3 41.0022 22.5859 53.2068 0.0000 18.7676 0.0000
# 4 0.0000 0.0001 0.0000 21.7295 0.0001 -0.8681
# 5 21.5838 13.8740 18.7676 0.0001 44.1752 0.0001
# 6 0.0000 0.0001 0.0000 -0.8681 0.0001 47.3199
#
#
#
# Elastic Compliance Matrix: (Units=1/GPa)
#
#
# Indices 1 2 3 4 5 6 
#
# 1 0.013621 -0.002424 -0.008691 0.000000 -0.002201 0.000000
# 2 -0.002424 0.013505 -0.003277 0.000000 -0.001665 0.000000
# 3 -0.008691 -0.003277 0.029433 0.000000 -0.007229 0.000000
# 4 0.000000 0.000000 0.000000 0.046054 0.000000 0.000845
# 5 -0.002201 -0.001665 -0.007229 0.000000 0.027307 0.000000
# 6 0.000000 0.000000 0.000000 0.000845 0.000000 0.021148
#
#
# Mechanical properties :
#
#
# Convention : Reuss Voigt Hill
#
# Bulk Modulus (GPa) = 36.00536 48.93943 42.47240
# Shear Modulus (GPa) = 26.43936 32.86301 29.65118
#
# Velocity S-wave (km/s) = 3.51475 3.91852 3.72212
# Velocity P-wave (km/s) = 5.77013 6.58327 6.19006
#
# Compressibility (1/GPa) = 0.02777364
#
# Stress axis : x y z
#
# Youngs Moduli (GPa) = 73.41491 74.04609 33.97540
#
# Poissons Ratio (x) = 0.17952 0.29528
# Poissons Ratio (y) = 0.17799 0.11135
# Poissons Ratio (z) = 0.63805 0.24267
#
# Static dielectric constant tensor:
#      x y z
#    x 1.773710 0.000000 0.005810 
#    y 0.000000 1.849600 0.000000 
#    z 0.005810 0.000000 1.771810 
# 
# From -- ./inp_files/258560.got.cif
#   From: 2010.05.17/outbox.cif.g08.bks.cpg/sg15_130_cif.got.tgz:258560.got - 2010.06.03 18:47:42.
