data_PCOD9293123
_publ_section_title
;
Structure prediction by ZEFSAII (Michael W. Deem and Ramdas Pophale) SiO2 
 PCOD9293123
Probable space group: C 2/C
;
_chemical_formula_sum "Si O2"
_cell_formula_units_Z 60
_cell_length_a 8.082242
_cell_length_b 13.086414
_cell_length_c 27.431528
_cell_angle_alpha 90.000000
_cell_angle_beta 93.798212
_cell_angle_gamma 90.000000
_cell_volume 2894.993171
_symmetry_space_group_name_H-M "C 2/C"
_symmetry_group_IT_number 15
_symmetry_cell_setting 'monoclinic'
loop_
_space_group_symop_operation_xyz
x,y,z
-x,y,1/2-z
-x,-y,-z
x,-y,1/2+z
1/2+x,1/2+y,z
1/2-x,1/2+y,1/2-z
1/2-x,1/2-y,-z
1/2+x,1/2-y,1/2+z
loop_
_atom_site_type_symbol
_atom_site_label
_atom_site_fract_x
_atom_site_fract_y
_atom_site_fract_z
Si Si1 0.043690 0.982164 0.844351
Si Si2 0.122318 0.240236 0.348334
Si Si3 0.176164 0.751542 0.052482
Si Si4 0.500000 0.049628 0.750000
Si Si5 0.544251 0.944556 0.949704
Si Si6 0.589651 0.512749 0.553078
Si Si7 0.082369 0.449470 0.151243
Si Si8 0.154914 0.146822 0.718523
O O1 0.049785 0.865283 0.827049
O O2 0.221033 0.036649 0.841706
O O3 0.006439 0.979148 0.900958
O O4 0.910038 0.048538 0.812768
O O5 0.188532 0.223823 0.404272
O O6 0.282761 0.270445 0.319301
O O7 0.994548 0.335201 0.346720
O O8 0.124115 0.867342 0.061482
O O9 0.030382 0.668703 0.051782
O O10 0.250000 0.750000 0.000000
O O11 0.494802 0.994708 0.802307
O O12 0.328887 0.114997 0.747365
O O13 0.740346 0.950516 0.947260
O O14 0.471185 0.003814 0.901475
O O15 0.500000 0.000000 0.000000
O O16 0.500000 0.500000 0.500000
O O17 0.000000 0.176407 0.750000
#
# Coordination Sequence:
#
# PCOD9293123 Si02
#       8
#     8   8   8   4   8   8   8   8
#     4  12  24  45  72 106 142 185 241 294 358 431
#     4  11  24  46  70 104 142 185 237 297 357 425
#     4  12  22  41  69  97 137 183 235 293 357 427
#     4  10  22  44  74 102 146 192 230 304 356 412
#     4  12  23  42  71 100 138 191 233 292 364 424
#     4  12  25  41  66 103 143 183 235 295 355 433
#     4  11  22  43  72  98 141 186 234 295 358 419
#     4  11  23  48  72 103 147 187 242 299 360 423
#
# _framework density 20.725435999999998
#
# number of rings (size 3 to 8) (size 9 to 14) (size 15 to 20)
#    0.000    0.533    6.667    2.400    0.000    1.600 
#    6.000    0.000    0.000    0.000    0.000    0.000 
#    0.000    0.000    0.000    0.000    0.000    0.000 
#
# Total GULP energy -167603.729068 kJ/mol
# GULP energy per Si atom -5586.790969 kJ/mol
# Density = 2.067826 g / cm^3
# Si number density = 20.725436 Si / 1000 Ang^3
#
#
#
# Elastic Constant Matrix: (Units=GPa)
#
#
# Indices 1 2 3 4 5 6 
#
# 1 135.5127 42.5611 42.8936 0.0000 -14.9044 0.0000
# 2 42.5611 122.3904 20.1177 0.0000 -12.4044 0.0000
# 3 42.8936 20.1177 135.4844 0.0000 -20.5870 0.0000
# 4 0.0000 0.0000 0.0000 15.2645 0.0000 1.8410
# 5 -14.9044 -12.4044 -20.5870 0.0000 49.6253 0.0000
# 6 0.0000 0.0000 0.0000 1.8410 0.0000 47.6442
#
#
#
# Elastic Compliance Matrix: (Units=1/GPa)
#
#
# Indices 1 2 3 4 5 6 
#
# 1 0.009067 -0.002662 -0.002308 0.000000 0.001100 0.000000
# 2 -0.002662 0.009291 -0.000326 0.000000 0.001388 0.000000
# 3 -0.002308 -0.000326 0.008583 0.000000 0.002786 0.000000
# 4 0.000000 0.000000 0.000000 0.065818 0.000000 -0.002543
# 5 0.001100 0.001388 0.002786 0.000000 0.021984 0.000000
# 6 0.000000 0.000000 0.000000 -0.002543 0.000000 0.021087
#
#
# Mechanical properties :
#
#
# Convention : Reuss Voigt Hill
#
# Bulk Modulus (GPa) = 61.16675 67.17026 64.16850
# Shear Modulus (GPa) = 32.92238 41.69448 37.30843
#
# Velocity S-wave (km/s) = 3.98992 4.49012 4.24739
# Velocity P-wave (km/s) = 7.12762 7.70465 7.42174
#
# Compressibility (1/GPa) = 0.01634875
#
# Stress axis : x y z
#
# Youngs Moduli (GPa) = 110.28891 107.63644 116.50395
#
# Poissons Ratio (x) = 0.28655 0.26890
# Poissons Ratio (y) = 0.29361 0.03796
# Poissons Ratio (z) = 0.25456 0.03507
#
# Static dielectric constant tensor:
#      x y z
#    x 1.728990 0.000000 0.009510 
#    y 0.000000 1.693460 0.000000 
#    z 0.009510 0.000000 1.806420 
# 
# From -- ./inp_files/288027.got.cif
#   From: 2010.05.17/outbox.cif.g08.bks.cpg/sg15_145_cif.got.tgz:288027.got - 2010.06.03 18:47:42.
