data_PCOD9293925
_publ_section_title
;
Structure prediction by ZEFSAII (Michael W. Deem and Ramdas Pophale) SiO2 
 PCOD9293925
Probable space group: C 2/C
;
_chemical_formula_sum "Si O2"
_cell_formula_units_Z 56
_cell_length_a 10.597060
_cell_length_b 9.793121
_cell_length_c 25.706677
_cell_angle_alpha 90.000000
_cell_angle_beta 109.819819
_cell_angle_gamma 90.000000
_cell_volume 2509.764272
_symmetry_space_group_name_H-M "C 2/C"
_symmetry_group_IT_number 15
_symmetry_cell_setting 'monoclinic'
loop_
_space_group_symop_operation_xyz
x,y,z
-x,y,1/2-z
-x,-y,-z
x,-y,1/2+z
1/2+x,1/2+y,z
1/2-x,1/2+y,1/2-z
1/2-x,1/2-y,-z
1/2+x,1/2-y,1/2+z
loop_
_atom_site_type_symbol
_atom_site_label
_atom_site_fract_x
_atom_site_fract_y
_atom_site_fract_z
Si Si1 0.923068 0.703660 0.194815
Si Si2 0.727027 0.451705 0.277458
Si Si3 0.768654 0.987235 0.342210
Si Si4 0.021063 0.166769 0.898199
Si Si5 0.828454 0.913171 0.625199
Si Si6 0.983756 0.645647 0.645533
Si Si7 0.022322 0.428547 0.557742
O O1 0.868873 0.828490 0.220312
O O2 0.791835 0.633710 0.152039
O O3 0.013108 0.745948 0.158963
O O4 0.000000 0.617673 0.250000
O O5 0.701058 0.494458 0.214906
O O6 0.689478 0.565582 0.315132
O O7 0.875677 0.390813 0.307708
O O8 0.640416 0.893176 0.334974
O O9 0.891620 0.925986 0.391109
O O10 0.054313 0.284598 0.943811
O O11 0.132138 0.059250 0.894815
O O12 0.943757 0.802673 0.627724
O O13 0.678506 0.883802 0.584742
O O14 0.985263 0.542400 0.596254
O O15 0.000000 0.500000 0.500000
#
# Coordination Sequence:
#
# PCOD9293925 Si02
#       7
#     8   8   8   8   8   8   8
#     4  11  21  37  58  88 131 173 212 247 305 377
#     4  10  23  36  58  93 133 175 207 248 308 385
#     4  12  22  35  63  91 130 173 207 253 311 380
#     4  11  23  44  62  95 133 167 209 267 320 378
#     4  10  24  43  64  94 133 163 212 268 318 387
#     4  11  22  42  62  96 130 166 217 266 314 386
#     4  11  25  47  71  91 121 168 222 280 336 381
#
# _framework density 22.312851999999999
#
# number of rings (size 3 to 8) (size 9 to 14) (size 15 to 20)
#    0.000    1.143    4.286    2.143    4.000    1.143 
#    2.571    0.714    0.000    0.000    0.000    0.000 
#    0.000    0.000    0.000    0.000    0.000    0.000 
#
# Total GULP energy -156264.495558 kJ/mol
# GULP energy per Si atom -5580.874841 kJ/mol
# Density = 2.226207 g / cm^3
# Si number density = 22.312852 Si / 1000 Ang^3
#
#
#
# Elastic Constant Matrix: (Units=GPa)
#
#
# Indices 1 2 3 4 5 6 
#
# 1 73.9455 16.6209 -5.4292 0.0000 -4.1895 0.0000
# 2 16.6209 90.1832 2.1589 0.0000 -3.9697 0.0000
# 3 -5.4292 2.1589 24.7179 0.0000 -5.1022 0.0000
# 4 0.0000 0.0000 0.0000 8.3019 0.0000 5.0832
# 5 -4.1895 -3.9697 -5.1022 0.0000 10.9108 0.0000
# 6 0.0000 0.0000 0.0000 5.0832 0.0000 34.3032
#
#
#
# Elastic Compliance Matrix: (Units=1/GPa)
#
#
# Indices 1 2 3 4 5 6 
#
# 1 0.014861 -0.002545 0.004951 0.000000 0.007096 0.000000
# 2 -0.002545 0.011705 -0.001001 0.000000 0.002814 0.000000
# 3 0.004951 -0.001001 0.046430 0.000000 0.023249 0.000000
# 4 0.000000 0.000000 0.000000 0.132475 0.000000 -0.019631
# 5 0.007096 0.002814 0.023249 0.000000 0.106272 0.000000
# 6 0.000000 0.000000 0.000000 -0.019631 0.000000 0.032061
#
#
# Mechanical properties :
#
#
# Convention : Reuss Voigt Hill
#
# Bulk Modulus (GPa) = 13.19130 23.94977 18.57053
# Shear Modulus (GPa) = 13.65140 22.40292 18.02716
#
# Velocity S-wave (km/s) = 2.47618 3.17209 2.84549
# Velocity P-wave (km/s) = 3.75501 4.91662 4.37454
#
# Compressibility (1/GPa) = 0.07580754
#
# Stress axis : x y z
#
# Youngs Moduli (GPa) = 67.28986 85.43058 21.53766
#
# Poissons Ratio (x) = 0.21743 -0.10663
# Poissons Ratio (y) = 0.17126 0.02155
# Poissons Ratio (z) = -0.33316 0.08548
#
# Static dielectric constant tensor:
#      x y z
#    x 1.923290 0.000000 0.063440 
#    y 0.000000 1.961330 0.000000 
#    z 0.063440 0.000000 1.831870 
# 
# From -- ./inp_files/291598.got.cif
#   From: 2010.05.17/outbox.cif.g08.bks.cpg/sg15_146_cif.got.tgz:291598.got - 2010.06.03 18:47:42.
