data_PCOD9293374
_publ_section_title
;
Structure prediction by ZEFSAII (Michael W. Deem and Ramdas Pophale) SiO2 
 PCOD9293374
Probable space group: C 2/C
;
_chemical_formula_sum "Si O2"
_cell_formula_units_Z 48
_cell_length_a 31.314522
_cell_length_b 14.856178
_cell_length_c 15.332553
_cell_angle_alpha 90.000000
_cell_angle_beta 160.060324
_cell_angle_gamma 90.000000
_cell_volume 2432.543975
_symmetry_space_group_name_H-M "C 2/C"
_symmetry_group_IT_number 15
_symmetry_cell_setting 'monoclinic'
loop_
_space_group_symop_operation_xyz
x,y,z
-x,y,1/2-z
-x,-y,-z
x,-y,1/2+z
1/2+x,1/2+y,z
1/2-x,1/2+y,1/2-z
1/2-x,1/2-y,-z
1/2+x,1/2-y,1/2+z
loop_
_atom_site_type_symbol
_atom_site_label
_atom_site_fract_x
_atom_site_fract_y
_atom_site_fract_z
Si Si1 0.490958 0.061942 0.897131
Si Si2 0.500000 0.612363 0.250000
Si Si3 0.229480 0.288372 0.221079
Si Si4 0.836323 0.262603 0.749217
Si Si5 0.736183 0.328271 0.904605
Si Si6 0.500000 0.927744 0.750000
Si Si7 0.982088 0.086326 0.407276
O O1 0.360493 0.113557 0.631532
O O2 0.502847 0.994150 0.838644
O O3 0.588898 0.143765 0.099319
O O4 0.500000 0.000000 0.000000
O O5 0.629769 0.670181 0.493067
O O6 0.492298 0.558309 0.325358
O O7 0.248640 0.240455 0.165680
O O8 0.199339 0.219841 0.242382
O O9 0.122138 0.363590 0.999130
O O10 0.750000 0.250000 0.500000
O O11 0.929831 0.176003 0.924528
O O12 0.642994 0.385081 0.784318
O O13 0.750000 0.250000 0.000000
O O14 0.000000 0.000000 0.500000
#
# Coordination Sequence:
#
# PCOD9293374 Si02
#       7
#     8   4   8   8   8   4   8
#     4  12  26  44  72 105 141 187 239 298 356 427
#     4  10  22  45  71  96 140 182 232 289 355 428
#     4  11  24  45  72 101 139 189 235 293 356 434
#     4  11  25  46  68  99 146 187 231 296 362 422
#     4  12  22  45  73  98 135 185 237 288 360 424
#     4  12  28  43  73 110 142 182 244 299 359 430
#     4  11  26  44  71 102 139 184 238 291 358 432
#
# _framework density 19.732427999999999
#
# number of rings (size 3 to 8) (size 9 to 14) (size 15 to 20)
#    0.000    0.667    3.333    4.000    9.333    0.667 
#    3.000    0.000    0.000    0.000    0.000    0.000 
#    0.000    0.000    0.000    0.000    0.000    0.000 
#
# Total GULP energy -133604.761973 kJ/mol
# GULP energy per Si atom -5566.865082 kJ/mol
# Density = 1.968752 g / cm^3
# Si number density = 19.732428 Si / 1000 Ang^3
#
#
#
# Elastic Constant Matrix: (Units=GPa)
#
#
# Indices 1 2 3 4 5 6 
#
# 1 192.8964 68.7560 46.2429 0.0000 -24.4156 0.0000
# 2 68.7560 137.5678 51.6308 0.0000 -0.9135 0.0000
# 3 46.2429 51.6308 91.8638 0.0000 3.8239 0.0000
# 4 0.0000 0.0000 0.0000 46.3921 0.0000 -5.5784
# 5 -24.4156 -0.9135 3.8239 0.0000 38.6876 0.0000
# 6 0.0000 0.0000 0.0000 -5.5784 0.0000 40.6268
#
#
#
# Elastic Compliance Matrix: (Units=1/GPa)
#
#
# Indices 1 2 3 4 5 6 
#
# 1 0.007335 -0.002754 -0.002344 0.000000 0.004796 0.000000
# 2 -0.002754 0.010267 -0.004340 0.000000 -0.001067 0.000000
# 3 -0.002344 -0.004340 0.014631 0.000000 -0.003028 0.000000
# 4 0.000000 0.000000 0.000000 0.021917 0.000000 0.003009
# 5 0.004796 -0.001067 -0.003028 0.000000 0.029149 0.000000
# 6 0.000000 0.000000 0.000000 0.003009 0.000000 0.025028
#
#
# Mechanical properties :
#
#
# Convention : Reuss Voigt Hill
#
# Bulk Modulus (GPa) = 74.86698 83.95417 79.41058
# Shear Modulus (GPa) = 37.97822 42.18786 40.08304
#
# Velocity S-wave (km/s) = 4.39185 4.62886 4.51192
# Velocity P-wave (km/s) = 7.98381 8.43843 8.21427
#
# Compressibility (1/GPa) = 0.01335702
#
# Stress axis : x y z
#
# Youngs Moduli (GPa) = 136.33678 97.39504 68.34979
#
# Poissons Ratio (x) = 0.26827 0.16020
# Poissons Ratio (y) = 0.37553 0.29662
# Poissons Ratio (z) = 0.31954 0.42267
#
# Static dielectric constant tensor:
#      x y z
#    x 1.653450 0.000000 -0.095240 
#    y 0.000000 1.837960 0.000000 
#    z -0.095240 0.000000 1.496020 
# 
# From -- ./inp_files/182466.got.cif
#   From: 2010.05.17/outbox.cif.g08.bks.cpg/sg15_92_cif.got.tgz:182466.got - 2010.06.03 18:47:42.
