data_PCOD9293860
_publ_section_title
;
Structure prediction by ZEFSAII (Michael W. Deem and Ramdas Pophale) SiO2 
 PCOD9293860
Probable space group: C 2/C
;
_chemical_formula_sum "Si O2"
_cell_formula_units_Z 60
_cell_length_a 14.301119
_cell_length_b 15.813063
_cell_length_c 17.192011
_cell_angle_alpha 90.000000
_cell_angle_beta 144.029474
_cell_angle_gamma 90.000000
_cell_volume 2283.619405
_symmetry_space_group_name_H-M "C 2/C"
_symmetry_group_IT_number 15
_symmetry_cell_setting 'monoclinic'
loop_
_space_group_symop_operation_xyz
x,y,z
-x,y,1/2-z
-x,-y,-z
x,-y,1/2+z
1/2+x,1/2+y,z
1/2-x,1/2+y,1/2-z
1/2-x,1/2-y,-z
1/2+x,1/2-y,1/2+z
loop_
_atom_site_type_symbol
_atom_site_label
_atom_site_fract_x
_atom_site_fract_y
_atom_site_fract_z
Si Si1 0.500000 0.816493 0.250000
Si Si2 0.855071 0.464911 0.066891
Si Si3 0.379928 0.375676 0.083515
Si Si4 0.184430 0.940328 0.209357
Si Si5 0.736895 0.240645 0.367746
Si Si6 0.863574 0.424939 0.761398
Si Si7 0.273394 0.273844 0.326546
Si Si8 0.464287 0.116571 0.497248
O O1 0.366380 0.874747 0.117194
O O2 0.602954 0.767934 0.254699
O O3 0.035049 0.498056 0.200841
O O4 0.741116 0.544451 0.006145
O O5 0.844544 0.438500 0.968887
O O6 0.453454 0.423977 0.320989
O O7 0.331869 0.318508 0.127395
O O8 0.375577 0.300439 0.014816
O O9 0.163730 0.869700 0.129036
O O10 0.359952 0.913808 0.360016
O O11 0.199151 0.033147 0.180881
O O12 0.635991 0.154605 0.293499
O O13 0.750959 0.255846 0.283722
O O14 0.955152 0.400037 0.900485
O O15 0.396467 0.211485 0.451632
#
# Coordination Sequence:
#
# PCOD9293860 Si02
#       8
#     4   8   8   8   8   8   8   8
#     4  12  24  48  78 112 146 216 266 326 384 486
#     4  11  23  44  76 110 155 202 263 317 399 469
#     4  11  27  44  78 120 158 202 257 330 405 484
#     4  11  24  46  76 110 154 204 260 319 395 487
#     4  10  26  49  72 117 162 198 260 329 406 478
#     4  10  22  48  77 103 153 213 254 322 399 475
#     4  11  26  47  77 110 153 204 261 325 389 468
#     4  10  24  48  73 108 154 204 254 324 393 469
#
# _framework density 26.274079
#
# number of rings (size 3 to 8) (size 9 to 14) (size 15 to 20)
#    0.000    1.333    2.667    2.400    5.600    5.867 
#    4.800    1.333    0.000    0.000    0.000    0.000 
#    0.000    0.000    0.000    0.000    0.000    0.000 
#
# Total GULP energy -167223.322679 kJ/mol
# GULP energy per Si atom -5574.110756 kJ/mol
# Density = 2.621428 g / cm^3
# Si number density = 26.274079 Si / 1000 Ang^3
#
#
#
# Elastic Constant Matrix: (Units=GPa)
#
#
# Indices 1 2 3 4 5 6 
#
# 1 171.9378 52.9209 62.1706 0.0004 1.5508 -0.0002
# 2 52.9209 116.3292 38.1542 0.0006 14.4753 0.0001
# 3 62.1706 38.1542 68.2899 0.0005 -5.9597 0.0000
# 4 0.0004 0.0006 0.0005 33.3926 0.0001 -4.6696
# 5 1.5508 14.4753 -5.9597 0.0001 34.5186 -0.0002
# 6 -0.0002 0.0001 0.0000 -4.6696 -0.0002 37.2835
#
#
#
# Elastic Compliance Matrix: (Units=1/GPa)
#
#
# Indices 1 2 3 4 5 6 
#
# 1 0.008973 -0.001522 -0.007410 0.000000 -0.001044 0.000000
# 2 -0.001522 0.011928 -0.005797 0.000000 -0.005935 0.000000
# 3 -0.007410 -0.005797 0.025250 0.000000 0.007123 0.000000
# 4 0.000000 0.000000 0.000000 0.030481 0.000000 0.003818
# 5 -0.001044 -0.005935 0.007123 0.000000 0.032735 0.000000
# 6 0.000000 0.000000 0.000000 0.003818 0.000000 0.027300
#
#
# Mechanical properties :
#
#
# Convention : Reuss Voigt Hill
#
# Bulk Modulus (GPa) = 59.90198 73.67205 66.78701
# Shear Modulus (GPa) = 29.12229 34.59301 31.85765
#
# Velocity S-wave (km/s) = 3.33288 3.63246 3.48589
# Velocity P-wave (km/s) = 6.13671 6.75972 6.45573
#
# Compressibility (1/GPa) = 0.01669394
#
# Stress axis : x y z
#
# Youngs Moduli (GPa) = 111.44194 83.83363 39.60386
#
# Poissons Ratio (x) = 0.12758 0.29347
# Poissons Ratio (y) = 0.16959 0.22958
# Poissons Ratio (z) = 0.82580 0.48598
#
# Static dielectric constant tensor:
#      x y z
#    x 2.162830 0.000000 -0.009230 
#    y 0.000000 2.136610 0.000000 
#    z -0.009230 0.000000 2.229160 
# 
# From -- ./inp_files/211089.got.cif
#   From: 2010.05.17/outbox.cif.g08.bks.cpg/sg15_106_cif.got.tgz:211089.got - 2010.06.03 18:47:42.
