data_PCOD9293520
_publ_section_title
;
Structure prediction by ZEFSAII (Michael W. Deem and Ramdas Pophale) SiO2 
 PCOD9293520
Probable space group: C 2/C
;
_chemical_formula_sum "Si O2"
_cell_formula_units_Z 60
_cell_length_a 19.081475
_cell_length_b 11.832233
_cell_length_c 19.521546
_cell_angle_alpha 90.000000
_cell_angle_beta 140.505295
_cell_angle_gamma 90.000000
_cell_volume 2803.203953
_symmetry_space_group_name_H-M "C 2/C"
_symmetry_group_IT_number 15
_symmetry_cell_setting 'monoclinic'
loop_
_space_group_symop_operation_xyz
x,y,z
-x,y,1/2-z
-x,-y,-z
x,-y,1/2+z
1/2+x,1/2+y,z
1/2-x,1/2+y,1/2-z
1/2-x,1/2-y,-z
1/2+x,1/2-y,1/2+z
loop_
_atom_site_type_symbol
_atom_site_label
_atom_site_fract_x
_atom_site_fract_y
_atom_site_fract_z
Si Si1 0.668129 0.404178 0.301105
Si Si2 0.436327 0.082643 0.318731
Si Si3 0.864695 0.460513 0.004020
Si Si4 0.830791 0.789217 0.445906
Si Si5 0.380823 0.893707 0.166473
Si Si6 0.000000 0.240179 0.750000
Si Si7 0.034767 0.940831 0.597181
Si Si8 0.743661 0.723803 0.234540
O O1 0.749637 0.499982 0.388356
O O2 0.604491 0.341324 0.315022
O O3 0.581812 0.464782 0.184638
O O4 0.743762 0.313518 0.317523
O O5 0.488747 0.178007 0.307786
O O6 0.335638 0.131003 0.285326
O O7 0.533005 0.037354 0.439727
O O8 0.391284 0.979919 0.237810
O O9 0.863325 0.467052 0.085344
O O10 0.883507 0.331601 0.999402
O O11 0.719076 0.808976 0.403028
O O12 0.786966 0.787989 0.334779
O O13 0.921191 0.881555 0.533721
O O14 0.500000 0.835726 0.250000
O O15 0.128649 0.843163 0.657447
O O16 0.000000 0.000000 0.500000
#
# Coordination Sequence:
#
# PCOD9293520 Si02
#       8
#     8   8   8   8   8   4   8   8
#     4  11  26  43  69 102 137 175 237 287 338 415
#     4  10  22  46  70  95 136 177 232 281 344 413
#     4  11  24  42  67 103 131 182 229 283 348 408
#     4  12  26  43  70 100 140 183 227 283 350 417
#     4  10  23  45  70  97 136 180 227 282 343 411
#     4  10  22  46  66  98 132 174 226 284 340 402
#     4  12  26  47  67 101 143 184 228 284 356 403
#     4  11  26  45  69 102 136 184 231 285 346 420
#
# _framework density 21.404078999999999
#
# number of rings (size 3 to 8) (size 9 to 14) (size 15 to 20)
#    0.000    1.067    4.667    1.200    7.467    1.067 
#    1.200    0.000    0.000    0.000    0.000    0.000 
#    0.000    0.000    0.000    0.000    0.000    0.000 
#
# Total GULP energy -167564.079912 kJ/mol
# GULP energy per Si atom -5585.469330 kJ/mol
# Density = 2.135536 g / cm^3
# Si number density = 21.404079 Si / 1000 Ang^3
#
#
#
# Elastic Constant Matrix: (Units=GPa)
#
#
# Indices 1 2 3 4 5 6 
#
# 1 56.7949 -1.9347 22.1945 0.0000 20.8076 0.0000
# 2 -1.9347 51.6442 15.3258 0.0000 11.3777 0.0000
# 3 22.1945 15.3258 105.7105 0.0000 8.0648 0.0000
# 4 0.0000 0.0000 0.0000 35.4400 0.0000 14.0337
# 5 20.8076 11.3777 8.0648 0.0000 23.5303 0.0000
# 6 0.0000 0.0000 0.0000 14.0337 0.0000 27.1893
#
#
#
# Elastic Compliance Matrix: (Units=1/GPa)
#
#
# Indices 1 2 3 4 5 6 
#
# 1 0.031223 0.009510 -0.005624 0.000000 -0.030281 0.000000
# 2 0.009510 0.025181 -0.004186 0.000000 -0.019150 0.000000
# 3 -0.005624 -0.004186 0.011001 0.000000 0.003227 0.000000
# 4 0.000000 0.000000 0.000000 0.035465 0.000000 -0.018305
# 5 -0.030281 -0.019150 0.003227 0.000000 0.077429 0.000000
# 6 0.000000 0.000000 0.000000 -0.018305 0.000000 0.046228
#
#
# Mechanical properties :
#
#
# Convention : Reuss Voigt Hill
#
# Bulk Modulus (GPa) = 14.96922 31.70232 23.33577
# Shear Modulus (GPa) = 20.04845 29.13618 24.59231
#
# Velocity S-wave (km/s) = 3.06382 3.69351 3.39330
# Velocity P-wave (km/s) = 4.41869 5.74742 5.12629
#
# Compressibility (1/GPa) = 0.06680377
#
# Stress axis : x y z
#
# Youngs Moduli (GPa) = 32.02807 39.71271 90.89817
#
# Poissons Ratio (x) = -0.37766 0.51121
# Poissons Ratio (y) = -0.30458 0.38053
# Poissons Ratio (z) = 0.18012 0.16625
#
# Static dielectric constant tensor:
#      x y z
#    x 1.810600 0.000000 -0.014630 
#    y 0.000000 1.795690 0.000000 
#    z -0.014630 0.000000 1.761310 
# 
# From -- ./inp_files/280100.got.cif
#   From: 2010.05.17/outbox.cif.g08.bks.cpg/sg15_141_cif.got.tgz:280100.got - 2010.06.03 18:47:42.
