data_PCOD9293764
_publ_section_title
;
Structure prediction by ZEFSAII (Michael W. Deem and Ramdas Pophale) SiO2 
 PCOD9293764
Probable space group: C 2/C
;
_chemical_formula_sum "Si O2"
_cell_formula_units_Z 40
_cell_length_a 10.349988
_cell_length_b 9.038940
_cell_length_c 25.407765
_cell_angle_alpha 90.000000
_cell_angle_beta 140.533415
_cell_angle_gamma 90.000000
_cell_volume 1510.869317
_symmetry_space_group_name_H-M "C 2/C"
_symmetry_group_IT_number 15
_symmetry_cell_setting 'monoclinic'
loop_
_space_group_symop_operation_xyz
x,y,z
-x,y,1/2-z
-x,-y,-z
x,-y,1/2+z
1/2+x,1/2+y,z
1/2-x,1/2+y,1/2-z
1/2-x,1/2-y,-z
1/2+x,1/2-y,1/2+z
loop_
_atom_site_type_symbol
_atom_site_label
_atom_site_fract_x
_atom_site_fract_y
_atom_site_fract_z
Si Si1 0.874474 0.666136 0.273890
Si Si2 0.618653 0.369559 0.491449
Si Si3 0.799856 0.298118 0.382965
Si Si4 0.182573 0.590641 0.874901
Si Si5 0.209703 0.893357 0.835161
O O1 0.717276 0.723855 0.180249
O O2 0.798707 0.669725 0.309194
O O3 0.070289 0.771483 0.331720
O O4 0.979367 0.503856 0.297212
O O5 0.750000 0.250000 0.500000
O O6 0.573563 0.284163 0.532608
O O7 0.754001 0.510588 0.550542
O O8 0.392102 0.425256 0.405412
O O9 0.844724 0.471092 0.396541
O O10 0.154129 0.764854 0.858501
O O11 0.000000 0.963907 0.750000
#
# Coordination Sequence:
#
# PCOD9293764 Si02
#       5
#     8   8   8   8   8
#     4  10  23  45  66 101 145 177 234 298 349 423
#     4  10  22  47  70 100 148 191 229 293 350 424
#     4  10  23  45  67 100 140 183 227 291 359 406
#     4  10  23  41  71 104 132 189 239 279 352 427
#     4  12  26  42  70 107 137 181 237 300 355 414
#
# _framework density 26.474826
#
# number of rings (size 3 to 8) (size 9 to 14) (size 15 to 20)
#    0.000    1.600    2.000    2.400    8.400    0.800 
#   14.400    2.000    0.000    0.000    0.000    0.000 
#    0.000    0.000    0.000    0.000    0.000    0.000 
#
# Total GULP energy -111551.947946 kJ/mol
# GULP energy per Si atom -5577.597397 kJ/mol
# Density = 2.641457 g / cm^3
# Si number density = 26.474826 Si / 1000 Ang^3
#
#
#
# Elastic Constant Matrix: (Units=GPa)
#
#
# Indices 1 2 3 4 5 6 
#
# 1 128.6163 37.5602 16.4596 0.0000 -13.0690 0.0000
# 2 37.5602 210.2313 55.6439 0.0000 -19.9825 0.0000
# 3 16.4596 55.6439 83.0340 0.0000 -7.3380 0.0000
# 4 0.0000 0.0000 0.0000 47.5132 0.0000 -6.5721
# 5 -13.0690 -19.9825 -7.3380 0.0000 28.8374 0.0000
# 6 0.0000 0.0000 0.0000 -6.5721 0.0000 38.6932
#
#
#
# Elastic Compliance Matrix: (Units=1/GPa)
#
#
# Indices 1 2 3 4 5 6 
#
# 1 0.008470 -0.001044 -0.000720 0.000000 0.002932 0.000000
# 2 -0.001044 0.006193 -0.003689 0.000000 0.002880 0.000000
# 3 -0.000720 -0.003689 0.014735 0.000000 0.000867 0.000000
# 4 0.000000 0.000000 0.000000 0.021553 0.000000 0.003661
# 5 0.002932 0.002880 0.000867 0.000000 0.038222 0.000000
# 6 0.000000 0.000000 0.000000 0.003661 0.000000 0.026466
#
#
# Mechanical properties :
#
#
# Convention : Reuss Voigt Hill
#
# Bulk Modulus (GPa) = 54.07828 71.24543 62.66186
# Shear Modulus (GPa) = 37.67630 43.82328 40.74979
#
# Velocity S-wave (km/s) = 3.77649 4.07293 3.92751
# Velocity P-wave (km/s) = 6.28383 7.00624 6.65484
#
# Compressibility (1/GPa) = 0.01849171
#
# Stress axis : x y z
#
# Youngs Moduli (GPa) = 118.06337 161.46555 67.86706
#
# Poissons Ratio (x) = 0.16856 0.04889
# Poissons Ratio (y) = 0.12325 0.25035
# Poissons Ratio (z) = 0.08504 0.59563
#
# Static dielectric constant tensor:
#      x y z
#    x 2.087870 0.000000 0.014650 
#    y 0.000000 2.150480 0.000000 
#    z 0.014650 0.000000 2.176700 
# 
# From -- ./inp_files/291340.got.cif
#   From: 2010.05.17/outbox.cif.g08.bks.cpg/sg15_146_cif.got.tgz:291340.got - 2010.06.03 18:47:42.
