data_PCOD9293477
_publ_section_title
;
Structure prediction by ZEFSAII (Michael W. Deem and Ramdas Pophale) SiO2 
 PCOD9293477
Probable space group: C 2/C
;
_chemical_formula_sum "Si O2"
_cell_formula_units_Z 60
_cell_length_a 18.930673
_cell_length_b 13.220247
_cell_length_c 16.787107
_cell_angle_alpha 90.000000
_cell_angle_beta 42.168476
_cell_angle_gamma 90.000000
_cell_volume 2820.372514
_symmetry_space_group_name_H-M "C 2/C"
_symmetry_group_IT_number 15
_symmetry_cell_setting 'monoclinic'
loop_
_space_group_symop_operation_xyz
x,y,z
-x,y,1/2-z
-x,-y,-z
x,-y,1/2+z
1/2+x,1/2+y,z
1/2-x,1/2+y,1/2-z
1/2-x,1/2-y,-z
1/2+x,1/2-y,1/2+z
loop_
_atom_site_type_symbol
_atom_site_label
_atom_site_fract_x
_atom_site_fract_y
_atom_site_fract_z
Si Si1 0.734527 0.210999 0.601754
Si Si2 0.433274 0.121338 0.656156
Si Si3 0.473806 0.080677 0.363060
Si Si4 0.283170 0.108080 0.630465
Si Si5 0.648143 0.581698 0.229287
Si Si6 0.937327 0.197905 0.678197
Si Si7 0.954430 0.177185 0.476923
Si Si8 0.500000 0.464956 0.250000
O O1 0.750000 0.250000 0.500000
O O2 0.634159 0.143367 0.707774
O O3 0.711574 0.314745 0.668640
O O4 0.838123 0.153903 0.543994
O O5 0.358084 0.134659 0.641949
O O6 0.519532 0.209444 0.576249
O O7 0.480247 0.009830 0.621594
O O8 0.500000 0.054739 0.250000
O O9 0.353438 0.093508 0.492850
O O10 0.526019 0.189418 0.334223
O O11 0.186806 0.185129 0.699418
O O12 0.223702 0.003644 0.699921
O O13 0.544862 0.605505 0.367162
O O14 0.599223 0.537202 0.187391
O O15 0.954588 0.177046 0.571273
O O16 0.000396 0.113367 0.675886
#
# Coordination Sequence:
#
# PCOD9293477 Si02
#       8
#     8   8   8   8   8   8   8   4
#     4  11  24  42  67 103 137 176 227 287 340 407
#     4  11  25  42  70 101 136 181 228 278 347 413
#     4  12  27  46  68 100 138 184 227 288 339 409
#     4  11  24  45  67  99 134 177 234 280 340 413
#     4  10  24  42  68  98 136 179 221 288 338 401
#     4  11  24  46  71  99 137 183 232 282 342 409
#     4  11  23  44  72 100 141 180 228 285 348 411
#     4  10  22  46  62  96 140 172 228 278 338 398
#
# _framework density 21.273785
#
# number of rings (size 3 to 8) (size 9 to 14) (size 15 to 20)
#    0.000    1.067    3.333    2.000    5.600    3.733 
#    2.400    0.000    0.000    0.000    0.000    0.000 
#    0.000    0.000    0.000    0.000    0.000    0.000 
#
# Total GULP energy -167658.671625 kJ/mol
# GULP energy per Si atom -5588.622387 kJ/mol
# Density = 2.122537 g / cm^3
# Si number density = 21.273785 Si / 1000 Ang^3
#
#
#
# Elastic Constant Matrix: (Units=GPa)
#
#
# Indices 1 2 3 4 5 6 
#
# 1 49.8642 -2.3351 34.6340 0.0000 10.6812 0.0000
# 2 -2.3351 90.2070 25.8471 0.0000 -16.5971 0.0000
# 3 34.6340 25.8471 141.2076 0.0000 -2.4451 0.0000
# 4 0.0000 0.0000 0.0000 5.0965 0.0000 -11.7287
# 5 10.6812 -16.5971 -2.4451 0.0000 35.9195 0.0000
# 6 0.0000 0.0000 0.0000 -11.7287 0.0000 33.8856
#
#
#
# Elastic Compliance Matrix: (Units=1/GPa)
#
#
# Indices 1 2 3 4 5 6 
#
# 1 0.026555 0.001221 -0.006872 0.000000 -0.007800 0.000000
# 2 0.001221 0.012843 -0.002557 0.000000 0.005397 0.000000
# 3 -0.006872 -0.002557 0.009261 0.000000 0.001492 0.000000
# 4 0.000000 0.000000 0.000000 0.964415 0.000000 0.333808
# 5 -0.007800 0.005397 0.001492 0.000000 0.032755 0.000000
# 6 0.000000 0.000000 0.000000 0.333808 0.000000 0.145050
#
#
# Mechanical properties :
#
#
# Convention : Reuss Voigt Hill
#
# Bulk Modulus (GPa) = 31.01309 44.17455 37.59382
# Shear Modulus (GPa) = 4.10495 29.85584 16.98039
#
# Velocity S-wave (km/s) = 1.39060 3.75028 2.82828
# Velocity P-wave (km/s) = 4.14585 6.28988 5.32685
#
# Compressibility (1/GPa) = 0.03224445
#
# Stress axis : x y z
#
# Youngs Moduli (GPa) = 37.65699 77.86443 107.97852
#
# Poissons Ratio (x) = -0.09509 0.74202
# Poissons Ratio (y) = -0.04599 0.27609
# Poissons Ratio (z) = 0.25877 0.19909
#
# Static dielectric constant tensor:
#      x y z
#    x 1.763260 0.000000 0.015770 
#    y 0.000000 1.761780 0.000000 
#    z 0.015770 0.000000 1.770600 
# 
# From -- ./inp_files/215179.got.cif
#   From: 2010.05.17/outbox.cif.g08.bks.cpg/sg15_108_cif.got.tgz:215179.got - 2010.06.03 18:47:42.
