data_PCOD9293679
_publ_section_title
;
Structure prediction by ZEFSAII (Michael W. Deem and Ramdas Pophale) SiO2 
 PCOD9293679
Probable space group: C 2/C
;
_chemical_formula_sum "Si O2"
_cell_formula_units_Z 52
_cell_length_a 14.034948
_cell_length_b 25.346789
_cell_length_c 12.285772
_cell_angle_alpha 90.000000
_cell_angle_beta 29.113969
_cell_angle_gamma 90.000000
_cell_volume 2126.484659
_symmetry_space_group_name_H-M "C 2/C"
_symmetry_group_IT_number 15
_symmetry_cell_setting 'monoclinic'
loop_
_space_group_symop_operation_xyz
x,y,z
-x,y,1/2-z
-x,-y,-z
x,-y,1/2+z
1/2+x,1/2+y,z
1/2-x,1/2+y,1/2-z
1/2-x,1/2-y,-z
1/2+x,1/2-y,1/2+z
loop_
_atom_site_type_symbol
_atom_site_label
_atom_site_fract_x
_atom_site_fract_y
_atom_site_fract_z
Si Si1 0.660654 0.909684 0.801978
Si Si2 0.915120 0.186509 0.105393
Si Si3 0.009756 0.972002 0.110578
Si Si4 0.500000 0.354633 0.750000
Si Si5 0.716706 0.943799 0.992655
Si Si6 0.751327 0.873199 0.338846
Si Si7 0.128729 0.265312 0.538609
O O1 0.759717 0.851859 0.699115
O O2 0.701989 0.923368 0.885198
O O3 0.762803 0.952479 0.621904
O O4 0.430845 0.906819 0.018480
O O5 0.913411 0.180783 0.237975
O O6 0.888585 0.240862 0.067359
O O7 0.125928 0.160717 0.869689
O O8 0.906831 0.915144 0.224751
O O9 0.859678 0.006718 0.333548
O O10 0.000000 0.000000 0.000000
O O11 0.327324 0.397591 0.950836
O O12 0.500000 0.954800 0.250000
O O13 0.662885 0.828361 0.503492
O O14 0.876021 0.253154 0.817425
#
# Coordination Sequence:
#
# PCOD9293679 Si02
#       7
#     8   8   8   4   8   8   8
#     4  10  24  43  66  99 137 177 234 287 348 419
#     4  10  23  44  67 101 135 188 235 289 354 416
#     4  11  26  41  64  99 140 180 230 282 353 422
#     4  10  22  46  72  96 146 182 232 302 350 412
#     4  11  23  43  73  99 132 185 234 283 351 426
#     4  11  25  41  68  96 139 178 230 290 350 418
#     4  12  24  40  68  98 138 181 230 285 353 417
#
# _framework density 24.453503999999999
#
# number of rings (size 3 to 8) (size 9 to 14) (size 15 to 20)
#    0.000    1.231    2.308    2.308    8.615    0.615 
#    0.000    0.769    1.692    0.000    0.000    0.000 
#    0.000    0.000    0.000    0.000    0.000    0.000 
#
# Total GULP energy -144752.654174 kJ/mol
# GULP energy per Si atom -5567.409776 kJ/mol
# Density = 2.439785 g / cm^3
# Si number density = 24.453504 Si / 1000 Ang^3
#
#
#
# Elastic Constant Matrix: (Units=GPa)
#
#
# Indices 1 2 3 4 5 6 
#
# 1 83.9282 27.3947 15.5793 0.0010 -9.8848 -0.0021
# 2 27.3947 95.8823 18.6021 0.0005 9.2696 -0.0007
# 3 15.5793 18.6021 107.1120 0.0010 -19.3161 -0.0027
# 4 0.0010 0.0005 0.0010 45.6560 -0.0012 -15.1182
# 5 -9.8848 9.2696 -19.3161 -0.0012 45.9536 0.0016
# 6 -0.0021 -0.0007 -0.0027 -15.1182 0.0016 55.7259
#
#
#
# Elastic Compliance Matrix: (Units=1/GPa)
#
#
# Indices 1 2 3 4 5 6 
#
# 1 0.013810 -0.004162 -0.000648 0.000000 0.003538 0.000000
# 2 -0.004162 0.012503 -0.002361 0.000000 -0.004410 0.000000
# 3 -0.000648 -0.002361 0.010713 0.000000 0.004840 0.000000
# 4 0.000000 0.000000 0.000000 0.024065 0.000000 0.006529
# 5 0.003538 -0.004410 0.004840 0.000000 0.025446 0.000000
# 6 0.000000 0.000000 0.000000 0.006529 0.000000 0.019716
#
#
# Mechanical properties :
#
#
# Convention : Reuss Voigt Hill
#
# Bulk Modulus (GPa) = 44.08371 45.56383 44.82377
# Shear Modulus (GPa) = 39.01438 44.49018 41.75228
#
# Velocity S-wave (km/s) = 3.99864 4.27004 4.13657
# Velocity P-wave (km/s) = 6.27579 6.55624 6.41755
#
# Compressibility (1/GPa) = 0.02268412
#
# Stress axis : x y z
#
# Youngs Moduli (GPa) = 72.40898 79.98026 93.34287
#
# Poissons Ratio (x) = 0.33289 0.06047
# Poissons Ratio (y) = 0.30138 0.22041
# Poissons Ratio (z) = 0.04691 0.18886
#
# Static dielectric constant tensor:
#      x y z
#    x 2.398340 0.000000 0.053830 
#    y 0.000000 1.803160 0.000000 
#    z 0.053830 0.000000 2.058530 
# 
# From -- ./inp_files/164556.got.cif
#   From: 2010.05.17/outbox.cif.g08.bks.cpg/sg15_83_cif.got.tgz:164556.got - 2010.06.03 18:47:42.
