data_PCOD9293522
_publ_section_title
;
Structure prediction by ZEFSAII (Michael W. Deem and Ramdas Pophale) SiO2 
 PCOD9293522
Probable space group: C 2/C
;
_chemical_formula_sum "Si O2"
_cell_formula_units_Z 32
_cell_length_a 9.389484
_cell_length_b 9.068732
_cell_length_c 23.703111
_cell_angle_alpha 90.000000
_cell_angle_beta 36.099775
_cell_angle_gamma 90.000000
_cell_volume 1189.190302
_symmetry_space_group_name_H-M "C 2/C"
_symmetry_group_IT_number 15
_symmetry_cell_setting 'monoclinic'
loop_
_space_group_symop_operation_xyz
x,y,z
-x,y,1/2-z
-x,-y,-z
x,-y,1/2+z
1/2+x,1/2+y,z
1/2-x,1/2+y,1/2-z
1/2-x,1/2-y,-z
1/2+x,1/2-y,1/2+z
loop_
_atom_site_type_symbol
_atom_site_label
_atom_site_fract_x
_atom_site_fract_y
_atom_site_fract_z
Si Si1 0.120579 0.447975 0.134501
Si Si2 0.000000 0.708069 0.250000
Si Si3 0.500000 0.290526 0.750000
Si Si4 0.272748 0.038037 0.611546
Si Si5 0.619305 0.409933 0.044687
O O1 0.000001 0.595556 0.197561
O O2 0.204059 0.473642 0.044068
O O3 0.968333 0.310288 0.205122
O O4 0.628395 0.580798 0.910992
O O5 0.774327 0.815314 0.337033
O O6 0.718011 0.400088 0.667975
O O7 0.500000 0.000000 0.500000
O O8 0.076624 0.051543 0.623406
O O9 0.750000 0.250000 0.000000
#
# Coordination Sequence:
#
# PCOD9293522 Si02
#       5
#     8   4   4   8   8
#     4  10  23  44  68 100 136 180 236 282 349 421
#     4  10  22  46  66  98 138 188 234 284 348 426
#     4  10  24  44  62 104 134 172 238 282 348 420
#     4  11  24  44  67  98 143 181 231 291 350 414
#     4  11  22  42  73  98 138 183 226 286 350 414
#
# _framework density 26.909065999999999
#
# number of rings (size 3 to 8) (size 9 to 14) (size 15 to 20)
#    0.000    1.500    2.500    1.500    3.500    3.000 
#   18.000    0.000    0.000    0.000    0.000    0.000 
#    0.000    0.000    0.000    0.000    0.000    0.000 
#
# Total GULP energy -89542.894892 kJ/mol
# GULP energy per Si atom -5596.430931 kJ/mol
# Density = 2.684782 g / cm^3
# Si number density = 26.909066 Si / 1000 Ang^3
#
#
#
# Elastic Constant Matrix: (Units=GPa)
#
#
# Indices 1 2 3 4 5 6 
#
# 1 103.7056 25.2934 46.3288 -0.0003 2.1237 0.0001
# 2 25.2934 185.3112 62.4199 -0.0001 -11.8413 0.0000
# 3 46.3288 62.4199 168.9620 -0.0004 2.6240 0.0003
# 4 -0.0003 -0.0001 -0.0004 60.9439 0.0003 -10.3511
# 5 2.1237 -11.8413 2.6240 0.0003 62.3193 -0.0002
# 6 0.0001 0.0000 0.0003 -10.3511 -0.0002 16.3972
#
#
#
# Elastic Compliance Matrix: (Units=1/GPa)
#
#
# Indices 1 2 3 4 5 6 
#
# 1 0.011047 -0.000586 -0.002807 0.000000 -0.000370 0.000000
# 2 -0.000586 0.006296 -0.002186 0.000000 0.001308 0.000000
# 3 -0.002807 -0.002186 0.007505 0.000000 -0.000636 0.000000
# 4 0.000000 0.000000 0.000000 0.018379 0.000000 0.011602
# 5 -0.000370 0.001308 -0.000636 0.000000 0.016334 0.000000
# 6 0.000000 0.000000 0.000000 0.011602 0.000000 0.068310
#
#
# Mechanical properties :
#
#
# Convention : Reuss Voigt Hill
#
# Bulk Modulus (GPa) = 73.03697 80.67365 76.85531
# Shear Modulus (GPa) = 34.82059 49.52784 42.17422
#
# Velocity S-wave (km/s) = 3.60114 4.29483 3.96319
# Velocity P-wave (km/s) = 6.67023 7.39184 7.04029
#
# Compressibility (1/GPa) = 0.01369170
#
# Stress axis : x y z
#
# Youngs Moduli (GPa) = 90.52159 158.82811 133.23693
#
# Poissons Ratio (x) = 0.09307 0.37398
# Poissons Ratio (y) = 0.05305 0.29121
# Poissons Ratio (z) = 0.25408 0.34714
#
# Static dielectric constant tensor:
#      x y z
#    x 2.251530 0.000000 -0.034470 
#    y 0.000000 2.071240 0.000000 
#    z -0.034470 0.000000 2.112230 
# 
# From -- ./inp_files/141213.got.cif
#   From: 2010.05.17/outbox.cif.g08.bks.cpg/sg15_71_cif.got.tgz:141213.got - 2010.06.03 18:47:42.
