data_PCOD9293103
_publ_section_title
;
Structure prediction by ZEFSAII (Michael W. Deem and Ramdas Pophale) SiO2 
 PCOD9293103
Probable space group: C 2/C
;
_chemical_formula_sum "Si O2"
_cell_formula_units_Z 40
_cell_length_a 14.171741
_cell_length_b 8.759725
_cell_length_c 28.853689
_cell_angle_alpha 90.000000
_cell_angle_beta 26.999641
_cell_angle_gamma 90.000000
_cell_volume 1626.134446
_symmetry_space_group_name_H-M "C 2/C"
_symmetry_group_IT_number 15
_symmetry_cell_setting 'monoclinic'
loop_
_space_group_symop_operation_xyz
x,y,z
-x,y,1/2-z
-x,-y,-z
x,-y,1/2+z
1/2+x,1/2+y,z
1/2-x,1/2+y,1/2-z
1/2-x,1/2-y,-z
1/2+x,1/2-y,1/2+z
loop_
_atom_site_type_symbol
_atom_site_label
_atom_site_fract_x
_atom_site_fract_y
_atom_site_fract_z
Si Si1 0.325452 0.099785 0.664223
Si Si2 0.668859 0.135038 0.938074
Si Si3 0.176932 0.078270 0.061157
Si Si4 0.338916 0.744439 0.251482
Si Si5 0.463235 0.429556 0.066235
O O1 0.263813 0.179408 0.642936
O O2 0.251932 0.193653 0.740787
O O3 0.579258 0.098501 0.555155
O O4 0.251461 0.923542 0.697946
O O5 0.840783 0.058005 0.894203
O O6 0.582812 0.269292 0.007394
O O7 0.500000 0.000000 0.000000
O O8 0.054777 0.033224 0.067844
O O9 0.079989 0.215670 0.133985
O O10 0.267592 0.870801 0.319406
O O11 0.500000 0.500000 0.000000
#
# Coordination Sequence:
#
# PCOD9293103 Si02
#       5
#     8   8   8   8   8
#     4  11  25  47  71 109 144 188 243 303 357 444
#     4  10  22  44  73 102 146 184 236 300 362 427
#     4  11  24  47  75 101 144 193 240 302 367 424
#     4  12  24  45  74 103 147 189 246 293 369 431
#     4  12  25  46  73 105 148 189 243 304 359 434
#
# _framework density 24.598210999999999
#
# number of rings (size 3 to 8) (size 9 to 14) (size 15 to 20)
#    0.000    0.800    6.000    2.400    0.000    2.400 
#    3.600    0.000    0.000    0.000    0.000    0.000 
#    0.000    0.000    0.000    0.000    0.000    0.000 
#
# Total GULP energy -111687.380121 kJ/mol
# GULP energy per Si atom -5584.369006 kJ/mol
# Density = 2.454222 g / cm^3
# Si number density = 24.598211 Si / 1000 Ang^3
#
#
#
# Elastic Constant Matrix: (Units=GPa)
#
#
# Indices 1 2 3 4 5 6 
#
# 1 98.7870 9.1745 37.6986 0.0001 20.3320 0.0000
# 2 9.1745 58.6671 33.7653 -0.0003 -0.6067 0.0002
# 3 37.6986 33.7653 107.6659 0.0057 5.5726 -0.0025
# 4 0.0001 -0.0003 0.0057 54.4773 0.0004 24.2030
# 5 20.3320 -0.6067 5.5726 0.0004 44.8416 0.0003
# 6 0.0000 0.0002 -0.0025 24.2030 0.0003 39.4197
#
#
#
# Elastic Compliance Matrix: (Units=1/GPa)
#
#
# Indices 1 2 3 4 5 6 
#
# 1 0.012830 0.000449 -0.004360 0.000001 -0.005269 -0.000001
# 2 0.000449 0.020869 -0.006749 0.000001 0.000918 -0.000001
# 3 -0.004360 -0.006749 0.012917 -0.000002 0.000280 0.000002
# 4 0.000001 0.000001 -0.000002 0.025242 0.000000 -0.015498
# 5 -0.005269 0.000918 0.000280 0.000000 0.024667 0.000000
# 6 -0.000001 -0.000001 0.000002 -0.015498 0.000000 0.034884
#
#
# Mechanical properties :
#
#
# Convention : Reuss Voigt Hill
#
# Bulk Modulus (GPa) = 39.53549 47.37743 43.45646
# Shear Modulus (GPa) = 31.02479 40.04648 35.53563
#
# Velocity S-wave (km/s) = 3.55528 4.03926 3.80497
# Velocity P-wave (km/s) = 5.74114 6.40753 6.08347
#
# Compressibility (1/GPa) = 0.02529373
#
# Stress axis : x y z
#
# Youngs Moduli (GPa) = 77.94524 47.91740 77.41818
#
# Poissons Ratio (x) = -0.02150 0.33756
# Poissons Ratio (y) = -0.03497 0.52253
# Poissons Ratio (z) = 0.33985 0.32342
#
# Static dielectric constant tensor:
#      x y z
#    x 1.946420 0.000000 0.010780 
#    y 0.000000 2.042850 0.000000 
#    z 0.010780 0.000000 2.057900 
# 
# From -- ./inp_files/313043.got.cif
#   From: 2010.05.17/outbox.cif.g08.bks.cpg/sg15_157_cif.got.tgz:313043.got - 2010.06.03 18:47:42.
