data_PCOD9293547
_publ_section_title
;
Structure prediction by ZEFSAII (Michael W. Deem and Ramdas Pophale) SiO2 
 PCOD9293547
Probable space group: C 2/C
;
_chemical_formula_sum "Si O2"
_cell_formula_units_Z 40
_cell_length_a 9.984968
_cell_length_b 11.428710
_cell_length_c 14.037445
_cell_angle_alpha 90.000000
_cell_angle_beta 83.547454
_cell_angle_gamma 90.000000
_cell_volume 1591.739780
_symmetry_space_group_name_H-M "C 2/C"
_symmetry_group_IT_number 15
_symmetry_cell_setting 'monoclinic'
loop_
_space_group_symop_operation_xyz
x,y,z
-x,y,1/2-z
-x,-y,-z
x,-y,1/2+z
1/2+x,1/2+y,z
1/2-x,1/2+y,1/2-z
1/2-x,1/2-y,-z
1/2+x,1/2-y,1/2+z
loop_
_atom_site_type_symbol
_atom_site_label
_atom_site_fract_x
_atom_site_fract_y
_atom_site_fract_z
Si Si1 0.000000 0.925108 0.750000
Si Si2 0.264300 0.449839 0.347493
Si Si3 0.826708 0.807143 0.607672
Si Si4 0.000000 0.000000 0.000000
Si Si5 0.624005 0.993140 0.673314
Si Si6 0.785800 0.617030 0.992899
O O1 0.896186 0.841627 0.703877
O O2 0.923498 0.007262 0.835595
O O3 0.215843 0.327762 0.393810
O O4 0.230448 0.450209 0.239009
O O5 0.190587 0.555369 0.407989
O O6 0.686264 0.878074 0.621906
O O7 0.933310 0.864248 0.526621
O O8 0.149799 0.053402 0.967757
O O9 0.500000 0.967342 0.750000
O O10 0.599485 0.086226 0.592037
O O11 0.750000 0.750000 0.000000
#
# Coordination Sequence:
#
# PCOD9293547 Si02
#       6
#     4   8   8   4   8   8
#     4  10  22  46  68 102 144 188 242 296 360 434
#     4  11  25  44  77 106 138 205 232 302 375 418
#     4  10  23  44  73  99 144 189 237 300 365 424
#     4  10  22  46  70 102 138 186 240 300 354 432
#     4  10  26  44  67 113 140 186 248 297 356 440
#     4  11  26  49  73 106 147 192 243 298 368 430
#
# _framework density 25.129735
#
# number of rings (size 3 to 8) (size 9 to 14) (size 15 to 20)
#    0.000    1.600    2.000    0.000   11.200    4.000 
#    3.600    0.000    0.000    0.000    0.000    0.000 
#    0.000    0.000    0.000    0.000    0.000    0.000 
#
# Total GULP energy -111385.086526 kJ/mol
# GULP energy per Si atom -5569.254326 kJ/mol
# Density = 2.507254 g / cm^3
# Si number density = 25.129735 Si / 1000 Ang^3
#
#
#
# Elastic Constant Matrix: (Units=GPa)
#
#
# Indices 1 2 3 4 5 6 
#
# 1 73.9948 13.8867 4.0348 0.0000 -13.6930 0.0000
# 2 13.8867 181.1127 49.9502 0.0000 -8.6214 0.0000
# 3 4.0348 49.9502 135.8010 0.0000 -25.8369 0.0000
# 4 0.0000 0.0000 0.0000 31.1988 0.0000 -3.0856
# 5 -13.6930 -8.6214 -25.8369 0.0000 42.3908 0.0000
# 6 0.0000 0.0000 0.0000 -3.0856 0.0000 30.3243
#
#
#
# Elastic Compliance Matrix: (Units=1/GPa)
#
#
# Indices 1 2 3 4 5 6 
#
# 1 0.014615 -0.001141 0.000950 0.000000 0.005068 0.000000
# 2 -0.001141 0.006235 -0.002362 0.000000 -0.000540 0.000000
# 3 0.000950 -0.002362 0.009243 0.000000 0.005460 0.000000
# 4 0.000000 0.000000 0.000000 0.032378 0.000000 0.003295
# 5 0.005068 -0.000540 0.005460 0.000000 0.028445 0.000000
# 6 0.000000 0.000000 0.000000 0.003295 0.000000 0.033312
#
#
# Mechanical properties :
#
#
# Convention : Reuss Voigt Hill
#
# Bulk Modulus (GPa) = 40.02400 58.51689 49.27045
# Shear Modulus (GPa) = 36.32047 42.31857 39.31952
#
# Velocity S-wave (km/s) = 3.80586 4.10811 3.95987
# Velocity P-wave (km/s) = 5.93921 6.77042 6.36839
#
# Compressibility (1/GPa) = 0.02498501
#
# Stress axis : x y z
#
# Youngs Moduli (GPa) = 68.42463 160.39327 108.18849
#
# Poissons Ratio (x) = 0.18305 -0.10275
# Poissons Ratio (y) = 0.07809 0.25556
# Poissons Ratio (z) = -0.06498 0.37887
#
# Static dielectric constant tensor:
#      x y z
#    x 1.945140 0.000000 -0.175690 
#    y 0.000000 2.000080 0.000000 
#    z -0.175690 0.000000 1.664070 
# 
# From -- ./inp_files/142179.got.cif
#   From: 2010.05.17/outbox.cif.g08.bks.cpg/sg15_72_cif.got.tgz:142179.got - 2010.06.03 18:47:42.
