data_PCOD9293996
_publ_section_title
;
Structure prediction by ZEFSAII (Michael W. Deem and Ramdas Pophale) SiO2 
 PCOD9293996
Probable space group: C 2/C
;
_chemical_formula_sum "Si O2"
_cell_formula_units_Z 48
_cell_length_a 12.083134
_cell_length_b 12.094883
_cell_length_c 17.024444
_cell_angle_alpha 90.000000
_cell_angle_beta 108.539059
_cell_angle_gamma 90.000000
_cell_volume 2358.911302
_symmetry_space_group_name_H-M "C 2/C"
_symmetry_group_IT_number 15
_symmetry_cell_setting 'monoclinic'
loop_
_space_group_symop_operation_xyz
x,y,z
-x,y,1/2-z
-x,-y,-z
x,-y,1/2+z
1/2+x,1/2+y,z
1/2-x,1/2+y,1/2-z
1/2-x,1/2-y,-z
1/2+x,1/2-y,1/2+z
loop_
_atom_site_type_symbol
_atom_site_label
_atom_site_fract_x
_atom_site_fract_y
_atom_site_fract_z
Si Si1 0.001546 0.605292 0.057405
Si Si2 0.805446 0.325468 0.631226
Si Si3 0.118305 0.503187 0.731945
Si Si4 0.336167 0.396219 0.220959
Si Si5 0.958019 0.821325 0.969719
Si Si6 0.534264 0.513658 0.881993
O O1 0.878882 0.638281 0.071617
O O2 0.081598 0.572302 0.149491
O O3 0.029880 0.714195 0.013065
O O4 0.000000 0.500000 0.000000
O O5 0.809721 0.428886 0.690670
O O6 0.863511 0.223289 0.690564
O O7 0.674486 0.291414 0.581815
O O8 0.204618 0.597944 0.722140
O O9 0.000000 0.538638 0.750000
O O10 0.357188 0.479106 0.152724
O O11 0.425275 0.436972 0.307909
O O12 0.948678 0.904959 0.040984
O O13 0.011189 0.892373 0.910602
#
# Coordination Sequence:
#
# PCOD9293996 Si02
#       6
#     8   8   8   8   8   8
#     4  11  23  38  64  95 129 167 217 265 319 378
#     4  11  22  39  67  90 126 173 216 258 326 387
#     4  10  23  41  60  93 126 164 214 267 319 378
#     4  11  21  43  65  94 121 179 212 263 317 400
#     4  11  21  41  61 100 125 168 211 275 314 382
#     4  10  23  37  70  92 132 160 225 256 321 380
#
# _framework density 20.348369000000002
#
# number of rings (size 3 to 8) (size 9 to 14) (size 15 to 20)
#    0.000    1.333    3.333    2.500    7.000    0.000 
#    0.000    5.833    3.667    0.000    0.000    0.000 
#    0.000    0.000    0.000    0.000    0.000    0.000 
#
# Total GULP energy -134001.678759 kJ/mol
# GULP energy per Si atom -5583.403282 kJ/mol
# Density = 2.030206 g / cm^3
# Si number density = 20.348369 Si / 1000 Ang^3
#
#
#
# Elastic Constant Matrix: (Units=GPa)
#
#
# Indices 1 2 3 4 5 6 
#
# 1 81.9194 23.9953 22.3871 0.0000 -11.2582 0.0000
# 2 23.9953 86.2421 29.3358 0.0000 -16.6472 0.0000
# 3 22.3871 29.3358 85.1446 0.0000 -18.4401 0.0000
# 4 0.0000 0.0000 0.0000 36.3825 0.0000 -10.9509
# 5 -11.2582 -16.6472 -18.4401 0.0000 19.2144 0.0000
# 6 0.0000 0.0000 0.0000 -10.9509 0.0000 20.6025
#
#
#
# Elastic Compliance Matrix: (Units=1/GPa)
#
#
# Indices 1 2 3 4 5 6 
#
# 1 0.014031 -0.002423 -0.001930 0.000000 0.004270 0.000000
# 2 -0.002423 0.014875 -0.002530 0.000000 0.009040 0.000000
# 3 -0.001930 -0.002530 0.015659 0.000000 0.011705 0.000000
# 4 0.000000 0.000000 0.000000 0.032721 0.000000 0.017392
# 5 0.004270 0.009040 0.011705 0.000000 0.073611 0.000000
# 6 0.000000 0.000000 0.000000 0.017392 0.000000 0.057782
#
#
# Mechanical properties :
#
#
# Convention : Reuss Voigt Hill
#
# Bulk Modulus (GPa) = 32.46871 44.97139 38.72005
# Shear Modulus (GPa) = 21.48583 27.07907 24.28245
#
# Velocity S-wave (km/s) = 3.25299 3.65193 3.45822
# Velocity P-wave (km/s) = 5.48637 6.31909 5.91740
#
# Compressibility (1/GPa) = 0.03079888
#
# Stress axis : x y z
#
# Youngs Moduli (GPa) = 71.27051 67.22659 63.86175
#
# Poissons Ratio (x) = 0.16291 0.12322
# Poissons Ratio (y) = 0.17271 0.16158
# Poissons Ratio (z) = 0.13752 0.17009
#
# Static dielectric constant tensor:
#      x y z
#    x 1.739580 0.000000 -0.012160 
#    y 0.000000 1.732420 0.000000 
#    z -0.012160 0.000000 1.735070 
# 
# From -- ./inp_files/196568.got.cif
#   From: 2010.05.17/outbox.cif.g08.bks.cpg/sg15_99_cif.got.tgz:196568.got - 2010.06.03 18:47:42.
