data_PCOD9293416
_publ_section_title
;
Structure prediction by ZEFSAII (Michael W. Deem and Ramdas Pophale) SiO2 
 PCOD9293416
Probable space group: C 2/C
;
_chemical_formula_sum "Si O2"
_cell_formula_units_Z 20
_cell_length_a 7.925784
_cell_length_b 19.365169
_cell_length_c 5.081220
_cell_angle_alpha 90.000000
_cell_angle_beta 95.753104
_cell_angle_gamma 90.000000
_cell_volume 775.958496
_symmetry_space_group_name_H-M "C 2/C"
_symmetry_group_IT_number 15
_symmetry_cell_setting 'monoclinic'
loop_
_space_group_symop_operation_xyz
x,y,z
-x,y,1/2-z
-x,-y,-z
x,-y,1/2+z
1/2+x,1/2+y,z
1/2-x,1/2+y,1/2-z
1/2-x,1/2-y,-z
1/2+x,1/2-y,1/2+z
loop_
_atom_site_type_symbol
_atom_site_label
_atom_site_fract_x
_atom_site_fract_y
_atom_site_fract_z
Si Si1 0.325186 0.314181 0.856212
Si Si2 0.000000 0.615541 0.250000
Si Si3 0.774663 0.045552 0.590980
O O1 0.500000 0.294485 0.750000
O O2 0.364720 0.382463 0.034437
O O3 0.159890 0.340702 0.666257
O O4 0.250000 0.250000 0.000000
O O5 0.082911 0.569623 0.490108
O O6 0.810316 0.013173 0.877710
#
# Coordination Sequence:
#
# PCOD9293416 Si02
#       3
#     8   4   8
#     4  10  24  45  68 105 142 193 238 297 359 431
#     4   8  22  42  70 100 146 184 236 300 354 434
#     4  10  22  45  73 106 144 188 238 299 364 427
#
# _framework density 25.774576
#
# number of rings (size 3 to 8) (size 9 to 14) (size 15 to 20)
#    2.400    0.000    0.000    1.200    0.000    6.400 
#    7.200    0.000    0.000    0.000    0.000    0.000 
#    0.000    0.000    0.000    0.000    0.000    0.000 
#
# Total GULP energy -55842.422526 kJ/mol
# GULP energy per Si atom -5584.242253 kJ/mol
# Density = 2.571591 g / cm^3
# Si number density = 25.774576 Si / 1000 Ang^3
#
#
#
# Elastic Constant Matrix: (Units=GPa)
#
#
# Indices 1 2 3 4 5 6 
#
# 1 220.1653 77.2756 62.1219 0.0000 -22.2606 0.0000
# 2 77.2756 175.7381 32.3201 0.0000 -29.2240 0.0000
# 3 62.1219 32.3201 59.1657 0.0000 -0.6617 0.0000
# 4 0.0000 0.0000 0.0000 22.7568 0.0000 -6.9124
# 5 -22.2606 -29.2240 -0.6617 0.0000 51.0494 0.0000
# 6 0.0000 0.0000 0.0000 -6.9124 0.0000 46.6129
#
#
#
# Elastic Compliance Matrix: (Units=1/GPa)
#
#
# Indices 1 2 3 4 5 6 
#
# 1 0.007195 -0.001581 -0.006667 0.000000 0.002146 0.000000
# 2 -0.001581 0.007401 -0.002344 0.000000 0.003517 0.000000
# 3 -0.006667 -0.002344 0.025138 0.000000 -0.003923 0.000000
# 4 0.000000 0.000000 0.000000 0.046016 0.000000 0.006824
# 5 0.002146 0.003517 -0.003923 0.000000 0.022487 0.000000
# 6 0.000000 0.000000 0.000000 0.006824 0.000000 0.022465
#
#
# Mechanical properties :
#
#
# Convention : Reuss Voigt Hill
#
# Bulk Modulus (GPa) = 53.90489 88.72271 71.31380
# Shear Modulus (GPa) = 31.63150 42.97394 37.30272
#
# Velocity S-wave (km/s) = 3.50699 4.08769 3.80842
# Velocity P-wave (km/s) = 6.11212 7.53500 6.86055
#
# Compressibility (1/GPa) = 0.01855119
#
# Stress axis : x y z
#
# Youngs Moduli (GPa) = 138.98472 135.10993 39.77987
#
# Poissons Ratio (x) = 0.21358 0.26521
# Poissons Ratio (y) = 0.21971 0.09324
# Poissons Ratio (z) = 0.92661 0.31670
#
# Static dielectric constant tensor:
#      x y z
#    x 2.148880 0.000000 -0.008780 
#    y 0.000000 2.017490 0.000000 
#    z -0.008780 0.000000 2.030560 
# 
# From -- ./inp_files/919.got.cif
#   From: 2010.05.17/outbox.cif.g08.bks.cpg/sg15_1_cif.got.tgz:919.got - 2010.06.03 18:47:42.
