data_PCOD9293536
_publ_section_title
;
Structure prediction by ZEFSAII (Michael W. Deem and Ramdas Pophale) SiO2 
 PCOD9293536
Probable space group: C 2/C
;
_chemical_formula_sum "Si O2"
_cell_formula_units_Z 44
_cell_length_a 13.605967
_cell_length_b 12.043555
_cell_length_c 14.279459
_cell_angle_alpha 90.000000
_cell_angle_beta 118.740947
_cell_angle_gamma 90.000000
_cell_volume 2051.623983
_symmetry_space_group_name_H-M "C 2/C"
_symmetry_group_IT_number 15
_symmetry_cell_setting 'monoclinic'
loop_
_space_group_symop_operation_xyz
x,y,z
-x,y,1/2-z
-x,-y,-z
x,-y,1/2+z
1/2+x,1/2+y,z
1/2-x,1/2+y,1/2-z
1/2-x,1/2-y,-z
1/2+x,1/2-y,1/2+z
loop_
_atom_site_type_symbol
_atom_site_label
_atom_site_fract_x
_atom_site_fract_y
_atom_site_fract_z
Si Si1 0.948204 0.390458 0.520378
Si Si2 0.771147 0.358858 0.574340
Si Si3 0.311626 0.779317 0.297768
Si Si4 0.000000 0.814178 0.750000
Si Si5 0.581656 0.662126 0.602346
Si Si6 0.422577 0.483487 0.581816
O O1 0.892169 0.401856 0.597374
O O2 0.854099 0.358600 0.400119
O O3 0.000000 0.500000 0.500000
O O4 0.030003 0.284641 0.569260
O O5 0.750000 0.250000 0.500000
O O6 0.742251 0.324058 0.667413
O O7 0.685416 0.450591 0.499809
O O8 0.421667 0.751911 0.286494
O O9 0.211257 0.828842 0.189583
O O10 0.087257 0.898752 0.838250
O O11 0.516052 0.578611 0.642053
O O12 0.552616 0.600225 0.492342
#
# Coordination Sequence:
#
# PCOD9293536 Si02
#       6
#     8   8   8   4   8   8
#     4  11  25  46  69 102 146 184 230 292 352 415
#     4  10  22  46  67  99 139 178 234 285 339 421
#     4  11  25  46  68 105 139 185 238 284 355 421
#     4  12  26  42  76 104 140 184 232 290 364 418
#     4  11  24  45  73 101 143 177 236 292 349 418
#     4  11  23  43  72 103 138 182 234 296 341 423
#
# _framework density 21.446425000000001
#
# number of rings (size 3 to 8) (size 9 to 14) (size 15 to 20)
#    0.000    1.091    5.455    1.091    7.636    4.364 
#    0.000    0.000    0.000    0.000    0.000    0.000 
#    0.000    0.000    0.000    0.000    0.000    0.000 
#
# Total GULP energy -122653.138090 kJ/mol
# GULP energy per Si atom -5575.142640 kJ/mol
# Density = 2.139761 g / cm^3
# Si number density = 21.446425 Si / 1000 Ang^3
#
#
#
# Elastic Constant Matrix: (Units=GPa)
#
#
# Indices 1 2 3 4 5 6 
#
# 1 121.7094 65.4840 19.3794 0.0000 -10.9150 0.0000
# 2 65.4840 80.6230 10.5705 0.0000 5.3757 0.0000
# 3 19.3794 10.5705 52.4915 0.0000 9.5105 0.0000
# 4 0.0000 0.0000 0.0000 26.3058 0.0000 10.2668
# 5 -10.9150 5.3757 9.5105 0.0000 40.0251 0.0000
# 6 0.0000 0.0000 0.0000 10.2668 0.0000 30.4323
#
#
#
# Elastic Compliance Matrix: (Units=1/GPa)
#
#
# Indices 1 2 3 4 5 6 
#
# 1 0.017082 -0.013740 -0.004930 0.000000 0.007675 0.000000
# 2 -0.013740 0.023842 0.001599 0.000000 -0.007329 0.000000
# 3 -0.004930 0.001599 0.021769 0.000000 -0.006732 0.000000
# 4 0.000000 0.000000 0.000000 0.043779 0.000000 -0.014769
# 5 0.007675 -0.007329 -0.006732 0.000000 0.029661 0.000000
# 6 0.000000 0.000000 0.000000 -0.014769 0.000000 0.037843
#
#
# Mechanical properties :
#
#
# Convention : Reuss Voigt Hill
#
# Bulk Modulus (GPa) = 35.02482 49.52131 42.27307
# Shear Modulus (GPa) = 22.97424 29.97862 26.47643
#
# Velocity S-wave (km/s) = 3.27653 3.74282 3.51741
# Velocity P-wave (km/s) = 5.53904 6.46677 6.02080
#
# Compressibility (1/GPa) = 0.02855118
#
# Stress axis : x y z
#
# Youngs Moduli (GPa) = 58.54013 41.94208 45.93778
#
# Poissons Ratio (x) = 0.57629 0.22649
# Poissons Ratio (y) = 0.80434 -0.07347
# Poissons Ratio (z) = 0.28862 -0.06708
#
# Static dielectric constant tensor:
#      x y z
#    x 1.872270 0.000000 -0.080570 
#    y 0.000000 1.816770 0.000000 
#    z -0.080570 0.000000 1.903020 
# 
# From -- ./inp_files/152246.got.cif
#   From: 2010.05.17/outbox.cif.g08.bks.cpg/sg15_77_cif.got.tgz:152246.got - 2010.06.03 18:47:42.
