data_PCOD9293686
_publ_section_title
;
Structure prediction by ZEFSAII (Michael W. Deem and Ramdas Pophale) SiO2 
 PCOD9293686
Probable space group: C 2/C
;
_chemical_formula_sum "Si O2"
_cell_formula_units_Z 36
_cell_length_a 24.762258
_cell_length_b 8.023302
_cell_length_c 13.793587
_cell_angle_alpha 90.000000
_cell_angle_beta 150.467490
_cell_angle_gamma 90.000000
_cell_volume 1350.811304
_symmetry_space_group_name_H-M "C 2/C"
_symmetry_group_IT_number 15
_symmetry_cell_setting 'monoclinic'
loop_
_space_group_symop_operation_xyz
x,y,z
-x,y,1/2-z
-x,-y,-z
x,-y,1/2+z
1/2+x,1/2+y,z
1/2-x,1/2+y,1/2-z
1/2-x,1/2-y,-z
1/2+x,1/2-y,1/2+z
loop_
_atom_site_type_symbol
_atom_site_label
_atom_site_fract_x
_atom_site_fract_y
_atom_site_fract_z
Si Si1 0.930550 0.673326 0.557436
Si Si2 0.325339 0.672310 0.534627
Si Si3 0.500000 0.860573 0.750000
Si Si4 0.237367 0.694853 0.868814
Si Si5 0.994818 0.809349 0.460971
O O1 0.810507 0.685817 0.415473
O O2 0.000000 0.776248 0.750000
O O3 0.996267 0.505831 0.829978
O O4 0.922175 0.732694 0.434033
O O5 0.250000 0.750000 0.500000
O O6 0.371833 0.800924 0.530485
O O7 0.282492 0.494848 0.434082
O O8 0.446613 0.677574 0.777248
O O9 0.110735 0.722056 0.650294
O O10 0.250000 0.750000 0.000000
O O11 0.000000 0.000000 0.500000
#
# Coordination Sequence:
#
# PCOD9293686 Si02
#       5
#     8   8   4   8   8
#     4  10  22  46  73 102 152 202 251 319 391 456
#     4  12  27  46  73 108 154 198 259 320 386 467
#     4  10  26  44  72 104 154 204 252 312 388 460
#     4  12  23  46  77 104 152 199 252 324 384 458
#     4  12  26  45  79 112 146 201 262 316 398 460
#
# _framework density 26.650649999999999
#
# number of rings (size 3 to 8) (size 9 to 14) (size 15 to 20)
#    0.667    0.000    4.444    2.667    4.667    5.333 
#    0.000    0.000    0.000    0.000    0.000    0.000 
#    0.000    0.000    0.000    0.000    0.000    0.000 
#
# Total GULP energy -100429.936842 kJ/mol
# GULP energy per Si atom -5579.440936 kJ/mol
# Density = 2.658999 g / cm^3
# Si number density = 26.650650 Si / 1000 Ang^3
#
#
#
# Elastic Constant Matrix: (Units=GPa)
#
#
# Indices 1 2 3 4 5 6 
#
# 1 106.0962 -8.8724 8.4690 0.0000 46.1374 0.0000
# 2 -8.8724 143.0903 11.1140 0.0000 36.9717 0.0000
# 3 8.4690 11.1140 101.2028 0.0000 13.2002 0.0000
# 4 0.0000 0.0000 0.0000 43.0986 0.0000 18.7171
# 5 46.1374 36.9717 13.2002 0.0000 58.3644 0.0000
# 6 0.0000 0.0000 0.0000 18.7171 0.0000 18.2584
#
#
#
# Elastic Compliance Matrix: (Units=1/GPa)
#
#
# Indices 1 2 3 4 5 6 
#
# 1 0.017396 0.005534 0.000193 0.000000 -0.017301 0.000000
# 2 0.005534 0.010122 -0.000173 0.000000 -0.010748 0.000000
# 3 0.000193 -0.000173 0.010190 0.000000 -0.002348 0.000000
# 4 0.000000 0.000000 0.000000 0.041821 0.000000 -0.042871
# 5 -0.017301 -0.010748 -0.002348 0.000000 0.038150 0.000000
# 6 0.000000 0.000000 0.000000 -0.042871 0.000000 0.098717
#
#
# Mechanical properties :
#
#
# Convention : Reuss Voigt Hill
#
# Bulk Modulus (GPa) = 20.48456 41.31228 30.89842
# Shear Modulus (GPa) = 22.56718 46.58955 34.57836
#
# Velocity S-wave (km/s) = 2.91310 4.18563 3.60595
# Velocity P-wave (km/s) = 4.36095 6.23654 5.38109
#
# Compressibility (1/GPa) = 0.04881725
#
# Stress axis : x y z
#
# Youngs Moduli (GPa) = 57.48294 98.79363 98.13336
#
# Poissons Ratio (x) = -0.54672 -0.01895
# Poissons Ratio (y) = -0.31811 0.01696
# Poissons Ratio (z) = -0.01110 0.01708
#
# Static dielectric constant tensor:
#      x y z
#    x -18.965290 0.000000 12.463380 
#    y 0.000000 1.822920 0.000000 
#    z 12.463380 0.000000 -5.377660 
# 
# From -- ./inp_files/177064.got.cif
#   From: 2010.05.17/outbox.cif.g08.bks.cpg/sg15_89_cif.got.tgz:177064.got - 2010.06.03 18:47:42.
