data_PCOD9293974
_publ_section_title
;
Structure prediction by ZEFSAII (Michael W. Deem and Ramdas Pophale) SiO2 
 PCOD9293974
Probable space group: C 2/C
;
_chemical_formula_sum "Si O2"
_cell_formula_units_Z 56
_cell_length_a 13.004871
_cell_length_b 19.723600
_cell_length_c 13.627585
_cell_angle_alpha 90.000000
_cell_angle_beta 40.446148
_cell_angle_gamma 90.000000
_cell_volume 2267.655956
_symmetry_space_group_name_H-M "C 2/C"
_symmetry_group_IT_number 15
_symmetry_cell_setting 'monoclinic'
loop_
_space_group_symop_operation_xyz
x,y,z
-x,y,1/2-z
-x,-y,-z
x,-y,1/2+z
1/2+x,1/2+y,z
1/2-x,1/2+y,1/2-z
1/2-x,1/2-y,-z
1/2+x,1/2-y,1/2+z
loop_
_atom_site_type_symbol
_atom_site_label
_atom_site_fract_x
_atom_site_fract_y
_atom_site_fract_z
Si Si1 0.704465 0.546740 0.793725
Si Si2 0.167541 0.054422 0.179665
Si Si3 0.862658 0.645050 0.282157
Si Si4 0.530402 0.352974 0.121230
Si Si5 0.695248 0.697741 0.209436
Si Si6 0.374807 0.674639 0.540188
Si Si7 0.517899 0.999387 0.625723
O O1 0.654980 0.468907 0.804621
O O2 0.591606 0.583860 0.797348
O O3 0.671727 0.595414 0.911686
O O4 0.894782 0.543524 0.650861
O O5 0.235485 0.130290 0.119350
O O6 0.000000 0.048897 0.250000
O O7 0.302211 0.007014 0.036304
O O8 0.711115 0.629769 0.462681
O O9 0.789556 0.685642 0.243684
O O10 0.948535 0.576863 0.179959
O O11 0.000000 0.677292 0.250000
O O12 0.500000 0.324159 0.250000
O O13 0.465186 0.309593 0.077804
O O14 0.508743 0.688343 0.363947
O O15 0.737187 0.770339 0.135089
O O16 0.500000 0.024054 0.750000
#
# Coordination Sequence:
#
# PCOD9293974 Si02
#       7
#     8   8   8   8   8   8   8
#     4  10  23  43  70  97 134 176 223 276 348 389
#     4  12  28  43  71 102 139 179 223 282 337 408
#     4  10  23  37  61 100 136 171 214 271 337 407
#     4   9  21  38  64  96 132 177 218 269 338 403
#     4  11  24  47  64  98 135 177 235 269 345 398
#     4   9  25  39  71  91 130 184 219 284 327 399
#     4  11  26  40  66 103 133 171 220 278 337 399
#
# _framework density 24.695105000000002
#
# number of rings (size 3 to 8) (size 9 to 14) (size 15 to 20)
#    0.857    0.857    1.429    0.857   12.000    2.857 
#    0.000    4.286    0.000    0.000    0.000    0.000 
#    0.000    0.000    0.000    0.000    0.000    0.000 
#
# Total GULP energy -156116.813713 kJ/mol
# GULP energy per Si atom -5575.600490 kJ/mol
# Density = 2.463890 g / cm^3
# Si number density = 24.695105 Si / 1000 Ang^3
#
#
#
# Elastic Constant Matrix: (Units=GPa)
#
#
# Indices 1 2 3 4 5 6 
#
# 1 79.7598 3.9539 12.8779 0.0023 -15.9778 0.0003
# 2 3.9539 88.1836 44.5024 0.0045 -7.5052 -0.0002
# 3 12.8779 44.5024 136.0266 0.0124 -19.5264 -0.0009
# 4 0.0023 0.0045 0.0124 -2.2631 -0.0061 -17.0752
# 5 -15.9778 -7.5052 -19.5264 -0.0061 42.3586 -0.0006
# 6 0.0003 -0.0002 -0.0009 -17.0752 -0.0006 13.0037
#
#
#
# Elastic Compliance Matrix: (Units=1/GPa)
#
#
# Indices 1 2 3 4 5 6 
#
# 1 0.013608 0.000122 -0.000630 0.000000 0.004864 0.000000
# 2 0.000122 0.013589 -0.004396 0.000000 0.000427 0.000000
# 3 -0.000630 -0.004396 0.009320 0.000002 0.003280 0.000004
# 4 0.000000 0.000000 0.000002 -0.040511 -0.000005 -0.053195
# 5 0.004864 0.000427 0.003280 -0.000005 0.027030 -0.000006
# 6 0.000000 0.000000 0.000004 -0.053195 -0.000006 0.007050
#
#
# Mechanical properties :
#
#
# Convention : Reuss Voigt Hill
#
# Bulk Modulus (GPa) = 37.44086 47.40427 42.42256
# Shear Modulus (GPa) = 102.46229 26.79555 64.62892
#
# Velocity S-wave (km/s) = 6.44833 3.29759 5.12128
# Velocity P-wave (km/s) = 8.40449 5.80830 7.22398
#
# Compressibility (1/GPa) = 0.02670879
#
# Stress axis : x y z
#
# Youngs Moduli (GPa) = 73.48780 73.58683 107.29400
#
# Poissons Ratio (x) = -0.00896 0.06758
# Poissons Ratio (y) = -0.00894 0.47167
# Poissons Ratio (z) = 0.04629 0.32349
#
# Static dielectric constant tensor:
#      x y z
#    x 2.061600 0.000000 0.061930 
#    y 0.000000 2.002070 0.000000 
#    z 0.061930 0.000000 1.931360 
# 
# From -- ./inp_files/206910.got.cif
#   From: 2010.05.17/outbox.cif.g08.bks.cpg/sg15_104_cif.got.tgz:206910.got - 2010.06.03 18:47:42.
