data_PCOD9293521
_publ_section_title
;
Structure prediction by ZEFSAII (Michael W. Deem and Ramdas Pophale) SiO2 
 PCOD9293521
Probable space group: C 2/C
;
_chemical_formula_sum "Si O2"
_cell_formula_units_Z 28
_cell_length_a 12.563373
_cell_length_b 16.520071
_cell_length_c 5.516828
_cell_angle_alpha 90.000000
_cell_angle_beta 119.044182
_cell_angle_gamma 90.000000
_cell_volume 1001.016100
_symmetry_space_group_name_H-M "C 2/C"
_symmetry_group_IT_number 15
_symmetry_cell_setting 'monoclinic'
loop_
_space_group_symop_operation_xyz
x,y,z
-x,y,1/2-z
-x,-y,-z
x,-y,1/2+z
1/2+x,1/2+y,z
1/2-x,1/2+y,1/2-z
1/2-x,1/2-y,-z
1/2+x,1/2-y,1/2+z
loop_
_atom_site_type_symbol
_atom_site_label
_atom_site_fract_x
_atom_site_fract_y
_atom_site_fract_z
Si Si1 0.500000 0.813200 0.250000
Si Si2 0.153287 0.973497 0.829479
Si Si3 0.177884 0.197442 0.618158
Si Si4 0.366486 0.094355 0.987138
O O1 0.558448 0.753284 0.516110
O O2 0.404251 0.873238 0.264880
O O3 0.104437 0.972834 0.501403
O O4 0.144382 0.885581 0.940358
O O5 0.287214 0.013649 0.925368
O O6 0.250000 0.250000 0.500000
O O7 0.264895 0.164942 0.932332
O O8 0.500000 0.086398 0.250000
#
# Coordination Sequence:
#
# PCOD9293521 Si02
#       4
#     4   8   8   8
#     4  10  22  46  66  98 136 180 224 278 344 400
#     4  10  23  43  66  99 135 178 225 280 335 406
#     4   9  21  43  64  95 138 175 224 277 340 402
#     4  10  23  39  68  97 133 172 227 275 342 395
#
# _framework density 27.971579999999999
#
# number of rings (size 3 to 8) (size 9 to 14) (size 15 to 20)
#    0.000    2.286    0.000    0.000   12.000    5.714 
#   18.000    5.714    0.000    0.000    0.000    0.000 
#    0.000    0.000    0.000    0.000    0.000    0.000 
#
# Total GULP energy -77974.283952 kJ/mol
# GULP energy per Si atom -5569.591711 kJ/mol
# Density = 2.790792 g / cm^3
# Si number density = 27.971580 Si / 1000 Ang^3
#
#
#
# Elastic Constant Matrix: (Units=GPa)
#
#
# Indices 1 2 3 4 5 6 
#
# 1 124.7220 46.6914 41.5738 0.0000 14.4633 0.0000
# 2 46.6914 156.1308 32.8994 0.0000 17.5347 0.0000
# 3 41.5738 32.8994 185.4231 0.0000 39.7130 0.0000
# 4 0.0000 0.0000 0.0000 38.8895 0.0000 8.4526
# 5 14.4633 17.5347 39.7130 0.0000 57.4227 0.0000
# 6 0.0000 0.0000 0.0000 8.4526 0.0000 38.0570
#
#
#
# Elastic Compliance Matrix: (Units=1/GPa)
#
#
# Indices 1 2 3 4 5 6 
#
# 1 0.009528 -0.002454 -0.001582 0.000000 -0.000557 0.000000
# 2 -0.002454 0.007387 -0.000481 0.000000 -0.001305 0.000000
# 3 -0.001582 -0.000481 0.006710 0.000000 -0.004095 0.000000
# 4 0.000000 0.000000 0.000000 0.027018 0.000000 -0.006001
# 5 -0.000557 -0.001305 -0.004095 0.000000 0.020786 0.000000
# 6 0.000000 0.000000 0.000000 -0.006001 0.000000 0.027609
#
#
# Mechanical properties :
#
#
# Convention : Reuss Voigt Hill
#
# Bulk Modulus (GPa) = 68.52939 78.73391 73.63165
# Shear Modulus (GPa) = 44.27333 49.88126 47.07729
#
# Velocity S-wave (km/s) = 3.98275 4.22748 4.10694
# Velocity P-wave (km/s) = 6.76037 7.21371 6.99072
#
# Compressibility (1/GPa) = 0.01459228
#
# Stress axis : x y z
#
# Youngs Moduli (GPa) = 104.95184 135.38125 149.02701
#
# Poissons Ratio (x) = 0.33217 0.23572
# Poissons Ratio (y) = 0.25751 0.07168
# Poissons Ratio (z) = 0.16601 0.06512
#
# Static dielectric constant tensor:
#      x y z
#    x 2.413810 0.000000 0.220670 
#    y 0.000000 2.148590 0.000000 
#    z 0.220670 0.000000 2.591230 
# 
# From -- ./inp_files/6352.got.cif
#   From: 2010.05.17/outbox.cif.g08.bks.cpg/sg15_4_cif.got.tgz:6352.got - 2010.06.03 18:47:42.
