data_PCOD9293408
_publ_section_title
;
Structure prediction by ZEFSAII (Michael W. Deem and Ramdas Pophale) SiO2 
 PCOD9293408
Probable space group: C 2/C
;
_chemical_formula_sum "Si O2"
_cell_formula_units_Z 40
_cell_length_a 10.691171
_cell_length_b 17.468514
_cell_length_c 9.171977
_cell_angle_alpha 90.000000
_cell_angle_beta 76.318382
_cell_angle_gamma 90.000000
_cell_volume 1664.343254
_symmetry_space_group_name_H-M "C 2/C"
_symmetry_group_IT_number 15
_symmetry_cell_setting 'monoclinic'
loop_
_space_group_symop_operation_xyz
x,y,z
-x,y,1/2-z
-x,-y,-z
x,-y,1/2+z
1/2+x,1/2+y,z
1/2-x,1/2+y,1/2-z
1/2-x,1/2-y,-z
1/2+x,1/2-y,1/2+z
loop_
_atom_site_type_symbol
_atom_site_label
_atom_site_fract_x
_atom_site_fract_y
_atom_site_fract_z
Si Si1 0.885644 0.949837 0.465446
Si Si2 0.095223 0.393828 0.855658
Si Si3 0.726795 0.965985 0.234965
Si Si4 0.153156 0.306992 0.115420
Si Si5 0.379850 0.335896 0.692407
O O1 0.848777 0.959213 0.309297
O O2 0.900668 0.863240 0.521204
O O3 0.762732 0.984281 0.584228
O O4 0.000000 0.000000 0.500000
O O5 0.112835 0.486576 0.846186
O O6 0.243038 0.367838 0.782729
O O7 0.000000 0.372751 0.750000
O O8 0.065761 0.347535 0.012672
O O9 0.704790 0.881929 0.181077
O O10 0.117504 0.252035 0.261726
O O11 0.250000 0.250000 0.000000
O O12 0.500000 0.370655 0.750000
#
# Coordination Sequence:
#
# PCOD9293408 Si02
#       5
#     8   8   8   8   8
#     4  11  22  41  72 104 137 183 239 288 340 416
#     4  10  22  45  72  99 136 183 237 283 346 415
#     4  11  22  42  70  99 137 186 233 287 348 415
#     4  10  23  45  66  97 150 182 222 293 357 410
#     4  10  23  45  68  99 143 179 227 287 349 409
#
# _framework density 24.033503
#
# number of rings (size 3 to 8) (size 9 to 14) (size 15 to 20)
#    0.000    1.600    2.000    3.000    2.800    2.400 
#   14.400    0.000    0.000    0.000    0.000    0.000 
#    0.000    0.000    0.000    0.000    0.000    0.000 
#
# Total GULP energy -111408.887867 kJ/mol
# GULP energy per Si atom -5570.444393 kJ/mol
# Density = 2.397880 g / cm^3
# Si number density = 24.033503 Si / 1000 Ang^3
#
#
#
# Elastic Constant Matrix: (Units=GPa)
#
#
# Indices 1 2 3 4 5 6 
#
# 1 88.6989 25.8109 40.1051 0.0000 23.2632 0.0000
# 2 25.8109 182.5927 62.0960 0.0000 12.4025 0.0000
# 3 40.1051 62.0960 140.3210 0.0000 43.8065 0.0000
# 4 0.0000 0.0000 0.0000 51.7680 0.0000 3.2471
# 5 23.2632 12.4025 43.8065 0.0000 50.5534 0.0000
# 6 0.0000 0.0000 0.0000 3.2471 0.0000 10.7633
#
#
#
# Elastic Compliance Matrix: (Units=1/GPa)
#
#
# Indices 1 2 3 4 5 6 
#
# 1 0.013616 -0.000894 -0.002205 0.000000 -0.004136 0.000000
# 2 -0.000894 0.006561 -0.003117 0.000000 0.001503 0.000000
# 3 -0.002205 -0.003117 0.011763 0.000000 -0.008413 0.000000
# 4 0.000000 0.000000 0.000000 0.019690 0.000000 -0.005940
# 5 -0.004136 0.001503 -0.008413 0.000000 0.028606 0.000000
# 6 0.000000 0.000000 0.000000 -0.005940 0.000000 0.094700
#
#
# Mechanical properties :
#
#
# Convention : Reuss Voigt Hill
#
# Bulk Modulus (GPa) = 51.26159 74.18184 62.72172
# Shear Modulus (GPa) = 25.79056 41.52366 33.65711
#
# Velocity S-wave (km/s) = 3.27939 4.16112 3.74628
# Velocity P-wave (km/s) = 5.97618 7.34980 6.69829
#
# Compressibility (1/GPa) = 0.01950778
#
# Stress axis : x y z
#
# Youngs Moduli (GPa) = 73.44391 152.41529 85.01472
#
# Poissons Ratio (x) = 0.13626 0.18744
# Poissons Ratio (y) = 0.06566 0.26500
# Poissons Ratio (z) = 0.16193 0.47509
#
# Static dielectric constant tensor:
#      x y z
#    x 2.202060 0.000000 -0.209430 
#    y 0.000000 2.015480 0.000000 
#    z -0.209430 0.000000 2.097150 
# 
# From -- ./inp_files/29228.got.cif
#   From: 2010.05.17/outbox.cif.g08.bks.cpg/sg15_15_cif.got.tgz:29228.got - 2010.06.03 18:47:42.
