data_PCOD9293763
_publ_section_title
;
Structure prediction by ZEFSAII (Michael W. Deem and Ramdas Pophale) SiO2 
 PCOD9293763
Probable space group: C 2/C
;
_chemical_formula_sum "Si O2"
_cell_formula_units_Z 60
_cell_length_a 11.866612
_cell_length_b 9.683428
_cell_length_c 24.821631
_cell_angle_alpha 90.000000
_cell_angle_beta 94.695625
_cell_angle_gamma 90.000000
_cell_volume 2842.667638
_symmetry_space_group_name_H-M "C 2/C"
_symmetry_group_IT_number 15
_symmetry_cell_setting 'monoclinic'
loop_
_space_group_symop_operation_xyz
x,y,z
-x,y,1/2-z
-x,-y,-z
x,-y,1/2+z
1/2+x,1/2+y,z
1/2-x,1/2+y,1/2-z
1/2-x,1/2-y,-z
1/2+x,1/2-y,1/2+z
loop_
_atom_site_type_symbol
_atom_site_label
_atom_site_fract_x
_atom_site_fract_y
_atom_site_fract_z
Si Si1 0.284137 0.457359 0.283217
Si Si2 0.320095 0.983999 0.333204
Si Si3 0.500000 0.712237 0.750000
Si Si4 0.214446 0.736561 0.874919
Si Si5 0.714564 0.682848 0.131744
Si Si6 0.938654 0.842769 0.438678
Si Si7 0.509804 0.651554 0.434587
Si Si8 0.038890 0.621463 0.361272
O O1 0.204331 0.501375 0.231058
O O2 0.393668 0.379898 0.264149
O O3 0.217842 0.352999 0.320348
O O4 0.324805 0.589163 0.319363
O O5 0.263468 0.113026 0.360861
O O6 0.453327 0.993773 0.352165
O O7 0.267069 0.839230 0.348633
O O8 0.467728 0.803549 0.697012
O O9 0.306355 0.661390 0.917221
O O10 0.096788 0.769687 0.899220
O O11 0.618938 0.692014 0.083009
O O12 0.830196 0.608209 0.119455
O O13 0.955063 0.821752 0.502644
O O14 0.990712 0.722554 0.404738
O O15 0.002386 0.985357 0.426239
#
# Coordination Sequence:
#
# PCOD9293763 Si02
#       8
#     8   8   4   8   8   8   8   8
#     4  12  24  42  67 101 136 182 228 283 347 418
#     4  11  24  42  66  98 130 186 221 272 348 418
#     4  12  20  44  70  90 138 180 228 272 342 424
#     4  11  23  46  68 100 134 179 231 283 349 419
#     4  12  25  41  61 105 137 169 233 281 342 410
#     4  10  22  47  69  96 129 185 229 281 358 405
#     4  11  24  41  72  99 132 173 234 295 337 414
#     4  11  23  44  66  93 141 181 220 278 349 415
#
# _framework density 21.106933999999999
#
# number of rings (size 3 to 8) (size 9 to 14) (size 15 to 20)
#    0.000    0.800    5.333    2.800    3.733    0.533 
#    0.000    2.667    0.000    0.000    0.000    0.000 
#    0.000    0.000    0.000    0.000    0.000    0.000 
#
# Total GULP energy -167680.326867 kJ/mol
# GULP energy per Si atom -5589.344229 kJ/mol
# Density = 2.105889 g / cm^3
# Si number density = 21.106934 Si / 1000 Ang^3
#
#
#
# Elastic Constant Matrix: (Units=GPa)
#
#
# Indices 1 2 3 4 5 6 
#
# 1 126.7283 -0.4122 39.9689 0.0000 7.6018 0.0000
# 2 -0.4122 55.6533 17.9123 0.0000 -6.8005 0.0000
# 3 39.9689 17.9123 83.5570 0.0000 17.7612 0.0000
# 4 0.0000 0.0000 0.0000 38.9058 0.0000 8.9175
# 5 7.6018 -6.8005 17.7612 0.0000 33.5470 0.0000
# 6 0.0000 0.0000 0.0000 8.9175 0.0000 31.2694
#
#
#
# Elastic Compliance Matrix: (Units=1/GPa)
#
#
# Indices 1 2 3 4 5 6 
#
# 1 0.009453 0.001830 -0.005113 0.000000 0.000936 0.000000
# 2 0.001830 0.021173 -0.007030 0.000000 0.007599 0.000000
# 3 -0.005113 -0.007030 0.018003 0.000000 -0.009798 0.000000
# 4 0.000000 0.000000 0.000000 0.027501 0.000000 -0.007843
# 5 0.000936 0.007599 -0.009798 0.000000 0.036325 0.000000
# 6 0.000000 0.000000 0.000000 -0.007843 0.000000 0.034217
#
#
# Mechanical properties :
#
#
# Convention : Reuss Voigt Hill
#
# Bulk Modulus (GPa) = 35.70879 42.31964 39.01421
# Shear Modulus (GPa) = 28.30737 34.64241 31.47489
#
# Velocity S-wave (km/s) = 3.66613 4.05567 3.86581
# Velocity P-wave (km/s) = 5.90554 6.48266 6.20082
#
# Compressibility (1/GPa) = 0.02800431
#
# Stress axis : x y z
#
# Youngs Moduli (GPa) = 105.78235 47.22985 55.54497
#
# Poissons Ratio (x) = -0.08644 0.28401
# Poissons Ratio (y) = -0.19359 0.39046
# Poissons Ratio (z) = 0.54089 0.33201
#
# Static dielectric constant tensor:
#      x y z
#    x 1.800500 0.000000 0.014660 
#    y 0.000000 1.778160 0.000000 
#    z 0.014660 0.000000 1.722050 
# 
# From -- ./inp_files/291597.got.cif
#   From: 2010.05.17/outbox.cif.g08.bks.cpg/sg15_146_cif.got.tgz:291597.got - 2010.06.03 18:47:42.
