data_PCOD9293558
_publ_section_title
;
Structure prediction by ZEFSAII (Michael W. Deem and Ramdas Pophale) SiO2 
 PCOD9293558
Probable space group: C 2/C
;
_chemical_formula_sum "Si O2"
_cell_formula_units_Z 56
_cell_length_a 14.294985
_cell_length_b 8.414392
_cell_length_c 23.501148
_cell_angle_alpha 90.000000
_cell_angle_beta 66.367489
_cell_angle_gamma 90.000000
_cell_volume 2589.734210
_symmetry_space_group_name_H-M "C 2/C"
_symmetry_group_IT_number 15
_symmetry_cell_setting 'monoclinic'
loop_
_space_group_symop_operation_xyz
x,y,z
-x,y,1/2-z
-x,-y,-z
x,-y,1/2+z
1/2+x,1/2+y,z
1/2-x,1/2+y,1/2-z
1/2-x,1/2-y,-z
1/2+x,1/2-y,1/2+z
loop_
_atom_site_type_symbol
_atom_site_label
_atom_site_fract_x
_atom_site_fract_y
_atom_site_fract_z
Si Si1 0.649093 0.844307 0.453510
Si Si2 0.970569 0.846493 0.953474
Si Si3 0.424642 0.257732 0.192806
Si Si4 0.893429 0.259980 0.358011
Si Si5 0.500000 0.510627 0.250000
Si Si6 0.000000 0.497494 0.750000
Si Si7 0.154195 0.701876 0.412960
Si Si8 0.886329 0.816985 0.424201
O O1 0.589001 0.702049 0.435446
O O2 0.771261 0.833401 0.429932
O O3 0.611929 0.817788 0.527527
O O4 0.627308 0.017152 0.432468
O O5 0.936267 0.731790 0.910983
O O6 0.933479 0.020296 0.940382
O O7 0.909396 0.804676 0.025843
O O8 0.415359 0.407660 0.236731
O O9 0.419761 0.104441 0.233020
O O10 0.367165 0.247867 0.147301
O O11 0.542461 0.268510 0.144620
O O12 0.773427 0.233872 0.392912
O O13 0.943654 0.113371 0.311511
O O14 0.932480 0.403681 0.310501
#
# Coordination Sequence:
#
# PCOD9293558 Si02
#       8
#     8   8   8   8   4   4   8   8
#     4  11  24  40  66 102 140 181 218 278 360 421
#     4  12  23  43  70 103 144 177 227 288 354 427
#     4  11  23  45  66  96 136 176 233 286 345 410
#     4  11  24  44  68  98 135 179 234 282 350 414
#     4  10  22  46  68  86 134 188 226 290 330 412
#     4  10  26  44  68  94 130 188 230 288 340 408
#     4  12  25  41  69 103 137 177 224 293 352 417
#     4  11  24  42  65  99 141 180 225 279 349 427
#
# _framework density 21.623840999999999
#
# number of rings (size 3 to 8) (size 9 to 14) (size 15 to 20)
#    0.000    0.857    4.286    2.143    2.000    2.286 
#    0.000    5.714    0.000    0.000    0.000    0.000 
#    0.000    0.000    0.000    0.000    0.000    0.000 
#
# Total GULP energy -156371.734546 kJ/mol
# GULP energy per Si atom -5584.704805 kJ/mol
# Density = 2.157462 g / cm^3
# Si number density = 21.623841 Si / 1000 Ang^3
#
#
#
# Elastic Constant Matrix: (Units=GPa)
#
#
# Indices 1 2 3 4 5 6 
#
# 1 128.6512 39.0194 36.3968 0.0000 15.4575 0.0000
# 2 39.0194 77.9227 9.2972 0.0000 12.5722 0.0000
# 3 36.3968 9.2972 57.3087 0.0000 33.1967 0.0000
# 4 0.0000 0.0000 0.0000 83.6260 0.0000 -31.7459
# 5 15.4575 12.5722 33.1967 0.0000 43.8540 0.0000
# 6 0.0000 0.0000 0.0000 -31.7459 0.0000 56.6037
#
#
#
# Elastic Compliance Matrix: (Units=1/GPa)
#
#
# Indices 1 2 3 4 5 6 
#
# 1 0.011364 -0.005315 -0.008758 0.000000 0.004147 0.000000
# 2 -0.005315 0.015942 0.004188 0.000000 -0.005867 0.000000
# 3 -0.008758 0.004188 0.037825 0.000000 -0.026747 0.000000
# 4 0.000000 0.000000 0.000000 0.015193 0.000000 0.008521
# 5 0.004147 -0.005867 -0.026747 0.000000 0.043270 0.000000
# 6 0.000000 0.000000 0.000000 0.008521 0.000000 0.022445
#
#
# Mechanical properties :
#
#
# Convention : Reuss Voigt Hill
#
# Bulk Modulus (GPa) = 22.04514 48.14550 35.09532
# Shear Modulus (GPa) = 27.63511 48.76136 38.19824
#
# Velocity S-wave (km/s) = 3.57878 4.75382 4.20752
# Velocity P-wave (km/s) = 5.22435 7.24189 6.31423
#
# Compressibility (1/GPa) = 0.04536147
#
# Stress axis : x y z
#
# Youngs Moduli (GPa) = 87.99528 62.72930 26.43726
#
# Poissons Ratio (x) = 0.33340 0.23153
# Poissons Ratio (y) = 0.46768 -0.11071
# Poissons Ratio (z) = 0.77063 -0.26269
#
# Static dielectric constant tensor:
#      x y z
#    x 1.789340 0.000000 0.017880 
#    y 0.000000 1.866460 0.000000 
#    z 0.017880 0.000000 1.775690 
# 
# From -- ./inp_files/272700.got.cif
#   From: 2010.05.17/outbox.cif.g08.bks.cpg/sg15_137_cif.got.tgz:272700.got - 2010.06.03 18:47:42.
