data_PCOD9293327
_publ_section_title
;
Structure prediction by ZEFSAII (Michael W. Deem and Ramdas Pophale) SiO2 
 PCOD9293327
Probable space group: C 2/C
;
_chemical_formula_sum "Si O2"
_cell_formula_units_Z 40
_cell_length_a 10.820506
_cell_length_b 9.329102
_cell_length_c 15.628101
_cell_angle_alpha 90.000000
_cell_angle_beta 101.393854
_cell_angle_gamma 90.000000
_cell_volume 1546.497577
_symmetry_space_group_name_H-M "C 2/C"
_symmetry_group_IT_number 15
_symmetry_cell_setting 'monoclinic'
loop_
_space_group_symop_operation_xyz
x,y,z
-x,y,1/2-z
-x,-y,-z
x,-y,1/2+z
1/2+x,1/2+y,z
1/2-x,1/2+y,1/2-z
1/2-x,1/2-y,-z
1/2+x,1/2-y,1/2+z
loop_
_atom_site_type_symbol
_atom_site_label
_atom_site_fract_x
_atom_site_fract_y
_atom_site_fract_z
Si Si1 0.319641 0.161382 0.602718
Si Si2 0.000000 0.972043 0.250000
Si Si3 0.500703 0.828380 0.510793
Si Si4 0.596891 0.430179 0.580751
Si Si5 0.500000 0.031416 0.750000
Si Si6 0.864887 0.280187 0.800139
O O1 0.368833 0.215142 0.518533
O O2 0.453016 0.117365 0.663331
O O3 0.261255 0.269657 0.663444
O O4 0.223625 0.025678 0.589766
O O5 0.885105 0.854436 0.240444
O O6 0.967720 0.056256 0.333522
O O7 0.392792 0.733312 0.451522
O O8 0.524141 0.783664 0.612242
O O9 0.500000 0.000000 0.500000
O O10 0.500000 0.500000 0.500000
O O11 0.383625 0.928344 0.756155
#
# Coordination Sequence:
#
# PCOD9293327 Si02
#       6
#     8   4   8   8   4   8
#     4  11  25  44  73 105 140 201 238 305 367 434
#     4   9  20  43  74 106 139 189 244 300 359 437
#     4  12  24  46  72 108 151 190 244 308 369 441
#     4  11  24  46  76 110 143 195 250 299 371 442
#     4  11  24  45  64 106 153 175 254 298 359 443
#     4  10  22  45  70 101 146 190 237 308 361 426
#
# _framework density 25.864896999999999
#
# number of rings (size 3 to 8) (size 9 to 14) (size 15 to 20)
#    0.000    1.200    6.000    0.600    0.000    6.400 
#    0.000    0.000    0.000    0.000    0.000    0.000 
#    0.000    0.000    0.000    0.000    0.000    0.000 
#
# Total GULP energy -111683.734595 kJ/mol
# GULP energy per Si atom -5584.186730 kJ/mol
# Density = 2.580603 g / cm^3
# Si number density = 25.864897 Si / 1000 Ang^3
#
#
#
# Elastic Constant Matrix: (Units=GPa)
#
#
# Indices 1 2 3 4 5 6 
#
# 1 65.7457 16.1569 17.2855 0.0000 -15.6836 0.0000
# 2 16.1569 128.0955 28.5708 0.0000 -1.9856 0.0000
# 3 17.2855 28.5708 124.9839 0.0000 -19.9668 0.0000
# 4 0.0000 0.0000 0.0000 40.6647 0.0000 -11.7239
# 5 -15.6836 -1.9856 -19.9668 0.0000 48.1018 0.0000
# 6 0.0000 0.0000 0.0000 -11.7239 0.0000 28.2081
#
#
#
# Elastic Compliance Matrix: (Units=1/GPa)
#
#
# Indices 1 2 3 4 5 6 
#
# 1 0.017165 -0.001830 -0.001150 0.000000 0.005044 0.000000
# 2 -0.001830 0.008431 -0.001836 0.000000 -0.001011 0.000000
# 3 -0.001150 -0.001836 0.009112 0.000000 0.003332 0.000000
# 4 0.000000 0.000000 0.000000 0.027939 0.000000 0.011612
# 5 0.005044 -0.001011 0.003332 0.000000 0.023775 0.000000
# 6 0.000000 0.000000 0.000000 0.011612 0.000000 0.040277
#
#
# Mechanical properties :
#
#
# Convention : Reuss Voigt Hill
#
# Bulk Modulus (GPa) = 39.87739 49.20571 44.54155
# Shear Modulus (GPa) = 34.55643 40.51573 37.53608
#
# Velocity S-wave (km/s) = 3.65915 3.96212 3.81364
# Velocity P-wave (km/s) = 5.77092 6.32429 6.05393
#
# Compressibility (1/GPa) = 0.02507687
#
# Stress axis : x y z
#
# Youngs Moduli (GPa) = 58.25644 118.60532 109.74632
#
# Poissons Ratio (x) = 0.21710 0.12618
# Poissons Ratio (y) = 0.10664 0.20146
# Poissons Ratio (z) = 0.06698 0.21772
#
# Static dielectric constant tensor:
#      x y z
#    x 2.042050 0.000000 0.013290 
#    y 0.000000 2.128430 0.000000 
#    z 0.013290 0.000000 2.188570 
# 
# From -- ./inp_files/195252.got.cif
#   From: 2010.05.17/outbox.cif.g08.bks.cpg/sg15_98_cif.got.tgz:195252.got - 2010.06.03 18:47:42.
