data_PCOD9293470
_publ_section_title
;
Structure prediction by ZEFSAII (Michael W. Deem and Ramdas Pophale) SiO2 
 PCOD9293470
Probable space group: C 2/C
;
_chemical_formula_sum "Si O2"
_cell_formula_units_Z 40
_cell_length_a 11.751567
_cell_length_b 18.108147
_cell_length_c 8.623032
_cell_angle_alpha 90.000000
_cell_angle_beta 104.743793
_cell_angle_gamma 90.000000
_cell_volume 1774.554246
_symmetry_space_group_name_H-M "C 2/C"
_symmetry_group_IT_number 15
_symmetry_cell_setting 'monoclinic'
loop_
_space_group_symop_operation_xyz
x,y,z
-x,y,1/2-z
-x,-y,-z
x,-y,1/2+z
1/2+x,1/2+y,z
1/2-x,1/2+y,1/2-z
1/2-x,1/2-y,-z
1/2+x,1/2-y,1/2+z
loop_
_atom_site_type_symbol
_atom_site_label
_atom_site_fract_x
_atom_site_fract_y
_atom_site_fract_z
Si Si1 0.823375 0.313003 0.440857
Si Si2 0.875012 0.915276 0.272225
Si Si3 0.500000 0.814257 0.250000
Si Si4 0.325395 0.188108 0.439912
Si Si5 0.624542 0.418387 0.854627
Si Si6 0.500000 0.813379 0.750000
O O1 0.750000 0.250000 0.500000
O O2 0.733852 0.369029 0.330742
O O3 0.908939 0.277748 0.339192
O O4 0.909351 0.351033 0.598273
O O5 0.877116 0.916582 0.459133
O O6 0.000000 0.886450 0.250000
O O7 0.864768 0.998783 0.205078
O O8 0.590478 0.851110 0.402874
O O9 0.250000 0.250000 0.500000
O O10 0.234902 0.129897 0.339434
O O11 0.409587 0.224138 0.339264
O O12 0.500000 0.388478 0.750000
#
# Coordination Sequence:
#
# PCOD9293470 Si02
#       6
#     8   8   4   8   8   4
#     4  11  24  44  72 100 144 185 235 292 350 419
#     4  11  25  45  72 103 141 184 239 292 350 417
#     4  10  22  46  61 102 137 176 238 282 352 418
#     4  11  24  44  70  99 142 185 232 293 349 418
#     4  11  25  46  72 104 139 185 237 293 352 416
#     4  10  26  40  67 106 135 180 242 276 360 418
#
# _framework density 22.540872
#
# number of rings (size 3 to 8) (size 9 to 14) (size 15 to 20)
#    0.000    1.200    2.000    3.600    8.400    1.600 
#    0.000    6.000    0.000    0.000    0.000    0.000 
#    0.000    0.000    0.000    0.000    0.000    0.000 
#
# Total GULP energy -111617.699553 kJ/mol
# GULP energy per Si atom -5580.884978 kJ/mol
# Density = 2.248957 g / cm^3
# Si number density = 22.540872 Si / 1000 Ang^3
#
#
#
# Elastic Constant Matrix: (Units=GPa)
#
#
# Indices 1 2 3 4 5 6 
#
# 1 193.7109 61.7295 80.3602 0.0000 -12.0380 0.0000
# 2 61.7295 66.7603 35.1959 0.0000 8.6133 0.0000
# 3 80.3602 35.1959 163.7126 0.0000 24.1953 0.0000
# 4 0.0000 0.0000 0.0000 26.7181 0.0000 0.9706
# 5 -12.0380 8.6133 24.1953 0.0000 82.6281 0.0000
# 6 0.0000 0.0000 0.0000 0.9706 0.0000 19.7968
#
#
#
# Elastic Compliance Matrix: (Units=1/GPa)
#
#
# Indices 1 2 3 4 5 6 
#
# 1 0.008929 -0.006878 -0.003347 0.000000 0.002998 0.000000
# 2 -0.006878 0.022234 -0.000954 0.000000 -0.003040 0.000000
# 3 -0.003347 -0.000954 0.008376 0.000000 -0.002841 0.000000
# 4 0.000000 0.000000 0.000000 0.037495 0.000000 -0.001838
# 5 0.002998 -0.003040 -0.002841 0.000000 0.013688 0.000000
# 6 0.000000 0.000000 0.000000 -0.001838 0.000000 0.050603
#
#
# Mechanical properties :
#
#
# Convention : Reuss Voigt Hill
#
# Bulk Modulus (GPa) = 58.20801 86.52834 72.36817
# Shear Modulus (GPa) = 29.51367 42.28848 35.90108
#
# Velocity S-wave (km/s) = 3.62241 4.33607 3.99521
# Velocity P-wave (km/s) = 6.58598 7.97116 7.31145
#
# Compressibility (1/GPa) = 0.01717977
#
# Stress axis : x y z
#
# Youngs Moduli (GPa) = 111.99200 44.97520 119.38313
#
# Poissons Ratio (x) = 0.30936 0.39961
# Poissons Ratio (y) = 0.77033 0.11394
# Poissons Ratio (z) = 0.37487 0.04292
#
# Static dielectric constant tensor:
#      x y z
#    x 1.871300 0.000000 0.012510 
#    y 0.000000 1.803970 0.000000 
#    z 0.012510 0.000000 1.887470 
# 
# From -- ./inp_files/29385.got.cif
#   From: 2010.05.17/outbox.cif.g08.bks.cpg/sg15_15_cif.got.tgz:29385.got - 2010.06.03 18:47:42.
