data_PCOD9293419
_publ_section_title
;
Structure prediction by ZEFSAII (Michael W. Deem and Ramdas Pophale) SiO2 
 PCOD9293419
Probable space group: C 2/C
;
_chemical_formula_sum "Si O2"
_cell_formula_units_Z 40
_cell_length_a 17.697058
_cell_length_b 5.074697
_cell_length_c 18.238472
_cell_angle_alpha 90.000000
_cell_angle_beta 117.276494
_cell_angle_gamma 90.000000
_cell_volume 1455.815329
_symmetry_space_group_name_H-M "C 2/C"
_symmetry_group_IT_number 15
_symmetry_cell_setting 'monoclinic'
loop_
_space_group_symop_operation_xyz
x,y,z
-x,y,1/2-z
-x,-y,-z
x,-y,1/2+z
1/2+x,1/2+y,z
1/2-x,1/2+y,1/2-z
1/2-x,1/2-y,-z
1/2+x,1/2-y,1/2+z
loop_
_atom_site_type_symbol
_atom_site_label
_atom_site_fract_x
_atom_site_fract_y
_atom_site_fract_z
Si Si1 0.333776 0.414527 0.685924
Si Si2 0.421845 0.947072 0.570732
Si Si3 0.163450 0.277083 0.686301
Si Si4 0.568193 0.280267 0.579204
Si Si5 0.000000 0.553685 0.750000
Si Si6 0.750000 0.750000 0.500000
O O1 0.259364 0.266897 0.698978
O O2 0.340194 0.695506 0.730113
O O3 0.420775 0.250231 0.729813
O O4 0.298754 0.418351 0.588375
O O5 0.474762 0.202541 0.565365
O O6 0.470235 0.880849 0.667356
O O7 0.325870 0.031576 0.538706
O O8 0.428450 0.746010 0.506793
O O9 0.124910 0.545219 0.638307
O O10 0.108900 0.048505 0.623375
#
# Coordination Sequence:
#
# PCOD9293419 Si02
#       6
#     8   8   8   8   4   4
#     4  11  24  45  81 107 157 196 259 305 386 444
#     4  10  22  45  73 108 150 195 245 306 374 444
#     4  12  25  48  80 112 143 205 253 312 361 466
#     4  11  25  47  80 109 146 195 260 305 366 452
#     4  10  22  46  72 110 154 194 246 316 382 436
#     4  10  22  46  74 112 158 196 244 320 384 440
#
# _framework density 27.476012000000001
#
# number of rings (size 3 to 8) (size 9 to 14) (size 15 to 20)
#    0.000    1.200    4.000    1.200    0.000    3.200 
#    0.000    7.000    4.400    0.000    0.000    0.000 
#    0.000    0.000    0.000    0.000    0.000    0.000 
#
# Total GULP energy -111833.389479 kJ/mol
# GULP energy per Si atom -5591.669474 kJ/mol
# Density = 2.741348 g / cm^3
# Si number density = 27.476012 Si / 1000 Ang^3
#
#
#
# Elastic Constant Matrix: (Units=GPa)
#
#
# Indices 1 2 3 4 5 6 
#
# 1 89.4662 25.5801 52.6701 -0.0003 7.0046 -0.0007
# 2 25.5801 113.6174 58.8255 -0.0010 7.7269 -0.0037
# 3 52.6701 58.8255 255.3666 -0.0002 2.9961 -0.0005
# 4 -0.0003 -0.0010 -0.0002 48.2777 0.0000 4.8321
# 5 7.0046 7.7269 2.9961 0.0000 49.5398 0.0001
# 6 -0.0007 -0.0037 -0.0005 4.8321 0.0001 3.7684
#
#
#
# Elastic Compliance Matrix: (Units=1/GPa)
#
#
# Indices 1 2 3 4 5 6 
#
# 1 0.013125 -0.001661 -0.002307 0.000000 -0.001457 0.000000
# 2 -0.001661 0.010305 -0.002016 -0.000001 -0.001250 0.000011
# 3 -0.002307 -0.002016 0.004852 0.000000 0.000347 -0.000002
# 4 0.000000 -0.000001 0.000000 0.023763 0.000000 -0.030471
# 5 -0.001457 -0.001250 0.000347 0.000000 0.020566 -0.000002
# 6 0.000000 0.000011 -0.000002 -0.030471 -0.000002 0.304436
#
#
# Mechanical properties :
#
#
# Convention : Reuss Voigt Hill
#
# Bulk Modulus (GPa) = 61.30569 81.40016 71.35293
# Shear Modulus (GPa) = 12.67574 41.74214 27.20894
#
# Velocity S-wave (km/s) = 2.15021 3.90195 3.15029
# Velocity P-wave (km/s) = 5.34092 7.07039 6.26562
#
# Compressibility (1/GPa) = 0.01631170
#
# Stress axis : x y z
#
# Youngs Moduli (GPa) = 76.19171 97.04475 206.09063
#
# Poissons Ratio (x) = 0.16122 0.47550
# Poissons Ratio (y) = 0.12658 0.41556
# Poissons Ratio (z) = 0.17579 0.19568
#
# Static dielectric constant tensor:
#      x y z
#    x 2.222450 0.000000 -0.061380 
#    y 0.000000 2.126600 0.000000 
#    z -0.061380 0.000000 2.126200 
# 
# From -- ./inp_files/251158.got.cif
#   From: 2010.05.17/outbox.cif.g08.bks.cpg/sg15_126_cif.got.tgz:251158.got - 2010.06.03 18:47:42.
