data_PCOD9293415
_publ_section_title
;
Structure prediction by ZEFSAII (Michael W. Deem and Ramdas Pophale) SiO2 
 PCOD9293415
Probable space group: C 2/C
;
_chemical_formula_sum "Si O2"
_cell_formula_units_Z 52
_cell_length_a 23.020700
_cell_length_b 11.042218
_cell_length_c 20.418446
_cell_angle_alpha 90.000000
_cell_angle_beta 23.661810
_cell_angle_gamma 90.000000
_cell_volume 2083.085607
_symmetry_space_group_name_H-M "C 2/C"
_symmetry_group_IT_number 15
_symmetry_cell_setting 'monoclinic'
loop_
_space_group_symop_operation_xyz
x,y,z
-x,y,1/2-z
-x,-y,-z
x,-y,1/2+z
1/2+x,1/2+y,z
1/2-x,1/2+y,1/2-z
1/2-x,1/2-y,-z
1/2+x,1/2-y,1/2+z
loop_
_atom_site_type_symbol
_atom_site_label
_atom_site_fract_x
_atom_site_fract_y
_atom_site_fract_z
Si Si1 0.000000 0.237900 0.750000
Si Si2 0.919921 0.409851 0.130062
Si Si3 0.078613 0.158387 0.428080
Si Si4 0.765039 0.571724 0.521832
Si Si5 0.206966 0.623264 0.398739
Si Si6 0.765218 0.850010 0.041039
Si Si7 0.395862 0.533776 0.506755
O O1 0.103981 0.332829 0.603913
O O2 0.120312 0.149865 0.658033
O O3 0.895451 0.298443 0.106033
O O4 0.778636 0.466588 0.308977
O O5 0.000000 0.500000 0.000000
O O6 0.035104 0.374644 0.067626
O O7 0.220256 0.103487 0.246776
O O8 0.954385 0.116787 0.505482
O O9 0.054504 0.099370 0.523323
O O10 0.748259 0.486829 0.601992
O O11 0.796369 0.472824 0.430849
O O12 0.263774 0.750772 0.369290
O O13 0.916731 0.905478 0.914527
O O14 0.750000 0.750000 0.000000
#
# Coordination Sequence:
#
# PCOD9293415 Si02
#       7
#     4   8   8   8   8   8   8
#     4  10  24  50  64  90 152 176 236 280 358 446
#     4  12  23  43  66 100 140 187 231 282 353 428
#     4  11  23  44  67  98 143 182 228 296 350 431
#     4  10  25  45  71 102 133 189 228 297 362 431
#     4  11  23  44  71 102 138 173 242 298 357 420
#     4  10  22  45  73 106 138 183 239 304 357 424
#     4  11  24  42  67 101 142 181 230 288 359 429
#
# _framework density 24.962969999999999
#
# number of rings (size 3 to 8) (size 9 to 14) (size 15 to 20)
#    0.000    1.231    4.615    0.000    4.308    0.000 
#    5.538    0.000    0.000    0.000    0.000    0.000 
#    0.000    0.000    0.000    0.000    0.000    0.000 
#
# Total GULP energy -144861.458327 kJ/mol
# GULP energy per Si atom -5571.594551 kJ/mol
# Density = 2.490615 g / cm^3
# Si number density = 24.962970 Si / 1000 Ang^3
#
#
#
# Elastic Constant Matrix: (Units=GPa)
#
#
# Indices 1 2 3 4 5 6 
#
# 1 90.5206 46.5435 11.1789 0.0001 -4.1080 -0.0001
# 2 46.5435 153.9104 17.3937 -0.0004 6.5333 0.0001
# 3 11.1789 17.3937 88.9257 -0.0005 -28.5782 0.0001
# 4 0.0001 -0.0004 -0.0005 30.5499 0.0003 -0.9896
# 5 -4.1080 6.5333 -28.5782 0.0003 33.6123 0.0000
# 6 -0.0001 0.0001 0.0001 -0.9896 0.0000 48.8243
#
#
#
# Elastic Compliance Matrix: (Units=1/GPa)
#
#
# Indices 1 2 3 4 5 6 
#
# 1 0.013275 -0.004099 -0.000123 0.000000 0.002314 0.000000
# 2 -0.004099 0.008186 -0.002419 0.000000 -0.004149 0.000000
# 3 -0.000123 -0.002419 0.016347 0.000000 0.014354 0.000000
# 4 0.000000 0.000000 0.000000 0.032755 0.000000 0.000664
# 5 0.002314 -0.004149 0.014354 0.000000 0.043045 0.000000
# 6 0.000000 0.000000 0.000000 0.000664 0.000000 0.020495
#
#
# Mechanical properties :
#
#
# Convention : Reuss Voigt Hill
#
# Bulk Modulus (GPa) = 40.77426 53.73210 47.25318
# Shear Modulus (GPa) = 32.14176 39.81332 35.97754
#
# Velocity S-wave (km/s) = 3.59218 3.99795 3.80048
# Velocity P-wave (km/s) = 5.79434 6.54850 6.18293
#
# Compressibility (1/GPa) = 0.02452528
#
# Stress axis : x y z
#
# Youngs Moduli (GPa) = 75.32996 122.15512 61.17316
#
# Poissons Ratio (x) = 0.50068 0.00755
# Poissons Ratio (y) = 0.30876 0.14800
# Poissons Ratio (z) = 0.00929 0.29554
#
# Static dielectric constant tensor:
#      x y z
#    x 3.491630 0.000010 0.737620 
#    y 0.000010 1.937340 0.000000 
#    z 0.737620 0.000000 2.447200 
# 
# From -- ./inp_files/252726.got.cif
#   From: 2010.05.17/outbox.cif.g08.bks.cpg/sg15_127_cif.got.tgz:252726.got - 2010.06.03 18:47:42.
