data_PCOD9293921
_publ_section_title
;
Structure prediction by ZEFSAII (Michael W. Deem and Ramdas Pophale) SiO2 
 PCOD9293921
Probable space group: C 2/C
;
_chemical_formula_sum "Si O2"
_cell_formula_units_Z 56
_cell_length_a 22.167217
_cell_length_b 15.912267
_cell_length_c 8.078602
_cell_angle_alpha 90.000000
_cell_angle_beta 97.577719
_cell_angle_gamma 90.000000
_cell_volume 2824.685145
_symmetry_space_group_name_H-M "C 2/C"
_symmetry_group_IT_number 15
_symmetry_cell_setting 'monoclinic'
loop_
_space_group_symop_operation_xyz
x,y,z
-x,y,1/2-z
-x,-y,-z
x,-y,1/2+z
1/2+x,1/2+y,z
1/2-x,1/2+y,1/2-z
1/2-x,1/2-y,-z
1/2+x,1/2-y,1/2+z
loop_
_atom_site_type_symbol
_atom_site_label
_atom_site_fract_x
_atom_site_fract_y
_atom_site_fract_z
Si Si1 0.570344 0.256215 0.318671
Si Si2 0.858206 0.401083 0.542092
Si Si3 0.319573 0.927268 0.909030
Si Si4 0.677194 0.419649 0.851544
Si Si5 0.334709 0.253837 0.447976
Si Si6 0.143461 0.089204 0.959695
Si Si7 0.750487 0.686722 0.845442
O O1 0.500000 0.258039 0.250000
O O2 0.588980 0.168122 0.413977
O O3 0.611447 0.259537 0.167830
O O4 0.591593 0.339809 0.425550
O O5 0.828041 0.409887 0.715050
O O6 0.862803 0.496605 0.481036
O O7 0.813262 0.360186 0.390442
O O8 0.247824 0.942827 0.917046
O O9 0.336402 0.841494 0.009135
O O10 0.633199 0.493245 0.903090
O O11 0.669473 0.411780 0.653275
O O12 0.660994 0.330937 0.927232
O O13 0.270704 0.264433 0.324343
O O14 0.196661 0.120559 0.856068
O O15 0.750000 0.750000 0.000000
#
# Coordination Sequence:
#
# PCOD9293921 Si02
#       7
#     8   8   8   8   8   8   8
#     4  10  23  45  63  78 110 161 210 251 285 332
#     4  11  22  34  58  87 121 155 198 232 290 354
#     4  11  21  34  54  90 126 155 182 233 299 362
#     4  12  21  35  56  96 128 152 181 236 303 366
#     4  10  23  36  57  89 124 154 199 237 289 359
#     4  11  21  34  59  88 120 154 189 235 295 356
#     4  11  16  34  54  82 121 153 187 236 293 351
#
# _framework density 19.825219000000001
#
# number of rings (size 3 to 8) (size 9 to 14) (size 15 to 20)
#    0.000    1.143    7.143    2.143    2.000    1.143 
#    0.000    6.429    0.000    0.000    0.000    0.000 
#    0.000    0.000    0.000    0.000    0.000    0.000 
#
# Total GULP energy -156276.369976 kJ/mol
# GULP energy per Si atom -5581.298928 kJ/mol
# Density = 1.978010 g / cm^3
# Si number density = 19.825219 Si / 1000 Ang^3
#
#
#
# Elastic Constant Matrix: (Units=GPa)
#
#
# Indices 1 2 3 4 5 6 
#
# 1 64.4575 36.4230 22.0274 0.0000 22.6182 0.0000
# 2 36.4230 185.7967 43.4628 0.0000 16.5471 0.0000
# 3 22.0274 43.4628 63.1594 0.0000 0.7227 0.0000
# 4 0.0000 0.0000 0.0000 37.0011 0.0000 -3.4558
# 5 22.6182 16.5471 0.7227 0.0000 25.1352 0.0000
# 6 0.0000 0.0000 0.0000 -3.4558 0.0000 12.2053
#
#
#
# Elastic Compliance Matrix: (Units=1/GPa)
#
#
# Indices 1 2 3 4 5 6 
#
# 1 0.027373 -0.001312 -0.008375 0.000000 -0.023528 0.000000
# 2 -0.001312 0.006929 -0.004274 0.000000 -0.003259 0.000000
# 3 -0.008375 -0.004274 0.021583 0.000000 0.009729 0.000000
# 4 0.000000 0.000000 0.000000 0.027760 0.000000 0.007860
# 5 -0.023528 -0.003259 0.009729 0.000000 0.062822 0.000000
# 6 0.000000 0.000000 0.000000 0.007860 0.000000 0.084157
#
#
# Mechanical properties :
#
#
# Convention : Reuss Voigt Hill
#
# Bulk Modulus (GPa) = 35.75824 57.47113 46.61469
# Shear Modulus (GPa) = 18.66594 28.96834 23.81714
#
# Velocity S-wave (km/s) = 3.07176 3.82669 3.46982
# Velocity P-wave (km/s) = 5.53686 6.96969 6.29418
#
# Compressibility (1/GPa) = 0.02796558
#
# Stress axis : x y z
#
# Youngs Moduli (GPa) = 36.53205 144.31520 46.33213
#
# Poissons Ratio (x) = 0.18929 0.38802
# Poissons Ratio (y) = 0.04792 0.19801
# Poissons Ratio (z) = 0.30595 0.61675
#
# Static dielectric constant tensor:
#      x y z
#    x 1.695560 0.000000 -0.041970 
#    y 0.000000 1.798210 0.000000 
#    z -0.041970 0.000000 1.725390 
# 
# From -- ./inp_files/61611.got.cif
#   From: 2010.05.17/outbox.cif.g08.bks.cpg/sg15_31_cif.got.tgz:61611.got - 2010.06.03 18:47:42.
