data_PCOD9293894
_publ_section_title
;
Structure prediction by ZEFSAII (Michael W. Deem and Ramdas Pophale) SiO2 
 PCOD9293894
Probable space group: C 2/C
;
_chemical_formula_sum "Si O2"
_cell_formula_units_Z 36
_cell_length_a 24.782924
_cell_length_b 5.140597
_cell_length_c 10.033367
_cell_angle_alpha 90.000000
_cell_angle_beta 101.892865
_cell_angle_gamma 90.000000
_cell_volume 1250.803284
_symmetry_space_group_name_H-M "C 2/C"
_symmetry_group_IT_number 15
_symmetry_cell_setting 'monoclinic'
loop_
_space_group_symop_operation_xyz
x,y,z
-x,y,1/2-z
-x,-y,-z
x,-y,1/2+z
1/2+x,1/2+y,z
1/2-x,1/2+y,1/2-z
1/2-x,1/2-y,-z
1/2+x,1/2-y,1/2+z
loop_
_atom_site_type_symbol
_atom_site_label
_atom_site_fract_x
_atom_site_fract_y
_atom_site_fract_z
Si Si1 0.000000 0.411492 0.750000
Si Si2 0.713875 0.411510 0.746754
Si Si3 0.059692 0.026981 0.596811
Si Si4 0.097562 0.301187 0.366028
Si Si5 0.817754 0.759015 0.037702
O O1 0.039613 0.553866 0.874195
O O2 0.046629 0.251913 0.695861
O O3 0.741398 0.681613 0.704083
O O4 0.677854 0.506814 0.853421
O O5 0.676206 0.284551 0.616192
O O6 0.078754 0.804595 0.710693
O O7 0.099147 0.101416 0.492683
O O8 0.000000 0.000000 0.500000
O O9 0.147433 0.511538 0.396316
O O10 0.750000 0.750000 0.000000
#
# Coordination Sequence:
#
# PCOD9293894 Si02
#       5
#     4   8   8   8   8
#     4  12  24  50  84 130 192 232 314 386 482 574
#     4  10  22  52  90 122 181 242 311 399 470 553
#     4  12  24  53  86 132 189 247 308 396 479 589
#     4  12  27  52  91 134 189 251 312 392 491 571
#     4  10  25  56  85 132 177 241 322 395 468 571
#
# _framework density 28.781504000000002
#
# number of rings (size 3 to 8) (size 9 to 14) (size 15 to 20)
#    0.000    0.889    4.444    1.333    0.000    0.000 
#   36.000    2.222    0.000    0.000    0.000    0.000 
#    0.000    0.000    0.000    0.000    0.000    0.000 
#
# Total GULP energy -100611.739338 kJ/mol
# GULP energy per Si atom -5589.541074 kJ/mol
# Density = 2.871600 g / cm^3
# Si number density = 28.781504 Si / 1000 Ang^3
#
#
#
# Elastic Constant Matrix: (Units=GPa)
#
#
# Indices 1 2 3 4 5 6 
#
# 1 140.2582 39.6184 65.7176 0.0000 -3.9675 0.0000
# 2 39.6184 168.2327 93.0203 0.0000 11.3035 0.0000
# 3 65.7176 93.0203 216.5092 0.0000 -5.5318 0.0000
# 4 0.0000 0.0000 0.0000 63.7462 0.0000 7.4987
# 5 -3.9675 11.3035 -5.5318 0.0000 90.9381 0.0000
# 6 0.0000 0.0000 0.0000 7.4987 0.0000 60.5343
#
#
#
# Elastic Compliance Matrix: (Units=1/GPa)
#
#
# Indices 1 2 3 4 5 6 
#
# 1 0.008392 -0.000780 -0.002204 0.000000 0.000329 0.000000
# 2 -0.000780 0.007996 -0.003230 0.000000 -0.001224 0.000000
# 3 -0.002204 -0.003230 0.006694 0.000000 0.000713 0.000000
# 4 0.000000 0.000000 0.000000 0.015919 0.000000 -0.001972
# 5 0.000329 -0.001224 0.000713 0.000000 0.011206 0.000000
# 6 0.000000 0.000000 0.000000 -0.001972 0.000000 0.016764
#
#
# Mechanical properties :
#
#
# Convention : Reuss Voigt Hill
#
# Bulk Modulus (GPa) = 93.85870 102.41254 98.13562
# Shear Modulus (GPa) = 60.27776 64.81995 62.54885
#
# Velocity S-wave (km/s) = 4.58134 4.75082 4.66685
# Velocity P-wave (km/s) = 7.78887 8.10887 7.95048
#
# Compressibility (1/GPa) = 0.01065431
#
# Stress axis : x y z
#
# Youngs Moduli (GPa) = 119.16313 125.06272 149.39745
#
# Poissons Ratio (x) = 0.09753 0.32923
# Poissons Ratio (y) = 0.09293 0.48254
# Poissons Ratio (z) = 0.26260 0.40395
#
# Static dielectric constant tensor:
#      x y z
#    x 2.996130 0.000000 -0.039750 
#    y 0.000000 2.619050 0.000000 
#    z -0.039750 0.000000 4.883610 
# 
# From -- ./inp_files/115687.got.cif
#   From: 2010.05.17/outbox.cif.g08.bks.cpg/sg15_58_cif.got.tgz:115687.got - 2010.06.03 18:47:42.
