data_PCOD9293768
_publ_section_title
;
Structure prediction by ZEFSAII (Michael W. Deem and Ramdas Pophale) SiO2 
 PCOD9293768
Probable space group: C 2/C
;
_chemical_formula_sum "Si O2"
_cell_formula_units_Z 60
_cell_length_a 15.574110
_cell_length_b 5.976610
_cell_length_c 25.624852
_cell_angle_alpha 90.000000
_cell_angle_beta 100.025992
_cell_angle_gamma 90.000000
_cell_volume 2348.746762
_symmetry_space_group_name_H-M "C 2/C"
_symmetry_group_IT_number 15
_symmetry_cell_setting 'monoclinic'
loop_
_space_group_symop_operation_xyz
x,y,z
-x,y,1/2-z
-x,-y,-z
x,-y,1/2+z
1/2+x,1/2+y,z
1/2-x,1/2+y,1/2-z
1/2-x,1/2-y,-z
1/2+x,1/2-y,1/2+z
loop_
_atom_site_type_symbol
_atom_site_label
_atom_site_fract_x
_atom_site_fract_y
_atom_site_fract_z
Si Si1 0.326201 0.195332 0.151263
Si Si2 0.805487 0.845604 0.368523
Si Si3 0.500000 0.602686 0.250000
Si Si4 0.041120 0.242553 0.573550
Si Si5 0.651393 0.743374 0.736195
Si Si6 0.223735 0.458619 0.061547
Si Si7 0.876064 0.059345 0.503573
Si Si8 0.492726 0.973429 0.332504
O O1 0.292439 0.220458 0.206476
O O2 0.293346 0.395850 0.113497
O O3 0.273924 0.989048 0.120190
O O4 0.426439 0.141539 0.167299
O O5 0.905882 0.929947 0.381500
O O6 0.788616 0.785684 0.307804
O O7 0.825792 0.652789 0.412881
O O8 0.415369 0.455681 0.256222
O O9 0.519573 0.748335 0.304686
O O10 0.028130 0.472828 0.608458
O O11 0.939895 0.170755 0.552683
O O12 0.074912 0.146453 0.519348
O O13 0.589488 0.945028 0.710456
O O14 0.157325 0.263097 0.037506
O O15 0.285074 0.518350 0.019773
#
# Coordination Sequence:
#
# PCOD9293768 Si02
#       8
#     8   8   4   8   8   8   8   8
#     4  12  23  45  65 107 148 187 232 307 359 449
#     4  11  28  43  70 109 149 185 248 296 369 438
#     4  12  22  44  78 102 140 202 242 298 364 444
#     4  10  22  47  70 107 144 187 246 317 352 439
#     4  11  26  46  70 106 150 186 243 298 361 456
#     4  11  25  45  74 106 141 201 240 306 363 442
#     4  10  22  48  78  98 149 196 248 306 377 421
#     4  11  23  44  71 108 140 186 255 291 367 441
#
# _framework density 25.545538000000001
#
# number of rings (size 3 to 8) (size 9 to 14) (size 15 to 20)
#    0.000    1.067    5.333    0.000    3.733    3.200 
#    0.000    2.667    0.000    0.000    0.000    0.000 
#    0.000    0.000    0.000    0.000    0.000    0.000 
#
# Total GULP energy -167041.372837 kJ/mol
# GULP energy per Si atom -5568.045761 kJ/mol
# Density = 2.548739 g / cm^3
# Si number density = 25.545538 Si / 1000 Ang^3
#
#
#
# Elastic Constant Matrix: (Units=GPa)
#
#
# Indices 1 2 3 4 5 6 
#
# 1 26.3173 -5.4954 6.2742 0.0000 -10.7701 0.0000
# 2 -5.4954 46.4461 27.1628 0.0000 -17.8753 0.0000
# 3 6.2742 27.1628 118.2372 0.0000 -11.1905 0.0000
# 4 0.0000 0.0000 0.0000 41.4191 0.0000 2.0726
# 5 -10.7701 -17.8753 -11.1905 0.0000 43.7726 0.0000
# 6 0.0000 0.0000 0.0000 2.0726 0.0000 22.3075
#
#
#
# Elastic Compliance Matrix: (Units=1/GPa)
#
#
# Indices 1 2 3 4 5 6 
#
# 1 0.049178 0.014989 -0.004436 0.000000 0.017087 0.000000
# 2 0.014989 0.033368 -0.006992 0.000000 0.015527 0.000000
# 3 -0.004436 -0.006992 0.010172 0.000000 -0.001346 0.000000
# 4 0.000000 0.000000 0.000000 0.024256 0.000000 -0.002254
# 5 0.017087 0.015527 -0.001346 0.000000 0.033046 0.000000
# 6 0.000000 0.000000 0.000000 -0.002254 0.000000 0.045037
#
#
# Mechanical properties :
#
#
# Convention : Reuss Voigt Hill
#
# Bulk Modulus (GPa) = 10.01591 27.43152 18.72372
# Shear Modulus (GPa) = 22.60244 32.37046 27.48645
#
# Velocity S-wave (km/s) = 2.97777 3.56359 3.28377
# Velocity P-wave (km/s) = 3.96890 5.26249 4.66079
#
# Compressibility (1/GPa) = 0.09984116
#
# Stress axis : x y z
#
# Youngs Moduli (GPa) = 20.33433 29.96844 98.31147
#
# Poissons Ratio (x) = -0.44920 0.43609
# Poissons Ratio (y) = -0.30479 0.68736
# Poissons Ratio (z) = 0.09020 0.20953
#
# Static dielectric constant tensor:
#      x y z
#    x 2.279780 0.000000 -0.026050 
#    y 0.000000 2.118680 0.000000 
#    z -0.026050 0.000000 2.041500 
# 
# From -- ./inp_files/315108.got.cif
#   From: 2010.05.17/outbox.cif.g08.bks.cpg/sg15_158_cif.got.tgz:315108.got - 2010.06.03 18:47:42.
