data_PCOD9293592
_publ_section_title
;
Structure prediction by ZEFSAII (Michael W. Deem and Ramdas Pophale) SiO2 
 PCOD9293592
Probable space group: C 2/C
;
_chemical_formula_sum "Si O2"
_cell_formula_units_Z 44
_cell_length_a 25.524134
_cell_length_b 7.011466
_cell_length_c 11.566606
_cell_angle_alpha 90.000000
_cell_angle_beta 69.919743
_cell_angle_gamma 90.000000
_cell_volume 1944.149722
_symmetry_space_group_name_H-M "C 2/C"
_symmetry_group_IT_number 15
_symmetry_cell_setting 'monoclinic'
loop_
_space_group_symop_operation_xyz
x,y,z
-x,y,1/2-z
-x,-y,-z
x,-y,1/2+z
1/2+x,1/2+y,z
1/2-x,1/2+y,1/2-z
1/2-x,1/2-y,-z
1/2+x,1/2-y,1/2+z
loop_
_atom_site_type_symbol
_atom_site_label
_atom_site_fract_x
_atom_site_fract_y
_atom_site_fract_z
Si Si1 0.303059 0.213796 0.333643
Si Si2 0.596744 0.172022 0.053722
Si Si3 0.131474 0.276328 0.937056
Si Si4 0.439860 0.545825 0.102395
Si Si5 0.000000 0.093002 0.750000
Si Si6 0.215489 0.056792 0.019589
O O1 0.351458 0.191574 0.395872
O O2 0.322273 0.157098 0.191108
O O3 0.290171 0.439257 0.357260
O O4 0.250217 0.087861 0.411847
O O5 0.541321 0.261484 0.152235
O O6 0.595413 0.290031 0.933087
O O7 0.599320 0.950695 0.018491
O O8 0.091868 0.151281 0.888151
O O9 0.157879 0.130441 0.009303
O O10 0.456931 0.553779 0.221852
O O11 0.500000 0.500000 0.000000
O O12 0.250000 0.250000 0.000000
#
# Coordination Sequence:
#
# PCOD9293592 Si02
#       6
#     8   8   8   8   4   8
#     4  11  25  44  66 100 141 177 227 282 330 409
#     4  11  23  46  68 103 137 177 231 276 344 416
#     4  12  25  44  72 101 135 183 227 282 344 408
#     4  10  23  44  68  97 137 176 228 283 341 404
#     4  10  22  46  70 100 140 182 226 290 344 410
#     4  11  25  44  67 100 137 180 228 274 340 402
#
# _framework density 22.632000000000001
#
# number of rings (size 3 to 8) (size 9 to 14) (size 15 to 20)
#    0.000    1.091    5.455    0.000    2.545    4.364 
#    6.545    1.818    0.000    0.000    0.000    0.000 
#    0.000    0.000    0.000    0.000    0.000    0.000 
#
# Total GULP energy -122660.198705 kJ/mol
# GULP energy per Si atom -5575.463578 kJ/mol
# Density = 2.258049 g / cm^3
# Si number density = 22.632000 Si / 1000 Ang^3
#
#
#
# Elastic Constant Matrix: (Units=GPa)
#
#
# Indices 1 2 3 4 5 6 
#
# 1 70.3952 22.4702 10.1829 0.0000 17.4798 0.0000
# 2 22.4702 96.7440 14.4430 0.0000 21.6813 0.0000
# 3 10.1829 14.4430 44.4410 0.0000 1.1476 0.0000
# 4 0.0000 0.0000 0.0000 20.3283 0.0000 -14.5545
# 5 17.4798 21.6813 1.1476 0.0000 37.3726 0.0000
# 6 0.0000 0.0000 0.0000 -14.5545 0.0000 26.0489
#
#
#
# Elastic Compliance Matrix: (Units=1/GPa)
#
#
# Indices 1 2 3 4 5 6 
#
# 1 0.016940 -0.001980 -0.003066 0.000000 -0.006680 0.000000
# 2 -0.001980 0.012748 -0.003525 0.000000 -0.006362 0.000000
# 3 -0.003066 -0.003525 0.024279 0.000000 0.002733 0.000000
# 4 0.000000 0.000000 0.000000 0.081993 0.000000 0.045812
# 5 -0.006680 -0.006362 0.002733 0.000000 0.033489 0.000000
# 6 0.000000 0.000000 0.000000 0.045812 0.000000 0.063986
#
#
# Mechanical properties :
#
#
# Convention : Reuss Voigt Hill
#
# Bulk Modulus (GPa) = 27.15447 33.97470 30.56458
# Shear Modulus (GPa) = 19.02215 27.71557 23.36886
#
# Velocity S-wave (km/s) = 2.90228 3.50325 3.21683
# Velocity P-wave (km/s) = 4.82237 5.60429 5.22797
#
# Compressibility (1/GPa) = 0.03682635
#
# Stress axis : x y z
#
# Youngs Moduli (GPa) = 59.03301 78.44139 41.18747
#
# Poissons Ratio (x) = 0.15529 0.12626
# Poissons Ratio (y) = 0.11687 0.14520
# Poissons Ratio (z) = 0.18097 0.27652
#
# Static dielectric constant tensor:
#      x y z
#    x 1.668750 0.000000 0.071500 
#    y 0.000000 1.792530 0.000000 
#    z 0.071500 0.000000 2.026310 
# 
# From -- ./inp_files/125008.got.cif
#   From: 2010.05.17/outbox.cif.g08.bks.cpg/sg15_63_cif.got.tgz:125008.got - 2010.06.03 18:47:42.
