data_PCOD9293366
_publ_section_title
;
Structure prediction by ZEFSAII (Michael W. Deem and Ramdas Pophale) SiO2 
 PCOD9293366
Probable space group: C 2/C
;
_chemical_formula_sum "Si O2"
_cell_formula_units_Z 44
_cell_length_a 9.444403
_cell_length_b 13.957720
_cell_length_c 26.638048
_cell_angle_alpha 90.000000
_cell_angle_beta 151.015908
_cell_angle_gamma 90.000000
_cell_volume 1701.551171
_symmetry_space_group_name_H-M "C 2/C"
_symmetry_group_IT_number 15
_symmetry_cell_setting 'monoclinic'
loop_
_space_group_symop_operation_xyz
x,y,z
-x,y,1/2-z
-x,-y,-z
x,-y,1/2+z
1/2+x,1/2+y,z
1/2-x,1/2+y,1/2-z
1/2-x,1/2-y,-z
1/2+x,1/2-y,1/2+z
loop_
_atom_site_type_symbol
_atom_site_label
_atom_site_fract_x
_atom_site_fract_y
_atom_site_fract_z
Si Si1 0.630054 0.694162 0.895055
Si Si2 0.500000 0.598398 0.750000
Si Si3 0.781376 0.236934 0.883187
Si Si4 0.432172 0.563190 0.158870
Si Si5 0.925006 0.475346 0.157105
Si Si6 0.139444 0.002342 0.461168
O O1 0.502395 0.669962 0.799822
O O2 0.411070 0.740964 0.867155
O O3 0.684581 0.596272 0.944306
O O4 0.931936 0.754169 0.991401
O O5 0.689594 0.514139 0.838627
O O6 0.588606 0.330225 0.829413
O O7 0.611396 0.138205 0.842162
O O8 0.748160 0.018534 0.253929
O O9 0.277970 0.574103 0.056953
O O10 0.698625 0.518089 0.126780
O O11 0.798090 0.492789 0.062728
#
# Coordination Sequence:
#
# PCOD9293366 Si02
#       6
#     8   4   8   8   8   8
#     4   9  21  47  75 108 147 196 251 321 385 459
#     4  10  24  44  66 106 152 196 244 318 386 458
#     4  10  23  45  78 108 149 200 258 312 383 458
#     4  11  24  42  71 108 148 204 249 309 382 452
#     4  10  22  45  71 104 151 199 250 312 381 448
#     4   9  21  43  72  98 146 199 240 313 382 447
#
# _framework density 25.858757000000001
#
# number of rings (size 3 to 8) (size 9 to 14) (size 15 to 20)
#    0.000    2.182    0.000    0.545    5.091    2.182 
#    9.818    1.818    0.000    0.000    0.000    0.000 
#    0.000    0.000    0.000    0.000    0.000    0.000 
#
# Total GULP energy -122603.589692 kJ/mol
# GULP energy per Si atom -5572.890441 kJ/mol
# Density = 2.579990 g / cm^3
# Si number density = 25.858757 Si / 1000 Ang^3
#
#
#
# Elastic Constant Matrix: (Units=GPa)
#
#
# Indices 1 2 3 4 5 6 
#
# 1 147.3741 60.6135 84.3997 0.0002 -19.9047 0.0005
# 2 60.6135 98.6075 41.9066 0.0003 -1.3761 0.0003
# 3 84.3997 41.9066 175.5847 -0.0003 -43.8906 -0.0005
# 4 0.0002 0.0003 -0.0003 35.5426 0.0002 -1.5216
# 5 -19.9047 -1.3761 -43.8906 0.0002 65.6638 0.0002
# 6 0.0005 0.0003 -0.0005 -1.5216 0.0002 32.4993
#
#
#
# Elastic Compliance Matrix: (Units=1/GPa)
#
#
# Indices 1 2 3 4 5 6 
#
# 1 0.011343 -0.005245 -0.004044 0.000000 0.000625 0.000000
# 2 -0.005245 0.013908 -0.001348 0.000000 -0.002199 0.000000
# 3 -0.004044 -0.001348 0.009182 0.000000 0.004883 0.000000
# 4 0.000000 0.000000 0.000000 0.028192 0.000000 0.001320
# 5 0.000625 -0.002199 0.004883 0.000000 0.018636 0.000000
# 6 0.000000 0.000000 0.000000 0.001320 0.000000 0.030832
#
#
# Mechanical properties :
#
#
# Convention : Reuss Voigt Hill
#
# Bulk Modulus (GPa) = 76.00121 88.37843 82.18982
# Shear Modulus (GPa) = 36.29693 42.38426 39.34059
#
# Velocity S-wave (km/s) = 3.75061 4.05293 3.90470
# Velocity P-wave (km/s) = 6.94340 7.49355 7.22371
#
# Compressibility (1/GPa) = 0.01315768
#
# Stress axis : x y z
#
# Youngs Moduli (GPa) = 88.15745 71.90354 108.91443
#
# Poissons Ratio (x) = 0.37715 0.44048
# Poissons Ratio (y) = 0.46240 0.14680
# Poissons Ratio (z) = 0.35654 0.09691
#
# Static dielectric constant tensor:
#      x y z
#    x 2.118260 0.000000 0.077840 
#    y 0.000000 2.059790 0.000000 
#    z 0.077840 0.000000 2.229150 
# 
# From -- ./inp_files/292584.got.cif
#   From: 2010.05.17/outbox.cif.g08.bks.cpg/sg15_147_cif.got.tgz:292584.got - 2010.06.03 18:47:42.
