data_PCOD9293300
_publ_section_title
;
Structure prediction by ZEFSAII (Michael W. Deem and Ramdas Pophale) SiO2 
 PCOD9293300
Probable space group: C 2/C
;
_chemical_formula_sum "Si O2"
_cell_formula_units_Z 32
_cell_length_a 5.757455
_cell_length_b 12.429814
_cell_length_c 18.154230
_cell_angle_alpha 90.000000
_cell_angle_beta 100.262307
_cell_angle_gamma 90.000000
_cell_volume 1278.407167
_symmetry_space_group_name_H-M "C 2/C"
_symmetry_group_IT_number 15
_symmetry_cell_setting 'monoclinic'
loop_
_space_group_symop_operation_xyz
x,y,z
-x,y,1/2-z
-x,-y,-z
x,-y,1/2+z
1/2+x,1/2+y,z
1/2-x,1/2+y,1/2-z
1/2-x,1/2-y,-z
1/2+x,1/2-y,1/2+z
loop_
_atom_site_type_symbol
_atom_site_label
_atom_site_fract_x
_atom_site_fract_y
_atom_site_fract_z
Si Si1 0.184641 0.197076 0.825348
Si Si2 0.587234 0.338170 0.900248
Si Si3 0.151158 0.112165 0.567198
Si Si4 0.959425 0.518526 0.329404
O O1 0.337816 0.303373 0.850712
O O2 0.340599 0.097377 0.808448
O O3 0.000000 0.213653 0.750000
O O4 0.061745 0.148778 0.891858
O O5 0.687866 0.219224 0.921478
O O6 0.773193 0.404248 0.860990
O O7 0.577951 0.398135 0.978045
O O8 0.310304 0.016265 0.609927
O O9 0.000000 0.560334 0.250000
#
# Coordination Sequence:
#
# PCOD9293300 Si02
#       4
#     8   8   8   8
#     4  11  23  44  68 101 153 192 246 319 371 443
#     4  10  24  42  72 105 140 200 251 299 388 454
#     4  10  22  45  69 103 150 187 246 323 372 440
#     4  11  23  44  69 106 147 193 251 310 377 449
#
# _framework density 25.031148999999999
#
# number of rings (size 3 to 8) (size 9 to 14) (size 15 to 20)
#    0.000    1.500    2.500    1.500    0.000    4.000 
#    4.500    0.000    0.000    0.000    0.000    1.750 
#    0.000    0.000    0.000    0.000    0.000    0.000 
#
# Total GULP energy -89582.557907 kJ/mol
# GULP energy per Si atom -5598.909869 kJ/mol
# Density = 2.497418 g / cm^3
# Si number density = 25.031149 Si / 1000 Ang^3
#
#
#
# Elastic Constant Matrix: (Units=GPa)
#
#
# Indices 1 2 3 4 5 6 
#
# 1 148.5990 63.1696 136.4322 0.0000 0.3031 0.0000
# 2 63.1696 136.8219 89.3376 0.0000 25.9725 0.0000
# 3 136.4322 89.3376 247.2936 0.0000 -7.5703 0.0000
# 4 0.0000 0.0000 0.0000 36.2902 0.0000 10.1697
# 5 0.3031 25.9725 -7.5703 0.0000 56.4219 0.0000
# 6 0.0000 0.0000 0.0000 10.1697 0.0000 66.8815
#
#
#
# Elastic Compliance Matrix: (Units=1/GPa)
#
#
# Indices 1 2 3 4 5 6 
#
# 1 0.013991 -0.001805 -0.007073 0.000000 -0.000193 0.000000
# 2 -0.001805 0.011359 -0.003281 0.000000 -0.005659 0.000000
# 3 -0.007073 -0.003281 0.009216 0.000000 0.002785 0.000000
# 4 0.000000 0.000000 0.000000 0.028782 0.000000 -0.004376
# 5 -0.000193 -0.005659 0.002785 0.000000 0.020703 0.000000
# 6 0.000000 0.000000 0.000000 -0.004376 0.000000 0.015617
#
#
# Mechanical properties :
#
#
# Convention : Reuss Voigt Hill
#
# Bulk Modulus (GPa) = 97.57096 123.39928 110.48512
# Shear Modulus (GPa) = 39.24613 48.17040 43.70826
#
# Velocity S-wave (km/s) = 3.96396 4.39158 4.18324
# Velocity P-wave (km/s) = 7.74694 8.66717 8.21994
#
# Compressibility (1/GPa) = 0.01024895
#
# Stress axis : x y z
#
# Youngs Moduli (GPa) = 71.47664 88.03930 108.50302
#
# Poissons Ratio (x) = 0.15887 0.76740
# Poissons Ratio (y) = 0.12898 0.35601
# Poissons Ratio (z) = 0.50553 0.28886
#
# Static dielectric constant tensor:
#      x y z
#    x 2.142620 0.000000 0.009480 
#    y 0.000000 1.991150 0.000000 
#    z 0.009480 0.000000 1.936990 
# 
# From -- ./inp_files/183866.got.cif
#   From: 2010.05.17/outbox.cif.g08.bks.cpg/sg15_92_cif.got.tgz:183866.got - 2010.06.03 18:47:42.
