data_PCOD9293326
_publ_section_title
;
Structure prediction by ZEFSAII (Michael W. Deem and Ramdas Pophale) SiO2 
 PCOD9293326
Probable space group: C 2/C
;
_chemical_formula_sum "Si O2"
_cell_formula_units_Z 40
_cell_length_a 22.523534
_cell_length_b 11.475877
_cell_length_c 14.439206
_cell_angle_alpha 90.000000
_cell_angle_beta 152.075336
_cell_angle_gamma 90.000000
_cell_volume 1747.830651
_symmetry_space_group_name_H-M "C 2/C"
_symmetry_group_IT_number 15
_symmetry_cell_setting 'monoclinic'
loop_
_space_group_symop_operation_xyz
x,y,z
-x,y,1/2-z
-x,-y,-z
x,-y,1/2+z
1/2+x,1/2+y,z
1/2-x,1/2+y,1/2-z
1/2-x,1/2-y,-z
1/2+x,1/2-y,1/2+z
loop_
_atom_site_type_symbol
_atom_site_label
_atom_site_fract_x
_atom_site_fract_y
_atom_site_fract_z
Si Si1 0.754959 0.825930 0.719278
Si Si2 0.125529 0.556134 0.214733
Si Si3 0.971960 0.230620 0.819010
Si Si4 0.886248 0.003962 0.271147
Si Si5 0.187215 0.153663 0.480026
O O1 0.691039 0.869637 0.724162
O O2 0.674438 0.725364 0.557312
O O3 0.773793 0.934941 0.674288
O O4 0.895949 0.780299 0.940830
O O5 0.216826 0.452356 0.370483
O O6 0.087338 0.644317 0.242876
O O7 0.000000 0.500000 0.000000
O O8 0.000000 0.212623 0.750000
O O9 0.878475 0.127389 0.723754
O O10 0.917140 0.089343 0.227052
O O11 0.000000 0.000000 0.500000
O O12 0.250000 0.250000 0.500000
#
# Coordination Sequence:
#
# PCOD9293326 Si02
#       5
#     8   8   8   8   8
#     4  10  23  44  70 100 146 187 236 302 356 440
#     4  12  26  44  72 106 147 186 244 302 365 435
#     4  11  24  43  69 104 141 191 240 298 367 428
#     4   9  21  43  71 103 140 188 244 292 358 432
#     4  10  22  45  70 101 142 188 237 294 364 426
#
# _framework density 22.885511999999999
#
# number of rings (size 3 to 8) (size 9 to 14) (size 15 to 20)
#    0.000    1.600    2.000    1.200    2.800    6.400 
#    3.600    4.000    0.000    0.000    0.000    0.000 
#    0.000    0.000    0.000    0.000    0.000    0.000 
#
# Total GULP energy -111799.683249 kJ/mol
# GULP energy per Si atom -5589.984162 kJ/mol
# Density = 2.283342 g / cm^3
# Si number density = 22.885512 Si / 1000 Ang^3
#
#
#
# Elastic Constant Matrix: (Units=GPa)
#
#
# Indices 1 2 3 4 5 6 
#
# 1 65.7823 29.0249 26.5827 0.0000 -14.8014 0.0000
# 2 29.0249 140.8377 48.3429 0.0000 -13.2873 0.0000
# 3 26.5827 48.3429 101.4280 0.0000 -18.0263 0.0000
# 4 0.0000 0.0000 0.0000 41.8655 0.0000 -23.2582
# 5 -14.8014 -13.2873 -18.0263 0.0000 33.7053 0.0000
# 6 0.0000 0.0000 0.0000 -23.2582 0.0000 43.5346
#
#
#
# Elastic Compliance Matrix: (Units=1/GPa)
#
#
# Indices 1 2 3 4 5 6 
#
# 1 0.018652 -0.002358 -0.002734 0.000000 0.005799 0.000000
# 2 -0.002358 0.008840 -0.003492 0.000000 0.000582 0.000000
# 3 -0.002734 -0.003492 0.013019 0.000000 0.004386 0.000000
# 4 0.000000 0.000000 0.000000 0.033967 0.000000 0.018147
# 5 0.005799 0.000582 0.004386 0.000000 0.034791 0.000000
# 6 0.000000 0.000000 0.000000 0.018147 0.000000 0.032665
#
#
# Mechanical properties :
#
#
# Convention : Reuss Voigt Hill
#
# Bulk Modulus (GPa) = 42.83881 57.32767 50.08324
# Shear Modulus (GPa) = 29.96110 37.42759 33.69435
#
# Velocity S-wave (km/s) = 3.62218 4.04843 3.84122
# Velocity P-wave (km/s) = 6.02104 6.85253 6.45020
#
# Compressibility (1/GPa) = 0.02334332
#
# Stress axis : x y z
#
# Youngs Moduli (GPa) = 53.61435 113.12389 76.80828
#
# Poissons Ratio (x) = 0.26680 0.20996
# Poissons Ratio (y) = 0.12645 0.26820
# Poissons Ratio (z) = 0.14656 0.39500
#
# Static dielectric constant tensor:
#      x y z
#    x 1.921960 0.000000 0.027250 
#    y 0.000000 1.822040 0.000000 
#    z 0.027250 0.000000 1.916190 
# 
# From -- ./inp_files/173228.got.cif
#   From: 2010.05.17/outbox.cif.g08.bks.cpg/sg15_87_cif.got.tgz:173228.got - 2010.06.03 18:47:42.
