data_PCOD9293286
_publ_section_title
;
Structure prediction by ZEFSAII (Michael W. Deem and Ramdas Pophale) SiO2 
 PCOD9293286
Probable space group: C 2/C
;
_chemical_formula_sum "Si O2"
_cell_formula_units_Z 44
_cell_length_a 19.458840
_cell_length_b 7.040007
_cell_length_c 15.579116
_cell_angle_alpha 90.000000
_cell_angle_beta 63.068082
_cell_angle_gamma 90.000000
_cell_volume 1902.726159
_symmetry_space_group_name_H-M "C 2/C"
_symmetry_group_IT_number 15
_symmetry_cell_setting 'monoclinic'
loop_
_space_group_symop_operation_xyz
x,y,z
-x,y,1/2-z
-x,-y,-z
x,-y,1/2+z
1/2+x,1/2+y,z
1/2-x,1/2+y,1/2-z
1/2-x,1/2-y,-z
1/2+x,1/2-y,1/2+z
loop_
_atom_site_type_symbol
_atom_site_label
_atom_site_fract_x
_atom_site_fract_y
_atom_site_fract_z
Si Si1 0.454079 0.871693 0.649578
Si Si2 0.000000 0.050178 0.750000
Si Si3 0.159352 0.126888 0.114917
Si Si4 0.275051 0.161696 0.609511
Si Si5 0.407528 0.895589 0.483662
Si Si6 0.290883 0.964843 0.295327
O O1 0.489388 0.690366 0.675641
O O2 0.433598 0.827465 0.562512
O O3 0.375570 0.938211 0.739907
O O4 0.517308 0.039520 0.611452
O O5 0.923830 0.927436 0.801698
O O6 0.210154 0.936717 0.087601
O O7 0.142622 0.240245 0.037203
O O8 0.200471 0.275127 0.155073
O O9 0.355942 0.083258 0.529526
O O10 0.265428 0.083295 0.712870
O O11 0.264120 0.384581 0.627440
#
# Coordination Sequence:
#
# PCOD9293286 Si02
#       6
#     8   4   8   8   8   8
#     4  10  22  45  68  97 134 179 221 278 329 403
#     4  12  24  42  72 100 130 182 234 262 336 408
#     4  12  24  41  67 102 132 181 221 279 331 403
#     4  11  23  43  67 101 129 181 222 282 332 395
#     4  10  24  43  67 101 141 169 223 283 347 384
#     4  11  22  44  72  93 138 176 233 270 328 403
#
# _framework density 23.124715999999999
#
# number of rings (size 3 to 8) (size 9 to 14) (size 15 to 20)
#    0.000    1.091    3.636    2.727    0.000    1.455 
#    3.273    0.000    0.000    0.000    0.000    0.000 
#    0.000    0.000    0.000    0.000    0.000    0.000 
#
# Total GULP energy -123285.005011 kJ/mol
# GULP energy per Si atom -5603.863864 kJ/mol
# Density = 2.307208 g / cm^3
# Si number density = 23.124716 Si / 1000 Ang^3
#
#
#
# Elastic Constant Matrix: (Units=GPa)
#
#
# Indices 1 2 3 4 5 6 
#
# 1 84.2716 16.2142 32.3769 -0.0001 10.0574 0.0000
# 2 16.2142 78.4834 21.8950 -0.0003 14.6965 -0.0001
# 3 32.3769 21.8950 59.7264 0.0000 5.9065 0.0000
# 4 -0.0001 -0.0003 0.0000 24.7461 -0.0001 5.6828
# 5 10.0574 14.6965 5.9065 -0.0001 26.3839 0.0001
# 6 0.0000 -0.0001 0.0000 5.6828 0.0001 0.9724
#
#
#
# Elastic Compliance Matrix: (Units=1/GPa)
#
#
# Indices 1 2 3 4 5 6 
#
# 1 0.015412 -0.000243 -0.007872 0.000000 -0.003977 0.000000
# 2 -0.000243 0.015539 -0.004825 0.000001 -0.007483 -0.000002
# 3 -0.007872 -0.004825 0.022720 0.000000 0.000602 0.000000
# 4 0.000000 0.000001 0.000000 -0.118117 -0.000003 0.690315
# 5 -0.003977 -0.007483 0.000602 -0.000003 0.043451 0.000012
# 6 0.000000 -0.000002 0.000000 0.690315 0.000012 -3.006010
#
#
# Mechanical properties :
#
#
# Convention : Reuss Voigt Hill
#
# Bulk Modulus (GPa) = 35.98323 40.38373 38.18348
# Shear Modulus (GPa) = -1.67120 20.55349 9.44114
#
# Velocity S-wave (km/s) = -0.85103 2.98453 2.02276
# Velocity P-wave (km/s) = 3.82474 5.42014 4.69076
#
# Compressibility (1/GPa) = 0.02779073
#
# Stress axis : x y z
#
# Youngs Moduli (GPa) = 64.88277 64.35450 44.01483
#
# Poissons Ratio (x) = 0.01565 0.34650
# Poissons Ratio (y) = 0.01577 0.21235
# Poissons Ratio (z) = 0.51078 0.31048
#
# Static dielectric constant tensor:
#      x y z
#    x 1.835490 0.000000 0.004920 
#    y 0.000000 1.827170 0.000000 
#    z 0.004920 0.000000 1.856200 
# 
# From -- ./inp_files/212832.got.cif
#   From: 2010.05.17/outbox.cif.g08.bks.cpg/sg15_107_cif.got.tgz:212832.got - 2010.06.03 18:47:42.
