data_PCOD9293638
_publ_section_title
;
Structure prediction by ZEFSAII (Michael W. Deem and Ramdas Pophale) SiO2 
 PCOD9293638
Probable space group: C 2/C
;
_chemical_formula_sum "Si O2"
_cell_formula_units_Z 40
_cell_length_a 10.004737
_cell_length_b 12.054107
_cell_length_c 15.513238
_cell_angle_alpha 90.000000
_cell_angle_beta 119.609038
_cell_angle_gamma 90.000000
_cell_volume 1626.564552
_symmetry_space_group_name_H-M "C 2/C"
_symmetry_group_IT_number 15
_symmetry_cell_setting 'monoclinic'
loop_
_space_group_symop_operation_xyz
x,y,z
-x,y,1/2-z
-x,-y,-z
x,-y,1/2+z
1/2+x,1/2+y,z
1/2-x,1/2+y,1/2-z
1/2-x,1/2-y,-z
1/2+x,1/2-y,1/2+z
loop_
_atom_site_type_symbol
_atom_site_label
_atom_site_fract_x
_atom_site_fract_y
_atom_site_fract_z
Si Si1 0.069516 0.247141 0.917209
Si Si2 0.314836 0.903018 0.255030
Si Si3 0.328295 0.532612 0.613022
Si Si4 0.257040 0.788025 0.902447
Si Si5 0.372189 0.028974 0.122186
O O1 0.250000 0.250000 0.000000
O O2 0.043447 0.119882 0.879881
O O3 0.065275 0.347475 0.849321
O O4 0.941742 0.287153 0.944083
O O5 0.233162 0.907626 0.320678
O O6 0.266657 0.997133 0.169481
O O7 0.488627 0.941486 0.333497
O O8 0.337312 0.402645 0.638176
O O9 0.211628 0.523089 0.495454
O O10 0.200495 0.707666 0.806658
O O11 0.250000 0.750000 0.000000
#
# Coordination Sequence:
#
# PCOD9293638 Si02
#       5
#     8   8   8   8   8
#     4  10  25  45  81 111 150 211 272 330 411 491
#     4  11  24  39  77 107 153 210 262 323 411 479
#     4  11  24  46  76 110 159 206 272 331 398 493
#     4  12  26  49  75 117 165 207 269 348 413 484
#     4  10  22  46  71 112 146 209 265 322 409 487
#
# _framework density 24.591707
#
# number of rings (size 3 to 8) (size 9 to 14) (size 15 to 20)
#    0.000    1.200    4.000    0.600    5.600    1.600 
#    0.000    4.000    0.000    0.000    0.000    0.000 
#    0.000    0.000    0.000    0.000    0.000    0.000 
#
# Total GULP energy -111464.590093 kJ/mol
# GULP energy per Si atom -5573.229505 kJ/mol
# Density = 2.453574 g / cm^3
# Si number density = 24.591707 Si / 1000 Ang^3
#
#
#
# Elastic Constant Matrix: (Units=GPa)
#
#
# Indices 1 2 3 4 5 6 
#
# 1 95.9203 32.4024 30.2564 0.0000 -23.9881 0.0000
# 2 32.4024 163.2861 7.7028 0.0000 -17.9910 0.0000
# 3 30.2564 7.7028 142.6637 0.0000 -35.1774 0.0000
# 4 0.0000 0.0000 0.0000 -1.9604 0.0000 -15.9016
# 5 -23.9881 -17.9910 -35.1774 0.0000 50.5718 0.0000
# 6 0.0000 0.0000 0.0000 -15.9016 0.0000 32.9197
#
#
#
# Elastic Compliance Matrix: (Units=1/GPa)
#
#
# Indices 1 2 3 4 5 6 
#
# 1 0.012630 -0.001968 -0.001530 0.000000 0.004226 0.000000
# 2 -0.001968 0.006689 0.000498 0.000000 0.001792 0.000000
# 3 -0.001530 0.000498 0.008657 0.000000 0.005473 0.000000
# 4 0.000000 0.000000 0.000000 -0.103718 0.000000 -0.050100
# 5 0.004226 0.001792 0.005473 0.000000 0.026223 0.000000
# 6 0.000000 0.000000 0.000000 -0.050100 0.000000 0.006177
#
#
# Mechanical properties :
#
#
# Convention : Reuss Voigt Hill
#
# Bulk Modulus (GPa) = 45.50717 60.28814 52.89765
# Shear Modulus (GPa) = -166.56669 38.40680 -64.07995
#
# Velocity S-wave (km/s) = -8.23893 3.95622 -5.11020
# Velocity P-wave (km/s) = 8.48300 6.74075 3.64167
#
# Compressibility (1/GPa) = 0.02197456
#
# Stress axis : x y z
#
# Youngs Moduli (GPa) = 79.17763 149.50306 115.51872
#
# Poissons Ratio (x) = 0.29429 0.17677
# Poissons Ratio (y) = 0.15586 -0.05756
# Poissons Ratio (z) = 0.12116 -0.07450
#
# Static dielectric constant tensor:
#      x y z
#    x 2.127490 0.000000 0.062100 
#    y 0.000000 2.020060 0.000000 
#    z 0.062100 0.000000 2.043260 
# 
# From -- ./inp_files/292131.got.cif
#   From: 2010.05.17/outbox.cif.g08.bks.cpg/sg15_147_cif.got.tgz:292131.got - 2010.06.03 18:47:42.
