data_PCOD9293451
_publ_section_title
;
Structure prediction by ZEFSAII (Michael W. Deem and Ramdas Pophale) SiO2 
 PCOD9293451
Probable space group: C 2/C
;
_chemical_formula_sum "Si O2"
_cell_formula_units_Z 52
_cell_length_a 29.089171
_cell_length_b 5.616747
_cell_length_c 14.989015
_cell_angle_alpha 90.000000
_cell_angle_beta 111.353035
_cell_angle_gamma 90.000000
_cell_volume 2280.890100
_symmetry_space_group_name_H-M "C 2/C"
_symmetry_group_IT_number 15
_symmetry_cell_setting 'monoclinic'
loop_
_space_group_symop_operation_xyz
x,y,z
-x,y,1/2-z
-x,-y,-z
x,-y,1/2+z
1/2+x,1/2+y,z
1/2-x,1/2+y,1/2-z
1/2-x,1/2-y,-z
1/2+x,1/2-y,1/2+z
loop_
_atom_site_type_symbol
_atom_site_label
_atom_site_fract_x
_atom_site_fract_y
_atom_site_fract_z
Si Si1 0.767988 0.355664 0.645676
Si Si2 0.107591 0.178447 0.513279
Si Si3 0.896784 0.882842 0.815838
Si Si4 0.318949 0.967493 0.355793
Si Si5 0.250000 0.750000 0.000000
Si Si6 0.656452 0.450613 0.394810
Si Si7 0.499321 0.752773 0.054830
O O1 0.725166 0.158404 0.621657
O O2 0.791773 0.380186 0.759662
O O3 0.742888 0.584706 0.585775
O O4 0.811032 0.276873 0.608220
O O5 0.146735 0.389135 0.551793
O O6 0.128427 0.964029 0.468357
O O7 0.054464 0.252814 0.437538
O O8 0.100492 0.092635 0.609472
O O9 0.854027 0.711352 0.824781
O O10 0.881118 0.989517 0.710812
O O11 0.950147 0.756897 0.853326
O O12 0.197014 0.842126 0.924451
O O13 0.500000 0.500000 0.000000
O O14 0.500000 0.000000 0.000000
#
# Coordination Sequence:
#
# PCOD9293451 Si02
#       7
#     8   8   8   8   4   8   8
#     4  12  27  44  69 102 148 195 253 314 374 473
#     4  11  25  45  74 105 143 196 248 307 385 463
#     4  11  23  46  73 102 146 193 242 319 384 450
#     4  12  24  45  72  99 144 198 248 297 389 460
#     4  12  26  46  60 100 144 194 240 318 364 452
#     4  12  25  44  69 105 146 193 248 306 377 456
#     4  10  22  45  77 108 143 193 256 316 387 460
#
# _framework density 22.798114999999999
#
# number of rings (size 3 to 8) (size 9 to 14) (size 15 to 20)
#    0.000    0.615    4.615    3.231    2.154    1.846 
#    0.000    0.000    0.000    1.846    0.000    0.000 
#    0.000    0.000    0.000    0.000    0.000    0.000 
#
# Total GULP energy -144930.581609 kJ/mol
# GULP energy per Si atom -5574.253139 kJ/mol
# Density = 2.274623 g / cm^3
# Si number density = 22.798115 Si / 1000 Ang^3
#
#
#
# Elastic Constant Matrix: (Units=GPa)
#
#
# Indices 1 2 3 4 5 6 
#
# 1 104.5800 19.2999 40.4140 0.0000 28.6474 0.0000
# 2 19.2999 57.5219 4.3810 0.0000 0.8681 0.0000
# 3 40.4140 4.3810 102.5567 0.0000 12.5365 0.0000
# 4 0.0000 0.0000 0.0000 30.6652 0.0000 -1.3048
# 5 28.6474 0.8681 12.5365 0.0000 41.3790 0.0000
# 6 0.0000 0.0000 0.0000 -1.3048 0.0000 36.5540
#
#
#
# Elastic Compliance Matrix: (Units=1/GPa)
#
#
# Indices 1 2 3 4 5 6 
#
# 1 0.014433 -0.004374 -0.004456 0.000000 -0.008551 0.000000
# 2 -0.004374 0.018768 0.000623 0.000000 0.002446 0.000000
# 3 -0.004456 0.000623 0.011531 0.000000 -0.000422 0.000000
# 4 0.000000 0.000000 0.000000 0.032660 0.000000 0.001166
# 5 -0.008551 0.002446 -0.000422 0.000000 0.030163 0.000000
# 6 0.000000 0.000000 0.000000 0.001166 0.000000 0.027398
#
#
# Mechanical properties :
#
#
# Convention : Reuss Voigt Hill
#
# Bulk Modulus (GPa) = 35.31179 43.64983 39.48081
# Shear Modulus (GPa) = 31.09297 35.09056 33.09176
#
# Velocity S-wave (km/s) = 3.69703 3.92750 3.81401
# Velocity P-wave (km/s) = 5.80918 6.30514 6.06223
#
# Compressibility (1/GPa) = 0.02831916
#
# Stress axis : x y z
#
# Youngs Moduli (GPa) = 69.28335 53.28213 86.71919
#
# Poissons Ratio (x) = 0.23308 0.38639
# Poissons Ratio (y) = 0.30307 -0.05403
# Poissons Ratio (z) = 0.30870 -0.03320
#
# Static dielectric constant tensor:
#      x y z
#    x 1.630600 0.000000 -0.099570 
#    y 0.000000 1.941800 0.000000 
#    z -0.099570 0.000000 1.812110 
# 
# From -- ./inp_files/180157.got.cif
#   From: 2010.05.17/outbox.cif.g08.bks.cpg/sg15_91_cif.got.tgz:180157.got - 2010.06.03 18:47:42.
