data_PCOD9293808
_publ_section_title
;
Structure prediction by ZEFSAII (Michael W. Deem and Ramdas Pophale) SiO2 
 PCOD9293808
Probable space group: C 2/C
;
_chemical_formula_sum "Si O2"
_cell_formula_units_Z 28
_cell_length_a 7.131630
_cell_length_b 22.212995
_cell_length_c 8.028215
_cell_angle_alpha 90.000000
_cell_angle_beta 53.527919
_cell_angle_gamma 90.000000
_cell_volume 1022.704465
_symmetry_space_group_name_H-M "C 2/C"
_symmetry_group_IT_number 15
_symmetry_cell_setting 'monoclinic'
loop_
_space_group_symop_operation_xyz
x,y,z
-x,y,1/2-z
-x,-y,-z
x,-y,1/2+z
1/2+x,1/2+y,z
1/2-x,1/2+y,1/2-z
1/2-x,1/2-y,-z
1/2+x,1/2-y,1/2+z
loop_
_atom_site_type_symbol
_atom_site_label
_atom_site_fract_x
_atom_site_fract_y
_atom_site_fract_z
Si Si1 0.245070 0.034927 0.876697
Si Si2 0.297838 0.164726 0.992790
Si Si3 0.675304 0.697588 0.410893
Si Si4 0.500000 0.598963 0.750000
O O1 0.500000 0.005557 0.750000
O O2 0.239623 0.092683 0.004485
O O3 0.217619 0.063323 0.708142
O O4 0.000000 0.000000 0.000000
O O5 0.500000 0.173327 0.750000
O O6 0.334112 0.180764 0.167547
O O7 0.080264 0.203855 0.039359
O O8 0.750000 0.750000 0.500000
O O9 0.620362 0.640018 0.550159
#
# Coordination Sequence:
#
# PCOD9293808 Si02
#       4
#     8   8   8   4
#     4  10  23  48  80 116 163 215 274 345 426 503
#     4   9  21  47  79 117 164 208 279 347 406 506
#     4  10  22  47  76 109 161 218 271 338 412 481
#     4  10  24  48  72 118 160 208 278 336 414 502
#
# _framework density 27.378388999999999
#
# number of rings (size 3 to 8) (size 9 to 14) (size 15 to 20)
#    0.000    2.286    0.000    0.000    0.000    6.857 
#   20.571   24.286    3.143    0.000    0.000    0.000 
#    0.000    0.000    0.000    0.000    0.000    0.000 
#
# Total GULP energy -78275.664355 kJ/mol
# GULP energy per Si atom -5591.118883 kJ/mol
# Density = 2.731607 g / cm^3
# Si number density = 27.378389 Si / 1000 Ang^3
#
#
#
# Elastic Constant Matrix: (Units=GPa)
#
#
# Indices 1 2 3 4 5 6 
#
# 1 182.5632 66.7349 103.5432 0.0000 -10.2725 0.0000
# 2 66.7349 97.3208 78.9437 0.0000 -13.7994 0.0000
# 3 103.5432 78.9437 245.9487 0.0000 5.9139 0.0000
# 4 0.0000 0.0000 0.0000 -0.9351 0.0000 -21.3833
# 5 -10.2725 -13.7994 5.9139 0.0000 67.1408 0.0000
# 6 0.0000 0.0000 0.0000 -21.3833 0.0000 54.7741
#
#
#
# Elastic Compliance Matrix: (Units=1/GPa)
#
#
# Indices 1 2 3 4 5 6 
#
# 1 0.008136 -0.003634 -0.002275 0.000000 0.000698 0.000000
# 2 -0.003634 0.016264 -0.003765 0.000000 0.003118 0.000000
# 3 -0.002275 -0.003765 0.006273 0.000000 -0.001675 0.000000
# 4 0.000000 0.000000 0.000000 -0.107724 0.000000 -0.042055
# 5 0.000698 0.003118 -0.001675 0.000000 0.015789 0.000000
# 6 0.000000 0.000000 0.000000 -0.042055 0.000000 0.001839
#
#
# Mechanical properties :
#
#
# Convention : Reuss Voigt Hill
#
# Bulk Modulus (GPa) = 88.31986 113.80849 101.06418
# Shear Modulus (GPa) = -137.74226 42.63669 -47.55279
#
# Velocity S-wave (km/s) = -7.10069 3.95056 -4.17210
# Velocity P-wave (km/s) = 5.90740 7.90368 3.71287
#
# Compressibility (1/GPa) = 0.01132248
#
# Stress axis : x y z
#
# Youngs Moduli (GPa) = 122.91295 61.48650 159.42114
#
# Poissons Ratio (x) = 0.22345 0.36276
# Poissons Ratio (y) = 0.44668 0.60027
# Poissons Ratio (z) = 0.27969 0.23152
#
# Static dielectric constant tensor:
#      x y z
#    x 2.280800 0.000000 -0.026640 
#    y 0.000000 2.407370 0.000000 
#    z -0.026640 0.000000 2.162030 
# 
# From -- ./inp_files/71790.got.cif
#   From: 2010.05.17/outbox.cif.g08.bks.cpg/sg15_36_cif.got.tgz:71790.got - 2010.06.03 18:47:42.
