data_PCOD9293576
_publ_section_title
;
Structure prediction by ZEFSAII (Michael W. Deem and Ramdas Pophale) SiO2 
 PCOD9293576
Probable space group: C 2/C
;
_chemical_formula_sum "Si O2"
_cell_formula_units_Z 56
_cell_length_a 17.786981
_cell_length_b 18.270373
_cell_length_c 14.006559
_cell_angle_alpha 90.000000
_cell_angle_beta 147.636440
_cell_angle_gamma 90.000000
_cell_volume 2436.520071
_symmetry_space_group_name_H-M "C 2/C"
_symmetry_group_IT_number 15
_symmetry_cell_setting 'monoclinic'
loop_
_space_group_symop_operation_xyz
x,y,z
-x,y,1/2-z
-x,-y,-z
x,-y,1/2+z
1/2+x,1/2+y,z
1/2-x,1/2+y,1/2-z
1/2-x,1/2-y,-z
1/2+x,1/2-y,1/2+z
loop_
_atom_site_type_symbol
_atom_site_label
_atom_site_fract_x
_atom_site_fract_y
_atom_site_fract_z
Si Si1 0.286752 0.449382 0.954733
Si Si2 0.259097 0.830183 0.059321
Si Si3 0.810649 0.111840 0.214800
Si Si4 0.105386 0.046574 0.723520
Si Si5 0.086133 0.819546 0.068529
Si Si6 0.090340 0.568291 0.647488
Si Si7 0.398709 0.842385 0.853922
O O1 0.215582 0.518052 0.824708
O O2 0.196210 0.378713 0.828314
O O3 0.293836 0.453784 0.076287
O O4 0.446602 0.444413 0.090552
O O5 0.159668 0.823580 0.044792
O O6 0.398511 0.869696 0.251808
O O7 0.250000 0.750000 0.000000
O O8 0.204022 0.879937 0.913798
O O9 0.667732 0.123441 0.119091
O O10 0.920334 0.170965 0.371333
O O11 0.872581 0.032029 0.300674
O O12 0.134038 0.111945 0.682412
O O13 0.111249 0.743715 0.148344
O O14 0.000000 0.500000 0.500000
O O15 0.056959 0.627079 0.527448
#
# Coordination Sequence:
#
# PCOD9293576 Si02
#       7
#     8   8   8   8   8   8   8
#     4  10  22  46  69 103 131 182 233 290 351 420
#     4  12  24  43  66 100 144 182 231 291 362 423
#     4  12  24  42  66 105 135 181 235 285 352 426
#     4  11  24  42  75  99 134 177 239 292 341 418
#     4  12  26  42  69 101 136 184 234 294 353 416
#     4  10  23  42  69  99 141 187 227 285 360 432
#     4  11  25  43  68  97 144 179 230 287 359 424
#
# _framework density 22.983599000000002
#
# number of rings (size 3 to 8) (size 9 to 14) (size 15 to 20)
#    0.000    0.857    4.286    2.571    6.000    1.143 
#    0.000    0.000    0.000    0.000    0.000    0.000 
#    0.000    0.000    0.000    0.000    0.000    0.000 
#
# Total GULP energy -156087.817166 kJ/mol
# GULP energy per Si atom -5574.564899 kJ/mol
# Density = 2.293129 g / cm^3
# Si number density = 22.983599 Si / 1000 Ang^3
#
#
#
# Elastic Constant Matrix: (Units=GPa)
#
#
# Indices 1 2 3 4 5 6 
#
# 1 59.9821 22.3647 20.2978 0.0000 -11.2901 0.0000
# 2 22.3647 175.7449 53.0850 0.0000 -22.9119 0.0000
# 3 20.2978 53.0850 148.3266 0.0000 -15.4700 0.0000
# 4 0.0000 0.0000 0.0000 44.1110 0.0000 -14.5988
# 5 -11.2901 -22.9119 -15.4700 0.0000 26.9421 0.0000
# 6 0.0000 0.0000 0.0000 -14.5988 0.0000 26.4771
#
#
#
# Elastic Compliance Matrix: (Units=1/GPa)
#
#
# Indices 1 2 3 4 5 6 
#
# 1 0.018745 -0.001140 -0.001531 0.000000 0.006007 0.000000
# 2 -0.001140 0.006974 -0.001884 0.000000 0.004371 0.000000
# 3 -0.001531 -0.001884 0.007862 0.000000 0.002271 0.000000
# 4 0.000000 0.000000 0.000000 0.027730 0.000000 0.015290
# 5 0.006007 0.004371 0.002271 0.000000 0.044655 0.000000
# 6 0.000000 0.000000 0.000000 0.015290 0.000000 0.046199
#
#
# Mechanical properties :
#
#
# Convention : Reuss Voigt Hill
#
# Bulk Modulus (GPa) = 40.86239 63.94985 52.40612
# Shear Modulus (GPa) = 29.51014 38.72644 34.11829
#
# Velocity S-wave (km/s) = 3.58713 4.10928 3.85705
# Velocity P-wave (km/s) = 5.91390 7.09926 6.53352
#
# Compressibility (1/GPa) = 0.02447238
#
# Stress axis : x y z
#
# Youngs Moduli (GPa) = 53.34663 143.38723 127.18605
#
# Poissons Ratio (x) = 0.16346 0.19469
# Poissons Ratio (y) = 0.06081 0.23963
# Poissons Ratio (z) = 0.08166 0.27015
#
# Static dielectric constant tensor:
#      x y z
#    x 1.965180 0.000000 0.116480 
#    y 0.000000 1.879820 0.000000 
#    z 0.116480 0.000000 1.957130 
# 
# From -- ./inp_files/169156.got.cif
#   From: 2010.05.17/outbox.cif.g08.bks.cpg/sg15_85_cif.got.tgz:169156.got - 2010.06.03 18:47:42.
