data_PCOD9293233
_publ_section_title
;
Structure prediction by ZEFSAII (Michael W. Deem and Ramdas Pophale) SiO2 
 PCOD9293233
Probable space group: C 2/C
;
_chemical_formula_sum "Si O2"
_cell_formula_units_Z 44
_cell_length_a 15.867021
_cell_length_b 4.783397
_cell_length_c 23.102815
_cell_angle_alpha 90.000000
_cell_angle_beta 114.881927
_cell_angle_gamma 90.000000
_cell_volume 1590.701345
_symmetry_space_group_name_H-M "C 2/C"
_symmetry_group_IT_number 15
_symmetry_cell_setting 'monoclinic'
loop_
_space_group_symop_operation_xyz
x,y,z
-x,y,1/2-z
-x,-y,-z
x,-y,1/2+z
1/2+x,1/2+y,z
1/2-x,1/2+y,1/2-z
1/2-x,1/2-y,-z
1/2+x,1/2-y,1/2+z
loop_
_atom_site_type_symbol
_atom_site_label
_atom_site_fract_x
_atom_site_fract_y
_atom_site_fract_z
Si Si1 0.739572 0.545649 0.551665
Si Si2 0.000000 0.868546 0.750000
Si Si3 0.836996 0.271645 0.726207
Si Si4 0.281247 0.782824 0.833764
Si Si5 0.554838 0.638046 0.962889
Si Si6 0.449373 0.108295 0.618498
O O1 0.750000 0.750000 0.500000
O O2 0.696172 0.701100 0.594859
O O3 0.662348 0.315363 0.513628
O O4 0.846012 0.479993 0.599264
O O5 0.000292 0.668141 0.806493
O O6 0.083510 0.091009 0.780101
O O7 0.810318 0.592407 0.707913
O O8 0.846504 0.220634 0.798019
O O9 0.744466 0.107131 0.678372
O O10 0.559153 0.408436 0.913682
O O11 0.510764 0.909866 0.920453
O O12 0.500000 0.500000 0.000000
#
# Coordination Sequence:
#
# PCOD9293233 Si02
#       6
#     8   4   8   8   8   8
#     4  10  23  46  74 101 141 190 236 289 350 430
#     4  12  26  46  72 110 146 182 234 304 352 424
#     4  10  24  42  69  99 143 184 230 292 346 425
#     4  10  22  45  66 101 136 188 236 279 356 418
#     4  11  26  48  71 103 140 184 240 294 348 415
#     4  11  26  45  70 103 141 188 232 286 361 417
#
# _framework density 27.660755999999999
#
# number of rings (size 3 to 8) (size 9 to 14) (size 15 to 20)
#    0.000    1.455    1.818    1.091    5.091    5.818 
#    6.545    0.000    0.000    0.000    0.000    0.000 
#    0.000    0.000    0.000    0.000    0.000    0.000 
#
# Total GULP energy -123212.381305 kJ/mol
# GULP energy per Si atom -5600.562787 kJ/mol
# Density = 2.759780 g / cm^3
# Si number density = 27.660756 Si / 1000 Ang^3
#
#
#
# Elastic Constant Matrix: (Units=GPa)
#
#
# Indices 1 2 3 4 5 6 
#
# 1 70.6594 10.2073 25.4318 0.0002 -1.8646 0.0000
# 2 10.2073 134.7921 30.0407 0.0005 2.6428 -0.0001
# 3 25.4318 30.0407 172.5217 0.0000 -9.1224 0.0000
# 4 0.0002 0.0005 0.0000 50.5011 -0.0001 -7.0790
# 5 -1.8646 2.6428 -9.1224 -0.0001 48.6247 0.0001
# 6 0.0000 -0.0001 0.0000 -7.0790 0.0001 29.1941
#
#
#
# Elastic Compliance Matrix: (Units=1/GPa)
#
#
# Indices 1 2 3 4 5 6 
#
# 1 0.015006 -0.000677 -0.002082 0.000000 0.000222 0.000000
# 2 -0.000677 0.007771 -0.001290 0.000000 -0.000690 0.000000
# 3 -0.002082 -0.001290 0.006391 0.000000 0.001189 0.000000
# 4 0.000000 0.000000 0.000000 0.020498 0.000000 0.004970
# 5 0.000222 -0.000690 0.001189 0.000000 0.020835 0.000000
# 6 0.000000 0.000000 0.000000 0.004970 0.000000 0.035459
#
#
# Mechanical properties :
#
#
# Convention : Reuss Voigt Hill
#
# Bulk Modulus (GPa) = 47.46189 56.59254 52.02721
# Shear Modulus (GPa) = 41.29489 46.48354 43.88921
#
# Velocity S-wave (km/s) = 3.86800 4.10382 3.98766
# Velocity P-wave (km/s) = 6.09462 6.55432 6.32864
#
# Compressibility (1/GPa) = 0.02106954
#
# Stress axis : x y z
#
# Youngs Moduli (GPa) = 66.64223 128.68228 156.47375
#
# Poissons Ratio (x) = 0.08706 0.32585
# Poissons Ratio (y) = 0.04509 0.20184
# Poissons Ratio (z) = 0.13878 0.16599
#
# Static dielectric constant tensor:
#      x y z
#    x 2.294420 0.000000 0.028030 
#    y 0.000000 2.044560 0.000000 
#    z 0.028030 0.000000 2.148960 
# 
# From -- ./inp_files/246527.got.cif
#   From: 2010.05.17/outbox.cif.g08.bks.cpg/sg15_124_cif.got.tgz:246527.got - 2010.06.03 18:47:42.
