data_PCOD9293582
_publ_section_title
;
Structure prediction by ZEFSAII (Michael W. Deem and Ramdas Pophale) SiO2 
 PCOD9293582
Probable space group: C 2/C
;
_chemical_formula_sum "Si O2"
_cell_formula_units_Z 60
_cell_length_a 28.706764
_cell_length_b 9.653274
_cell_length_c 9.369686
_cell_angle_alpha 90.000000
_cell_angle_beta 72.001749
_cell_angle_gamma 90.000000
_cell_volume 2469.417617
_symmetry_space_group_name_H-M "C 2/C"
_symmetry_group_IT_number 15
_symmetry_cell_setting 'monoclinic'
loop_
_space_group_symop_operation_xyz
x,y,z
-x,y,1/2-z
-x,-y,-z
x,-y,1/2+z
1/2+x,1/2+y,z
1/2-x,1/2+y,1/2-z
1/2-x,1/2-y,-z
1/2+x,1/2-y,1/2+z
loop_
_atom_site_type_symbol
_atom_site_label
_atom_site_fract_x
_atom_site_fract_y
_atom_site_fract_z
Si Si1 0.500000 0.273422 0.250000
Si Si2 0.570272 0.717488 0.463621
Si Si3 0.321019 0.250932 0.536925
Si Si4 0.228794 0.322695 0.159063
Si Si5 0.321522 0.327424 0.215059
Si Si6 0.157406 0.434490 0.008067
Si Si7 0.433314 0.403675 0.078666
Si Si8 0.554712 0.835033 0.168343
O O1 0.468484 0.199837 0.402320
O O2 0.458974 0.357542 0.200741
O O3 0.623146 0.712029 0.484034
O O4 0.551852 0.559197 0.472706
O O5 0.572662 0.775560 0.302888
O O6 0.287380 0.284869 0.703435
O O7 0.308175 0.304800 0.392938
O O8 0.320462 0.083663 0.542513
O O9 0.275979 0.399933 0.179604
O O10 0.180997 0.394942 0.138711
O O11 0.250000 0.250000 0.000000
O O12 0.374260 0.399957 0.152687
O O13 0.329477 0.180637 0.123854
O O14 0.098394 0.434561 0.074709
O O15 0.447202 0.292279 0.943140
O O16 0.500000 0.888932 0.250000
#
# Coordination Sequence:
#
# PCOD9293582 Si02
#       8
#     4   8   8   8   8   8   8   8
#     4  12  22  42  64 100 132 172 224 274 326 394
#     4  12  25  40  67  97 137 173 223 276 334 402
#     4  12  23  45  70 101 136 177 225 275 336 404
#     4  10  22  46  69  95 130 174 220 274 332 398
#     4  10  23  43  67  99 135 170 228 281 328 400
#     4  10  23  45  69  97 137 182 223 272 338 405
#     4  11  24  41  64  99 134 173 221 278 336 398
#     4  11  23  42  67  96 136 182 221 272 339 396
#
# _framework density 24.297228
#
# number of rings (size 3 to 8) (size 9 to 14) (size 15 to 20)
#    0.000    1.067    4.000    2.400    1.867    0.000 
#   10.800    0.667    0.000    0.000    0.000    0.000 
#    0.000    0.000    0.000    0.000    0.000    0.000 
#
# Total GULP energy -167790.724355 kJ/mol
# GULP energy per Si atom -5593.024145 kJ/mol
# Density = 2.424193 g / cm^3
# Si number density = 24.297228 Si / 1000 Ang^3
#
#
#
# Elastic Constant Matrix: (Units=GPa)
#
#
# Indices 1 2 3 4 5 6 
#
# 1 148.8808 1.5407 31.7683 0.0000 0.9052 0.0000
# 2 1.5407 57.5930 11.5603 0.0000 -1.3814 0.0000
# 3 31.7683 11.5603 164.7746 0.0000 4.5419 0.0000
# 4 0.0000 0.0000 0.0000 8.3345 0.0000 -4.0469
# 5 0.9052 -1.3814 4.5419 0.0000 59.5251 0.0000
# 6 0.0000 0.0000 0.0000 -4.0469 0.0000 -12.6385
#
#
#
# Elastic Compliance Matrix: (Units=1/GPa)
#
#
# Indices 1 2 3 4 5 6 
#
# 1 0.007005 0.000085 -0.001357 0.000000 -0.000001 0.000000
# 2 0.000085 0.017627 -0.001267 0.000000 0.000504 0.000000
# 3 -0.001357 -0.001267 0.006433 0.000000 -0.000500 0.000000
# 4 0.000000 0.000000 0.000000 0.103839 0.000000 -0.033249
# 5 -0.000001 0.000504 -0.000500 0.000000 0.016849 0.000000
# 6 0.000000 0.000000 0.000000 -0.033249 0.000000 -0.068476
#
#
# Mechanical properties :
#
#
# Convention : Reuss Voigt Hill
#
# Bulk Modulus (GPa) = 38.47855 51.22077 44.84966
# Shear Modulus (GPa) = 51.53690 32.80283 42.16986
#
# Velocity S-wave (km/s) = 4.61054 3.67831 4.17055
# Velocity P-wave (km/s) = 6.64934 6.25832 6.45679
#
# Compressibility (1/GPa) = 0.02598850
#
# Stress axis : x y z
#
# Youngs Moduli (GPa) = 142.74762 56.73003 155.44610
#
# Poissons Ratio (x) = -0.00481 0.21087
# Poissons Ratio (y) = -0.01211 0.19695
# Poissons Ratio (z) = 0.19364 0.07188
#
# Static dielectric constant tensor:
#      x y z
#    x 1.955970 0.000000 -0.038110 
#    y 0.000000 1.923670 0.000000 
#    z -0.038110 0.000000 1.947520 
# 
# From -- ./inp_files/69358.got.cif
#   From: 2010.05.17/outbox.cif.g08.bks.cpg/sg15_35_cif.got.tgz:69358.got - 2010.06.03 18:47:42.
