data_PCOD9293719
_publ_section_title
;
Structure prediction by ZEFSAII (Michael W. Deem and Ramdas Pophale) SiO2 
 PCOD9293719
Probable space group: C 2/C
;
_chemical_formula_sum "Si O2"
_cell_formula_units_Z 40
_cell_length_a 9.124425
_cell_length_b 16.096301
_cell_length_c 11.738990
_cell_angle_alpha 90.000000
_cell_angle_beta 65.726662
_cell_angle_gamma 90.000000
_cell_volume 1571.679908
_symmetry_space_group_name_H-M "C 2/C"
_symmetry_group_IT_number 15
_symmetry_cell_setting 'monoclinic'
loop_
_space_group_symop_operation_xyz
x,y,z
-x,y,1/2-z
-x,-y,-z
x,-y,1/2+z
1/2+x,1/2+y,z
1/2-x,1/2+y,1/2-z
1/2-x,1/2-y,-z
1/2+x,1/2-y,1/2+z
loop_
_atom_site_type_symbol
_atom_site_label
_atom_site_fract_x
_atom_site_fract_y
_atom_site_fract_z
Si Si1 0.779305 0.576791 0.512718
Si Si2 0.058227 0.909287 0.430080
Si Si3 0.175764 0.682639 0.221078
Si Si4 0.861893 0.651612 0.699729
Si Si5 0.837407 0.098981 0.374755
O O1 0.600629 0.616798 0.586557
O O2 0.812247 0.607625 0.374671
O O3 0.901955 0.608142 0.568066
O O4 0.754749 0.480559 0.546399
O O5 0.215410 0.902056 0.302663
O O6 0.098403 0.856826 0.531060
O O7 0.000000 0.000000 0.500000
O O8 0.298149 0.759035 0.179759
O O9 0.217646 0.646000 0.330633
O O10 0.000000 0.716067 0.250000
O O11 0.000000 0.657832 0.750000
O O12 0.000000 0.077668 0.250000
#
# Coordination Sequence:
#
# PCOD9293719 Si02
#       5
#     8   8   8   8   8
#     4  11  24  46  77 102 149 196 252 304 379 445
#     4  10  22  46  76 105 144 198 242 301 373 449
#     4  12  28  47  70 108 153 198 250 315 379 444
#     4  12  28  47  74 110 150 197 253 310 373 447
#     4  11  23  45  75 110 144 194 253 309 374 449
#
# _framework density 25.450475000000001
#
# number of rings (size 3 to 8) (size 9 to 14) (size 15 to 20)
#    0.000    0.800    2.000    5.400    5.600    2.400 
#    0.000    0.000    0.000    0.000    0.000    0.000 
#    0.000    0.000    0.000    0.000    0.000    0.000 
#
# Total GULP energy -111722.234250 kJ/mol
# GULP energy per Si atom -5586.111712 kJ/mol
# Density = 2.539255 g / cm^3
# Si number density = 25.450475 Si / 1000 Ang^3
#
#
#
# Elastic Constant Matrix: (Units=GPa)
#
#
# Indices 1 2 3 4 5 6 
#
# 1 162.6009 21.9299 32.1133 0.0000 32.0336 0.0000
# 2 21.9299 64.3341 3.8595 0.0000 0.7896 0.0000
# 3 32.1133 3.8595 81.1258 0.0000 13.2789 0.0000
# 4 0.0000 0.0000 0.0000 15.5924 0.0000 7.2218
# 5 32.0336 0.7896 13.2789 0.0000 60.2498 0.0000
# 6 0.0000 0.0000 0.0000 7.2218 0.0000 21.8822
#
#
#
# Elastic Compliance Matrix: (Units=1/GPa)
#
#
# Indices 1 2 3 4 5 6 
#
# 1 0.007628 -0.002417 -0.002330 0.000000 -0.003510 0.000000
# 2 -0.002417 0.016354 0.000004 0.000000 0.001070 0.000000
# 3 -0.002330 0.000004 0.013534 0.000000 -0.001744 0.000000
# 4 0.000000 0.000000 0.000000 0.075706 0.000000 -0.024985
# 5 -0.003510 0.001070 -0.001744 0.000000 0.018834 0.000000
# 6 0.000000 0.000000 0.000000 -0.024985 0.000000 0.053945
#
#
# Mechanical properties :
#
#
# Convention : Reuss Voigt Hill
#
# Bulk Modulus (GPa) = 35.67671 47.09624 41.38648
# Shear Modulus (GPa) = 24.41022 36.22207 30.31615
#
# Velocity S-wave (km/s) = 3.10034 3.77667 3.45509
# Velocity P-wave (km/s) = 5.18311 6.12886 5.67572
#
# Compressibility (1/GPa) = 0.02802949
#
# Stress axis : x y z
#
# Youngs Moduli (GPa) = 131.10035 61.14534 73.88736
#
# Poissons Ratio (x) = 0.14780 0.17215
# Poissons Ratio (y) = 0.31690 -0.00027
# Poissons Ratio (z) = 0.30544 -0.00022
#
# Static dielectric constant tensor:
#      x y z
#    x 2.105080 0.000000 -0.015830 
#    y 0.000000 2.080720 0.000000 
#    z -0.015830 0.000000 2.067480 
# 
# From -- ./inp_files/76675.got.cif
#   From: 2010.05.17/outbox.cif.g08.bks.cpg/sg15_39_cif.got.tgz:76675.got - 2010.06.03 18:47:42.
