data_PCOD9293108
_publ_section_title
;
Structure prediction by ZEFSAII (Michael W. Deem and Ramdas Pophale) SiO2 
 PCOD9293108
Probable space group: C 2/C
;
_chemical_formula_sum "Si O2"
_cell_formula_units_Z 28
_cell_length_a 9.726820
_cell_length_b 23.333193
_cell_length_c 8.623874
_cell_angle_alpha 90.000000
_cell_angle_beta 146.614689
_cell_angle_gamma 90.000000
_cell_volume 1077.012341
_symmetry_space_group_name_H-M "C 2/C"
_symmetry_group_IT_number 15
_symmetry_cell_setting 'monoclinic'
loop_
_space_group_symop_operation_xyz
x,y,z
-x,y,1/2-z
-x,-y,-z
x,-y,1/2+z
1/2+x,1/2+y,z
1/2-x,1/2+y,1/2-z
1/2-x,1/2-y,-z
1/2+x,1/2-y,1/2+z
loop_
_atom_site_type_symbol
_atom_site_label
_atom_site_fract_x
_atom_site_fract_y
_atom_site_fract_z
Si Si1 0.817502 0.012233 0.465294
Si Si2 0.000000 0.593210 0.750000
Si Si3 0.009590 0.219098 0.945182
Si Si4 0.114193 0.375770 0.690239
O O1 0.611449 0.055600 0.209908
O O2 0.000000 0.047216 0.750000
O O3 0.724604 0.953217 0.450933
O O4 0.000000 0.000000 0.500000
O O5 0.000175 0.628803 0.590472
O O6 0.733193 0.241506 0.727114
O O7 0.000000 0.224743 0.750000
O O8 0.116389 0.155194 0.073191
O O9 0.000000 0.354267 0.750000
#
# Coordination Sequence:
#
# PCOD9293108 Si02
#       4
#     8   4   8   8
#     4  12  23  41  66  96 139 188 233 290 354 426
#     4  12  26  46  60 106 148 176 240 302 338 444
#     4  10  22  44  73 107 141 182 245 305 356 429
#     4  12  24  43  73 100 139 193 235 291 373 422
#
# _framework density 25.997845000000002
#
# number of rings (size 3 to 8) (size 9 to 14) (size 15 to 20)
#    0.000    0.571    4.286    6.000    0.000    2.286 
#    0.000    1.429    0.000    0.000    0.000    2.000 
#    0.000    0.000    0.000    0.000    0.000    0.000 
#
# Total GULP energy -78057.276023 kJ/mol
# GULP energy per Si atom -5575.519716 kJ/mol
# Density = 2.593867 g / cm^3
# Si number density = 25.997845 Si / 1000 Ang^3
#
#
#
# Elastic Constant Matrix: (Units=GPa)
#
#
# Indices 1 2 3 4 5 6 
#
# 1 115.8697 24.4099 49.6612 0.0000 -19.4842 0.0000
# 2 24.4099 126.4524 36.5348 0.0000 -3.0199 0.0000
# 3 49.6612 36.5348 147.2540 0.0000 -5.5519 0.0000
# 4 0.0000 0.0000 0.0000 37.8430 0.0000 10.7600
# 5 -19.4842 -3.0199 -5.5519 0.0000 49.8876 0.0000
# 6 0.0000 0.0000 0.0000 10.7600 0.0000 13.9927
#
#
#
# Elastic Compliance Matrix: (Units=1/GPa)
#
#
# Indices 1 2 3 4 5 6 
#
# 1 0.010899 -0.001069 -0.003266 0.000000 0.003829 0.000000
# 2 -0.001069 0.008628 -0.001784 0.000000 -0.000094 0.000000
# 3 -0.003266 -0.001784 0.008318 0.000000 -0.000458 0.000000
# 4 0.000000 0.000000 0.000000 0.033819 0.000000 -0.026006
# 5 0.003829 -0.000094 -0.000458 0.000000 0.021484 0.000000
# 6 0.000000 0.000000 0.000000 -0.026006 0.000000 0.091464
#
#
# Mechanical properties :
#
#
# Convention : Reuss Voigt Hill
#
# Bulk Modulus (GPa) = 64.07298 67.86531 65.96914
# Shear Modulus (GPa) = 26.03468 38.94268 32.48868
#
# Velocity S-wave (km/s) = 3.16795 3.87450 3.53890
# Velocity P-wave (km/s) = 6.17092 6.79533 6.49064
#
# Compressibility (1/GPa) = 0.01560720
#
# Stress axis : x y z
#
# Youngs Moduli (GPa) = 91.74945 115.90808 120.22451
#
# Poissons Ratio (x) = 0.12389 0.39268
# Poissons Ratio (y) = 0.09807 0.21443
# Poissons Ratio (z) = 0.29967 0.20674
#
# Static dielectric constant tensor:
#      x y z
#    x 2.044080 0.000000 0.105340 
#    y 0.000000 2.000130 0.000000 
#    z 0.105340 0.000000 2.038810 
# 
# From -- ./inp_files/24789.got.cif
#   From: 2010.05.17/outbox.cif.g08.bks.cpg/sg15_13_cif.got.tgz:24789.got - 2010.06.03 18:47:42.
