data_PCOD9293980
_publ_section_title
;
Structure prediction by ZEFSAII (Michael W. Deem and Ramdas Pophale) SiO2 
 PCOD9293980
Probable space group: C 2/C
;
_chemical_formula_sum "Si O2"
_cell_formula_units_Z 56
_cell_length_a 14.184438
_cell_length_b 9.021901
_cell_length_c 26.881306
_cell_angle_alpha 90.000000
_cell_angle_beta 138.344062
_cell_angle_gamma 90.000000
_cell_volume 2286.427669
_symmetry_space_group_name_H-M "C 2/C"
_symmetry_group_IT_number 15
_symmetry_cell_setting 'monoclinic'
loop_
_space_group_symop_operation_xyz
x,y,z
-x,y,1/2-z
-x,-y,-z
x,-y,1/2+z
1/2+x,1/2+y,z
1/2-x,1/2+y,1/2-z
1/2-x,1/2-y,-z
1/2+x,1/2-y,1/2+z
loop_
_atom_site_type_symbol
_atom_site_label
_atom_site_fract_x
_atom_site_fract_y
_atom_site_fract_z
Si Si1 0.434149 0.710241 0.925157
Si Si2 0.901132 0.337643 0.061514
Si Si3 0.434951 0.144823 0.117359
Si Si4 0.859271 0.912815 0.837755
Si Si5 0.529011 0.437177 0.202725
Si Si6 0.811628 0.226923 0.409962
Si Si7 0.728123 0.945485 0.586179
O O1 0.523990 0.808243 0.922017
O O2 0.406877 0.561796 0.884416
O O3 0.296595 0.802450 0.888945
O O4 0.531532 0.679659 0.011469
O O5 0.930864 0.465687 0.114370
O O6 0.027706 0.220901 0.116027
O O7 0.750000 0.250000 0.000000
O O8 0.881648 0.422902 0.001672
O O9 0.528695 0.265324 0.185617
O O10 0.282567 0.187485 0.079356
O O11 0.751212 0.851862 0.837019
O O12 0.845335 0.970795 0.775326
O O13 0.500000 0.447518 0.250000
O O14 0.384943 0.520492 0.126732
O O15 0.806626 0.402278 0.399563
#
# Coordination Sequence:
#
# PCOD9293980 Si02
#       7
#     8   8   8   8   8   8   8
#     4  11  20  35  55  95 134 169 194 244 320 388
#     4  12  21  35  59 100 134 161 196 259 323 387
#     4  10  23  37  62  88 133 170 205 248 321 382
#     4  11  23  34  60  93 129 163 202 258 309 375
#     4  10  24  47  63  82 120 170 221 267 308 362
#     4  11  20  33  55  93 130 164 196 252 315 389
#     4  11  22  36  61  90 130 165 202 253 319 376
#
# _framework density 24.492356999999998
#
# number of rings (size 3 to 8) (size 9 to 14) (size 15 to 20)
#    0.000    1.143    4.286    3.000    4.000    0.000 
#    0.000    6.429    0.000    0.000    0.000    0.000 
#    0.000    0.000    0.000    0.000    0.000    0.000 
#
# Total GULP energy -155980.190823 kJ/mol
# GULP energy per Si atom -5570.721101 kJ/mol
# Density = 2.443661 g / cm^3
# Si number density = 24.492357 Si / 1000 Ang^3
#
#
#
# Elastic Constant Matrix: (Units=GPa)
#
#
# Indices 1 2 3 4 5 6 
#
# 1 52.7994 27.2593 -0.9390 0.0000 -16.7853 0.0000
# 2 27.2593 152.3085 22.4723 0.0000 -13.8758 0.0000
# 3 -0.9390 22.4723 55.0340 0.0000 -23.7057 0.0000
# 4 0.0000 0.0000 0.0000 12.2404 0.0000 -11.2936
# 5 -16.7853 -13.8758 -23.7057 0.0000 34.7075 0.0000
# 6 0.0000 0.0000 0.0000 -11.2936 0.0000 48.6457
#
#
#
# Elastic Compliance Matrix: (Units=1/GPa)
#
#
# Indices 1 2 3 4 5 6 
#
# 1 0.027444 -0.004760 0.010356 0.000000 0.018443 0.000000
# 2 -0.004760 0.007847 -0.004145 0.000000 -0.001996 0.000000
# 3 0.010356 -0.004145 0.030439 0.000000 0.024141 0.000000
# 4 0.000000 0.000000 0.000000 0.103966 0.000000 0.024137
# 5 0.018443 -0.001996 0.024141 0.000000 0.053423 0.000000
# 6 0.000000 0.000000 0.000000 0.024137 0.000000 0.026160
#
#
# Mechanical properties :
#
#
# Convention : Reuss Voigt Hill
#
# Bulk Modulus (GPa) = 14.57028 39.74743 27.15885
# Shear Modulus (GPa) = 18.56980 33.20870 25.88925
#
# Velocity S-wave (km/s) = 2.75651 3.68622 3.25473
# Velocity P-wave (km/s) = 4.01160 5.86356 5.02366
#
# Compressibility (1/GPa) = 0.06863287
#
# Stress axis : x y z
#
# Youngs Moduli (GPa) = 36.43750 127.43347 32.85294
#
# Poissons Ratio (x) = 0.60653 -0.34023
# Poissons Ratio (y) = 0.17343 0.13618
# Poissons Ratio (z) = -0.37735 0.52823
#
# Static dielectric constant tensor:
#      x y z
#    x 2.096960 0.000000 -0.006230 
#    y 0.000000 1.981960 0.000000 
#    z -0.006230 0.000000 2.049450 
# 
# From -- ./inp_files/295249.got.cif
#   From: 2010.05.17/outbox.cif.g08.bks.cpg/sg15_148_cif.got.tgz:295249.got - 2010.06.03 18:47:42.
