data_PCOD9293296
_publ_section_title
;
Structure prediction by ZEFSAII (Michael W. Deem and Ramdas Pophale) SiO2 
 PCOD9293296
Probable space group: C 2/C
;
_chemical_formula_sum "Si O2"
_cell_formula_units_Z 48
_cell_length_a 11.566536
_cell_length_b 11.113023
_cell_length_c 14.656522
_cell_angle_alpha 90.000000
_cell_angle_beta 112.928011
_cell_angle_gamma 90.000000
_cell_volume 1735.096971
_symmetry_space_group_name_H-M "C 2/C"
_symmetry_group_IT_number 15
_symmetry_cell_setting 'monoclinic'
loop_
_space_group_symop_operation_xyz
x,y,z
-x,y,1/2-z
-x,-y,-z
x,-y,1/2+z
1/2+x,1/2+y,z
1/2-x,1/2+y,1/2-z
1/2-x,1/2-y,-z
1/2+x,1/2-y,1/2+z
loop_
_atom_site_type_symbol
_atom_site_label
_atom_site_fract_x
_atom_site_fract_y
_atom_site_fract_z
Si Si1 0.991954 0.279785 0.856614
Si Si2 0.421190 0.719905 0.023375
Si Si3 0.129718 0.093945 0.325733
Si Si4 0.285845 0.356157 0.101926
Si Si5 0.116799 0.490855 0.429494
Si Si6 0.308350 0.619703 0.351503
O O1 0.129106 0.231123 0.935521
O O2 0.001282 0.423351 0.866924
O O3 0.000000 0.257181 0.750000
O O4 0.901878 0.227226 0.907788
O O5 0.328125 0.658366 0.068477
O O6 0.545057 0.634017 0.076325
O O7 0.428798 0.856318 0.064743
O O8 0.210026 0.087712 0.259232
O O9 0.000000 0.153047 0.250000
O O10 0.109615 0.955634 0.343437
O O11 0.238267 0.258283 0.158013
O O12 0.176215 0.444737 0.036557
O O13 0.226974 0.527861 0.388980
#
# Coordination Sequence:
#
# PCOD9293296 Si02
#       6
#     8   8   8   8   8   8
#     4  11  23  42  69 103 138 187 241 292 362 431
#     4  11  23  45  70 102 137 189 239 291 361 431
#     4  10  25  43  67 104 139 184 232 291 358 435
#     4  11  22  44  67  94 141 188 226 297 367 413
#     4  11  23  42  74  99 137 190 236 299 363 420
#     4  10  22  45  69 100 145 178 241 295 354 430
#
# _framework density 27.664156999999999
#
# number of rings (size 3 to 8) (size 9 to 14) (size 15 to 20)
#    0.000    1.333    3.333    2.000    2.333    6.000 
#    3.000    0.000    0.000    0.000    0.000    0.000 
#    0.000    0.000    0.000    0.000    0.000    0.000 
#
# Total GULP energy -133776.605900 kJ/mol
# GULP energy per Si atom -5574.025246 kJ/mol
# Density = 2.760119 g / cm^3
# Si number density = 27.664157 Si / 1000 Ang^3
#
#
#
# Elastic Constant Matrix: (Units=GPa)
#
#
# Indices 1 2 3 4 5 6 
#
# 1 97.4368 4.5548 35.0391 0.0000 -16.8731 0.0000
# 2 4.5548 137.5851 27.1847 0.0000 -21.8202 0.0000
# 3 35.0391 27.1847 155.1852 0.0000 -45.5624 0.0000
# 4 0.0000 0.0000 0.0000 12.5554 0.0000 -2.6297
# 5 -16.8731 -21.8202 -45.5624 0.0000 59.9703 0.0000
# 6 0.0000 0.0000 0.0000 -2.6297 0.0000 40.6167
#
#
#
# Elastic Compliance Matrix: (Units=1/GPa)
#
#
# Indices 1 2 3 4 5 6 
#
# 1 0.011300 0.000311 -0.002110 0.000000 0.001689 0.000000
# 2 0.000311 0.007778 -0.000741 0.000000 0.002354 0.000000
# 3 -0.002110 -0.000741 0.008748 0.000000 0.005783 0.000000
# 4 0.000000 0.000000 0.000000 0.080742 0.000000 0.005228
# 5 0.001689 0.002354 0.005783 0.000000 0.022400 0.000000
# 6 0.000000 0.000000 0.000000 0.005228 0.000000 0.024959
#
#
# Mechanical properties :
#
#
# Convention : Reuss Voigt Hill
#
# Bulk Modulus (GPa) = 43.96669 58.19601 51.08135
# Shear Modulus (GPa) = 29.65782 44.19039 36.92410
#
# Velocity S-wave (km/s) = 3.27779 4.00107 3.65736
# Velocity P-wave (km/s) = 5.50025 6.51360 6.02826
#
# Compressibility (1/GPa) = 0.02274449
#
# Stress axis : x y z
#
# Youngs Moduli (GPa) = 88.49720 128.57132 114.31136
#
# Poissons Ratio (x) = -0.03995 0.24117
# Poissons Ratio (y) = -0.02750 0.08476
# Poissons Ratio (z) = 0.18671 0.09533
#
# Static dielectric constant tensor:
#      x y z
#    x 2.456200 0.000000 0.126630 
#    y 0.000000 2.088360 0.000000 
#    z 0.126630 0.000000 2.393960 
# 
# From -- ./inp_files/152090.got.cif
#   From: 2010.05.17/outbox.cif.g08.bks.cpg/sg15_77_cif.got.tgz:152090.got - 2010.06.03 18:47:42.
