data_PCOD9293500
_publ_section_title
;
Structure prediction by ZEFSAII (Michael W. Deem and Ramdas Pophale) SiO2 
 PCOD9293500
Probable space group: C 2/C
;
_chemical_formula_sum "Si O2"
_cell_formula_units_Z 52
_cell_length_a 20.116832
_cell_length_b 7.866029
_cell_length_c 27.245855
_cell_angle_alpha 90.000000
_cell_angle_beta 30.472905
_cell_angle_gamma 90.000000
_cell_volume 2186.430107
_symmetry_space_group_name_H-M "C 2/C"
_symmetry_group_IT_number 15
_symmetry_cell_setting 'monoclinic'
loop_
_space_group_symop_operation_xyz
x,y,z
-x,y,1/2-z
-x,-y,-z
x,-y,1/2+z
1/2+x,1/2+y,z
1/2-x,1/2+y,1/2-z
1/2-x,1/2-y,-z
1/2+x,1/2-y,1/2+z
loop_
_atom_site_type_symbol
_atom_site_label
_atom_site_fract_x
_atom_site_fract_y
_atom_site_fract_z
Si Si1 0.788198 0.895648 0.532804
Si Si2 0.415358 0.611739 0.696249
Si Si3 0.971529 0.401127 0.467686
Si Si4 0.500000 0.477438 0.250000
Si Si5 0.748963 0.014736 0.958003
Si Si6 0.282052 0.263425 0.741984
Si Si7 0.146557 0.927654 0.416281
O O1 0.735069 0.021872 0.524418
O O2 0.718548 0.716068 0.568213
O O3 0.943639 0.891565 0.420441
O O4 0.777793 0.947900 0.595601
O O5 0.439882 0.611653 0.739115
O O6 0.335608 0.437207 0.732586
O O7 0.332793 0.767555 0.725955
O O8 0.887021 0.506021 0.483401
O O9 0.878792 0.243430 0.537956
O O10 0.000000 0.500000 0.500000
O O11 0.099448 0.325012 0.361775
O O12 0.626214 0.574278 0.146582
O O13 0.221619 0.136682 0.820886
O O14 0.000000 0.000000 0.500000
#
# Coordination Sequence:
#
# PCOD9293500 Si02
#       7
#     8   8   8   4   8   8   8
#     4  10  22  46  65  93 138 180 223 291 348 403
#     4  11  24  44  70  98 139 180 234 286 350 418
#     4  12  25  42  68 103 137 179 232 286 349 421
#     4  10  22  46  70  98 134 186 228 278 360 422
#     4  10  23  43  70  96 135 181 228 284 347 427
#     4  12  24  42  68 106 134 188 231 286 352 418
#     4  12  23  42  66  98 139 176 227 292 343 404
#
# _framework density 23.783061
#
# number of rings (size 3 to 8) (size 9 to 14) (size 15 to 20)
#    0.000    0.923    3.077    3.692    2.154    1.846 
#    8.308    0.000    0.000    0.923    0.000    0.000 
#    0.000    0.000    0.000    0.000    0.000    0.000 
#
# Total GULP energy -145282.050282 kJ/mol
# GULP energy per Si atom -5587.771165 kJ/mol
# Density = 2.372893 g / cm^3
# Si number density = 23.783061 Si / 1000 Ang^3
#
#
#
# Elastic Constant Matrix: (Units=GPa)
#
#
# Indices 1 2 3 4 5 6 
#
# 1 177.5751 26.0960 38.0535 -0.0084 -3.5797 0.0108
# 2 26.0960 62.9230 10.0436 -0.0091 -0.8474 0.0123
# 3 38.0535 10.0436 84.5571 -0.0013 13.4181 0.0058
# 4 -0.0084 -0.0091 -0.0013 33.4766 0.0035 1.4773
# 5 -3.5797 -0.8474 13.4181 0.0035 44.5964 -0.0076
# 6 0.0108 0.0123 0.0058 1.4773 -0.0076 24.3032
#
#
#
# Elastic Compliance Matrix: (Units=1/GPa)
#
#
# Indices 1 2 3 4 5 6 
#
# 1 0.006618 -0.002259 -0.002927 0.000001 0.001369 -0.000001
# 2 -0.002259 0.017008 -0.001077 0.000004 0.000466 -0.000007
# 3 -0.002927 -0.001077 0.013980 0.000000 -0.004462 -0.000003
# 4 0.000001 0.000004 0.000000 0.029952 -0.000003 -0.001821
# 5 0.001369 0.000466 -0.004462 -0.000003 0.023884 0.000008
# 6 -0.000001 -0.000007 -0.000003 -0.001821 0.000008 0.041257
#
#
# Mechanical properties :
#
#
# Convention : Reuss Voigt Hill
#
# Bulk Modulus (GPa) = 39.87586 52.60460 46.24023
# Shear Modulus (GPa) = 32.55488 37.19937 34.87713
#
# Velocity S-wave (km/s) = 3.70378 3.95918 3.83361
# Velocity P-wave (km/s) = 5.92398 6.56252 6.25141
#
# Compressibility (1/GPa) = 0.02507783
#
# Stress axis : x y z
#
# Youngs Moduli (GPa) = 151.09524 58.79715 71.53210
#
# Poissons Ratio (x) = 0.13283 0.20940
# Poissons Ratio (y) = 0.34134 0.07707
# Poissons Ratio (z) = 0.44232 0.06335
#
# Static dielectric constant tensor:
#      x y z
#    x 1.908530 0.000010 0.132910 
#    y 0.000010 1.977850 0.000000 
#    z 0.132910 0.000000 2.038520 
# 
# From -- ./inp_files/317350.got.cif
#   From: 2010.05.17/outbox.cif.g08.bks.cpg/sg15_159_cif.got.tgz:317350.got - 2010.06.03 18:47:42.
