data_PCOD9293896
_publ_section_title
;
Structure prediction by ZEFSAII (Michael W. Deem and Ramdas Pophale) SiO2 
 PCOD9293896
Probable space group: C 2/C
;
_chemical_formula_sum "Si O2"
_cell_formula_units_Z 52
_cell_length_a 29.656444
_cell_length_b 23.324244
_cell_length_c 8.538928
_cell_angle_alpha 90.000000
_cell_angle_beta 151.860048
_cell_angle_gamma 90.000000
_cell_volume 2785.662779
_symmetry_space_group_name_H-M "C 2/C"
_symmetry_group_IT_number 15
_symmetry_cell_setting 'monoclinic'
loop_
_space_group_symop_operation_xyz
x,y,z
-x,y,1/2-z
-x,-y,-z
x,-y,1/2+z
1/2+x,1/2+y,z
1/2-x,1/2+y,1/2-z
1/2-x,1/2-y,-z
1/2+x,1/2-y,1/2+z
loop_
_atom_site_type_symbol
_atom_site_label
_atom_site_fract_x
_atom_site_fract_y
_atom_site_fract_z
Si Si1 0.641814 0.802798 0.775685
Si Si2 0.717133 0.914750 0.354682
Si Si3 0.500000 0.122804 0.250000
Si Si4 0.709010 0.709685 0.511120
Si Si5 0.106710 0.570878 0.121543
Si Si6 0.803424 0.480752 0.906782
Si Si7 0.945083 0.716747 0.825646
O O1 0.644943 0.871300 0.814973
O O2 0.621716 0.797342 0.529089
O O3 0.550213 0.773928 0.577559
O O4 0.732657 0.780706 0.148138
O O5 0.768416 0.854767 0.476621
O O6 0.743002 0.940917 0.604361
O O7 0.599022 0.908387 0.998786
O O8 0.748148 0.963807 0.325706
O O9 0.539749 0.163050 0.511620
O O10 0.750000 0.750000 0.500000
O O11 0.602407 0.731229 0.224320
O O12 0.111389 0.514213 0.241650
O O13 0.163122 0.556182 0.136825
O O14 0.000000 0.584775 0.750000
#
# Coordination Sequence:
#
# PCOD9293896 Si02
#       7
#     8   8   4   8   8   8   8
#     4  11  22  38  55  79 116 151 194 244 288 336
#     4  11  23  36  53  81 117 157 195 234 279 347
#     4  12  20  36  58  82 124 158 192 238 270 350
#     4  12  23  38  57  82 114 159 199 241 293 344
#     4  11  19  31  50  74 110 154 191 226 270 331
#     4  10  23  32  50  78 112 160 197 223 273 342
#     4  11  21  36  57  80 113 160 191 237 293 334
#
# _framework density 18.667012
#
# number of rings (size 3 to 8) (size 9 to 14) (size 15 to 20)
#    0.000    0.923    6.154    1.846    6.462    0.000 
#    0.000    0.000    0.000    0.000    0.000    0.000 
#    0.000   23.385    0.000    0.154    0.000    0.000 
#
# Total GULP energy -144884.880198 kJ/mol
# GULP energy per Si atom -5572.495392 kJ/mol
# Density = 1.862453 g / cm^3
# Si number density = 18.667012 Si / 1000 Ang^3
#
#
#
# Elastic Constant Matrix: (Units=GPa)
#
#
# Indices 1 2 3 4 5 6 
#
# 1 84.3598 54.0632 17.7713 0.0000 -8.2054 0.0000
# 2 54.0632 112.0661 25.1350 0.0000 11.4297 0.0000
# 3 17.7713 25.1350 34.0002 0.0000 -6.1591 0.0000
# 4 0.0000 0.0000 0.0000 32.5548 0.0000 -2.8724
# 5 -8.2054 11.4297 -6.1591 0.0000 25.7285 0.0000
# 6 0.0000 0.0000 0.0000 -2.8724 0.0000 44.4324
#
#
#
# Elastic Compliance Matrix: (Units=1/GPa)
#
#
# Indices 1 2 3 4 5 6 
#
# 1 0.019766 -0.010504 -0.000605 0.000000 0.010825 0.000000
# 2 -0.010504 0.017615 -0.009989 0.000000 -0.013566 0.000000
# 3 -0.000605 -0.009989 0.039599 0.000000 0.013724 0.000000
# 4 0.000000 0.000000 0.000000 0.030894 0.000000 0.001997
# 5 0.010825 -0.013566 0.013724 0.000000 0.051632 0.000000
# 6 0.000000 0.000000 0.000000 0.001997 0.000000 0.022635
#
#
# Mechanical properties :
#
#
# Convention : Reuss Voigt Hill
#
# Bulk Modulus (GPa) = 28.74994 47.15166 37.95080
# Shear Modulus (GPa) = 21.19266 29.44026 25.31646
#
# Velocity S-wave (km/s) = 3.37308 3.97561 3.68668
# Velocity P-wave (km/s) = 5.53219 6.81089 6.20457
#
# Compressibility (1/GPa) = 0.03478268
#
# Stress axis : x y z
#
# Youngs Moduli (GPa) = 50.59207 56.77087 25.25341
#
# Poissons Ratio (x) = 0.59631 0.01528
# Poissons Ratio (y) = 0.53141 0.25226
# Poissons Ratio (z) = 0.03062 0.56709
#
# Static dielectric constant tensor:
#      x y z
#    x 1.712280 0.000000 -0.048850 
#    y 0.000000 1.663400 0.000000 
#    z -0.048850 0.000000 1.649190 
# 
# From -- ./inp_files/70811.got.cif
#   From: 2010.05.17/outbox.cif.g08.bks.cpg/sg15_36_cif.got.tgz:70811.got - 2010.06.03 18:47:42.
