data_PCOD9293720
_publ_section_title
;
Structure prediction by ZEFSAII (Michael W. Deem and Ramdas Pophale) SiO2 
 PCOD9293720
Probable space group: C 2/C
;
_chemical_formula_sum "Si O2"
_cell_formula_units_Z 36
_cell_length_a 5.340619
_cell_length_b 14.265348
_cell_length_c 18.523037
_cell_angle_alpha 90.000000
_cell_angle_beta 73.123894
_cell_angle_gamma 90.000000
_cell_volume 1350.418811
_symmetry_space_group_name_H-M "C 2/C"
_symmetry_group_IT_number 15
_symmetry_cell_setting 'monoclinic'
loop_
_space_group_symop_operation_xyz
x,y,z
-x,y,1/2-z
-x,-y,-z
x,-y,1/2+z
1/2+x,1/2+y,z
1/2-x,1/2+y,1/2-z
1/2-x,1/2-y,-z
1/2+x,1/2-y,1/2+z
loop_
_atom_site_type_symbol
_atom_site_label
_atom_site_fract_x
_atom_site_fract_y
_atom_site_fract_z
Si Si1 0.390519 0.001788 0.634048
Si Si2 0.955869 0.231344 0.566413
Si Si3 0.143301 0.706616 0.836956
Si Si4 0.263198 0.412233 0.983318
Si Si5 0.500000 0.144285 0.250000
O O1 0.319205 0.096490 0.682848
O O2 0.620104 0.028431 0.557584
O O3 0.168879 0.968274 0.595134
O O4 0.467562 0.921649 0.683200
O O5 0.663102 0.218917 0.622774
O O6 0.933219 0.331330 0.529315
O O7 0.981208 0.148423 0.505461
O O8 0.171734 0.222646 0.608915
O O9 0.254843 0.785189 0.775049
#
# Coordination Sequence:
#
# PCOD9293720 Si02
#       5
#     8   8   8   8   4
#     4  10  23  47  75 111 146 200 249 310 376 450
#     4  10  22  46  76 107 148 187 240 321 378 433
#     4  11  26  48  73 106 149 197 247 306 377 451
#     4   9  20  44  75 114 142 187 254 314 374 440
#     4  12  26  52  74 108 162 208 252 312 378 460
#
# _framework density 26.658396
#
# number of rings (size 3 to 8) (size 9 to 14) (size 15 to 20)
#    0.000    1.778    2.222    0.000    0.000   13.333 
#   12.000    0.000    0.000    0.000    0.000    0.000 
#    0.000    0.000    0.000    0.000    0.000    0.000 
#
# Total GULP energy -100842.953008 kJ/mol
# GULP energy per Si atom -5602.386278 kJ/mol
# Density = 2.659772 g / cm^3
# Si number density = 26.658396 Si / 1000 Ang^3
#
#
#
# Elastic Constant Matrix: (Units=GPa)
#
#
# Indices 1 2 3 4 5 6 
#
# 1 143.6525 30.9544 43.3476 0.0000 5.8726 0.0000
# 2 30.9544 210.0465 82.7971 0.0000 -9.3303 0.0000
# 3 43.3476 82.7971 132.6153 0.0000 25.4266 0.0000
# 4 0.0000 0.0000 0.0000 56.6248 0.0000 -0.9164
# 5 5.8726 -9.3303 25.4266 0.0000 44.7725 0.0000
# 6 0.0000 0.0000 0.0000 -0.9164 0.0000 30.6494
#
#
#
# Elastic Compliance Matrix: (Units=1/GPa)
#
#
# Indices 1 2 3 4 5 6 
#
# 1 0.007734 -0.000128 -0.002524 0.000000 0.000392 0.000000
# 2 -0.000128 0.007023 -0.005192 0.000000 0.004429 0.000000
# 3 -0.002524 -0.005192 0.013187 0.000000 -0.008240 0.000000
# 4 0.000000 0.000000 0.000000 0.017669 0.000000 0.000528
# 5 0.000392 0.004429 -0.008240 0.000000 0.027886 0.000000
# 6 0.000000 0.000000 0.000000 0.000528 0.000000 0.032643
#
#
# Mechanical properties :
#
#
# Convention : Reuss Voigt Hill
#
# Bulk Modulus (GPa) = 81.58262 88.94583 85.26423
# Shear Modulus (GPa) = 39.70931 48.35701 44.03316
#
# Velocity S-wave (km/s) = 3.86367 4.26367 4.06859
# Velocity P-wave (km/s) = 7.11149 7.59447 7.35695
#
# Compressibility (1/GPa) = 0.01225751
#
# Stress axis : x y z
#
# Youngs Moduli (GPa) = 129.29572 142.38686 75.83150
#
# Poissons Ratio (x) = 0.01817 0.19137
# Poissons Ratio (y) = 0.01650 0.39374
# Poissons Ratio (z) = 0.32629 0.73931
#
# Static dielectric constant tensor:
#      x y z
#    x 2.087890 0.000000 -0.025950 
#    y 0.000000 2.136380 0.000000 
#    z -0.025950 0.000000 2.150530 
# 
# From -- ./inp_files/226502.got.cif
#   From: 2010.05.17/outbox.cif.g08.bks.cpg/sg15_114_cif.got.tgz:226502.got - 2010.06.03 18:47:42.
