data_PCOD9293814
_publ_section_title
;
Structure prediction by ZEFSAII (Michael W. Deem and Ramdas Pophale) SiO2 
 PCOD9293814
Probable space group: C 2/C
;
_chemical_formula_sum "Si O2"
_cell_formula_units_Z 52
_cell_length_a 11.680890
_cell_length_b 9.696213
_cell_length_c 19.295168
_cell_angle_alpha 90.000000
_cell_angle_beta 106.421940
_cell_angle_gamma 90.000000
_cell_volume 2096.227608
_symmetry_space_group_name_H-M "C 2/C"
_symmetry_group_IT_number 15
_symmetry_cell_setting 'monoclinic'
loop_
_space_group_symop_operation_xyz
x,y,z
-x,y,1/2-z
-x,-y,-z
x,-y,1/2+z
1/2+x,1/2+y,z
1/2-x,1/2+y,1/2-z
1/2-x,1/2-y,-z
1/2+x,1/2-y,1/2+z
loop_
_atom_site_type_symbol
_atom_site_label
_atom_site_fract_x
_atom_site_fract_y
_atom_site_fract_z
Si Si1 0.147890 0.446322 0.153485
Si Si2 0.409937 0.548352 0.170904
Si Si3 0.500000 0.091843 0.250000
Si Si4 0.276428 0.800778 0.084019
Si Si5 0.039489 0.312389 0.549653
Si Si6 0.669760 0.114176 0.396287
Si Si7 0.933142 0.832217 0.904277
O O1 0.290261 0.461444 0.165801
O O2 0.113119 0.286804 0.155146
O O3 0.086648 0.515518 0.209788
O O4 0.092369 0.535373 0.078587
O O5 0.500000 0.541207 0.250000
O O6 0.355144 0.698157 0.143414
O O7 0.495162 0.540901 0.117186
O O8 0.598484 0.162441 0.315570
O O9 0.144464 0.787134 0.095591
O O10 0.337381 0.948742 0.097366
O O11 0.250000 0.750000 0.000000
O O12 0.907967 0.312634 0.559136
O O13 0.015989 0.254366 0.469634
O O14 0.810552 0.131034 0.420798
#
# Coordination Sequence:
#
# PCOD9293814 Si02
#       7
#     8   8   4   8   8   8   8
#     4  10  24  41  71  95 133 179 236 273 350 417
#     4  11  24  43  68  98 133 178 233 286 340 416
#     4  10  22  48  62  94 126 188 224 282 332 422
#     4  11  24  42  69  97 126 182 228 279 341 419
#     4  10  23  42  66  96 132 181 222 283 337 421
#     4  11  26  42  67  97 143 177 230 285 355 404
#     4  12  24  40  68 102 138 177 224 289 352 409
#
# _framework density 24.806467000000001
#
# number of rings (size 3 to 8) (size 9 to 14) (size 15 to 20)
#    0.000    1.231    1.538    3.692    8.615    1.846 
#    1.385    0.000    0.000    0.000    0.000    0.000 
#    0.000    0.000    0.000    0.000    0.000    0.000 
#
# Total GULP energy -144957.515444 kJ/mol
# GULP energy per Si atom -5575.289056 kJ/mol
# Density = 2.475001 g / cm^3
# Si number density = 24.806467 Si / 1000 Ang^3
#
#
#
# Elastic Constant Matrix: (Units=GPa)
#
#
# Indices 1 2 3 4 5 6 
#
# 1 228.9214 29.7230 10.0454 0.0000 22.7397 0.0000
# 2 29.7230 42.0350 2.2412 0.0000 -1.7742 0.0000
# 3 10.0454 2.2412 35.2687 0.0000 21.8144 0.0000
# 4 0.0000 0.0000 0.0000 -5.9886 0.0000 4.5419
# 5 22.7397 -1.7742 21.8144 0.0000 34.0740 0.0000
# 6 0.0000 0.0000 0.0000 4.5419 0.0000 38.0375
#
#
#
# Elastic Compliance Matrix: (Units=1/GPa)
#
#
# Indices 1 2 3 4 5 6 
#
# 1 0.005301 -0.004048 0.001765 0.000000 -0.004878 0.000000
# 2 -0.004048 0.027242 -0.005176 0.000000 0.007434 0.000000
# 3 0.001765 -0.005176 0.048136 0.000000 -0.032264 0.000000
# 4 0.000000 0.000000 0.000000 -0.153117 0.000000 0.018283
# 5 -0.004878 0.007434 -0.032264 0.000000 0.053647 0.000000
# 6 0.000000 0.000000 0.000000 0.018283 0.000000 0.024107
#
#
# Mechanical properties :
#
#
# Convention : Reuss Voigt Hill
#
# Bulk Modulus (GPa) = 15.20686 43.36048 29.28367
# Shear Modulus (GPa) = 118.60753 30.83892 74.72323
#
# Velocity S-wave (km/s) = 6.92221 3.52970 5.49435
# Velocity P-wave (km/s) = 8.36856 5.84202 7.21672
#
# Compressibility (1/GPa) = 0.06575978
#
# Stress axis : x y z
#
# Youngs Moduli (GPa) = 188.64004 36.70785 20.77432
#
# Poissons Ratio (x) = 0.14861 -0.03666
# Poissons Ratio (y) = 0.76369 0.10753
# Poissons Ratio (z) = -0.33290 0.19001
#
# Static dielectric constant tensor:
#      x y z
#    x 2.163610 0.000000 -0.123670 
#    y 0.000000 1.967010 0.000000 
#    z -0.123670 0.000000 2.080670 
# 
# From -- ./inp_files/237198.got.cif
#   From: 2010.05.17/outbox.cif.g08.bks.cpg/sg15_119_cif.got.tgz:237198.got - 2010.06.03 18:47:42.
