data_PCOD9293048
_publ_section_title
;
Structure prediction by ZEFSAII (Michael W. Deem and Ramdas Pophale) SiO2 
 PCOD9293048
Probable space group: C 2/C
;
_chemical_formula_sum "Si O2"
_cell_formula_units_Z 40
_cell_length_a 10.437125
_cell_length_b 26.031052
_cell_length_c 8.364780
_cell_angle_alpha 90.000000
_cell_angle_beta 44.989246
_cell_angle_gamma 90.000000
_cell_volume 1606.684488
_symmetry_space_group_name_H-M "C 2/C"
_symmetry_group_IT_number 15
_symmetry_cell_setting 'monoclinic'
loop_
_space_group_symop_operation_xyz
x,y,z
-x,y,1/2-z
-x,-y,-z
x,-y,1/2+z
1/2+x,1/2+y,z
1/2-x,1/2+y,1/2-z
1/2-x,1/2-y,-z
1/2+x,1/2-y,1/2+z
loop_
_atom_site_type_symbol
_atom_site_label
_atom_site_fract_x
_atom_site_fract_y
_atom_site_fract_z
Si Si1 0.355234 0.748302 0.276767
Si Si2 0.200789 0.136342 0.322012
Si Si3 0.811915 0.305805 0.005267
Si Si4 0.521546 0.058484 0.039786
Si Si5 0.064976 0.054874 0.875677
O O1 0.332184 0.690952 0.230001
O O2 0.333374 0.795965 0.173704
O O3 0.110145 0.749862 0.559280
O O4 0.197935 0.151140 0.515061
O O5 0.378591 0.102940 0.117199
O O6 0.038358 0.098132 0.435234
O O7 0.750000 0.250000 0.000000
O O8 0.000000 0.314499 0.750000
O O9 0.500000 0.056999 0.250000
O O10 0.724686 0.068628 0.805536
O O11 0.500000 0.000000 0.000000
O O12 0.000000 0.053453 0.750000
O O13 0.000000 0.000000 0.000000
#
# Coordination Sequence:
#
# PCOD9293048 Si02
#       5
#     8   8   8   8   8
#     4  11  25  49  72 109 154 194 254 329 387 437
#     4  11  25  46  75 112 148 208 260 297 387 464
#     4  10  22  44  72 102 144 194 255 306 371 451
#     4  12  24  49  73 110 153 196 250 313 375 450
#     4  12  25  46  77 109 154 196 250 309 376 452
#
# _framework density 24.895990000000001
#
# number of rings (size 3 to 8) (size 9 to 14) (size 15 to 20)
#    0.000    0.800    4.000    3.000    0.000    5.600 
#    7.200    0.000    0.000    0.000    0.000    0.000 
#    0.000    0.000    0.000    0.000    0.000    0.000 
#
# Total GULP energy -111671.705314 kJ/mol
# GULP energy per Si atom -5583.585266 kJ/mol
# Density = 2.483933 g / cm^3
# Si number density = 24.895990 Si / 1000 Ang^3
#
#
#
# Elastic Constant Matrix: (Units=GPa)
#
#
# Indices 1 2 3 4 5 6 
#
# 1 86.0764 58.5886 54.7392 0.0000 -15.5734 0.0000
# 2 58.5886 214.5333 77.5532 0.0000 -15.6128 0.0000
# 3 54.7392 77.5532 195.1602 0.0000 -35.2464 0.0000
# 4 0.0000 0.0000 0.0000 49.6072 0.0000 -3.5675
# 5 -15.5734 -15.6128 -35.2464 0.0000 50.2809 0.0000
# 6 0.0000 0.0000 0.0000 -3.5675 0.0000 50.0004
#
#
#
# Elastic Compliance Matrix: (Units=1/GPa)
#
#
# Indices 1 2 3 4 5 6 
#
# 1 0.015954 -0.003182 -0.002858 0.000000 0.001950 0.000000
# 2 -0.003182 0.006080 -0.001558 0.000000 -0.000190 0.000000
# 3 -0.002858 -0.001558 0.007210 0.000000 0.003685 0.000000
# 4 0.000000 0.000000 0.000000 0.020262 0.000000 0.001446
# 5 0.001950 -0.000190 0.003685 0.000000 0.023017 0.000000
# 6 0.000000 0.000000 0.000000 0.001446 0.000000 0.020103
#
#
# Mechanical properties :
#
#
# Convention : Reuss Voigt Hill
#
# Bulk Modulus (GPa) = 71.18432 97.50358 84.34395
# Shear Modulus (GPa) = 44.44300 50.30364 47.37332
#
# Velocity S-wave (km/s) = 4.22968 4.49993 4.36690
# Velocity P-wave (km/s) = 7.24627 8.13932 7.70574
#
# Compressibility (1/GPa) = 0.01404804
#
# Stress axis : x y z
#
# Youngs Moduli (GPa) = 62.68132 164.48653 138.69089
#
# Poissons Ratio (x) = 0.52336 0.39641
# Poissons Ratio (y) = 0.19944 0.21604
# Poissons Ratio (z) = 0.17916 0.25622
#
# Static dielectric constant tensor:
#      x y z
#    x 1.065350 0.000000 1.763400 
#    y 0.000000 1.888770 0.000000 
#    z 1.763400 0.000000 -1.217400 
# 
# From -- ./inp_files/101464.got.cif
#   From: 2010.05.17/outbox.cif.g08.bks.cpg/sg15_51_cif.got.tgz:101464.got - 2010.06.03 18:47:42.
