data_PCOD9293499
_publ_section_title
;
Structure prediction by ZEFSAII (Michael W. Deem and Ramdas Pophale) SiO2 
 PCOD9293499
Probable space group: C 2/C
;
_chemical_formula_sum "Si O2"
_cell_formula_units_Z 40
_cell_length_a 7.859336
_cell_length_b 21.292559
_cell_length_c 11.947106
_cell_angle_alpha 90.000000
_cell_angle_beta 105.560347
_cell_angle_gamma 90.000000
_cell_volume 1926.015752
_symmetry_space_group_name_H-M "C 2/C"
_symmetry_group_IT_number 15
_symmetry_cell_setting 'monoclinic'
loop_
_space_group_symop_operation_xyz
x,y,z
-x,y,1/2-z
-x,-y,-z
x,-y,1/2+z
1/2+x,1/2+y,z
1/2-x,1/2+y,1/2-z
1/2-x,1/2-y,-z
1/2+x,1/2-y,1/2+z
loop_
_atom_site_type_symbol
_atom_site_label
_atom_site_fract_x
_atom_site_fract_y
_atom_site_fract_z
Si Si1 0.934149 0.366612 0.109696
Si Si2 0.537135 0.394805 0.977163
Si Si3 0.500000 0.524079 0.250000
Si Si4 0.000000 0.803689 0.250000
Si Si5 0.720687 0.419411 0.369281
Si Si6 0.958226 0.755652 0.008873
O O1 0.000000 0.361778 0.250000
O O2 0.072738 0.414135 0.076194
O O3 0.735425 0.391046 0.060897
O O4 0.961743 0.300871 0.048631
O O5 0.522149 0.433097 0.861590
O O6 0.399797 0.424111 0.041741
O O7 0.484243 0.321985 0.952433
O O8 0.665092 0.475988 0.279228
O O9 0.156560 0.852183 0.307761
O O10 0.956103 0.763806 0.352180
O O11 0.750000 0.750000 0.000000
#
# Coordination Sequence:
#
# PCOD9293499 Si02
#       6
#     8   8   4   4   8   8
#     4  12  24  41  70 100 131 179 231 269 337 415
#     4  11  25  42  67 102 132 178 226 278 339 394
#     4  11  24  44  72  96 140 174 231 286 324 403
#     4   9  18  38  64  84 126 176 213 256 342 389
#     4  10  22  46  65  90 135 184 217 272 342 395
#     4  11  22  40  67  94 134 174 213 280 338 398
#
# _framework density 20.768262
#
# number of rings (size 3 to 8) (size 9 to 14) (size 15 to 20)
#    0.000    1.200    4.000    4.800    1.400    2.400 
#    0.000    2.000    0.000    0.000    0.000    0.000 
#    0.000    0.000    0.000    0.000    0.000    0.000 
#
# Total GULP energy -111725.488235 kJ/mol
# GULP energy per Si atom -5586.274412 kJ/mol
# Density = 2.072099 g / cm^3
# Si number density = 20.768262 Si / 1000 Ang^3
#
#
#
# Elastic Constant Matrix: (Units=GPa)
#
#
# Indices 1 2 3 4 5 6 
#
# 1 130.1959 38.1388 42.9907 0.0000 -4.2321 0.0000
# 2 38.1388 106.5463 70.0257 0.0000 -4.0177 0.0000
# 3 42.9907 70.0257 147.7688 0.0000 -17.9395 0.0000
# 4 0.0000 0.0000 0.0000 29.4905 0.0000 -1.0254
# 5 -4.2321 -4.0177 -17.9395 0.0000 21.2214 0.0000
# 6 0.0000 0.0000 0.0000 -1.0254 0.0000 11.2473
#
#
#
# Elastic Compliance Matrix: (Units=1/GPa)
#
#
# Indices 1 2 3 4 5 6 
#
# 1 0.008819 -0.002139 -0.001547 0.000000 0.000046 0.000000
# 2 -0.002139 0.014349 -0.006574 0.000000 -0.003267 0.000000
# 3 -0.001547 -0.006574 0.011304 0.000000 0.008003 0.000000
# 4 0.000000 0.000000 0.000000 0.034017 0.000000 0.003101
# 5 0.000046 -0.003267 0.008003 0.000000 0.053278 0.000000
# 6 0.000000 0.000000 0.000000 0.003101 0.000000 0.089193
#
#
# Mechanical properties :
#
#
# Convention : Reuss Voigt Hill
#
# Bulk Modulus (GPa) = 71.66717 76.31348 73.99033
# Shear Modulus (GPa) = 21.17473 27.94890 24.56182
#
# Velocity S-wave (km/s) = 3.19654 3.67243 3.44271
# Velocity P-wave (km/s) = 6.94311 7.40320 7.17684
#
# Compressibility (1/GPa) = 0.01395339
#
# Stress axis : x y z
#
# Youngs Moduli (GPa) = 113.38563 69.69306 88.46194
#
# Poissons Ratio (x) = 0.14905 0.13683
# Poissons Ratio (y) = 0.24249 0.58156
# Poissons Ratio (z) = 0.17538 0.45817
#
# Static dielectric constant tensor:
#      x y z
#    x 1.812610 0.000000 0.004370 
#    y 0.000000 1.734060 0.000000 
#    z 0.004370 0.000000 1.774120 
# 
# From -- ./inp_files/77976.got.cif
#   From: 2010.05.17/outbox.cif.g08.bks.cpg/sg15_39_cif.got.tgz:77976.got - 2010.06.03 18:47:42.
