data_PCOD9293590
_publ_section_title
;
Structure prediction by ZEFSAII (Michael W. Deem and Ramdas Pophale) SiO2 
 PCOD9293590
Probable space group: C 2/C
;
_chemical_formula_sum "Si O2"
_cell_formula_units_Z 36
_cell_length_a 4.930679
_cell_length_b 22.444590
_cell_length_c 14.112953
_cell_angle_alpha 90.000000
_cell_angle_beta 104.382121
_cell_angle_gamma 90.000000
_cell_volume 1512.892219
_symmetry_space_group_name_H-M "C 2/C"
_symmetry_group_IT_number 15
_symmetry_cell_setting 'monoclinic'
loop_
_space_group_symop_operation_xyz
x,y,z
-x,y,1/2-z
-x,-y,-z
x,-y,1/2+z
1/2+x,1/2+y,z
1/2-x,1/2+y,1/2-z
1/2-x,1/2-y,-z
1/2+x,1/2-y,1/2+z
loop_
_atom_site_type_symbol
_atom_site_label
_atom_site_fract_x
_atom_site_fract_y
_atom_site_fract_z
Si Si1 0.191717 0.852628 0.957431
Si Si2 0.500000 0.431871 0.250000
Si Si3 0.117884 0.706509 0.366309
Si Si4 0.407979 0.826793 0.347013
Si Si5 0.223192 0.555962 0.186735
O O1 0.353584 0.802162 0.911259
O O2 0.300967 0.913819 0.917476
O O3 0.862781 0.839610 0.918791
O O4 0.318488 0.848321 0.072673
O O5 0.694321 0.381034 0.317267
O O6 0.291263 0.486059 0.192413
O O7 0.254295 0.771491 0.382383
O O8 0.000000 0.697362 0.250000
O O9 0.500000 0.807678 0.250000
O O10 0.500000 0.588160 0.250000
O O11 0.000000 0.564711 0.250000
#
# Coordination Sequence:
#
# PCOD9293590 Si02
#       5
#     8   4   8   8   8
#     4  12  26  44  77 109 138 184 239 289 355 418
#     4  10  26  46  70  98 146 194 236 284 356 404
#     4  12  25  46  75 107 143 180 230 293 362 424
#     4  12  27  47  69 105 151 189 230 289 352 427
#     4  10  22  46  70 100 138 179 242 295 339 408
#
# _framework density 23.795483000000001
#
# number of rings (size 3 to 8) (size 9 to 14) (size 15 to 20)
#    0.667    0.000    1.111    7.333    3.111    0.889 
#    0.000    2.222    0.000    0.000    0.000    0.000 
#    0.000    0.000    0.000    0.000    0.000    0.000 
#
# Total GULP energy -100212.291845 kJ/mol
# GULP energy per Si atom -5567.349547 kJ/mol
# Density = 2.374132 g / cm^3
# Si number density = 23.795483 Si / 1000 Ang^3
#
#
#
# Elastic Constant Matrix: (Units=GPa)
#
#
# Indices 1 2 3 4 5 6 
#
# 1 108.4630 5.6968 26.8424 0.0000 14.1598 0.0000
# 2 5.6968 134.0798 -20.2623 0.0000 11.1568 0.0000
# 3 26.8424 -20.2623 116.2015 0.0000 27.6557 0.0000
# 4 0.0000 0.0000 0.0000 -65.2830 0.0000 -47.2326
# 5 14.1598 11.1568 27.6557 0.0000 42.4894 0.0000
# 6 0.0000 0.0000 0.0000 -47.2326 0.0000 -84.2964
#
#
#
# Elastic Compliance Matrix: (Units=1/GPa)
#
#
# Indices 1 2 3 4 5 6 
#
# 1 0.009981 -0.000559 -0.001948 0.000000 -0.001911 0.000000
# 2 -0.000559 0.008133 0.002380 0.000000 -0.003498 0.000000
# 3 -0.001948 0.002380 0.011200 0.000000 -0.007266 0.000000
# 4 0.000000 0.000000 0.000000 -0.025761 0.000000 0.014434
# 5 -0.001911 -0.003498 -0.007266 0.000000 0.029820 0.000000
# 6 0.000000 0.000000 0.000000 0.014434 0.000000 -0.019951
#
#
# Mechanical properties :
#
#
# Convention : Reuss Voigt Hill
#
# Bulk Modulus (GPa) = 34.41414 42.58868 38.50141
# Shear Modulus (GPa) = 214.01698 1.67983 107.84841
#
# Velocity S-wave (km/s) = 9.49397 0.84112 6.73954
# Velocity P-wave (km/s) = 11.60493 4.34511 8.76226
#
# Compressibility (1/GPa) = 0.02905782
#
# Stress axis : x y z
#
# Youngs Moduli (GPa) = 100.19263 122.95977 89.28611
#
# Poissons Ratio (x) = 0.06879 0.17395
# Poissons Ratio (y) = 0.05605 -0.21249
# Poissons Ratio (z) = 0.19520 -0.29263
#
# Static dielectric constant tensor:
#      x y z
#    x 1.930900 0.000000 -0.024760 
#    y 0.000000 1.899070 0.000000 
#    z -0.024760 0.000000 1.994110 
# 
# From -- ./inp_files/129244.got.cif
#   From: 2010.05.17/outbox.cif.g08.bks.cpg/sg15_65_cif.got.tgz:129244.got - 2010.06.03 18:47:42.
