data_PCOD9293952
_publ_section_title
;
Structure prediction by ZEFSAII (Michael W. Deem and Ramdas Pophale) SiO2 
 PCOD9293952
Probable space group: C 2/C
;
_chemical_formula_sum "Si O2"
_cell_formula_units_Z 60
_cell_length_a 15.963964
_cell_length_b 21.635113
_cell_length_c 9.675107
_cell_angle_alpha 90.000000
_cell_angle_beta 59.830265
_cell_angle_gamma 90.000000
_cell_volume 2888.956291
_symmetry_space_group_name_H-M "C 2/C"
_symmetry_group_IT_number 15
_symmetry_cell_setting 'monoclinic'
loop_
_space_group_symop_operation_xyz
x,y,z
-x,y,1/2-z
-x,-y,-z
x,-y,1/2+z
1/2+x,1/2+y,z
1/2-x,1/2+y,1/2-z
1/2-x,1/2-y,-z
1/2+x,1/2-y,1/2+z
loop_
_atom_site_type_symbol
_atom_site_label
_atom_site_fract_x
_atom_site_fract_y
_atom_site_fract_z
Si Si1 0.551896 0.930724 0.460824
Si Si2 0.500000 0.756066 0.750000
Si Si3 0.147645 0.829168 0.286984
Si Si4 0.901568 0.960778 0.261859
Si Si5 0.716653 0.883332 0.113333
Si Si6 0.658268 0.886428 0.853237
Si Si7 0.708247 0.483339 0.882487
Si Si8 0.166051 0.654065 0.053676
O O1 0.618501 0.903633 0.279778
O O2 0.456458 0.889463 0.547457
O O3 0.620620 0.912001 0.535330
O O4 0.500000 0.000000 0.500000
O O5 0.435227 0.717911 0.692969
O O6 0.420984 0.797817 0.894008
O O7 0.094265 0.895329 0.317276
O O8 0.211480 0.833466 0.375124
O O9 0.237373 0.827588 0.105458
O O10 0.828423 0.949513 0.450739
O O11 0.000000 0.980236 0.250000
O O12 0.868479 0.010280 0.176977
O O13 0.771398 0.948536 0.079266
O O14 0.695459 0.868797 0.972553
O O15 0.700725 0.953042 0.769967
O O16 0.688021 0.845745 0.698270
#
# Coordination Sequence:
#
# PCOD9293952 Si02
#       8
#     8   4   8   8   8   8   8   8
#     4  11  22  36  60  94 133 168 200 245 307 388
#     4  12  22  46  70  88 114 162 218 276 300 354
#     4  10  23  41  65  88 120 161 217 260 311 358
#     4  11  21  38  57  89 120 167 206 249 308 373
#     4  10  23  37  56  91 130 170 201 247 317 377
#     4  12  21  36  59  90 129 159 201 249 306 381
#     4  11  21  34  57  86 128 164 198 248 307 374
#     4  11  24  41  66  95 120 159 218 254 312 374
#
# _framework density 20.768746
#
# number of rings (size 3 to 8) (size 9 to 14) (size 15 to 20)
#    0.000    1.067    6.000    1.200    1.867    1.067 
#    0.000    0.667    0.000    1.600    0.000    0.000 
#    0.000    0.000    0.000    0.000    0.000    0.000 
#
# Total GULP energy -167067.624735 kJ/mol
# GULP energy per Si atom -5568.920825 kJ/mol
# Density = 2.072148 g / cm^3
# Si number density = 20.768746 Si / 1000 Ang^3
#
#
#
# Elastic Constant Matrix: (Units=GPa)
#
#
# Indices 1 2 3 4 5 6 
#
# 1 118.4472 18.6913 37.0170 0.0000 23.0568 0.0000
# 2 18.6913 44.2395 4.6873 0.0000 4.6549 0.0000
# 3 37.0170 4.6873 81.4946 0.0000 39.0621 0.0000
# 4 0.0000 0.0000 0.0000 4.7931 0.0000 3.4782
# 5 23.0568 4.6549 39.0621 0.0000 35.0006 0.0000
# 6 0.0000 0.0000 0.0000 3.4782 0.0000 31.2136
#
#
#
# Elastic Compliance Matrix: (Units=1/GPa)
#
#
# Indices 1 2 3 4 5 6 
#
# 1 0.010617 -0.003840 -0.003213 0.000000 -0.002898 0.000000
# 2 -0.003840 0.024318 0.001469 0.000000 -0.002344 0.000000
# 3 -0.003213 0.001469 0.027362 0.000000 -0.028616 0.000000
# 4 0.000000 0.000000 0.000000 0.226988 0.000000 -0.025294
# 5 -0.002898 -0.002344 -0.028616 0.000000 0.062728 0.000000
# 6 0.000000 0.000000 0.000000 -0.025294 0.000000 0.034856
#
#
# Mechanical properties :
#
#
# Convention : Reuss Voigt Hill
#
# Bulk Modulus (GPa) = 19.55841 40.55251 30.05546
# Shear Modulus (GPa) = 12.04594 26.45383 19.24989
#
# Velocity S-wave (km/s) = 2.41094 3.57281 3.04775
# Velocity P-wave (km/s) = 4.14582 6.04881 5.18536
#
# Compressibility (1/GPa) = 0.05112889
#
# Stress axis : x y z
#
# Youngs Moduli (GPa) = 94.19183 41.12229 36.54744
#
# Poissons Ratio (x) = 0.15792 0.11741
# Poissons Ratio (y) = 0.36172 -0.05370
# Poissons Ratio (z) = 0.30260 -0.06042
#
# Static dielectric constant tensor:
#      x y z
#    x 1.775660 0.000000 0.023150 
#    y 0.000000 1.815860 0.000000 
#    z 0.023150 0.000000 1.805670 
# 
# From -- ./inp_files/42618.got.cif
#   From: 2010.05.17/outbox.cif.g08.bks.cpg/sg15_22_cif.got.tgz:42618.got - 2010.06.03 18:47:42.
