data_PCOD9293729
_publ_section_title
;
Structure prediction by ZEFSAII (Michael W. Deem and Ramdas Pophale) SiO2 
 PCOD9293729
Probable space group: C 2/C
;
_chemical_formula_sum "Si O2"
_cell_formula_units_Z 48
_cell_length_a 15.970153
_cell_length_b 6.596378
_cell_length_c 23.210237
_cell_angle_alpha 90.000000
_cell_angle_beta 134.556308
_cell_angle_gamma 90.000000
_cell_volume 1742.273799
_symmetry_space_group_name_H-M "C 2/C"
_symmetry_group_IT_number 15
_symmetry_cell_setting 'monoclinic'
loop_
_space_group_symop_operation_xyz
x,y,z
-x,y,1/2-z
-x,-y,-z
x,-y,1/2+z
1/2+x,1/2+y,z
1/2-x,1/2+y,1/2-z
1/2-x,1/2-y,-z
1/2+x,1/2-y,1/2+z
loop_
_atom_site_type_symbol
_atom_site_label
_atom_site_fract_x
_atom_site_fract_y
_atom_site_fract_z
Si Si1 0.241946 0.625308 0.138066
Si Si2 0.407095 0.386354 0.996544
Si Si3 0.772258 0.908048 0.828784
Si Si4 0.197773 0.039296 0.949874
Si Si5 0.059906 0.431795 0.645884
Si Si6 0.039388 0.865335 0.682541
O O1 0.228594 0.860201 0.149949
O O2 0.229683 0.568647 0.065123
O O3 0.154123 0.514844 0.140921
O O4 0.376218 0.604434 0.222945
O O5 0.307361 0.302306 0.905417
O O6 0.474060 0.216334 0.067786
O O7 0.500000 0.500000 0.000000
O O8 0.341323 0.546168 0.006412
O O9 0.649607 0.850324 0.738978
O O10 0.874140 0.902025 0.830137
O O11 0.065419 0.023994 0.861695
O O12 0.250000 0.250000 0.000000
O O13 0.001942 0.629737 0.649308
#
# Coordination Sequence:
#
# PCOD9293729 Si02
#       6
#     8   8   8   8   8   8
#     4  10  22  46  78 111 150 200 260 333 393 470
#     4  12  24  50  75 114 162 210 263 328 395 480
#     4  10  22  47  80 112 152 203 277 319 391 473
#     4  12  28  48  69 112 155 202 255 326 404 467
#     4  10  23  46  84 114 147 215 272 326 392 475
#     4  10  22  47  79 109 150 205 266 322 389 480
#
# _framework density 27.550204999999998
#
# number of rings (size 3 to 8) (size 9 to 14) (size 15 to 20)
#    0.000    1.333    3.333    0.500    2.333    1.333 
#    9.000    0.833    0.000    0.000    0.000    0.000 
#    0.000    0.000    0.000    0.000    0.000    0.000 
#
# Total GULP energy -133739.255560 kJ/mol
# GULP energy per Si atom -5572.468982 kJ/mol
# Density = 2.748750 g / cm^3
# Si number density = 27.550205 Si / 1000 Ang^3
#
#
#
# Elastic Constant Matrix: (Units=GPa)
#
#
# Indices 1 2 3 4 5 6 
#
# 1 92.2921 34.2417 46.3121 0.0000 -21.7685 0.0000
# 2 34.2417 129.7119 79.0094 0.0000 -5.7373 0.0000
# 3 46.3121 79.0094 225.0671 0.0000 -21.1758 0.0000
# 4 0.0000 0.0000 0.0000 54.9316 0.0000 10.7525
# 5 -21.7685 -5.7373 -21.1758 0.0000 67.5111 0.0000
# 6 0.0000 0.0000 0.0000 10.7525 0.0000 -8.5879
#
#
#
# Elastic Compliance Matrix: (Units=1/GPa)
#
#
# Indices 1 2 3 4 5 6 
#
# 1 0.013369 -0.002418 -0.001562 0.000000 0.003615 0.000000
# 2 -0.002418 0.010248 -0.003185 0.000000 -0.000908 0.000000
# 3 -0.001562 -0.003185 0.005987 0.000000 0.001103 0.000000
# 4 0.000000 0.000000 0.000000 0.014621 0.000000 0.018306
# 5 0.003615 -0.000908 0.001103 0.000000 0.016247 0.000000
# 6 0.000000 0.000000 0.000000 0.018306 0.000000 -0.093522
#
#
# Mechanical properties :
#
#
# Convention : Reuss Voigt Hill
#
# Bulk Modulus (GPa) = 65.47597 85.13305 75.30451
# Shear Modulus (GPa) = -366.85003 41.93814 -162.45595
#
# Velocity S-wave (km/s) = -11.55188 3.90583 -7.68734
# Velocity P-wave (km/s) = 12.41412 7.16302 7.16943
#
# Compressibility (1/GPa) = 0.01527278
#
# Stress axis : x y z
#
# Youngs Moduli (GPa) = 74.80155 97.58253 167.04078
#
# Poissons Ratio (x) = 0.23593 0.26091
# Poissons Ratio (y) = 0.18085 0.53209
# Poissons Ratio (z) = 0.11684 0.31084
#
# Static dielectric constant tensor:
#      x y z
#    x 2.291230 0.000000 0.033660 
#    y 0.000000 2.376720 0.000000 
#    z 0.033660 0.000000 2.285170 
# 
# From -- ./inp_files/276386.got.cif
#   From: 2010.05.17/outbox.cif.g08.bks.cpg/sg15_139_cif.got.tgz:276386.got - 2010.06.03 18:47:42.
