data_PCOD9293545
_publ_section_title
;
Structure prediction by ZEFSAII (Michael W. Deem and Ramdas Pophale) SiO2 
 PCOD9293545
Probable space group: C 2/C
;
_chemical_formula_sum "Si O2"
_cell_formula_units_Z 44
_cell_length_a 21.294751
_cell_length_b 19.531839
_cell_length_c 5.237315
_cell_angle_alpha 90.000000
_cell_angle_beta 65.167682
_cell_angle_gamma 90.000000
_cell_volume 1976.926519
_symmetry_space_group_name_H-M "C 2/C"
_symmetry_group_IT_number 15
_symmetry_cell_setting 'monoclinic'
loop_
_space_group_symop_operation_xyz
x,y,z
-x,y,1/2-z
-x,-y,-z
x,-y,1/2+z
1/2+x,1/2+y,z
1/2-x,1/2+y,1/2-z
1/2-x,1/2-y,-z
1/2+x,1/2-y,1/2+z
loop_
_atom_site_type_symbol
_atom_site_label
_atom_site_fract_x
_atom_site_fract_y
_atom_site_fract_z
Si Si1 0.120467 0.795358 0.204059
Si Si2 0.256943 0.469245 0.852047
Si Si3 0.103227 0.476428 0.486022
Si Si4 0.925328 0.673203 0.500481
Si Si5 0.000000 0.230504 0.250000
Si Si6 0.795385 0.179880 0.435393
O O1 0.119675 0.714390 0.130346
O O2 0.043616 0.807919 0.454492
O O3 0.172149 0.817741 0.338066
O O4 0.145997 0.823786 0.888173
O O5 0.290351 0.484745 0.519219
O O6 0.179210 0.495676 0.927990
O O7 0.256141 0.391074 0.946629
O O8 0.069881 0.477330 0.823945
O O9 0.104781 0.399563 0.382897
O O10 0.000000 0.661878 0.250000
O O11 0.942771 0.721688 0.710068
O O12 0.750000 0.250000 0.500000
#
# Coordination Sequence:
#
# PCOD9293545 Si02
#       6
#     8   8   8   8   4   8
#     4  11  24  41  69  98 138 171 230 290 353 400
#     4  10  23  42  63  90 135 186 225 276 344 407
#     4  10  24  37  60  83 128 182 231 262 328 386
#     4  10  23  40  66  95 136 176 235 279 334 405
#     4  10  22  46  68 102 134 182 226 306 346 418
#     4  12  26  40  68 104 139 182 239 287 347 420
#
# _framework density 22.256772000000002
#
# number of rings (size 3 to 8) (size 9 to 14) (size 15 to 20)
#    0.000    1.455    1.818    1.636   15.273    0.727 
#    0.000    0.000    0.000    0.000    0.000   12.727 
#    0.000    0.000    0.000    0.000    0.000    0.000 
#
# Total GULP energy -122623.926757 kJ/mol
# GULP energy per Si atom -5573.814853 kJ/mol
# Density = 2.220611 g / cm^3
# Si number density = 22.256772 Si / 1000 Ang^3
#
#
#
# Elastic Constant Matrix: (Units=GPa)
#
#
# Indices 1 2 3 4 5 6 
#
# 1 60.2830 34.9370 37.6341 0.0000 21.1094 0.0000
# 2 34.9370 81.2286 9.4305 0.0000 3.4431 0.0000
# 3 37.6341 9.4305 129.0904 0.0000 33.6486 0.0000
# 4 0.0000 0.0000 0.0000 28.6216 0.0000 4.2484
# 5 21.1094 3.4431 33.6486 0.0000 47.9926 0.0000
# 6 0.0000 0.0000 0.0000 4.2484 0.0000 39.0359
#
#
#
# Elastic Compliance Matrix: (Units=1/GPa)
#
#
# Indices 1 2 3 4 5 6 
#
# 1 0.029928 -0.011859 -0.005689 0.000000 -0.008324 0.000000
# 2 -0.011859 0.017119 0.001428 0.000000 0.002987 0.000000
# 3 -0.005689 0.001428 0.010615 0.000000 -0.005043 0.000000
# 4 0.000000 0.000000 0.000000 0.035512 0.000000 -0.003865
# 5 -0.008324 0.002987 -0.005043 0.000000 0.027819 0.000000
# 6 0.000000 0.000000 0.000000 -0.003865 0.000000 0.026038
#
#
# Mechanical properties :
#
#
# Convention : Reuss Voigt Hill
#
# Bulk Modulus (GPa) = 39.33452 48.28946 43.81199
# Shear Modulus (GPa) = 26.63196 35.70338 31.16767
#
# Velocity S-wave (km/s) = 3.46291 4.00954 3.74621
# Velocity P-wave (km/s) = 5.80521 6.57106 6.19997
#
# Compressibility (1/GPa) = 0.02542296
#
# Stress axis : x y z
#
# Youngs Moduli (GPa) = 33.41406 58.41439 94.20568
#
# Poissons Ratio (x) = 0.69272 0.53591
# Poissons Ratio (y) = 0.39625 -0.13454
# Poissons Ratio (z) = 0.19008 -0.08342
#
# Static dielectric constant tensor:
#      x y z
#    x 1.859060 0.000000 -0.087870 
#    y 0.000000 1.838310 0.000000 
#    z -0.087870 0.000000 2.202810 
# 
# From -- ./inp_files/15279.got.cif
#   From: 2010.05.17/outbox.cif.g08.bks.cpg/sg15_8_cif.got.tgz:15279.got - 2010.06.03 18:47:42.
