data_PCOD9293748
_publ_section_title
;
Structure prediction by ZEFSAII (Michael W. Deem and Ramdas Pophale) SiO2 
 PCOD9293748
Probable space group: C 2/C
;
_chemical_formula_sum "Si O2"
_cell_formula_units_Z 44
_cell_length_a 23.169559
_cell_length_b 5.049519
_cell_length_c 15.106139
_cell_angle_alpha 90.000000
_cell_angle_beta 99.693892
_cell_angle_gamma 90.000000
_cell_volume 1742.109509
_symmetry_space_group_name_H-M "C 2/C"
_symmetry_group_IT_number 15
_symmetry_cell_setting 'monoclinic'
loop_
_space_group_symop_operation_xyz
x,y,z
-x,y,1/2-z
-x,-y,-z
x,-y,1/2+z
1/2+x,1/2+y,z
1/2-x,1/2+y,1/2-z
1/2-x,1/2-y,-z
1/2+x,1/2-y,1/2+z
loop_
_atom_site_type_symbol
_atom_site_label
_atom_site_fract_x
_atom_site_fract_y
_atom_site_fract_z
Si Si1 0.309182 0.740174 0.698215
Si Si2 0.393419 0.624830 0.323635
Si Si3 0.089671 0.649112 0.387432
Si Si4 0.700210 0.008901 0.119992
Si Si5 0.000000 0.017982 0.750000
Si Si6 0.115139 0.832602 0.004343
O O1 0.348929 0.494687 0.740092
O O2 0.357768 0.926671 0.666207
O O3 0.256076 0.674093 0.619463
O O4 0.283586 0.842835 0.784423
O O5 0.357809 0.847354 0.366424
O O6 0.454248 0.666368 0.290380
O O7 0.406438 0.404223 0.402545
O O8 0.036277 0.785344 0.322933
O O9 0.078219 0.391931 0.444040
O O10 0.115078 0.894364 0.451276
O O11 0.679204 0.205810 0.038536
#
# Coordination Sequence:
#
# PCOD9293748 Si02
#       6
#     8   8   8   8   4   8
#     4  10  23  38  73  99 142 181 239 271 342 407
#     4  10  22  47  67 106 135 185 231 283 342 409
#     4  11  26  47  67 106 133 187 228 289 341 415
#     4  11  21  43  69 105 137 190 223 288 337 418
#     4  10  26  48  74  98 134 184 240 290 334 416
#     4  11  25  46  69 101 148 174 231 281 359 400
#
# _framework density 25.256736
#
# number of rings (size 3 to 8) (size 9 to 14) (size 15 to 20)
#    0.000    1.455    3.636    0.000    5.091    3.636 
#    6.545    0.000    0.000    0.000    0.000    0.000 
#    0.000    0.000    0.000    0.000    0.000    0.000 
#
# Total GULP energy -123072.792376 kJ/mol
# GULP energy per Si atom -5594.217835 kJ/mol
# Density = 2.519925 g / cm^3
# Si number density = 25.256736 Si / 1000 Ang^3
#
#
#
# Elastic Constant Matrix: (Units=GPa)
#
#
# Indices 1 2 3 4 5 6 
#
# 1 118.3603 9.3202 18.8825 0.0000 1.6976 0.0000
# 2 9.3202 101.5844 23.0534 0.0000 2.1732 0.0000
# 3 18.8825 23.0534 86.7106 0.0000 23.6782 0.0000
# 4 0.0000 0.0000 0.0000 56.8766 0.0000 10.7828
# 5 1.6976 2.1732 23.6782 0.0000 17.0208 0.0000
# 6 0.0000 0.0000 0.0000 10.7828 0.0000 23.4062
#
#
#
# Elastic Compliance Matrix: (Units=1/GPa)
#
#
# Indices 1 2 3 4 5 6 
#
# 1 0.008848 -0.000278 -0.002615 0.000000 0.002791 0.000000
# 2 -0.000278 0.010665 -0.003887 0.000000 0.004074 0.000000
# 3 -0.002615 -0.003887 0.020849 0.000000 -0.028246 0.000000
# 4 0.000000 0.000000 0.000000 0.019264 0.000000 -0.008875
# 5 0.002791 0.004074 -0.028246 0.000000 0.097248 0.000000
# 6 0.000000 0.000000 0.000000 -0.008875 0.000000 0.046812
#
#
# Mechanical properties :
#
#
# Convention : Reuss Voigt Hill
#
# Bulk Modulus (GPa) = 37.31217 45.46306 41.38762
# Shear Modulus (GPa) = 22.10631 36.48733 29.29682
#
# Velocity S-wave (km/s) = 2.96170 3.80499 3.40951
# Velocity P-wave (km/s) = 5.14789 6.11092 5.64996
#
# Compressibility (1/GPa) = 0.02680091
#
# Stress axis : x y z
#
# Youngs Moduli (GPa) = 113.02235 93.76861 47.96430
#
# Poissons Ratio (x) = 0.02607 0.12542
# Poissons Ratio (y) = 0.03143 0.18645
# Poissons Ratio (z) = 0.29554 0.36450
#
# Static dielectric constant tensor:
#      x y z
#    x 1.998180 0.000000 -0.023430 
#    y 0.000000 2.037240 0.000000 
#    z -0.023430 0.000000 2.055160 
# 
# From -- ./inp_files/170868.got.cif
#   From: 2010.05.17/outbox.cif.g08.bks.cpg/sg15_86_cif.got.tgz:170868.got - 2010.06.03 18:47:42.
