data_PCOD9293985
_publ_section_title
;
Structure prediction by ZEFSAII (Michael W. Deem and Ramdas Pophale) SiO2 
 PCOD9293985
Probable space group: C 2/C
;
_chemical_formula_sum "Si O2"
_cell_formula_units_Z 56
_cell_length_a 27.265166
_cell_length_b 9.342972
_cell_length_c 13.673780
_cell_angle_alpha 90.000000
_cell_angle_beta 129.393267
_cell_angle_gamma 90.000000
_cell_volume 2691.866261
_symmetry_space_group_name_H-M "C 2/C"
_symmetry_group_IT_number 15
_symmetry_cell_setting 'monoclinic'
loop_
_space_group_symop_operation_xyz
x,y,z
-x,y,1/2-z
-x,-y,-z
x,-y,1/2+z
1/2+x,1/2+y,z
1/2-x,1/2+y,1/2-z
1/2-x,1/2-y,-z
1/2+x,1/2-y,1/2+z
loop_
_atom_site_type_symbol
_atom_site_label
_atom_site_fract_x
_atom_site_fract_y
_atom_site_fract_z
Si Si1 0.000000 0.758604 0.750000
Si Si2 0.727096 0.629379 0.046287
Si Si3 0.820413 0.098558 0.163365
Si Si4 0.291528 0.923755 0.827645
Si Si5 0.869445 0.353222 0.525496
Si Si6 0.465187 0.505035 0.353936
Si Si7 0.500000 0.742320 0.750000
Si Si8 0.139183 0.642755 0.905889
O O1 0.000108 0.866563 0.659377
O O2 0.064548 0.671352 0.820159
O O3 0.775218 0.614662 0.197162
O O4 0.750000 0.750000 0.000000
O O5 0.709889 0.486951 0.966152
O O6 0.662003 0.699300 0.004416
O O7 0.774862 0.066708 0.197087
O O8 0.891056 0.041055 0.270707
O O9 0.829633 0.262001 0.138719
O O10 0.330437 0.817661 0.949315
O O11 0.334962 0.067045 0.891060
O O12 0.851474 0.471285 0.586568
O O13 0.944426 0.333304 0.628434
O O14 0.500000 0.500000 0.500000
O O15 0.471696 0.361823 0.297566
#
# Coordination Sequence:
#
# PCOD9293985 Si02
#       8
#     4   8   8   8   8   8   4   8
#     4   9  19  40  60  84 126 168 218 266 324 402
#     4  12  24  43  66  99 133 168 224 274 336 400
#     4  11  22  42  66  94 132 172 225 279 336 404
#     4  10  25  38  66  96 131 175 217 273 339 399
#     4  10  23  42  64  98 132 176 213 282 335 396
#     4  10  23  37  63  95 125 173 220 276 333 401
#     4  11  21  44  66  98 140 174 226 284 342 390
#     4   9  21  40  63  94 128 179 216 277 336 403
#
# _framework density 20.803412000000002
#
# number of rings (size 3 to 8) (size 9 to 14) (size 15 to 20)
#    0.857    0.857    2.857    0.857    4.000    1.143 
#    0.000    0.000    0.000    3.429    0.000    0.000 
#    0.000    0.000    0.000    0.000    0.000    0.000 
#
# Total GULP energy -156107.972222 kJ/mol
# GULP energy per Si atom -5575.284722 kJ/mol
# Density = 2.075606 g / cm^3
# Si number density = 20.803412 Si / 1000 Ang^3
#
#
#
# Elastic Constant Matrix: (Units=GPa)
#
#
# Indices 1 2 3 4 5 6 
#
# 1 53.3670 20.8067 51.1790 0.0000 8.9150 0.0000
# 2 20.8067 72.3411 23.5842 0.0000 2.5157 0.0000
# 3 51.1790 23.5842 126.7413 0.0000 -10.6858 0.0000
# 4 0.0000 0.0000 0.0000 27.1024 0.0000 9.8952
# 5 8.9150 2.5157 -10.6858 0.0000 35.8557 0.0000
# 6 0.0000 0.0000 0.0000 9.8952 0.0000 21.3928
#
#
#
# Elastic Compliance Matrix: (Units=1/GPa)
#
#
# Indices 1 2 3 4 5 6 
#
# 1 0.037978 -0.005399 -0.015484 0.000000 -0.013678 0.000000
# 2 -0.005399 0.015611 -0.000722 0.000000 0.000032 0.000000
# 3 -0.015484 -0.000722 0.014982 0.000000 0.008366 0.000000
# 4 0.000000 0.000000 0.000000 0.044394 0.000000 -0.020534
# 5 -0.013678 0.000032 0.008366 0.000000 0.033781 0.000000
# 6 0.000000 0.000000 0.000000 -0.020534 0.000000 0.056243
#
#
# Mechanical properties :
#
#
# Convention : Reuss Voigt Hill
#
# Bulk Modulus (GPa) = 39.43247 49.28769 44.36008
# Shear Modulus (GPa) = 19.63456 27.32881 23.48169
#
# Velocity S-wave (km/s) = 3.07549 3.62839 3.36332
# Velocity P-wave (km/s) = 5.62205 6.42629 6.03758
#
# Compressibility (1/GPa) = 0.02535981
#
# Stress axis : x y z
#
# Youngs Moduli (GPa) = 26.33132 64.05917 66.74527
#
# Poissons Ratio (x) = 0.34588 1.03349
# Poissons Ratio (y) = 0.14217 0.04818
# Poissons Ratio (z) = 0.40772 0.04624
#
# Static dielectric constant tensor:
#      x y z
#    x 1.759900 0.000000 0.034400 
#    y 0.000000 1.777870 0.000000 
#    z 0.034400 0.000000 1.696620 
# 
# From -- ./inp_files/180888.got.cif
#   From: 2010.05.17/outbox.cif.g08.bks.cpg/sg15_91_cif.got.tgz:180888.got - 2010.06.03 18:47:42.
