data_PCOD9293006
_publ_section_title
;
Structure prediction by ZEFSAII (Michael W. Deem and Ramdas Pophale) SiO2 
 PCOD9293006
Probable space group: C 2/C
;
_chemical_formula_sum "Si O2"
_cell_formula_units_Z 32
_cell_length_a 13.353978
_cell_length_b 5.001595
_cell_length_c 17.117433
_cell_angle_alpha 90.000000
_cell_angle_beta 96.695999
_cell_angle_gamma 90.000000
_cell_volume 1135.495071
_symmetry_space_group_name_H-M "C 2/C"
_symmetry_group_IT_number 15
_symmetry_cell_setting 'monoclinic'
loop_
_space_group_symop_operation_xyz
x,y,z
-x,y,1/2-z
-x,-y,-z
x,-y,1/2+z
1/2+x,1/2+y,z
1/2-x,1/2+y,1/2-z
1/2-x,1/2-y,-z
1/2+x,1/2-y,1/2+z
loop_
_atom_site_type_symbol
_atom_site_label
_atom_site_fract_x
_atom_site_fract_y
_atom_site_fract_z
Si Si1 0.803966 0.631040 0.647818
Si Si2 0.414315 0.745917 0.300478
Si Si3 0.345779 0.301539 0.951711
Si Si4 0.571406 0.622063 0.888428
O O1 0.816920 0.754261 0.735695
O O2 0.698311 0.558263 0.599201
O O3 0.864963 0.350944 0.648567
O O4 0.861657 0.850989 0.601977
O O5 0.500000 0.864112 0.250000
O O6 0.381521 0.871529 0.379998
O O7 0.473682 0.477086 0.333116
O O8 0.250000 0.250000 0.000000
O O9 0.436013 0.295748 0.022041
#
# Coordination Sequence:
#
# PCOD9293006 Si02
#       4
#     8   8   8   8
#     4  10  23  43  67 100 134 176 225 280 337 399
#     4  10  23  42  67 100 135 175 222 276 335 398
#     4  10  22  44  71 101 136 178 225 279 337 401
#     4  10  22  45  69  99 135 177 224 279 336 400
#
# _framework density 28.181539000000001
#
# number of rings (size 3 to 8) (size 9 to 14) (size 15 to 20)
#    0.000    2.000    0.000    1.500    0.000   17.000 
#    0.000   51.250    0.000    0.000    0.000    0.000 
#    0.000    0.000    0.000    0.000    0.000    0.000 
#
# Total GULP energy -89172.502975 kJ/mol
# GULP energy per Si atom -5573.281436 kJ/mol
# Density = 2.811740 g / cm^3
# Si number density = 28.181539 Si / 1000 Ang^3
#
#
#
# Elastic Constant Matrix: (Units=GPa)
#
#
# Indices 1 2 3 4 5 6 
#
# 1 59.8410 46.6950 54.8499 0.0000 -59.9549 0.0000
# 2 46.6950 126.6151 14.0294 0.0000 12.3805 0.0000
# 3 54.8499 14.0294 277.0614 0.0000 20.9793 0.0000
# 4 0.0000 0.0000 0.0000 31.7140 0.0000 13.2351
# 5 -59.9549 12.3805 20.9793 0.0000 42.6425 0.0000
# 6 0.0000 0.0000 0.0000 13.2351 0.0000 42.5564
#
#
#
# Elastic Compliance Matrix: (Units=1/GPa)
#
#
# Indices 1 2 3 4 5 6 
#
# 1 -0.012192 0.006116 0.003673 0.000000 -0.020724 0.000000
# 2 0.006116 0.005077 -0.002085 0.000000 0.008150 0.000000
# 3 0.003673 -0.002085 0.002650 0.000000 0.004466 0.000000
# 4 0.000000 0.000000 0.000000 0.036235 0.000000 -0.011269
# 5 -0.020724 0.008150 0.004466 0.000000 -0.010251 0.000000
# 6 0.000000 0.000000 0.000000 -0.011269 0.000000 0.027003
#
#
# Mechanical properties :
#
#
# Convention : Reuss Voigt Hill
#
# Bulk Modulus (GPa) = 91.38949 77.18515 84.28732
# Shear Modulus (GPa) = 136.01621 46.57880 91.29750
#
# Velocity S-wave (km/s) = 6.95479 4.06989 5.69794
# Velocity P-wave (km/s) = 9.84842 7.03799 8.55934
#
# Compressibility (1/GPa) = 0.01094218
#
# Stress axis : x y z
#
# Youngs Moduli (GPa) = -82.02237 196.98339 377.42850
#
# Poissons Ratio (x) = -1.20469 -1.38637
# Poissons Ratio (y) = 0.50162 0.78692
# Poissons Ratio (z) = 0.30128 0.41070
#
# Static dielectric constant tensor:
#      x y z
#    x 2.402070 0.000000 -0.018550 
#    y 0.000000 2.244450 0.000000 
#    z -0.018550 0.000000 2.270240 
# 
# From -- ./inp_files/207751.got.cif
#   From: 2010.05.17/outbox.cif.g08.bks.cpg/sg15_104_cif.got.tgz:207751.got - 2010.06.03 18:47:42.
