data_PCOD9293721
_publ_section_title
;
Structure prediction by ZEFSAII (Michael W. Deem and Ramdas Pophale) SiO2 
 PCOD9293721
Probable space group: C 2/C
;
_chemical_formula_sum "Si O2"
_cell_formula_units_Z 40
_cell_length_a 12.496725
_cell_length_b 13.788820
_cell_length_c 8.596657
_cell_angle_alpha 90.000000
_cell_angle_beta 98.128122
_cell_angle_gamma 90.000000
_cell_volume 1466.452824
_symmetry_space_group_name_H-M "C 2/C"
_symmetry_group_IT_number 15
_symmetry_cell_setting 'monoclinic'
loop_
_space_group_symop_operation_xyz
x,y,z
-x,y,1/2-z
-x,-y,-z
x,-y,1/2+z
1/2+x,1/2+y,z
1/2-x,1/2+y,1/2-z
1/2-x,1/2-y,-z
1/2+x,1/2-y,1/2+z
loop_
_atom_site_type_symbol
_atom_site_label
_atom_site_fract_x
_atom_site_fract_y
_atom_site_fract_z
Si Si1 0.900108 0.793801 0.114251
Si Si2 0.683610 0.528335 0.076484
Si Si3 0.385980 0.620758 0.144826
Si Si4 0.080439 0.491092 0.874611
Si Si5 0.339607 0.186286 0.793220
O O1 0.785062 0.792969 0.181339
O O2 0.000000 0.785751 0.250000
O O3 0.895142 0.898823 0.029470
O O4 0.902441 0.721586 0.964175
O O5 0.690385 0.557601 0.257041
O O6 0.805050 0.546940 0.044523
O O7 0.640834 0.421982 0.028205
O O8 0.500000 0.599466 0.250000
O O9 0.363415 0.732523 0.166493
O O10 0.119402 0.586717 0.781318
O O11 0.000000 0.429354 0.750000
O O12 0.000000 0.500000 0.000000
#
# Coordination Sequence:
#
# PCOD9293721 Si02
#       5
#     8   8   8   8   8
#     4  10  22  46  76 109 153 194 245 318 386 454
#     4  11  24  43  68 103 141 189 250 304 375 458
#     4  11  23  41  68 101 143 188 240 309 375 448
#     4  12  26  47  72 100 149 204 254 314 379 456
#     4  10  24  43  69 112 149 192 255 307 379 468
#
# _framework density 27.276703999999999
#
# number of rings (size 3 to 8) (size 9 to 14) (size 15 to 20)
#    0.000    1.200    0.000    5.400    0.000    7.200 
#    0.000   12.000    0.000    7.200    0.000    0.000 
#    0.000    0.000    0.000    0.000    0.000    0.000 
#
# Total GULP energy -111866.535467 kJ/mol
# GULP energy per Si atom -5593.326773 kJ/mol
# Density = 2.721462 g / cm^3
# Si number density = 27.276704 Si / 1000 Ang^3
#
#
#
# Elastic Constant Matrix: (Units=GPa)
#
#
# Indices 1 2 3 4 5 6 
#
# 1 184.2832 11.1510 42.9749 0.0000 4.6218 0.0000
# 2 11.1510 141.8708 52.0863 0.0000 4.0071 0.0000
# 3 42.9749 52.0863 110.0576 0.0000 19.1147 0.0000
# 4 0.0000 0.0000 0.0000 53.0820 0.0000 -11.3151
# 5 4.6218 4.0071 19.1147 0.0000 62.3997 0.0000
# 6 0.0000 0.0000 0.0000 -11.3151 0.0000 18.6207
#
#
#
# Elastic Compliance Matrix: (Units=1/GPa)
#
#
# Indices 1 2 3 4 5 6 
#
# 1 0.006002 0.000485 -0.002630 0.000000 0.000330 0.000000
# 2 0.000485 0.008601 -0.004391 0.000000 0.000757 0.000000
# 3 -0.002630 -0.004391 0.012789 0.000000 -0.003441 0.000000
# 4 0.000000 0.000000 0.000000 0.021642 0.000000 0.013151
# 5 0.000330 0.000757 -0.003441 0.000000 0.017007 0.000000
# 6 0.000000 0.000000 0.000000 0.013151 0.000000 0.061695
#
#
# Mechanical properties :
#
#
# Convention : Reuss Voigt Hill
#
# Bulk Modulus (GPa) = 69.84029 72.07068 70.95548
# Shear Modulus (GPa) = 34.34438 48.82042 41.58240
#
# Velocity S-wave (km/s) = 3.55224 4.23522 3.90868
# Velocity P-wave (km/s) = 6.51802 7.09898 6.81469
#
# Compressibility (1/GPa) = 0.01431838
#
# Stress axis : x y z
#
# Youngs Moduli (GPa) = 166.60434 116.25903 78.19094
#
# Poissons Ratio (x) = -0.05634 0.20568
# Poissons Ratio (y) = -0.08074 0.34337
# Poissons Ratio (z) = 0.43824 0.51055
#
# Static dielectric constant tensor:
#      x y z
#    x 2.224210 0.000000 -0.022930 
#    y 0.000000 2.189070 0.000000 
#    z -0.022930 0.000000 2.691120 
# 
# From -- ./inp_files/29361.got.cif
#   From: 2010.05.17/outbox.cif.g08.bks.cpg/sg15_15_cif.got.tgz:29361.got - 2010.06.03 18:47:42.
