data_PCOD9293853
_publ_section_title
;
Structure prediction by ZEFSAII (Michael W. Deem and Ramdas Pophale) SiO2 
 PCOD9293853
Probable space group: C 2/C
;
_chemical_formula_sum "Si O2"
_cell_formula_units_Z 28
_cell_length_a 23.227827
_cell_length_b 5.212533
_cell_length_c 19.393308
_cell_angle_alpha 90.000000
_cell_angle_beta 155.090887
_cell_angle_gamma 90.000000
_cell_volume 988.956326
_symmetry_space_group_name_H-M "C 2/C"
_symmetry_group_IT_number 15
_symmetry_cell_setting 'monoclinic'
loop_
_space_group_symop_operation_xyz
x,y,z
-x,y,1/2-z
-x,-y,-z
x,-y,1/2+z
1/2+x,1/2+y,z
1/2-x,1/2+y,1/2-z
1/2-x,1/2-y,-z
1/2+x,1/2-y,1/2+z
loop_
_atom_site_type_symbol
_atom_site_label
_atom_site_fract_x
_atom_site_fract_y
_atom_site_fract_z
Si Si1 0.000000 0.603192 0.750000
Si Si2 0.165363 0.763117 0.533343
Si Si3 0.895941 0.055579 0.241721
Si Si4 0.905004 0.747438 0.893000
O O1 0.927504 0.435629 0.612075
O O2 0.888939 0.785744 0.664992
O O3 0.310555 0.707858 0.655082
O O4 0.188803 0.723514 0.641255
O O5 0.058716 0.997670 0.420707
O O6 0.844907 0.225198 0.251140
O O7 0.000000 0.500000 0.000000
O O8 0.000000 0.000000 0.000000
#
# Coordination Sequence:
#
# PCOD9293853 Si02
#       4
#     4   8   8   8
#     4  12  24  46  74 110 158 204 260 318 396 480
#     4  11  26  47  75 112 151 203 264 323 398 468
#     4  11  26  47  78 111 156 202 260 327 397 471
#     4  10  22  48  74 110 150 202 258 321 384 461
#
# _framework density 28.312673
#
# number of rings (size 3 to 8) (size 9 to 14) (size 15 to 20)
#    0.000    1.143    2.857    1.714    0.000   11.429 
#    0.000    0.000    0.000    0.000    0.000    0.000 
#    0.000    0.000    0.000    0.000    0.000    0.000 
#
# Total GULP energy -78320.329322 kJ/mol
# GULP energy per Si atom -5594.309237 kJ/mol
# Density = 2.824823 g / cm^3
# Si number density = 28.312673 Si / 1000 Ang^3
#
#
#
# Elastic Constant Matrix: (Units=GPa)
#
#
# Indices 1 2 3 4 5 6 
#
# 1 218.1111 45.6684 62.6591 0.0000 -24.1021 -0.0002
# 2 45.6684 105.4477 22.8732 0.0038 2.8779 0.0006
# 3 62.6591 22.8732 127.9094 -0.0001 19.0530 0.0001
# 4 0.0000 0.0038 -0.0001 14.9087 -0.0003 -5.3726
# 5 -24.1021 2.8779 19.0530 -0.0003 29.2048 -0.0004
# 6 -0.0002 0.0006 0.0001 -5.3726 -0.0004 64.6320
#
#
#
# Elastic Compliance Matrix: (Units=1/GPa)
#
#
# Indices 1 2 3 4 5 6 
#
# 1 0.007477 -0.002493 -0.004622 0.000001 0.009431 0.000000
# 2 -0.002493 0.010698 -0.000253 -0.000003 -0.002947 0.000000
# 3 -0.004622 -0.000253 0.011843 0.000000 -0.011515 0.000000
# 4 0.000001 -0.000003 0.000000 0.069146 0.000002 0.005748
# 5 0.009431 -0.002947 -0.011515 0.000002 0.049827 0.000001
# 6 0.000000 0.000000 0.000000 0.005748 0.000001 0.015950
#
#
# Mechanical properties :
#
#
# Convention : Reuss Voigt Hill
#
# Bulk Modulus (GPa) = 65.43464 79.31883 72.37673
# Shear Modulus (GPa) = 27.06070 43.10028 35.08049
#
# Velocity S-wave (km/s) = 3.09492 3.90589 3.52382
# Velocity P-wave (km/s) = 5.99441 6.95827 6.49425
#
# Compressibility (1/GPa) = 0.01528243
#
# Stress axis : x y z
#
# Youngs Moduli (GPa) = 133.74929 93.47241 84.44138
#
# Poissons Ratio (x) = 0.23302 0.39026
# Poissons Ratio (y) = 0.33343 0.02136
# Poissons Ratio (z) = 0.61814 0.02365
#
# Static dielectric constant tensor:
#      x y z
#    x 2.200600 0.000000 -0.054760 
#    y 0.000000 2.285820 0.000010 
#    z -0.054760 0.000010 2.351640 
# 
# From -- ./inp_files/254155.got.cif
#   From: 2010.05.17/outbox.cif.g08.bks.cpg/sg15_128_cif.got.tgz:254155.got - 2010.06.03 18:47:42.
