data_PCOD9293824
_publ_section_title
;
Structure prediction by ZEFSAII (Michael W. Deem and Ramdas Pophale) SiO2 
 PCOD9293824
Probable space group: C 2/C
;
_chemical_formula_sum "Si O2"
_cell_formula_units_Z 56
_cell_length_a 23.692412
_cell_length_b 7.935160
_cell_length_c 15.125889
_cell_angle_alpha 90.000000
_cell_angle_beta 51.262696
_cell_angle_gamma 90.000000
_cell_volume 2218.162563
_symmetry_space_group_name_H-M "C 2/C"
_symmetry_group_IT_number 15
_symmetry_cell_setting 'monoclinic'
loop_
_space_group_symop_operation_xyz
x,y,z
-x,y,1/2-z
-x,-y,-z
x,-y,1/2+z
1/2+x,1/2+y,z
1/2-x,1/2+y,1/2-z
1/2-x,1/2-y,-z
1/2+x,1/2-y,1/2+z
loop_
_atom_site_type_symbol
_atom_site_label
_atom_site_fract_x
_atom_site_fract_y
_atom_site_fract_z
Si Si1 0.704898 0.874999 0.104311
Si Si2 0.193808 0.176519 0.837589
Si Si3 0.074586 0.889150 0.135089
Si Si4 0.332462 0.202964 0.320226
Si Si5 0.456074 0.056532 0.630242
Si Si6 0.412164 0.213491 0.909295
Si Si7 0.924987 0.889271 0.561634
O O1 0.735208 0.854569 0.173387
O O2 0.625648 0.839874 0.144231
O O3 0.714528 0.072594 0.076945
O O4 0.750000 0.750000 0.000000
O O5 0.210653 0.242836 0.724087
O O6 0.142833 0.015489 0.866834
O O7 0.143114 0.290680 0.952271
O O8 0.134171 0.842943 0.149211
O O9 0.000000 0.832050 0.250000
O O10 0.071219 0.088830 0.119316
O O11 0.080331 0.812822 0.031883
O O12 0.398984 0.088471 0.214041
O O13 0.519404 0.101569 0.636469
O O14 0.423545 0.238439 0.632489
O O15 0.500000 0.000000 0.500000
O O16 0.000000 0.000000 0.500000
#
# Coordination Sequence:
#
# PCOD9293824 Si02
#       7
#     8   8   8   8   8   8   8
#     4  10  26  47  68  96 144 189 234 292 349 430
#     4  10  22  48  67  94 136 188 241 283 357 426
#     4  11  24  39  64 105 140 179 231 293 359 434
#     4  12  27  39  70 106 137 183 240 305 347 430
#     4  12  23  41  71 109 139 178 231 302 375 416
#     4  10  23  44  67  96 143 186 224 289 362 430
#     4  11  21  42  70  93 137 185 226 289 364 421
#
# _framework density 25.246120999999999
#
# number of rings (size 3 to 8) (size 9 to 14) (size 15 to 20)
#    0.000    1.143    4.286    1.714    6.000    2.286 
#    0.000    6.429    0.000    0.000    0.000    0.000 
#    0.000    0.000    0.000    0.000    0.000    0.000 
#
# Total GULP energy -156653.117313 kJ/mol
# GULP energy per Si atom -5594.754190 kJ/mol
# Density = 2.518866 g / cm^3
# Si number density = 25.246121 Si / 1000 Ang^3
#
#
#
# Elastic Constant Matrix: (Units=GPa)
#
#
# Indices 1 2 3 4 5 6 
#
# 1 213.4775 35.8443 29.1253 0.0000 29.9661 0.0000
# 2 35.8443 60.6259 11.4258 0.0001 10.5177 0.0001
# 3 29.1253 11.4258 64.8579 0.0000 15.6538 0.0000
# 4 0.0000 0.0001 0.0000 31.2483 0.0000 6.8952
# 5 29.9661 10.5177 15.6538 0.0000 51.1679 0.0000
# 6 0.0000 0.0001 0.0000 6.8952 0.0000 42.2397
#
#
#
# Elastic Compliance Matrix: (Units=1/GPa)
#
#
# Indices 1 2 3 4 5 6 
#
# 1 0.005662 -0.002662 -0.001517 0.000000 -0.002304 0.000000
# 2 -0.002662 0.018690 -0.001670 0.000000 -0.001772 0.000000
# 3 -0.001517 -0.001670 0.017380 0.000000 -0.004085 0.000000
# 4 0.000000 0.000000 0.000000 0.033198 0.000000 -0.005419
# 5 -0.002304 -0.001772 -0.004085 0.000000 0.022507 0.000000
# 6 0.000000 0.000000 0.000000 -0.005419 0.000000 0.024559
#
#
# Mechanical properties :
#
#
# Convention : Reuss Voigt Hill
#
# Bulk Modulus (GPa) = 33.29489 54.63912 43.96700
# Shear Modulus (GPa) = 34.79359 42.43557 38.61458
#
# Velocity S-wave (km/s) = 3.71641 4.10430 3.91516
# Velocity P-wave (km/s) = 5.62426 6.64454 6.15557
#
# Compressibility (1/GPa) = 0.03003464
#
# Stress axis : x y z
#
# Youngs Moduli (GPa) = 176.62392 53.50336 57.53789
#
# Poissons Ratio (x) = 0.14241 0.08731
# Poissons Ratio (y) = 0.47012 0.09607
# Poissons Ratio (z) = 0.26801 0.08933
#
# Static dielectric constant tensor:
#      x y z
#    x 1.977660 0.000000 -0.041180 
#    y 0.000000 2.039380 0.000000 
#    z -0.041180 0.000000 2.048730 
# 
# From -- ./inp_files/172297.got.cif
#   From: 2010.05.17/outbox.cif.g08.bks.cpg/sg15_87_cif.got.tgz:172297.got - 2010.06.03 18:47:42.
