data_PCOD9293034
_publ_section_title
;
Structure prediction by ZEFSAII (Michael W. Deem and Ramdas Pophale) SiO2 
 PCOD9293034
Probable space group: C 2/C
;
_chemical_formula_sum "Si O2"
_cell_formula_units_Z 40
_cell_length_a 8.439277
_cell_length_b 17.000808
_cell_length_c 12.514001
_cell_angle_alpha 90.000000
_cell_angle_beta 106.025378
_cell_angle_gamma 90.000000
_cell_volume 1725.668700
_symmetry_space_group_name_H-M "C 2/C"
_symmetry_group_IT_number 15
_symmetry_cell_setting 'monoclinic'
loop_
_space_group_symop_operation_xyz
x,y,z
-x,y,1/2-z
-x,-y,-z
x,-y,1/2+z
1/2+x,1/2+y,z
1/2-x,1/2+y,1/2-z
1/2-x,1/2-y,-z
1/2+x,1/2-y,1/2+z
loop_
_atom_site_type_symbol
_atom_site_label
_atom_site_fract_x
_atom_site_fract_y
_atom_site_fract_z
Si Si1 0.674069 0.426960 0.722984
Si Si2 0.917572 0.373123 0.948465
Si Si3 0.677356 0.917638 0.332444
Si Si4 0.216899 0.158207 0.017452
Si Si5 0.920566 0.792406 0.344629
O O1 0.500000 0.425577 0.750000
O O2 0.820357 0.415366 0.835349
O O3 0.707215 0.508335 0.668715
O O4 0.682684 0.359583 0.634519
O O5 0.893998 0.280125 0.919400
O O6 0.115131 0.386773 0.982318
O O7 0.843504 0.398633 0.046885
O O8 0.500000 0.933829 0.250000
O O9 0.755302 0.840187 0.292818
O O10 0.250000 0.250000 0.000000
O O11 0.051051 0.145483 0.919190
O O12 0.000000 0.761254 0.250000
#
# Coordination Sequence:
#
# PCOD9293034 Si02
#       5
#     8   8   8   8   8
#     4  12  27  46  69  99 138 181 223 277 340 398
#     4  11  24  45  69  98 137 177 223 278 339 398
#     4  12  27  44  69 101 136 179 229 279 334 401
#     4  10  22  44  71  99 132 174 220 269 331 401
#     4  11  23  43  70 102 138 176 224 279 336 401
#
# _framework density 23.17942
#
# number of rings (size 3 to 8) (size 9 to 14) (size 15 to 20)
#    0.000    0.800    0.000    7.800    0.000   12.000 
#    0.000    0.000    0.000    0.000    0.000    0.000 
#    0.000    0.000    0.000    0.000    0.000    0.000 
#
# Total GULP energy -112024.109553 kJ/mol
# GULP energy per Si atom -5601.205478 kJ/mol
# Density = 2.312666 g / cm^3
# Si number density = 23.179420 Si / 1000 Ang^3
#
#
#
# Elastic Constant Matrix: (Units=GPa)
#
#
# Indices 1 2 3 4 5 6 
#
# 1 125.2732 58.4156 34.6740 0.0000 -21.2351 0.0000
# 2 58.4156 104.3976 54.0849 0.0000 -21.8258 0.0000
# 3 34.6740 54.0849 123.6696 0.0000 -25.6618 0.0000
# 4 0.0000 0.0000 0.0000 -14.2164 0.0000 -6.6809
# 5 -21.2351 -21.8258 -25.6618 0.0000 47.6897 0.0000
# 6 0.0000 0.0000 0.0000 -6.6809 0.0000 39.9840
#
#
#
# Elastic Compliance Matrix: (Units=1/GPa)
#
#
# Indices 1 2 3 4 5 6 
#
# 1 0.011028 -0.005612 -0.000171 0.000000 0.002250 0.000000
# 2 -0.005612 0.015661 -0.004848 0.000000 0.002060 0.000000
# 3 -0.000171 -0.004848 0.011007 0.000000 0.003628 0.000000
# 4 0.000000 0.000000 0.000000 -0.065220 0.000000 -0.010898
# 5 0.002250 0.002060 0.003628 0.000000 0.024866 0.000000
# 6 0.000000 0.000000 0.000000 -0.010898 0.000000 0.023189
#
#
# Mechanical properties :
#
#
# Convention : Reuss Voigt Hill
#
# Bulk Modulus (GPa) = 60.84759 71.96548 66.40653
# Shear Modulus (GPa) = 105.77222 28.43585 67.10404
#
# Velocity S-wave (km/s) = 6.76247 3.50633 5.38634
# Velocity P-wave (km/s) = 9.34250 6.89253 8.20943
#
# Compressibility (1/GPa) = 0.01643451
#
# Stress axis : x y z
#
# Youngs Moduli (GPa) = 90.67737 63.85184 90.85033
#
# Poissons Ratio (x) = 0.35832 0.01552
# Poissons Ratio (y) = 0.50886 0.44047
# Poissons Ratio (z) = 0.01549 0.30958
#
# Static dielectric constant tensor:
#      x y z
#    x 1.892550 0.000000 0.032800 
#    y 0.000000 1.869400 0.000000 
#    z 0.032800 0.000000 1.842250 
# 
# From -- ./inp_files/76905.got.cif
#   From: 2010.05.17/outbox.cif.g08.bks.cpg/sg15_39_cif.got.tgz:76905.got - 2010.06.03 18:47:42.
