data_PCOD9293987
_publ_section_title
;
Structure prediction by ZEFSAII (Michael W. Deem and Ramdas Pophale) SiO2 
 PCOD9293987
Probable space group: C 2/C
;
_chemical_formula_sum "Si O2"
_cell_formula_units_Z 48
_cell_length_a 15.938383
_cell_length_b 11.762606
_cell_length_c 18.564900
_cell_angle_alpha 90.000000
_cell_angle_beta 148.846116
_cell_angle_gamma 90.000000
_cell_volume 1800.591192
_symmetry_space_group_name_H-M "C 2/C"
_symmetry_group_IT_number 15
_symmetry_cell_setting 'monoclinic'
loop_
_space_group_symop_operation_xyz
x,y,z
-x,y,1/2-z
-x,-y,-z
x,-y,1/2+z
1/2+x,1/2+y,z
1/2-x,1/2+y,1/2-z
1/2-x,1/2-y,-z
1/2+x,1/2-y,1/2+z
loop_
_atom_site_type_symbol
_atom_site_label
_atom_site_fract_x
_atom_site_fract_y
_atom_site_fract_z
Si Si1 0.660553 0.950475 0.575201
Si Si2 0.490617 0.431464 0.606536
Si Si3 0.348966 0.900928 0.089784
Si Si4 0.161156 0.683790 0.597546
Si Si5 0.412105 0.345364 0.389822
Si Si6 0.180337 0.333806 0.889433
O O1 0.614033 0.888297 0.467622
O O2 0.500000 0.000000 0.500000
O O3 0.824955 0.903120 0.733218
O O4 0.717994 0.077835 0.592161
O O5 0.344595 0.373306 0.544080
O O6 0.443329 0.394347 0.491190
O O7 0.501817 0.570294 0.605264
O O8 0.500000 0.856332 0.250000
O O9 0.332856 0.033687 0.102416
O O10 0.229338 0.658693 0.726658
O O11 0.242106 0.800618 0.630336
O O12 0.976339 0.717014 0.446234
O O13 0.000000 0.291413 0.750000
O O14 0.250000 0.250000 0.000000
#
# Coordination Sequence:
#
# PCOD9293987 Si02
#       6
#     8   8   8   8   8   8
#     4  11  26  40  65  95 128 174 219 262 320 385
#     4  10  23  43  61  90 134 170 218 258 321 376
#     4  11  24  38  63  93 131 167 211 265 319 385
#     4  11  22  37  60  91 129 166 210 258 325 382
#     4  10  23  37  64  90 129 169 213 262 320 382
#     4  11  21  32  53  88 128 160 198 248 315 391
#
# _framework density 26.657913000000001
#
# number of rings (size 3 to 8) (size 9 to 14) (size 15 to 20)
#    0.000    1.333    3.333    1.500   14.000    0.000 
#    0.000    0.000    0.000    1.000    0.000    0.000 
#    0.000    0.000    0.000    0.000    0.000    0.000 
#
# Total GULP energy -133714.431515 kJ/mol
# GULP energy per Si atom -5571.434646 kJ/mol
# Density = 2.659724 g / cm^3
# Si number density = 26.657913 Si / 1000 Ang^3
#
#
#
# Elastic Constant Matrix: (Units=GPa)
#
#
# Indices 1 2 3 4 5 6 
#
# 1 121.2405 -28.5107 61.8518 -0.0004 17.5366 -0.0001
# 2 -28.5107 56.2227 8.9932 -0.0011 2.1008 -0.0004
# 3 61.8518 8.9932 239.1525 -0.0016 16.9354 -0.0006
# 4 -0.0004 -0.0011 -0.0016 40.0248 -0.0007 5.1013
# 5 17.5366 2.1008 16.9354 -0.0007 45.8858 -0.0002
# 6 -0.0001 -0.0004 -0.0006 5.1013 -0.0002 16.9893
#
#
#
# Elastic Compliance Matrix: (Units=1/GPa)
#
#
# Indices 1 2 3 4 5 6 
#
# 1 0.011925 0.006678 -0.003071 0.000000 -0.003730 0.000000
# 2 0.006678 0.021649 -0.002352 0.000001 -0.002675 0.000000
# 3 -0.003071 -0.002352 0.005107 0.000000 -0.000603 0.000000
# 4 0.000000 0.000001 0.000000 0.025979 0.000000 -0.007800
# 5 -0.003730 -0.002675 -0.000603 0.000000 0.023564 0.000000
# 6 0.000000 0.000000 0.000000 -0.007800 0.000000 0.061203
#
#
# Mechanical properties :
#
#
# Convention : Reuss Voigt Hill
#
# Bulk Modulus (GPa) = 24.27783 55.69825 39.98804
# Shear Modulus (GPa) = 31.12442 45.53208 38.32825
#
# Velocity S-wave (km/s) = 3.42065 4.13730 3.79592
# Velocity P-wave (km/s) = 4.97273 6.61529 5.85193
#
# Compressibility (1/GPa) = 0.04118985
#
# Stress axis : x y z
#
# Youngs Moduli (GPa) = 83.86081 46.19210 195.81516
#
# Poissons Ratio (x) = -0.30845 0.60135
# Poissons Ratio (y) = -0.55998 0.46049
# Poissons Ratio (z) = 0.25754 0.10863
#
# Static dielectric constant tensor:
#      x y z
#    x 2.450770 0.000000 0.189620 
#    y 0.000000 2.362240 0.000000 
#    z 0.189620 0.000000 2.084980 
# 
# From -- ./inp_files/48078.got.cif
#   From: 2010.05.17/outbox.cif.g08.bks.cpg/sg15_25_cif.got.tgz:48078.got - 2010.06.03 18:47:42.
