data_PCOD9293852
_publ_section_title
;
Structure prediction by ZEFSAII (Michael W. Deem and Ramdas Pophale) SiO2 
 PCOD9293852
Probable space group: C 2/C
;
_chemical_formula_sum "Si O2"
_cell_formula_units_Z 44
_cell_length_a 26.530663
_cell_length_b 8.174677
_cell_length_c 24.876424
_cell_angle_alpha 90.000000
_cell_angle_beta 162.232725
_cell_angle_gamma 90.000000
_cell_volume 1646.349651
_symmetry_space_group_name_H-M "C 2/C"
_symmetry_group_IT_number 15
_symmetry_cell_setting 'monoclinic'
loop_
_space_group_symop_operation_xyz
x,y,z
-x,y,1/2-z
-x,-y,-z
x,-y,1/2+z
1/2+x,1/2+y,z
1/2-x,1/2+y,1/2-z
1/2-x,1/2-y,-z
1/2+x,1/2-y,1/2+z
loop_
_atom_site_type_symbol
_atom_site_label
_atom_site_fract_x
_atom_site_fract_y
_atom_site_fract_z
Si Si1 0.945618 0.818036 0.431902
Si Si2 0.500000 0.026836 0.750000
Si Si3 0.704021 0.332393 0.618929
Si Si4 0.265072 0.602632 0.099326
Si Si5 0.344873 0.741874 0.652421
Si Si6 0.041854 0.627030 0.637334
O O1 0.011690 0.813397 0.436927
O O2 0.991862 0.714230 0.530966
O O3 0.760017 0.770987 0.228432
O O4 0.000000 0.000000 0.500000
O O5 0.351377 0.127519 0.571785
O O6 0.456055 0.901353 0.754227
O O7 0.726860 0.281344 0.581681
O O8 0.815155 0.496911 0.733705
O O9 0.382163 0.449569 0.201074
O O10 0.375614 0.749012 0.235451
O O11 0.132639 0.569968 0.013582
O O12 0.250000 0.750000 0.500000
#
# Coordination Sequence:
#
# PCOD9293852 Si02
#       6
#     8   4   8   8   8   8
#     4  12  26  44  70 105 142 193 242 291 361 430
#     4  10  22  48  74 110 136 192 252 302 364 434
#     4  12  24  44  72 103 141 191 240 298 360 426
#     4  11  24  46  72 106 148 189 238 297 370 432
#     4  10  23  45  74  99 140 186 249 296 358 432
#     4  12  25  46  70 108 153 186 239 300 367 441
#
# _framework density 26.725792999999999
#
# number of rings (size 3 to 8) (size 9 to 14) (size 15 to 20)
#    0.000    0.727    1.818    6.000    2.545    0.727 
#    0.000    0.000    0.000    0.000    0.000    0.000 
#    0.000    0.000    0.000    0.000    0.000    0.000 
#
# Total GULP energy -122718.102010 kJ/mol
# GULP energy per Si atom -5578.095546 kJ/mol
# Density = 2.666496 g / cm^3
# Si number density = 26.725793 Si / 1000 Ang^3
#
#
#
# Elastic Constant Matrix: (Units=GPa)
#
#
# Indices 1 2 3 4 5 6 
#
# 1 165.0273 48.6209 38.3736 0.0020 -10.6744 0.0000
# 2 48.6209 92.8728 19.8032 0.0078 -9.0109 0.0024
# 3 38.3736 19.8032 63.4364 0.0077 -34.6759 0.0028
# 4 0.0020 0.0078 0.0077 49.8871 0.0031 -6.0263
# 5 -10.6744 -9.0109 -34.6759 0.0031 58.9862 0.0003
# 6 0.0000 0.0024 0.0028 -6.0263 0.0003 57.2030
#
#
#
# Elastic Compliance Matrix: (Units=1/GPa)
#
#
# Indices 1 2 3 4 5 6 
#
# 1 0.008061 -0.003367 -0.004876 0.000001 -0.001922 0.000001
# 2 -0.003367 0.012953 -0.001854 -0.000002 0.000279 -0.000001
# 3 -0.004876 -0.001854 0.027488 -0.000005 0.014994 -0.000002
# 4 0.000001 -0.000002 -0.000005 0.020304 -0.000004 0.002139
# 5 -0.001922 0.000279 0.014994 -0.000004 0.025462 -0.000001
# 6 0.000001 -0.000001 -0.000002 0.002139 -0.000001 0.017707
#
#
# Mechanical properties :
#
#
# Convention : Reuss Voigt Hill
#
# Bulk Modulus (GPa) = 35.32550 59.43688 47.38119
# Shear Modulus (GPa) = 35.30993 47.51783 41.41388
#
# Velocity S-wave (km/s) = 3.63877 4.22118 3.94075
# Velocity P-wave (km/s) = 5.55883 6.78569 6.20267
#
# Compressibility (1/GPa) = 0.02830816
#
# Stress axis : x y z
#
# Youngs Moduli (GPa) = 124.05400 77.20501 36.37987
#
# Poissons Ratio (x) = 0.25994 0.17738
# Poissons Ratio (y) = 0.41768 0.06745
# Poissons Ratio (z) = 0.60484 0.14314
#
# Static dielectric constant tensor:
#      x y z
#    x 1.963530 0.000000 0.319230 
#    y 0.000000 2.354790 0.000010 
#    z 0.319230 0.000010 1.651260 
# 
# From -- ./inp_files/303171.got.cif
#   From: 2010.05.17/outbox.cif.g08.bks.cpg/sg15_152_cif.got.tgz:303171.got - 2010.06.03 18:47:42.
