data_PCOD9293365
_publ_section_title
;
Structure prediction by ZEFSAII (Michael W. Deem and Ramdas Pophale) SiO2 
 PCOD9293365
Probable space group: C 2/C
;
_chemical_formula_sum "Si O2"
_cell_formula_units_Z 40
_cell_length_a 10.482926
_cell_length_b 10.287967
_cell_length_c 21.411222
_cell_angle_alpha 90.000000
_cell_angle_beta 36.680350
_cell_angle_gamma 90.000000
_cell_volume 1379.375490
_symmetry_space_group_name_H-M "C 2/C"
_symmetry_group_IT_number 15
_symmetry_cell_setting 'monoclinic'
loop_
_space_group_symop_operation_xyz
x,y,z
-x,y,1/2-z
-x,-y,-z
x,-y,1/2+z
1/2+x,1/2+y,z
1/2-x,1/2+y,1/2-z
1/2-x,1/2-y,-z
1/2+x,1/2-y,1/2+z
loop_
_atom_site_type_symbol
_atom_site_label
_atom_site_fract_x
_atom_site_fract_y
_atom_site_fract_z
Si Si1 0.654495 0.883829 0.915255
Si Si2 0.016984 0.401732 0.314194
Si Si3 0.983192 0.039288 0.861919
Si Si4 0.031997 0.199435 0.414558
Si Si5 0.526748 0.181492 0.325976
O O1 0.639498 0.849900 0.848493
O O2 0.876325 0.945880 0.852289
O O3 0.558949 0.757519 0.986809
O O4 0.500000 0.000000 0.000000
O O5 0.264374 0.430606 0.234863
O O6 0.950021 0.299556 0.392848
O O7 0.913017 0.544860 0.356909
O O8 0.000000 0.351915 0.250000
O O9 0.896375 0.185363 0.887341
O O10 0.958781 0.947214 0.931304
O O11 0.287870 0.201414 0.299312
#
# Coordination Sequence:
#
# PCOD9293365 Si02
#       5
#     8   8   8   8   8
#     4  12  25  47  75 106 153 189 252 316 367 453
#     4  10  22  45  71 104 151 198 246 308 372 451
#     4  10  25  43  71 107 141 196 251 299 381 437
#     4  10  23  46  69 109 145 189 250 305 372 443
#     4  10  24  48  72 108 145 200 246 307 380 442
#
# _framework density 28.998631
#
# number of rings (size 3 to 8) (size 9 to 14) (size 15 to 20)
#    0.000    1.600    2.000    0.600    5.600    7.200 
#    7.200    0.000    0.000    0.000    0.000    0.000 
#    0.000    0.000    0.000    0.000    0.000    0.000 
#
# Total GULP energy -112011.685080 kJ/mol
# GULP energy per Si atom -5600.584254 kJ/mol
# Density = 2.893263 g / cm^3
# Si number density = 28.998631 Si / 1000 Ang^3
#
#
#
# Elastic Constant Matrix: (Units=GPa)
#
#
# Indices 1 2 3 4 5 6 
#
# 1 130.8465 6.0347 51.6609 0.0000 8.1378 0.0000
# 2 6.0347 162.4238 34.9260 0.0001 -2.1555 0.0000
# 3 51.6609 34.9260 137.2088 0.0001 0.5627 0.0000
# 4 0.0000 0.0001 0.0001 60.6936 -0.0001 -3.2903
# 5 8.1378 -2.1555 0.5627 -0.0001 42.5686 0.0000
# 6 0.0000 0.0000 0.0000 -3.2903 0.0000 46.9140
#
#
#
# Elastic Compliance Matrix: (Units=1/GPa)
#
#
# Indices 1 2 3 4 5 6 
#
# 1 0.009122 0.000398 -0.003529 0.000000 -0.001677 0.000000
# 2 0.000398 0.006536 -0.001815 0.000000 0.000279 0.000000
# 3 -0.003529 -0.001815 0.009077 0.000000 0.000463 0.000000
# 4 0.000000 0.000000 0.000000 0.016539 0.000000 0.001160
# 5 -0.001677 0.000279 0.000463 0.000000 0.023820 0.000000
# 6 0.000000 0.000000 0.000000 0.001160 0.000000 0.021397
#
#
# Mechanical properties :
#
#
# Convention : Reuss Voigt Hill
#
# Bulk Modulus (GPa) = 67.37194 68.41362 67.89278
# Shear Modulus (GPa) = 49.34393 52.55906 50.95150
#
# Velocity S-wave (km/s) = 4.12951 4.26193 4.19624
# Velocity P-wave (km/s) = 6.78384 6.91823 6.85136
#
# Compressibility (1/GPa) = 0.01484297
#
# Stress axis : x y z
#
# Youngs Moduli (GPa) = 109.62812 153.00256 110.17119
#
# Poissons Ratio (x) = -0.06084 0.38877
# Poissons Ratio (y) = -0.04359 0.19991
# Poissons Ratio (z) = 0.38686 0.27763
#
# Static dielectric constant tensor:
#      x y z
#    x 2.352920 0.000000 -0.108350 
#    y 0.000000 2.297710 0.000000 
#    z -0.108350 0.000000 2.266350 
# 
# From -- ./inp_files/268656.got.cif
#   From: 2010.05.17/outbox.cif.g08.bks.cpg/sg15_135_cif.got.tgz:268656.got - 2010.06.03 18:47:42.
