data_PCOD9293551
_publ_section_title
;
Structure prediction by ZEFSAII (Michael W. Deem and Ramdas Pophale) SiO2 
 PCOD9293551
Probable space group: C 2/C
;
_chemical_formula_sum "Si O2"
_cell_formula_units_Z 36
_cell_length_a 4.960404
_cell_length_b 18.684589
_cell_length_c 19.405727
_cell_angle_alpha 90.000000
_cell_angle_beta 47.600788
_cell_angle_gamma 90.000000
_cell_volume 1328.189998
_symmetry_space_group_name_H-M "C 2/C"
_symmetry_group_IT_number 15
_symmetry_cell_setting 'monoclinic'
loop_
_space_group_symop_operation_xyz
x,y,z
-x,y,1/2-z
-x,-y,-z
x,-y,1/2+z
1/2+x,1/2+y,z
1/2-x,1/2+y,1/2-z
1/2-x,1/2-y,-z
1/2+x,1/2-y,1/2+z
loop_
_atom_site_type_symbol
_atom_site_label
_atom_site_fract_x
_atom_site_fract_y
_atom_site_fract_z
Si Si1 0.594770 0.613416 0.848739
Si Si2 0.494914 0.396325 0.526983
Si Si3 0.000000 0.850854 0.750000
Si Si4 0.228358 0.962338 0.618380
Si Si5 0.855265 0.737052 0.353611
O O1 0.432663 0.540780 0.845435
O O2 0.335708 0.680412 0.875222
O O3 0.000000 0.626934 0.750000
O O4 0.616613 0.607929 0.927420
O O5 0.745904 0.441923 0.534769
O O6 0.451759 0.317336 0.567703
O O7 0.103187 0.438372 0.590850
O O8 0.927318 0.907039 0.701368
O O9 0.298090 0.797739 0.667263
O O10 0.000000 0.730620 0.250000
#
# Coordination Sequence:
#
# PCOD9293551 Si02
#       5
#     8   8   4   8   8
#     4  12  28  45  73 114 148 188 249 314 357 426
#     4  11  26  52  75 106 148 202 240 294 373 446
#     4  10  22  46  68 104 140 196 238 290 368 436
#     4  11  26  47  79 103 148 190 248 299 368 434
#     4  11  23  45  72 106 145 196 244 297 364 436
#
# _framework density 27.104555000000001
#
# number of rings (size 3 to 8) (size 9 to 14) (size 15 to 20)
#    0.000    0.889    3.333    2.000    7.778    1.778 
#    0.000    4.444    0.000    0.000    0.000    0.000 
#    0.000    0.000    0.000    0.000    0.000    0.000 
#
# Total GULP energy -100881.121141 kJ/mol
# GULP energy per Si atom -5604.506730 kJ/mol
# Density = 2.704286 g / cm^3
# Si number density = 27.104555 Si / 1000 Ang^3
#
#
#
# Elastic Constant Matrix: (Units=GPa)
#
#
# Indices 1 2 3 4 5 6 
#
# 1 111.4568 43.5926 26.5873 0.0000 2.5851 0.0000
# 2 43.5926 248.8501 28.1847 0.0000 6.0197 0.0000
# 3 26.5873 28.1847 127.5694 0.0000 18.1445 0.0000
# 4 0.0000 0.0000 0.0000 36.8409 0.0000 1.8093
# 5 2.5851 6.0197 18.1445 0.0000 48.5313 0.0000
# 6 0.0000 0.0000 0.0000 1.8093 0.0000 37.7473
#
#
#
# Elastic Compliance Matrix: (Units=1/GPa)
#
#
# Indices 1 2 3 4 5 6 
#
# 1 0.010000 -0.001557 -0.001787 0.000000 0.000329 0.000000
# 2 -0.001557 0.004366 -0.000607 0.000000 -0.000232 0.000000
# 3 -0.001787 -0.000607 0.008788 0.000000 -0.003115 0.000000
# 4 0.000000 0.000000 0.000000 0.027208 0.000000 -0.001304
# 5 0.000329 -0.000232 -0.003115 0.000000 0.021781 0.000000
# 6 0.000000 0.000000 0.000000 -0.001304 0.000000 0.026554
#
#
# Mechanical properties :
#
#
# Convention : Reuss Voigt Hill
#
# Bulk Modulus (GPa) = 65.56642 76.06729 70.81685
# Shear Modulus (GPa) = 44.76940 50.59134 47.68037
#
# Velocity S-wave (km/s) = 4.06856 4.32502 4.19875
# Velocity P-wave (km/s) = 6.80541 7.28467 7.04911
#
# Compressibility (1/GPa) = 0.01525171
#
# Stress axis : x y z
#
# Youngs Moduli (GPa) = 100.00233 229.06157 113.78553
#
# Poissons Ratio (x) = 0.35672 0.20331
# Poissons Ratio (y) = 0.15573 0.06907
# Poissons Ratio (z) = 0.17868 0.13905
#
# Static dielectric constant tensor:
#      x y z
#    x 2.230250 0.000000 -0.066190 
#    y 0.000000 2.055600 0.000000 
#    z -0.066190 0.000000 2.195570 
# 
# From -- ./inp_files/260596.got.cif
#   From: 2010.05.17/outbox.cif.g08.bks.cpg/sg15_131_cif.got.tgz:260596.got - 2010.06.03 18:47:42.
