data_PCOD9293211
_publ_section_title
;
Structure prediction by ZEFSAII (Michael W. Deem and Ramdas Pophale) SiO2 
 PCOD9293211
Probable space group: C 2/C
;
_chemical_formula_sum "Si O2"
_cell_formula_units_Z 52
_cell_length_a 30.746152
_cell_length_b 8.661614
_cell_length_c 15.752621
_cell_angle_alpha 90.000000
_cell_angle_beta 142.519475
_cell_angle_gamma 90.000000
_cell_volume 2552.684260
_symmetry_space_group_name_H-M "C 2/C"
_symmetry_group_IT_number 15
_symmetry_cell_setting 'monoclinic'
loop_
_space_group_symop_operation_xyz
x,y,z
-x,y,1/2-z
-x,-y,-z
x,-y,1/2+z
1/2+x,1/2+y,z
1/2-x,1/2+y,1/2-z
1/2-x,1/2-y,-z
1/2+x,1/2-y,1/2+z
loop_
_atom_site_type_symbol
_atom_site_label
_atom_site_fract_x
_atom_site_fract_y
_atom_site_fract_z
Si Si1 0.720946 0.180910 0.866156
Si Si2 0.042439 0.657496 0.976165
Si Si3 0.769267 0.826139 0.941861
Si Si4 0.000000 0.185415 0.250000
Si Si5 0.192966 0.187057 0.667387
Si Si6 0.609543 0.575571 0.971008
Si Si7 0.563210 0.797186 0.045424
O O1 0.770040 0.236948 0.863267
O O2 0.638122 0.214479 0.713923
O O3 0.732671 0.995253 0.884788
O O4 0.750000 0.250000 0.000000
O O5 0.993132 0.705927 0.820669
O O6 0.004404 0.734618 0.998562
O O7 0.120519 0.723246 0.077528
O O8 0.051567 0.475180 0.001085
O O9 0.743295 0.719717 0.824331
O O10 0.853085 0.846627 0.051616
O O11 0.750000 0.750000 0.000000
O O12 0.064142 0.067539 0.366561
O O13 0.171928 0.008199 0.622170
O O14 0.568830 0.689008 0.971475
#
# Coordination Sequence:
#
# PCOD9293211 Si02
#       7
#     8   8   8   4   8   8   8
#     4  11  25  40  67  98 130 173 224 270 326 392
#     4  10  24  42  66  92 132 174 212 276 322 392
#     4  11  24  40  64  98 129 171 221 266 332 390
#     4  10  24  46  64  94 130 170 230 262 332 386
#     4  10  22  45  63  94 135 172 215 270 331 381
#     4  10  24  41  68  94 129 177 214 276 322 389
#     4  11  23  43  65  97 130 174 218 263 340 385
#
# _framework density 20.370715000000001
#
# number of rings (size 3 to 8) (size 9 to 14) (size 15 to 20)
#    0.000    1.538    3.077    0.000    8.615    5.538 
#    0.000    0.000    0.000    0.000    0.000    0.000 
#    0.000    0.000    0.000    0.000    0.000    0.000 
#
# Total GULP energy -145092.427772 kJ/mol
# GULP energy per Si atom -5580.477991 kJ/mol
# Density = 2.032435 g / cm^3
# Si number density = 20.370715 Si / 1000 Ang^3
#
#
#
# Elastic Constant Matrix: (Units=GPa)
#
#
# Indices 1 2 3 4 5 6 
#
# 1 154.4434 37.0162 46.1814 0.0000 -18.6310 0.0000
# 2 37.0162 46.0078 25.0480 0.0000 -5.7871 0.0000
# 3 46.1814 25.0480 73.6513 0.0000 -6.7323 0.0000
# 4 0.0000 0.0000 0.0000 34.0403 0.0000 -3.2423
# 5 -18.6310 -5.7871 -6.7323 0.0000 29.9160 0.0000
# 6 0.0000 0.0000 0.0000 -3.2423 0.0000 30.8628
#
#
#
# Elastic Compliance Matrix: (Units=1/GPa)
#
#
# Indices 1 2 3 4 5 6 
#
# 1 0.009255 -0.004891 -0.003777 0.000000 0.003968 0.000000
# 2 -0.004891 0.029559 -0.006883 0.000000 0.001123 0.000000
# 3 -0.003777 -0.006883 0.018327 0.000000 0.000440 0.000000
# 4 0.000000 0.000000 0.000000 0.029674 0.000000 0.003117
# 5 0.003968 0.001123 0.000440 0.000000 0.036214 0.000000
# 6 0.000000 0.000000 0.000000 0.003117 0.000000 0.032729
#
#
# Mechanical properties :
#
#
# Convention : Reuss Voigt Hill
#
# Bulk Modulus (GPa) = 38.40459 54.51041 46.45750
# Shear Modulus (GPa) = 25.57005 30.02097 27.79551
#
# Velocity S-wave (km/s) = 3.54677 3.84309 3.69790
# Velocity P-wave (km/s) = 5.97215 6.81980 6.41000
#
# Compressibility (1/GPa) = 0.02603855
#
# Stress axis : x y z
#
# Youngs Moduli (GPa) = 108.04754 33.83034 54.56383
#
# Poissons Ratio (x) = 0.16546 0.20610
# Poissons Ratio (y) = 0.52844 0.37559
# Poissons Ratio (z) = 0.40812 0.23287
#
# Static dielectric constant tensor:
#      x y z
#    x 1.741090 0.000000 0.037570 
#    y 0.000000 1.718020 0.000000 
#    z 0.037570 0.000000 1.823220 
# 
# From -- ./inp_files/181202.got.cif
#   From: 2010.05.17/outbox.cif.g08.bks.cpg/sg15_91_cif.got.tgz:181202.got - 2010.06.03 18:47:42.
