data_PCOD9293259
_publ_section_title
;
Structure prediction by ZEFSAII (Michael W. Deem and Ramdas Pophale) SiO2 
 PCOD9293259
Probable space group: C 2/C
;
_chemical_formula_sum "Si O2"
_cell_formula_units_Z 48
_cell_length_a 14.296726
_cell_length_b 12.340988
_cell_length_c 25.520720
_cell_angle_alpha 90.000000
_cell_angle_beta 152.165720
_cell_angle_gamma 90.000000
_cell_volume 2102.412924
_symmetry_space_group_name_H-M "C 2/C"
_symmetry_group_IT_number 15
_symmetry_cell_setting 'monoclinic'
loop_
_space_group_symop_operation_xyz
x,y,z
-x,y,1/2-z
-x,-y,-z
x,-y,1/2+z
1/2+x,1/2+y,z
1/2-x,1/2+y,1/2-z
1/2-x,1/2-y,-z
1/2+x,1/2-y,1/2+z
loop_
_atom_site_type_symbol
_atom_site_label
_atom_site_fract_x
_atom_site_fract_y
_atom_site_fract_z
Si Si1 0.782978 0.119180 0.866146
Si Si2 0.613440 0.319244 0.357396
Si Si3 0.250250 0.075702 0.079370
Si Si4 0.721259 0.861119 0.220029
Si Si5 0.395610 0.013478 0.037672
Si Si6 0.659079 0.218981 0.011218
O O1 0.679653 0.153105 0.760958
O O2 0.707890 0.005745 0.852341
O O3 0.774690 0.207067 0.908276
O O4 0.014050 0.098352 0.966160
O O5 0.500000 0.361278 0.250000
O O6 0.645933 0.191978 0.368510
O O7 0.452532 0.344169 0.322836
O O8 0.822395 0.379201 0.472430
O O9 0.310671 0.020465 0.054486
O O10 0.583440 0.779117 0.117832
O O11 0.628373 0.978642 0.158044
O O12 0.300167 0.909051 0.961567
O O13 0.750000 0.250000 0.000000
#
# Coordination Sequence:
#
# PCOD9293259 Si02
#       6
#     8   8   8   8   8   8
#     4  11  22  46  74 109 136 199 238 305 367 415
#     4  12  26  48  70 108 146 194 239 303 375 431
#     4  11  24  43  76 101 147 182 255 298 344 448
#     4  10  25  45  73 107 143 196 242 296 370 430
#     4  10  24  47  68 107 146 185 242 302 351 452
#     4  10  22  45  67 103 150 180 245 297 351 439
#
# _framework density 22.830909999999999
#
# number of rings (size 3 to 8) (size 9 to 14) (size 15 to 20)
#    1.000    0.333    3.333    1.500    2.333    2.667 
#    6.000    0.000    0.000    0.000    0.000    0.000 
#    0.000    0.000    0.000    0.000    0.000    0.000 
#
# Total GULP energy -134048.055310 kJ/mol
# GULP energy per Si atom -5585.335638 kJ/mol
# Density = 2.277895 g / cm^3
# Si number density = 22.830910 Si / 1000 Ang^3
#
#
#
# Elastic Constant Matrix: (Units=GPa)
#
#
# Indices 1 2 3 4 5 6 
#
# 1 81.9545 50.5417 28.8599 0.0000 -18.5632 0.0000
# 2 50.5417 131.6236 36.2396 0.0001 -7.8815 0.0000
# 3 28.8599 36.2396 83.7578 0.0001 2.0871 -0.0001
# 4 0.0000 0.0001 0.0001 -3.2391 0.0000 28.2670
# 5 -18.5632 -7.8815 2.0871 0.0000 45.9738 0.0000
# 6 0.0000 0.0000 -0.0001 28.2670 0.0000 18.6401
#
#
#
# Elastic Compliance Matrix: (Units=1/GPa)
#
#
# Indices 1 2 3 4 5 6 
#
# 1 0.018664 -0.005614 -0.004171 0.000000 0.006763 0.000000
# 2 -0.005614 0.010440 -0.002574 0.000000 -0.000360 0.000000
# 3 -0.004171 -0.002574 0.014559 0.000000 -0.002786 0.000000
# 4 0.000000 0.000000 0.000000 -0.021690 0.000000 0.032892
# 5 0.006763 -0.000360 -0.002786 0.000000 0.024547 0.000000
# 6 0.000000 0.000000 0.000000 0.032892 0.000000 0.003769
#
#
# Mechanical properties :
#
#
# Convention : Reuss Voigt Hill
#
# Bulk Modulus (GPa) = 52.77785 58.73535 55.75660
# Shear Modulus (GPa) = 61.48336 24.38793 42.93565
#
# Velocity S-wave (km/s) = 5.19503 3.27188 4.34128
# Velocity P-wave (km/s) = 7.69100 6.32895 7.04298
#
# Compressibility (1/GPa) = 0.01894734
#
# Stress axis : x y z
#
# Youngs Moduli (GPa) = 53.57772 95.78475 68.68422
#
# Poissons Ratio (x) = 0.53770 0.28647
# Poissons Ratio (y) = 0.30076 0.17679
# Poissons Ratio (z) = 0.22346 0.24654
#
# Static dielectric constant tensor:
#      x y z
#    x 1.879680 0.000000 0.012480 
#    y 0.000000 1.824780 0.000000 
#    z 0.012480 0.000000 1.886290 
# 
# From -- ./inp_files/313634.got.cif
#   From: 2010.05.17/outbox.cif.g08.bks.cpg/sg15_157_cif.got.tgz:313634.got - 2010.06.03 18:47:42.
