data_PCOD9293845
_publ_section_title
;
Structure prediction by ZEFSAII (Michael W. Deem and Ramdas Pophale) SiO2 
 PCOD9293845
Probable space group: C 2/C
;
_chemical_formula_sum "Si O2"
_cell_formula_units_Z 40
_cell_length_a 8.358871
_cell_length_b 22.923533
_cell_length_c 13.835636
_cell_angle_alpha 90.000000
_cell_angle_beta 41.025444
_cell_angle_gamma 90.000000
_cell_volume 1740.175232
_symmetry_space_group_name_H-M "C 2/C"
_symmetry_group_IT_number 15
_symmetry_cell_setting 'monoclinic'
loop_
_space_group_symop_operation_xyz
x,y,z
-x,y,1/2-z
-x,-y,-z
x,-y,1/2+z
1/2+x,1/2+y,z
1/2-x,1/2+y,1/2-z
1/2-x,1/2-y,-z
1/2+x,1/2-y,1/2+z
loop_
_atom_site_type_symbol
_atom_site_label
_atom_site_fract_x
_atom_site_fract_y
_atom_site_fract_z
Si Si1 0.954506 0.318177 0.501794
Si Si2 0.688858 0.237512 0.241900
Si Si3 0.000000 0.408255 0.250000
Si Si4 0.458448 0.361808 0.925740
Si Si5 0.778576 0.566442 0.644312
Si Si6 0.000000 0.042605 0.250000
O O1 0.113552 0.288669 0.345641
O O2 0.050455 0.383456 0.478613
O O3 0.946959 0.277799 0.598126
O O4 0.681939 0.322702 0.588765
O O5 0.500000 0.258963 0.250000
O O6 0.816170 0.177652 0.146193
O O7 0.117354 0.438394 0.292886
O O8 0.756477 0.376245 0.401357
O O9 0.532440 0.418949 0.831229
O O10 0.500000 0.589752 0.750000
O O11 0.730341 0.500575 0.629592
#
# Coordination Sequence:
#
# PCOD9293845 Si02
#       6
#     8   8   4   8   8   4
#     4  11  24  44  69 100 141 188 228 288 354 417
#     4  12  26  41  71 103 143 179 235 288 355 420
#     4  10  24  40  71 100 139 180 240 278 356 418
#     4  11  24  46  67 106 132 187 236 284 355 418
#     4   9  23  44  71  97 145 183 234 288 346 412
#     4  10  22  48  73  94 143 186 236 290 348 412
#
# _framework density 22.986190000000001
#
# number of rings (size 3 to 8) (size 9 to 14) (size 15 to 20)
#    0.600    0.800    2.000    1.800    8.400    4.000 
#    1.800    0.000    0.000    0.000    0.000    0.000 
#    0.000    0.000    0.000    0.000    0.000    0.000 
#
# Total GULP energy -111470.824076 kJ/mol
# GULP energy per Si atom -5573.541204 kJ/mol
# Density = 2.293387 g / cm^3
# Si number density = 22.986190 Si / 1000 Ang^3
#
#
#
# Elastic Constant Matrix: (Units=GPa)
#
#
# Indices 1 2 3 4 5 6 
#
# 1 65.3959 0.0202 -4.5142 0.0000 -4.4564 0.0000
# 2 0.0202 113.6456 40.3216 0.0000 2.0332 0.0000
# 3 -4.5142 40.3216 97.0694 0.0000 2.9344 0.0000
# 4 0.0000 0.0000 0.0000 26.5433 0.0000 -13.7322
# 5 -4.4564 2.0332 2.9344 0.0000 33.5240 0.0000
# 6 0.0000 0.0000 0.0000 -13.7322 0.0000 9.5746
#
#
#
# Elastic Compliance Matrix: (Units=1/GPa)
#
#
# Indices 1 2 3 4 5 6 
#
# 1 0.015483 -0.000320 0.000792 0.000000 0.002008 0.000000
# 2 -0.000320 0.010329 -0.004297 0.000000 -0.000293 0.000000
# 3 0.000792 -0.004297 0.012145 0.000000 -0.000697 0.000000
# 4 0.000000 0.000000 0.000000 0.146024 0.000000 0.209432
# 5 0.002008 -0.000293 -0.000697 0.000000 0.030175 0.000000
# 6 0.000000 0.000000 0.000000 0.209432 0.000000 0.404816
#
#
# Mechanical properties :
#
#
# Convention : Reuss Voigt Hill
#
# Bulk Modulus (GPa) = 32.99419 38.64067 35.81743
# Shear Modulus (GPa) = 7.85271 29.94729 18.90000
#
# Velocity S-wave (km/s) = 1.85032 3.61340 2.87057
# Velocity P-wave (km/s) = 4.35316 5.85284 5.15780
#
# Compressibility (1/GPa) = 0.03030837
#
# Stress axis : x y z
#
# Youngs Moduli (GPa) = 64.58648 96.81475 82.34132
#
# Poissons Ratio (x) = 0.03096 -0.06523
# Poissons Ratio (y) = 0.02065 0.35379
# Poissons Ratio (z) = -0.05116 0.41597
#
# Static dielectric constant tensor:
#      x y z
#    x 1.880150 0.000000 0.002890 
#    y 0.000000 1.871940 0.000000 
#    z 0.002890 0.000000 1.909610 
# 
# From -- ./inp_files/137138.got.cif
#   From: 2010.05.17/outbox.cif.g08.bks.cpg/sg15_69_cif.got.tgz:137138.got - 2010.06.03 18:47:42.
