data_PCOD9293468
_publ_section_title
;
Structure prediction by ZEFSAII (Michael W. Deem and Ramdas Pophale) SiO2 
 PCOD9293468
Probable space group: C 2/C
;
_chemical_formula_sum "Si O2"
_cell_formula_units_Z 44
_cell_length_a 15.258059
_cell_length_b 11.631332
_cell_length_c 10.375855
_cell_angle_alpha 90.000000
_cell_angle_beta 84.999244
_cell_angle_gamma 90.000000
_cell_volume 1834.409795
_symmetry_space_group_name_H-M "C 2/C"
_symmetry_group_IT_number 15
_symmetry_cell_setting 'monoclinic'
loop_
_space_group_symop_operation_xyz
x,y,z
-x,y,1/2-z
-x,-y,-z
x,-y,1/2+z
1/2+x,1/2+y,z
1/2-x,1/2+y,1/2-z
1/2-x,1/2-y,-z
1/2+x,1/2-y,1/2+z
loop_
_atom_site_type_symbol
_atom_site_label
_atom_site_fract_x
_atom_site_fract_y
_atom_site_fract_z
Si Si1 0.285864 0.186393 0.218318
Si Si2 0.414093 0.280123 0.395493
Si Si3 0.500000 0.145868 0.750000
Si Si4 0.335261 0.858822 0.129177
Si Si5 0.683188 0.491868 0.608791
Si Si6 0.595818 0.727138 0.002502
O O1 0.366502 0.190365 0.306977
O O2 0.228070 0.299140 0.257955
O O3 0.220433 0.078997 0.226450
O O4 0.328427 0.196532 0.071644
O O5 0.369567 0.245655 0.537250
O O6 0.385878 0.407242 0.357482
O O7 0.516924 0.276605 0.409006
O O8 0.578243 0.083750 0.818981
O O9 0.552987 0.221745 0.638040
O O10 0.272160 0.941561 0.055497
O O11 0.637048 0.397156 0.526133
#
# Coordination Sequence:
#
# PCOD9293468 Si02
#       6
#     8   8   4   8   8   8
#     4  11  22  41  65  98 127 162 214 266 311 373
#     4  10  24  44  64  95 135 167 203 267 322 374
#     4  10  22  46  60  88 136 170 200 268 324 370
#     4  10  23  43  64  92 135 168 207 262 323 375
#     4  11  22  40  69  98 121 171 216 258 315 384
#     4  11  23  44  66  93 131 163 217 266 312 373
#
# _framework density 23.985917000000001
#
# number of rings (size 3 to 8) (size 9 to 14) (size 15 to 20)
#    0.000    1.455    1.818    3.818    0.000    5.818 
#    9.818    1.818    0.000    0.000    0.000    0.000 
#    0.000    0.000    0.000    0.000    0.000    0.000 
#
# Total GULP energy -122819.347750 kJ/mol
# GULP energy per Si atom -5582.697625 kJ/mol
# Density = 2.393132 g / cm^3
# Si number density = 23.985917 Si / 1000 Ang^3
#
#
#
# Elastic Constant Matrix: (Units=GPa)
#
#
# Indices 1 2 3 4 5 6 
#
# 1 156.6271 5.0383 27.2759 0.0000 29.6617 0.0000
# 2 5.0383 47.8155 1.0890 0.0000 1.0095 0.0000
# 3 27.2759 1.0890 83.8510 0.0000 -12.2921 0.0000
# 4 0.0000 0.0000 0.0000 20.2380 0.0000 14.3531
# 5 29.6617 1.0095 -12.2921 0.0000 52.3034 0.0000
# 6 0.0000 0.0000 0.0000 14.3531 0.0000 40.9116
#
#
#
# Elastic Compliance Matrix: (Units=1/GPa)
#
#
# Indices 1 2 3 4 5 6 
#
# 1 0.008000 -0.000654 -0.003373 0.000000 -0.005317 0.000000
# 2 -0.000654 0.020985 -0.000067 0.000000 -0.000050 0.000000
# 3 -0.003373 -0.000067 0.013779 0.000000 0.005153 0.000000
# 4 0.000000 0.000000 0.000000 0.065779 0.000000 -0.023077
# 5 -0.005317 -0.000050 0.005153 0.000000 0.023346 0.000000
# 6 0.000000 0.000000 0.000000 -0.023077 0.000000 0.032539
#
#
# Mechanical properties :
#
#
# Convention : Reuss Voigt Hill
#
# Bulk Modulus (GPa) = 28.92180 39.45557 34.18868
# Shear Modulus (GPa) = 27.15283 39.68331 33.41807
#
# Velocity S-wave (km/s) = 3.36822 4.07190 3.73666
# Velocity P-wave (km/s) = 5.21637 6.21227 5.73598
#
# Compressibility (1/GPa) = 0.03457600
#
# Stress axis : x y z
#
# Youngs Moduli (GPa) = 125.00027 47.65262 72.57188
#
# Poissons Ratio (x) = 0.03116 0.24480
# Poissons Ratio (y) = 0.08173 0.00487
# Poissons Ratio (z) = 0.42166 0.00320
#
# Static dielectric constant tensor:
#      x y z
#    x 1.916640 0.000000 0.049980 
#    y 0.000000 1.920190 0.000000 
#    z 0.049980 0.000000 1.958830 
# 
# From -- ./inp_files/94976.got.cif
#   From: 2010.05.17/outbox.cif.g08.bks.cpg/sg15_48_cif.got.tgz:94976.got - 2010.06.03 18:47:42.
