data_PCOD9293712
_publ_section_title
;
Structure prediction by ZEFSAII (Michael W. Deem and Ramdas Pophale) SiO2 
 PCOD9293712
Probable space group: C 2/C
;
_chemical_formula_sum "Si O2"
_cell_formula_units_Z 40
_cell_length_a 10.913646
_cell_length_b 16.576179
_cell_length_c 8.729010
_cell_angle_alpha 90.000000
_cell_angle_beta 102.369194
_cell_angle_gamma 90.000000
_cell_volume 1542.479555
_symmetry_space_group_name_H-M "C 2/C"
_symmetry_group_IT_number 15
_symmetry_cell_setting 'monoclinic'
loop_
_space_group_symop_operation_xyz
x,y,z
-x,y,1/2-z
-x,-y,-z
x,-y,1/2+z
1/2+x,1/2+y,z
1/2-x,1/2+y,1/2-z
1/2-x,1/2-y,-z
1/2+x,1/2-y,1/2+z
loop_
_atom_site_type_symbol
_atom_site_label
_atom_site_fract_x
_atom_site_fract_y
_atom_site_fract_z
Si Si1 0.511192 0.145013 0.977055
Si Si2 0.197716 0.332761 0.295529
Si Si3 0.887987 0.937805 0.918542
Si Si4 0.748059 0.552191 0.436402
Si Si5 0.397869 0.711974 0.614841
O O1 0.402128 0.116603 0.832760
O O2 0.604803 0.203932 0.899946
O O3 0.609472 0.078848 0.061861
O O4 0.445322 0.200167 0.083098
O O5 0.282344 0.388538 0.427018
O O6 0.276616 0.284180 0.192407
O O7 0.844262 0.942169 0.731584
O O8 0.900482 0.845005 0.968516
O O9 0.771096 0.966096 0.992691
O O10 0.000000 0.000000 0.000000
O O11 0.500000 0.670410 0.750000
#
# Coordination Sequence:
#
# PCOD9293712 Si02
#       5
#     8   8   8   8   8
#     4   9  23  46  73 111 152 200 254 333 394 465
#     4   9  21  48  72 104 158 196 258 321 392 469
#     4  12  25  46  72 109 150 209 265 325 391 477
#     4  10  22  46  75 107 154 200 263 324 393 467
#     4  12  25  44  75 109 152 206 266 323 395 472
#
# _framework density 25.932272000000001
#
# number of rings (size 3 to 8) (size 9 to 14) (size 15 to 20)
#    1.200    0.400    0.000    4.800    0.000    4.000 
#   14.400    9.000    0.000    0.000    0.000    0.000 
#    0.000    0.000    0.000    0.000    0.000    0.000 
#
# Total GULP energy -111538.132000 kJ/mol
# GULP energy per Si atom -5576.906600 kJ/mol
# Density = 2.587325 g / cm^3
# Si number density = 25.932272 Si / 1000 Ang^3
#
#
#
# Elastic Constant Matrix: (Units=GPa)
#
#
# Indices 1 2 3 4 5 6 
#
# 1 138.8011 40.7209 63.6241 0.0000 -0.2939 0.0000
# 2 40.7209 70.2656 37.9285 0.0000 10.0051 0.0000
# 3 63.6241 37.9285 159.3108 0.0000 26.3137 0.0000
# 4 0.0000 0.0000 0.0000 17.1280 0.0000 -6.0084
# 5 -0.2939 10.0051 26.3137 0.0000 47.9501 0.0000
# 6 0.0000 0.0000 0.0000 -6.0084 0.0000 43.0092
#
#
#
# Elastic Compliance Matrix: (Units=1/GPa)
#
#
# Indices 1 2 3 4 5 6 
#
# 1 0.010082 -0.004386 -0.003457 0.000000 0.002874 0.000000
# 2 -0.004386 0.018324 -0.002172 0.000000 -0.002659 0.000000
# 3 -0.003457 -0.002172 0.008911 0.000000 -0.004458 0.000000
# 4 0.000000 0.000000 0.000000 0.061392 0.000000 0.008577
# 5 0.002874 -0.002659 -0.004458 0.000000 0.023874 0.000000
# 6 0.000000 0.000000 0.000000 0.008577 0.000000 0.024449
#
#
# Mechanical properties :
#
#
# Convention : Reuss Voigt Hill
#
# Bulk Modulus (GPa) = 57.84424 72.54717 65.19570
# Shear Modulus (GPa) = 28.93096 36.69106 32.81101
#
# Velocity S-wave (km/s) = 3.34374 3.76557 3.56091
# Velocity P-wave (km/s) = 6.10424 6.85145 6.48861
#
# Compressibility (1/GPa) = 0.01728781
#
# Stress axis : x y z
#
# Youngs Moduli (GPa) = 99.18659 54.57189 112.21968
#
# Poissons Ratio (x) = 0.23935 0.38794
# Poissons Ratio (y) = 0.43504 0.24373
# Poissons Ratio (z) = 0.34288 0.11852
#
# Static dielectric constant tensor:
#      x y z
#    x 2.188820 0.000000 0.045400 
#    y 0.000000 2.013130 0.000000 
#    z 0.045400 0.000000 2.062110 
# 
# From -- ./inp_files/30442.got.cif
#   From: 2010.05.17/outbox.cif.g08.bks.cpg/sg15_16_cif.got.tgz:30442.got - 2010.06.03 18:47:42.
