data_PCOD9293046
_publ_section_title
;
Structure prediction by ZEFSAII (Michael W. Deem and Ramdas Pophale) SiO2 
 PCOD9293046
Probable space group: C 2/C
;
_chemical_formula_sum "Si O2"
_cell_formula_units_Z 36
_cell_length_a 12.334246
_cell_length_b 5.348291
_cell_length_c 28.216327
_cell_angle_alpha 90.000000
_cell_angle_beta 47.877507
_cell_angle_gamma 90.000000
_cell_volume 1380.586955
_symmetry_space_group_name_H-M "C 2/C"
_symmetry_group_IT_number 15
_symmetry_cell_setting 'monoclinic'
loop_
_space_group_symop_operation_xyz
x,y,z
-x,y,1/2-z
-x,-y,-z
x,-y,1/2+z
1/2+x,1/2+y,z
1/2-x,1/2+y,1/2-z
1/2-x,1/2-y,-z
1/2+x,1/2-y,1/2+z
loop_
_atom_site_type_symbol
_atom_site_label
_atom_site_fract_x
_atom_site_fract_y
_atom_site_fract_z
Si Si1 0.309035 0.052420 0.153745
Si Si2 0.020587 0.052967 0.571408
Si Si3 0.161328 0.254183 0.446831
Si Si4 0.411657 0.169167 0.876248
Si Si5 0.500000 0.366885 0.750000
O O1 0.299645 0.975457 0.100979
O O2 0.434721 0.914143 0.145693
O O3 0.371285 0.335007 0.136848
O O4 0.148827 0.994299 0.220961
O O5 0.098720 0.273863 0.518446
O O6 0.972131 0.859020 0.545601
O O7 0.117586 0.914575 0.582159
O O8 0.289898 0.047096 0.413602
O O9 0.446830 0.216223 0.811137
#
# Coordination Sequence:
#
# PCOD9293046 Si02
#       5
#     8   8   8   8   4
#     4  11  26  43  69 100 134 188 229 285 354 420
#     4  10  22  45  70 106 135 173 232 290 358 418
#     4  10  22  44  72 102 140 172 228 294 355 421
#     4  11  26  43  69 101 134 187 229 289 351 422
#     4  12  28  46  64  94 144 178 236 282 336 416
#
# _framework density 26.075863999999999
#
# number of rings (size 3 to 8) (size 9 to 14) (size 15 to 20)
#    0.000    1.333    2.222    1.333    6.222    1.778 
#    0.000    0.000    0.000    0.000    0.000    0.000 
#    0.000    0.000    0.000    0.000    0.000    0.000 
#
# Total GULP energy -100576.146930 kJ/mol
# GULP energy per Si atom -5587.563718 kJ/mol
# Density = 2.601651 g / cm^3
# Si number density = 26.075864 Si / 1000 Ang^3
#
#
#
# Elastic Constant Matrix: (Units=GPa)
#
#
# Indices 1 2 3 4 5 6 
#
# 1 173.2858 22.9543 46.2684 -0.0122 2.9395 0.0309
# 2 22.9543 68.8922 26.8658 -0.1157 3.8096 -0.2149
# 3 46.2684 26.8658 118.0123 -0.0850 -12.0414 -0.0803
# 4 -0.0122 -0.1157 -0.0850 19.5929 -0.0278 -1.8264
# 5 2.9395 3.8096 -12.0414 -0.0278 54.5949 -0.0257
# 6 0.0309 -0.2149 -0.0803 -1.8264 -0.0257 50.2660
#
#
#
# Elastic Compliance Matrix: (Units=1/GPa)
#
#
# Indices 1 2 3 4 5 6 
#
# 1 0.006582 -0.001220 -0.002384 -0.000016 -0.000795 -0.000014
# 2 -0.001220 0.016363 -0.003434 0.000085 -0.001833 0.000067
# 3 -0.002384 -0.003434 0.010463 0.000028 0.002676 0.000006
# 4 -0.000016 0.000085 0.000028 0.051213 0.000028 0.001861
# 5 -0.000795 -0.001833 0.002676 0.000028 0.019078 0.000008
# 6 -0.000014 0.000067 0.000006 0.001861 0.000008 0.019962
#
#
# Mechanical properties :
#
#
# Convention : Reuss Voigt Hill
#
# Bulk Modulus (GPa) = 51.72487 61.37414 56.54950
# Shear Modulus (GPa) = 34.67869 42.49755 38.58812
#
# Velocity S-wave (km/s) = 3.65076 4.04142 3.85104
# Velocity P-wave (km/s) = 6.13596 6.73537 6.44264
#
# Compressibility (1/GPa) = 0.01933306
#
# Stress axis : x y z
#
# Youngs Moduli (GPa) = 151.91870 61.11499 95.57257
#
# Poissons Ratio (x) = 0.07453 0.22787
# Poissons Ratio (y) = 0.18527 0.32818
# Poissons Ratio (z) = 0.36222 0.20986
#
# Static dielectric constant tensor:
#      x y z
#    x 2.069950 -0.000030 -0.068160 
#    y -0.000030 2.204110 -0.000080 
#    z -0.068160 -0.000080 2.030200 
# 
# From -- ./inp_files/241465.got.cif
#   From: 2010.05.17/outbox.cif.g08.bks.cpg/sg15_121_cif.got.tgz:241465.got - 2010.06.03 18:47:42.
