data_PCOD9293678
_publ_section_title
;
Structure prediction by ZEFSAII (Michael W. Deem and Ramdas Pophale) SiO2 
 PCOD9293678
Probable space group: C 2/C
;
_chemical_formula_sum "Si O2"
_cell_formula_units_Z 48
_cell_length_a 15.332250
_cell_length_b 20.294917
_cell_length_c 12.541043
_cell_angle_alpha 90.000000
_cell_angle_beta 144.880450
_cell_angle_gamma 90.000000
_cell_volume 2244.964157
_symmetry_space_group_name_H-M "C 2/C"
_symmetry_group_IT_number 15
_symmetry_cell_setting 'monoclinic'
loop_
_space_group_symop_operation_xyz
x,y,z
-x,y,1/2-z
-x,-y,-z
x,-y,1/2+z
1/2+x,1/2+y,z
1/2-x,1/2+y,1/2-z
1/2-x,1/2-y,-z
1/2+x,1/2-y,1/2+z
loop_
_atom_site_type_symbol
_atom_site_label
_atom_site_fract_x
_atom_site_fract_y
_atom_site_fract_z
Si Si1 0.485873 0.250000 0.985875
Si Si2 0.622389 0.450579 0.575348
Si Si3 0.122389 0.450579 0.169429
Si Si4 0.258081 0.333951 0.159283
Si Si5 0.258082 0.833951 0.856878
Si Si6 0.500000 0.626535 0.750000
Si Si7 0.000000 0.373464 0.250000
O O1 0.600104 0.308124 0.129301
O O2 0.600104 0.191875 0.070909
O O3 0.373671 0.221188 0.963831
O O4 0.373670 0.278812 0.783513
O O5 0.500000 0.500000 0.500000
O O6 0.750000 0.500000 0.661516
O O7 0.690077 0.399462 0.731627
O O8 0.548232 0.413731 0.402082
O O9 0.190077 0.399462 0.148527
O O10 0.048234 0.413731 0.194385
O O11 0.000000 0.500000 0.000000
O O12 0.341407 0.339909 0.128935
O O13 0.341408 0.839909 0.053879
#
# Coordination Sequence:
#
# PCOD9293678 Si02
#       7
#     8   8   8   8   8   4   4
#     4  10  22  46  72  94 154 174 226 306 330 416
#     4  12  25  46  69 102 143 177 233 297 346 424
#     4  12  25  46  69 102 143 177 233 297 346 424
#     4  11  23  46  68 106 136 186 231 287 347 416
#     4  11  23  46  68 106 136 186 231 287 347 416
#     4  12  26  42  74 104 132 196 232 274 376 408
#     4  12  26  42  74 104 132 196 232 274 376 408
#
# _framework density 21.381188000000002
#
# number of rings (size 3 to 8) (size 9 to 14) (size 15 to 20)
#    0.000    0.667    6.667    0.000    4.667    1.333 
#    0.000    0.000    0.000    0.000    0.000    0.000 
#    0.000    0.000    0.000    0.000    0.000    0.000 
#
# Total GULP energy -133750.567413 kJ/mol
# GULP energy per Si atom -5572.940309 kJ/mol
# Density = 2.133252 g / cm^3
# Si number density = 21.381188 Si / 1000 Ang^3
#
#
#
# Elastic Constant Matrix: (Units=GPa)
#
#
# Indices 1 2 3 4 5 6 
#
# 1 105.7539 48.3294 44.4901 0.0000 15.4167 0.0000
# 2 48.3294 103.5995 53.5544 0.0000 11.1185 0.0000
# 3 44.4901 53.5544 120.8929 0.0000 16.7970 0.0000
# 4 0.0000 0.0000 0.0000 50.8976 0.0000 16.1242
# 5 15.4167 11.1185 16.7970 0.0000 37.1904 0.0000
# 6 0.0000 0.0000 0.0000 16.1242 0.0000 43.3182
#
#
#
# Elastic Compliance Matrix: (Units=1/GPa)
#
#
# Indices 1 2 3 4 5 6 
#
# 1 0.012934 -0.004498 -0.002357 0.000000 -0.002952 0.000000
# 2 -0.004498 0.014145 -0.004569 0.000000 -0.000301 0.000000
# 3 -0.002357 -0.004569 0.011563 0.000000 -0.002880 0.000000
# 4 0.000000 0.000000 0.000000 0.022274 0.000000 -0.008291
# 5 -0.002952 -0.000301 -0.002880 0.000000 0.029503 0.000000
# 6 0.000000 0.000000 0.000000 -0.008291 0.000000 0.026171
#
#
# Mechanical properties :
#
#
# Convention : Reuss Voigt Hill
#
# Bulk Modulus (GPa) = 63.31654 69.22156 66.26905
# Shear Modulus (GPa) = 34.55367 38.53940 36.54653
#
# Velocity S-wave (km/s) = 4.02441 4.25018 4.13883
# Velocity P-wave (km/s) = 7.16045 7.51869 7.34175
#
# Compressibility (1/GPa) = 0.01579366
#
# Stress axis : x y z
#
# Youngs Moduli (GPa) = 77.31855 70.69547 86.48120
#
# Poissons Ratio (x) = 0.31801 0.20382
# Poissons Ratio (y) = 0.34781 0.39513
# Poissons Ratio (z) = 0.18222 0.32300
#
# Static dielectric constant tensor:
#      x y z
#    x 1.154530 0.000000 -0.722890 
#    y 0.000000 1.901250 0.000000 
#    z -0.722890 0.000000 0.814690 
# 
# From -- ./inp_files/100096.got.cif
#   From: 2010.05.17/outbox.cif.g08.bks.cpg/sg15_51_cif.got.tgz:100096.got - 2010.06.03 18:47:42.
