data_PCOD9293277
_publ_section_title
;
Structure prediction by ZEFSAII (Michael W. Deem and Ramdas Pophale) SiO2 
 PCOD9293277
Probable space group: C 2/C
;
_chemical_formula_sum "Si O2"
_cell_formula_units_Z 28
_cell_length_a 20.485650
_cell_length_b 12.434559
_cell_length_c 13.272989
_cell_angle_alpha 90.000000
_cell_angle_beta 157.549618
_cell_angle_gamma 90.000000
_cell_volume 1291.158137
_symmetry_space_group_name_H-M "C 2/C"
_symmetry_group_IT_number 15
_symmetry_cell_setting 'monoclinic'
loop_
_space_group_symop_operation_xyz
x,y,z
-x,y,1/2-z
-x,-y,-z
x,-y,1/2+z
1/2+x,1/2+y,z
1/2-x,1/2+y,1/2-z
1/2-x,1/2-y,-z
1/2+x,1/2-y,1/2+z
loop_
_atom_site_type_symbol
_atom_site_label
_atom_site_fract_x
_atom_site_fract_y
_atom_site_fract_z
Si Si1 0.888106 0.207885 0.405304
Si Si2 0.000000 0.921344 0.250000
Si Si3 0.488402 0.772980 0.122710
Si Si4 0.832265 0.568845 0.741798
O O1 0.980886 0.196128 0.429394
O O2 0.999352 0.156281 0.651536
O O3 0.694018 0.166766 0.140101
O O4 0.845252 0.336392 0.344388
O O5 0.166277 0.996399 0.496948
O O6 0.500000 0.723538 0.250000
O O7 0.635438 0.861865 0.314272
O O8 0.000000 0.500000 0.000000
#
# Coordination Sequence:
#
# PCOD9293277 Si02
#       4
#     8   4   8   8
#     4  10  24  41  75 105 144 194 242 303 374 429
#     4  12  22  50  76 108 150 190 248 310 368 436
#     4  10  22  45  68 102 147 190 244 303 360 440
#     4  10  24  44  68 111 144 192 249 290 374 442
#
# _framework density 21.685956999999998
#
# number of rings (size 3 to 8) (size 9 to 14) (size 15 to 20)
#    1.714    0.000    2.857    0.857    2.000    4.571 
#    7.714    2.857    0.000    0.000    0.000    0.000 
#    0.000    0.000    0.000    0.000    0.000    0.000 
#
# Total GULP energy -77934.805917 kJ/mol
# GULP energy per Si atom -5566.771851 kJ/mol
# Density = 2.163660 g / cm^3
# Si number density = 21.685957 Si / 1000 Ang^3
#
#
#
# Elastic Constant Matrix: (Units=GPa)
#
#
# Indices 1 2 3 4 5 6 
#
# 1 180.3431 65.2142 60.5321 0.0000 -12.3656 0.0000
# 2 65.2142 102.3381 79.5853 0.0000 -16.2955 0.0000
# 3 60.5321 79.5853 125.7575 0.0000 2.5941 0.0000
# 4 0.0000 0.0000 0.0000 34.7194 0.0000 -3.9779
# 5 -12.3656 -16.2955 2.5941 0.0000 38.9410 0.0000
# 6 0.0000 0.0000 0.0000 -3.9779 0.0000 31.3472
#
#
#
# Elastic Compliance Matrix: (Units=1/GPa)
#
#
# Indices 1 2 3 4 5 6 
#
# 1 0.007315 -0.003453 -0.001356 0.000000 0.000968 0.000000
# 2 -0.003453 0.024514 -0.014060 0.000000 0.010098 0.000000
# 3 -0.001356 -0.014060 0.017657 0.000000 -0.007490 0.000000
# 4 0.000000 0.000000 0.000000 0.029227 0.000000 0.003709
# 5 0.000968 0.010098 -0.007490 0.000000 0.030712 0.000000
# 6 0.000000 0.000000 0.000000 0.003709 0.000000 0.032371
#
#
# Mechanical properties :
#
#
# Convention : Reuss Voigt Hill
#
# Bulk Modulus (GPa) = 85.11775 91.01134 88.06454
# Shear Modulus (GPa) = 27.25549 34.54198 30.89874
#
# Velocity S-wave (km/s) = 3.54902 3.99535 3.77878
# Velocity P-wave (km/s) = 7.49196 7.95882 7.72891
#
# Compressibility (1/GPa) = 0.01174843
#
# Stress axis : x y z
#
# Youngs Moduli (GPa) = 136.70393 40.79360 56.63607
#
# Poissons Ratio (x) = 0.14086 0.07679
# Poissons Ratio (y) = 0.47202 0.79629
# Poissons Ratio (z) = 0.18535 0.57355
#
# Static dielectric constant tensor:
#      x y z
#    x 1.870730 0.000000 0.068340 
#    y 0.000000 1.874710 0.000000 
#    z 0.068340 0.000000 1.862700 
# 
# From -- ./inp_files/27305.got.cif
#   From: 2010.05.17/outbox.cif.g08.bks.cpg/sg15_14_cif.got.tgz:27305.got - 2010.06.03 18:47:42.
