data_PCOD9293992
_publ_section_title
;
Structure prediction by ZEFSAII (Michael W. Deem and Ramdas Pophale) SiO2 
 PCOD9293992
Probable space group: C 2/C
;
_chemical_formula_sum "Si O2"
_cell_formula_units_Z 44
_cell_length_a 7.333022
_cell_length_b 6.882653
_cell_length_c 35.315070
_cell_angle_alpha 90.000000
_cell_angle_beta 104.256631
_cell_angle_gamma 90.000000
_cell_volume 1727.481565
_symmetry_space_group_name_H-M "C 2/C"
_symmetry_group_IT_number 15
_symmetry_cell_setting 'monoclinic'
loop_
_space_group_symop_operation_xyz
x,y,z
-x,y,1/2-z
-x,-y,-z
x,-y,1/2+z
1/2+x,1/2+y,z
1/2-x,1/2+y,1/2-z
1/2-x,1/2-y,-z
1/2+x,1/2-y,1/2+z
loop_
_atom_site_type_symbol
_atom_site_label
_atom_site_fract_x
_atom_site_fract_y
_atom_site_fract_z
Si Si1 0.910605 0.421949 0.400618
Si Si2 0.091069 0.219748 0.937902
Si Si3 0.749878 0.393090 0.034915
Si Si4 0.686177 0.300963 0.679952
Si Si5 0.653805 0.809632 0.287487
Si Si6 0.000000 0.306239 0.750000
O O1 0.752677 0.391859 0.424408
O O2 0.847646 0.315505 0.359811
O O3 0.971228 0.648055 0.401679
O O4 0.099588 0.322012 0.426194
O O5 0.950280 0.094258 0.955227
O O6 0.173998 0.391290 0.968750
O O7 0.750000 0.250000 0.000000
O O8 0.752419 0.524658 0.682258
O O9 0.862013 0.210973 0.711312
O O10 0.496100 0.298272 0.694709
O O11 0.500000 0.931546 0.250000
O O12 0.804548 0.693139 0.271514
#
# Coordination Sequence:
#
# PCOD9293992 Si02
#       6
#     8   8   8   8   8   4
#     4  10  23  37  67  89 131 157 209 248 312 360
#     4  10  24  40  65  94 125 160 204 252 306 363
#     4  10  24  43  66  93 124 163 204 251 305 366
#     4   9  15  37  55  86 113 161 191 251 294 358
#     4   7  16  29  60  76 118 143 207 232 302 339
#     4   6  18  26  58  76 116 144 204 228 302 334
#
# _framework density 25.470607000000001
#
# number of rings (size 3 to 8) (size 9 to 14) (size 15 to 20)
#    2.727    0.000    0.000    1.636    2.545    1.455 
#    0.000    5.455    8.000    0.000    0.000    0.000 
#    0.000    0.000    0.000    0.000    0.000    0.000 
#
# Total GULP energy -122810.748622 kJ/mol
# GULP energy per Si atom -5582.306756 kJ/mol
# Density = 2.541263 g / cm^3
# Si number density = 25.470607 Si / 1000 Ang^3
#
#
#
# Elastic Constant Matrix: (Units=GPa)
#
#
# Indices 1 2 3 4 5 6 
#
# 1 190.9119 36.8069 27.4963 0.0000 -11.4734 0.0000
# 2 36.8069 67.9505 -1.0855 0.0000 5.1054 0.0000
# 3 27.4963 -1.0855 93.7982 0.0000 19.4411 0.0000
# 4 0.0000 0.0000 0.0000 13.8253 0.0000 -14.9121
# 5 -11.4734 5.1054 19.4411 0.0000 27.9500 0.0000
# 6 0.0000 0.0000 0.0000 -14.9121 0.0000 24.1568
#
#
#
# Elastic Compliance Matrix: (Units=1/GPa)
#
#
# Indices 1 2 3 4 5 6 
#
# 1 0.006878 -0.004219 -0.003283 0.000000 0.005878 0.000000
# 2 -0.004219 0.017570 0.002880 0.000000 -0.006944 0.000000
# 3 -0.003283 0.002880 0.014074 0.000000 -0.011663 0.000000
# 4 0.000000 0.000000 0.000000 0.216450 0.000000 0.133615
# 5 0.005878 -0.006944 -0.011663 0.000000 0.047572 0.000000
# 6 0.000000 0.000000 0.000000 0.133615 0.000000 0.123877
#
#
# Mechanical properties :
#
#
# Convention : Reuss Voigt Hill
#
# Bulk Modulus (GPa) = 34.15801 53.23290 43.69546
# Shear Modulus (GPa) = 11.22520 32.48263 21.85392
#
# Velocity S-wave (km/s) = 2.10159 3.57501 2.93235
# Velocity P-wave (km/s) = 4.39645 6.16328 5.35326
#
# Compressibility (1/GPa) = 0.02927571
#
# Stress axis : x y z
#
# Youngs Moduli (GPa) = 145.39931 56.91546 71.05118
#
# Poissons Ratio (x) = 0.24015 0.23327
# Poissons Ratio (y) = 0.61351 -0.20460
# Poissons Ratio (z) = 0.47737 -0.16389
#
# Static dielectric constant tensor:
#      x y z
#    x 1.986180 0.000000 0.071690 
#    y 0.000000 2.078100 0.000000 
#    z 0.071690 0.000000 2.055090 
# 
# From -- ./inp_files/304973.got.cif
#   From: 2010.05.17/outbox.cif.g08.bks.cpg/sg15_153_cif.got.tgz:304973.got - 2010.06.03 18:47:42.
