data_PCOD9293799
_publ_section_title
;
Structure prediction by ZEFSAII (Michael W. Deem and Ramdas Pophale) SiO2 
 PCOD9293799
Probable space group: C 2/C
;
_chemical_formula_sum "Si O2"
_cell_formula_units_Z 40
_cell_length_a 7.004909
_cell_length_b 12.535467
_cell_length_c 21.784936
_cell_angle_alpha 90.000000
_cell_angle_beta 57.244618
_cell_angle_gamma 90.000000
_cell_volume 1608.752382
_symmetry_space_group_name_H-M "C 2/C"
_symmetry_group_IT_number 15
_symmetry_cell_setting 'monoclinic'
loop_
_space_group_symop_operation_xyz
x,y,z
-x,y,1/2-z
-x,-y,-z
x,-y,1/2+z
1/2+x,1/2+y,z
1/2-x,1/2+y,1/2-z
1/2-x,1/2-y,-z
1/2+x,1/2-y,1/2+z
loop_
_atom_site_type_symbol
_atom_site_label
_atom_site_fract_x
_atom_site_fract_y
_atom_site_fract_z
Si Si1 0.660105 0.373555 0.425655
Si Si2 0.571436 0.611513 0.409469
Si Si3 0.187861 0.932316 0.669296
Si Si4 0.509327 0.751734 0.649220
Si Si5 0.378078 0.130932 0.709150
O O1 0.684337 0.500980 0.413977
O O2 0.583143 0.349383 0.507419
O O3 0.473327 0.332974 0.409091
O O4 0.900531 0.322878 0.363743
O O5 0.427954 0.573891 0.376178
O O6 0.760655 0.701156 0.363121
O O7 0.265185 0.046038 0.682942
O O8 0.000000 0.891623 0.750000
O O9 0.398229 0.854288 0.636555
O O10 0.323625 0.702653 0.728039
O O11 0.500000 0.081670 0.750000
#
# Coordination Sequence:
#
# PCOD9293799 Si02
#       5
#     8   8   8   8   8
#     4  10  22  49  75 109 159 206 257 329 397 478
#     4  11  25  47  75 111 156 206 267 320 398 479
#     4  12  25  44  71 110 148 204 264 322 385 463
#     4  11  24  48  73 110 155 208 259 325 390 472
#     4  10  22  47  74 107 157 207 264 323 398 465
#
# _framework density 24.863987999999999
#
# number of rings (size 3 to 8) (size 9 to 14) (size 15 to 20)
#    0.000    1.200    2.000    4.800    0.000    1.600 
#   28.800    0.000    0.000    0.000    0.000    0.000 
#    0.000    0.200    0.000    0.000    0.000    0.000 
#
# Total GULP energy -111986.258470 kJ/mol
# GULP energy per Si atom -5599.312924 kJ/mol
# Density = 2.480740 g / cm^3
# Si number density = 24.863988 Si / 1000 Ang^3
#
#
#
# Elastic Constant Matrix: (Units=GPa)
#
#
# Indices 1 2 3 4 5 6 
#
# 1 178.0946 59.2202 73.3427 0.0000 24.4535 -0.0002
# 2 59.2202 119.2311 39.3298 0.0000 3.9602 0.0000
# 3 73.3427 39.3298 178.8874 0.0000 23.3068 -0.0001
# 4 0.0000 0.0000 0.0000 31.8935 0.0000 -4.2124
# 5 24.4535 3.9602 23.3068 0.0000 29.7291 0.0001
# 6 -0.0002 0.0000 -0.0001 -4.2124 0.0001 122.5536
#
#
#
# Elastic Compliance Matrix: (Units=1/GPa)
#
#
# Indices 1 2 3 4 5 6 
#
# 1 0.008170 -0.003233 -0.002026 0.000000 -0.004701 0.000000
# 2 -0.003233 0.010327 -0.001239 0.000000 0.002255 0.000000
# 3 -0.002026 -0.001239 0.007189 0.000000 -0.003804 0.000000
# 4 0.000000 0.000000 0.000000 0.031497 0.000000 0.001083
# 5 -0.004701 0.002255 -0.003804 0.000000 0.040186 0.000000
# 6 0.000000 0.000000 0.000000 0.001083 0.000000 0.008197
#
#
# Mechanical properties :
#
#
# Convention : Reuss Voigt Hill
#
# Bulk Modulus (GPa) = 78.80778 91.11096 84.95937
# Shear Modulus (GPa) = 40.71933 57.12329 48.92131
#
# Velocity S-wave (km/s) = 4.05122 4.79835 4.44053
# Velocity P-wave (km/s) = 7.32445 8.21110 7.78042
#
# Compressibility (1/GPa) = 0.01268910
#
# Stress axis : x y z
#
# Youngs Moduli (GPa) = 122.39708 96.83626 139.10498
#
# Poissons Ratio (x) = 0.31311 0.28187
# Poissons Ratio (y) = 0.39576 0.17228
# Poissons Ratio (z) = 0.24802 0.11993
#
# Static dielectric constant tensor:
#      x y z
#    x 2.006340 0.000000 0.018800 
#    y 0.000000 2.027350 0.000000 
#    z 0.018800 0.000000 1.934810 
# 
# From -- ./inp_files/208295.got.cif
#   From: 2010.05.17/outbox.cif.g08.bks.cpg/sg15_105_cif.got.tgz:208295.got - 2010.06.03 18:47:42.
