data_PCOD9293087
_publ_section_title
;
Structure prediction by ZEFSAII (Michael W. Deem and Ramdas Pophale) SiO2 
 PCOD9293087
Probable space group: C 2/C
;
_chemical_formula_sum "Si O2"
_cell_formula_units_Z 56
_cell_length_a 12.105780
_cell_length_b 19.826657
_cell_length_c 12.101564
_cell_angle_alpha 90.000000
_cell_angle_beta 69.116799
_cell_angle_gamma 90.000000
_cell_volume 2713.778005
_symmetry_space_group_name_H-M "C 2/C"
_symmetry_group_IT_number 15
_symmetry_cell_setting 'monoclinic'
loop_
_space_group_symop_operation_xyz
x,y,z
-x,y,1/2-z
-x,-y,-z
x,-y,1/2+z
1/2+x,1/2+y,z
1/2-x,1/2+y,1/2-z
1/2-x,1/2-y,-z
1/2+x,1/2-y,1/2+z
loop_
_atom_site_type_symbol
_atom_site_label
_atom_site_fract_x
_atom_site_fract_y
_atom_site_fract_z
Si Si1 0.173897 0.215173 0.928660
Si Si2 0.950722 0.832298 0.645434
Si Si3 0.873486 0.036486 0.055336
Si Si4 0.977391 0.568430 0.574146
Si Si5 0.186125 0.581745 0.656106
Si Si6 0.214547 0.262285 0.687619
Si Si7 0.722053 0.140704 0.985458
O O1 0.248622 0.152623 0.853527
O O2 0.148931 0.259999 0.828547
O O3 0.250000 0.250000 0.000000
O O4 0.055135 0.185381 0.023721
O O5 0.000000 0.832427 0.750000
O O6 0.894244 0.904936 0.638366
O O7 0.851154 0.775688 0.670171
O O8 0.812981 0.079413 0.977288
O O9 0.780341 0.977745 0.111633
O O10 0.000000 0.000000 0.000000
O O11 0.895478 0.562088 0.711748
O O12 0.899590 0.616847 0.525611
O O13 0.000000 0.500000 0.500000
O O14 0.103627 0.590695 0.577514
O O15 0.211033 0.194535 0.616133
O O16 0.187831 0.322697 0.612488
#
# Coordination Sequence:
#
# PCOD9293087 Si02
#       7
#     8   8   8   8   8   8   8
#     4  12  24  42  71 103 139 184 240 287 354 420
#     4  11  24  42  69 104 139 186 227 289 354 419
#     4  11  23  44  68 103 141 176 230 288 354 419
#     4  11  23  44  71 100 141 183 232 288 352 418
#     4  11  25  42  70 106 137 185 237 290 352 424
#     4  10  23  45  67 101 142 182 235 288 351 423
#     4  10  22  44  72  97 141 185 227 290 350 415
#
# _framework density 20.635438000000001
#
# number of rings (size 3 to 8) (size 9 to 14) (size 15 to 20)
#    0.000    1.143    5.714    0.000    2.000    2.286 
#    0.000   10.714    0.000    0.000    0.000    0.000 
#    0.000    0.000    0.000    0.000    0.000    0.000 
#
# Total GULP energy -156334.947056 kJ/mol
# GULP energy per Si atom -5583.390966 kJ/mol
# Density = 2.058847 g / cm^3
# Si number density = 20.635438 Si / 1000 Ang^3
#
#
#
# Elastic Constant Matrix: (Units=GPa)
#
#
# Indices 1 2 3 4 5 6 
#
# 1 114.4433 35.9842 42.2941 0.0000 10.6104 0.0000
# 2 35.9842 91.7374 32.7128 0.0000 0.9716 0.0000
# 3 42.2941 32.7128 107.9281 0.0000 16.7430 0.0000
# 4 0.0000 0.0000 0.0000 18.3427 0.0000 4.7278
# 5 10.6104 0.9716 16.7430 0.0000 36.1546 0.0000
# 6 0.0000 0.0000 0.0000 4.7278 0.0000 35.7659
#
#
#
# Elastic Compliance Matrix: (Units=1/GPa)
#
#
# Indices 1 2 3 4 5 6 
#
# 1 0.011050 -0.003215 -0.003088 0.000000 -0.001727 0.000000
# 2 -0.003215 0.013232 -0.003062 0.000000 0.002006 0.000000
# 3 -0.003088 -0.003062 0.012121 0.000000 -0.004625 0.000000
# 4 0.000000 0.000000 0.000000 0.056441 0.000000 -0.007461
# 5 -0.001727 0.002006 -0.004625 0.000000 0.030253 0.000000
# 6 0.000000 0.000000 0.000000 -0.007461 0.000000 0.028946
#
#
# Mechanical properties :
#
#
# Convention : Reuss Voigt Hill
#
# Bulk Modulus (GPa) = 56.58155 59.56566 58.07360
# Shear Modulus (GPa) = 28.30222 31.59382 29.94802
#
# Velocity S-wave (km/s) = 3.70744 3.91710 3.81371
# Velocity P-wave (km/s) = 6.76801 7.02756 6.89901
#
# Compressibility (1/GPa) = 0.01767361
#
# Stress axis : x y z
#
# Youngs Moduli (GPa) = 90.49690 75.57198 82.50126
#
# Poissons Ratio (x) = 0.24296 0.25476
# Poissons Ratio (y) = 0.29095 0.25262
# Poissons Ratio (z) = 0.27945 0.23140
#
# Static dielectric constant tensor:
#      x y z
#    x 1.762770 0.000000 0.023560 
#    y 0.000000 1.744410 0.000000 
#    z 0.023560 0.000000 1.725070 
# 
# From -- ./inp_files/89569.got.cif
#   From: 2010.05.17/outbox.cif.g08.bks.cpg/sg15_45_cif.got.tgz:89569.got - 2010.06.03 18:47:42.
