data_PCOD9293057
_publ_section_title
;
Structure prediction by ZEFSAII (Michael W. Deem and Ramdas Pophale) SiO2 
 PCOD9293057
Probable space group: C 2/C
;
_chemical_formula_sum "Si O2"
_cell_formula_units_Z 36
_cell_length_a 23.133598
_cell_length_b 5.929733
_cell_length_c 12.626797
_cell_angle_alpha 90.000000
_cell_angle_beta 66.626154
_cell_angle_gamma 90.000000
_cell_volume 1589.951357
_symmetry_space_group_name_H-M "C 2/C"
_symmetry_group_IT_number 15
_symmetry_cell_setting 'monoclinic'
loop_
_space_group_symop_operation_xyz
x,y,z
-x,y,1/2-z
-x,-y,-z
x,-y,1/2+z
1/2+x,1/2+y,z
1/2-x,1/2+y,1/2-z
1/2-x,1/2-y,-z
1/2+x,1/2-y,1/2+z
loop_
_atom_site_type_symbol
_atom_site_label
_atom_site_fract_x
_atom_site_fract_y
_atom_site_fract_z
Si Si1 0.456154 0.645800 0.106380
Si Si2 0.665427 0.108282 0.829964
Si Si3 0.271498 0.577072 0.395094
Si Si4 0.617281 0.274670 0.207387
Si Si5 0.000000 0.520086 0.750000
O O1 0.399876 0.776701 0.088792
O O2 0.422750 0.472839 0.210030
O O3 0.492400 0.826292 0.151729
O O4 0.500000 0.500000 0.000000
O O5 0.699640 0.278150 0.723346
O O6 0.788502 0.550289 0.608588
O O7 0.648308 0.884324 0.775110
O O8 0.250000 0.750000 0.500000
O O9 0.325358 0.401254 0.392346
O O10 0.564042 0.123024 0.191092
#
# Coordination Sequence:
#
# PCOD9293057 Si02
#       5
#     8   8   8   8   4
#     4  10  23  46  70 103 138 187 230 298 354 415
#     4  10  22  45  69 103 144 177 242 297 343 436
#     4  11  23  45  72 105 139 192 233 292 367 416
#     4  10  22  46  68 100 146 179 233 301 339 429
#     4  10  22  44  72 104 138 188 236 292 358 426
#
# _framework density 22.642202000000001
#
# number of rings (size 3 to 8) (size 9 to 14) (size 15 to 20)
#    0.000    1.778    2.222    0.667    0.000    4.444 
#   32.000    0.000    0.000    0.000    0.000    0.000 
#    0.000    0.000    0.000    0.000    0.000    0.000 
#
# Total GULP energy -100769.032189 kJ/mol
# GULP energy per Si atom -5598.279566 kJ/mol
# Density = 2.259067 g / cm^3
# Si number density = 22.642202 Si / 1000 Ang^3
#
#
#
# Elastic Constant Matrix: (Units=GPa)
#
#
# Indices 1 2 3 4 5 6 
#
# 1 217.3101 108.9814 89.4606 0.0000 -8.2278 0.0000
# 2 108.9814 145.3622 59.6476 0.0000 -6.7775 0.0000
# 3 89.4606 59.6476 98.7241 0.0000 -9.8316 0.0000
# 4 0.0000 0.0000 0.0000 35.2974 0.0000 -24.6423
# 5 -8.2278 -6.7775 -9.8316 0.0000 20.0506 0.0000
# 6 0.0000 0.0000 0.0000 -24.6423 0.0000 50.0581
#
#
#
# Elastic Compliance Matrix: (Units=1/GPa)
#
#
# Indices 1 2 3 4 5 6 
#
# 1 0.009210 -0.004632 -0.005600 0.000000 -0.000532 0.000000
# 2 -0.004632 0.011479 -0.002672 0.000000 0.000670 0.000000
# 3 -0.005600 -0.002672 0.017347 0.000000 0.005304 0.000000
# 4 0.000000 0.000000 0.000000 0.043166 0.000000 0.021249
# 5 -0.000532 0.000670 0.005304 0.000000 0.052483 0.000000
# 6 0.000000 0.000000 0.000000 0.021249 0.000000 0.030437
#
#
# Mechanical properties :
#
#
# Convention : Reuss Voigt Hill
#
# Bulk Modulus (GPa) = 81.77893 108.61950 95.19922
# Shear Modulus (GPa) = 25.77249 34.63500 30.20374
#
# Velocity S-wave (km/s) = 3.37746 3.91534 3.65630
# Velocity P-wave (km/s) = 7.16979 8.27745 7.74345
#
# Compressibility (1/GPa) = 0.01222809
#
# Stress axis : x y z
#
# Youngs Moduli (GPa) = 108.57980 87.11222 57.64793
#
# Poissons Ratio (x) = 0.40347 0.32285
# Poissons Ratio (y) = 0.50290 0.15404
# Poissons Ratio (z) = 0.60808 0.23276
#
# Static dielectric constant tensor:
#      x y z
#    x 1.839660 0.000000 -0.008150 
#    y 0.000000 1.810910 0.000000 
#    z -0.008150 0.000000 1.820580 
# 
# From -- ./inp_files/120663.got.cif
#   From: 2010.05.17/outbox.cif.g08.bks.cpg/sg15_61_cif.got.tgz:120663.got - 2010.06.03 18:47:42.
