data_PCOD9293942
_publ_section_title
;
Structure prediction by ZEFSAII (Michael W. Deem and Ramdas Pophale) SiO2 
 PCOD9293942
Probable space group: C 2/C
;
_chemical_formula_sum "Si O2"
_cell_formula_units_Z 64
_cell_length_a 14.838123
_cell_length_b 27.761385
_cell_length_c 9.104273
_cell_angle_alpha 90.000000
_cell_angle_beta 134.960188
_cell_angle_gamma 90.000000
_cell_volume 2653.700646
_symmetry_space_group_name_H-M "C 2/C"
_symmetry_group_IT_number 15
_symmetry_cell_setting 'monoclinic'
loop_
_space_group_symop_operation_xyz
x,y,z
-x,y,1/2-z
-x,-y,-z
x,-y,1/2+z
1/2+x,1/2+y,z
1/2-x,1/2+y,1/2-z
1/2-x,1/2-y,-z
1/2+x,1/2-y,1/2+z
loop_
_atom_site_type_symbol
_atom_site_label
_atom_site_fract_x
_atom_site_fract_y
_atom_site_fract_z
Si Si1 0.903906 0.281416 0.004777
Si Si2 0.370953 0.719781 0.695504
Si Si3 0.223132 0.094676 0.616070
Si Si4 0.530744 0.134924 0.456915
Si Si5 0.937674 0.880040 0.322533
Si Si6 0.154042 0.492312 0.427602
Si Si7 0.183448 0.564622 0.239296
Si Si8 0.827212 0.851014 0.733499
O O1 0.000000 0.272847 0.250000
O O2 0.884079 0.235910 0.878994
O O3 0.766641 0.305226 0.884651
O O4 0.971836 0.321467 0.980794
O O5 0.500000 0.730568 0.750000
O O6 0.250000 0.750000 0.500000
O O7 0.347082 0.662479 0.655493
O O8 0.119446 0.084572 0.622238
O O9 0.290948 0.050737 0.610090
O O10 0.163095 0.126700 0.417058
O O11 0.328206 0.126000 0.823241
O O12 0.500000 0.142331 0.250000
O O13 0.458150 0.085817 0.417560
O O14 0.000000 0.903356 0.250000
O O15 0.039766 0.847424 0.530515
O O16 0.207427 0.542457 0.426319
O O17 0.192894 0.478876 0.636040
O O18 0.000000 0.493364 0.250000
O O19 0.261258 0.608164 0.260336
#
# Coordination Sequence:
#
# PCOD9293942 Si02
#       8
#     8   8   8   8   8   8   8   8
#     4  11  22  40  69 102 132 169 221 281 339 407
#     4  11  26  46  69 100 141 178 225 289 346 405
#     4  11  24  41  65  94 132 180 223 279 339 398
#     4  11  23  36  61  98 133 171 220 273 346 401
#     4  11  26  46  68  93 129 183 233 272 331 410
#     4  11  21  38  60 101 140 168 217 285 344 404
#     4  10  23  36  64  95 139 174 215 273 350 400
#     4  10  23  45  64  94 140 177 222 275 338 408
#
# _framework density 24.117266000000001
#
# number of rings (size 3 to 8) (size 9 to 14) (size 15 to 20)
#    0.000    1.250    2.500    3.000    8.750    1.000 
#    0.000    2.500    0.000    0.000    0.000    0.000 
#    0.000    0.000    0.000    0.000    0.000    0.000 
#
# Total GULP energy -178963.362972 kJ/mol
# GULP energy per Si atom -5592.605093 kJ/mol
# Density = 2.406237 g / cm^3
# Si number density = 24.117266 Si / 1000 Ang^3
#
#
#
# Elastic Constant Matrix: (Units=GPa)
#
#
# Indices 1 2 3 4 5 6 
#
# 1 129.0398 22.9032 27.3502 0.0000 -26.7217 0.0000
# 2 22.9032 39.0453 0.4924 0.0000 -17.4470 0.0000
# 3 27.3502 0.4924 120.8572 0.0000 -27.8884 0.0000
# 4 0.0000 0.0000 0.0000 33.0504 0.0000 -13.5354
# 5 -26.7217 -17.4470 -27.8884 0.0000 39.4668 0.0000
# 6 0.0000 0.0000 0.0000 -13.5354 0.0000 20.5067
#
#
#
# Elastic Compliance Matrix: (Units=1/GPa)
#
#
# Indices 1 2 3 4 5 6 
#
# 1 0.009491 -0.003829 -0.001243 0.000000 0.003855 0.000000
# 2 -0.003829 0.034936 0.004409 0.000000 0.015967 0.000000
# 3 -0.001243 0.004409 0.010506 0.000000 0.008532 0.000000
# 4 0.000000 0.000000 0.000000 0.041466 0.000000 0.027369
# 5 0.003855 0.015967 0.008532 0.000000 0.041035 0.000000
# 6 0.000000 0.000000 0.000000 0.027369 0.000000 0.066830
#
#
# Mechanical properties :
#
#
# Convention : Reuss Voigt Hill
#
# Bulk Modulus (GPa) = 18.65396 43.38153 31.01774
# Shear Modulus (GPa) = 22.37552 34.48453 28.43003
#
# Velocity S-wave (km/s) = 3.04925 3.78546 3.43713
# Velocity P-wave (km/s) = 4.48873 6.09369 5.35172
#
# Compressibility (1/GPa) = 0.05360792
#
# Stress axis : x y z
#
# Youngs Moduli (GPa) = 105.36475 28.62357 95.18220
#
# Poissons Ratio (x) = 0.10959 0.11827
# Poissons Ratio (y) = 0.40341 -0.41962
# Poissons Ratio (z) = 0.13092 -0.12619
#
# Static dielectric constant tensor:
#      x y z
#    x 1.978380 0.000000 0.049610 
#    y 0.000000 1.887950 0.000000 
#    z 0.049610 0.000000 1.956690 
# 
# From -- ./inp_files/44894.got.cif
#   From: 2010.05.17/outbox.cif.g08.bks.cpg/sg15_23_cif.got.tgz:44894.got - 2010.06.03 18:47:42.
