data_PCOD9293758
_publ_section_title
;
Structure prediction by ZEFSAII (Michael W. Deem and Ramdas Pophale) SiO2 
 PCOD9293758
Probable space group: C 2/C
;
_chemical_formula_sum "Si O2"
_cell_formula_units_Z 52
_cell_length_a 11.134989
_cell_length_b 14.878193
_cell_length_c 14.661485
_cell_angle_alpha 90.000000
_cell_angle_beta 115.725810
_cell_angle_gamma 90.000000
_cell_volume 2188.193118
_symmetry_space_group_name_H-M "C 2/C"
_symmetry_group_IT_number 15
_symmetry_cell_setting 'monoclinic'
loop_
_space_group_symop_operation_xyz
x,y,z
-x,y,1/2-z
-x,-y,-z
x,-y,1/2+z
1/2+x,1/2+y,z
1/2-x,1/2+y,1/2-z
1/2-x,1/2-y,-z
1/2+x,1/2-y,1/2+z
loop_
_atom_site_type_symbol
_atom_site_label
_atom_site_fract_x
_atom_site_fract_y
_atom_site_fract_z
Si Si1 0.103164 0.319095 0.581663
Si Si2 0.622868 0.462728 0.232775
Si Si3 0.500000 0.195874 0.750000
Si Si4 0.340776 0.340065 0.796363
Si Si5 0.331161 0.173226 0.078442
Si Si6 0.198090 0.511220 0.039679
Si Si7 0.283997 0.635859 0.916562
O O1 0.241433 0.335488 0.678399
O O2 0.083932 0.413469 0.522234
O O3 0.138111 0.228804 0.538511
O O4 0.986338 0.302672 0.615915
O O5 0.500000 0.425886 0.250000
O O6 0.591356 0.563023 0.186221
O O7 0.742751 0.474563 0.345213
O O8 0.653751 0.403986 0.155283
O O9 0.439977 0.258551 0.810459
O O10 0.627160 0.145369 0.835743
O O11 0.243184 0.332849 0.849996
O O12 0.250000 0.250000 0.000000
O O13 0.324559 0.075893 0.029209
O O14 0.294612 0.571418 0.006940
#
# Coordination Sequence:
#
# PCOD9293758 Si02
#       7
#     8   8   4   8   8   8   8
#     4  10  25  45  70 101 141 182 233 285 341 420
#     4  11  25  45  72 101 139 181 236 291 349 416
#     4  10  24  42  74  98 140 186 238 280 344 422
#     4  10  22  47  68  98 138 189 228 285 348 408
#     4  12  27  42  69 105 140 180 232 287 348 412
#     4  11  26  47  69 104 140 189 229 287 351 418
#     4  11  25  45  73 104 137 189 232 287 352 411
#
# _framework density 23.7639
#
# number of rings (size 3 to 8) (size 9 to 14) (size 15 to 20)
#    0.000    1.231    2.308    1.385    8.615    4.308 
#    0.000    0.000    0.000    0.000    0.000    0.000 
#    0.000    0.000    0.000    0.000    0.000    0.000 
#
# Total GULP energy -145280.536365 kJ/mol
# GULP energy per Si atom -5587.712937 kJ/mol
# Density = 2.370981 g / cm^3
# Si number density = 23.763900 Si / 1000 Ang^3
#
#
#
# Elastic Constant Matrix: (Units=GPa)
#
#
# Indices 1 2 3 4 5 6 
#
# 1 131.2172 24.0390 20.4607 0.0000 -28.0630 0.0000
# 2 24.0390 103.1992 20.6647 0.0000 -7.2089 0.0000
# 3 20.4607 20.6647 67.7272 0.0000 -19.9799 0.0000
# 4 0.0000 0.0000 0.0000 15.3495 0.0000 -19.2268
# 5 -28.0630 -7.2089 -19.9799 0.0000 46.8235 0.0000
# 6 0.0000 0.0000 0.0000 -19.2268 0.0000 34.7976
#
#
#
# Elastic Compliance Matrix: (Units=1/GPa)
#
#
# Indices 1 2 3 4 5 6 
#
# 1 0.009080 -0.001612 -0.000823 0.000000 0.004843 0.000000
# 2 -0.001612 0.010610 -0.002921 0.000000 -0.000579 0.000000
# 3 -0.000823 -0.002921 0.017877 0.000000 0.006686 0.000000
# 4 0.000000 0.000000 0.000000 0.211589 0.000000 0.116910
# 5 0.004843 -0.000579 0.006686 0.000000 0.027023 0.000000
# 6 0.000000 0.000000 0.000000 0.116910 0.000000 0.093334
#
#
# Mechanical properties :
#
#
# Convention : Reuss Voigt Hill
#
# Bulk Modulus (GPa) = 37.23594 48.05249 42.64421
# Shear Modulus (GPa) = 12.84762 35.19274 24.02018
#
# Velocity S-wave (km/s) = 2.32768 3.85246 3.18273
# Velocity P-wave (km/s) = 4.78824 6.32877 5.61162
#
# Compressibility (1/GPa) = 0.02685578
#
# Stress axis : x y z
#
# Youngs Moduli (GPa) = 110.12841 94.25082 55.93722
#
# Poissons Ratio (x) = 0.15194 0.04601
# Poissons Ratio (y) = 0.17754 0.16340
# Poissons Ratio (z) = 0.09059 0.27532
#
# Static dielectric constant tensor:
#      x y z
#    x 1.929170 0.000000 0.004830 
#    y 0.000000 1.961460 0.000000 
#    z 0.004830 0.000000 1.941240 
# 
# From -- ./inp_files/144348.got.cif
#   From: 2010.05.17/outbox.cif.g08.bks.cpg/sg15_73_cif.got.tgz:144348.got - 2010.06.03 18:47:42.
