data_PCOD9293105
_publ_section_title
;
Structure prediction by ZEFSAII (Michael W. Deem and Ramdas Pophale) SiO2 
 PCOD9293105
Probable space group: C 2/C
;
_chemical_formula_sum "Si O2"
_cell_formula_units_Z 32
_cell_length_a 13.498574
_cell_length_b 8.000105
_cell_length_c 15.577737
_cell_angle_alpha 90.000000
_cell_angle_beta 38.356947
_cell_angle_gamma 90.000000
_cell_volume 1043.928687
_symmetry_space_group_name_H-M "C 2/C"
_symmetry_group_IT_number 15
_symmetry_cell_setting 'monoclinic'
loop_
_space_group_symop_operation_xyz
x,y,z
-x,y,1/2-z
-x,-y,-z
x,-y,1/2+z
1/2+x,1/2+y,z
1/2-x,1/2+y,1/2-z
1/2-x,1/2-y,-z
1/2+x,1/2-y,1/2+z
loop_
_atom_site_type_symbol
_atom_site_label
_atom_site_fract_x
_atom_site_fract_y
_atom_site_fract_z
Si Si1 0.379670 0.552548 0.490944
Si Si2 0.218674 0.606731 0.951108
Si Si3 0.608821 0.764390 0.832144
Si Si4 0.897748 0.301351 0.232976
O O1 0.311869 0.536909 0.438779
O O2 0.495082 0.396367 0.431309
O O3 0.226168 0.548221 0.657837
O O4 0.476165 0.726676 0.420868
O O5 0.300039 0.681963 0.811299
O O6 0.250000 0.750000 0.000000
O O7 0.026169 0.590411 0.081696
O O8 0.746894 0.816491 0.804557
O O9 0.000000 0.298704 0.250000
#
# Coordination Sequence:
#
# PCOD9293105 Si02
#       4
#     8   8   8   8
#     4  11  25  46  68 100 140 179 230 282 341 414
#     4  10  22  44  73 103 130 171 232 291 335 399
#     4  11  24  46  73 102 134 181 234 282 340 412
#     4  12  26  44  67 101 142 183 223 283 350 403
#
# _framework density 30.653435000000002
#
# number of rings (size 3 to 8) (size 9 to 14) (size 15 to 20)
#    0.000    1.000    0.000    7.500    0.000    8.000 
#    0.000    5.000    0.000    0.000    0.000    0.000 
#    0.000    0.000    0.000    0.000    0.000    0.000 
#
# Total GULP energy -89288.464454 kJ/mol
# GULP energy per Si atom -5580.529028 kJ/mol
# Density = 3.058367 g / cm^3
# Si number density = 30.653435 Si / 1000 Ang^3
#
#
#
# Elastic Constant Matrix: (Units=GPa)
#
#
# Indices 1 2 3 4 5 6 
#
# 1 196.9676 8.5700 50.5912 0.0000 -33.7533 0.0000
# 2 8.5700 91.7973 52.3523 0.0000 1.9755 0.0000
# 3 50.5912 52.3523 272.5932 0.0000 -4.4311 0.0000
# 4 0.0000 0.0000 0.0000 61.8933 0.0000 -18.0028
# 5 -33.7533 1.9755 -4.4311 0.0000 59.2806 0.0000
# 6 0.0000 0.0000 0.0000 -18.0028 0.0000 42.9300
#
#
#
# Elastic Compliance Matrix: (Units=1/GPa)
#
#
# Indices 1 2 3 4 5 6 
#
# 1 0.005908 -0.000031 -0.001037 0.000000 0.003287 0.000000
# 2 -0.000031 0.012254 -0.002357 0.000000 -0.000602 0.000000
# 3 -0.001037 -0.002357 0.004311 0.000000 -0.000190 0.000000
# 4 0.000000 0.000000 0.000000 0.018401 0.000000 0.007717
# 5 0.003287 -0.000602 -0.000190 0.000000 0.018747 0.000000
# 6 0.000000 0.000000 0.000000 0.007717 0.000000 0.026530
#
#
# Mechanical properties :
#
#
# Convention : Reuss Voigt Hill
#
# Bulk Modulus (GPa) = 64.01346 87.15389 75.58367
# Shear Modulus (GPa) = 50.91221 62.81044 56.86132
#
# Velocity S-wave (km/s) = 4.07983 4.53155 4.31161
# Velocity P-wave (km/s) = 6.56671 7.47487 7.03546
#
# Compressibility (1/GPa) = 0.01562172
#
# Stress axis : x y z
#
# Youngs Moduli (GPa) = 169.26035 81.60693 231.98489
#
# Poissons Ratio (x) = 0.00252 0.24060
# Poissons Ratio (y) = 0.00522 0.54689
# Poissons Ratio (z) = 0.17555 0.19238
#
# Static dielectric constant tensor:
#      x y z
#    x 2.536890 0.000000 0.048240 
#    y 0.000000 3.138530 0.000000 
#    z 0.048240 0.000000 2.321750 
# 
# From -- ./inp_files/204309.got.cif
#   From: 2010.05.17/outbox.cif.g08.bks.cpg/sg15_103_cif.got.tgz:204309.got - 2010.06.03 18:47:42.
