data_PCOD9293010
_publ_section_title
;
Structure prediction by ZEFSAII (Michael W. Deem and Ramdas Pophale) SiO2 
 PCOD9293010
Probable space group: C 2/C
;
_chemical_formula_sum "Si O2"
_cell_formula_units_Z 48
_cell_length_a 15.466768
_cell_length_b 14.133705
_cell_length_c 30.654060
_cell_angle_alpha 90.000000
_cell_angle_beta 19.064279
_cell_angle_gamma 90.000000
_cell_volume 2188.759024
_symmetry_space_group_name_H-M "C 2/C"
_symmetry_group_IT_number 15
_symmetry_cell_setting 'monoclinic'
loop_
_space_group_symop_operation_xyz
x,y,z
-x,y,1/2-z
-x,-y,-z
x,-y,1/2+z
1/2+x,1/2+y,z
1/2-x,1/2+y,1/2-z
1/2-x,1/2-y,-z
1/2+x,1/2-y,1/2+z
loop_
_atom_site_type_symbol
_atom_site_label
_atom_site_fract_x
_atom_site_fract_y
_atom_site_fract_z
Si Si1 0.082189 0.275999 0.804884
Si Si2 0.447763 0.993305 0.869228
Si Si3 0.586537 0.828068 0.050277
Si Si4 0.105335 0.050675 0.907185
Si Si5 0.510734 0.752630 0.937390
Si Si6 0.784833 0.418467 0.601783
O O1 0.321920 0.230330 0.664381
O O2 0.072461 0.389037 0.817630
O O3 0.101529 0.235538 0.844463
O O4 0.806943 0.245937 0.914252
O O5 0.473971 0.077710 0.891885
O O6 0.612237 0.024351 0.747808
O O7 0.134344 0.973205 0.012410
O O8 0.750000 0.750000 0.000000
O O9 0.721581 0.865569 0.941831
O O10 0.101560 0.160958 0.919852
O O11 0.000000 0.000000 0.000000
O O12 0.631201 0.843875 0.901507
O O13 0.500000 0.458223 0.750000
O O14 0.000000 0.500000 0.500000
#
# Coordination Sequence:
#
# PCOD9293010 Si02
#       6
#     8   8   8   8   8   8
#     4  10  22  44  71 102 139 191 234 295 367 442
#     4  11  24  43  69 102 137 182 240 285 362 434
#     4  12  26  45  75 105 149 194 251 303 370 444
#     4  11  24  41  68 101 140 178 227 296 354 419
#     4  10  23  45  71 100 143 185 233 293 363 440
#     4  12  30  49  75 108 148 191 249 310 375 448
#
# _framework density 21.930236000000001
#
# number of rings (size 3 to 8) (size 9 to 14) (size 15 to 20)
#    0.000    1.000    1.667    3.500    7.000    1.333 
#    0.000    0.000    0.000    0.000    0.000    0.000 
#    0.000    0.000    0.000    0.000    0.000    0.000 
#
# Total GULP energy -134130.755124 kJ/mol
# GULP energy per Si atom -5588.781463 kJ/mol
# Density = 2.188032 g / cm^3
# Si number density = 21.930236 Si / 1000 Ang^3
#
#
#
# Elastic Constant Matrix: (Units=GPa)
#
#
# Indices 1 2 3 4 5 6 
#
# 1 37.9861 13.2078 18.3009 -0.0107 7.1352 0.0062
# 2 13.2078 95.0887 29.4496 0.0368 -14.8581 -0.0032
# 3 18.3009 29.4496 126.0708 0.0380 5.4182 -0.0226
# 4 -0.0107 0.0368 0.0380 24.0249 -0.1264 -10.9463
# 5 7.1352 -14.8581 5.4182 -0.1264 22.7920 0.0129
# 6 0.0062 -0.0032 -0.0226 -10.9463 0.0129 33.3683
#
#
#
# Elastic Compliance Matrix: (Units=1/GPa)
#
#
# Indices 1 2 3 4 5 6 
#
# 1 0.032075 -0.005634 -0.002779 -0.000050 -0.013054 -0.000020
# 2 -0.005634 0.014030 -0.002959 0.000047 0.011614 0.000011
# 3 -0.002779 -0.002959 0.009166 -0.000029 -0.003238 -0.000002
# 4 -0.000050 0.000047 -0.000029 0.048940 0.000316 0.016054
# 5 -0.013054 0.011614 -0.003238 0.000316 0.056304 0.000083
# 6 -0.000020 0.000011 -0.000002 0.016054 0.000083 0.035235
#
#
# Mechanical properties :
#
#
# Convention : Reuss Voigt Hill
#
# Bulk Modulus (GPa) = 30.74335 42.34024 36.54179
# Shear Modulus (GPa) = 21.80203 29.24952 25.52578
#
# Velocity S-wave (km/s) = 3.15644 3.65602 3.41538
# Velocity P-wave (km/s) = 5.22813 6.09678 5.67908
#
# Compressibility (1/GPa) = 0.03252736
#
# Stress axis : x y z
#
# Youngs Moduli (GPa) = 31.17657 71.27539 109.10199
#
# Poissons Ratio (x) = 0.40159 0.30319
# Poissons Ratio (y) = 0.17566 0.32279
# Poissons Ratio (z) = 0.08664 0.21088
#
# Static dielectric constant tensor:
#      x y z
#    x 1.879040 0.000370 0.048130 
#    y 0.000370 1.680100 -0.000030 
#    z 0.048130 -0.000030 1.882310 
# 
# From -- ./inp_files/314038.got.cif
#   From: 2010.05.17/outbox.cif.g08.bks.cpg/sg15_158_cif.got.tgz:314038.got - 2010.06.03 18:47:42.
