data_PCOD9293368
_publ_section_title
;
Structure prediction by ZEFSAII (Michael W. Deem and Ramdas Pophale) SiO2 
 PCOD9293368
Probable space group: C 2/C
;
_chemical_formula_sum "Si O2"
_cell_formula_units_Z 40
_cell_length_a 24.063553
_cell_length_b 5.353069
_cell_length_c 22.331123
_cell_angle_alpha 90.000000
_cell_angle_beta 34.019168
_cell_angle_gamma 90.000000
_cell_volume 1609.348624
_symmetry_space_group_name_H-M "C 2/C"
_symmetry_group_IT_number 15
_symmetry_cell_setting 'monoclinic'
loop_
_space_group_symop_operation_xyz
x,y,z
-x,y,1/2-z
-x,-y,-z
x,-y,1/2+z
1/2+x,1/2+y,z
1/2-x,1/2+y,1/2-z
1/2-x,1/2-y,-z
1/2+x,1/2-y,1/2+z
loop_
_atom_site_type_symbol
_atom_site_label
_atom_site_fract_x
_atom_site_fract_y
_atom_site_fract_z
Si Si1 0.833836 0.253523 0.790556
Si Si2 0.274447 0.001057 0.513869
Si Si3 0.709321 0.833508 0.304526
Si Si4 0.038805 0.908420 0.901859
Si Si5 0.996455 0.367283 0.322200
O O1 0.801618 0.030639 0.863266
O O2 0.728257 0.308635 0.851428
O O3 0.904455 0.461161 0.757031
O O4 0.895165 0.134754 0.681838
O O5 0.250000 0.250000 0.500000
O O6 0.250000 0.750000 0.500000
O O7 0.391952 0.012531 0.421397
O O8 0.765045 0.625408 0.213188
O O9 0.603446 0.824802 0.367414
O O10 0.987297 0.822554 0.886323
O O11 0.000000 0.000000 0.000000
O O12 0.000000 0.269077 0.250000
#
# Coordination Sequence:
#
# PCOD9293368 Si02
#       5
#     8   8   8   8   8
#     4  11  26  47  79 113 163 214 278 340 417 496
#     4  12  29  50  80 120 167 218 275 347 423 501
#     4  10  22  45  71 106 155 206 263 328 402 477
#     4  11  27  46  77 117 166 217 275 343 413 505
#     4  12  26  50  84 117 164 217 287 344 431 503
#
# _framework density 24.854776999999999
#
# number of rings (size 3 to 8) (size 9 to 14) (size 15 to 20)
#    0.000    0.800    4.000    1.200    5.600    8.000 
#    0.000    0.000    0.000    0.000    0.000    0.000 
#    0.000    0.000    0.000    0.000    0.000    0.000 
#
# Total GULP energy -111354.086760 kJ/mol
# GULP energy per Si atom -5567.704338 kJ/mol
# Density = 2.479821 g / cm^3
# Si number density = 24.854777 Si / 1000 Ang^3
#
#
#
# Elastic Constant Matrix: (Units=GPa)
#
#
# Indices 1 2 3 4 5 6 
#
# 1 163.4677 51.0429 42.5736 0.0172 26.0348 -0.0307
# 2 51.0429 118.7675 37.0936 0.0302 15.8869 -0.0793
# 3 42.5736 37.0936 130.3350 0.0314 50.0118 -0.0061
# 4 0.0172 0.0302 0.0314 27.9176 -0.0298 11.1128
# 5 26.0348 15.8869 50.0118 -0.0298 40.5356 0.0054
# 6 -0.0307 -0.0793 -0.0061 11.1128 0.0054 58.3169
#
#
#
# Elastic Compliance Matrix: (Units=1/GPa)
#
#
# Indices 1 2 3 4 5 6 
#
# 1 0.007595 -0.002682 -0.000473 -0.000005 -0.003243 0.000002
# 2 -0.002682 0.010200 -0.002191 -0.000012 0.000429 0.000015
# 3 -0.000473 -0.002191 0.015201 -0.000036 -0.017592 0.000007
# 4 -0.000005 -0.000012 -0.000036 0.038760 0.000082 -0.007386
# 5 -0.003243 0.000429 -0.017592 0.000082 0.048289 -0.000023
# 6 0.000002 0.000015 0.000007 -0.007386 -0.000023 0.018555
#
#
# Mechanical properties :
#
#
# Convention : Reuss Voigt Hill
#
# Bulk Modulus (GPa) = 44.83836 74.88782 59.86309
# Shear Modulus (GPa) = 31.90258 44.14470 38.02364
#
# Velocity S-wave (km/s) = 3.58657 4.21896 3.91555
# Velocity P-wave (km/s) = 5.93554 7.34359 6.67679
#
# Compressibility (1/GPa) = 0.02230233
#
# Stress axis : x y z
#
# Youngs Moduli (GPa) = 131.67086 98.04253 65.78490
#
# Poissons Ratio (x) = 0.26300 0.03111
# Poissons Ratio (y) = 0.35320 0.14414
# Poissons Ratio (z) = 0.06228 0.21482
#
# Static dielectric constant tensor:
#      x y z
#    x 1.356620 0.000400 0.066170 
#    y 0.000400 2.013910 0.000130 
#    z 0.066170 0.000130 2.216830 
# 
# From -- ./inp_files/254205.got.cif
#   From: 2010.05.17/outbox.cif.g08.bks.cpg/sg15_128_cif.got.tgz:254205.got - 2010.06.03 18:47:42.
