data_PCOD9293900
_publ_section_title
;
Structure prediction by ZEFSAII (Michael W. Deem and Ramdas Pophale) SiO2 
 PCOD9293900
Probable space group: C 2/C
;
_chemical_formula_sum "Si O2"
_cell_formula_units_Z 56
_cell_length_a 27.510560
_cell_length_b 16.700283
_cell_length_c 8.250357
_cell_angle_alpha 90.000000
_cell_angle_beta 135.054771
_cell_angle_gamma 90.000000
_cell_volume 2677.721779
_symmetry_space_group_name_H-M "C 2/C"
_symmetry_group_IT_number 15
_symmetry_cell_setting 'monoclinic'
loop_
_space_group_symop_operation_xyz
x,y,z
-x,y,1/2-z
-x,-y,-z
x,-y,1/2+z
1/2+x,1/2+y,z
1/2-x,1/2+y,1/2-z
1/2-x,1/2-y,-z
1/2+x,1/2-y,1/2+z
loop_
_atom_site_type_symbol
_atom_site_label
_atom_site_fract_x
_atom_site_fract_y
_atom_site_fract_z
Si Si1 0.262549 0.046984 0.937011
Si Si2 0.651728 0.751836 0.184509
Si Si3 0.580473 0.093133 0.145995
Si Si4 0.267636 0.618086 0.979245
Si Si5 0.000000 0.236681 0.750000
Si Si6 0.948702 0.780530 0.479228
Si Si7 0.197287 0.815233 0.444850
Si Si8 0.500000 0.023681 0.250000
O O1 0.232363 0.082084 0.700184
O O2 0.233995 0.100081 0.018000
O O3 0.343583 0.067518 0.121303
O O4 0.241825 0.956104 0.921938
O O5 0.667987 0.677664 0.341570
O O6 0.700271 0.825786 0.342195
O O7 0.572543 0.776438 0.974754
O O8 0.677757 0.716478 0.075187
O O9 0.569990 0.185524 0.075589
O O10 0.527251 0.074450 0.164554
O O11 0.560179 0.035239 0.951067
O O12 0.979053 0.195530 0.872873
O O13 0.874299 0.820575 0.321079
O O14 0.000000 0.794042 0.750000
O O15 0.250000 0.750000 0.500000
#
# Coordination Sequence:
#
# PCOD9293900 Si02
#       8
#     8   8   8   8   4   8   8   4
#     4  12  23  40  64  94 134 168 219 278 324 391
#     4  10  23  44  68  96 128 176 215 272 331 395
#     4  11  21  38  52  87 123 173 213 261 321 393
#     4  11  24  40  65  98 127 173 219 264 335 386
#     4  10  23  42  66  94 135 162 222 272 325 392
#     4  11  23  38  64  92 119 172 215 267 326 393
#     4  11  21  41  66  89 129 165 217 271 323 387
#     4  10  23  34  54  78 131 172 210 262 325 396
#
# _framework density 20.9133
#
# number of rings (size 3 to 8) (size 9 to 14) (size 15 to 20)
#    0.000    1.143    3.571    3.000    2.000    2.286 
#    2.571    0.000    1.571    2.571    0.000    0.000 
#    0.000    0.000    0.000    0.000    0.000    0.000 
#
# Total GULP energy -156394.888039 kJ/mol
# GULP energy per Si atom -5585.531716 kJ/mol
# Density = 2.086570 g / cm^3
# Si number density = 20.913300 Si / 1000 Ang^3
#
#
#
# Elastic Constant Matrix: (Units=GPa)
#
#
# Indices 1 2 3 4 5 6 
#
# 1 69.7937 17.8999 16.3476 0.0000 1.7160 0.0000
# 2 17.8999 105.2489 21.4744 0.0000 -0.0996 0.0000
# 3 16.3476 21.4744 87.2391 0.0000 -5.2360 0.0000
# 4 0.0000 0.0000 0.0000 21.9760 0.0000 -12.6316
# 5 1.7160 -0.0996 -5.2360 0.0000 34.0184 0.0000
# 6 0.0000 0.0000 0.0000 -12.6316 0.0000 12.3326
#
#
#
# Elastic Compliance Matrix: (Units=1/GPa)
#
#
# Indices 1 2 3 4 5 6 
#
# 1 0.015477 -0.002134 -0.002445 0.000000 -0.001163 0.000000
# 2 -0.002134 0.010302 -0.002148 0.000000 -0.000193 0.000000
# 3 -0.002445 -0.002148 0.012573 0.000000 0.002052 0.000000
# 4 0.000000 0.000000 0.000000 0.110644 0.000000 0.113327
# 5 -0.001163 -0.000193 0.002052 0.000000 0.029770 0.000000
# 6 0.000000 0.000000 0.000000 0.113327 0.000000 0.197161
#
#
# Mechanical properties :
#
#
# Convention : Reuss Voigt Hill
#
# Bulk Modulus (GPa) = 40.16328 41.52505 40.84417
# Shear Modulus (GPa) = 12.57299 27.43605 20.00452
#
# Velocity S-wave (km/s) = 2.45459 3.62594 3.09616
# Velocity P-wave (km/s) = 5.22300 6.11791 5.68808
#
# Compressibility (1/GPa) = 0.02489836
#
# Stress axis : x y z
#
# Youngs Moduli (GPa) = 64.61389 97.06577 79.53789
#
# Poissons Ratio (x) = 0.20718 0.19443
# Poissons Ratio (y) = 0.13792 0.17081
# Poissons Ratio (z) = 0.15795 0.20845
#
# Static dielectric constant tensor:
#      x y z
#    x 1.776030 0.000000 -0.036080 
#    y 0.000000 1.760680 0.000000 
#    z -0.036080 0.000000 1.797260 
# 
# From -- ./inp_files/67224.got.cif
#   From: 2010.05.17/outbox.cif.g08.bks.cpg/sg15_34_cif.got.tgz:67224.got - 2010.06.03 18:47:42.
