data_PCOD9293552
_publ_section_title
;
Structure prediction by ZEFSAII (Michael W. Deem and Ramdas Pophale) SiO2 
 PCOD9293552
Probable space group: C 2/C
;
_chemical_formula_sum "Si O2"
_cell_formula_units_Z 44
_cell_length_a 16.387136
_cell_length_b 6.882898
_cell_length_c 22.348091
_cell_angle_alpha 90.000000
_cell_angle_beta 49.683339
_cell_angle_gamma 90.000000
_cell_volume 1921.955834
_symmetry_space_group_name_H-M "C 2/C"
_symmetry_group_IT_number 15
_symmetry_cell_setting 'monoclinic'
loop_
_space_group_symop_operation_xyz
x,y,z
-x,y,1/2-z
-x,-y,-z
x,-y,1/2+z
1/2+x,1/2+y,z
1/2-x,1/2+y,1/2-z
1/2-x,1/2-y,-z
1/2+x,1/2-y,1/2+z
loop_
_atom_site_type_symbol
_atom_site_label
_atom_site_fract_x
_atom_site_fract_y
_atom_site_fract_z
Si Si1 0.997440 0.108974 0.622389
Si Si2 0.299067 0.334519 0.687495
Si Si3 0.464786 0.027514 0.584596
Si Si4 0.152332 0.185968 0.005279
Si Si5 0.500000 0.582903 0.250000
Si Si6 0.786560 0.681164 0.824837
O O1 0.976661 0.331138 0.616157
O O2 0.105541 0.028699 0.539530
O O3 0.897512 0.986206 0.644040
O O4 0.004185 0.050007 0.688754
O O5 0.210766 0.449668 0.691406
O O6 0.266843 0.281412 0.770048
O O7 0.351022 0.137648 0.638003
O O8 0.500000 0.000000 0.500000
O O9 0.552656 0.176867 0.568594
O O10 0.194731 0.209289 0.917725
O O11 0.250000 0.250000 0.000000
O O12 0.604140 0.721701 0.204030
#
# Coordination Sequence:
#
# PCOD9293552 Si02
#       6
#     8   8   8   8   4   8
#     4  10  22  46  68 105 140 186 234 295 356 420
#     4  10  25  42  70 103 142 186 236 295 348 425
#     4  11  24  44  72 100 137 183 240 289 351 423
#     4  11  23  44  69 101 142 181 230 295 353 421
#     4  10  22  46  74 102 152 180 238 298 364 432
#     4  11  23  45  71 101 142 186 237 296 360 425
#
# _framework density 22.893348
#
# number of rings (size 3 to 8) (size 9 to 14) (size 15 to 20)
#    0.000    1.455    1.818    2.182    5.091    3.636 
#    3.273    0.000    0.000    0.000    0.000    0.000 
#    0.000    0.000    0.000    0.000    0.000    0.000 
#
# Total GULP energy -123067.112903 kJ/mol
# GULP energy per Si atom -5593.959677 kJ/mol
# Density = 2.284124 g / cm^3
# Si number density = 22.893348 Si / 1000 Ang^3
#
#
#
# Elastic Constant Matrix: (Units=GPa)
#
#
# Indices 1 2 3 4 5 6 
#
# 1 75.0798 52.9641 30.5508 0.0000 6.0539 0.0013
# 2 52.9641 177.8624 68.1491 0.0002 0.4358 0.0021
# 3 30.5508 68.1491 139.9272 0.0000 14.1743 0.0000
# 4 0.0000 0.0002 0.0000 33.8695 0.0000 -1.9410
# 5 6.0539 0.4358 14.1743 0.0000 35.6191 0.0000
# 6 0.0013 0.0021 0.0000 -1.9410 0.0000 39.8934
#
#
#
# Elastic Compliance Matrix: (Units=1/GPa)
#
#
# Indices 1 2 3 4 5 6 
#
# 1 0.017318 -0.004666 -0.001268 0.000000 -0.002382 0.000000
# 2 -0.004666 0.008228 -0.003187 0.000000 0.001961 0.000000
# 3 -0.001268 -0.003187 0.009326 0.000000 -0.003457 0.000000
# 4 0.000000 0.000000 0.000000 0.029608 0.000000 0.001441
# 5 -0.002382 0.001961 -0.003457 0.000000 0.029831 0.000000
# 6 0.000000 0.000000 0.000000 0.001441 0.000000 0.025137
#
#
# Mechanical properties :
#
#
# Convention : Reuss Voigt Hill
#
# Bulk Modulus (GPa) = 60.12774 77.35528 68.74151
# Shear Modulus (GPa) = 34.90825 37.95675 36.43250
#
# Velocity S-wave (km/s) = 3.90913 4.07625 3.99356
# Velocity P-wave (km/s) = 6.83348 7.48446 7.16636
#
# Compressibility (1/GPa) = 0.01663126
#
# Stress axis : x y z
#
# Youngs Moduli (GPa) = 57.74246 121.53522 107.22928
#
# Poissons Ratio (x) = 0.56703 0.13592
# Poissons Ratio (y) = 0.26940 0.34177
# Poissons Ratio (z) = 0.07319 0.38737
#
# Static dielectric constant tensor:
#      x y z
#    x 1.865900 0.000000 -0.026970 
#    y 0.000000 1.908370 0.000000 
#    z -0.026970 0.000000 1.872050 
# 
# From -- ./inp_files/297645.got.cif
#   From: 2010.05.17/outbox.cif.g08.bks.cpg/sg15_149_cif.got.tgz:297645.got - 2010.06.03 18:47:42.
