data_PCOD9293529
_publ_section_title
;
Structure prediction by ZEFSAII (Michael W. Deem and Ramdas Pophale) SiO2 
 PCOD9293529
Probable space group: C 2/C
;
_chemical_formula_sum "Si O2"
_cell_formula_units_Z 60
_cell_length_a 9.087526
_cell_length_b 26.491370
_cell_length_c 12.340806
_cell_angle_alpha 90.000000
_cell_angle_beta 90.832871
_cell_angle_gamma 90.000000
_cell_volume 2970.624264
_symmetry_space_group_name_H-M "C 2/C"
_symmetry_group_IT_number 15
_symmetry_cell_setting 'monoclinic'
loop_
_space_group_symop_operation_xyz
x,y,z
-x,y,1/2-z
-x,-y,-z
x,-y,1/2+z
1/2+x,1/2+y,z
1/2-x,1/2+y,1/2-z
1/2-x,1/2-y,-z
1/2+x,1/2-y,1/2+z
loop_
_atom_site_type_symbol
_atom_site_label
_atom_site_fract_x
_atom_site_fract_y
_atom_site_fract_z
Si Si1 0.735888 0.463021 0.024210
Si Si2 0.061411 0.593703 0.128383
Si Si3 0.829932 0.698124 0.301508
Si Si4 0.869967 0.188969 0.837273
Si Si5 0.007647 0.879047 0.980696
Si Si6 0.000000 0.835158 0.750000
Si Si7 0.283517 0.075623 0.975611
Si Si8 0.166150 0.596781 0.766535
O O1 0.814560 0.441045 0.132313
O O2 0.828234 0.447799 0.918112
O O3 0.586004 0.431165 0.016008
O O4 0.730688 0.522926 0.026692
O O5 0.146519 0.647336 0.128072
O O6 0.000000 0.584976 0.250000
O O7 0.928258 0.592633 0.041432
O O8 0.816761 0.753828 0.350780
O O9 0.665911 0.691150 0.242542
O O10 0.000000 0.699152 0.250000
O O11 0.757702 0.147159 0.791258
O O12 0.000000 0.189351 0.750000
O O13 0.922711 0.166456 0.951448
O O14 0.018040 0.869249 0.855090
O O15 0.838052 0.882268 0.008253
O O16 0.295012 0.070415 0.846572
O O17 0.000000 0.612897 0.750000
#
# Coordination Sequence:
#
# PCOD9293529 Si02
#       8
#     8   8   8   8   8   4   8   8
#     4  11  25  41  64  97 133 173 220 277 333 385
#     4  11  23  43  65  95 138 168 220 281 329 393
#     4  10  23  45  69  98 134 177 221 278 342 394
#     4  10  22  46  67  91 135 170 211 282 339 384
#     4  11  24  44  63  96 134 172 221 278 331 401
#     4  12  24  44  68 100 134 174 230 272 330 412
#     4  12  25  41  70  95 128 183 222 268 337 400
#     4  11  24  42  64  97 132 167 227 270 326 411
#
# _framework density 20.197773000000002
#
# number of rings (size 3 to 8) (size 9 to 14) (size 15 to 20)
#    0.000    1.067    4.000    2.400    2.800    0.533 
#    2.400    2.000    0.000    0.000    0.000    0.000 
#    0.000    0.000    0.000    0.000    0.000    0.000 
#
# Total GULP energy -167150.821337 kJ/mol
# GULP energy per Si atom -5571.694045 kJ/mol
# Density = 2.015180 g / cm^3
# Si number density = 20.197773 Si / 1000 Ang^3
#
#
#
# Elastic Constant Matrix: (Units=GPa)
#
#
# Indices 1 2 3 4 5 6 
#
# 1 82.8224 16.8185 3.2657 0.0000 18.5750 0.0000
# 2 16.8185 80.9515 26.0864 0.0000 28.3682 0.0000
# 3 3.2657 26.0864 110.0752 0.0000 8.5358 0.0000
# 4 0.0000 0.0000 0.0000 -24.6308 0.0000 10.6643
# 5 18.5750 28.3682 8.5358 0.0000 32.4812 0.0000
# 6 0.0000 0.0000 0.0000 10.6643 0.0000 -3.0781
#
#
#
# Elastic Compliance Matrix: (Units=1/GPa)
#
#
# Indices 1 2 3 4 5 6 
#
# 1 0.013858 -0.000229 0.000247 0.000000 -0.007790 0.000000
# 2 -0.000229 0.018887 -0.003267 0.000000 -0.015506 0.000000
# 3 0.000247 -0.003267 0.009842 0.000000 0.000125 0.000000
# 4 0.000000 0.000000 0.000000 0.081191 0.000000 0.281295
# 5 -0.007790 -0.015506 0.000125 0.000000 0.048751 0.000000
# 6 0.000000 0.000000 0.000000 0.281295 0.000000 0.649696
#
#
# Mechanical properties :
#
#
# Convention : Reuss Voigt Hill
#
# Bulk Modulus (GPa) = 27.70865 40.68783 34.19824
# Shear Modulus (GPa) = 5.94705 16.13303 11.04004
#
# Velocity S-wave (km/s) = 1.71779 2.82929 2.34048
# Velocity P-wave (km/s) = 4.20510 5.55532 4.92669
#
# Compressibility (1/GPa) = 0.03608981
#
# Stress axis : x y z
#
# Youngs Moduli (GPa) = 72.16131 52.94580 101.60713
#
# Poissons Ratio (x) = 0.01212 -0.02511
# Poissons Ratio (y) = 0.01652 0.33193
# Poissons Ratio (z) = -0.01784 0.17296
#
# Static dielectric constant tensor:
#      x y z
#    x 1.788700 0.000000 -0.053300 
#    y 0.000000 1.682100 0.000000 
#    z -0.053300 0.000000 1.620050 
# 
# From -- ./inp_files/81391.got.cif
#   From: 2010.05.17/outbox.cif.g08.bks.cpg/sg15_41_cif.got.tgz:81391.got - 2010.06.03 18:47:42.
