data_PCOD9293377
_publ_section_title
;
Structure prediction by ZEFSAII (Michael W. Deem and Ramdas Pophale) SiO2 
 PCOD9293377
Probable space group: C 2/C
;
_chemical_formula_sum "Si O2"
_cell_formula_units_Z 44
_cell_length_a 16.359696
_cell_length_b 11.855541
_cell_length_c 27.821257
_cell_angle_alpha 90.000000
_cell_angle_beta 157.941166
_cell_angle_gamma 90.000000
_cell_volume 2026.520107
_symmetry_space_group_name_H-M "C 2/C"
_symmetry_group_IT_number 15
_symmetry_cell_setting 'monoclinic'
loop_
_space_group_symop_operation_xyz
x,y,z
-x,y,1/2-z
-x,-y,-z
x,-y,1/2+z
1/2+x,1/2+y,z
1/2-x,1/2+y,1/2-z
1/2-x,1/2-y,-z
1/2+x,1/2-y,1/2+z
loop_
_atom_site_type_symbol
_atom_site_label
_atom_site_fract_x
_atom_site_fract_y
_atom_site_fract_z
Si Si1 0.798236 0.270676 0.106779
Si Si2 0.358276 0.023078 0.470278
Si Si3 0.979782 0.561718 0.838637
Si Si4 0.039261 0.120887 0.544513
Si Si5 0.356180 0.183470 0.102556
Si Si6 0.000000 0.156918 0.750000
O O1 0.592539 0.303721 0.027073
O O2 0.000000 0.307035 0.250000
O O3 0.843717 0.344369 0.083790
O O4 0.785818 0.136065 0.100420
O O5 0.513758 0.035296 0.601219
O O6 0.500000 0.000000 0.500000
O O7 0.188372 0.921092 0.374270
O O8 0.747489 0.606173 0.693417
O O9 0.049004 0.440804 0.854854
O O10 0.839017 0.166127 0.465892
O O11 0.000000 0.000000 0.500000
O O12 0.542109 0.260134 0.228120
O O13 0.250000 0.250000 0.000000
#
# Coordination Sequence:
#
# PCOD9293377 Si02
#       6
#     8   8   8   8   8   4
#     4  10  22  45  71  98 138 182 232 290 353 425
#     4  12  26  45  68 105 143 187 233 290 361 427
#     4  11  25  45  72 104 138 188 243 290 358 433
#     4  11  23  45  73 103 138 180 238 297 355 427
#     4  12  25  45  70 107 143 186 238 298 362 425
#     4  12  26  46  70  98 150 180 228 300 354 424
#
# _framework density 21.712095999999999
#
# number of rings (size 3 to 8) (size 9 to 14) (size 15 to 20)
#    0.000    0.727    4.545    2.727    3.818    0.000 
#    0.000    0.000    0.000    0.000    0.000    0.000 
#    0.000    0.000    0.000    0.000    0.000    0.000 
#
# Total GULP energy -122680.827038 kJ/mol
# GULP energy per Si atom -5576.401229 kJ/mol
# Density = 2.166268 g / cm^3
# Si number density = 21.712096 Si / 1000 Ang^3
#
#
#
# Elastic Constant Matrix: (Units=GPa)
#
#
# Indices 1 2 3 4 5 6 
#
# 1 132.9038 39.3269 37.9234 0.0010 -9.8245 -0.0003
# 2 39.3269 133.0765 14.9265 0.0034 -11.2410 -0.0008
# 3 37.9234 14.9265 75.1840 0.0130 -19.3723 -0.0031
# 4 0.0010 0.0034 0.0130 34.6399 -0.0015 -9.4744
# 5 -9.8245 -11.2410 -19.3723 -0.0015 36.5680 -0.0004
# 6 -0.0003 -0.0008 -0.0031 -9.4744 -0.0004 27.4325
#
#
#
# Elastic Compliance Matrix: (Units=1/GPa)
#
#
# Indices 1 2 3 4 5 6 
#
# 1 0.009442 -0.002338 -0.004436 0.000002 -0.000532 0.000000
# 2 -0.002338 0.008368 0.000022 -0.000001 0.001956 0.000000
# 3 -0.004436 0.000022 0.017636 -0.000006 0.008158 0.000000
# 4 0.000002 -0.000001 -0.000006 0.031880 -0.000002 0.011010
# 5 -0.000532 0.001956 0.008158 -0.000002 0.032126 0.000001
# 6 0.000000 0.000000 0.000000 0.011010 0.000001 0.040256
#
#
# Mechanical properties :
#
#
# Convention : Reuss Voigt Hill
#
# Bulk Modulus (GPa) = 45.57287 58.39088 51.98188
# Shear Modulus (GPa) = 31.14761 36.32724 33.73742
#
# Velocity S-wave (km/s) = 3.79169 4.09483 3.94617
# Velocity P-wave (km/s) = 6.34069 7.02200 6.69003
#
# Compressibility (1/GPa) = 0.02194288
#
# Stress axis : x y z
#
# Youngs Moduli (GPa) = 105.90518 119.50130 56.70311
#
# Poissons Ratio (x) = 0.27937 0.25152
# Poissons Ratio (y) = 0.24759 -0.00124
# Poissons Ratio (z) = 0.46976 -0.00261
#
# Static dielectric constant tensor:
#      x y z
#    x 2.275550 -0.000070 0.258880 
#    y -0.000070 1.683100 -0.000050 
#    z 0.258880 -0.000050 2.002620 
# 
# From -- ./inp_files/316251.got.cif
#   From: 2010.05.17/outbox.cif.g08.bks.cpg/sg15_159_cif.got.tgz:316251.got - 2010.06.03 18:47:42.
