data_PCOD9293666
_publ_section_title
;
Structure prediction by ZEFSAII (Michael W. Deem and Ramdas Pophale) SiO2 
 PCOD9293666
Probable space group: C 2/C
;
_chemical_formula_sum "Si O2"
_cell_formula_units_Z 48
_cell_length_a 9.819139
_cell_length_b 28.110249
_cell_length_c 6.529031
_cell_angle_alpha 90.000000
_cell_angle_beta 69.828177
_cell_angle_gamma 90.000000
_cell_volume 1691.595033
_symmetry_space_group_name_H-M "C 2/C"
_symmetry_group_IT_number 15
_symmetry_cell_setting 'monoclinic'
loop_
_space_group_symop_operation_xyz
x,y,z
-x,y,1/2-z
-x,-y,-z
x,-y,1/2+z
1/2+x,1/2+y,z
1/2-x,1/2+y,1/2-z
1/2-x,1/2-y,-z
1/2+x,1/2-y,1/2+z
loop_
_atom_site_type_symbol
_atom_site_label
_atom_site_fract_x
_atom_site_fract_y
_atom_site_fract_z
Si Si1 0.355516 0.358663 0.876364
Si Si2 0.621259 0.511309 0.561965
Si Si3 0.619275 0.063838 0.563323
Si Si4 0.333657 0.729330 0.646053
Si Si5 0.172969 0.315688 0.611277
Si Si6 0.123907 0.578252 0.058080
O O1 0.500000 0.388841 0.750000
O O2 0.298038 0.335101 0.698503
O O3 0.221995 0.389178 0.027467
O O4 0.402871 0.318086 0.014726
O O5 0.574386 0.494940 0.339534
O O6 0.771474 0.480502 0.493138
O O7 0.701166 0.563532 0.525149
O O8 0.587353 0.066246 0.321546
O O9 0.571031 0.061436 0.847722
O O10 0.250000 0.750000 0.500000
O O11 0.401951 0.778581 0.689971
O O12 0.235603 0.711558 0.883181
O O13 0.108456 0.364261 0.554651
#
# Coordination Sequence:
#
# PCOD9293666 Si02
#       6
#     8   8   8   8   8   8
#     4  11  24  44  72 112 158 212 268 334 398 475
#     4  12  27  47  76 114 152 201 259 328 400 485
#     4  12  25  46  74 111 156 207 262 326 401 488
#     4   9  21  46  72 109 156 209 267 333 401 474
#     4  10  22  46  72 109 154 211 269 328 399 483
#     4  12  24  46  73 109 151 204 255 325 401 482
#
# _framework density 28.375585999999998
#
# number of rings (size 3 to 8) (size 9 to 14) (size 15 to 20)
#    0.000    1.000    1.667    4.500    2.333    0.667 
#    9.000    4.167    0.000    0.000    0.000    0.000 
#    0.000    0.000    0.000    0.000    0.000    0.000 
#
# Total GULP energy -133822.378951 kJ/mol
# GULP energy per Si atom -5575.932456 kJ/mol
# Density = 2.831100 g / cm^3
# Si number density = 28.375586 Si / 1000 Ang^3
#
#
#
# Elastic Constant Matrix: (Units=GPa)
#
#
# Indices 1 2 3 4 5 6 
#
# 1 183.5301 53.6629 77.6243 0.0000 13.0292 0.0000
# 2 53.6629 145.1246 27.2996 0.0000 3.7720 0.0000
# 3 77.6243 27.2996 206.0086 0.0000 -23.3778 0.0000
# 4 0.0000 0.0000 0.0000 94.2548 0.0000 -81.2128
# 5 13.0292 3.7720 -23.3778 0.0000 77.2645 0.0000
# 6 0.0000 0.0000 0.0000 -81.2128 0.0000 353.3641
#
#
#
# Elastic Compliance Matrix: (Units=1/GPa)
#
#
# Indices 1 2 3 4 5 6 
#
# 1 0.007367 -0.002163 -0.002711 0.000000 -0.001957 0.000000
# 2 -0.002163 0.007734 -0.000219 0.000000 -0.000079 0.000000
# 3 -0.002711 -0.000219 0.006170 0.000000 0.002335 0.000000
# 4 0.000000 0.000000 0.000000 0.013229 0.000000 0.003040
# 5 -0.001957 -0.000079 0.002335 0.000000 0.013983 0.000000
# 6 0.000000 0.000000 0.000000 0.003040 0.000000 0.003529
#
#
# Mechanical properties :
#
#
# Convention : Reuss Voigt Hill
#
# Bulk Modulus (GPa) = 90.22060 94.64855 92.43458
# Shear Modulus (GPa) = 75.88169 130.04844 102.96506
#
# Velocity S-wave (km/s) = 5.17687 6.77721 6.03036
# Velocity P-wave (km/s) = 8.22177 9.72979 9.00739
#
# Compressibility (1/GPa) = 0.01108394
#
# Stress axis : x y z
#
# Youngs Moduli (GPa) = 135.74301 129.30414 162.08263
#
# Poissons Ratio (x) = 0.27971 0.43945
# Poissons Ratio (y) = 0.29363 0.03545
# Poissons Ratio (z) = 0.36804 0.02828
#
# Static dielectric constant tensor:
#      x y z
#    x 2.573230 0.000000 -0.061290 
#    y 0.000000 2.350620 0.000000 
#    z -0.061290 0.000000 2.226790 
# 
# From -- ./inp_files/8705.got.cif
#   From: 2010.05.17/outbox.cif.g08.bks.cpg/sg15_5_cif.got.tgz:8705.got - 2010.06.03 18:47:42.
