data_PCOD9293441
_publ_section_title
;
Structure prediction by ZEFSAII (Michael W. Deem and Ramdas Pophale) SiO2 
 PCOD9293441
Probable space group: C 2/C
;
_chemical_formula_sum "Si O2"
_cell_formula_units_Z 28
_cell_length_a 18.566904
_cell_length_b 5.229892
_cell_length_c 15.894289
_cell_angle_alpha 90.000000
_cell_angle_beta 132.171810
_cell_angle_gamma 90.000000
_cell_volume 1143.854119
_symmetry_space_group_name_H-M "C 2/C"
_symmetry_group_IT_number 15
_symmetry_cell_setting 'monoclinic'
loop_
_space_group_symop_operation_xyz
x,y,z
-x,y,1/2-z
-x,-y,-z
x,-y,1/2+z
1/2+x,1/2+y,z
1/2-x,1/2+y,1/2-z
1/2-x,1/2-y,-z
1/2+x,1/2-y,1/2+z
loop_
_atom_site_type_symbol
_atom_site_label
_atom_site_fract_x
_atom_site_fract_y
_atom_site_fract_z
Si Si1 0.702048 0.138056 0.672907
Si Si2 0.503004 0.295980 0.574976
Si Si3 0.000000 0.666303 0.750000
Si Si4 0.824967 0.438503 0.015056
O O1 0.738054 0.401096 0.742953
O O2 0.589107 0.109383 0.612849
O O3 0.714280 0.149767 0.580221
O O4 0.500000 0.500000 0.500000
O O5 0.530182 0.340781 0.694480
O O6 0.590659 0.994923 0.851869
O O7 0.108705 0.720954 0.998297
O O8 0.750000 0.250000 0.000000
#
# Coordination Sequence:
#
# PCOD9293441 Si02
#       4
#     8   8   4   8
#     4  12  26  47  83 115 155 213 262 319 400 474
#     4  10  22  47  77 111 155 209 261 320 393 468
#     4   8  22  40  76 108 160 184 276 304 396 448
#     4  10  22  45  75 110 160 199 260 327 388 460
#
# _framework density 24.478646999999999
#
# number of rings (size 3 to 8) (size 9 to 14) (size 15 to 20)
#    1.714    0.000    0.000    4.286    0.000    0.000 
#    0.000   14.286    0.000    0.000    0.000    0.000 
#    0.000    0.000    0.000    0.000    0.000    0.000 
#
# Total GULP energy -77955.695871 kJ/mol
# GULP energy per Si atom -5568.263991 kJ/mol
# Density = 2.442293 g / cm^3
# Si number density = 24.478647 Si / 1000 Ang^3
#
#
#
# Elastic Constant Matrix: (Units=GPa)
#
#
# Indices 1 2 3 4 5 6 
#
# 1 174.3697 30.7725 32.1691 0.0000 -5.4875 0.0000
# 2 30.7725 66.9139 37.8764 -0.0005 -4.8438 0.0025
# 3 32.1691 37.8764 180.7648 -0.0001 -25.0333 -0.0003
# 4 0.0000 -0.0005 -0.0001 3.5198 -0.0001 18.3399
# 5 -5.4875 -4.8438 -25.0333 -0.0001 59.4554 0.0000
# 6 0.0000 0.0025 -0.0003 18.3399 0.0000 11.5689
#
#
#
# Elastic Compliance Matrix: (Units=1/GPa)
#
#
# Indices 1 2 3 4 5 6 
#
# 1 0.006296 -0.002566 -0.000564 0.000000 0.000135 0.000000
# 2 -0.002566 0.018003 -0.003340 -0.000003 -0.000176 0.000001
# 3 -0.000564 -0.003340 0.006677 0.000001 0.002487 0.000000
# 4 0.000000 -0.000003 0.000001 -0.039133 0.000000 0.062036
# 5 0.000135 -0.000176 0.002487 0.000000 0.017865 0.000000
# 6 0.000000 0.000001 0.000000 0.062036 0.000000 -0.011906
#
#
# Mechanical properties :
#
#
# Convention : Reuss Voigt Hill
#
# Bulk Modulus (GPa) = 55.44893 69.29827 62.37360
# Shear Modulus (GPa) = 298.44530 36.32417 167.38474
#
# Velocity S-wave (km/s) = 11.05375 3.85634 8.27818
# Velocity P-wave (km/s) = 13.62406 6.94259 10.81237
#
# Compressibility (1/GPa) = 0.01803461
#
# Stress axis : x y z
#
# Youngs Moduli (GPa) = 158.82680 55.54753 149.77537
#
# Poissons Ratio (x) = 0.14256 0.08449
# Poissons Ratio (y) = 0.40762 0.50023
# Poissons Ratio (z) = 0.08959 0.18552
#
# Static dielectric constant tensor:
#      x y z
#    x 1.963160 0.000000 0.051970 
#    y 0.000000 2.027620 0.000000 
#    z 0.051970 0.000000 2.187720 
# 
# From -- ./inp_files/170321.got.cif
#   From: 2010.05.17/outbox.cif.g08.bks.cpg/sg15_86_cif.got.tgz:170321.got - 2010.06.03 18:47:42.
