data_PCOD9293836
_publ_section_title
;
Structure prediction by ZEFSAII (Michael W. Deem and Ramdas Pophale) SiO2 
 PCOD9293836
Probable space group: C 2/C
;
_chemical_formula_sum "Si O2"
_cell_formula_units_Z 32
_cell_length_a 15.681774
_cell_length_b 9.786377
_cell_length_c 9.064819
_cell_angle_alpha 90.000000
_cell_angle_beta 53.799768
_cell_angle_gamma 90.000000
_cell_volume 1122.605481
_symmetry_space_group_name_H-M "C 2/C"
_symmetry_group_IT_number 15
_symmetry_cell_setting 'monoclinic'
loop_
_space_group_symop_operation_xyz
x,y,z
-x,y,1/2-z
-x,-y,-z
x,-y,1/2+z
1/2+x,1/2+y,z
1/2-x,1/2+y,1/2-z
1/2-x,1/2-y,-z
1/2+x,1/2-y,1/2+z
loop_
_atom_site_type_symbol
_atom_site_label
_atom_site_fract_x
_atom_site_fract_y
_atom_site_fract_z
Si Si1 0.481225 0.257686 0.027767
Si Si2 0.818083 0.875536 0.980504
Si Si3 0.500000 0.537116 0.750000
Si Si4 0.500000 0.000000 0.000000
Si Si5 0.669842 0.883187 0.590593
O O1 0.536774 0.357464 0.086192
O O2 0.420068 0.138427 0.189909
O O3 0.527134 0.142500 0.877457
O O4 0.386798 0.339123 0.051746
O O5 0.910250 0.936602 0.779805
O O6 0.750000 0.750000 0.000000
O O7 0.744298 0.002051 0.078047
O O8 0.608634 0.058020 0.010703
O O9 0.750000 0.750000 0.500000
#
# Coordination Sequence:
#
# PCOD9293836 Si02
#       5
#     8   8   4   4   8
#     4  10  25  46  74 109 149 206 259 336 401 486
#     4  12  28  44  75 109 155 200 269 334 407 490
#     4  12  26  46  76 112 156 206 266 336 418 480
#     4   8  22  44  74 104 148 196 262 322 402 482
#     4  10  22  48  71 107 151 200 257 328 409 478
#
# _framework density 28.505118
#
# number of rings (size 3 to 8) (size 9 to 14) (size 15 to 20)
#    1.500    0.000    2.500    0.750    7.000    4.000 
#    0.000    0.000    0.000    0.000    0.000    0.000 
#    0.000    0.000    0.000    0.000    0.000    0.000 
#
# Total GULP energy -89081.806010 kJ/mol
# GULP energy per Si atom -5567.612876 kJ/mol
# Density = 2.844024 g / cm^3
# Si number density = 28.505118 Si / 1000 Ang^3
#
#
#
# Elastic Constant Matrix: (Units=GPa)
#
#
# Indices 1 2 3 4 5 6 
#
# 1 200.2869 81.4275 48.5495 0.0000 0.2760 0.0000
# 2 81.4275 262.3668 8.6725 0.0000 -4.2548 0.0000
# 3 48.5495 8.6725 86.6277 0.0000 6.0452 0.0000
# 4 0.0000 0.0000 0.0000 38.7291 0.0000 -4.5766
# 5 0.2760 -4.2548 6.0452 0.0000 62.1025 0.0000
# 6 0.0000 0.0000 0.0000 -4.5766 0.0000 61.2885
#
#
#
# Elastic Compliance Matrix: (Units=1/GPa)
#
#
# Indices 1 2 3 4 5 6 
#
# 1 0.006640 -0.001941 -0.003539 0.000000 0.000182 0.000000
# 2 -0.001941 0.004397 0.000630 0.000000 0.000249 0.000000
# 3 -0.003539 0.000630 0.013552 0.000000 -0.001260 0.000000
# 4 0.000000 0.000000 0.000000 0.026050 0.000000 0.001945
# 5 0.000182 0.000249 -0.001260 0.000000 0.016241 0.000000
# 6 0.000000 0.000000 0.000000 0.001945 0.000000 0.016462
#
#
# Mechanical properties :
#
#
# Convention : Reuss Voigt Hill
#
# Bulk Modulus (GPa) = 67.16565 91.84227 79.50396
# Shear Modulus (GPa) = 51.01794 59.79949 55.40872
#
# Velocity S-wave (km/s) = 4.23517 4.58520 4.41366
# Velocity P-wave (km/s) = 6.89416 7.76670 7.34340
#
# Compressibility (1/GPa) = 0.01488856
#
# Stress axis : x y z
#
# Youngs Moduli (GPa) = 150.61267 227.42957 73.78894
#
# Poissons Ratio (x) = 0.44137 0.26117
# Poissons Ratio (y) = 0.29229 -0.04649
# Poissons Ratio (z) = 0.53309 -0.14330
#
# Static dielectric constant tensor:
#      x y z
#    x 2.293670 0.000000 -0.000580 
#    y 0.000000 3.186030 0.000000 
#    z -0.000580 0.000000 2.272150 
# 
# From -- ./inp_files/93468.got.cif
#   From: 2010.05.17/outbox.cif.g08.bks.cpg/sg15_47_cif.got.tgz:93468.got - 2010.06.03 18:47:42.
