data_PCOD9293024
_publ_section_title
;
Structure prediction by ZEFSAII (Michael W. Deem and Ramdas Pophale) SiO2 
 PCOD9293024
Probable space group: C 2/C
;
_chemical_formula_sum "Si O2"
_cell_formula_units_Z 64
_cell_length_a 17.100696
_cell_length_b 14.502352
_cell_length_c 15.503510
_cell_angle_alpha 90.000000
_cell_angle_beta 132.830170
_cell_angle_gamma 90.000000
_cell_volume 2819.723881
_symmetry_space_group_name_H-M "C 2/C"
_symmetry_group_IT_number 15
_symmetry_cell_setting 'monoclinic'
loop_
_space_group_symop_operation_xyz
x,y,z
-x,y,1/2-z
-x,-y,-z
x,-y,1/2+z
1/2+x,1/2+y,z
1/2-x,1/2+y,1/2-z
1/2-x,1/2-y,-z
1/2+x,1/2-y,1/2+z
loop_
_atom_site_type_symbol
_atom_site_label
_atom_site_fract_x
_atom_site_fract_y
_atom_site_fract_z
Si Si1 0.499339 0.604371 0.150852
Si Si2 0.877608 0.483500 0.628657
Si Si3 0.995471 0.115879 0.846654
Si Si4 0.874216 0.487152 0.419103
Si Si5 0.771997 0.145419 0.992051
Si Si6 0.229142 0.820443 0.248585
Si Si7 0.727133 0.316912 0.563476
Si Si8 0.276667 0.349918 0.691757
O O1 0.500000 0.642758 0.250000
O O2 0.507096 0.494585 0.158107
O O3 0.603978 0.641064 0.181932
O O4 0.383503 0.628835 0.028061
O O5 0.867300 0.470709 0.517352
O O6 0.824639 0.582303 0.612683
O O7 0.806203 0.403578 0.616717
O O8 0.000000 0.479239 0.750000
O O9 0.890130 0.146678 0.818615
O O10 0.000000 0.148857 0.750000
O O11 0.105916 0.148957 0.969304
O O12 0.813368 0.403272 0.325393
O O13 0.813726 0.580487 0.343005
O O14 0.000000 0.500000 0.500000
O O15 0.750000 0.250000 0.000000
O O16 0.790191 0.109704 0.104858
O O17 0.253074 0.743454 0.338257
O O18 0.244087 0.757158 0.174922
O O19 0.750000 0.250000 0.500000
#
# Coordination Sequence:
#
# PCOD9293024 Si02
#       8
#     8   8   8   8   8   8   8   8
#     4   9  18  40  70  90 119 165 222 274 322 389
#     4  11  25  43  68 102 137 173 226 288 341 398
#     4  11  20  40  69  93 127 172 223 278 332 394
#     4  11  25  45  65  96 142 181 219 277 346 410
#     4  10  22  44  71  96 127 174 231 276 326 400
#     4  12  26  42  68 101 138 178 225 275 351 411
#     4  12  24  39  67 104 131 169 227 282 339 405
#     4  10  24  43  66  97 132 176 220 273 343 403
#
# _framework density 22.697258000000001
#
# number of rings (size 3 to 8) (size 9 to 14) (size 15 to 20)
#    0.000    1.250    5.000    0.000    5.250    4.500 
#    0.000    0.625    0.000    0.000    0.000    0.000 
#    0.000    0.000    0.000    0.000    0.000    0.000 
#
# Total GULP energy -178755.442845 kJ/mol
# GULP energy per Si atom -5586.107589 kJ/mol
# Density = 2.264560 g / cm^3
# Si number density = 22.697258 Si / 1000 Ang^3
#
#
#
# Elastic Constant Matrix: (Units=GPa)
#
#
# Indices 1 2 3 4 5 6 
#
# 1 99.9710 40.5570 66.5163 0.0000 46.8885 0.0000
# 2 40.5570 133.3985 60.5013 0.0000 48.8105 0.0000
# 3 66.5163 60.5013 123.2280 0.0000 48.4568 0.0000
# 4 0.0000 0.0000 0.0000 36.4350 0.0000 8.9937
# 5 46.8885 48.8105 48.4568 0.0000 66.9502 0.0000
# 6 0.0000 0.0000 0.0000 8.9937 0.0000 40.6720
#
#
#
# Elastic Compliance Matrix: (Units=1/GPa)
#
#
# Indices 1 2 3 4 5 6 
#
# 1 0.018183 0.000588 -0.006888 0.000000 -0.008178 0.000000
# 2 0.000588 0.011054 -0.003374 0.000000 -0.006029 0.000000
# 3 -0.006888 -0.003374 0.014852 0.000000 -0.003466 0.000000
# 4 0.000000 0.000000 0.000000 0.029031 0.000000 -0.006419
# 5 -0.008178 -0.006029 -0.003466 0.000000 0.027568 0.000000
# 6 0.000000 0.000000 0.000000 -0.006419 0.000000 0.026006
#
#
# Mechanical properties :
#
#
# Convention : Reuss Voigt Hill
#
# Bulk Modulus (GPa) = 40.41722 76.86072 58.63897
# Shear Modulus (GPa) = 32.40701 41.41295 36.90998
#
# Velocity S-wave (km/s) = 3.78272 4.27614 4.03698
# Velocity P-wave (km/s) = 6.07654 7.63659 6.90079
#
# Compressibility (1/GPa) = 0.02474193
#
# Stress axis : x y z
#
# Youngs Moduli (GPa) = 54.99752 90.46844 67.32955
#
# Poissons Ratio (x) = -0.05320 0.46374
# Poissons Ratio (y) = -0.03234 0.22715
# Poissons Ratio (z) = 0.37880 0.30521
#
# Static dielectric constant tensor:
#      x y z
#    x 2.030090 0.000000 -0.149660 
#    y 0.000000 1.814630 0.000000 
#    z -0.149660 0.000000 1.974430 
# 
# From -- ./inp_files/211414.got.cif
#   From: 2010.05.17/outbox.cif.g08.bks.cpg/sg15_106_cif.got.tgz:211414.got - 2010.06.03 18:47:42.
