data_PCOD9293079
_publ_section_title
;
Structure prediction by ZEFSAII (Michael W. Deem and Ramdas Pophale) SiO2 
 PCOD9293079
Probable space group: C 2/C
;
_chemical_formula_sum "Si O2"
_cell_formula_units_Z 60
_cell_length_a 12.918785
_cell_length_b 14.499886
_cell_length_c 23.067828
_cell_angle_alpha 90.000000
_cell_angle_beta 147.326598
_cell_angle_gamma 90.000000
_cell_volume 2332.736893
_symmetry_space_group_name_H-M "C 2/C"
_symmetry_group_IT_number 15
_symmetry_cell_setting 'monoclinic'
loop_
_space_group_symop_operation_xyz
x,y,z
-x,y,1/2-z
-x,-y,-z
x,-y,1/2+z
1/2+x,1/2+y,z
1/2-x,1/2+y,1/2-z
1/2-x,1/2-y,-z
1/2+x,1/2-y,1/2+z
loop_
_atom_site_type_symbol
_atom_site_label
_atom_site_fract_x
_atom_site_fract_y
_atom_site_fract_z
Si Si1 0.721022 0.695207 0.239609
Si Si2 0.867221 0.527449 0.518643
Si Si3 0.313228 0.295755 0.591024
Si Si4 0.221362 0.321997 0.859153
Si Si5 0.777294 0.412982 0.252817
Si Si6 0.368009 0.182975 0.010518
Si Si7 0.101035 0.022789 0.986693
Si Si8 0.000000 0.355189 0.250000
O O1 0.532746 0.671036 0.186318
O O2 0.715608 0.646458 0.174763
O O3 0.717314 0.805581 0.226702
O O4 0.918180 0.679456 0.364727
O O5 0.812797 0.614936 0.453733
O O6 0.809155 0.423735 0.474508
O O7 0.735257 0.545892 0.513957
O O8 0.092140 0.532085 0.640299
O O9 0.250000 0.250000 0.500000
O O10 0.335181 0.212527 0.646869
O O11 0.000000 0.294786 0.750000
O O12 0.346291 0.237040 0.940234
O O13 0.250308 0.399488 0.921109
O O14 0.564475 0.442385 0.135100
O O15 0.898760 0.415353 0.250590
O O16 0.250000 0.250000 0.000000
O O17 0.000000 0.000000 0.000000
#
# Coordination Sequence:
#
# PCOD9293079 Si02
#       8
#     8   8   8   8   8   8   8   4
#     4  11  23  44  70  97 135 180 229 279 358 400
#     4  12  25  45  67 100 143 178 235 284 349 406
#     4  11  24  44  70 100 138 179 220 293 339 414
#     4  12  25  43  71  96 134 187 229 280 351 409
#     4  11  24  44  70 100 136 178 223 293 341 415
#     4  12  24  48  66  97 143 184 226 288 339 420
#     4  12  26  37  67 103 135 169 232 289 344 405
#     4  10  22  44  72  96 138 172 228 276 358 398
#
# _framework density 25.720859000000001
#
# number of rings (size 3 to 8) (size 9 to 14) (size 15 to 20)
#    0.000    0.533    6.667    1.600    7.467    0.000 
#    1.200    0.667    0.000    0.000    0.000    0.000 
#    0.000    0.000    0.000    0.000    0.000    0.000 
#
# Total GULP energy -168024.863300 kJ/mol
# GULP energy per Si atom -5600.828777 kJ/mol
# Density = 2.566232 g / cm^3
# Si number density = 25.720859 Si / 1000 Ang^3
#
#
#
# Elastic Constant Matrix: (Units=GPa)
#
#
# Indices 1 2 3 4 5 6 
#
# 1 40.8686 -15.5171 6.5848 0.0000 6.0404 0.0000
# 2 -15.5171 110.8870 35.6772 0.0000 -2.0767 0.0000
# 3 6.5848 35.6772 168.0184 -0.0004 11.1929 -0.0001
# 4 0.0000 0.0000 -0.0004 39.8486 -0.0001 3.2978
# 5 6.0404 -2.0767 11.1929 -0.0001 29.7385 0.0000
# 6 0.0000 0.0000 -0.0001 3.2978 0.0000 27.5532
#
#
#
# Elastic Compliance Matrix: (Units=1/GPa)
#
#
# Indices 1 2 3 4 5 6 
#
# 1 0.027015 0.004226 -0.001652 0.000000 -0.004570 0.000000
# 2 0.004226 0.010405 -0.002427 0.000000 0.000782 0.000000
# 3 -0.001652 -0.002427 0.006688 0.000000 -0.002351 0.000000
# 4 0.000000 0.000000 0.000000 0.025346 0.000000 -0.003034
# 5 -0.004570 0.000782 -0.002351 0.000000 0.035494 0.000000
# 6 0.000000 0.000000 0.000000 -0.003034 0.000000 0.036656
#
#
# Mechanical properties :
#
#
# Convention : Reuss Voigt Hill
#
# Bulk Modulus (GPa) = 22.52085 41.47376 31.99730
# Shear Modulus (GPa) = 32.02832 38.96334 35.49583
#
# Velocity S-wave (km/s) = 3.53261 3.89633 3.71892
# Velocity P-wave (km/s) = 5.04123 6.03336 5.55947
#
# Compressibility (1/GPa) = 0.04440329
#
# Stress axis : x y z
#
# Youngs Moduli (GPa) = 37.01660 96.10632 149.51070
#
# Poissons Ratio (x) = -0.40616 0.24694
# Poissons Ratio (y) = -0.15644 0.36288
# Poissons Ratio (z) = 0.06114 0.23326
#
# Static dielectric constant tensor:
#      x y z
#    x 2.093680 0.000000 -0.027580 
#    y 0.000000 2.051520 0.000000 
#    z -0.027580 0.000000 1.986540 
# 
# From -- ./inp_files/296730.got.cif
#   From: 2010.05.17/outbox.cif.g08.bks.cpg/sg15_149_cif.got.tgz:296730.got - 2010.06.03 18:47:42.
