data_PCOD9293568
_publ_section_title
;
Structure prediction by ZEFSAII (Michael W. Deem and Ramdas Pophale) SiO2 
 PCOD9293568
Probable space group: C 2/C
;
_chemical_formula_sum "Si O2"
_cell_formula_units_Z 60
_cell_length_a 17.276175
_cell_length_b 15.023707
_cell_length_c 12.081158
_cell_angle_alpha 90.000000
_cell_angle_beta 95.037955
_cell_angle_gamma 90.000000
_cell_volume 3123.577055
_symmetry_space_group_name_H-M "C 2/C"
_symmetry_group_IT_number 15
_symmetry_cell_setting 'monoclinic'
loop_
_space_group_symop_operation_xyz
x,y,z
-x,y,1/2-z
-x,-y,-z
x,-y,1/2+z
1/2+x,1/2+y,z
1/2-x,1/2+y,1/2-z
1/2-x,1/2-y,-z
1/2+x,1/2-y,1/2+z
loop_
_atom_site_type_symbol
_atom_site_label
_atom_site_fract_x
_atom_site_fract_y
_atom_site_fract_z
Si Si1 0.066327 0.159526 0.352848
Si Si2 0.314272 0.823966 0.486404
Si Si3 0.923361 0.951445 0.165320
Si Si4 0.253148 0.423060 0.230660
Si Si5 0.000000 0.664911 0.250000
Si Si6 0.831660 0.391942 0.736010
Si Si7 0.460686 0.284004 0.032019
Si Si8 0.232744 0.752105 0.866674
O O1 0.147624 0.205916 0.334843
O O2 0.000000 0.168758 0.250000
O O3 0.032271 0.201530 0.460230
O O4 0.079141 0.053961 0.372353
O O5 0.250000 0.750000 0.500000
O O6 0.284096 0.887688 0.387662
O O7 0.324932 0.870900 0.605234
O O8 0.393116 0.772628 0.465095
O O9 0.845437 0.932670 0.224547
O O10 0.928665 0.879984 0.067284
O O11 0.000000 0.939890 0.250000
O O12 0.213670 0.517095 0.249539
O O13 0.237487 0.347618 0.319832
O O14 0.076032 0.607640 0.230494
O O15 0.018061 0.729193 0.355508
O O16 0.793068 0.313696 0.805150
O O17 0.250000 0.750000 0.000000
#
# Coordination Sequence:
#
# PCOD9293568 Si02
#       8
#     8   8   8   8   4   8   8   8
#     4  11  25  41  61  99 138 171 214 276 338 403
#     4  11  22  42  71  93 122 182 223 271 328 391
#     4  11  23  39  66  99 128 171 213 270 337 392
#     4  12  25  45  68  97 136 175 225 274 334 403
#     4  10  22  46  68  96 122 174 224 274 324 384
#     4  11  25  45  69  96 135 169 229 275 325 407
#     4  11  21  41  68  92 130 169 222 269 329 398
#     4  12  26  44  68 100 137 178 220 282 342 395
#
# _framework density 19.208746000000001
#
# number of rings (size 3 to 8) (size 9 to 14) (size 15 to 20)
#    0.000    0.800    4.667    2.800    3.733    0.000 
#    3.600    1.333    0.000    0.000    0.000    0.000 
#    0.000    0.000    0.000    0.000    0.000    0.000 
#
# Total GULP energy -167731.213751 kJ/mol
# GULP energy per Si atom -5591.040458 kJ/mol
# Density = 1.916503 g / cm^3
# Si number density = 19.208746 Si / 1000 Ang^3
#
#
#
# Elastic Constant Matrix: (Units=GPa)
#
#
# Indices 1 2 3 4 5 6 
#
# 1 137.4715 29.9887 16.4795 0.0000 -9.2082 0.0000
# 2 29.9887 76.0223 15.2976 0.0000 0.3386 0.0000
# 3 16.4795 15.2976 73.7545 0.0000 0.9359 0.0000
# 4 0.0000 0.0000 0.0000 20.6017 0.0000 -12.9025
# 5 -9.2082 0.3386 0.9359 0.0000 32.7252 0.0000
# 6 0.0000 0.0000 0.0000 -12.9025 0.0000 33.7769
#
#
#
# Elastic Compliance Matrix: (Units=1/GPa)
#
#
# Indices 1 2 3 4 5 6 
#
# 1 0.008240 -0.003010 -0.001247 0.000000 0.002385 0.000000
# 2 -0.003010 0.014827 -0.002391 0.000000 -0.000932 0.000000
# 3 -0.001247 -0.002391 0.014342 0.000000 -0.000736 0.000000
# 4 0.000000 0.000000 0.000000 0.063804 0.000000 0.024372
# 5 0.002385 -0.000932 -0.000736 0.000000 0.031259 0.000000
# 6 0.000000 0.000000 0.000000 0.024372 0.000000 0.038916
#
#
# Mechanical properties :
#
#
# Convention : Reuss Voigt Hill
#
# Bulk Modulus (GPa) = 41.47132 45.64220 43.55676
# Shear Modulus (GPa) = 25.94405 32.45292 29.19848
#
# Velocity S-wave (km/s) = 3.67909 4.11480 3.90303
# Velocity P-wave (km/s) = 6.29955 6.81088 6.56020
#
# Compressibility (1/GPa) = 0.02411305
#
# Stress axis : x y z
#
# Youngs Moduli (GPa) = 121.35671 67.44576 69.72352
#
# Poissons Ratio (x) = 0.20303 0.08695
# Poissons Ratio (y) = 0.36531 0.16670
# Poissons Ratio (z) = 0.15134 0.16125
#
# Static dielectric constant tensor:
#      x y z
#    x 1.672810 0.000000 0.014150 
#    y 0.000000 1.553760 0.000000 
#    z 0.014150 0.000000 1.642270 
# 
# From -- ./inp_files/105349.got.cif
#   From: 2010.05.17/outbox.cif.g08.bks.cpg/sg15_53_cif.got.tgz:105349.got - 2010.06.03 18:47:42.
