data_PCOD9293770
_publ_section_title
;
Structure prediction by ZEFSAII (Michael W. Deem and Ramdas Pophale) SiO2 
 PCOD9293770
Probable space group: C 2/C
;
_chemical_formula_sum "Si O2"
_cell_formula_units_Z 64
_cell_length_a 8.172367
_cell_length_b 17.578287
_cell_length_c 19.674603
_cell_angle_alpha 90.000000
_cell_angle_beta 100.066931
_cell_angle_gamma 90.000000
_cell_volume 2782.864674
_symmetry_space_group_name_H-M "C 2/C"
_symmetry_group_IT_number 15
_symmetry_cell_setting 'monoclinic'
loop_
_space_group_symop_operation_xyz
x,y,z
-x,y,1/2-z
-x,-y,-z
x,-y,1/2+z
1/2+x,1/2+y,z
1/2-x,1/2+y,1/2-z
1/2-x,1/2-y,-z
1/2+x,1/2-y,1/2+z
loop_
_atom_site_type_symbol
_atom_site_label
_atom_site_fract_x
_atom_site_fract_y
_atom_site_fract_z
Si Si1 0.831147 0.262025 0.714028
Si Si2 0.067979 0.737368 0.020043
Si Si3 0.486337 0.397046 0.029879
Si Si4 0.633215 0.537226 0.409935
Si Si5 0.510420 0.980620 0.081743
Si Si6 0.143553 0.179455 0.315037
Si Si7 0.975282 0.691017 0.874740
Si Si8 0.650314 0.872528 0.913906
O O1 0.801977 0.315311 0.778618
O O2 0.683840 0.202645 0.685247
O O3 0.823044 0.318042 0.648318
O O4 0.000000 0.222014 0.750000
O O5 0.027448 0.813358 0.058312
O O6 0.946984 0.730872 0.945835
O O7 0.250000 0.750000 0.000000
O O8 0.011724 0.664282 0.059218
O O9 0.622977 0.424819 0.984588
O O10 0.309270 0.385937 0.976207
O O11 0.479044 0.462893 0.085139
O O12 0.798832 0.500658 0.392505
O O13 0.604966 0.609727 0.361015
O O14 0.479631 0.894851 0.102718
O O15 0.397251 0.042269 0.110496
O O16 0.500000 0.000000 0.000000
O O17 0.000000 0.177108 0.250000
O O18 0.121923 0.259136 0.352440
#
# Coordination Sequence:
#
# PCOD9293770 Si02
#       8
#     8   8   8   8   8   8   8   8
#     4  11  25  45  72  99 135 197 254 295 341 430
#     4  12  24  39  70 108 144 188 229 295 381 438
#     4  11  22  38  67 107 145 182 228 302 369 424
#     4  11  22  39  67 101 145 178 234 293 359 434
#     4  12  24  41  67 107 144 178 221 295 376 439
#     4  10  22  47  70  96 137 198 246 284 350 437
#     4  11  24  44  71 102 145 189 236 298 363 429
#     4  12  24  43  72 106 148 181 241 299 368 431
#
# _framework density 22.997885
#
# number of rings (size 3 to 8) (size 9 to 14) (size 15 to 20)
#    0.000    0.750    5.000    2.625    3.500    0.000 
#    0.000    7.500    0.000    0.000    0.000    0.000 
#    0.000    0.000    0.000    0.000    0.000    0.000 
#
# Total GULP energy -178486.546986 kJ/mol
# GULP energy per Si atom -5577.704593 kJ/mol
# Density = 2.294554 g / cm^3
# Si number density = 22.997885 Si / 1000 Ang^3
#
#
#
# Elastic Constant Matrix: (Units=GPa)
#
#
# Indices 1 2 3 4 5 6 
#
# 1 56.7611 36.8332 28.0263 0.0000 0.1982 0.0000
# 2 36.8332 195.3569 47.3531 0.0000 -5.7566 0.0000
# 3 28.0263 47.3531 87.7585 0.0000 0.6377 0.0000
# 4 0.0000 0.0000 0.0000 20.1709 0.0000 -3.3913
# 5 0.1982 -5.7566 0.6377 0.0000 25.6347 0.0000
# 6 0.0000 0.0000 0.0000 -3.3913 0.0000 29.7033
#
#
#
# Elastic Compliance Matrix: (Units=1/GPa)
#
#
# Indices 1 2 3 4 5 6 
#
# 1 0.022217 -0.002865 -0.005544 0.000000 -0.000677 0.000000
# 2 -0.002865 0.006309 -0.002500 0.000000 0.001501 0.000000
# 3 -0.005544 -0.002500 0.014521 0.000000 -0.000880 0.000000
# 4 0.000000 0.000000 0.000000 0.050547 0.000000 0.005771
# 5 -0.000677 0.001501 -0.000880 0.000000 0.039374 0.000000
# 6 0.000000 0.000000 0.000000 0.005771 0.000000 0.034325
#
#
# Mechanical properties :
#
#
# Convention : Reuss Voigt Hill
#
# Bulk Modulus (GPa) = 47.10768 62.70018 54.90393
# Shear Modulus (GPa) = 25.48578 30.27937 27.88257
#
# Velocity S-wave (km/s) = 3.33254 3.63246 3.48573
# Velocity P-wave (km/s) = 5.94439 6.70191 6.33448
#
# Compressibility (1/GPa) = 0.02122796
#
# Stress axis : x y z
#
# Youngs Moduli (GPa) = 45.01124 158.49624 68.86540
#
# Poissons Ratio (x) = 0.45407 0.38181
# Poissons Ratio (y) = 0.12895 0.17219
# Poissons Ratio (z) = 0.24956 0.39630
#
# Static dielectric constant tensor:
#      x y z
#    x 2.136880 0.000000 -0.089600 
#    y 0.000000 1.904050 0.000000 
#    z -0.089600 0.000000 1.936400 
# 
# From -- ./inp_files/232706.got.cif
#   From: 2010.05.17/outbox.cif.g08.bks.cpg/sg15_117_cif.got.tgz:232706.got - 2010.06.03 18:47:42.
