data_PCOD9293418
_publ_section_title
;
Structure prediction by ZEFSAII (Michael W. Deem and Ramdas Pophale) SiO2 
 PCOD9293418
Probable space group: C 2/C
;
_chemical_formula_sum "Si O2"
_cell_formula_units_Z 44
_cell_length_a 12.498250
_cell_length_b 8.215933
_cell_length_c 19.535961
_cell_angle_alpha 90.000000
_cell_angle_beta 63.955469
_cell_angle_gamma 90.000000
_cell_volume 1802.338135
_symmetry_space_group_name_H-M "C 2/C"
_symmetry_group_IT_number 15
_symmetry_cell_setting 'monoclinic'
loop_
_space_group_symop_operation_xyz
x,y,z
-x,y,1/2-z
-x,-y,-z
x,-y,1/2+z
1/2+x,1/2+y,z
1/2-x,1/2+y,1/2-z
1/2-x,1/2-y,-z
1/2+x,1/2-y,1/2+z
loop_
_atom_site_type_symbol
_atom_site_label
_atom_site_fract_x
_atom_site_fract_y
_atom_site_fract_z
Si Si1 0.439370 0.656972 0.548172
Si Si2 0.820372 0.515102 0.706636
Si Si3 0.500000 0.937362 0.250000
Si Si4 0.790803 0.466516 0.913960
Si Si5 0.577752 0.664438 0.794712
Si Si6 0.857601 0.629847 0.547353
O O1 0.500000 0.500000 0.500000
O O2 0.299464 0.616872 0.577940
O O3 0.482379 0.656798 0.614872
O O4 0.505545 0.809177 0.495467
O O5 0.904541 0.641632 0.724679
O O6 0.685500 0.540068 0.763821
O O7 0.864173 0.342596 0.721574
O O8 0.836580 0.526961 0.621369
O O9 0.592097 0.014829 0.166601
O O10 0.821206 0.453876 0.986089
O O11 0.722966 0.294425 0.919515
O O12 0.500000 0.640348 0.750000
#
# Coordination Sequence:
#
# PCOD9293418 Si02
#       6
#     8   8   4   8   8   8
#     4  10  23  45  76 109 148 197 252 309 374 450
#     4  12  27  48  77 113 149 202 251 313 382 455
#     4  12  22  44  70 100 154 182 248 308 362 440
#     4  10  22  45  73 107 144 199 240 309 370 451
#     4  12  28  50  77 110 155 203 251 314 385 449
#     4  10  24  43  72 104 151 193 250 300 380 444
#
# _framework density 24.412735000000001
#
# number of rings (size 3 to 8) (size 9 to 14) (size 15 to 20)
#    0.000    1.091    2.727    2.182   10.182    2.909 
#    4.909    1.818    0.000    0.000    0.000    0.000 
#    0.000    0.000    0.000    0.000    0.000    0.000 
#
# Total GULP energy -122992.696530 kJ/mol
# GULP energy per Si atom -5590.577115 kJ/mol
# Density = 2.435717 g / cm^3
# Si number density = 24.412735 Si / 1000 Ang^3
#
#
#
# Elastic Constant Matrix: (Units=GPa)
#
#
# Indices 1 2 3 4 5 6 
#
# 1 124.3129 23.5120 10.9946 0.0000 3.5080 0.0000
# 2 23.5120 23.0257 3.3723 0.0000 -6.0819 0.0000
# 3 10.9946 3.3723 103.6953 0.0000 5.3286 0.0000
# 4 0.0000 0.0000 0.0000 27.3682 0.0000 -6.3963
# 5 3.5080 -6.0819 5.3286 0.0000 55.2342 0.0000
# 6 0.0000 0.0000 0.0000 -6.3963 0.0000 41.4041
#
#
#
# Elastic Compliance Matrix: (Units=1/GPa)
#
#
# Indices 1 2 3 4 5 6 
#
# 1 0.010189 -0.010779 -0.000639 0.000000 -0.001772 0.000000
# 2 -0.010779 0.056440 -0.001052 0.000000 0.007001 0.000000
# 3 -0.000639 -0.001052 0.009798 0.000000 -0.001021 0.000000
# 4 0.000000 0.000000 0.000000 0.037907 0.000000 0.005856
# 5 -0.001772 0.007001 -0.001021 0.000000 0.019087 0.000000
# 6 0.000000 0.000000 0.000000 0.005856 0.000000 0.025057
#
#
# Mechanical properties :
#
#
# Convention : Reuss Voigt Hill
#
# Bulk Modulus (GPa) = 19.42251 36.31022 27.86636
# Shear Modulus (GPa) = 24.92755 39.01161 31.96958
#
# Velocity S-wave (km/s) = 3.19891 4.00184 3.62269
# Velocity P-wave (km/s) = 4.64943 6.02152 5.37940
#
# Compressibility (1/GPa) = 0.05148666
#
# Stress axis : x y z
#
# Youngs Moduli (GPa) = 98.14050 17.71797 102.06137
#
# Poissons Ratio (x) = 0.19099 0.06519
# Poissons Ratio (y) = 1.05788 0.10740
# Poissons Ratio (z) = 0.06269 0.01865
#
# Static dielectric constant tensor:
#      x y z
#    x 2.015360 0.000000 -0.028560 
#    y 0.000000 2.119700 0.000000 
#    z -0.028560 0.000000 1.907660 
# 
# From -- ./inp_files/236487.got.cif
#   From: 2010.05.17/outbox.cif.g08.bks.cpg/sg15_119_cif.got.tgz:236487.got - 2010.06.03 18:47:42.
