data_PCOD9293893
_publ_section_title
;
Structure prediction by ZEFSAII (Michael W. Deem and Ramdas Pophale) SiO2 
 PCOD9293893
Probable space group: C 2/C
;
_chemical_formula_sum "Si O2"
_cell_formula_units_Z 36
_cell_length_a 22.853967
_cell_length_b 6.824885
_cell_length_c 8.092791
_cell_angle_alpha 90.000000
_cell_angle_beta 73.901749
_cell_angle_gamma 90.000000
_cell_volume 1212.781760
_symmetry_space_group_name_H-M "C 2/C"
_symmetry_group_IT_number 15
_symmetry_cell_setting 'monoclinic'
loop_
_space_group_symop_operation_xyz
x,y,z
-x,y,1/2-z
-x,-y,-z
x,-y,1/2+z
1/2+x,1/2+y,z
1/2-x,1/2+y,1/2-z
1/2-x,1/2-y,-z
1/2+x,1/2-y,1/2+z
loop_
_atom_site_type_symbol
_atom_site_label
_atom_site_fract_x
_atom_site_fract_y
_atom_site_fract_z
Si Si1 0.825418 0.738498 0.601253
Si Si2 0.102345 0.675231 0.269898
Si Si3 0.051483 0.736475 0.851065
Si Si4 0.209647 0.172270 0.884774
Si Si5 0.500000 0.596586 0.750000
O O1 0.859161 0.636353 0.423818
O O2 0.875044 0.752875 0.710288
O O3 0.739683 0.846315 0.299630
O O4 0.814429 0.959577 0.556461
O O5 0.152695 0.699281 0.370707
O O6 0.068384 0.883836 0.280379
O O7 0.029410 0.814029 0.044995
O O8 0.000000 0.827913 0.750000
O O9 0.052641 0.498533 0.832009
O O10 0.250000 0.250000 0.000000
#
# Coordination Sequence:
#
# PCOD9293893 Si02
#       5
#     8   8   8   8   4
#     4  12  27  49  77 116 153 202 262 323 383 464
#     4  12  25  51  81 115 155 202 260 319 387 462
#     4  10  24  46  72 116 154 204 247 313 383 461
#     4  12  27  50  78 110 157 208 260 322 389 459
#     4  10  22  52  76 114 160 200 254 314 392 466
#
# _framework density 29.683824999999999
#
# number of rings (size 3 to 8) (size 9 to 14) (size 15 to 20)
#    0.667    0.000    3.333    3.333    0.000    7.111 
#    4.000    0.000    0.000    0.000    0.000    0.000 
#    0.000    0.000    0.000    0.000    0.000    0.000 
#
# Total GULP energy -100674.682314 kJ/mol
# GULP energy per Si atom -5593.037906 kJ/mol
# Density = 2.961626 g / cm^3
# Si number density = 29.683825 Si / 1000 Ang^3
#
#
#
# Elastic Constant Matrix: (Units=GPa)
#
#
# Indices 1 2 3 4 5 6 
#
# 1 264.7494 104.7711 77.0775 0.0000 41.2462 0.0000
# 2 104.7711 161.1769 62.5535 0.0000 11.4587 0.0000
# 3 77.0775 62.5535 172.6338 0.0000 -5.0304 0.0000
# 4 0.0000 0.0000 0.0000 38.8693 0.0000 -4.9106
# 5 41.2462 11.4587 -5.0304 0.0000 66.7170 0.0000
# 6 0.0000 0.0000 0.0000 -4.9106 0.0000 72.0037
#
#
#
# Elastic Compliance Matrix: (Units=1/GPa)
#
#
# Indices 1 2 3 4 5 6 
#
# 1 0.005962 -0.002991 -0.001674 0.000000 -0.003298 0.000000
# 2 -0.002991 0.008861 -0.001870 0.000000 0.000186 0.000000
# 3 -0.001674 -0.001870 0.007273 0.000000 0.001905 0.000000
# 4 0.000000 0.000000 0.000000 0.025951 0.000000 0.001770
# 5 -0.003298 0.000186 0.001905 0.000000 0.017139 0.000000
# 6 0.000000 0.000000 0.000000 0.001770 0.000000 0.014009
#
#
# Mechanical properties :
#
#
# Convention : Reuss Voigt Hill
#
# Bulk Modulus (GPa) = 110.79362 120.81824 115.80593
# Shear Modulus (GPa) = 52.47939 59.12855 55.80397
#
# Velocity S-wave (km/s) = 4.20926 4.46796 4.34054
# Velocity P-wave (km/s) = 7.81213 8.21018 8.01363
#
# Compressibility (1/GPa) = 0.00902579
#
# Stress axis : x y z
#
# Youngs Moduli (GPa) = 167.72112 112.84966 137.49218
#
# Poissons Ratio (x) = 0.33758 0.23019
# Poissons Ratio (y) = 0.50173 0.25709
# Poissons Ratio (z) = 0.28080 0.21101
#
# Static dielectric constant tensor:
#      x y z
#    x 2.311660 0.000000 0.160870 
#    y 0.000000 2.435940 0.000000 
#    z 0.160870 0.000000 2.334370 
# 
# From -- ./inp_files/46070.got.cif
#   From: 2010.05.17/outbox.cif.g08.bks.cpg/sg15_24_cif.got.tgz:46070.got - 2010.06.03 18:47:42.
