data_PCOD9293025
_publ_section_title
;
Structure prediction by ZEFSAII (Michael W. Deem and Ramdas Pophale) SiO2 
 PCOD9293025
Probable space group: C 2/C
;
_chemical_formula_sum "Si O2"
_cell_formula_units_Z 48
_cell_length_a 7.595722
_cell_length_b 29.494461
_cell_length_c 13.880657
_cell_angle_alpha 90.000000
_cell_angle_beta 44.817117
_cell_angle_gamma 90.000000
_cell_volume 2191.865429
_symmetry_space_group_name_H-M "C 2/C"
_symmetry_group_IT_number 15
_symmetry_cell_setting 'monoclinic'
loop_
_space_group_symop_operation_xyz
x,y,z
-x,y,1/2-z
-x,-y,-z
x,-y,1/2+z
1/2+x,1/2+y,z
1/2-x,1/2+y,1/2-z
1/2-x,1/2-y,-z
1/2+x,1/2-y,1/2+z
loop_
_atom_site_type_symbol
_atom_site_label
_atom_site_fract_x
_atom_site_fract_y
_atom_site_fract_z
Si Si1 0.962643 0.013110 0.626593
Si Si2 0.856001 0.564544 0.605516
Si Si3 0.817412 0.661150 0.680098
Si Si4 0.115412 0.158656 0.965384
Si Si5 0.258871 0.740633 0.109812
Si Si6 0.442835 0.582521 0.371812
O O1 0.209218 0.035352 0.581640
O O2 0.744820 0.045959 0.751658
O O3 0.899693 0.963432 0.692574
O O4 0.000000 0.000000 0.500000
O O5 0.782905 0.617466 0.626520
O O6 0.155353 0.565581 0.487462
O O7 0.639429 0.656623 0.841524
O O8 0.787406 0.710378 0.646928
O O9 0.102792 0.658982 0.604952
O O10 0.998942 0.114329 0.060346
O O11 0.974400 0.204592 0.047891
O O12 0.000000 0.720796 0.250000
O O13 0.250000 0.750000 0.000000
O O14 0.500000 0.608232 0.250000
#
# Coordination Sequence:
#
# PCOD9293025 Si02
#       6
#     8   8   8   8   8   8
#     4  11  23  38  68 100 132 178 228 281 342 409
#     4  10  23  43  68  96 138 179 232 282 339 413
#     4  10  22  44  71  96 133 187 233 279 341 433
#     4  10  23  44  68  97 133 186 234 278 349 418
#     4  12  25  41  68 101 142 172 229 292 350 410
#     4  11  23  44  65  95 139 179 230 286 341 411
#
# _framework density 21.899155
#
# number of rings (size 3 to 8) (size 9 to 14) (size 15 to 20)
#    0.000    1.333    3.333    2.000    2.333    6.000 
#    3.000    0.000    0.000    0.000    0.000    0.000 
#    0.000    0.000    0.000    0.000    0.000    0.000 
#
# Total GULP energy -134030.668661 kJ/mol
# GULP energy per Si atom -5584.611194 kJ/mol
# Density = 2.184931 g / cm^3
# Si number density = 21.899155 Si / 1000 Ang^3
#
#
#
# Elastic Constant Matrix: (Units=GPa)
#
#
# Indices 1 2 3 4 5 6 
#
# 1 59.6817 38.8198 23.4510 0.0000 15.8846 0.0000
# 2 38.8198 169.7623 38.9483 0.0000 7.2047 0.0000
# 3 23.4510 38.9483 110.6970 0.0000 15.3929 0.0000
# 4 0.0000 0.0000 0.0000 37.2841 0.0000 10.8407
# 5 15.8846 7.2047 15.3929 0.0000 37.6852 0.0000
# 6 0.0000 0.0000 0.0000 10.8407 0.0000 26.5837
#
#
#
# Elastic Compliance Matrix: (Units=1/GPa)
#
#
# Indices 1 2 3 4 5 6 
#
# 1 0.022479 -0.004314 -0.002164 0.000000 -0.007766 0.000000
# 2 -0.004314 0.007240 -0.001796 0.000000 0.001168 0.000000
# 3 -0.002164 -0.001796 0.010549 0.000000 -0.003053 0.000000
# 4 0.000000 0.000000 0.000000 0.030429 0.000000 -0.012409
# 5 -0.007766 0.001168 -0.003053 0.000000 0.030833 0.000000
# 6 0.000000 0.000000 0.000000 -0.012409 0.000000 0.042677
#
#
# Mechanical properties :
#
#
# Convention : Reuss Voigt Hill
#
# Bulk Modulus (GPa) = 42.16039 60.28657 51.22348
# Shear Modulus (GPa) = 29.64524 36.23873 32.94198
#
# Velocity S-wave (km/s) = 3.68328 4.07234 3.88268
# Velocity P-wave (km/s) = 6.11413 7.04988 6.59861
#
# Compressibility (1/GPa) = 0.02371895
#
# Stress axis : x y z
#
# Youngs Moduli (GPa) = 44.48557 138.13057 94.80016
#
# Poissons Ratio (x) = 0.59592 0.20518
# Poissons Ratio (y) = 0.19192 0.17023
# Poissons Ratio (z) = 0.09628 0.24803
#
# Static dielectric constant tensor:
#      x y z
#    x 1.860570 0.000000 0.020220 
#    y 0.000000 1.788750 0.000000 
#    z 0.020220 0.000000 1.849930 
# 
# From -- ./inp_files/138894.got.cif
#   From: 2010.05.17/outbox.cif.g08.bks.cpg/sg15_70_cif.got.tgz:138894.got - 2010.06.03 18:47:42.
