data_PCOD9293603
_publ_section_title
;
Structure prediction by ZEFSAII (Michael W. Deem and Ramdas Pophale) SiO2 
 PCOD9293603
Probable space group: C 2/C
;
_chemical_formula_sum "Si O2"
_cell_formula_units_Z 48
_cell_length_a 10.274573
_cell_length_b 22.013912
_cell_length_c 15.882414
_cell_angle_alpha 90.000000
_cell_angle_beta 143.385640
_cell_angle_gamma 90.000000
_cell_volume 2142.565640
_symmetry_space_group_name_H-M "C 2/C"
_symmetry_group_IT_number 15
_symmetry_cell_setting 'monoclinic'
loop_
_space_group_symop_operation_xyz
x,y,z
-x,y,1/2-z
-x,-y,-z
x,-y,1/2+z
1/2+x,1/2+y,z
1/2-x,1/2+y,1/2-z
1/2-x,1/2-y,-z
1/2+x,1/2-y,1/2+z
loop_
_atom_site_type_symbol
_atom_site_label
_atom_site_fract_x
_atom_site_fract_y
_atom_site_fract_z
Si Si1 0.345644 0.686936 0.844068
Si Si2 0.000000 0.597062 0.750000
Si Si3 0.846852 0.356744 0.411000
Si Si4 0.000000 0.036497 0.750000
Si Si5 0.175115 0.999611 0.514754
Si Si6 0.763820 0.206492 0.091902
Si Si7 0.820132 0.637866 0.091017
O O1 0.166386 0.639662 0.785955
O O2 0.300006 0.688740 0.720991
O O3 0.312579 0.748818 0.874215
O O4 0.581640 0.662013 0.988082
O O5 0.152440 0.553079 0.884053
O O6 0.707067 0.419521 0.334950
O O7 0.864531 0.343018 0.518571
O O8 0.089858 0.348165 0.499485
O O9 0.943470 0.999251 0.637202
O O10 0.299653 0.935212 0.581941
O O11 0.000000 0.000000 0.500000
O O12 0.000000 0.186681 0.250000
O O13 0.750000 0.250000 0.000000
O O14 0.000000 0.658232 0.250000
#
# Coordination Sequence:
#
# PCOD9293603 Si02
#       7
#     8   4   8   4   8   8   8
#     4  12  23  46  70  95 144 185 228 292 355 410
#     4  12  22  40  72 103 135 192 232 286 352 410
#     4  11  22  46  70  92 141 183 224 293 349 410
#     4  10  22  46  70 105 143 182 234 296 350 422
#     4  11  21  41  69  97 140 182 230 283 360 412
#     4  12  26  44  69 101 135 184 233 285 355 422
#     4  11  24  41  67 103 134 180 235 289 345 424
#
# _framework density 22.403047000000001
#
# number of rings (size 3 to 8) (size 9 to 14) (size 15 to 20)
#    0.000    0.667    8.333    0.000    2.333    0.667 
#    4.500    2.500    1.833    0.000    0.000    0.000 
#    0.000    0.000    0.000    0.000    0.000    0.000 
#
# Total GULP energy -134158.076659 kJ/mol
# GULP energy per Si atom -5589.919861 kJ/mol
# Density = 2.235206 g / cm^3
# Si number density = 22.403047 Si / 1000 Ang^3
#
#
#
# Elastic Constant Matrix: (Units=GPa)
#
#
# Indices 1 2 3 4 5 6 
#
# 1 120.5888 47.2238 85.5714 -0.0001 -2.2053 0.0000
# 2 47.2238 75.1342 44.9353 -0.0002 9.1600 -0.0001
# 3 85.5714 44.9353 220.5358 -0.0006 -5.9020 0.0001
# 4 -0.0001 -0.0002 -0.0006 34.7398 -0.0004 2.7814
# 5 -2.2053 9.1600 -5.9020 -0.0004 57.1198 -0.0001
# 6 0.0000 -0.0001 0.0001 2.7814 -0.0001 41.7676
#
#
#
# Elastic Compliance Matrix: (Units=1/GPa)
#
#
# Indices 1 2 3 4 5 6 
#
# 1 0.013595 -0.006315 -0.003958 0.000000 0.001129 0.000000
# 2 -0.006315 0.018536 -0.001416 0.000000 -0.003363 0.000000
# 3 -0.003958 -0.001416 0.006378 0.000000 0.000733 0.000000
# 4 0.000000 0.000000 0.000000 0.028940 0.000000 -0.001927
# 5 0.001129 -0.003363 0.000733 0.000000 0.018166 0.000000
# 6 0.000000 0.000000 0.000000 -0.001927 0.000000 0.024070
#
#
# Mechanical properties :
#
#
# Convention : Reuss Voigt Hill
#
# Bulk Modulus (GPa) = 66.09418 85.74665 75.92041
# Shear Modulus (GPa) = 36.20351 42.62732 39.41542
#
# Velocity S-wave (km/s) = 4.02432 4.36678 4.19904
# Velocity P-wave (km/s) = 7.15262 7.98641 7.58098
#
# Compressibility (1/GPa) = 0.01512992
#
# Stress axis : x y z
#
# Youngs Moduli (GPa) = 73.55545 53.94946 156.77763
#
# Poissons Ratio (x) = 0.34071 0.62055
# Poissons Ratio (y) = 0.46452 0.22205
# Poissons Ratio (z) = 0.29115 0.07641
#
# Static dielectric constant tensor:
#      x y z
#    x 1.878930 0.000000 -0.028680 
#    y 0.000000 1.871120 0.000010 
#    z -0.028680 0.000010 1.853590 
# 
# From -- ./inp_files/139079.got.cif
#   From: 2010.05.17/outbox.cif.g08.bks.cpg/sg15_70_cif.got.tgz:139079.got - 2010.06.03 18:47:42.
