data_PCOD9293910
_publ_section_title
;
Structure prediction by ZEFSAII (Michael W. Deem and Ramdas Pophale) SiO2 
 PCOD9293910
Probable space group: C 2/C
;
_chemical_formula_sum "Si O2"
_cell_formula_units_Z 24
_cell_length_a 9.048520
_cell_length_b 13.204687
_cell_length_c 9.727045
_cell_angle_alpha 90.000000
_cell_angle_beta 132.986694
_cell_angle_gamma 90.000000
_cell_volume 850.174511
_symmetry_space_group_name_H-M "C 2/C"
_symmetry_group_IT_number 15
_symmetry_cell_setting 'monoclinic'
loop_
_space_group_symop_operation_xyz
x,y,z
-x,y,1/2-z
-x,-y,-z
x,-y,1/2+z
1/2+x,1/2+y,z
1/2-x,1/2+y,1/2-z
1/2-x,1/2-y,-z
1/2+x,1/2-y,1/2+z
loop_
_atom_site_type_symbol
_atom_site_label
_atom_site_fract_x
_atom_site_fract_y
_atom_site_fract_z
Si Si1 0.056022 0.852265 0.563638
Si Si2 0.281367 0.131167 0.860001
Si Si3 0.296334 0.073831 0.468753
O O1 0.931454 0.882659 0.349887
O O2 0.858246 0.858740 0.541160
O O3 0.168245 0.749116 0.591492
O O4 0.217691 0.910243 0.761021
O O5 0.528328 0.103967 0.617584
O O6 0.292505 0.047437 0.987520
#
# Coordination Sequence:
#
# PCOD9293910 Si02
#       3
#     8   8   8
#     4  11  21  38  63  87 125 162 201 255 305 363
#     4  11  21  37  61  93 123 159 207 252 304 365
#     4  10  23  35  59  97 119 159 211 246 304 370
#
# _framework density 28.229496000000001
#
# number of rings (size 3 to 8) (size 9 to 14) (size 15 to 20)
#    0.000    1.333    3.333    3.000    4.667    0.000 
#    0.000    0.000    0.000   18.000    0.000    0.000 
#    0.000    0.000    0.000    0.000    0.000    0.000 
#
# Total GULP energy -67015.768301 kJ/mol
# GULP energy per Si atom -5584.647358 kJ/mol
# Density = 2.816524 g / cm^3
# Si number density = 28.229496 Si / 1000 Ang^3
#
#
#
# Elastic Constant Matrix: (Units=GPa)
#
#
# Indices 1 2 3 4 5 6 
#
# 1 158.8375 22.9650 43.0281 0.0000 17.8408 0.0000
# 2 22.9650 155.8484 -0.3722 0.0000 -5.3592 0.0000
# 3 43.0281 -0.3722 125.9501 0.0000 13.6712 0.0000
# 4 0.0000 0.0000 0.0000 60.7188 0.0000 62.8206
# 5 17.8408 -5.3592 13.6712 0.0000 59.1388 0.0000
# 6 0.0000 0.0000 0.0000 62.8206 0.0000 99.3188
#
#
#
# Elastic Compliance Matrix: (Units=1/GPa)
#
#
# Indices 1 2 3 4 5 6 
#
# 1 0.007282 -0.001139 -0.002299 0.000000 -0.001769 0.000000
# 2 -0.001139 0.006615 0.000314 0.000000 0.000871 0.000000
# 3 -0.002299 0.000314 0.008870 0.000000 -0.001328 0.000000
# 4 0.000000 0.000000 0.000000 0.047656 0.000000 -0.030143
# 5 -0.001769 0.000871 -0.001328 0.000000 0.017829 0.000000
# 6 0.000000 0.000000 0.000000 -0.030143 0.000000 0.029134
#
#
# Mechanical properties :
#
#
# Convention : Reuss Voigt Hill
#
# Bulk Modulus (GPa) = 60.53674 63.54198 62.03936
# Shear Modulus (GPa) = 38.71741 68.83628 53.77685
#
# Velocity S-wave (km/s) = 3.70743 4.94343 4.36935
# Velocity P-wave (km/s) = 6.31013 7.42571 6.89054
#
# Compressibility (1/GPa) = 0.01651889
#
# Stress axis : x y z
#
# Youngs Moduli (GPa) = 137.32620 151.17011 112.73674
#
# Poissons Ratio (x) = 0.17223 0.25919
# Poissons Ratio (y) = 0.15646 -0.03543
# Poissons Ratio (z) = 0.31573 -0.04751
#
# Static dielectric constant tensor:
#      x y z
#    x 2.262100 0.000000 -0.149540 
#    y 0.000000 2.199080 0.000000 
#    z -0.149540 0.000000 2.134350 
# 
# From -- ./inp_files/27061.got.cif
#   From: 2010.05.17/outbox.cif.g08.bks.cpg/sg15_14_cif.got.tgz:27061.got - 2010.06.03 18:47:42.
