data_PCOD9293332
_publ_section_title
;
Structure prediction by ZEFSAII (Michael W. Deem and Ramdas Pophale) SiO2 
 PCOD9293332
Probable space group: C 2/C
;
_chemical_formula_sum "Si O2"
_cell_formula_units_Z 44
_cell_length_a 11.442631
_cell_length_b 21.210386
_cell_length_c 11.741204
_cell_angle_alpha 90.000000
_cell_angle_beta 141.044128
_cell_angle_gamma 90.000000
_cell_volume 1791.618440
_symmetry_space_group_name_H-M "C 2/C"
_symmetry_group_IT_number 15
_symmetry_cell_setting 'monoclinic'
loop_
_space_group_symop_operation_xyz
x,y,z
-x,y,1/2-z
-x,-y,-z
x,-y,1/2+z
1/2+x,1/2+y,z
1/2-x,1/2+y,1/2-z
1/2-x,1/2-y,-z
1/2+x,1/2-y,1/2+z
loop_
_atom_site_type_symbol
_atom_site_label
_atom_site_fract_x
_atom_site_fract_y
_atom_site_fract_z
Si Si1 0.201411 0.487773 0.706166
Si Si2 0.844294 0.823321 0.985015
Si Si3 0.466769 0.808273 0.924481
Si Si4 0.286759 0.371192 0.625143
Si Si5 0.189603 0.115125 0.789634
Si Si6 0.500000 0.948737 0.250000
O O1 0.277877 0.421024 0.724785
O O2 0.326266 0.541267 0.741354
O O3 0.000000 0.500000 0.500000
O O4 0.146144 0.505430 0.793054
O O5 0.825173 0.857440 0.093008
O O6 0.907288 0.750357 0.020034
O O7 0.036931 0.854847 0.091586
O O8 0.651135 0.828128 0.774889
O O9 0.303980 0.805982 0.896190
O O10 0.605668 0.859835 0.082269
O O11 0.500000 0.364450 0.750000
O O12 0.146272 0.404022 0.428576
#
# Coordination Sequence:
#
# PCOD9293332 Si02
#       6
#     8   8   8   8   8   4
#     4  10  22  45  70 103 140 185 227 285 354 413
#     4  11  26  39  72 101 139 181 233 297 348 408
#     4  12  23  44  67 100 140 181 236 290 354 413
#     4  11  27  45  71 103 142 189 240 279 351 429
#     4  11  23  43  66 107 142 177 228 294 358 410
#     4  10  22  46  68  92 146 182 224 296 340 410
#
# _framework density 24.558797999999999
#
# number of rings (size 3 to 8) (size 9 to 14) (size 15 to 20)
#    0.000    1.091    5.455    1.091    7.636    3.636 
#    0.000    0.909    2.000    0.000    0.000    0.000 
#    0.000    0.000    0.000    0.000    0.000    0.000 
#
# Total GULP energy -122591.325174 kJ/mol
# GULP energy per Si atom -5572.332962 kJ/mol
# Density = 2.450290 g / cm^3
# Si number density = 24.558798 Si / 1000 Ang^3
#
#
#
# Elastic Constant Matrix: (Units=GPa)
#
#
# Indices 1 2 3 4 5 6 
#
# 1 142.7829 22.4333 22.6534 0.0000 14.7939 0.0000
# 2 22.4333 81.8768 -7.9924 0.0000 0.0886 0.0000
# 3 22.6534 -7.9924 111.2969 0.0000 21.5356 0.0000
# 4 0.0000 0.0000 0.0000 8.0527 0.0000 19.4889
# 5 14.7939 0.0886 21.5356 0.0000 37.1561 0.0000
# 6 0.0000 0.0000 0.0000 19.4889 0.0000 22.0050
#
#
#
# Elastic Compliance Matrix: (Units=1/GPa)
#
#
# Indices 1 2 3 4 5 6 
#
# 1 0.007809 -0.002264 -0.001297 0.000000 -0.002352 0.000000
# 2 -0.002264 0.012968 0.001378 0.000000 0.000072 0.000000
# 3 -0.001297 0.001378 0.010417 0.000000 -0.005525 0.000000
# 4 0.000000 0.000000 0.000000 -0.108603 0.000000 0.096185
# 5 -0.002352 0.000072 -0.005525 0.000000 0.031052 0.000000
# 6 0.000000 0.000000 0.000000 0.096185 0.000000 -0.039743
#
#
# Mechanical properties :
#
#
# Convention : Reuss Voigt Hill
#
# Bulk Modulus (GPa) = 37.27275 45.57168 41.42221
# Shear Modulus (GPa) = -68.68810 33.36692 -17.66059
#
# Velocity S-wave (km/s) = -5.29429 3.68999 -2.68454
# Velocity P-wave (km/s) = 4.70774 6.06227 2.70077
#
# Compressibility (1/GPa) = 0.02682925
#
# Stress axis : x y z
#
# Youngs Moduli (GPa) = 128.06185 77.11231 95.99799
#
# Poissons Ratio (x) = 0.17455 0.12449
# Poissons Ratio (y) = 0.28987 -0.13230
# Poissons Ratio (z) = 0.16607 -0.10627
#
# Static dielectric constant tensor:
#      x y z
#    x 1.510910 0.000000 0.286740 
#    y 0.000000 2.123900 0.000000 
#    z 0.286740 0.000000 1.893640 
# 
# From -- ./inp_files/91381.got.cif
#   From: 2010.05.17/outbox.cif.g08.bks.cpg/sg15_46_cif.got.tgz:91381.got - 2010.06.03 18:47:42.
