data_PCOD9293532
_publ_section_title
;
Structure prediction by ZEFSAII (Michael W. Deem and Ramdas Pophale) SiO2 
 PCOD9293532
Probable space group: C 2/C
;
_chemical_formula_sum "Si O2"
_cell_formula_units_Z 56
_cell_length_a 11.204853
_cell_length_b 9.132497
_cell_length_c 29.662853
_cell_angle_alpha 90.000000
_cell_angle_beta 118.325903
_cell_angle_gamma 90.000000
_cell_volume 2671.905137
_symmetry_space_group_name_H-M "C 2/C"
_symmetry_group_IT_number 15
_symmetry_cell_setting 'monoclinic'
loop_
_space_group_symop_operation_xyz
x,y,z
-x,y,1/2-z
-x,-y,-z
x,-y,1/2+z
1/2+x,1/2+y,z
1/2-x,1/2+y,1/2-z
1/2-x,1/2-y,-z
1/2+x,1/2-y,1/2+z
loop_
_atom_site_type_symbol
_atom_site_label
_atom_site_fract_x
_atom_site_fract_y
_atom_site_fract_z
Si Si1 0.005390 0.139795 0.902247
Si Si2 0.062578 0.446627 0.580315
Si Si3 0.344489 0.449233 0.160957
Si Si4 0.232801 0.121416 0.704168
Si Si5 0.106567 0.690751 0.991891
Si Si6 0.353023 0.812760 0.731877
Si Si7 0.000000 0.821926 0.750000
Si Si8 0.500000 0.500000 0.500000
O O1 0.021604 0.312267 0.914498
O O2 0.848809 0.124281 0.857275
O O3 0.025596 0.052151 0.951603
O O4 0.101427 0.086486 0.879209
O O5 0.195254 0.480508 0.632968
O O6 0.116653 0.399687 0.540404
O O7 0.966524 0.586137 0.556951
O O8 0.327617 0.299934 0.186608
O O9 0.447251 0.565657 0.202045
O O10 0.141926 0.208785 0.723756
O O11 0.372216 0.212629 0.732659
O O12 0.255420 0.951121 0.719890
O O13 0.250000 0.750000 0.000000
O O14 0.015233 0.828975 0.987621
O O15 0.500000 0.879878 0.750000
#
# Coordination Sequence:
#
# PCOD9293532 Si02
#       8
#     8   8   8   8   8   8   4   4
#     4  11  23  44  69  98 143 180 236 288 354 422
#     4  10  24  42  67  96 132 178 226 283 347 418
#     4  12  23  44  69 102 140 186 230 294 356 423
#     4  12  25  46  71 102 143 188 234 296 359 431
#     4  10  22  46  67  94 133 175 232 290 345 407
#     4  12  25  44  67 100 138 180 234 286 351 424
#     4  12  24  46  76 102 150 188 236 298 362 430
#     4  10  24  42  68 102 132 182 234 290 344 422
#
# _framework density 20.958828
#
# number of rings (size 3 to 8) (size 9 to 14) (size 15 to 20)
#    0.000    0.857    4.286    2.571    2.000    1.143 
#    5.143    4.286    0.000    0.000    0.000    0.000 
#    0.000    0.000    0.000    0.000    0.000    0.000 
#
# Total GULP energy -155881.618510 kJ/mol
# GULP energy per Si atom -5567.200661 kJ/mol
# Density = 2.091112 g / cm^3
# Si number density = 20.958828 Si / 1000 Ang^3
#
#
#
# Elastic Constant Matrix: (Units=GPa)
#
#
# Indices 1 2 3 4 5 6 
#
# 1 58.9184 23.5342 10.2967 0.0000 -6.1084 0.0000
# 2 23.5342 133.6134 33.9190 0.0000 -1.0986 0.0000
# 3 10.2967 33.9190 47.5814 0.0000 -18.3724 0.0000
# 4 0.0000 0.0000 0.0000 26.6720 0.0000 5.2615
# 5 -6.1084 -1.0986 -18.3724 0.0000 32.0398 0.0000
# 6 0.0000 0.0000 0.0000 5.2615 0.0000 30.0255
#
#
#
# Elastic Compliance Matrix: (Units=1/GPa)
#
#
# Indices 1 2 3 4 5 6 
#
# 1 0.018640 -0.003096 -0.000636 0.000000 0.003083 0.000000
# 2 -0.003096 0.010161 -0.008563 0.000000 -0.005152 0.000000
# 3 -0.000636 -0.008563 0.034804 0.000000 0.019543 0.000000
# 4 0.000000 0.000000 0.000000 0.038835 0.000000 -0.006805
# 5 0.003083 -0.005152 0.019543 0.000000 0.042829 0.000000
# 6 0.000000 0.000000 0.000000 -0.006805 0.000000 0.034498
#
#
# Mechanical properties :
#
#
# Convention : Reuss Voigt Hill
#
# Bulk Modulus (GPa) = 25.63108 41.73478 33.68293
# Shear Modulus (GPa) = 23.00313 29.23834 26.12074
#
# Velocity S-wave (km/s) = 3.31651 3.73907 3.53411
# Velocity P-wave (km/s) = 5.18859 6.21264 5.72356
#
# Compressibility (1/GPa) = 0.03901513
#
# Stress axis : x y z
#
# Youngs Moduli (GPa) = 53.64744 98.41549 28.73217
#
# Poissons Ratio (x) = 0.30473 0.01828
# Poissons Ratio (y) = 0.16611 0.24602
# Poissons Ratio (z) = 0.03413 0.84269
#
# Static dielectric constant tensor:
#      x y z
#    x 1.781330 0.000000 0.010460 
#    y 0.000000 1.718420 0.000000 
#    z 0.010460 0.000000 1.762670 
# 
# From -- ./inp_files/310398.got.cif
#   From: 2010.05.17/outbox.cif.g08.bks.cpg/sg15_156_cif.got.tgz:310398.got - 2010.06.03 18:47:42.
