data_PCOD9293055
_publ_section_title
;
Structure prediction by ZEFSAII (Michael W. Deem and Ramdas Pophale) SiO2 
 PCOD9293055
Probable space group: C 2/C
;
_chemical_formula_sum "Si O2"
_cell_formula_units_Z 40
_cell_length_a 23.197666
_cell_length_b 5.430146
_cell_length_c 13.444462
_cell_angle_alpha 90.000000
_cell_angle_beta 74.960949
_cell_angle_gamma 90.000000
_cell_volume 1635.549085
_symmetry_space_group_name_H-M "C 2/C"
_symmetry_group_IT_number 15
_symmetry_cell_setting 'monoclinic'
loop_
_space_group_symop_operation_xyz
x,y,z
-x,y,1/2-z
-x,-y,-z
x,-y,1/2+z
1/2+x,1/2+y,z
1/2-x,1/2+y,1/2-z
1/2-x,1/2-y,-z
1/2+x,1/2-y,1/2+z
loop_
_atom_site_type_symbol
_atom_site_label
_atom_site_fract_x
_atom_site_fract_y
_atom_site_fract_z
Si Si1 0.297308 0.448648 0.018373
Si Si2 0.320183 0.845300 0.858285
Si Si3 0.570939 0.969627 0.078176
Si Si4 0.503916 0.475700 0.116758
Si Si5 0.388477 0.760283 0.634650
O O1 0.250649 0.616541 0.101538
O O2 0.348907 0.381706 0.071792
O O3 0.250000 0.250000 0.000000
O O4 0.326188 0.584434 0.911413
O O5 0.344716 0.867750 0.736618
O O6 0.362719 0.020765 0.905631
O O7 0.534788 0.731253 0.133173
O O8 0.540145 0.225767 0.121854
O O9 0.576793 0.950203 0.954480
O O10 0.435416 0.412142 0.172041
O O11 0.500000 0.500000 0.000000
#
# Coordination Sequence:
#
# PCOD9293055 Si02
#       5
#     8   8   8   8   8
#     4  11  25  48  66 103 149 190 247 318 359 434
#     4  11  26  45  74 103 145 197 248 305 373 440
#     4  11  23  48  70 106 150 182 237 305 361 429
#     4  10  22  44  72 103 146 189 230 302 364 428
#     4  11  24  46  73 107 140 200 246 298 374 448
#
# _framework density 24.456620000000001
#
# number of rings (size 3 to 8) (size 9 to 14) (size 15 to 20)
#    0.000    1.200    2.000    4.800    2.800    0.800 
#   10.800    8.000    0.000    0.000    0.000    0.000 
#    0.000    0.000    0.000    0.000    0.000    0.000 
#
# Total GULP energy -111764.240142 kJ/mol
# GULP energy per Si atom -5588.212007 kJ/mol
# Density = 2.440096 g / cm^3
# Si number density = 24.456620 Si / 1000 Ang^3
#
#
#
# Elastic Constant Matrix: (Units=GPa)
#
#
# Indices 1 2 3 4 5 6 
#
# 1 126.8772 57.6138 0.4893 0.0000 -8.0277 0.0000
# 2 57.6138 134.3145 16.7836 0.0000 7.0746 0.0000
# 3 0.4893 16.7836 129.0833 0.0000 0.4826 0.0000
# 4 0.0000 0.0000 0.0000 12.1769 0.0000 2.2970
# 5 -8.0277 7.0746 0.4826 0.0000 19.0668 0.0000
# 6 0.0000 0.0000 0.0000 2.2970 0.0000 52.6785
#
#
#
# Elastic Compliance Matrix: (Units=1/GPa)
#
#
# Indices 1 2 3 4 5 6 
#
# 1 0.010500 -0.004904 0.000575 0.000000 0.006226 0.000000
# 2 -0.004904 0.010009 -0.001261 0.000000 -0.005746 0.000000
# 3 0.000575 -0.001261 0.007907 0.000000 0.000510 0.000000
# 4 0.000000 0.000000 0.000000 0.082804 0.000000 -0.003611
# 5 0.006226 -0.005746 0.000510 0.000000 0.057188 0.000000
# 6 0.000000 0.000000 0.000000 -0.003611 0.000000 0.019141
#
#
# Mechanical properties :
#
#
# Convention : Reuss Voigt Hill
#
# Bulk Modulus (GPa) = 58.02193 60.00538 59.01366
# Shear Modulus (GPa) = 24.45304 37.81034 31.13169
#
# Velocity S-wave (km/s) = 3.16548 3.93621 3.57169
# Velocity P-wave (km/s) = 6.09395 6.72659 6.41807
#
# Compressibility (1/GPa) = 0.01723486
#
# Stress axis : x y z
#
# Youngs Moduli (GPa) = 95.23764 99.91097 126.47267
#
# Poissons Ratio (x) = 0.48993 -0.07266
# Poissons Ratio (y) = 0.46701 0.15952
# Poissons Ratio (z) = -0.05471 0.12602
#
# Static dielectric constant tensor:
#      x y z
#    x 1.922500 0.000000 0.019700 
#    y 0.000000 2.110380 0.000000 
#    z 0.019700 0.000000 1.886890 
# 
# From -- ./inp_files/170733.got.cif
#   From: 2010.05.17/outbox.cif.g08.bks.cpg/sg15_86_cif.got.tgz:170733.got - 2010.06.03 18:47:42.
