data_PCOD9293241
_publ_section_title
;
Structure prediction by ZEFSAII (Michael W. Deem and Ramdas Pophale) SiO2 
 PCOD9293241
Probable space group: C 2/C
;
_chemical_formula_sum "Si O2"
_cell_formula_units_Z 36
_cell_length_a 8.912738
_cell_length_b 22.160713
_cell_length_c 7.650582
_cell_angle_alpha 90.000000
_cell_angle_beta 71.348180
_cell_angle_gamma 90.000000
_cell_volume 1431.723611
_symmetry_space_group_name_H-M "C 2/C"
_symmetry_group_IT_number 15
_symmetry_cell_setting 'monoclinic'
loop_
_space_group_symop_operation_xyz
x,y,z
-x,y,1/2-z
-x,-y,-z
x,-y,1/2+z
1/2+x,1/2+y,z
1/2-x,1/2+y,1/2-z
1/2-x,1/2-y,-z
1/2+x,1/2-y,1/2+z
loop_
_atom_site_type_symbol
_atom_site_label
_atom_site_fract_x
_atom_site_fract_y
_atom_site_fract_z
Si Si1 0.684794 0.983276 0.630817
Si Si2 0.287691 0.138860 0.197860
Si Si3 0.000000 0.783638 0.750000
Si Si4 0.392888 0.180484 0.538644
Si Si5 0.180576 0.085026 0.744353
O O1 0.500000 0.991122 0.750000
O O2 0.749702 0.928371 0.726294
O O3 0.713543 0.953855 0.431617
O O4 0.786862 0.044253 0.600524
O O5 0.147456 0.173326 0.156186
O O6 0.327370 0.176551 0.364170
O O7 0.448959 0.139945 0.029089
O O8 0.952409 0.741906 0.603541
O O9 0.258682 0.150528 0.708429
O O10 0.000000 0.086844 0.750000
#
# Coordination Sequence:
#
# PCOD9293241 Si02
#       5
#     8   8   4   8   8
#     4  11  22  43  69  94 136 176 212 274 337 392
#     4  10  22  45  66  94 136 173 217 276 338 380
#     4  12  24  40  72  98 122 178 234 266 320 412
#     4  10  23  46  63  96 136 172 217 279 333 384
#     4  11  24  42  66 102 133 172 218 274 329 394
#
# _framework density 25.144515999999999
#
# number of rings (size 3 to 8) (size 9 to 14) (size 15 to 20)
#    0.000    1.333    4.444    2.667    3.111    0.000 
#   20.000    0.000    0.000    0.000    0.000    0.000 
#    0.000    0.000    0.000    0.000    0.000    0.000 
#
# Total GULP energy -100721.438968 kJ/mol
# GULP energy per Si atom -5595.635498 kJ/mol
# Density = 2.508729 g / cm^3
# Si number density = 25.144516 Si / 1000 Ang^3
#
#
#
# Elastic Constant Matrix: (Units=GPa)
#
#
# Indices 1 2 3 4 5 6 
#
# 1 159.0766 71.6587 31.0661 0.0000 -8.4704 0.0000
# 2 71.6587 101.1818 6.9393 0.0000 6.6520 0.0000
# 3 31.0661 6.9393 62.2511 0.0000 5.1966 0.0000
# 4 0.0000 0.0000 0.0000 20.3227 0.0000 -19.1744
# 5 -8.4704 6.6520 5.1966 0.0000 25.7462 0.0000
# 6 0.0000 0.0000 0.0000 -19.1744 0.0000 -32.2925
#
#
#
# Elastic Compliance Matrix: (Units=1/GPa)
#
#
# Indices 1 2 3 4 5 6 
#
# 1 0.011363 -0.008136 -0.005341 0.000000 0.006918 0.000000
# 2 -0.008136 0.015931 0.002900 0.000000 -0.007378 0.000000
# 3 -0.005341 0.002900 0.018934 0.000000 -0.006328 0.000000
# 4 0.000000 0.000000 0.000000 0.031538 0.000000 -0.018726
# 5 0.006918 -0.007378 -0.006328 0.000000 0.044300 0.000000
# 6 0.000000 0.000000 0.000000 -0.018726 0.000000 -0.019848
#
#
# Mechanical properties :
#
#
# Convention : Reuss Voigt Hill
#
# Bulk Modulus (GPa) = 39.88063 60.20419 50.04241
# Shear Modulus (GPa) = 37.95640 16.94498 27.45069
#
# Velocity S-wave (km/s) = 3.88948 2.59878 3.30770
# Velocity P-wave (km/s) = 6.00548 5.74457 5.87647
#
# Compressibility (1/GPa) = 0.02507483
#
# Stress axis : x y z
#
# Youngs Moduli (GPa) = 88.00819 62.76992 52.81397
#
# Poissons Ratio (x) = 0.51068 0.28208
# Poissons Ratio (y) = 0.71601 -0.15316
# Poissons Ratio (z) = 0.47006 -0.18204
#
# Static dielectric constant tensor:
#      x y z
#    x 1.956670 0.000000 0.095300 
#    y 0.000000 1.997320 0.000000 
#    z 0.095300 0.000000 2.148880 
# 
# From -- ./inp_files/23329.got.cif
#   From: 2010.05.17/outbox.cif.g08.bks.cpg/sg15_12_cif.got.tgz:23329.got - 2010.06.03 18:47:42.
