data_PCOD9293681
_publ_section_title
;
Structure prediction by ZEFSAII (Michael W. Deem and Ramdas Pophale) SiO2 
 PCOD9293681
Probable space group: C 2/C
;
_chemical_formula_sum "Si O2"
_cell_formula_units_Z 44
_cell_length_a 11.660387
_cell_length_b 9.529236
_cell_length_c 17.106378
_cell_angle_alpha 90.000000
_cell_angle_beta 113.344293
_cell_angle_gamma 90.000000
_cell_volume 1745.171753
_symmetry_space_group_name_H-M "C 2/C"
_symmetry_group_IT_number 15
_symmetry_cell_setting 'monoclinic'
loop_
_space_group_symop_operation_xyz
x,y,z
-x,y,1/2-z
-x,-y,-z
x,-y,1/2+z
1/2+x,1/2+y,z
1/2-x,1/2+y,1/2-z
1/2-x,1/2-y,-z
1/2+x,1/2-y,1/2+z
loop_
_atom_site_type_symbol
_atom_site_label
_atom_site_fract_x
_atom_site_fract_y
_atom_site_fract_z
Si Si1 0.706558 0.776296 0.261918
Si Si2 0.000000 0.940198 0.750000
Si Si3 0.428423 0.484350 0.564173
Si Si4 0.654072 0.906498 0.966473
Si Si5 0.356379 0.928386 0.708243
Si Si6 0.511677 0.815188 0.070597
O O1 0.619638 0.662874 0.281734
O O2 0.823353 0.684016 0.265682
O O3 0.624247 0.814736 0.163147
O O4 0.722032 0.926147 0.307898
O O5 0.003861 0.020221 0.834337
O O6 0.500000 0.500000 0.500000
O O7 0.292371 0.552159 0.530041
O O8 0.423569 0.315209 0.563640
O O9 0.665183 0.857127 0.880831
O O10 0.569731 0.046273 0.943302
O O11 0.577832 0.808010 0.004220
O O12 0.500000 0.971985 0.750000
#
# Coordination Sequence:
#
# PCOD9293681 Si02
#       6
#     8   4   8   8   8   8
#     4  11  24  46  74 100 149 188 246 297 365 429
#     4  10  22  46  72  98 150 196 226 306 368 426
#     4  11  24  42  68 106 143 184 243 294 361 429
#     4  11  23  43  76  97 142 190 236 298 362 430
#     4  12  25  47  71 108 144 194 240 304 362 437
#     4  10  23  45  69 103 138 191 237 295 361 434
#
# _framework density 25.212416999999999
#
# number of rings (size 3 to 8) (size 9 to 14) (size 15 to 20)
#    0.000    1.091    2.727    3.818    2.545    4.364 
#    1.636    0.000    0.000    0.000    0.000    0.000 
#    0.000    0.000    0.000    0.000    0.000    0.000 
#
# Total GULP energy -123126.484995 kJ/mol
# GULP energy per Si atom -5596.658409 kJ/mol
# Density = 2.515503 g / cm^3
# Si number density = 25.212417 Si / 1000 Ang^3
#
#
#
# Elastic Constant Matrix: (Units=GPa)
#
#
# Indices 1 2 3 4 5 6 
#
# 1 119.7018 29.8700 35.2983 0.0000 -30.6000 0.0000
# 2 29.8700 48.7776 8.7205 0.0000 -12.2443 0.0000
# 3 35.2983 8.7205 133.1797 0.0000 -38.2689 0.0000
# 4 0.0000 0.0000 0.0000 20.7556 0.0000 -8.6642
# 5 -30.6000 -12.2443 -38.2689 0.0000 37.0165 0.0000
# 6 0.0000 0.0000 0.0000 -8.6642 0.0000 41.5582
#
#
#
# Elastic Compliance Matrix: (Units=1/GPa)
#
#
# Indices 1 2 3 4 5 6 
#
# 1 0.011713 -0.005231 -0.000678 0.000000 0.007251 0.000000
# 2 -0.005231 0.024777 0.001247 0.000000 0.005160 0.000000
# 3 -0.000678 0.001247 0.010761 0.000000 0.010977 0.000000
# 4 0.000000 0.000000 0.000000 0.052773 0.000000 0.011002
# 5 0.007251 0.005160 0.010977 0.000000 0.046064 0.000000
# 6 0.000000 0.000000 0.000000 0.011002 0.000000 0.026356
#
#
# Mechanical properties :
#
#
# Convention : Reuss Voigt Hill
#
# Bulk Modulus (GPa) = 26.36727 49.93741 38.15234
# Shear Modulus (GPa) = 25.71858 35.05074 30.38466
#
# Velocity S-wave (km/s) = 3.19733 3.73261 3.47529
# Velocity P-wave (km/s) = 4.91032 6.19888 5.59184
#
# Compressibility (1/GPa) = 0.03792581
#
# Stress axis : x y z
#
# Youngs Moduli (GPa) = 85.37391 40.35965 92.92882
#
# Poissons Ratio (x) = 0.21114 0.06304
# Poissons Ratio (y) = 0.44662 -0.11588
# Poissons Ratio (z) = 0.05792 -0.05033
#
# Static dielectric constant tensor:
#      x y z
#    x 1.938830 0.000000 -0.041810 
#    y 0.000000 1.979370 0.000000 
#    z -0.041810 0.000000 2.067720 
# 
# From -- ./inp_files/142300.got.cif
#   From: 2010.05.17/outbox.cif.g08.bks.cpg/sg15_72_cif.got.tgz:142300.got - 2010.06.03 18:47:42.
