data_PCOD9293641
_publ_section_title
;
Structure prediction by ZEFSAII (Michael W. Deem and Ramdas Pophale) SiO2 
 PCOD9293641
Probable space group: C 2/C
;
_chemical_formula_sum "Si O2"
_cell_formula_units_Z 56
_cell_length_a 30.254696
_cell_length_b 11.844458
_cell_length_c 8.836224
_cell_angle_alpha 90.000000
_cell_angle_beta 56.335401
_cell_angle_gamma 90.000000
_cell_volume 2635.438693
_symmetry_space_group_name_H-M "C 2/C"
_symmetry_group_IT_number 15
_symmetry_cell_setting 'monoclinic'
loop_
_space_group_symop_operation_xyz
x,y,z
-x,y,1/2-z
-x,-y,-z
x,-y,1/2+z
1/2+x,1/2+y,z
1/2-x,1/2+y,1/2-z
1/2-x,1/2-y,-z
1/2+x,1/2-y,1/2+z
loop_
_atom_site_type_symbol
_atom_site_label
_atom_site_fract_x
_atom_site_fract_y
_atom_site_fract_z
Si Si1 0.701658 0.336648 0.572761
Si Si2 0.118434 0.649965 0.801584
Si Si3 0.128466 0.211456 0.741834
Si Si4 0.560561 0.319929 0.075513
Si Si5 0.960253 0.940184 0.956635
Si Si6 0.843413 0.436466 0.940007
Si Si7 0.716641 0.445070 0.215827
O O1 0.750000 0.250000 0.500000
O O2 0.651490 0.255711 0.675080
O O3 0.707524 0.404539 0.404932
O O4 0.700208 0.427344 0.709557
O O5 0.125774 0.549855 0.667689
O O6 0.064668 0.716483 0.949758
O O7 0.141358 0.600171 0.917231
O O8 0.103847 0.200773 0.621885
O O9 0.142112 0.343240 0.715474
O O10 0.180588 0.138761 0.682186
O O11 0.079687 0.160075 0.930035
O O12 0.500000 0.322736 0.250000
O O13 0.574351 0.448596 0.007922
O O14 0.000000 0.904422 0.750000
O O15 0.000000 0.000000 0.000000
O O16 0.779447 0.443989 0.060006
#
# Coordination Sequence:
#
# PCOD9293641 Si02
#       7
#     8   8   8   8   8   8   8
#     4  12  26  45  70 101 142 188 230 281 350 409
#     4  11  25  47  70  99 142 186 232 282 351 409
#     4  11  25  40  67 104 131 184 231 282 353 413
#     4  10  22  46  71  94 139 179 229 297 352 403
#     4  11  21  42  70  97 134 175 229 300 358 402
#     4  11  24  45  66  97 144 183 230 281 343 417
#     4  12  26  42  71 100 143 180 236 282 344 419
#
# _framework density 21.248835
#
# number of rings (size 3 to 8) (size 9 to 14) (size 15 to 20)
#    0.000    0.857    5.714    1.286    8.000    2.286 
#    0.000    3.571    0.000    0.000    0.000    0.000 
#    0.000    0.000    0.000    0.000    0.000    0.000 
#
# Total GULP energy -156118.815460 kJ/mol
# GULP energy per Si atom -5575.671981 kJ/mol
# Density = 2.120047 g / cm^3
# Si number density = 21.248835 Si / 1000 Ang^3
#
#
#
# Elastic Constant Matrix: (Units=GPa)
#
#
# Indices 1 2 3 4 5 6 
#
# 1 24.3067 -2.8954 15.4962 0.0000 2.9197 0.0000
# 2 -2.8954 139.9567 62.8633 0.0000 -4.9292 0.0000
# 3 15.4962 62.8633 108.0645 0.0000 -11.0789 0.0000
# 4 0.0000 0.0000 0.0000 42.3404 0.0000 1.1027
# 5 2.9197 -4.9292 -11.0789 0.0000 22.3462 0.0000
# 6 0.0000 0.0000 0.0000 1.1027 0.0000 18.7813
#
#
#
# Elastic Compliance Matrix: (Units=1/GPa)
#
#
# Indices 1 2 3 4 5 6 
#
# 1 0.050819 0.006019 -0.011940 0.000000 -0.011232 0.000000
# 2 0.006019 0.010395 -0.007118 0.000000 -0.002022 0.000000
# 3 -0.011940 -0.007118 0.015914 0.000000 0.007880 0.000000
# 4 0.000000 0.000000 0.000000 0.023654 0.000000 -0.001389
# 5 -0.011232 -0.002022 0.007880 0.000000 0.049679 0.000000
# 6 0.000000 0.000000 0.000000 -0.001389 0.000000 0.053326
#
#
# Mechanical properties :
#
#
# Convention : Reuss Voigt Hill
#
# Bulk Modulus (GPa) = 19.58822 47.02845 33.30833
# Shear Modulus (GPa) = 20.25252 29.81782 25.03517
#
# Velocity S-wave (km/s) = 3.09060 3.75009 3.43620
# Velocity P-wave (km/s) = 4.68767 6.39775 5.60827
#
# Compressibility (1/GPa) = 0.05105109
#
# Stress axis : x y z
#
# Youngs Moduli (GPa) = 19.67753 96.19736 62.83690
#
# Poissons Ratio (x) = -0.57899 0.75028
# Poissons Ratio (y) = -0.11844 0.44724
# Poissons Ratio (z) = 0.23495 0.68469
#
# Static dielectric constant tensor:
#      x y z
#    x 1.836880 0.000000 0.015310 
#    y 0.000000 1.209310 0.000000 
#    z 0.015310 0.000000 1.852720 
# 
# From -- ./inp_files/69281.got.cif
#   From: 2010.05.17/outbox.cif.g08.bks.cpg/sg15_35_cif.got.tgz:69281.got - 2010.06.03 18:47:42.
