data_PCOD9293376
_publ_section_title
;
Structure prediction by ZEFSAII (Michael W. Deem and Ramdas Pophale) SiO2 
 PCOD9293376
Probable space group: C 2/C
;
_chemical_formula_sum "Si O2"
_cell_formula_units_Z 60
_cell_length_a 8.942878
_cell_length_b 20.699490
_cell_length_c 17.033282
_cell_angle_alpha 90.000000
_cell_angle_beta 58.213198
_cell_angle_gamma 90.000000
_cell_volume 2680.164153
_symmetry_space_group_name_H-M "C 2/C"
_symmetry_group_IT_number 15
_symmetry_cell_setting 'monoclinic'
loop_
_space_group_symop_operation_xyz
x,y,z
-x,y,1/2-z
-x,-y,-z
x,-y,1/2+z
1/2+x,1/2+y,z
1/2-x,1/2+y,1/2-z
1/2-x,1/2-y,-z
1/2+x,1/2-y,1/2+z
loop_
_atom_site_type_symbol
_atom_site_label
_atom_site_fract_x
_atom_site_fract_y
_atom_site_fract_z
Si Si1 0.849874 0.092001 0.196550
Si Si2 0.789678 0.926405 0.994205
Si Si3 0.500000 0.292677 0.250000
Si Si4 0.718886 0.129507 0.930000
Si Si5 0.911409 0.299760 0.455679
Si Si6 0.843156 0.764614 0.732927
Si Si7 0.318351 0.006511 0.136191
Si Si8 0.696299 0.051003 0.088234
O O1 0.831762 0.158747 0.247547
O O2 0.826996 0.033275 0.263281
O O3 0.706366 0.084335 0.168721
O O4 0.026714 0.093586 0.095729
O O5 0.698164 0.959880 0.944018
O O6 0.679930 0.864709 0.053227
O O7 0.801158 0.982837 0.055358
O O8 0.624069 0.332071 0.155108
O O9 0.357397 0.258330 0.229905
O O10 0.535390 0.169637 0.989947
O O11 0.686222 0.069329 0.879579
O O12 0.765014 0.098365 0.000935
O O13 0.750000 0.250000 0.500000
O O14 0.059891 0.258603 0.371739
O O15 0.000000 0.741188 0.750000
O O16 0.499911 0.029973 0.122345
#
# Coordination Sequence:
#
# PCOD9293376 Si02
#       8
#     8   8   4   8   8   8   8   8
#     4  12  26  40  65 105 135 173 233 283 352 415
#     4  11  21  43  66  95 131 176 231 274 344 415
#     4  10  26  46  70 106 138 182 246 278 340 438
#     4  10  22  45  71  98 133 184 228 286 354 404
#     4  11  21  43  69  95 131 181 237 273 339 424
#     4  11  26  48  69 100 144 188 229 293 348 413
#     4  11  22  41  70  93 131 184 218 286 352 402
#     4  11  23  42  67  98 135 172 227 299 337 408
#
# _framework density 22.386689000000001
#
# number of rings (size 3 to 8) (size 9 to 14) (size 15 to 20)
#    0.000    1.067    4.000    2.800    5.600    1.067 
#    4.800    1.333    0.000    0.000    0.000    0.000 
#    0.000    0.000    0.000    0.000    0.000    0.000 
#
# Total GULP energy -167104.476805 kJ/mol
# GULP energy per Si atom -5570.149227 kJ/mol
# Density = 2.233574 g / cm^3
# Si number density = 22.386689 Si / 1000 Ang^3
#
#
#
# Elastic Constant Matrix: (Units=GPa)
#
#
# Indices 1 2 3 4 5 6 
#
# 1 138.6583 45.2453 21.9148 0.0000 -20.4962 0.0000
# 2 45.2453 88.9119 18.1580 0.0000 -7.7880 0.0000
# 3 21.9148 18.1580 59.0486 0.0000 -10.4141 0.0000
# 4 0.0000 0.0000 0.0000 -9.0423 0.0000 -9.6442
# 5 -20.4962 -7.7880 -10.4141 0.0000 37.0658 0.0000
# 6 0.0000 0.0000 0.0000 -9.6442 0.0000 26.0907
#
#
#
# Elastic Compliance Matrix: (Units=1/GPa)
#
#
# Indices 1 2 3 4 5 6 
#
# 1 0.009371 -0.004117 -0.001526 0.000000 0.003888 0.000000
# 2 -0.004117 0.013896 -0.002769 0.000000 -0.000135 0.000000
# 3 -0.001526 -0.002769 0.019045 0.000000 0.003925 0.000000
# 4 0.000000 0.000000 0.000000 -0.079320 0.000000 -0.029320
# 5 0.003888 -0.000135 0.003925 0.000000 0.030204 0.000000
# 6 0.000000 0.000000 0.000000 -0.029320 0.000000 0.027490
#
#
# Mechanical properties :
#
#
# Convention : Reuss Voigt Hill
#
# Bulk Modulus (GPa) = 39.23332 50.80609 45.01971
# Shear Modulus (GPa) = 108.68179 24.24289 66.46234
#
# Velocity S-wave (km/s) = 6.97516 3.29434 5.45461
# Velocity P-wave (km/s) = 9.07931 6.10035 7.73460
#
# Compressibility (1/GPa) = 0.02548854
#
# Stress axis : x y z
#
# Youngs Moduli (GPa) = 106.70989 71.96532 52.50602
#
# Poissons Ratio (x) = 0.29625 0.08014
# Poissons Ratio (y) = 0.43927 0.14539
# Poissons Ratio (z) = 0.16288 0.19927
#
# Static dielectric constant tensor:
#      x y z
#    x 2.129540 0.000000 0.194540 
#    y 0.000000 1.853890 0.000000 
#    z 0.194540 0.000000 2.143840 
# 
# From -- ./inp_files/192537.got.cif
#   From: 2010.05.17/outbox.cif.g08.bks.cpg/sg15_97_cif.got.tgz:192537.got - 2010.06.03 18:47:42.
