data_PCOD9293433
_publ_section_title
;
Structure prediction by ZEFSAII (Michael W. Deem and Ramdas Pophale) SiO2 
 PCOD9293433
Probable space group: C 2/C
;
_chemical_formula_sum "Si O2"
_cell_formula_units_Z 40
_cell_length_a 7.697995
_cell_length_b 20.645296
_cell_length_c 11.909259
_cell_angle_alpha 90.000000
_cell_angle_beta 54.628647
_cell_angle_gamma 90.000000
_cell_volume 1543.346402
_symmetry_space_group_name_H-M "C 2/C"
_symmetry_group_IT_number 15
_symmetry_cell_setting 'monoclinic'
loop_
_space_group_symop_operation_xyz
x,y,z
-x,y,1/2-z
-x,-y,-z
x,-y,1/2+z
1/2+x,1/2+y,z
1/2-x,1/2+y,1/2-z
1/2-x,1/2-y,-z
1/2+x,1/2-y,1/2+z
loop_
_atom_site_type_symbol
_atom_site_label
_atom_site_fract_x
_atom_site_fract_y
_atom_site_fract_z
Si Si1 0.229328 0.377947 0.534251
Si Si2 0.000000 0.481264 0.750000
Si Si3 0.097717 0.586015 0.535854
Si Si4 0.000000 0.114792 0.250000
Si Si5 0.664157 0.275756 0.856924
Si Si6 0.326503 0.675979 0.626263
O O1 0.183106 0.307573 0.606792
O O2 0.189096 0.432788 0.643586
O O3 0.073850 0.391156 0.490452
O O4 0.479113 0.371800 0.413068
O O5 0.992623 0.527101 0.644089
O O6 0.320484 0.574954 0.384920
O O7 0.169845 0.636999 0.604180
O O8 0.879569 0.165590 0.213313
O O9 0.735212 0.212791 0.766529
O O10 0.441601 0.269872 0.005978
#
# Coordination Sequence:
#
# PCOD9293433 Si02
#       6
#     8   4   8   4   8   8
#     4  10  24  50  76 116 154 196 260 313 382 449
#     4  12  26  49  86 106 153 204 260 316 376 452
#     4  11  25  49  80 109 152 205 255 314 384 446
#     4  10  22  45  74 106 157 194 246 314 386 436
#     4   9  21  45  79 106 162 197 245 315 381 451
#     4   9  23  48  76 111 156 199 252 311 382 452
#
# _framework density 25.917707
#
# number of rings (size 3 to 8) (size 9 to 14) (size 15 to 20)
#    1.200    0.800    0.000    1.800    0.000    6.400 
#    7.200    5.000    4.400    0.000    0.000    0.000 
#    0.000    0.000    0.000    0.000    0.000    0.000 
#
# Total GULP energy -111913.090921 kJ/mol
# GULP energy per Si atom -5595.654546 kJ/mol
# Density = 2.585872 g / cm^3
# Si number density = 25.917707 Si / 1000 Ang^3
#
#
#
# Elastic Constant Matrix: (Units=GPa)
#
#
# Indices 1 2 3 4 5 6 
#
# 1 197.2948 89.8888 59.3383 0.0000 10.6228 0.0000
# 2 89.8888 122.6133 83.5533 0.0000 4.5180 0.0000
# 3 59.3383 83.5533 172.5853 0.0000 -5.9808 0.0000
# 4 0.0000 0.0000 0.0000 82.2270 0.0000 16.3790
# 5 10.6228 4.5180 -5.9808 0.0000 30.2617 0.0000
# 6 0.0000 0.0000 0.0000 16.3790 0.0000 19.4937
#
#
#
# Elastic Compliance Matrix: (Units=1/GPa)
#
#
# Indices 1 2 3 4 5 6 
#
# 1 0.007715 -0.005573 -0.000019 0.000000 -0.001880 0.000000
# 2 -0.005573 0.016474 -0.006119 0.000000 -0.001712 0.000000
# 3 -0.000019 -0.006119 0.008856 0.000000 0.002671 0.000000
# 4 0.000000 0.000000 0.000000 0.014606 0.000000 -0.012272
# 5 -0.001880 -0.001712 0.002671 0.000000 0.034488 0.000000
# 6 0.000000 0.000000 0.000000 -0.012272 0.000000 0.061610
#
#
# Mechanical properties :
#
#
# Convention : Reuss Voigt Hill
#
# Bulk Modulus (GPa) = 103.93118 106.45046 105.19082
# Shear Modulus (GPa) = 29.34624 43.71067 36.52846
#
# Velocity S-wave (km/s) = 3.36860 4.11118 3.75827
# Velocity P-wave (km/s) = 7.43757 7.98106 7.71410
#
# Compressibility (1/GPa) = 0.00962175
#
# Stress axis : x y z
#
# Youngs Moduli (GPa) = 129.62001 60.70105 112.92109
#
# Poissons Ratio (x) = 0.33830 0.00220
# Poissons Ratio (y) = 0.72241 0.69094
# Poissons Ratio (z) = 0.00253 0.37141
#
# Static dielectric constant tensor:
#      x y z
#    x 2.041380 0.000000 -0.007020 
#    y 0.000000 2.043840 0.000000 
#    z -0.007020 0.000000 2.103570 
# 
# From -- ./inp_files/205862.got.cif
#   From: 2010.05.17/outbox.cif.g08.bks.cpg/sg15_103_cif.got.tgz:205862.got - 2010.06.03 18:47:42.
