data_PCOD9293122
_publ_section_title
;
Structure prediction by ZEFSAII (Michael W. Deem and Ramdas Pophale) SiO2 
 PCOD9293122
Probable space group: C 2/C
;
_chemical_formula_sum "Si O2"
_cell_formula_units_Z 44
_cell_length_a 22.613425
_cell_length_b 12.457758
_cell_length_c 7.590433
_cell_angle_alpha 90.000000
_cell_angle_beta 54.462348
_cell_angle_gamma 90.000000
_cell_volume 1740.023470
_symmetry_space_group_name_H-M "C 2/C"
_symmetry_group_IT_number 15
_symmetry_cell_setting 'monoclinic'
loop_
_space_group_symop_operation_xyz
x,y,z
-x,y,1/2-z
-x,-y,-z
x,-y,1/2+z
1/2+x,1/2+y,z
1/2-x,1/2+y,1/2-z
1/2-x,1/2-y,-z
1/2+x,1/2-y,1/2+z
loop_
_atom_site_type_symbol
_atom_site_label
_atom_site_fract_x
_atom_site_fract_y
_atom_site_fract_z
Si Si1 0.846962 0.866562 0.134461
Si Si2 0.200813 0.594698 0.674734
Si Si3 0.562580 0.228267 0.001366
Si Si4 0.500000 0.141664 0.750000
Si Si5 0.845948 0.375987 0.629383
Si Si6 0.078633 0.948521 0.830909
O O1 0.771828 0.878336 0.161355
O O2 0.853481 0.744474 0.189388
O O3 0.861551 0.958516 0.250532
O O4 0.907574 0.894583 0.881839
O O5 0.189091 0.466672 0.691608
O O6 0.198790 0.633485 0.476070
O O7 0.132481 0.652519 0.886359
O O8 0.500000 0.207684 0.250000
O O9 0.525814 0.206658 0.875325
O O10 0.586833 0.352321 0.957095
O O11 0.573148 0.082412 0.562655
O O12 0.000000 0.000000 0.000000
#
# Coordination Sequence:
#
# PCOD9293122 Si02
#       6
#     8   8   8   4   8   8
#     4  12  25  47  73 101 152 186 244 316 373 449
#     4  11  26  44  72 102 145 199 239 303 383 444
#     4  11  25  45  74 111 148 193 260 303 374 459
#     4  10  22  44  74 100 150 190 232 324 364 424
#     4  11  25  45  70 100 144 189 248 299 373 441
#     4  12  25  46  74 109 139 194 248 312 379 440
#
# _framework density 25.287016000000001
#
# number of rings (size 3 to 8) (size 9 to 14) (size 15 to 20)
#    0.000    0.727    3.636    4.364    6.364    1.455 
#    0.000    1.818    0.000    0.000    0.000    0.000 
#    0.000    0.000    0.000    0.000    0.000    0.000 
#
# Total GULP energy -123323.395599 kJ/mol
# GULP energy per Si atom -5605.608891 kJ/mol
# Density = 2.522946 g / cm^3
# Si number density = 25.287016 Si / 1000 Ang^3
#
#
#
# Elastic Constant Matrix: (Units=GPa)
#
#
# Indices 1 2 3 4 5 6 
#
# 1 119.7056 31.2420 13.4981 0.0000 -27.9097 0.0000
# 2 31.2420 165.3541 30.0653 0.0000 -17.8192 0.0000
# 3 13.4981 30.0653 78.8199 0.0000 -2.2957 0.0000
# 4 0.0000 0.0000 0.0000 30.8669 0.0000 1.2132
# 5 -27.9097 -17.8192 -2.2957 0.0000 25.7788 0.0000
# 6 0.0000 0.0000 0.0000 1.2132 0.0000 24.7257
#
#
#
# Elastic Compliance Matrix: (Units=1/GPa)
#
#
# Indices 1 2 3 4 5 6 
#
# 1 0.011428 -0.000637 -0.001370 0.000000 0.011810 0.000000
# 2 -0.000637 0.007042 -0.002462 0.000000 0.003959 0.000000
# 3 -0.001370 -0.002462 0.013804 0.000000 -0.001956 0.000000
# 4 0.000000 0.000000 0.000000 0.032460 0.000000 -0.001593
# 5 0.011810 0.003959 -0.001956 0.000000 0.054140 0.000000
# 6 0.000000 0.000000 0.000000 -0.001593 0.000000 0.040522
#
#
# Mechanical properties :
#
#
# Convention : Reuss Voigt Hill
#
# Bulk Modulus (GPa) = 42.85220 57.05447 49.95334
# Shear Modulus (GPa) = 28.39078 35.54589 31.96834
#
# Velocity S-wave (km/s) = 3.35437 3.75333 3.55944
# Velocity P-wave (km/s) = 5.65557 6.43390 6.05725
#
# Compressibility (1/GPa) = 0.02333603
#
# Stress axis : x y z
#
# Youngs Moduli (GPa) = 87.50205 141.99997 72.44370
#
# Poissons Ratio (x) = 0.09051 0.09925
# Poissons Ratio (y) = 0.05578 0.17834
# Poissons Ratio (z) = 0.11988 0.34957
#
# Static dielectric constant tensor:
#      x y z
#    x 1.970200 0.000000 0.015670 
#    y 0.000000 1.995720 0.000000 
#    z 0.015670 0.000000 2.027500 
# 
# From -- ./inp_files/60821.got.cif
#   From: 2010.05.17/outbox.cif.g08.bks.cpg/sg15_31_cif.got.tgz:60821.got - 2010.06.03 18:47:42.
