data_PCOD9293637
_publ_section_title
;
Structure prediction by ZEFSAII (Michael W. Deem and Ramdas Pophale) SiO2 
 PCOD9293637
Probable space group: C 2/C
;
_chemical_formula_sum "Si O2"
_cell_formula_units_Z 44
_cell_length_a 5.390930
_cell_length_b 28.005223
_cell_length_c 12.322805
_cell_angle_alpha 90.000000
_cell_angle_beta 93.338710
_cell_angle_gamma 90.000000
_cell_volume 1857.267883
_symmetry_space_group_name_H-M "C 2/C"
_symmetry_group_IT_number 15
_symmetry_cell_setting 'monoclinic'
loop_
_space_group_symop_operation_xyz
x,y,z
-x,y,1/2-z
-x,-y,-z
x,-y,1/2+z
1/2+x,1/2+y,z
1/2-x,1/2+y,1/2-z
1/2-x,1/2-y,-z
1/2+x,1/2-y,1/2+z
loop_
_atom_site_type_symbol
_atom_site_label
_atom_site_fract_x
_atom_site_fract_y
_atom_site_fract_z
Si Si1 0.428345 0.791719 0.965413
Si Si2 0.284363 0.956292 0.916569
Si Si3 0.000000 0.236520 0.750000
Si Si4 0.804807 0.060067 0.555177
Si Si5 0.751923 0.863422 0.692088
Si Si6 0.818765 0.655298 0.830961
O O1 0.539428 0.768266 0.858096
O O2 0.272875 0.837549 0.923196
O O3 0.250000 0.750000 0.000000
O O4 0.601454 0.813248 0.062459
O O5 0.228836 0.919550 0.820699
O O6 0.255173 0.011281 0.881178
O O7 0.559426 0.941604 0.969175
O O8 0.065898 0.947300 0.999528
O O9 0.216693 0.197245 0.748488
O O10 0.821764 0.109983 0.619847
O O11 0.500000 0.855046 0.750000
O O12 0.000000 0.842947 0.750000
O O13 0.000000 0.629998 0.750000
#
# Coordination Sequence:
#
# PCOD9293637 Si02
#       6
#     8   8   4   8   8   8
#     4  12  27  48  72 103 150 193 245 317 360 446
#     4  10  22  46  71 107 142 193 233 305 366 433
#     4  12  28  46  72 104 140 198 252 296 382 428
#     4  10  23  43  75 103 147 187 242 294 373 438
#     4  12  27  45  74 108 139 189 248 295 365 438
#     4  12  27  47  72 110 142 197 248 306 376 442
#
# _framework density 23.690712999999999
#
# number of rings (size 3 to 8) (size 9 to 14) (size 15 to 20)
#    0.000    0.727    4.545    1.636    7.636    0.727 
#    1.636    0.000    0.000    0.000    0.000    0.000 
#    0.000    0.000    0.000    0.000    0.000    0.000 
#
# Total GULP energy -122631.298375 kJ/mol
# GULP energy per Si atom -5574.149926 kJ/mol
# Density = 2.363679 g / cm^3
# Si number density = 23.690713 Si / 1000 Ang^3
#
#
#
# Elastic Constant Matrix: (Units=GPa)
#
#
# Indices 1 2 3 4 5 6 
#
# 1 53.2800 4.5749 1.5019 0.0000 7.5646 0.0000
# 2 4.5749 157.9002 28.2210 0.0000 -7.8753 0.0000
# 3 1.5019 28.2210 42.2312 0.0000 -3.8787 0.0000
# 4 0.0000 0.0000 0.0000 37.3526 0.0000 -11.8042
# 5 7.5646 -7.8753 -3.8787 0.0000 31.1700 0.0000
# 6 0.0000 0.0000 0.0000 -11.8042 0.0000 28.6496
#
#
#
# Elastic Compliance Matrix: (Units=1/GPa)
#
#
# Indices 1 2 3 4 5 6 
#
# 1 0.019559 -0.000693 -0.000693 0.000000 -0.005008 0.000000
# 2 -0.000693 0.007264 -0.004699 0.000000 0.001419 0.000000
# 3 -0.000693 -0.004699 0.027060 0.000000 0.002348 0.000000
# 4 0.000000 0.000000 0.000000 0.030780 0.000000 0.012682
# 5 -0.005008 0.001419 0.002348 0.000000 0.033948 0.000000
# 6 0.000000 0.000000 0.000000 0.012682 0.000000 0.040130
#
#
# Mechanical properties :
#
#
# Convention : Reuss Voigt Hill
#
# Bulk Modulus (GPa) = 23.97313 35.77856 29.87585
# Shear Modulus (GPa) = 27.05437 34.04199 30.54818
#
# Velocity S-wave (km/s) = 3.38299 3.79480 3.59480
# Velocity P-wave (km/s) = 5.03991 5.85968 5.46519
#
# Compressibility (1/GPa) = 0.04171337
#
# Stress axis : x y z
#
# Youngs Moduli (GPa) = 51.12796 137.66908 36.95542
#
# Poissons Ratio (x) = 0.09536 0.02560
# Poissons Ratio (y) = 0.03541 0.17366
# Poissons Ratio (z) = 0.03541 0.64692
#
# Static dielectric constant tensor:
#      x y z
#    x 1.777170 0.000000 -0.162190 
#    y 0.000000 1.902900 0.000000 
#    z -0.162190 0.000000 1.991890 
# 
# From -- ./inp_files/74012.got.cif
#   From: 2010.05.17/outbox.cif.g08.bks.cpg/sg15_38_cif.got.tgz:74012.got - 2010.06.03 18:47:42.
