data_PCOD9293188
_publ_section_title
;
Structure prediction by ZEFSAII (Michael W. Deem and Ramdas Pophale) SiO2 
 PCOD9293188
Probable space group: C 2/C
;
_chemical_formula_sum "Si O2"
_cell_formula_units_Z 40
_cell_length_a 16.371859
_cell_length_b 11.509210
_cell_length_c 9.410049
_cell_angle_alpha 90.000000
_cell_angle_beta 88.498423
_cell_angle_gamma 90.000000
_cell_volume 1772.499961
_symmetry_space_group_name_H-M "C 2/C"
_symmetry_group_IT_number 15
_symmetry_cell_setting 'monoclinic'
loop_
_space_group_symop_operation_xyz
x,y,z
-x,y,1/2-z
-x,-y,-z
x,-y,1/2+z
1/2+x,1/2+y,z
1/2-x,1/2+y,1/2-z
1/2-x,1/2-y,-z
1/2+x,1/2-y,1/2+z
loop_
_atom_site_type_symbol
_atom_site_label
_atom_site_fract_x
_atom_site_fract_y
_atom_site_fract_z
Si Si1 0.662894 0.055210 0.332077
Si Si2 0.415793 0.238720 0.986712
Si Si3 0.000000 0.574871 0.750000
Si Si4 0.000000 0.156090 0.750000
Si Si5 0.909535 0.998197 0.936904
Si Si6 0.253196 0.615214 0.036565
O O1 0.572364 0.005042 0.307362
O O2 0.712080 0.955524 0.410099
O O3 0.655716 0.164857 0.437475
O O4 0.704967 0.089360 0.183094
O O5 0.476699 0.268810 0.114613
O O6 0.460804 0.158149 0.870942
O O7 0.388552 0.362440 0.922486
O O8 0.923563 0.073708 0.794167
O O9 0.844988 0.066211 0.035299
O O10 0.000000 0.000000 0.000000
O O11 0.250000 0.750000 0.000000
#
# Coordination Sequence:
#
# PCOD9293188 Si02
#       6
#     8   8   4   4   8   8
#     4  12  28  48  74 112 145 199 246 310 376 450
#     4  11  24  45  76 105 151 189 249 301 368 450
#     4  12  26  48  72 116 148 196 246 306 386 452
#     4  10  22  44  78 108 142 196 240 300 370 450
#     4  10  25  45  73 109 143 196 244 300 370 444
#     4  12  30  49  76 109 155 195 251 314 378 444
#
# _framework density 22.566996
#
# number of rings (size 3 to 8) (size 9 to 14) (size 15 to 20)
#    0.000    0.800    2.000    3.000   16.800    2.400 
#    0.000    0.000    0.000    0.000    0.000    0.000 
#    0.000    0.000    0.000    0.000    0.000    0.000 
#
# Total GULP energy -111997.897257 kJ/mol
# GULP energy per Si atom -5599.894863 kJ/mol
# Density = 2.251563 g / cm^3
# Si number density = 22.566996 Si / 1000 Ang^3
#
#
#
# Elastic Constant Matrix: (Units=GPa)
#
#
# Indices 1 2 3 4 5 6 
#
# 1 88.3144 42.2456 10.1233 0.0000 -10.3332 0.0000
# 2 42.2456 182.8073 55.2280 0.0000 -19.1731 0.0000
# 3 10.1233 55.2280 113.8983 0.0000 -24.3341 0.0000
# 4 0.0000 0.0000 0.0000 -18.2690 0.0000 23.0134
# 5 -10.3332 -19.1731 -24.3341 0.0000 43.6470 0.0000
# 6 0.0000 0.0000 0.0000 23.0134 0.0000 20.9958
#
#
#
# Elastic Compliance Matrix: (Units=1/GPa)
#
#
# Indices 1 2 3 4 5 6 
#
# 1 0.012919 -0.002989 0.000765 0.000000 0.002172 0.000000
# 2 -0.002989 0.007159 -0.003048 0.000000 0.000738 0.000000
# 3 0.000765 -0.003048 0.011287 0.000000 0.005135 0.000000
# 4 0.000000 0.000000 0.000000 -0.022992 0.000000 0.025201
# 5 0.002172 0.000738 0.005135 0.000000 0.026612 0.000000
# 6 0.000000 0.000000 0.000000 0.025201 0.000000 0.020006
#
#
# Mechanical properties :
#
#
# Convention : Reuss Voigt Hill
#
# Bulk Modulus (GPa) = 48.02719 66.69042 57.35880
# Shear Modulus (GPa) = 68.98829 27.76962 48.37896
#
# Velocity S-wave (km/s) = 5.53505 3.51171 4.63513
# Velocity P-wave (km/s) = 7.88526 6.78669 7.35651
#
# Compressibility (1/GPa) = 0.02082154
#
# Stress axis : x y z
#
# Youngs Moduli (GPa) = 77.40301 139.68006 88.59906
#
# Poissons Ratio (x) = 0.41749 -0.06779
# Poissons Ratio (y) = 0.23135 0.27006
# Poissons Ratio (z) = -0.05922 0.42576
#
# Static dielectric constant tensor:
#      x y z
#    x 1.902490 0.000000 0.022600 
#    y 0.000000 1.841080 0.000000 
#    z 0.022600 0.000000 1.847850 
# 
# From -- ./inp_files/46151.got.cif
#   From: 2010.05.17/outbox.cif.g08.bks.cpg/sg15_24_cif.got.tgz:46151.got - 2010.06.03 18:47:42.
