data_PCOD9293851
_publ_section_title
;
Structure prediction by ZEFSAII (Michael W. Deem and Ramdas Pophale) SiO2 
 PCOD9293851
Probable space group: C 2/C
;
_chemical_formula_sum "Si O2"
_cell_formula_units_Z 36
_cell_length_a 28.548218
_cell_length_b 5.375520
_cell_length_c 25.184343
_cell_angle_alpha 90.000000
_cell_angle_beta 158.906145
_cell_angle_gamma 90.000000
_cell_volume 1390.938834
_symmetry_space_group_name_H-M "C 2/C"
_symmetry_group_IT_number 15
_symmetry_cell_setting 'monoclinic'
loop_
_space_group_symop_operation_xyz
x,y,z
-x,y,1/2-z
-x,-y,-z
x,-y,1/2+z
1/2+x,1/2+y,z
1/2-x,1/2+y,1/2-z
1/2-x,1/2-y,-z
1/2+x,1/2-y,1/2+z
loop_
_atom_site_type_symbol
_atom_site_label
_atom_site_fract_x
_atom_site_fract_y
_atom_site_fract_z
Si Si1 0.133024 0.992902 0.065535
Si Si2 0.326392 0.232692 0.137171
Si Si3 0.500000 0.998578 0.750000
Si Si4 0.084674 0.295422 0.620885
Si Si5 0.799400 0.722397 0.462646
O O1 0.124260 0.897592 0.116722
O O2 0.277305 0.104712 0.213481
O O3 0.125230 0.778798 0.012614
O O4 0.011281 0.181837 0.936082
O O5 0.471012 0.185065 0.268774
O O6 0.250000 0.250000 0.000000
O O7 0.288781 0.474949 0.130445
O O8 0.283301 0.968865 0.114677
O O9 0.392529 0.179942 0.611610
O O10 0.000000 0.500000 0.500000
#
# Coordination Sequence:
#
# PCOD9293851 Si02
#       5
#     8   8   4   8   8
#     4  11  26  48  78 113 156 206 270 323 411 476
#     4  10  23  45  70 103 150 196 257 316 386 460
#     4  10  22  48  74 108 162 204 258 330 398 472
#     4  11  24  49  77 109 157 203 258 339 396 477
#     4  11  26  45  75 113 148 205 259 322 393 477
#
# _framework density 25.881800999999999
#
# number of rings (size 3 to 8) (size 9 to 14) (size 15 to 20)
#    0.000    1.333    2.222    2.667    3.111    9.778 
#   12.000    0.000    0.000    0.000    0.000    0.000 
#    0.000    0.000    0.000    0.000    0.000    0.000 
#
# Total GULP energy -100703.415225 kJ/mol
# GULP energy per Si atom -5594.634179 kJ/mol
# Density = 2.582289 g / cm^3
# Si number density = 25.881801 Si / 1000 Ang^3
#
#
#
# Elastic Constant Matrix: (Units=GPa)
#
#
# Indices 1 2 3 4 5 6 
#
# 1 149.2768 73.0879 52.5434 0.0000 20.6061 0.0000
# 2 73.0879 181.8714 68.6655 -0.0001 31.6551 -0.0013
# 3 52.5434 68.6655 146.7090 -0.0001 20.7026 0.0000
# 4 0.0000 -0.0001 -0.0001 40.5096 0.0000 16.3489
# 5 20.6061 31.6551 20.7026 0.0000 32.8993 0.0000
# 6 0.0000 -0.0013 0.0000 16.3489 0.0000 67.4431
#
#
#
# Elastic Compliance Matrix: (Units=1/GPa)
#
#
# Indices 1 2 3 4 5 6 
#
# 1 0.008821 -0.002563 -0.001677 0.000000 -0.002004 0.000000
# 2 -0.002563 0.008228 -0.002241 0.000000 -0.004901 0.000000
# 3 -0.001677 -0.002241 0.008794 0.000000 -0.002327 0.000000
# 4 0.000000 0.000000 0.000000 0.027362 0.000000 -0.006633
# 5 -0.002004 -0.004901 -0.002327 0.000000 0.037830 0.000000
# 6 0.000000 0.000000 0.000000 -0.006633 0.000000 0.016435
#
#
# Mechanical properties :
#
#
# Convention : Reuss Voigt Hill
#
# Bulk Modulus (GPa) = 77.63860 96.27230 86.95545
# Shear Modulus (GPa) = 40.08793 47.07443 43.58118
#
# Velocity S-wave (km/s) = 3.93986 4.26939 4.10793
# Velocity P-wave (km/s) = 7.12454 7.84737 7.49468
#
# Compressibility (1/GPa) = 0.01288019
#
# Stress axis : x y z
#
# Youngs Moduli (GPa) = 113.37137 121.54309 113.71157
#
# Poissons Ratio (x) = 0.31150 0.19067
# Poissons Ratio (y) = 0.29056 0.25487
# Poissons Ratio (z) = 0.19010 0.27242
#
# Static dielectric constant tensor:
#      x y z
#    x 2.274370 0.000000 0.139700 
#    y 0.000000 2.186970 0.000000 
#    z 0.139700 0.000000 2.273500 
# 
# From -- ./inp_files/320015.got.cif
#   From: 2010.05.17/outbox.cif.g08.bks.cpg/sg15_161_cif.got.tgz:320015.got - 2010.06.03 18:47:42.
