data_PCOD9293945
_publ_section_title
;
Structure prediction by ZEFSAII (Michael W. Deem and Ramdas Pophale) SiO2 
 PCOD9293945
Probable space group: C 2/C
;
_chemical_formula_sum "Si O2"
_cell_formula_units_Z 40
_cell_length_a 8.385191
_cell_length_b 25.077991
_cell_length_c 8.553465
_cell_angle_alpha 90.000000
_cell_angle_beta 99.528626
_cell_angle_gamma 90.000000
_cell_volume 1773.838642
_symmetry_space_group_name_H-M "C 2/C"
_symmetry_group_IT_number 15
_symmetry_cell_setting 'monoclinic'
loop_
_space_group_symop_operation_xyz
x,y,z
-x,y,1/2-z
-x,-y,-z
x,-y,1/2+z
1/2+x,1/2+y,z
1/2-x,1/2+y,1/2-z
1/2-x,1/2-y,-z
1/2+x,1/2-y,1/2+z
loop_
_atom_site_type_symbol
_atom_site_label
_atom_site_fract_x
_atom_site_fract_y
_atom_site_fract_z
Si Si1 0.448758 0.324796 0.498212
Si Si2 0.981978 0.560363 0.930866
Si Si3 0.162442 0.068555 0.475119
Si Si4 0.758899 0.660935 0.855725
Si Si5 0.500000 0.480441 0.250000
Si Si6 0.000000 0.740517 0.750000
O O1 0.445477 0.381413 0.582287
O O2 0.332712 0.334939 0.328513
O O3 0.628405 0.318284 0.458388
O O4 0.404593 0.279571 0.615598
O O5 0.000000 0.553442 0.750000
O O6 0.834530 0.603247 0.922026
O O7 0.152016 0.585725 0.011998
O O8 0.000000 0.500000 0.000000
O O9 0.102638 0.051685 0.639281
O O10 0.124110 0.017807 0.362997
O O11 0.903188 0.701690 0.849501
#
# Coordination Sequence:
#
# PCOD9293945 Si02
#       6
#     8   8   8   8   4   4
#     4  11  24  42  72 101 137 181 229 287 344 412
#     4  12  25  44  68  99 139 185 225 280 341 404
#     4  11  22  40  63  95 134 173 224 267 336 396
#     4  11  24  45  68 102 138 180 229 285 347 414
#     4  10  23  36  66  92 132 179 218 274 324 402
#     4  12  23  46  74  98 134 177 236 288 354 400
#
# _framework density 22.549963999999999
#
# number of rings (size 3 to 8) (size 9 to 14) (size 15 to 20)
#    0.000    0.800    3.000    4.200    5.600    0.000 
#    3.600    0.000    4.400    0.000    0.000    0.000 
#    0.000    0.000    0.000    0.000    0.000    0.000 
#
# Total GULP energy -111545.901827 kJ/mol
# GULP energy per Si atom -5577.295091 kJ/mol
# Density = 2.249864 g / cm^3
# Si number density = 22.549964 Si / 1000 Ang^3
#
#
#
# Elastic Constant Matrix: (Units=GPa)
#
#
# Indices 1 2 3 4 5 6 
#
# 1 70.8679 16.0584 1.2176 0.0000 10.8076 0.0000
# 2 16.0584 123.5049 18.0379 0.0000 -1.0445 0.0000
# 3 1.2176 18.0379 61.7610 0.0000 13.5336 0.0000
# 4 0.0000 0.0000 0.0000 0.1875 0.0000 -2.0568
# 5 10.8076 -1.0445 13.5336 0.0000 15.4337 0.0000
# 6 0.0000 0.0000 0.0000 -2.0568 0.0000 10.8137
#
#
#
# Elastic Compliance Matrix: (Units=1/GPa)
#
#
# Indices 1 2 3 4 5 6 
#
# 1 0.017089 -0.002930 0.003942 0.000000 -0.015622 0.000000
# 2 -0.002930 0.009106 -0.003944 0.000000 0.006126 0.000000
# 3 0.003942 -0.003944 0.022194 0.000000 -0.022489 0.000000
# 4 0.000000 0.000000 0.000000 -4.909302 0.000000 -0.933786
# 5 -0.015622 0.006126 -0.022489 0.000000 0.095868 0.000000
# 6 0.000000 0.000000 0.000000 -0.933786 0.000000 -0.085137
#
#
# Mechanical properties :
#
#
# Convention : Reuss Voigt Hill
#
# Bulk Modulus (GPa) = 23.51573 36.30683 29.91128
# Shear Modulus (GPa) = -1.03517 20.00830 9.48657
#
# Velocity S-wave (km/s) = -0.67827 2.98197 2.05330
# Velocity P-wave (km/s) = 3.13648 5.29072 4.34910
#
# Compressibility (1/GPa) = 0.04252472
#
# Stress axis : x y z
#
# Youngs Moduli (GPa) = 58.51601 109.82205 45.05806
#
# Poissons Ratio (x) = 0.32176 -0.17762
# Poissons Ratio (y) = 0.17144 0.17771
# Poissons Ratio (z) = -0.23067 0.43315
#
# Static dielectric constant tensor:
#      x y z
#    x 1.885000 0.000000 0.061400 
#    y 0.000000 1.872650 0.000000 
#    z 0.061400 0.000000 1.869590 
# 
# From -- ./inp_files/23785.got.cif
#   From: 2010.05.17/outbox.cif.g08.bks.cpg/sg15_12_cif.got.tgz:23785.got - 2010.06.03 18:47:42.
