data_PCOD9293649
_publ_section_title
;
Structure prediction by ZEFSAII (Michael W. Deem and Ramdas Pophale) SiO2 
 PCOD9293649
Probable space group: C 2/C
;
_chemical_formula_sum "Si O2"
_cell_formula_units_Z 48
_cell_length_a 13.877644
_cell_length_b 8.569592
_cell_length_c 26.794127
_cell_angle_alpha 90.000000
_cell_angle_beta 139.881516
_cell_angle_gamma 90.000000
_cell_volume 2053.293623
_symmetry_space_group_name_H-M "C 2/C"
_symmetry_group_IT_number 15
_symmetry_cell_setting 'monoclinic'
loop_
_space_group_symop_operation_xyz
x,y,z
-x,y,1/2-z
-x,-y,-z
x,-y,1/2+z
1/2+x,1/2+y,z
1/2-x,1/2+y,1/2-z
1/2-x,1/2-y,-z
1/2+x,1/2-y,1/2+z
loop_
_atom_site_type_symbol
_atom_site_label
_atom_site_fract_x
_atom_site_fract_y
_atom_site_fract_z
Si Si1 0.400208 0.666011 0.790545
Si Si2 0.500000 0.917388 0.750000
Si Si3 0.416547 0.810047 0.551613
Si Si4 0.496418 0.678502 0.016841
Si Si5 0.000000 0.934011 0.750000
Si Si6 0.058051 0.356611 0.137854
Si Si7 0.836136 0.692410 0.636573
O O1 0.430567 0.816661 0.767261
O O2 0.469025 0.701993 0.871493
O O3 0.490688 0.537430 0.795329
O O4 0.228015 0.615034 0.722194
O O5 0.370892 0.026515 0.675645
O O6 0.250000 0.750000 0.500000
O O7 0.435323 0.781191 0.500525
O O8 0.467264 0.987042 0.585072
O O9 0.566667 0.732371 0.096371
O O10 0.500000 0.500000 0.000000
O O11 0.320609 0.710863 0.951299
O O12 0.857834 0.822466 0.687381
O O13 0.965446 0.288677 0.147119
#
# Coordination Sequence:
#
# PCOD9293649 Si02
#       7
#     8   4   8   8   4   8   8
#     4  11  26  45  75 102 142 190 247 295 368 439
#     4  10  22  46  72 100 148 186 246 298 374 432
#     4  12  29  49  75 106 151 196 245 305 377 445
#     4  12  28  45  72 105 150 191 245 307 373 435
#     4  10  26  40  72 102 140 182 240 298 360 428
#     4  12  27  46  75 106 145 193 250 299 372 444
#     4  11  24  44  71 105 146 184 242 302 370 434
#
# _framework density 23.377075000000001
#
# number of rings (size 3 to 8) (size 9 to 14) (size 15 to 20)
#    0.000    0.667    1.667    4.000   16.333    0.000 
#    0.000    0.000    0.000    0.000    0.000    0.000 
#    0.000    0.000    0.000    0.000    0.000    0.000 
#
# Total GULP energy -134370.048480 kJ/mol
# GULP energy per Si atom -5598.752020 kJ/mol
# Density = 2.332387 g / cm^3
# Si number density = 23.377075 Si / 1000 Ang^3
#
#
#
# Elastic Constant Matrix: (Units=GPa)
#
#
# Indices 1 2 3 4 5 6 
#
# 1 82.6135 8.1209 9.0272 0.0000 3.0298 0.0000
# 2 8.1209 105.9355 14.7860 0.0000 -5.0897 0.0000
# 3 9.0272 14.7860 83.1846 0.0000 13.0494 0.0000
# 4 0.0000 0.0000 0.0000 30.3669 0.0000 -9.7568
# 5 3.0298 -5.0897 13.0494 0.0000 49.7085 0.0000
# 6 0.0000 0.0000 0.0000 -9.7568 0.0000 20.2426
#
#
#
# Elastic Compliance Matrix: (Units=1/GPa)
#
#
# Indices 1 2 3 4 5 6 
#
# 1 0.012326 -0.000817 -0.001107 0.000000 -0.000544 0.000000
# 2 -0.000817 0.009843 -0.001905 0.000000 0.001558 0.000000
# 3 -0.001107 -0.001905 0.013037 0.000000 -0.003550 0.000000
# 4 0.000000 0.000000 0.000000 0.038965 0.000000 0.018781
# 5 -0.000544 0.001558 -0.003550 0.000000 0.021242 0.000000
# 6 0.000000 0.000000 0.000000 0.018781 0.000000 0.058453
#
#
# Mechanical properties :
#
#
# Convention : Reuss Voigt Hill
#
# Bulk Modulus (GPa) = 36.30012 37.28909 36.79461
# Shear Modulus (GPa) = 29.29010 36.05024 32.67017
#
# Velocity S-wave (km/s) = 3.54353 3.93124 3.74241
# Velocity P-wave (km/s) = 5.68366 6.04913 5.86924
#
# Compressibility (1/GPa) = 0.02754811
#
# Stress axis : x y z
#
# Youngs Moduli (GPa) = 81.13095 101.59419 76.70366
#
# Poissons Ratio (x) = 0.08295 0.08492
# Poissons Ratio (y) = 0.06624 0.14615
# Poissons Ratio (z) = 0.08982 0.19357
#
# Static dielectric constant tensor:
#      x y z
#    x 0.943720 0.000000 0.211490 
#    y 0.000000 1.937440 0.000000 
#    z 0.211490 0.000000 1.804690 
# 
# From -- ./inp_files/295491.got.cif
#   From: 2010.05.17/outbox.cif.g08.bks.cpg/sg15_148_cif.got.tgz:295491.got - 2010.06.03 18:47:42.
