data_PCOD9293663
_publ_section_title
;
Structure prediction by ZEFSAII (Michael W. Deem and Ramdas Pophale) SiO2 
 PCOD9293663
Probable space group: C 2/C
;
_chemical_formula_sum "Si O2"
_cell_formula_units_Z 28
_cell_length_a 17.973658
_cell_length_b 4.993892
_cell_length_c 13.083790
_cell_angle_alpha 90.000000
_cell_angle_beta 114.230604
_cell_angle_gamma 90.000000
_cell_volume 1070.919658
_symmetry_space_group_name_H-M "C 2/C"
_symmetry_group_IT_number 15
_symmetry_cell_setting 'monoclinic'
loop_
_space_group_symop_operation_xyz
x,y,z
-x,y,1/2-z
-x,-y,-z
x,-y,1/2+z
1/2+x,1/2+y,z
1/2-x,1/2+y,1/2-z
1/2-x,1/2-y,-z
1/2+x,1/2-y,1/2+z
loop_
_atom_site_type_symbol
_atom_site_label
_atom_site_fract_x
_atom_site_fract_y
_atom_site_fract_z
Si Si1 0.547595 0.724439 0.150431
Si Si2 0.750000 0.750000 0.000000
Si Si3 0.562669 0.226901 0.417546
Si Si4 0.223175 0.376548 0.298290
O O1 0.507299 0.440062 0.147206
O O2 0.477139 0.940870 0.125699
O O3 0.630276 0.784741 0.255900
O O4 0.573192 0.745242 0.045960
O O5 0.848663 0.761008 0.080132
O O6 0.740814 0.501686 0.078922
O O7 0.269750 0.110103 0.284376
#
# Coordination Sequence:
#
# PCOD9293663 Si02
#       4
#     8   4   8   8
#     4  10  22  46  72 106 150 200 241 319 391 453
#     4  12  28  48  80 118 150 206 268 322 382 474
#     4  10  23  43  76 108 146 195 255 311 384 460
#     4  12  27  48  76 115 159 206 260 329 393 462
#
# _framework density 26.145754
#
# number of rings (size 3 to 8) (size 9 to 14) (size 15 to 20)
#    0.000    1.143    2.857    1.714    8.000    5.714 
#    0.000    2.857    0.000    0.000    0.000    0.000 
#    0.000    0.000    0.000    0.000    0.000    0.000 
#
# Total GULP energy -78078.104986 kJ/mol
# GULP energy per Si atom -5577.007499 kJ/mol
# Density = 2.608625 g / cm^3
# Si number density = 26.145754 Si / 1000 Ang^3
#
#
#
# Elastic Constant Matrix: (Units=GPa)
#
#
# Indices 1 2 3 4 5 6 
#
# 1 148.1608 44.5098 28.7136 0.0000 32.7254 0.0000
# 2 44.5098 95.5967 13.2383 0.0000 -1.4496 0.0000
# 3 28.7136 13.2383 78.7030 0.0000 9.8338 0.0000
# 4 0.0000 0.0000 0.0000 30.0130 0.0000 41.9889
# 5 32.7254 -1.4496 9.8338 0.0000 40.8083 0.0000
# 6 0.0000 0.0000 0.0000 41.9889 0.0000 -4.6242
#
#
#
# Elastic Compliance Matrix: (Units=1/GPa)
#
#
# Indices 1 2 3 4 5 6 
#
# 1 0.010275 -0.004630 -0.001979 0.000000 -0.007927 0.000000
# 2 -0.004630 0.012825 -0.001019 0.000000 0.004414 0.000000
# 3 -0.001979 -0.001019 0.013822 0.000000 -0.001780 0.000000
# 4 0.000000 0.000000 0.000000 0.002431 0.000000 0.022078
# 5 -0.007927 0.004414 -0.001780 0.000000 0.031448 0.000000
# 6 0.000000 0.000000 0.000000 0.022078 0.000000 -0.015781
#
#
# Mechanical properties :
#
#
# Convention : Reuss Voigt Hill
#
# Bulk Modulus (GPa) = 46.16050 55.04266 50.60158
# Shear Modulus (GPa) = 64.51726 28.97266 46.74496
#
# Velocity S-wave (km/s) = 4.97288 3.33246 4.23290
# Velocity P-wave (km/s) = 7.11802 5.99207 6.57918
#
# Compressibility (1/GPa) = 0.02166355
#
# Stress axis : x y z
#
# Youngs Moduli (GPa) = 97.32415 77.97567 72.34858
#
# Poissons Ratio (x) = 0.36104 0.14320
# Poissons Ratio (y) = 0.45062 0.07376
# Poissons Ratio (z) = 0.19264 0.07949
#
# Static dielectric constant tensor:
#      x y z
#    x 1.741930 0.000000 0.346720 
#    y 0.000000 2.001770 0.000000 
#    z 0.346720 0.000000 1.138170 
# 
# From -- ./inp_files/158295.got.cif
#   From: 2010.05.17/outbox.cif.g08.bks.cpg/sg15_80_cif.got.tgz:158295.got - 2010.06.03 18:47:42.
