data_PCOD9293930
_publ_section_title
;
Structure prediction by ZEFSAII (Michael W. Deem and Ramdas Pophale) SiO2 
 PCOD9293930
Probable space group: C 2/C
;
_chemical_formula_sum "Si O2"
_cell_formula_units_Z 48
_cell_length_a 17.129856
_cell_length_b 13.254038
_cell_length_c 17.573547
_cell_angle_alpha 90.000000
_cell_angle_beta 28.569162
_cell_angle_gamma 90.000000
_cell_volume 1908.044031
_symmetry_space_group_name_H-M "C 2/C"
_symmetry_group_IT_number 15
_symmetry_cell_setting 'monoclinic'
loop_
_space_group_symop_operation_xyz
x,y,z
-x,y,1/2-z
-x,-y,-z
x,-y,1/2+z
1/2+x,1/2+y,z
1/2-x,1/2+y,1/2-z
1/2-x,1/2-y,-z
1/2+x,1/2-y,1/2+z
loop_
_atom_site_type_symbol
_atom_site_label
_atom_site_fract_x
_atom_site_fract_y
_atom_site_fract_z
Si Si1 0.000000 0.413094 0.750000
Si Si2 0.148116 0.994541 0.296711
Si Si3 0.500000 0.749913 0.250000
Si Si4 0.638672 0.855984 0.480435
Si Si5 0.215558 0.307434 0.762749
Si Si6 0.679693 0.762189 0.961627
Si Si7 0.786785 0.034941 0.589177
O O1 0.886751 0.350155 0.906734
O O2 0.866054 0.479201 0.818250
O O3 0.155007 0.111434 0.316726
O O4 0.959731 0.973820 0.436518
O O5 0.221753 0.947228 0.311802
O O6 0.262516 0.954981 0.131292
O O7 0.449527 0.808612 0.369920
O O8 0.651189 0.690573 0.155412
O O9 0.720657 0.765241 0.359428
O O10 0.449887 0.862635 0.618907
O O11 0.155896 0.262532 0.893585
O O12 0.691367 0.642977 0.968879
#
# Coordination Sequence:
#
# PCOD9293930 Si02
#       7
#     4   8   4   8   8   8   8
#     4  12  29  48  74 115 158 200 248 317 386 441
#     4  11  25  48  79 108 144 195 259 306 369 452
#     4  10  23  36  60 107 148 180 230 309 374 445
#     4  12  28  48  78 112 151 201 254 314 379 450
#     4  12  25  47  80 109 148 206 255 311 369 462
#     4  11  22  41  69 105 146 189 243 298 379 439
#     4  11  24  46  73 108 147 196 246 312 372 443
#
# _framework density 25.156652999999999
#
# number of rings (size 3 to 8) (size 9 to 14) (size 15 to 20)
#    0.000    0.667    3.333    4.000    2.333    5.333 
#    0.000    0.000    0.000    0.000    0.000    0.000 
#    0.000    0.000    0.000    0.000    0.000    0.000 
#
# Total GULP energy -133731.067555 kJ/mol
# GULP energy per Si atom -5572.127815 kJ/mol
# Density = 2.509940 g / cm^3
# Si number density = 25.156653 Si / 1000 Ang^3
#
#
#
# Elastic Constant Matrix: (Units=GPa)
#
#
# Indices 1 2 3 4 5 6 
#
# 1 125.8826 33.9761 71.7902 0.0003 9.8543 0.0001
# 2 33.9761 77.4922 40.1028 0.0005 17.9190 -0.0001
# 3 71.7902 40.1028 174.4979 0.0008 22.0453 -0.0004
# 4 0.0003 0.0005 0.0008 28.3941 -0.0002 0.0931
# 5 9.8543 17.9190 22.0453 -0.0002 71.1961 0.0002
# 6 0.0001 -0.0001 -0.0004 0.0931 0.0002 15.3141
#
#
#
# Elastic Compliance Matrix: (Units=1/GPa)
#
#
# Indices 1 2 3 4 5 6 
#
# 1 0.010896 -0.002867 -0.003876 0.000000 0.000414 0.000000
# 2 -0.002867 0.015938 -0.002109 0.000000 -0.002961 0.000000
# 3 -0.003876 -0.002109 0.007988 0.000000 -0.001406 0.000000
# 4 0.000000 0.000000 0.000000 0.035219 0.000000 -0.000214
# 5 0.000414 -0.002961 -0.001406 0.000000 0.015169 0.000000
# 6 0.000000 0.000000 0.000000 -0.000214 0.000000 0.065301
#
#
# Mechanical properties :
#
#
# Convention : Reuss Voigt Hill
#
# Bulk Modulus (GPa) = 58.42144 74.40121 66.41133
# Shear Modulus (GPa) = 28.74876 38.44776 33.59826
#
# Velocity S-wave (km/s) = 3.38418 3.91363 3.65850
# Velocity P-wave (km/s) = 6.20836 7.07541 6.65602
#
# Compressibility (1/GPa) = 0.01711700
#
# Stress axis : x y z
#
# Youngs Moduli (GPa) = 91.77839 62.74379 125.19225
#
# Poissons Ratio (x) = 0.17989 0.48525
# Poissons Ratio (y) = 0.26313 0.26405
# Poissons Ratio (z) = 0.35573 0.13234
#
# Static dielectric constant tensor:
#      x y z
#    x 2.002270 0.000000 0.055650 
#    y 0.000000 2.093050 0.000000 
#    z 0.055650 0.000000 2.115730 
# 
# From -- ./inp_files/211348.got.cif
#   From: 2010.05.17/outbox.cif.g08.bks.cpg/sg15_106_cif.got.tgz:211348.got - 2010.06.03 18:47:42.
