data_PCOD9293345
_publ_section_title
;
Structure prediction by ZEFSAII (Michael W. Deem and Ramdas Pophale) SiO2 
 PCOD9293345
Probable space group: C 2/C
;
_chemical_formula_sum "Si O2"
_cell_formula_units_Z 60
_cell_length_a 13.374751
_cell_length_b 28.128697
_cell_length_c 13.032566
_cell_angle_alpha 90.000000
_cell_angle_beta 34.498207
_cell_angle_gamma 90.000000
_cell_volume 2776.984815
_symmetry_space_group_name_H-M "C 2/C"
_symmetry_group_IT_number 15
_symmetry_cell_setting 'monoclinic'
loop_
_space_group_symop_operation_xyz
x,y,z
-x,y,1/2-z
-x,-y,-z
x,-y,1/2+z
1/2+x,1/2+y,z
1/2-x,1/2+y,1/2-z
1/2-x,1/2-y,-z
1/2+x,1/2-y,1/2+z
loop_
_atom_site_type_symbol
_atom_site_label
_atom_site_fract_x
_atom_site_fract_y
_atom_site_fract_z
Si Si1 0.457013 0.393918 0.059747
Si Si2 0.335144 0.725961 0.330303
Si Si3 0.000000 0.940622 0.250000
Si Si4 0.392575 0.973044 0.934424
Si Si5 0.418711 0.934630 0.142237
Si Si6 0.998371 0.699675 0.371163
Si Si7 0.799806 0.366867 0.666528
Si Si8 0.298599 0.291793 0.224731
O O1 0.488596 0.410522 0.152006
O O2 0.284398 0.421639 0.162771
O O3 0.405099 0.337957 0.098647
O O4 0.633574 0.398804 0.841725
O O5 0.500000 0.704711 0.250000
O O6 0.250000 0.750000 0.500000
O O7 0.251300 0.681255 0.347307
O O8 0.335238 0.768565 0.245906
O O9 0.817626 0.971015 0.409219
O O10 0.500000 0.949761 0.750000
O O11 0.491315 0.023300 0.870145
O O12 0.417307 0.947942 0.022772
O O13 0.554519 0.891248 0.027954
O O14 0.113115 0.653991 0.304015
O O15 0.073642 0.748700 0.354080
O O16 0.000000 0.705442 0.250000
O O17 0.810109 0.692818 0.583489
#
# Coordination Sequence:
#
# PCOD9293345 Si02
#       8
#     8   8   4   8   8   8   8   8
#     4  11  23  39  66  97 136 167 220 271 330 392
#     4  11  23  42  63  86 125 186 230 273 323 365
#     4  10  24  40  70 106 124 174 210 260 338 426
#     4  10  22  45  70  97 131 165 210 264 344 406
#     4  10  23  44  67  95 133 169 208 276 330 402
#     4  11  23  36  61  91 136 185 213 274 336 389
#     4  11  23  42  62  98 132 172 230 273 324 392
#     4  11  22  40  58  93 134 170 235 270 323 395
#
# _framework density 21.606168
#
# number of rings (size 3 to 8) (size 9 to 14) (size 15 to 20)
#    0.000    1.333    1.333    5.200    2.800    1.600 
#    6.000    4.000    0.000    0.000    0.000    0.000 
#    0.000    0.000    0.000    0.000    0.000    0.000 
#
# Total GULP energy -167359.780743 kJ/mol
# GULP energy per Si atom -5578.659358 kJ/mol
# Density = 2.155699 g / cm^3
# Si number density = 21.606168 Si / 1000 Ang^3
#
#
#
# Elastic Constant Matrix: (Units=GPa)
#
#
# Indices 1 2 3 4 5 6 
#
# 1 50.9766 7.2944 6.9514 0.0000 2.5363 0.0000
# 2 7.2944 50.9689 -9.0806 0.0000 -15.8911 0.0000
# 3 6.9514 -9.0806 93.7675 0.0000 -5.7378 0.0000
# 4 0.0000 0.0000 0.0000 33.9174 0.0000 -1.5467
# 5 2.5363 -15.8911 -5.7378 0.0000 36.7156 0.0000
# 6 0.0000 0.0000 0.0000 -1.5467 0.0000 16.2925
#
#
#
# Elastic Compliance Matrix: (Units=1/GPa)
#
#
# Indices 1 2 3 4 5 6 
#
# 1 0.020752 -0.004528 -0.002206 0.000000 -0.003738 0.000000
# 2 -0.004528 0.024434 0.003401 0.000000 0.011420 0.000000
# 3 -0.002206 0.003401 0.011366 0.000000 0.003400 0.000000
# 4 0.000000 0.000000 0.000000 0.029612 0.000000 0.002811
# 5 -0.003738 0.011420 0.003400 0.000000 0.032969 0.000000
# 6 0.000000 0.000000 0.000000 0.002811 0.000000 0.061645
#
#
# Mechanical properties :
#
#
# Convention : Reuss Voigt Hill
#
# Bulk Modulus (GPa) = 20.04614 22.89373 21.46993
# Shear Modulus (GPa) = 24.50126 30.08829 27.29478
#
# Velocity S-wave (km/s) = 3.37114 3.73578 3.55813
# Velocity P-wave (km/s) = 4.94478 5.40620 5.18063
#
# Compressibility (1/GPa) = 0.04988492
#
# Stress axis : x y z
#
# Youngs Moduli (GPa) = 48.18911 40.92625 87.98478
#
# Poissons Ratio (x) = 0.18533 0.19407
# Poissons Ratio (y) = 0.21821 -0.29921
# Poissons Ratio (z) = 0.10629 -0.13918
#
# Static dielectric constant tensor:
#      x y z
#    x 1.773280 0.000000 -0.038600 
#    y 0.000000 1.786170 0.000000 
#    z -0.038600 0.000000 1.809240 
# 
# From -- ./inp_files/157333.got.cif
#   From: 2010.05.17/outbox.cif.g08.bks.cpg/sg15_79_cif.got.tgz:157333.got - 2010.06.03 18:47:42.
