data_PCOD9293235
_publ_section_title
;
Structure prediction by ZEFSAII (Michael W. Deem and Ramdas Pophale) SiO2 
 PCOD9293235
Probable space group: C 2/C
;
_chemical_formula_sum "Si O2"
_cell_formula_units_Z 40
_cell_length_a 22.938327
_cell_length_b 12.097814
_cell_length_c 17.868515
_cell_angle_alpha 90.000000
_cell_angle_beta 18.174066
_cell_angle_gamma 90.000000
_cell_volume 1546.604599
_symmetry_space_group_name_H-M "C 2/C"
_symmetry_group_IT_number 15
_symmetry_cell_setting 'monoclinic'
loop_
_space_group_symop_operation_xyz
x,y,z
-x,y,1/2-z
-x,-y,-z
x,-y,1/2+z
1/2+x,1/2+y,z
1/2-x,1/2+y,1/2-z
1/2-x,1/2-y,-z
1/2+x,1/2-y,1/2+z
loop_
_atom_site_type_symbol
_atom_site_label
_atom_site_fract_x
_atom_site_fract_y
_atom_site_fract_z
Si Si1 0.375593 0.591361 0.325261
Si Si2 0.611966 0.610103 0.535198
Si Si3 0.909402 0.263795 0.158071
Si Si4 0.036684 0.483509 0.332881
Si Si5 0.756374 0.334908 0.195373
O O1 0.500000 0.618261 0.250000
O O2 0.489987 0.489483 0.148872
O O3 0.342055 0.692038 0.310014
O O4 0.173059 0.549235 0.598886
O O5 0.500000 0.625588 0.750000
O O6 0.819473 0.559874 0.294713
O O7 0.640266 0.730721 0.467750
O O8 0.015202 0.369506 0.063703
O O9 0.772475 0.321129 0.266033
O O10 0.038506 0.184096 0.951222
O O11 0.853747 0.556189 0.546583
#
# Coordination Sequence:
#
# PCOD9293235 Si02
#       5
#     8   8   8   8   8
#     4   9  21  43  71  95 133 178 226 265 333 407
#     4   9  21  43  69  92 133 183 221 266 338 408
#     4  12  25  41  72  99 135 170 228 281 333 386
#     4  10  22  45  66  90 138 183 211 266 352 395
#     4  12  24  41  69 100 135 174 223 277 340 389
#
# _framework density 25.863106999999999
#
# number of rings (size 3 to 8) (size 9 to 14) (size 15 to 20)
#    0.000    2.000    2.000    3.600    2.800    4.000 
#    0.000    1.000    0.000    0.000    0.000    0.000 
#    0.000    0.000    0.000    0.000    0.000    0.000 
#
# Total GULP energy -111873.987580 kJ/mol
# GULP energy per Si atom -5593.699379 kJ/mol
# Density = 2.580424 g / cm^3
# Si number density = 25.863107 Si / 1000 Ang^3
#
#
#
# Elastic Constant Matrix: (Units=GPa)
#
#
# Indices 1 2 3 4 5 6 
#
# 1 56.7532 10.9433 7.3374 0.0009 9.2797 -0.0090
# 2 10.9433 134.6599 27.1124 0.0006 32.3855 -0.0094
# 3 7.3374 27.1124 99.6441 0.0003 7.3960 -0.0118
# 4 0.0009 0.0006 0.0003 56.9305 -0.0008 -13.1310
# 5 9.2797 32.3855 7.3960 -0.0008 30.4079 0.0056
# 6 -0.0090 -0.0094 -0.0118 -13.1310 0.0056 -61.6439
#
#
#
# Elastic Compliance Matrix: (Units=1/GPa)
#
#
# Indices 1 2 3 4 5 6 
#
# 1 0.018637 -0.000012 -0.000965 -0.000001 -0.005440 -0.000003
# 2 -0.000012 0.010375 -0.002039 -0.000001 -0.010550 -0.000002
# 3 -0.000965 -0.002039 0.010671 0.000000 -0.000129 -0.000002
# 4 -0.000001 -0.000001 0.000000 0.016743 0.000002 -0.003566
# 5 -0.005440 -0.010550 -0.000129 0.000002 0.045814 0.000006
# 6 -0.000003 -0.000002 -0.000002 -0.003566 0.000006 -0.015463
#
#
# Mechanical properties :
#
#
# Convention : Reuss Voigt Hill
#
# Bulk Modulus (GPa) = 29.71725 42.42704 36.07215
# Shear Modulus (GPa) = 48.06480 21.51650 34.79065
#
# Velocity S-wave (km/s) = 4.31563 2.88746 3.67165
# Velocity P-wave (km/s) = 6.02893 5.24944 5.65264
#
# Compressibility (1/GPa) = 0.03365049
#
# Stress axis : x y z
#
# Youngs Moduli (GPa) = 53.65743 96.38654 93.71023
#
# Poissons Ratio (x) = 0.00114 0.09046
# Poissons Ratio (y) = 0.00064 0.19107
# Poissons Ratio (z) = 0.05180 0.19653
#
# Static dielectric constant tensor:
#      x y z
#    x 2.132610 0.000000 0.000090 
#    y 0.000000 1.980590 0.000000 
#    z 0.000090 0.000000 2.021530 
# 
# From -- ./inp_files/168201.got.cif
#   From: 2010.05.17/outbox.cif.g08.bks.cpg/sg15_85_cif.got.tgz:168201.got - 2010.06.03 18:47:42.
