data_PCOD9293014
_publ_section_title
;
Structure prediction by ZEFSAII (Michael W. Deem and Ramdas Pophale) SiO2 
 PCOD9293014
Probable space group: C 2/C
;
_chemical_formula_sum "Si O2"
_cell_formula_units_Z 48
_cell_length_a 12.212363
_cell_length_b 15.153909
_cell_length_c 12.887113
_cell_angle_alpha 90.000000
_cell_angle_beta 116.213060
_cell_angle_gamma 90.000000
_cell_volume 2139.679914
_symmetry_space_group_name_H-M "C 2/C"
_symmetry_group_IT_number 15
_symmetry_cell_setting 'monoclinic'
loop_
_space_group_symop_operation_xyz
x,y,z
-x,y,1/2-z
-x,-y,-z
x,-y,1/2+z
1/2+x,1/2+y,z
1/2-x,1/2+y,1/2-z
1/2-x,1/2-y,-z
1/2+x,1/2-y,1/2+z
loop_
_atom_site_type_symbol
_atom_site_label
_atom_site_fract_x
_atom_site_fract_y
_atom_site_fract_z
Si Si1 0.212181 0.969192 0.420715
Si Si2 0.858098 0.803696 0.231877
Si Si3 0.514711 0.438299 0.606977
Si Si4 0.717835 0.108407 0.327252
Si Si5 0.628779 0.732298 0.519376
Si Si6 0.581978 0.080872 0.069912
O O1 0.213189 0.887501 0.342832
O O2 0.264988 0.934954 0.553077
O O3 0.075287 0.004572 0.361366
O O4 0.290313 0.053654 0.425850
O O5 0.796815 0.713300 0.166428
O O6 0.846712 0.801589 0.352281
O O7 0.000000 0.805117 0.250000
O O8 0.500000 0.500000 0.500000
O O9 0.657403 0.419800 0.678921
O O10 0.452983 0.342766 0.566943
O O11 0.605867 0.083929 0.203646
O O12 0.750000 0.750000 0.500000
O O13 0.554850 0.823168 0.511717
O O14 0.500000 0.000000 0.000000
#
# Coordination Sequence:
#
# PCOD9293014 Si02
#       6
#     8   8   8   8   8   8
#     4  11  24  41  72 102 142 192 249 305 374 454
#     4  11  25  42  73 106 145 196 249 313 371 449
#     4  10  22  44  71 103 144 190 245 310 370 447
#     4  10  25  44  69 102 143 192 250 305 375 444
#     4  11  24  49  70 109 154 194 247 316 376 453
#     4  11  27  43  70 103 150 195 249 306 378 458
#
# _framework density 22.433261999999999
#
# number of rings (size 3 to 8) (size 9 to 14) (size 15 to 20)
#    0.000    1.333    1.667    2.500   14.000    0.000 
#    0.000    0.000    0.000    0.000    0.000    0.000 
#    0.000    0.000    0.000    0.000    0.000    0.000 
#
# Total GULP energy -133929.316330 kJ/mol
# GULP energy per Si atom -5580.388180 kJ/mol
# Density = 2.238220 g / cm^3
# Si number density = 22.433262 Si / 1000 Ang^3
#
#
#
# Elastic Constant Matrix: (Units=GPa)
#
#
# Indices 1 2 3 4 5 6 
#
# 1 59.0169 -5.8044 11.6408 0.0000 -11.4634 0.0000
# 2 -5.8044 145.4006 52.1336 0.0000 3.1530 0.0000
# 3 11.6408 52.1336 88.1289 0.0000 -10.8115 0.0000
# 4 0.0000 0.0000 0.0000 18.6502 0.0000 9.6457
# 5 -11.4634 3.1530 -10.8115 0.0000 31.6868 0.0000
# 6 0.0000 0.0000 0.0000 9.6457 0.0000 38.7546
#
#
#
# Elastic Compliance Matrix: (Units=1/GPa)
#
#
# Indices 1 2 3 4 5 6 
#
# 1 0.018745 0.001602 -0.002725 0.000000 0.005692 0.000000
# 2 0.001602 0.009101 -0.005882 0.000000 -0.002333 0.000000
# 3 -0.002725 -0.005882 0.015798 0.000000 0.004990 0.000000
# 4 0.000000 0.000000 0.000000 0.061540 0.000000 -0.015317
# 5 0.005692 -0.002333 0.004990 0.000000 0.035553 0.000000
# 6 0.000000 0.000000 0.000000 -0.015317 0.000000 0.029616
#
#
# Mechanical properties :
#
#
# Convention : Reuss Voigt Hill
#
# Bulk Modulus (GPa) = 33.74428 45.38735 39.56582
# Shear Modulus (GPa) = 25.74119 33.45675 29.59897
#
# Velocity S-wave (km/s) = 3.39109 3.86604 3.63633
# Velocity P-wave (km/s) = 5.51429 6.34070 5.94188
#
# Compressibility (1/GPa) = 0.02963465
#
# Stress axis : x y z
#
# Youngs Moduli (GPa) = 53.34733 109.87883 63.29740
#
# Poissons Ratio (x) = -0.17604 0.17251
# Poissons Ratio (y) = -0.08547 0.37229
# Poissons Ratio (z) = 0.14539 0.64626
#
# Static dielectric constant tensor:
#      x y z
#    x 1.732050 0.000000 0.026120 
#    y 0.000000 1.743550 0.000000 
#    z 0.026120 0.000000 1.868750 
# 
# From -- ./inp_files/144370.got.cif
#   From: 2010.05.17/outbox.cif.g08.bks.cpg/sg15_73_cif.got.tgz:144370.got - 2010.06.03 18:47:42.
