data_PCOD9293280
_publ_section_title
;
Structure prediction by ZEFSAII (Michael W. Deem and Ramdas Pophale) SiO2 
 PCOD9293280
Probable space group: C 2/C
;
_chemical_formula_sum "Si O2"
_cell_formula_units_Z 32
_cell_length_a 9.294671
_cell_length_b 10.340259
_cell_length_c 18.469272
_cell_angle_alpha 90.000000
_cell_angle_beta 133.442981
_cell_angle_gamma 90.000000
_cell_volume 1288.804826
_symmetry_space_group_name_H-M "C 2/C"
_symmetry_group_IT_number 15
_symmetry_cell_setting 'monoclinic'
loop_
_space_group_symop_operation_xyz
x,y,z
-x,y,1/2-z
-x,-y,-z
x,-y,1/2+z
1/2+x,1/2+y,z
1/2-x,1/2+y,1/2-z
1/2-x,1/2-y,-z
1/2+x,1/2-y,1/2+z
loop_
_atom_site_type_symbol
_atom_site_label
_atom_site_fract_x
_atom_site_fract_y
_atom_site_fract_z
Si Si1 0.365884 0.812660 0.944829
Si Si2 0.316677 0.523497 0.239477
Si Si3 0.570617 0.084065 0.882675
Si Si4 0.850486 0.102466 0.412847
O O1 0.322731 0.882664 0.855813
O O2 0.573089 0.737616 0.028758
O O3 0.191087 0.706459 0.893317
O O4 0.137920 0.586810 0.989860
O O5 0.500000 0.491519 0.250000
O O6 0.374743 0.588731 0.335163
O O7 0.166355 0.406446 0.205503
O O8 0.642345 0.955145 0.866511
O O9 0.000000 0.000000 0.500000
#
# Coordination Sequence:
#
# PCOD9293280 Si02
#       4
#     8   8   8   8
#     4  10  23  44  69  94 129 174 217 266 324 382
#     4  12  24  40  67 100 130 172 220 262 324 389
#     4  10  22  45  68  93 134 170 213 273 322 379
#     4  10  23  42  66  96 129 168 215 268 324 380
#
# _framework density 24.829205999999999
#
# number of rings (size 3 to 8) (size 9 to 14) (size 15 to 20)
#    0.000    1.500    0.000    6.000    0.000   11.000 
#    0.000    7.500    0.000    4.500    0.000    0.000 
#    0.000    0.000    0.000    0.000    0.000    0.000 
#
# Total GULP energy -89510.842188 kJ/mol
# GULP energy per Si atom -5594.427637 kJ/mol
# Density = 2.477269 g / cm^3
# Si number density = 24.829206 Si / 1000 Ang^3
#
#
#
# Elastic Constant Matrix: (Units=GPa)
#
#
# Indices 1 2 3 4 5 6 
#
# 1 152.8597 38.7337 45.4063 0.0000 14.3474 0.0000
# 2 38.7337 60.2952 38.6675 0.0000 1.3254 0.0000
# 3 45.4063 38.6675 121.4251 0.0000 -19.3969 0.0000
# 4 0.0000 0.0000 0.0000 34.8017 0.0000 6.4806
# 5 14.3474 1.3254 -19.3969 0.0000 59.2561 0.0000
# 6 0.0000 0.0000 0.0000 6.4806 0.0000 36.2588
#
#
#
# Elastic Compliance Matrix: (Units=1/GPa)
#
#
# Indices 1 2 3 4 5 6 
#
# 1 0.008487 -0.003864 -0.002382 0.000000 -0.002748 0.000000
# 2 -0.003864 0.023045 -0.006148 0.000000 -0.001593 0.000000
# 3 -0.002382 -0.006148 0.011816 0.000000 0.004582 0.000000
# 4 0.000000 0.000000 0.000000 0.029724 0.000000 -0.005313
# 5 -0.002748 -0.001593 0.004582 0.000000 0.019077 0.000000
# 6 0.000000 0.000000 0.000000 -0.005313 0.000000 0.028529
#
#
# Mechanical properties :
#
#
# Convention : Reuss Voigt Hill
#
# Bulk Modulus (GPa) = 53.88028 64.46611 59.17320
# Shear Modulus (GPa) = 32.97030 40.18149 36.57590
#
# Velocity S-wave (km/s) = 3.64797 4.02719 3.84226
# Velocity P-wave (km/s) = 6.28419 6.90250 6.60059
#
# Compressibility (1/GPa) = 0.01855966
#
# Stress axis : x y z
#
# Youngs Moduli (GPa) = 117.83399 43.39338 84.62978
#
# Poissons Ratio (x) = 0.16766 0.20160
# Poissons Ratio (y) = 0.45527 0.52032
# Poissons Ratio (z) = 0.28069 0.26679
#
# Static dielectric constant tensor:
#      x y z
#    x 2.092040 0.000000 0.050160 
#    y 0.000000 2.022750 0.000000 
#    z 0.050160 0.000000 1.961520 
# 
# From -- ./inp_files/230077.got.cif
#   From: 2010.05.17/outbox.cif.g08.bks.cpg/sg15_116_cif.got.tgz:230077.got - 2010.06.03 18:47:42.
