data_PCOD9293177
_publ_section_title
;
Structure prediction by ZEFSAII (Michael W. Deem and Ramdas Pophale) SiO2 
 PCOD9293177
Probable space group: C 2/C
;
_chemical_formula_sum "Si O2"
_cell_formula_units_Z 44
_cell_length_a 14.003402
_cell_length_b 28.176752
_cell_length_c 5.723403
_cell_angle_alpha 90.000000
_cell_angle_beta 123.475752
_cell_angle_gamma 90.000000
_cell_volume 1883.679447
_symmetry_space_group_name_H-M "C 2/C"
_symmetry_group_IT_number 15
_symmetry_cell_setting 'monoclinic'
loop_
_space_group_symop_operation_xyz
x,y,z
-x,y,1/2-z
-x,-y,-z
x,-y,1/2+z
1/2+x,1/2+y,z
1/2-x,1/2+y,1/2-z
1/2-x,1/2-y,-z
1/2+x,1/2-y,1/2+z
loop_
_atom_site_type_symbol
_atom_site_label
_atom_site_fract_x
_atom_site_fract_y
_atom_site_fract_z
Si Si1 0.191620 0.878880 0.684798
Si Si2 0.402303 0.874011 0.309183
Si Si3 0.500000 0.791541 0.750000
Si Si4 0.500000 0.355086 0.750000
Si Si5 0.616500 0.299613 0.274897
Si Si6 0.239214 0.522430 0.415401
Si Si7 0.500000 0.044049 0.250000
O O1 0.203014 0.831051 0.542708
O O2 0.219383 0.923588 0.560458
O O3 0.068992 0.884070 0.648964
O O4 0.284203 0.876706 0.014867
O O5 0.500000 0.877790 0.250000
O O6 0.430484 0.825523 0.483121
O O7 0.421913 0.919274 0.496839
O O8 0.402883 0.756831 0.734495
O O9 0.403844 0.320249 0.508422
O O10 0.500000 0.314116 0.250000
O O11 0.276449 0.502020 0.718909
O O12 0.099496 0.519032 0.232874
#
# Coordination Sequence:
#
# PCOD9293177 Si02
#       7
#     8   8   4   4   8   8   4
#     4  11  24  44  71 101 139 196 235 296 372 421
#     4  11  23  40  69 104 150 183 231 298 352 441
#     4   9  22  40  64 111 136 184 249 290 350 423
#     4  10  22  44  76  85 139 199 243 286 362 430
#     4   8  20  41  64  96 131 188 240 287 345 426
#     4  12  27  45  75 112 145 185 248 301 362 450
#     4  11  24  46  68 106 153 195 222 280 390 433
#
# _framework density 23.358540000000001
#
# number of rings (size 3 to 8) (size 9 to 14) (size 15 to 20)
#    0.545    1.091    1.818    1.636    6.364    0.727 
#    0.000    2.727    0.000    0.000    0.000    0.000 
#    0.000    0.000    0.000    0.000    0.000    0.000 
#
# Total GULP energy -122690.630694 kJ/mol
# GULP energy per Si atom -5576.846850 kJ/mol
# Density = 2.330537 g / cm^3
# Si number density = 23.358540 Si / 1000 Ang^3
#
#
#
# Elastic Constant Matrix: (Units=GPa)
#
#
# Indices 1 2 3 4 5 6 
#
# 1 98.8723 43.3492 6.4815 0.0000 -23.7866 0.0000
# 2 43.3492 124.5169 42.1549 0.0000 -11.0340 0.0000
# 3 6.4815 42.1549 112.5937 0.0000 -12.2375 0.0000
# 4 0.0000 0.0000 0.0000 -0.4993 0.0000 0.5132
# 5 -23.7866 -11.0340 -12.2375 0.0000 27.9524 0.0000
# 6 0.0000 0.0000 0.0000 0.5132 0.0000 38.3632
#
#
#
# Elastic Compliance Matrix: (Units=1/GPa)
#
#
# Indices 1 2 3 4 5 6 
#
# 1 0.014961 -0.004932 0.002265 0.000000 0.011776 0.000000
# 2 -0.004932 0.010957 -0.003994 0.000000 -0.001620 0.000000
# 3 0.002265 -0.003994 0.010799 0.000000 0.005078 0.000000
# 4 0.000000 0.000000 0.000000 -1.975547 0.000000 0.026428
# 5 0.011776 -0.001620 0.005078 0.000000 0.047380 0.000000
# 6 0.000000 0.000000 0.000000 0.026428 0.000000 0.025713
#
#
# Mechanical properties :
#
#
# Convention : Reuss Voigt Hill
#
# Bulk Modulus (GPa) = 42.74587 57.77265 50.25926
# Shear Modulus (GPa) = -2.71059 29.42975 13.35958
#
# Velocity S-wave (km/s) = -1.07840 3.55338 2.39411
# Velocity P-wave (km/s) = 4.09744 6.45151 5.40421
#
# Compressibility (1/GPa) = 0.02339407
#
# Stress axis : x y z
#
# Youngs Moduli (GPa) = 66.84072 91.26855 92.60512
#
# Poissons Ratio (x) = 0.45012 -0.20976
# Poissons Ratio (y) = 0.32965 0.36990
# Poissons Ratio (z) = -0.15140 0.36456
#
# Static dielectric constant tensor:
#      x y z
#    x 1.920170 0.000000 -0.006430 
#    y 0.000000 1.958990 0.000000 
#    z -0.006430 0.000000 1.975680 
# 
# From -- ./inp_files/8894.got.cif
#   From: 2010.05.17/outbox.cif.g08.bks.cpg/sg15_5_cif.got.tgz:8894.got - 2010.06.03 18:47:42.
