data_PCOD9293301
_publ_section_title
;
Structure prediction by ZEFSAII (Michael W. Deem and Ramdas Pophale) SiO2 
 PCOD9293301
Probable space group: C 2/C
;
_chemical_formula_sum "Si O2"
_cell_formula_units_Z 56
_cell_length_a 26.581631
_cell_length_b 11.360678
_cell_length_c 9.272991
_cell_angle_alpha 90.000000
_cell_angle_beta 115.299356
_cell_angle_gamma 90.000000
_cell_volume 2531.722539
_symmetry_space_group_name_H-M "C 2/C"
_symmetry_group_IT_number 15
_symmetry_cell_setting 'monoclinic'
loop_
_space_group_symop_operation_xyz
x,y,z
-x,y,1/2-z
-x,-y,-z
x,-y,1/2+z
1/2+x,1/2+y,z
1/2-x,1/2+y,1/2-z
1/2-x,1/2-y,-z
1/2+x,1/2-y,1/2+z
loop_
_atom_site_type_symbol
_atom_site_label
_atom_site_fract_x
_atom_site_fract_y
_atom_site_fract_z
Si Si1 0.608433 0.780793 0.710615
Si Si2 0.279547 0.517623 0.795727
Si Si3 0.540936 0.998018 0.180435
Si Si4 0.651103 0.612400 0.362406
Si Si5 0.456756 0.538320 0.824509
Si Si6 0.790348 0.596481 0.031223
Si Si7 0.362485 0.133527 0.578859
O O1 0.565720 0.872398 0.732262
O O2 0.581830 0.651630 0.685491
O O3 0.665993 0.802614 0.868990
O O4 0.616334 0.828681 0.555355
O O5 0.310347 0.439366 0.715035
O O6 0.247844 0.615035 0.657377
O O7 0.241649 0.444049 0.862206
O O8 0.326814 0.569942 0.956063
O O9 0.500000 0.953880 0.250000
O O10 0.591797 0.910152 0.250270
O O11 0.500000 0.000000 0.000000
O O12 0.587814 0.566017 0.264726
O O13 0.661322 0.750712 0.379374
O O14 0.500000 0.567172 0.750000
O O15 0.500000 0.500000 0.000000
O O16 0.822778 0.478426 0.019660
#
# Coordination Sequence:
#
# PCOD9293301 Si02
#       7
#     8   8   8   8   8   8   8
#     4  11  23  43  69 106 140 176 238 283 347 422
#     4  10  22  45  71  99 140 182 224 292 345 421
#     4  11  23  41  66 102 133 177 231 289 352 408
#     4  11  25  47  67 104 137 182 245 273 348 430
#     4  12  27  49  73 100 144 194 236 295 346 411
#     4  10  22  45  69 104 139 177 227 287 361 409
#     4  11  23  41  70  98 140 180 226 292 343 427
#
# _framework density 22.119327999999999
#
# number of rings (size 3 to 8) (size 9 to 14) (size 15 to 20)
#    0.000    1.143    2.857    3.000    2.000    2.857 
#   12.857    2.143    0.000    0.000    0.000    0.000 
#    0.000    0.000    0.000    0.000    0.000    0.000 
#
# Total GULP energy -156325.441787 kJ/mol
# GULP energy per Si atom -5583.051492 kJ/mol
# Density = 2.206898 g / cm^3
# Si number density = 22.119328 Si / 1000 Ang^3
#
#
#
# Elastic Constant Matrix: (Units=GPa)
#
#
# Indices 1 2 3 4 5 6 
#
# 1 74.7015 9.3261 27.9370 0.0000 -1.8483 0.0000
# 2 9.3261 74.2525 18.6113 0.0000 -6.7268 0.0000
# 3 27.9370 18.6113 172.0766 0.0000 17.4500 0.0000
# 4 0.0000 0.0000 0.0000 10.7389 0.0000 13.6914
# 5 -1.8483 -6.7268 17.4500 0.0000 30.8910 0.0000
# 6 0.0000 0.0000 0.0000 13.6914 0.0000 12.5058
#
#
#
# Elastic Compliance Matrix: (Units=1/GPa)
#
#
# Indices 1 2 3 4 5 6 
#
# 1 0.014479 -0.001022 -0.002445 0.000000 0.002025 0.000000
# 2 -0.001022 0.014421 -0.001810 0.000000 0.004101 0.000000
# 3 -0.002445 -0.001810 0.006851 0.000000 -0.004411 0.000000
# 4 0.000000 0.000000 0.000000 -0.235271 0.000000 0.257575
# 5 0.002025 0.004101 -0.004411 0.000000 0.035878 0.000000
# 6 0.000000 0.000000 0.000000 0.257575 0.000000 -0.202030
#
#
# Mechanical properties :
#
#
# Convention : Reuss Voigt Hill
#
# Bulk Modulus (GPa) = 39.68771 48.08661 43.88716
# Shear Modulus (GPa) = -14.42094 28.50423 7.04165
#
# Velocity S-wave (km/s) = -2.55612 3.59368 1.78617
# Velocity P-wave (km/s) = 3.04464 6.24550 4.91305
#
# Compressibility (1/GPa) = 0.02519672
#
# Stress axis : x y z
#
# Youngs Moduli (GPa) = 69.06605 69.34283 145.95533
#
# Poissons Ratio (x) = 0.07088 0.35693
# Poissons Ratio (y) = 0.07059 0.26414
# Poissons Ratio (z) = 0.16890 0.12549
#
# Static dielectric constant tensor:
#      x y z
#    x -1.441860 0.000000 -0.903340 
#    y 0.000000 1.804440 0.000000 
#    z -0.903340 0.000000 1.631130 
# 
# From -- ./inp_files/69444.got.cif
#   From: 2010.05.17/outbox.cif.g08.bks.cpg/sg15_35_cif.got.tgz:69444.got - 2010.06.03 18:47:42.
