data_PCOD9293600
_publ_section_title
;
Structure prediction by ZEFSAII (Michael W. Deem and Ramdas Pophale) SiO2 
 PCOD9293600
Probable space group: C 2/C
;
_chemical_formula_sum "Si O2"
_cell_formula_units_Z 32
_cell_length_a 13.710316
_cell_length_b 16.917067
_cell_length_c 5.400938
_cell_angle_alpha 90.000000
_cell_angle_beta 73.205322
_cell_angle_gamma 90.000000
_cell_volume 1199.252983
_symmetry_space_group_name_H-M "C 2/C"
_symmetry_group_IT_number 15
_symmetry_cell_setting 'monoclinic'
loop_
_space_group_symop_operation_xyz
x,y,z
-x,y,1/2-z
-x,-y,-z
x,-y,1/2+z
1/2+x,1/2+y,z
1/2-x,1/2+y,1/2-z
1/2-x,1/2-y,-z
1/2+x,1/2-y,1/2+z
loop_
_atom_site_type_symbol
_atom_site_label
_atom_site_fract_x
_atom_site_fract_y
_atom_site_fract_z
Si Si1 0.313996 0.149485 0.733241
Si Si2 0.000000 0.820896 0.250000
Si Si3 0.680727 0.447301 0.028057
Si Si4 0.000000 0.548898 0.750000
Si Si5 0.107798 0.197198 0.119165
O O1 0.281662 0.105950 0.504247
O O2 0.398488 0.100233 0.810464
O O3 0.357541 0.238469 0.706750
O O4 0.209410 0.153104 0.967907
O O5 0.911167 0.883908 0.394329
O O6 0.063680 0.766314 0.394868
O O7 0.676143 0.504290 0.275025
O O8 0.000000 0.500000 0.500000
O O9 0.000000 0.152942 0.250000
#
# Coordination Sequence:
#
# PCOD9293600 Si02
#       5
#     8   4   8   4   8
#     4  10  23  45  71 106 142 196 253 304 377 445
#     4  10  24  39  70 103 138 190 240 304 378 440
#     4  11  24  43  68 102 141 186 240 299 363 440
#     4  12  26  49  76 107 150 200 252 308 368 456
#     4  10  22  46  70 104 146 193 248 316 375 445
#
# _framework density 26.683278999999999
#
# number of rings (size 3 to 8) (size 9 to 14) (size 15 to 20)
#    0.000    1.500    1.250    2.250    7.000    1.000 
#    9.000    3.750    0.000    0.000    0.000    0.000 
#    0.000    0.000    0.000    0.000    0.000    0.000 
#
# Total GULP energy -89324.297776 kJ/mol
# GULP energy per Si atom -5582.768611 kJ/mol
# Density = 2.662255 g / cm^3
# Si number density = 26.683279 Si / 1000 Ang^3
#
#
#
# Elastic Constant Matrix: (Units=GPa)
#
#
# Indices 1 2 3 4 5 6 
#
# 1 238.7832 53.4503 47.4977 0.0000 1.9513 0.0000
# 2 53.4503 99.9735 50.7453 0.0000 15.8437 0.0000
# 3 47.4977 50.7453 129.4605 0.0000 26.4093 0.0000
# 4 0.0000 0.0000 0.0000 54.4452 0.0000 31.1881
# 5 1.9513 15.8437 26.4093 0.0000 56.1835 0.0000
# 6 0.0000 0.0000 0.0000 31.1881 0.0000 55.2740
#
#
#
# Elastic Compliance Matrix: (Units=1/GPa)
#
#
# Indices 1 2 3 4 5 6 
#
# 1 0.004898 -0.002198 -0.001136 0.000000 0.000984 0.000000
# 2 -0.002198 0.013567 -0.004144 0.000000 -0.001802 0.000000
# 3 -0.001136 -0.004144 0.010529 0.000000 -0.003741 0.000000
# 4 0.000000 0.000000 0.000000 0.027139 0.000000 -0.015313
# 5 0.000984 -0.001802 -0.003741 0.000000 0.020031 0.000000
# 6 0.000000 0.000000 0.000000 -0.015313 0.000000 0.026732
#
#
# Mechanical properties :
#
#
# Convention : Reuss Voigt Hill
#
# Bulk Modulus (GPa) = 71.23846 85.73379 78.48612
# Shear Modulus (GPa) = 40.80633 54.28214 47.54423
#
# Velocity S-wave (km/s) = 3.91485 4.51523 4.22572
# Velocity P-wave (km/s) = 6.86953 7.70603 7.29978
#
# Compressibility (1/GPa) = 0.01403736
#
# Stress axis : x y z
#
# Youngs Moduli (GPa) = 204.17229 73.71045 94.97879
#
# Poissons Ratio (x) = 0.16200 0.10791
# Poissons Ratio (y) = 0.44873 0.39358
# Poissons Ratio (z) = 0.23197 0.30545
#
# Static dielectric constant tensor:
#      x y z
#    x 1.994100 0.000000 -0.054660 
#    y 0.000000 2.115920 0.000000 
#    z -0.054660 0.000000 2.608220 
# 
# From -- ./inp_files/6515.got.cif
#   From: 2010.05.17/outbox.cif.g08.bks.cpg/sg15_4_cif.got.tgz:6515.got - 2010.06.03 18:47:42.
