data_PCOD9293505
_publ_section_title
;
Structure prediction by ZEFSAII (Michael W. Deem and Ramdas Pophale) SiO2 
 PCOD9293505
Probable space group: C 2/C
;
_chemical_formula_sum "Si O2"
_cell_formula_units_Z 48
_cell_length_a 23.243824
_cell_length_b 13.040928
_cell_length_c 13.316062
_cell_angle_alpha 90.000000
_cell_angle_beta 32.965989
_cell_angle_gamma 90.000000
_cell_volume 2196.359440
_symmetry_space_group_name_H-M "C 2/C"
_symmetry_group_IT_number 15
_symmetry_cell_setting 'monoclinic'
loop_
_space_group_symop_operation_xyz
x,y,z
-x,y,1/2-z
-x,-y,-z
x,-y,1/2+z
1/2+x,1/2+y,z
1/2-x,1/2+y,1/2-z
1/2-x,1/2-y,-z
1/2+x,1/2-y,1/2+z
loop_
_atom_site_type_symbol
_atom_site_label
_atom_site_fract_x
_atom_site_fract_y
_atom_site_fract_z
Si Si1 0.118182 0.998464 0.873767
Si Si2 0.627189 0.225044 0.193408
Si Si3 0.419504 0.278329 0.009443
Si Si4 0.799126 0.489109 0.941194
Si Si5 0.610751 0.582816 0.581725
Si Si6 0.640902 0.790075 0.115785
O O1 0.213421 0.998952 0.655947
O O2 0.125163 0.106750 0.921435
O O3 0.129062 0.906014 0.936476
O O4 0.000000 0.000000 0.000000
O O5 0.597016 0.234684 0.354176
O O6 0.622820 0.108104 0.163323
O O7 0.584319 0.317809 0.188517
O O8 0.750000 0.250000 0.000000
O O9 0.366242 0.219133 0.994434
O O10 0.543912 0.274670 0.802484
O O11 0.865836 0.592368 0.839551
O O12 0.717307 0.467765 0.969357
O O13 0.500000 0.520051 0.750000
O O14 0.750000 0.750000 0.000000
#
# Coordination Sequence:
#
# PCOD9293505 Si02
#       6
#     8   8   8   8   8   8
#     4  12  22  38  70 103 137 177 233 295 352 411
#     4  10  22  46  66 101 137 178 238 290 344 421
#     4  11  24  47  71  98 149 183 228 298 349 426
#     4  11  24  42  67 101 136 184 237 281 357 428
#     4  11  22  40  68 102 133 175 235 297 343 407
#     4  11  26  45  69 106 143 188 230 287 369 425
#
# _framework density 21.854347000000001
#
# number of rings (size 3 to 8) (size 9 to 14) (size 15 to 20)
#    0.000    1.000    5.000    2.000    7.000    0.667 
#    3.000    0.000    0.000    0.000    0.000    0.000 
#    0.000    0.000    0.000    0.000    0.000    0.000 
#
# Total GULP energy -133931.302386 kJ/mol
# GULP energy per Si atom -5580.470933 kJ/mol
# Density = 2.180461 g / cm^3
# Si number density = 21.854347 Si / 1000 Ang^3
#
#
#
# Elastic Constant Matrix: (Units=GPa)
#
#
# Indices 1 2 3 4 5 6 
#
# 1 123.3214 4.8617 36.2524 0.0000 18.6634 0.0000
# 2 4.8617 75.8277 -5.1978 0.0000 12.6094 0.0000
# 3 36.2524 -5.1978 98.4859 0.0000 24.4691 0.0000
# 4 0.0000 0.0000 0.0000 30.4424 0.0000 1.8885
# 5 18.6634 12.6094 24.4691 0.0000 38.1054 0.0000
# 6 0.0000 0.0000 0.0000 1.8885 0.0000 20.0698
#
#
#
# Elastic Compliance Matrix: (Units=1/GPa)
#
#
# Indices 1 2 3 4 5 6 
#
# 1 0.009348 -0.000347 -0.002797 0.000000 -0.002668 0.000000
# 2 -0.000347 0.014397 0.002414 0.000000 -0.006144 0.000000
# 3 -0.002797 0.002414 0.013289 0.000000 -0.007963 0.000000
# 4 0.000000 0.000000 0.000000 0.033042 0.000000 -0.003109
# 5 -0.002668 -0.006144 -0.007963 0.000000 0.034696 0.000000
# 6 0.000000 0.000000 0.000000 -0.003109 0.000000 0.050119
#
#
# Mechanical properties :
#
#
# Convention : Reuss Voigt Hill
#
# Bulk Modulus (GPa) = 28.10946 41.05197 34.58072
# Shear Modulus (GPa) = 29.72490 35.17143 32.44817
#
# Velocity S-wave (km/s) = 3.69200 4.01603 3.85742
# Velocity P-wave (km/s) = 5.57357 6.35057 5.97471
#
# Compressibility (1/GPa) = 0.03557521
#
# Stress axis : x y z
#
# Youngs Moduli (GPa) = 106.96943 69.45746 75.25065
#
# Poissons Ratio (x) = 0.02413 0.21045
# Poissons Ratio (y) = 0.03717 -0.18168
# Poissons Ratio (z) = 0.29915 -0.16769
#
# Static dielectric constant tensor:
#      x y z
#    x 1.863920 0.000000 0.016120 
#    y 0.000000 1.929980 0.000000 
#    z 0.016120 0.000000 1.795560 
# 
# From -- ./inp_files/112929.got.cif
#   From: 2010.05.17/outbox.cif.g08.bks.cpg/sg15_57_cif.got.tgz:112929.got - 2010.06.03 18:47:42.
