data_PCOD9293291
_publ_section_title
;
Structure prediction by ZEFSAII (Michael W. Deem and Ramdas Pophale) SiO2 
 PCOD9293291
Probable space group: C 2/C
;
_chemical_formula_sum "Si O2"
_cell_formula_units_Z 48
_cell_length_a 7.897845
_cell_length_b 11.761326
_cell_length_c 22.660489
_cell_angle_alpha 90.000000
_cell_angle_beta 73.269943
_cell_angle_gamma 90.000000
_cell_volume 2015.815532
_symmetry_space_group_name_H-M "C 2/C"
_symmetry_group_IT_number 15
_symmetry_cell_setting 'monoclinic'
loop_
_space_group_symop_operation_xyz
x,y,z
-x,y,1/2-z
-x,-y,-z
x,-y,1/2+z
1/2+x,1/2+y,z
1/2-x,1/2+y,1/2-z
1/2-x,1/2-y,-z
1/2+x,1/2-y,1/2+z
loop_
_atom_site_type_symbol
_atom_site_label
_atom_site_fract_x
_atom_site_fract_y
_atom_site_fract_z
Si Si1 0.077369 0.147984 0.873136
Si Si2 0.416306 0.376520 0.997650
Si Si3 0.108290 0.637361 0.315461
Si Si4 0.212427 0.088178 0.312304
Si Si5 0.170222 0.286624 0.402446
Si Si6 0.368816 0.035051 0.064667
O O1 0.136369 0.226281 0.812168
O O2 0.873853 0.189811 0.901661
O O3 0.105815 0.017757 0.849293
O O4 0.163127 0.154305 0.930089
O O5 0.556777 0.281002 0.963068
O O6 0.285810 0.405799 0.957577
O O7 0.500000 0.500000 0.000000
O O8 0.264493 0.585636 0.260518
O O9 0.102364 0.620156 0.385519
O O10 0.918166 0.592150 0.313029
O O11 0.148228 0.206877 0.347367
O O12 0.123193 0.417186 0.398880
O O13 0.500000 0.000000 0.000000
#
# Coordination Sequence:
#
# PCOD9293291 Si02
#       6
#     8   8   8   8   8   8
#     4  11  22  42  72  96 135 182 229 283 348 427
#     4  12  23  41  67 102 138 182 229 287 353 422
#     4  10  25  42  67 100 137 180 229 291 355 424
#     4  10  22  45  68  99 133 181 235 287 353 419
#     4  11  23  41  69  99 133 183 230 281 350 425
#     4  12  26  41  66 105 141 178 234 295 356 424
#
# _framework density 23.811702
#
# number of rings (size 3 to 8) (size 9 to 14) (size 15 to 20)
#    0.000    1.000    3.333    2.500    4.667    4.000 
#    0.000    2.500    0.000    0.000    0.000    0.000 
#    0.000    0.000    0.000    0.000    0.000    0.000 
#
# Total GULP energy -133689.469939 kJ/mol
# GULP energy per Si atom -5570.394581 kJ/mol
# Density = 2.375751 g / cm^3
# Si number density = 23.811702 Si / 1000 Ang^3
#
#
#
# Elastic Constant Matrix: (Units=GPa)
#
#
# Indices 1 2 3 4 5 6 
#
# 1 48.6186 30.6804 17.0133 0.0000 -1.0967 0.0000
# 2 30.6804 139.3508 8.0955 0.0000 -10.9383 0.0000
# 3 17.0133 8.0955 87.9064 0.0000 -14.9274 0.0000
# 4 0.0000 0.0000 0.0000 8.3132 0.0000 12.5962
# 5 -1.0967 -10.9383 -14.9274 0.0000 21.5239 0.0000
# 6 0.0000 0.0000 0.0000 12.5962 0.0000 31.2671
#
#
#
# Elastic Compliance Matrix: (Units=1/GPa)
#
#
# Indices 1 2 3 4 5 6 
#
# 1 0.026027 -0.005839 -0.005416 0.000000 -0.005398 0.000000
# 2 -0.005839 0.008785 0.001166 0.000000 0.004975 0.000000
# 3 -0.005416 0.001166 0.014022 0.000000 0.010041 0.000000
# 4 0.000000 0.000000 0.000000 0.308763 0.000000 -0.124388
# 5 -0.005398 0.004975 0.010041 0.000000 0.055677 0.000000
# 6 0.000000 0.000000 0.000000 -0.124388 0.000000 0.082093
#
#
# Mechanical properties :
#
#
# Convention : Reuss Voigt Hill
#
# Bulk Modulus (GPa) = 34.89873 43.05048 38.97460
# Shear Modulus (GPa) = 9.52208 26.89330 18.20769
#
# Velocity S-wave (km/s) = 2.00190 3.36432 2.76824
# Velocity P-wave (km/s) = 4.47564 5.76284 5.15954
#
# Compressibility (1/GPa) = 0.02865434
#
# Stress axis : x y z
#
# Youngs Moduli (GPa) = 38.42236 113.83633 71.31846
#
# Poissons Ratio (x) = 0.66472 0.38626
# Poissons Ratio (y) = 0.22436 -0.08316
# Poissons Ratio (z) = 0.20809 -0.13273
#
# Static dielectric constant tensor:
#      x y z
#    x 2.004750 0.000000 0.058570 
#    y 0.000000 2.106440 0.000000 
#    z 0.058570 0.000000 2.201310 
# 
# From -- ./inp_files/263505.got.cif
#   From: 2010.05.17/outbox.cif.g08.bks.cpg/sg15_132_cif.got.tgz:263505.got - 2010.06.03 18:47:42.
