data_PCOD9293593
_publ_section_title
;
Structure prediction by ZEFSAII (Michael W. Deem and Ramdas Pophale) SiO2 
 PCOD9293593
Probable space group: C 2/C
;
_chemical_formula_sum "Si O2"
_cell_formula_units_Z 48
_cell_length_a 6.438909
_cell_length_b 12.929856
_cell_length_c 33.407474
_cell_angle_alpha 90.000000
_cell_angle_beta 57.696850
_cell_angle_gamma 90.000000
_cell_volume 2350.854654
_symmetry_space_group_name_H-M "C 2/C"
_symmetry_group_IT_number 15
_symmetry_cell_setting 'monoclinic'
loop_
_space_group_symop_operation_xyz
x,y,z
-x,y,1/2-z
-x,-y,-z
x,-y,1/2+z
1/2+x,1/2+y,z
1/2-x,1/2+y,1/2-z
1/2-x,1/2-y,-z
1/2+x,1/2-y,1/2+z
loop_
_atom_site_type_symbol
_atom_site_label
_atom_site_fract_x
_atom_site_fract_y
_atom_site_fract_z
Si Si1 0.974826 0.719375 0.541014
Si Si2 0.458768 0.878122 0.922547
Si Si3 0.985335 0.494733 0.337867
Si Si4 0.000000 0.500000 0.000000
Si Si5 0.601895 0.783869 0.118602
Si Si6 0.755085 0.642116 0.294905
Si Si7 0.500000 0.518941 0.250000
O O1 0.797827 0.816487 0.551457
O O2 0.250000 0.750000 0.500000
O O3 0.908136 0.616725 0.523656
O O4 0.983894 0.698957 0.587398
O O5 0.666063 0.791609 0.909027
O O6 0.504331 0.930724 0.874579
O O7 0.471339 0.963743 0.955749
O O8 0.841409 0.393181 0.366879
O O9 0.844845 0.555789 0.317387
O O10 0.256423 0.464703 0.293103
O O11 0.406600 0.724722 0.165859
O O12 0.601010 0.588978 0.275671
O O13 0.000000 0.688335 0.250000
#
# Coordination Sequence:
#
# PCOD9293593 Si02
#       7
#     8   8   8   4   8   8   4
#     4  12  27  46  69 102 139 184 234 287 349 406
#     4  12  26  46  69 104 139 182 239 287 342 414
#     4  11  24  44  69 102 139 180 225 284 341 416
#     4  12  26  46  70 100 140 186 228 294 344 412
#     4  12  25  43  71 101 136 187 228 280 346 411
#     4  10  23  46  68 101 140 176 226 287 341 417
#     4  10  22  46  70 100 142 174 224 282 350 412
#
# _framework density 20.418106000000002
#
# number of rings (size 3 to 8) (size 9 to 14) (size 15 to 20)
#    0.000    0.667    6.667    0.500    1.167    4.667 
#    4.500    0.000    0.000    0.000    0.000    0.000 
#    0.000    0.000    0.000    0.000    0.000    0.000 
#
# Total GULP energy -133632.909196 kJ/mol
# GULP energy per Si atom -5568.037883 kJ/mol
# Density = 2.037163 g / cm^3
# Si number density = 20.418106 Si / 1000 Ang^3
#
#
#
# Elastic Constant Matrix: (Units=GPa)
#
#
# Indices 1 2 3 4 5 6 
#
# 1 74.8304 18.2366 39.1109 0.0000 13.8390 0.0000
# 2 18.2366 74.5957 24.5820 0.0000 1.0277 0.0001
# 3 39.1109 24.5820 101.7311 -0.0001 22.7908 0.0001
# 4 0.0000 0.0000 -0.0001 30.0808 0.0001 14.8128
# 5 13.8390 1.0277 22.7908 0.0001 43.7089 -0.0001
# 6 0.0000 0.0001 0.0001 14.8128 -0.0001 15.3492
#
#
#
# Elastic Compliance Matrix: (Units=1/GPa)
#
#
# Indices 1 2 3 4 5 6 
#
# 1 0.017290 -0.002379 -0.005501 0.000000 -0.002550 0.000000
# 2 -0.002379 0.015004 -0.003171 0.000000 0.002054 0.000000
# 3 -0.005501 -0.003171 0.013931 0.000000 -0.005448 0.000000
# 4 0.000000 0.000000 0.000000 0.063349 0.000000 -0.061135
# 5 -0.002550 0.002054 -0.005448 0.000000 0.026478 0.000000
# 6 0.000000 0.000000 0.000000 -0.061135 0.000000 0.124148
#
#
# Mechanical properties :
#
#
# Convention : Reuss Voigt Hill
#
# Bulk Modulus (GPa) = 41.45383 46.11290 43.78336
# Shear Modulus (GPa) = 17.22091 29.10963 23.16527
#
# Velocity S-wave (km/s) = 2.90731 3.77991 3.37196
# Velocity P-wave (km/s) = 5.62285 6.45629 6.05393
#
# Compressibility (1/GPa) = 0.02412323
#
# Stress axis : x y z
#
# Youngs Moduli (GPa) = 57.83638 66.64943 71.77988
#
# Poissons Ratio (x) = 0.15856 0.39487
# Poissons Ratio (y) = 0.13759 0.22761
# Poissons Ratio (z) = 0.31816 0.21135
#
# Static dielectric constant tensor:
#      x y z
#    x 1.728410 0.000000 -0.023550 
#    y 0.000000 1.687070 0.000000 
#    z -0.023550 0.000000 1.731700 
# 
# From -- ./inp_files/305319.got.cif
#   From: 2010.05.17/outbox.cif.g08.bks.cpg/sg15_153_cif.got.tgz:305319.got - 2010.06.03 18:47:42.
