data_PCOD9293020
_publ_section_title
;
Structure prediction by ZEFSAII (Michael W. Deem and Ramdas Pophale) SiO2 
 PCOD9293020
Probable space group: C 2/C
;
_chemical_formula_sum "Si O2"
_cell_formula_units_Z 40
_cell_length_a 8.259327
_cell_length_b 11.565882
_cell_length_c 18.068352
_cell_angle_alpha 90.000000
_cell_angle_beta 90.838289
_cell_angle_gamma 90.000000
_cell_volume 1725.819913
_symmetry_space_group_name_H-M "C 2/C"
_symmetry_group_IT_number 15
_symmetry_cell_setting 'monoclinic'
loop_
_space_group_symop_operation_xyz
x,y,z
-x,y,1/2-z
-x,-y,-z
x,-y,1/2+z
1/2+x,1/2+y,z
1/2-x,1/2+y,1/2-z
1/2-x,1/2-y,-z
1/2+x,1/2-y,1/2+z
loop_
_atom_site_type_symbol
_atom_site_label
_atom_site_fract_x
_atom_site_fract_y
_atom_site_fract_z
Si Si1 0.116055 0.550487 0.065433
Si Si2 0.613901 0.224408 0.380364
Si Si3 0.336011 0.471784 0.843891
Si Si4 0.314281 0.449484 0.186845
Si Si5 0.093923 0.883605 0.024504
O O1 0.196750 0.452038 0.115679
O O2 0.019326 0.624790 0.124608
O O3 0.261027 0.629066 0.032871
O O4 0.000000 0.500000 0.000000
O O5 0.775699 0.147090 0.379757
O O6 0.624424 0.317603 0.315427
O O7 0.543034 0.291148 0.452929
O O8 0.528729 0.472470 0.830827
O O9 0.255264 0.504877 0.765119
O O10 0.313387 0.577899 0.899991
O O11 0.000000 0.000000 0.000000
#
# Coordination Sequence:
#
# PCOD9293020 Si02
#       5
#     8   8   8   8   8
#     4  12  24  42  67 105 134 175 227 273 331 412
#     4  11  24  44  73  93 139 182 215 281 348 377
#     4  10  22  44  71  94 134 178 224 275 334 398
#     4  10  25  46  65  99 137 172 229 278 325 408
#     4  11  22  44  66 100 137 171 224 279 326 407
#
# _framework density 23.177389999999999
#
# number of rings (size 3 to 8) (size 9 to 14) (size 15 to 20)
#    0.000    1.200    6.000    0.600    0.000   10.400 
#    3.600    4.000    0.000    0.000    0.000    0.000 
#    0.000    0.000    0.000    0.000    0.000    0.000 
#
# Total GULP energy -111418.523085 kJ/mol
# GULP energy per Si atom -5570.926154 kJ/mol
# Density = 2.312464 g / cm^3
# Si number density = 23.177390 Si / 1000 Ang^3
#
#
#
# Elastic Constant Matrix: (Units=GPa)
#
#
# Indices 1 2 3 4 5 6 
#
# 1 73.7116 41.3368 32.8702 0.0000 -2.1544 0.0000
# 2 41.3368 94.9259 22.6123 0.0000 -8.1522 0.0000
# 3 32.8702 22.6123 116.6397 0.0000 16.0747 0.0000
# 4 0.0000 0.0000 0.0000 23.2097 0.0000 -16.0976
# 5 -2.1544 -8.1522 16.0747 0.0000 42.4343 0.0000
# 6 0.0000 0.0000 0.0000 -16.0976 0.0000 44.1858
#
#
#
# Elastic Compliance Matrix: (Units=1/GPa)
#
#
# Indices 1 2 3 4 5 6 
#
# 1 0.019683 -0.007454 -0.004265 0.000000 0.001183 0.000000
# 2 -0.007454 0.014266 -0.001045 0.000000 0.002758 0.000000
# 3 -0.004265 -0.001045 0.010588 0.000000 -0.004428 0.000000
# 4 0.000000 0.000000 0.000000 0.057653 0.000000 0.021004
# 5 0.001183 0.002758 -0.004428 0.000000 0.025833 0.000000
# 6 0.000000 0.000000 0.000000 0.021004 0.000000 0.030284
#
#
# Mechanical properties :
#
#
# Convention : Reuss Voigt Hill
#
# Bulk Modulus (GPa) = 52.60501 53.21287 52.90894
# Shear Modulus (GPa) = 26.29204 34.52981 30.41092
#
# Velocity S-wave (km/s) = 3.37171 3.86399 3.62621
# Velocity P-wave (km/s) = 6.15661 6.55103 6.35688
#
# Compressibility (1/GPa) = 0.01900960
#
# Stress axis : x y z
#
# Youngs Moduli (GPa) = 50.80606 70.09576 94.44464
#
# Poissons Ratio (x) = 0.52247 0.40279
# Poissons Ratio (y) = 0.37869 0.09873
# Poissons Ratio (z) = 0.21668 0.07327
#
# Static dielectric constant tensor:
#      x y z
#    x 1.982030 0.000000 0.010150 
#    y 0.000000 1.884840 0.000000 
#    z 0.010150 0.000000 1.956260 
# 
# From -- ./inp_files/187880.got.cif
#   From: 2010.05.17/outbox.cif.g08.bks.cpg/sg15_94_cif.got.tgz:187880.got - 2010.06.03 18:47:42.
