data_PCOD9293184
_publ_section_title
;
Structure prediction by ZEFSAII (Michael W. Deem and Ramdas Pophale) SiO2 
 PCOD9293184
Probable space group: C 2/C
;
_chemical_formula_sum "Si O2"
_cell_formula_units_Z 48
_cell_length_a 15.719103
_cell_length_b 18.716008
_cell_length_c 12.285794
_cell_angle_alpha 90.000000
_cell_angle_beta 147.391857
_cell_angle_gamma 90.000000
_cell_volume 1947.801730
_symmetry_space_group_name_H-M "C 2/C"
_symmetry_group_IT_number 15
_symmetry_cell_setting 'monoclinic'
loop_
_space_group_symop_operation_xyz
x,y,z
-x,y,1/2-z
-x,-y,-z
x,-y,1/2+z
1/2+x,1/2+y,z
1/2-x,1/2+y,1/2-z
1/2-x,1/2-y,-z
1/2+x,1/2-y,1/2+z
loop_
_atom_site_type_symbol
_atom_site_label
_atom_site_fract_x
_atom_site_fract_y
_atom_site_fract_z
Si Si1 0.172177 0.424458 0.093150
Si Si2 0.810369 0.170411 0.548655
Si Si3 0.317035 0.144216 0.669794
Si Si4 0.500000 0.500000 0.500000
Si Si5 0.500000 0.027474 0.750000
Si Si6 0.935560 0.245438 0.038301
Si Si7 0.159552 0.154833 0.159798
O O1 0.231035 0.376123 0.056442
O O2 0.122156 0.379075 0.144195
O O3 0.328104 0.463404 0.303960
O O4 0.050226 0.479431 0.906988
O O5 0.750000 0.250000 0.500000
O O6 0.770232 0.144042 0.384753
O O7 0.000000 0.164829 0.750000
O O8 0.356571 0.079005 0.632995
O O9 0.142363 0.175913 0.490117
O O10 0.419719 0.213332 0.752383
O O11 0.414128 0.579905 0.384871
O O12 0.800466 0.304861 0.874424
O O13 0.013880 0.211844 0.012189
#
# Coordination Sequence:
#
# PCOD9293184 Si02
#       7
#     8   8   8   4   4   8   8
#     4  12  28  45  72 107 152 192 238 301 371 438
#     4  12  24  40  66 108 143 186 242 293 364 439
#     4  11  24  49  71 109 138 192 248 298 368 428
#     4  12  24  46  68 106 150 196 236 304 356 440
#     4  12  30  46  74 106 148 194 242 302 366 438
#     4  10  22  44  77 100 145 193 242 310 354 436
#     4  11  22  40  69 103 145 192 239 294 366 433
#
# _framework density 24.643163999999999
#
# number of rings (size 3 to 8) (size 9 to 14) (size 15 to 20)
#    0.000    0.667    3.333    4.500    5.833    0.667 
#    0.000    0.000    0.000    0.000    0.000    0.000 
#    0.000    0.000    0.000    0.000    0.000    0.000 
#
# Total GULP energy -133716.795288 kJ/mol
# GULP energy per Si atom -5571.533137 kJ/mol
# Density = 2.458708 g / cm^3
# Si number density = 24.643164 Si / 1000 Ang^3
#
#
#
# Elastic Constant Matrix: (Units=GPa)
#
#
# Indices 1 2 3 4 5 6 
#
# 1 109.5487 34.1362 1.1700 0.0000 -1.4248 0.0000
# 2 34.1362 129.1733 13.3588 0.0000 19.1194 0.0000
# 3 1.1700 13.3588 65.3435 0.0000 8.3434 0.0000
# 4 0.0000 0.0000 0.0000 41.9468 0.0000 10.0682
# 5 -1.4248 19.1194 8.3434 0.0000 21.2833 0.0000
# 6 0.0000 0.0000 0.0000 10.0682 0.0000 21.1419
#
#
#
# Elastic Compliance Matrix: (Units=1/GPa)
#
#
# Indices 1 2 3 4 5 6 
#
# 1 0.010178 -0.003220 0.000021 0.000000 0.003565 0.000000
# 2 -0.003220 0.009992 -0.000854 0.000000 -0.008856 0.000000
# 3 0.000021 -0.000854 0.016190 0.000000 -0.005578 0.000000
# 4 0.000000 0.000000 0.000000 0.026916 0.000000 -0.012818
# 5 0.003565 -0.008856 -0.005578 0.000000 0.057367 0.000000
# 6 0.000000 0.000000 0.000000 -0.012818 0.000000 0.053404
#
#
# Mechanical properties :
#
#
# Convention : Reuss Voigt Hill
#
# Bulk Modulus (GPa) = 35.39375 44.59949 39.99662
# Shear Modulus (GPa) = 26.10010 33.90108 30.00059
#
# Velocity S-wave (km/s) = 3.25794 3.71304 3.49291
# Velocity P-wave (km/s) = 5.34284 6.04315 5.70375
#
# Compressibility (1/GPa) = 0.02825358
#
# Stress axis : x y z
#
# Youngs Moduli (GPa) = 98.25369 100.08449 61.76553
#
# Poissons Ratio (x) = 0.32222 -0.00128
# Poissons Ratio (y) = 0.31633 0.05276
# Poissons Ratio (z) = -0.00203 0.08549
#
# Static dielectric constant tensor:
#      x y z
#    x 2.024700 0.000000 -0.051000 
#    y 0.000000 1.908910 0.000000 
#    z -0.051000 0.000000 1.947100 
# 
# From -- ./inp_files/163350.got.cif
#   From: 2010.05.17/outbox.cif.g08.bks.cpg/sg15_82_cif.got.tgz:163350.got - 2010.06.03 18:47:42.
