data_PCOD9293622
_publ_section_title
;
Structure prediction by ZEFSAII (Michael W. Deem and Ramdas Pophale) SiO2 
 PCOD9293622
Probable space group: C 2/C
;
_chemical_formula_sum "Si O2"
_cell_formula_units_Z 36
_cell_length_a 15.653004
_cell_length_b 16.275760
_cell_length_c 9.415196
_cell_angle_alpha 90.000000
_cell_angle_beta 38.241432
_cell_angle_gamma 90.000000
_cell_volume 1484.712976
_symmetry_space_group_name_H-M "C 2/C"
_symmetry_group_IT_number 15
_symmetry_cell_setting 'monoclinic'
loop_
_space_group_symop_operation_xyz
x,y,z
-x,y,1/2-z
-x,-y,-z
x,-y,1/2+z
1/2+x,1/2+y,z
1/2-x,1/2+y,1/2-z
1/2-x,1/2-y,-z
1/2+x,1/2-y,1/2+z
loop_
_atom_site_type_symbol
_atom_site_label
_atom_site_fract_x
_atom_site_fract_y
_atom_site_fract_z
Si Si1 0.743118 0.920706 0.273682
Si Si2 0.816585 0.803538 0.542858
Si Si3 0.000000 0.328542 0.750000
Si Si4 0.148057 0.012064 0.603225
Si Si5 0.348877 0.253617 0.006202
O O1 0.613477 0.892813 0.539306
O O2 0.828427 0.983937 0.260177
O O3 0.825597 0.838347 0.123083
O O4 0.729940 0.965929 0.140024
O O5 0.750000 0.750000 0.500000
O O6 0.852302 0.892622 0.441870
O O7 0.702709 0.812917 0.812828
O O8 0.943700 0.746709 0.430551
O O9 0.000000 0.976174 0.750000
O O10 0.500000 0.243635 0.750000
O O11 0.250000 0.250000 0.000000
#
# Coordination Sequence:
#
# PCOD9293622 Si02
#       5
#     8   8   4   8   8
#     4  11  27  44  70 102 142 181 232 296 350 424
#     4  11  23  44  74  98 135 190 233 286 349 434
#     4  10  22  46  70  98 138 176 238 278 350 410
#     4  12  25  44  71  99 142 186 235 283 360 419
#     4  11  27  44  71 105 143 180 243 296 351 417
#
# _framework density 24.247109999999999
#
# number of rings (size 3 to 8) (size 9 to 14) (size 15 to 20)
#    0.000    0.889    5.556    1.333   12.444    0.889 
#    2.000    0.000    0.000    0.000    0.000    0.000 
#    0.000    0.000    0.000    0.000    0.000    0.000 
#
# Total GULP energy -100203.387088 kJ/mol
# GULP energy per Si atom -5566.854838 kJ/mol
# Density = 2.419192 g / cm^3
# Si number density = 24.247110 Si / 1000 Ang^3
#
#
#
# Elastic Constant Matrix: (Units=GPa)
#
#
# Indices 1 2 3 4 5 6 
#
# 1 61.8241 -9.8391 42.3834 0.0000 3.1305 0.0000
# 2 -9.8391 49.1090 3.1195 0.0000 -2.2047 0.0000
# 3 42.3834 3.1195 190.3822 0.0000 -11.9074 0.0000
# 4 0.0000 0.0000 0.0000 50.0752 0.0000 9.5239
# 5 3.1305 -2.2047 -11.9074 0.0000 41.7461 0.0000
# 6 0.0000 0.0000 0.0000 9.5239 0.0000 20.6773
#
#
#
# Elastic Compliance Matrix: (Units=1/GPa)
#
#
# Indices 1 2 3 4 5 6 
#
# 1 0.020232 0.004236 -0.004739 0.000000 -0.002645 0.000000
# 2 0.004236 0.021312 -0.001264 0.000000 0.000447 0.000000
# 3 -0.004739 -0.001264 0.006462 0.000000 0.002132 0.000000
# 4 0.000000 0.000000 0.000000 0.021887 0.000000 -0.010081
# 5 -0.002645 0.000447 0.002132 0.000000 0.024784 0.000000
# 6 0.000000 0.000000 0.000000 -0.010081 0.000000 0.053006
#
#
# Mechanical properties :
#
#
# Convention : Reuss Voigt Hill
#
# Bulk Modulus (GPa) = 22.48682 41.40477 31.94579
# Shear Modulus (GPa) = 30.11313 40.20983 35.16148
#
# Velocity S-wave (km/s) = 3.52792 4.07668 3.81219
# Velocity P-wave (km/s) = 5.08814 6.26677 5.70795
#
# Compressibility (1/GPa) = 0.04447049
#
# Stress axis : x y z
#
# Youngs Moduli (GPa) = 49.42747 46.92220 154.76023
#
# Poissons Ratio (x) = -0.19875 0.73339
# Poissons Ratio (y) = -0.20936 0.19565
# Poissons Ratio (z) = 0.23423 0.05932
#
# Static dielectric constant tensor:
#      x y z
#    x 2.322240 0.000000 -0.094540 
#    y 0.000000 1.936210 0.000000 
#    z -0.094540 0.000000 2.012260 
# 
# From -- ./inp_files/48259.got.cif
#   From: 2010.05.17/outbox.cif.g08.bks.cpg/sg15_25_cif.got.tgz:48259.got - 2010.06.03 18:47:42.
