data_PCOD9293417
_publ_section_title
;
Structure prediction by ZEFSAII (Michael W. Deem and Ramdas Pophale) SiO2 
 PCOD9293417
Probable space group: C 2/C
;
_chemical_formula_sum "Si O2"
_cell_formula_units_Z 40
_cell_length_a 9.476251
_cell_length_b 11.053351
_cell_length_c 13.952347
_cell_angle_alpha 90.000000
_cell_angle_beta 64.808104
_cell_angle_gamma 90.000000
_cell_volume 1322.428689
_symmetry_space_group_name_H-M "C 2/C"
_symmetry_group_IT_number 15
_symmetry_cell_setting 'monoclinic'
loop_
_space_group_symop_operation_xyz
x,y,z
-x,y,1/2-z
-x,-y,-z
x,-y,1/2+z
1/2+x,1/2+y,z
1/2-x,1/2+y,1/2-z
1/2-x,1/2-y,-z
1/2+x,1/2-y,1/2+z
loop_
_atom_site_type_symbol
_atom_site_label
_atom_site_fract_x
_atom_site_fract_y
_atom_site_fract_z
Si Si1 0.633193 0.864091 0.559841
Si Si2 0.848030 0.704660 0.671734
Si Si3 0.486078 0.382591 0.422716
Si Si4 0.613283 0.627791 0.086699
Si Si5 0.181222 0.442601 0.801207
O O1 0.633515 0.837273 0.445178
O O2 0.556879 0.738257 0.620377
O O3 0.811959 0.899712 0.524128
O O4 0.506365 0.954877 0.635474
O O5 0.020798 0.753849 0.646456
O O6 0.778215 0.582211 0.737368
O O7 0.739088 0.903837 0.891878
O O8 0.493433 0.508263 0.365436
O O9 0.608390 0.360629 0.472662
O O10 0.243133 0.675029 0.224673
#
# Coordination Sequence:
#
# PCOD9293417 Si02
#       5
#     8   8   8   8   8
#     4  10  22  47  77 111 150 203 260 321 386 469
#     4  11  26  46  76 116 152 204 263 316 401 459
#     4   9  20  42  74 113 144 194 258 314 390 460
#     4  10  22  45  73 106 151 195 254 316 385 461
#     4  12  26  49  77 110 159 202 262 331 380 471
#
# _framework density 30.247378000000001
#
# number of rings (size 3 to 8) (size 9 to 14) (size 15 to 20)
#    0.000    1.600    2.000    1.200    2.800    3.200 
#    3.600   17.000    0.000    0.000    0.000    0.000 
#    0.000    0.000    0.000    0.000    0.000    0.000 
#
# Total GULP energy -111632.737983 kJ/mol
# GULP energy per Si atom -5581.636899 kJ/mol
# Density = 3.017853 g / cm^3
# Si number density = 30.247378 Si / 1000 Ang^3
#
#
#
# Elastic Constant Matrix: (Units=GPa)
#
#
# Indices 1 2 3 4 5 6 
#
# 1 86.4869 14.9268 37.1815 0.0000 14.8782 0.0000
# 2 14.9268 243.5107 46.2801 0.0000 -9.6967 0.0000
# 3 37.1815 46.2801 109.0748 0.0000 17.0776 0.0000
# 4 0.0000 0.0000 0.0000 36.5706 0.0000 -6.8841
# 5 14.8782 -9.6967 17.0776 0.0000 53.6149 0.0000
# 6 0.0000 0.0000 0.0000 -6.8841 0.0000 50.5750
#
#
#
# Elastic Compliance Matrix: (Units=1/GPa)
#
#
# Indices 1 2 3 4 5 6 
#
# 1 0.013854 -0.000137 -0.004272 0.000000 -0.002509 0.000000
# 2 -0.000137 0.004583 -0.002140 0.000000 0.001549 0.000000
# 3 -0.004272 -0.002140 0.012006 0.000000 -0.003026 0.000000
# 4 0.000000 0.000000 0.000000 0.028063 0.000000 0.003820
# 5 -0.002509 0.001549 -0.003026 0.000000 0.020592 0.000000
# 6 0.000000 0.000000 0.000000 0.003820 0.000000 0.020293
#
#
# Mechanical properties :
#
#
# Convention : Reuss Voigt Hill
#
# Bulk Modulus (GPa) = 57.65341 70.64992 64.15166
# Shear Modulus (GPa) = 42.27559 50.86438 46.56999
#
# Velocity S-wave (km/s) = 3.74259 4.10520 3.92808
# Velocity P-wave (km/s) = 6.14638 6.77335 6.46747
#
# Compressibility (1/GPa) = 0.01734503
#
# Stress axis : x y z
#
# Youngs Moduli (GPa) = 72.18086 218.17439 83.29129
#
# Poissons Ratio (x) = 0.02996 0.35578
# Poissons Ratio (y) = 0.00991 0.17828
# Poissons Ratio (z) = 0.30832 0.46699
#
# Static dielectric constant tensor:
#      x y z
#    x 2.444480 0.000000 0.034690 
#    y 0.000000 2.527730 0.000000 
#    z 0.034690 0.000000 2.439930 
# 
# From -- ./inp_files/94506.got.cif
#   From: 2010.05.17/outbox.cif.g08.bks.cpg/sg15_48_cif.got.tgz:94506.got - 2010.06.03 18:47:42.
