data_PCOD9293343
_publ_section_title
;
Structure prediction by ZEFSAII (Michael W. Deem and Ramdas Pophale) SiO2 
 PCOD9293343
Probable space group: C 2/C
;
_chemical_formula_sum "Si O2"
_cell_formula_units_Z 52
_cell_length_a 14.441021
_cell_length_b 12.286835
_cell_length_c 14.998889
_cell_angle_alpha 90.000000
_cell_angle_beta 108.794586
_cell_angle_gamma 90.000000
_cell_volume 2519.417170
_symmetry_space_group_name_H-M "C 2/C"
_symmetry_group_IT_number 15
_symmetry_cell_setting 'monoclinic'
loop_
_space_group_symop_operation_xyz
x,y,z
-x,y,1/2-z
-x,-y,-z
x,-y,1/2+z
1/2+x,1/2+y,z
1/2-x,1/2+y,1/2-z
1/2-x,1/2-y,-z
1/2+x,1/2-y,1/2+z
loop_
_atom_site_type_symbol
_atom_site_label
_atom_site_fract_x
_atom_site_fract_y
_atom_site_fract_z
Si Si1 0.911576 0.971193 0.840076
Si Si2 0.114345 0.710209 0.402396
Si Si3 0.052173 0.385149 0.533373
Si Si4 0.301238 0.420717 0.980231
Si Si5 0.000000 0.152579 0.750000
Si Si6 0.779320 0.088841 0.134307
Si Si7 0.048731 0.239805 0.355915
O O1 0.863804 0.976459 0.922016
O O2 0.825798 0.951710 0.741280
O O3 0.983751 0.867677 0.856727
O O4 0.971690 0.074875 0.823749
O O5 0.190888 0.612036 0.418101
O O6 0.153968 0.803174 0.481481
O O7 0.091297 0.772651 0.304233
O O8 0.012672 0.671421 0.411418
O O9 0.163896 0.393885 0.598988
O O10 0.047614 0.318505 0.439544
O O11 0.000000 0.500000 0.500000
O O12 0.298744 0.497855 0.064990
O O13 0.841944 0.196170 0.129057
O O14 0.000000 0.286351 0.250000
#
# Coordination Sequence:
#
# PCOD9293343 Si02
#       7
#     8   8   8   8   4   8   8
#     4  11  22  43  73 101 131 175 227 285 332 390
#     4  11  25  43  67  98 138 174 222 276 339 402
#     4  12  25  46  65  96 141 184 217 280 340 407
#     4  11  23  44  69  98 136 177 215 276 346 395
#     4  12  24  44  70 104 130 168 234 284 326 410
#     4  11  23  44  68 102 132 174 236 272 333 411
#     4  10  22  45  70  96 131 175 232 280 329 398
#
# _framework density 20.639693999999999
#
# number of rings (size 3 to 8) (size 9 to 14) (size 15 to 20)
#    0.000    0.923    6.923    0.462    4.308    1.231 
#    4.154    0.000    0.000    0.000    0.000    0.000 
#    0.000    0.000    0.000    0.000    0.000    0.000 
#
# Total GULP energy -145391.157328 kJ/mol
# GULP energy per Si atom -5591.967590 kJ/mol
# Density = 2.059272 g / cm^3
# Si number density = 20.639694 Si / 1000 Ang^3
#
#
#
# Elastic Constant Matrix: (Units=GPa)
#
#
# Indices 1 2 3 4 5 6 
#
# 1 131.3094 18.6865 23.1783 0.0000 20.8100 0.0000
# 2 18.6865 55.6241 13.9753 0.0000 10.6481 0.0000
# 3 23.1783 13.9753 41.4588 0.0000 17.6615 0.0000
# 4 0.0000 0.0000 0.0000 32.1595 0.0000 3.3669
# 5 20.8100 10.6481 17.6615 0.0000 39.9631 0.0000
# 6 0.0000 0.0000 0.0000 3.3669 0.0000 28.7386
#
#
#
# Elastic Compliance Matrix: (Units=1/GPa)
#
#
# Indices 1 2 3 4 5 6 
#
# 1 0.008854 -0.001638 -0.003227 0.000000 -0.002748 0.000000
# 2 -0.001638 0.020210 -0.004886 0.000000 -0.002373 0.000000
# 3 -0.003227 -0.004886 0.032401 0.000000 -0.011337 0.000000
# 4 0.000000 0.000000 0.000000 0.031481 0.000000 -0.003688
# 5 -0.002748 -0.002373 -0.011337 0.000000 0.032097 0.000000
# 6 0.000000 0.000000 0.000000 -0.003688 0.000000 0.035229
#
#
# Mechanical properties :
#
#
# Convention : Reuss Voigt Hill
#
# Bulk Modulus (GPa) = 23.83063 37.78584 30.80824
# Shear Modulus (GPa) = 25.80501 31.67571 28.74036
#
# Velocity S-wave (km/s) = 3.53974 3.92177 3.73564
# Velocity P-wave (km/s) = 5.31765 6.23331 5.79360
#
# Compressibility (1/GPa) = 0.04196280
#
# Stress axis : x y z
#
# Youngs Moduli (GPa) = 112.94603 49.48101 30.86293
#
# Poissons Ratio (x) = 0.08103 0.09960
# Poissons Ratio (y) = 0.18495 0.15080
# Poissons Ratio (z) = 0.36451 0.24178
#
# Static dielectric constant tensor:
#      x y z
#    x 1.740910 0.000000 0.020050 
#    y 0.000000 1.728090 0.000000 
#    z 0.020050 0.000000 1.753170 
# 
# From -- ./inp_files/152704.got.cif
#   From: 2010.05.17/outbox.cif.g08.bks.cpg/sg15_77_cif.got.tgz:152704.got - 2010.06.03 18:47:42.
