data_PCOD9293844
_publ_section_title
;
Structure prediction by ZEFSAII (Michael W. Deem and Ramdas Pophale) SiO2 
 PCOD9293844
Probable space group: C 2/C
;
_chemical_formula_sum "Si O2"
_cell_formula_units_Z 36
_cell_length_a 10.027487
_cell_length_b 10.814367
_cell_length_c 19.774070
_cell_angle_alpha 90.000000
_cell_angle_beta 48.512243
_cell_angle_gamma 90.000000
_cell_volume 1606.303132
_symmetry_space_group_name_H-M "C 2/C"
_symmetry_group_IT_number 15
_symmetry_cell_setting 'monoclinic'
loop_
_space_group_symop_operation_xyz
x,y,z
-x,y,1/2-z
-x,-y,-z
x,-y,1/2+z
1/2+x,1/2+y,z
1/2-x,1/2+y,1/2-z
1/2-x,1/2-y,-z
1/2+x,1/2-y,1/2+z
loop_
_atom_site_type_symbol
_atom_site_label
_atom_site_fract_x
_atom_site_fract_y
_atom_site_fract_z
Si Si1 0.501718 0.969584 0.831110
Si Si2 0.613892 0.456008 0.275258
Si Si3 0.500000 0.304456 0.750000
Si Si4 0.956838 0.225233 0.930661
Si Si5 0.269531 0.327742 0.061028
O O1 0.500000 0.950087 0.750000
O O2 0.527718 0.844382 0.865086
O O3 0.672725 0.056028 0.792901
O O4 0.317836 0.036616 0.915480
O O5 0.500000 0.403158 0.250000
O O6 0.577421 0.602048 0.280237
O O7 0.522127 0.395972 0.369779
O O8 0.350630 0.226874 0.837328
O O9 0.032681 0.200383 0.979596
O O10 0.750000 0.250000 0.000000
O O11 0.250000 0.250000 0.000000
#
# Coordination Sequence:
#
# PCOD9293844 Si02
#       5
#     8   8   4   8   8
#     4  12  25  47  76 102 146 201 252 299 373 453
#     4  10  23  44  75  96 142 193 243 297 372 439
#     4  10  22  48  72  98 142 192 248 288 372 440
#     4  12  27  46  67 113 150 185 251 316 372 440
#     4  12  27  45  73 104 145 195 251 308 372 444
#
# _framework density 22.411712000000001
#
# number of rings (size 3 to 8) (size 9 to 14) (size 15 to 20)
#    0.667    0.000    5.556    0.667    6.222    3.556 
#    0.000    0.000    0.000    0.000    0.000    0.000 
#    0.000    0.000    0.000    0.000    0.000    0.000 
#
# Total GULP energy -100455.076370 kJ/mol
# GULP energy per Si atom -5580.837576 kJ/mol
# Density = 2.236070 g / cm^3
# Si number density = 22.411712 Si / 1000 Ang^3
#
#
#
# Elastic Constant Matrix: (Units=GPa)
#
#
# Indices 1 2 3 4 5 6 
#
# 1 160.7374 -2.1830 15.6471 0.0000 -16.0006 0.0000
# 2 -2.1830 62.3479 4.2234 0.0000 -2.0001 0.0000
# 3 15.6471 4.2234 58.2030 0.0000 -20.7189 0.0000
# 4 0.0000 0.0000 0.0000 22.7132 0.0000 -1.7827
# 5 -16.0006 -2.0001 -20.7189 0.0000 48.0028 0.0000
# 6 0.0000 0.0000 0.0000 -1.7827 0.0000 24.7217
#
#
#
# Elastic Compliance Matrix: (Units=1/GPa)
#
#
# Indices 1 2 3 4 5 6 
#
# 1 0.006508 0.000361 -0.001179 0.000000 0.001675 0.000000
# 2 0.000361 0.016140 -0.001165 0.000000 0.000290 0.000000
# 3 -0.001179 -0.001165 0.020589 0.000000 0.008445 0.000000
# 4 0.000000 0.000000 0.000000 0.044278 0.000000 0.003193
# 5 0.001675 0.000290 0.008445 0.000000 0.025048 0.000000
# 6 0.000000 0.000000 0.000000 0.003193 0.000000 0.040681
#
#
# Mechanical properties :
#
#
# Convention : Reuss Voigt Hill
#
# Bulk Modulus (GPa) = 25.46423 35.18482 30.32452
# Shear Modulus (GPa) = 29.36013 36.66093 33.01053
#
# Velocity S-wave (km/s) = 3.62337 4.04888 3.84202
# Velocity P-wave (km/s) = 5.37510 6.13118 5.76555
#
# Compressibility (1/GPa) = 0.03927078
#
# Stress axis : x y z
#
# Youngs Moduli (GPa) = 153.66151 61.95821 48.56946
#
# Poissons Ratio (x) = -0.02240 0.05728
# Poissons Ratio (y) = -0.05555 0.05659
# Poissons Ratio (z) = 0.18123 0.07219
#
# Static dielectric constant tensor:
#      x y z
#    x 2.009840 0.000000 -0.016870 
#    y 0.000000 1.833670 0.000000 
#    z -0.016870 0.000000 1.822420 
# 
# From -- ./inp_files/262958.got.cif
#   From: 2010.05.17/outbox.cif.g08.bks.cpg/sg15_132_cif.got.tgz:262958.got - 2010.06.03 18:47:42.
