data_PCOD9293037
_publ_section_title
;
Structure prediction by ZEFSAII (Michael W. Deem and Ramdas Pophale) SiO2 
 PCOD9293037
Probable space group: C 2/C
;
_chemical_formula_sum "Si O2"
_cell_formula_units_Z 48
_cell_length_a 21.783654
_cell_length_b 5.705878
_cell_length_c 19.051451
_cell_angle_alpha 90.000000
_cell_angle_beta 120.624273
_cell_angle_gamma 90.000000
_cell_volume 2037.724264
_symmetry_space_group_name_H-M "C 2/C"
_symmetry_group_IT_number 15
_symmetry_cell_setting 'monoclinic'
loop_
_space_group_symop_operation_xyz
x,y,z
-x,y,1/2-z
-x,-y,-z
x,-y,1/2+z
1/2+x,1/2+y,z
1/2-x,1/2+y,1/2-z
1/2-x,1/2-y,-z
1/2+x,1/2-y,1/2+z
loop_
_atom_site_type_symbol
_atom_site_label
_atom_site_fract_x
_atom_site_fract_y
_atom_site_fract_z
Si Si1 0.632530 0.944467 0.557361
Si Si2 0.925263 0.412058 0.209798
Si Si3 0.416660 0.285474 0.327188
Si Si4 0.170684 0.165927 0.444855
Si Si5 0.731632 0.501683 0.777163
Si Si6 0.073601 0.773952 0.417609
O O1 0.714666 0.004666 0.625145
O O2 0.588992 0.165894 0.503050
O O3 0.599484 0.820131 0.605566
O O4 0.631112 0.776004 0.489416
O O5 0.912682 0.564338 0.271515
O O6 0.859367 0.260924 0.145681
O O7 0.935965 0.591742 0.151386
O O8 0.000000 0.272487 0.250000
O O9 0.353339 0.459627 0.268419
O O10 0.495943 0.394878 0.373557
O O11 0.250000 0.250000 0.500000
O O12 0.146505 0.901010 0.437690
O O13 0.745146 0.244274 0.750351
#
# Coordination Sequence:
#
# PCOD9293037 Si02
#       6
#     8   8   8   8   8   8
#     4  10  24  43  68 101 136 181 239 297 370 429
#     4   9  22  44  63  95 134 178 234 289 358 433
#     4  10  22  44  71  99 138 185 239 309 356 435
#     4  11  26  42  68  98 138 187 232 296 368 447
#     4  10  24  44  67 107 145 185 236 296 368 430
#     4  10  23  44  66  98 137 182 239 288 371 438
#
# _framework density 23.555686999999999
#
# number of rings (size 3 to 8) (size 9 to 14) (size 15 to 20)
#    0.000    2.000    0.000    0.500    9.333    6.667 
#   18.000    0.000    0.000    0.000    0.000    0.000 
#    0.000    0.000    0.000    0.000    0.000    0.000 
#
# Total GULP energy -133920.859200 kJ/mol
# GULP energy per Si atom -5580.035800 kJ/mol
# Density = 2.350207 g / cm^3
# Si number density = 23.555687 Si / 1000 Ang^3
#
#
#
# Elastic Constant Matrix: (Units=GPa)
#
#
# Indices 1 2 3 4 5 6 
#
# 1 79.7880 16.5780 52.5072 0.0000 12.8240 0.0000
# 2 16.5780 50.1855 26.8353 0.0000 -0.5992 -0.0003
# 3 52.5072 26.8353 93.5339 0.0000 -6.0236 -0.0001
# 4 0.0000 0.0000 0.0000 38.6657 0.0001 -9.5410
# 5 12.8240 -0.5992 -6.0236 0.0001 52.2907 0.0000
# 6 0.0000 -0.0003 -0.0001 -9.5410 0.0000 21.7241
#
#
#
# Elastic Compliance Matrix: (Units=1/GPa)
#
#
# Indices 1 2 3 4 5 6 
#
# 1 0.022114 -0.000605 -0.012684 0.000000 -0.006891 0.000000
# 2 -0.000605 0.023567 -0.006443 0.000000 -0.000324 0.000000
# 3 -0.012684 -0.006443 0.020004 0.000000 0.005341 0.000000
# 4 0.000000 0.000000 0.000000 0.029006 0.000000 0.012739
# 5 -0.006891 -0.000324 0.005341 0.000000 0.021426 0.000000
# 6 0.000000 0.000000 0.000000 0.012739 0.000000 0.051627
#
#
# Mechanical properties :
#
#
# Convention : Reuss Voigt Hill
#
# Bulk Modulus (GPa) = 38.13669 46.14984 42.14327
# Shear Modulus (GPa) = 23.15367 31.04188 27.09778
#
# Velocity S-wave (km/s) = 3.13858 3.63410 3.39539
# Velocity P-wave (km/s) = 5.41843 6.10273 5.77073
#
# Compressibility (1/GPa) = 0.02622147
#
# Stress axis : x y z
#
# Youngs Moduli (GPa) = 45.22046 42.43197 49.98883
#
# Poissons Ratio (x) = 0.02566 0.63408
# Poissons Ratio (y) = 0.02734 0.32208
# Poissons Ratio (z) = 0.57360 0.27339
#
# Static dielectric constant tensor:
#      x y z
#    x 1.953070 0.000000 0.032190 
#    y 0.000000 1.979400 0.000000 
#    z 0.032190 0.000000 1.863150 
# 
# From -- ./inp_files/254441.got.cif
#   From: 2010.05.17/outbox.cif.g08.bks.cpg/sg15_128_cif.got.tgz:254441.got - 2010.06.03 18:47:42.
