data_PCOD9293630
_publ_section_title
;
Structure prediction by ZEFSAII (Michael W. Deem and Ramdas Pophale) SiO2 
 PCOD9293630
Probable space group: C 2/C
;
_chemical_formula_sum "Si O2"
_cell_formula_units_Z 40
_cell_length_a 11.178900
_cell_length_b 9.447344
_cell_length_c 18.686044
_cell_angle_alpha 90.000000
_cell_angle_beta 51.575756
_cell_angle_gamma 90.000000
_cell_volume 1546.061174
_symmetry_space_group_name_H-M "C 2/C"
_symmetry_group_IT_number 15
_symmetry_cell_setting 'monoclinic'
loop_
_space_group_symop_operation_xyz
x,y,z
-x,y,1/2-z
-x,-y,-z
x,-y,1/2+z
1/2+x,1/2+y,z
1/2-x,1/2+y,1/2-z
1/2-x,1/2-y,-z
1/2+x,1/2-y,1/2+z
loop_
_atom_site_type_symbol
_atom_site_label
_atom_site_fract_x
_atom_site_fract_y
_atom_site_fract_z
Si Si1 0.055923 0.365457 0.093860
Si Si2 0.168750 0.082332 0.111381
Si Si3 0.670019 0.088900 0.311611
Si Si4 0.764583 0.043570 0.120708
Si Si5 0.462207 0.658374 0.928281
O O1 0.137317 0.450398 0.128225
O O2 0.888455 0.429386 0.152082
O O3 0.164747 0.847052 0.962457
O O4 0.428711 0.299102 0.894082
O O5 0.338759 0.101680 0.014051
O O6 0.103472 0.930988 0.113681
O O7 0.189158 0.112418 0.187238
O O8 0.706699 0.108632 0.215460
O O9 0.530403 0.191358 0.383607
O O10 0.896356 0.932360 0.093307
#
# Coordination Sequence:
#
# PCOD9293630 Si02
#       5
#     8   8   8   8   8
#     4  10  22  46  71 101 145 184 228 296 352 407
#     4  10  23  46  72 103 139 186 236 285 352 418
#     4  12  24  46  74 106 138 189 238 284 353 422
#     4  10  23  46  71 102 145 185 229 294 352 409
#     4  10  24  49  72 102 145 185 229 297 349 412
#
# _framework density 25.872197
#
# number of rings (size 3 to 8) (size 9 to 14) (size 15 to 20)
#    0.000    1.600    2.000    1.200    2.800    5.600 
#   18.000    0.000    0.000    0.000    0.000    0.000 
#    0.000    0.000    0.000    0.000    0.000    0.000 
#
# Total GULP energy -112268.839786 kJ/mol
# GULP energy per Si atom -5613.441989 kJ/mol
# Density = 2.581331 g / cm^3
# Si number density = 25.872197 Si / 1000 Ang^3
#
#
#
# Elastic Constant Matrix: (Units=GPa)
#
#
# Indices 1 2 3 4 5 6 
#
# 1 64.1583 25.3599 11.2380 0.0000 12.2704 0.0000
# 2 25.3599 103.0772 32.2918 0.0000 2.5744 0.0000
# 3 11.2380 32.2918 101.9393 0.0000 27.2131 0.0000
# 4 0.0000 0.0000 0.0000 15.4640 0.0000 -10.1008
# 5 12.2704 2.5744 27.2131 0.0000 42.1326 0.0000
# 6 0.0000 0.0000 0.0000 -10.1008 0.0000 34.9572
#
#
#
# Elastic Compliance Matrix: (Units=1/GPa)
#
#
# Indices 1 2 3 4 5 6 
#
# 1 0.018353 -0.004680 0.000978 0.000000 -0.005691 0.000000
# 2 -0.004680 0.012087 -0.004204 0.000000 0.003340 0.000000
# 3 0.000978 -0.004204 0.013342 0.000000 -0.008645 0.000000
# 4 0.000000 0.000000 0.000000 0.079710 0.000000 0.023032
# 5 -0.005691 0.003340 -0.008645 0.000000 0.030772 0.000000
# 6 0.000000 0.000000 0.000000 0.023032 0.000000 0.035261
#
#
# Mechanical properties :
#
#
# Convention : Reuss Voigt Hill
#
# Bulk Modulus (GPa) = 35.75280 45.21713 40.48497
# Shear Modulus (GPa) = 23.29266 31.86312 27.57789
#
# Velocity S-wave (km/s) = 3.00375 3.51316 3.26840
# Velocity P-wave (km/s) = 5.08714 5.82851 5.47040
#
# Compressibility (1/GPa) = 0.02796984
#
# Stress axis : x y z
#
# Youngs Moduli (GPa) = 54.48614 82.73651 74.95322
#
# Poissons Ratio (x) = 0.38719 -0.07333
# Poissons Ratio (y) = 0.25498 0.31514
# Poissons Ratio (z) = -0.05331 0.34786
#
# Static dielectric constant tensor:
#      x y z
#    x 2.022120 0.000000 -0.033020 
#    y 0.000000 1.972370 0.000000 
#    z -0.033020 0.000000 2.033480 
# 
# From -- ./inp_files/236434.got.cif
#   From: 2010.05.17/outbox.cif.g08.bks.cpg/sg15_119_cif.got.tgz:236434.got - 2010.06.03 18:47:42.
