data_PCOD9293920
_publ_section_title
;
Structure prediction by ZEFSAII (Michael W. Deem and Ramdas Pophale) SiO2 
 PCOD9293920
Probable space group: C 2/C
;
_chemical_formula_sum "Si O2"
_cell_formula_units_Z 32
_cell_length_a 12.940522
_cell_length_b 26.243685
_cell_length_c 5.320412
_cell_angle_alpha 90.000000
_cell_angle_beta 73.079642
_cell_angle_gamma 90.000000
_cell_volume 1728.630993
_symmetry_space_group_name_H-M "C 2/C"
_symmetry_group_IT_number 15
_symmetry_cell_setting 'monoclinic'
loop_
_space_group_symop_operation_xyz
x,y,z
-x,y,1/2-z
-x,-y,-z
x,-y,1/2+z
1/2+x,1/2+y,z
1/2-x,1/2+y,1/2-z
1/2-x,1/2-y,-z
1/2+x,1/2-y,1/2+z
loop_
_atom_site_type_symbol
_atom_site_label
_atom_site_fract_x
_atom_site_fract_y
_atom_site_fract_z
Si Si1 0.310669 0.384361 0.894327
Si Si2 0.000000 0.293326 0.750000
Si Si3 0.846064 0.220383 0.572904
Si Si4 0.209957 0.647781 0.958582
Si Si5 0.000000 0.034061 0.250000
O O1 0.243050 0.380710 0.687601
O O2 0.395496 0.429555 0.828631
O O3 0.371513 0.329887 0.891812
O O4 0.232510 0.385232 0.193247
O O5 0.941042 0.257529 0.587144
O O6 0.092024 0.328334 0.562383
O O7 0.750000 0.250000 0.500000
O O8 0.792911 0.195091 0.859545
O O9 0.000000 0.000000 0.500000
#
# Coordination Sequence:
#
# PCOD9293920 Si02
#       5
#     8   4   8   8   4
#     4  10  24  41  59  90 133 155 212 269 323 371
#     4  12  20  35  60  86 132 188 221 232 304 392
#     4  10  23  36  56  90 136 175 220 245 309 370
#     4  10  23  38  53  89 126 178 206 263 302 366
#     4  12  26  45  74  98 114 166 213 272 358 392
#
# _framework density 18.511756999999999
#
# number of rings (size 3 to 8) (size 9 to 14) (size 15 to 20)
#    1.500    0.000    2.500    2.250    3.500    4.000 
#    0.000    0.000    0.000    0.000    0.000   17.500 
#    0.000    0.000    0.000    0.000    0.000    0.000 
#
# Total GULP energy -89238.078924 kJ/mol
# GULP energy per Si atom -5577.379933 kJ/mol
# Density = 1.846962 g / cm^3
# Si number density = 18.511757 Si / 1000 Ang^3
#
#
#
# Elastic Constant Matrix: (Units=GPa)
#
#
# Indices 1 2 3 4 5 6 
#
# 1 124.0880 60.4489 64.0147 0.0000 9.9586 0.0000
# 2 60.4489 108.2030 56.8539 0.0000 2.9126 0.0000
# 3 64.0147 56.8539 147.8389 0.0000 14.4593 0.0000
# 4 0.0000 0.0000 0.0000 24.1965 0.0000 -10.8892
# 5 9.9586 2.9126 14.4593 0.0000 35.4858 0.0000
# 6 0.0000 0.0000 0.0000 -10.8892 0.0000 27.3902
#
#
#
# Elastic Compliance Matrix: (Units=1/GPa)
#
#
# Indices 1 2 3 4 5 6 
#
# 1 0.012373 -0.005188 -0.003191 0.000000 -0.001746 0.000000
# 2 -0.005188 0.013786 -0.003215 0.000000 0.001634 0.000000
# 3 -0.003191 -0.003215 0.009654 0.000000 -0.002774 0.000000
# 4 0.000000 0.000000 0.000000 0.050334 0.000000 0.020011
# 5 -0.001746 0.001634 -0.002774 0.000000 0.029666 0.000000
# 6 0.000000 0.000000 0.000000 0.020011 0.000000 0.044465
#
#
# Mechanical properties :
#
#
# Convention : Reuss Voigt Hill
#
# Bulk Modulus (GPa) = 79.22081 82.52943 80.87512
# Shear Modulus (GPa) = 26.64198 30.66866 28.65532
#
# Velocity S-wave (km/s) = 3.79778 4.07469 3.93867
# Velocity P-wave (km/s) = 7.88154 8.17413 8.02917
#
# Compressibility (1/GPa) = 0.01262295
#
# Stress axis : x y z
#
# Youngs Moduli (GPa) = 80.82265 72.53973 103.58792
#
# Poissons Ratio (x) = 0.37636 0.33059
# Poissons Ratio (y) = 0.41933 0.33301
# Poissons Ratio (z) = 0.25794 0.23320
#
# Static dielectric constant tensor:
#      x y z
#    x 1.612210 0.000000 -0.007160 
#    y 0.000000 1.715560 0.000000 
#    z -0.007160 0.000000 1.687670 
# 
# From -- ./inp_files/3998.got.cif
#   From: 2010.05.17/outbox.cif.g08.bks.cpg/sg15_2_cif.got.tgz:3998.got - 2010.06.03 18:47:42.
