data_PCOD9293983
_publ_section_title
;
Structure prediction by ZEFSAII (Michael W. Deem and Ramdas Pophale) SiO2 
 PCOD9293983
Probable space group: C 2/C
;
_chemical_formula_sum "Si O2"
_cell_formula_units_Z 40
_cell_length_a 28.516592
_cell_length_b 8.804906
_cell_length_c 22.540430
_cell_angle_alpha 90.000000
_cell_angle_beta 20.449580
_cell_angle_gamma 90.000000
_cell_volume 1977.362465
_symmetry_space_group_name_H-M "C 2/C"
_symmetry_group_IT_number 15
_symmetry_cell_setting 'monoclinic'
loop_
_space_group_symop_operation_xyz
x,y,z
-x,y,1/2-z
-x,-y,-z
x,-y,1/2+z
1/2+x,1/2+y,z
1/2-x,1/2+y,1/2-z
1/2-x,1/2-y,-z
1/2+x,1/2-y,1/2+z
loop_
_atom_site_type_symbol
_atom_site_label
_atom_site_fract_x
_atom_site_fract_y
_atom_site_fract_z
Si Si1 0.489003 0.887422 0.327472
Si Si2 0.182755 0.404774 0.389969
Si Si3 0.776412 0.679197 0.868349
Si Si4 0.573286 0.545446 0.352949
Si Si5 0.691954 0.546146 0.378480
O O1 0.500000 0.963692 0.250000
O O2 0.369246 0.762754 0.458799
O O3 0.633167 0.826930 0.179601
O O4 0.439893 0.002644 0.436850
O O5 0.300560 0.434827 0.298678
O O6 0.229151 0.480900 0.272736
O O7 0.172817 0.225396 0.394582
O O8 0.866674 0.786905 0.718651
O O9 0.761694 0.516230 0.854791
O O10 0.500000 0.500000 0.500000
O O11 0.457156 0.525564 0.443426
#
# Coordination Sequence:
#
# PCOD9293983 Si02
#       5
#     8   8   8   8   8
#     4  11  24  44  64  91 124 167 214 254 302 368
#     4  10  23  37  63  91 128 163 199 260 306 380
#     4  11  22  41  67  92 123 165 206 257 315 368
#     4   9  19  35  57  90 128 151 195 252 306 372
#     4  11  21  39  62  98 123 159 202 255 328 365
#
# _framework density 20.228967000000001
#
# number of rings (size 3 to 8) (size 9 to 14) (size 15 to 20)
#    0.000    1.600    2.000    4.200    5.600    0.800 
#    0.000    2.000    0.000    0.000    0.000    0.000 
#    0.000    0.000    0.000    0.000    0.000    0.000 
#
# Total GULP energy -111405.504942 kJ/mol
# GULP energy per Si atom -5570.275247 kJ/mol
# Density = 2.018292 g / cm^3
# Si number density = 20.228967 Si / 1000 Ang^3
#
#
#
# Elastic Constant Matrix: (Units=GPa)
#
#
# Indices 1 2 3 4 5 6 
#
# 1 99.1205 16.0625 30.2077 0.0000 -26.1992 0.0000
# 2 16.0625 79.0918 16.5299 -0.0002 -4.4324 -0.0001
# 3 30.2077 16.5299 62.9002 0.0000 -23.6602 -0.0001
# 4 0.0000 -0.0002 0.0000 13.0872 -0.0001 -2.7150
# 5 -26.1992 -4.4324 -23.6602 -0.0001 29.8558 0.0001
# 6 0.0000 -0.0001 -0.0001 -2.7150 0.0001 17.7237
#
#
#
# Elastic Compliance Matrix: (Units=1/GPa)
#
#
# Indices 1 2 3 4 5 6 
#
# 1 0.013712 -0.001726 -0.002425 0.000000 0.009855 0.000000
# 2 -0.001726 0.013623 -0.003647 0.000000 -0.002382 0.000000
# 3 -0.002425 -0.003647 0.024244 0.000000 0.016544 0.000000
# 4 0.000000 0.000000 0.000000 0.078918 0.000001 0.012089
# 5 0.009855 -0.002382 0.016544 0.000001 0.054899 0.000000
# 6 0.000000 0.000000 0.000000 0.012089 0.000000 0.058273
#
#
# Mechanical properties :
#
#
# Convention : Reuss Voigt Hill
#
# Bulk Modulus (GPa) = 27.79049 40.74586 34.26818
# Shear Modulus (GPa) = 18.43245 24.02083 21.22664
#
# Velocity S-wave (km/s) = 3.02187 3.44967 3.24283
# Velocity P-wave (km/s) = 5.09346 6.00442 5.56760
#
# Compressibility (1/GPa) = 0.03598353
#
# Stress axis : x y z
#
# Youngs Moduli (GPa) = 72.92780 73.40638 41.24695
#
# Poissons Ratio (x) = 0.12668 0.10001
# Poissons Ratio (y) = 0.12585 0.15044
# Poissons Ratio (z) = 0.17683 0.26774
#
# Static dielectric constant tensor:
#      x y z
#    x 1.765610 0.000000 -0.049550 
#    y 0.000000 1.740840 0.000000 
#    z -0.049550 0.000000 1.804330 
# 
# From -- ./inp_files/102800.got.cif
#   From: 2010.05.17/outbox.cif.g08.bks.cpg/sg15_52_cif.got.tgz:102800.got - 2010.06.03 18:47:42.
