data_PCOD9293512
_publ_section_title
;
Structure prediction by ZEFSAII (Michael W. Deem and Ramdas Pophale) SiO2 
 PCOD9293512
Probable space group: C 2/C
;
_chemical_formula_sum "Si O2"
_cell_formula_units_Z 48
_cell_length_a 19.086917
_cell_length_b 6.637552
_cell_length_c 19.548212
_cell_angle_alpha 90.000000
_cell_angle_beta 126.466341
_cell_angle_gamma 90.000000
_cell_volume 1991.673547
_symmetry_space_group_name_H-M "C 2/C"
_symmetry_group_IT_number 15
_symmetry_cell_setting 'monoclinic'
loop_
_space_group_symop_operation_xyz
x,y,z
-x,y,1/2-z
-x,-y,-z
x,-y,1/2+z
1/2+x,1/2+y,z
1/2-x,1/2+y,1/2-z
1/2-x,1/2-y,-z
1/2+x,1/2-y,1/2+z
loop_
_atom_site_type_symbol
_atom_site_label
_atom_site_fract_x
_atom_site_fract_y
_atom_site_fract_z
Si Si1 0.621813 0.115430 0.062541
Si Si2 0.000000 0.213873 0.750000
Si Si3 0.553541 0.637677 0.190160
Si Si4 0.643416 0.678228 0.108822
Si Si5 0.100635 0.449221 0.392829
Si Si6 0.714396 0.895989 0.334233
Si Si7 0.000000 0.000000 0.000000
O O1 0.708680 0.238371 0.127599
O O2 0.632076 0.911674 0.110906
O O3 0.620673 0.040322 0.983762
O O4 0.539942 0.256950 0.028744
O O5 0.051488 0.359992 0.831154
O O6 0.058043 0.062157 0.738020
O O7 0.569720 0.580355 0.119225
O O8 0.463933 0.755446 0.151111
O O9 0.629819 0.795780 0.251247
O O10 0.741002 0.597612 0.170737
O O11 0.595361 0.575273 0.017223
O O12 0.185862 0.426129 0.395799
#
# Coordination Sequence:
#
# PCOD9293512 Si02
#       7
#     8   4   8   8   8   8   4
#     4  11  26  45  76 106 150 189 244 306 374 442
#     4  12  26  44  78 100 142 200 250 302 364 440
#     4  12  26  48  72 105 148 190 252 306 368 458
#     4  11  27  43  73 105 146 188 243 300 378 432
#     4  12  25  48  74 104 143 193 255 296 374 449
#     4  11  26  46  66 111 145 188 243 310 369 443
#     4  10  22  46  66 108 138 180 236 290 364 436
#
# _framework density 24.100335000000001
#
# number of rings (size 3 to 8) (size 9 to 14) (size 15 to 20)
#    0.000    0.667    5.000    1.000    7.000    2.000 
#    0.000    0.000    0.000    0.000    0.000    0.000 
#    0.000    0.000    0.000    0.000    0.000    0.000 
#
# Total GULP energy -133874.504473 kJ/mol
# GULP energy per Si atom -5578.104353 kJ/mol
# Density = 2.404548 g / cm^3
# Si number density = 24.100335 Si / 1000 Ang^3
#
#
#
# Elastic Constant Matrix: (Units=GPa)
#
#
# Indices 1 2 3 4 5 6 
#
# 1 112.3021 44.1627 15.3156 0.0000 0.3052 0.0000
# 2 44.1627 142.3802 3.2510 0.0000 -10.2205 0.0000
# 3 15.3156 3.2510 28.4377 0.0000 -16.7287 0.0000
# 4 0.0000 0.0000 0.0000 34.0566 0.0000 4.0204
# 5 0.3052 -10.2205 -16.7287 0.0000 47.0435 0.0000
# 6 0.0000 0.0000 0.0000 4.0204 0.0000 48.3695
#
#
#
# Elastic Compliance Matrix: (Units=1/GPa)
#
#
# Indices 1 2 3 4 5 6 
#
# 1 0.011416 -0.003624 -0.007891 0.000000 -0.003668 0.000000
# 2 -0.003624 0.008285 0.002627 0.000000 0.002758 0.000000
# 3 -0.007891 0.002627 0.049923 0.000000 0.018375 0.000000
# 4 0.000000 0.000000 0.000000 0.029654 0.000000 -0.002465
# 5 -0.003668 0.002758 0.018375 0.000000 0.028414 0.000000
# 6 0.000000 0.000000 0.000000 -0.002465 0.000000 0.020879
#
#
# Mechanical properties :
#
#
# Convention : Reuss Voigt Hill
#
# Bulk Modulus (GPa) = 19.28737 45.39764 32.34251
# Shear Modulus (GPa) = 27.22853 40.58665 33.90759
#
# Velocity S-wave (km/s) = 3.36489 4.10819 3.75498
# Velocity P-wave (km/s) = 4.80801 6.43279 5.67881
#
# Compressibility (1/GPa) = 0.05184740
#
# Stress axis : x y z
#
# Youngs Moduli (GPa) = 87.59735 120.69285 20.03076
#
# Poissons Ratio (x) = 0.43739 0.15807
# Poissons Ratio (y) = 0.31745 -0.05262
# Poissons Ratio (z) = 0.69126 -0.31704
#
# Static dielectric constant tensor:
#      x y z
#    x 1.945630 0.000000 -0.090820 
#    y 0.000000 2.006820 0.000000 
#    z -0.090820 0.000000 2.263540 
# 
# From -- ./inp_files/278851.got.cif
#   From: 2010.05.17/outbox.cif.g08.bks.cpg/sg15_140_cif.got.tgz:278851.got - 2010.06.03 18:47:42.
