data_PCOD9293869
_publ_section_title
;
Structure prediction by ZEFSAII (Michael W. Deem and Ramdas Pophale) SiO2 
 PCOD9293869
Probable space group: C 2/C
;
_chemical_formula_sum "Si O2"
_cell_formula_units_Z 48
_cell_length_a 17.766958
_cell_length_b 13.679900
_cell_length_c 7.673847
_cell_angle_alpha 90.000000
_cell_angle_beta 96.839613
_cell_angle_gamma 90.000000
_cell_volume 1851.856747
_symmetry_space_group_name_H-M "C 2/C"
_symmetry_group_IT_number 15
_symmetry_cell_setting 'monoclinic'
loop_
_space_group_symop_operation_xyz
x,y,z
-x,y,1/2-z
-x,-y,-z
x,-y,1/2+z
1/2+x,1/2+y,z
1/2-x,1/2+y,1/2-z
1/2-x,1/2-y,-z
1/2+x,1/2-y,1/2+z
loop_
_atom_site_type_symbol
_atom_site_label
_atom_site_fract_x
_atom_site_fract_y
_atom_site_fract_z
Si Si1 0.052620 0.076612 0.914982
Si Si2 0.955331 0.409003 0.568305
Si Si3 0.771709 0.833915 0.208996
Si Si4 0.704581 0.118445 0.335963
Si Si5 0.832247 0.909877 0.582790
Si Si6 0.603734 0.745588 0.187531
O O1 0.000000 0.119774 0.750000
O O2 0.881468 0.005283 0.634094
O O3 0.086720 0.158746 0.047116
O O4 0.000000 0.000000 0.000000
O O5 0.872075 0.435647 0.626519
O O6 0.946455 0.332265 0.406792
O O7 0.000000 0.370935 0.750000
O O8 0.000000 0.500000 0.500000
O O9 0.818152 0.732822 0.197625
O O10 0.686673 0.794234 0.219638
O O11 0.801036 0.893598 0.380663
O O12 0.758263 0.883713 0.019584
O O13 0.758030 0.092414 0.188097
O O14 0.891091 0.818865 0.634968
#
# Coordination Sequence:
#
# PCOD9293869 Si02
#       6
#     8   8   8   8   8   8
#     4  12  26  47  71 121 163 209 264 332 416 498
#     4  11  26  54  76 111 160 217 273 338 414 484
#     4   9  20  43  82 116 157 209 267 337 406 473
#     4   9  20  45  77 113 153 207 269 331 400 475
#     4  11  23  47  82 121 159 212 274 334 411 505
#     4  10  22  48  81 111 163 208 267 334 409 486
#
# _framework density 25.919930000000001
#
# number of rings (size 3 to 8) (size 9 to 14) (size 15 to 20)
#    0.000    1.667    1.667    3.500    0.000    6.667 
#   18.000    0.000    0.000    0.000    0.000    1.167 
#    0.000    0.000    0.000    0.000    0.000    0.000 
#
# Total GULP energy -134212.516569 kJ/mol
# GULP energy per Si atom -5592.188190 kJ/mol
# Density = 2.586094 g / cm^3
# Si number density = 25.919930 Si / 1000 Ang^3
#
#
#
# Elastic Constant Matrix: (Units=GPa)
#
#
# Indices 1 2 3 4 5 6 
#
# 1 153.7272 58.2600 55.7372 0.0000 -8.0450 0.0000
# 2 58.2600 116.1936 53.7776 0.0000 3.9313 0.0000
# 3 55.7372 53.7776 201.4821 0.0000 10.3926 0.0000
# 4 0.0000 0.0000 0.0000 47.2820 0.0000 5.2901
# 5 -8.0450 3.9313 10.3926 0.0000 45.3148 0.0000
# 6 0.0000 0.0000 0.0000 5.2901 0.0000 44.8835
#
#
#
# Elastic Compliance Matrix: (Units=1/GPa)
#
#
# Indices 1 2 3 4 5 6 
#
# 1 0.008553 -0.003668 -0.001499 0.000000 0.002181 0.000000
# 2 -0.003668 0.011396 -0.001965 0.000000 -0.001189 0.000000
# 3 -0.001499 -0.001965 0.005978 0.000000 -0.001467 0.000000
# 4 0.000000 0.000000 0.000000 0.021432 0.000000 -0.002526
# 5 0.002181 -0.001189 -0.001467 0.000000 0.022895 0.000000
# 6 0.000000 0.000000 0.000000 -0.002526 0.000000 0.022578
#
#
# Mechanical properties :
#
#
# Convention : Reuss Voigt Hill
#
# Bulk Modulus (GPa) = 85.76031 89.66138 87.71085
# Shear Modulus (GPa) = 45.05130 47.73793 46.39461
#
# Velocity S-wave (km/s) = 4.17357 4.29621 4.23533
# Velocity P-wave (km/s) = 7.50889 7.69914 7.60461
#
# Compressibility (1/GPa) = 0.01166040
#
# Stress axis : x y z
#
# Youngs Moduli (GPa) = 116.91750 87.75356 167.27226
#
# Poissons Ratio (x) = 0.32191 0.25082
# Poissons Ratio (y) = 0.42889 0.32877
# Poissons Ratio (z) = 0.17531 0.17248
#
# Static dielectric constant tensor:
#      x y z
#    x 2.158580 0.000000 -0.030890 
#    y 0.000000 2.127410 0.000000 
#    z -0.030890 0.000000 2.000580 
# 
# From -- ./inp_files/104245.got.cif
#   From: 2010.05.17/outbox.cif.g08.bks.cpg/sg15_53_cif.got.tgz:104245.got - 2010.06.03 18:47:42.
