data_PCOD9293863
_publ_section_title
;
Structure prediction by ZEFSAII (Michael W. Deem and Ramdas Pophale) SiO2 
 PCOD9293863
Probable space group: C 2/C
;
_chemical_formula_sum "Si O2"
_cell_formula_units_Z 36
_cell_length_a 17.223277
_cell_length_b 11.182449
_cell_length_c 9.456561
_cell_angle_alpha 90.000000
_cell_angle_beta 48.893800
_cell_angle_gamma 90.000000
_cell_volume 1372.349512
_symmetry_space_group_name_H-M "C 2/C"
_symmetry_group_IT_number 15
_symmetry_cell_setting 'monoclinic'
loop_
_space_group_symop_operation_xyz
x,y,z
-x,y,1/2-z
-x,-y,-z
x,-y,1/2+z
1/2+x,1/2+y,z
1/2-x,1/2+y,1/2-z
1/2-x,1/2-y,-z
1/2+x,1/2-y,1/2+z
loop_
_atom_site_type_symbol
_atom_site_label
_atom_site_fract_x
_atom_site_fract_y
_atom_site_fract_z
Si Si1 0.283275 0.888944 0.474209
Si Si2 0.374616 0.929529 0.658035
Si Si3 0.250000 0.250000 0.500000
Si Si4 0.439233 0.791928 0.953688
Si Si5 0.938862 0.086574 0.178039
O O1 0.250000 0.750000 0.500000
O O2 0.364143 0.909956 0.503244
O O3 0.200849 0.674054 0.190860
O O4 0.176273 0.955862 0.645597
O O5 0.327768 0.050564 0.780228
O O6 0.485399 0.898666 0.593334
O O7 0.331634 0.183970 0.509895
O O8 0.500000 0.724968 0.750000
O O9 0.431801 0.707307 0.096853
O O10 0.000000 0.102767 0.250000
O O11 0.000000 0.000000 0.000000
#
# Coordination Sequence:
#
# PCOD9293863 Si02
#       5
#     8   8   4   8   8
#     4  12  28  49  77 119 166 211 275 341 419 497
#     4  11  26  47  82 113 161 212 273 340 416 492
#     4  10  22  48  78 108 154 208 270 318 418 476
#     4  10  23  46  77 111 148 210 264 330 402 492
#     4  12  25  43  73 112 152 205 272 333 403 484
#
# _framework density 26.232382999999999
#
# number of rings (size 3 to 8) (size 9 to 14) (size 15 to 20)
#    0.000    0.889    2.222    3.333    9.333    0.000 
#    0.000   21.111    0.000    0.000    0.000    0.000 
#    0.000    0.000    0.000    0.000    0.000    0.000 
#
# Total GULP energy -100469.261118 kJ/mol
# GULP energy per Si atom -5581.625618 kJ/mol
# Density = 2.617268 g / cm^3
# Si number density = 26.232383 Si / 1000 Ang^3
#
#
#
# Elastic Constant Matrix: (Units=GPa)
#
#
# Indices 1 2 3 4 5 6 
#
# 1 211.9958 59.5186 54.2826 0.0000 27.2432 0.0000
# 2 59.5186 90.5254 44.4692 0.0000 -8.7938 0.0000
# 3 54.2826 44.4692 139.1409 0.0000 13.9225 0.0000
# 4 0.0000 0.0000 0.0000 44.3486 0.0000 3.0385
# 5 27.2432 -8.7938 13.9225 0.0000 63.8413 0.0000
# 6 0.0000 0.0000 0.0000 3.0385 0.0000 38.8354
#
#
#
# Elastic Compliance Matrix: (Units=1/GPa)
#
#
# Indices 1 2 3 4 5 6 
#
# 1 0.006519 -0.004150 -0.000901 0.000000 -0.003157 0.000000
# 2 -0.004150 0.016247 -0.004063 0.000000 0.004895 0.000000
# 3 -0.000901 -0.004063 0.009052 0.000000 -0.002149 0.000000
# 4 0.000000 0.000000 0.000000 0.022670 0.000000 -0.001774
# 5 -0.003157 0.004895 -0.002149 0.000000 0.018154 0.000000
# 6 0.000000 0.000000 0.000000 -0.001774 0.000000 0.025888
#
#
# Mechanical properties :
#
#
# Convention : Reuss Voigt Hill
#
# Bulk Modulus (GPa) = 73.58759 84.24475 78.91617
# Shear Modulus (GPa) = 41.22440 48.29784 44.76112
#
# Velocity S-wave (km/s) = 3.96853 4.29552 4.13526
# Velocity P-wave (km/s) = 7.00800 7.53568 7.27662
#
# Compressibility (1/GPa) = 0.01358925
#
# Stress axis : x y z
#
# Youngs Moduli (GPa) = 153.40879 61.55144 110.47213
#
# Poissons Ratio (x) = 0.25543 0.09952
# Poissons Ratio (y) = 0.63663 0.44887
# Poissons Ratio (z) = 0.13820 0.25009
#
# Static dielectric constant tensor:
#      x y z
#    x 1.954730 0.000000 -0.063600 
#    y 0.000000 2.174660 0.000000 
#    z -0.063600 0.000000 2.141220 
# 
# From -- ./inp_files/38516.got.cif
#   From: 2010.05.17/outbox.cif.g08.bks.cpg/sg15_20_cif.got.tgz:38516.got - 2010.06.03 18:47:42.
