data_PCOD9293444
_publ_section_title
;
Structure prediction by ZEFSAII (Michael W. Deem and Ramdas Pophale) SiO2 
 PCOD9293444
Probable space group: C 2/C
;
_chemical_formula_sum "Si O2"
_cell_formula_units_Z 48
_cell_length_a 14.114482
_cell_length_b 14.024150
_cell_length_c 10.351192
_cell_angle_alpha 90.000000
_cell_angle_beta 62.733638
_cell_angle_gamma 90.000000
_cell_volume 1821.285767
_symmetry_space_group_name_H-M "C 2/C"
_symmetry_group_IT_number 15
_symmetry_cell_setting 'monoclinic'
loop_
_space_group_symop_operation_xyz
x,y,z
-x,y,1/2-z
-x,-y,-z
x,-y,1/2+z
1/2+x,1/2+y,z
1/2-x,1/2+y,1/2-z
1/2-x,1/2-y,-z
1/2+x,1/2-y,1/2+z
loop_
_atom_site_type_symbol
_atom_site_label
_atom_site_fract_x
_atom_site_fract_y
_atom_site_fract_z
Si Si1 0.821590 0.859082 0.234256
Si Si2 0.546569 0.553299 0.600812
Si Si3 0.102322 0.315486 0.971025
Si Si4 0.609917 0.095063 0.191481
Si Si5 0.117323 0.259450 0.470308
Si Si6 0.255342 0.440456 0.036699
O O1 0.866555 0.790218 0.094035
O O2 0.734591 0.793975 0.359058
O O3 0.925592 0.907121 0.236750
O O4 0.759363 0.936437 0.189932
O O5 0.500000 0.500000 0.500000
O O6 0.605193 0.646820 0.500932
O O7 0.627414 0.463502 0.588544
O O8 0.125999 0.380701 0.830168
O O9 0.181473 0.356498 0.028610
O O10 0.974237 0.304148 0.066402
O O11 0.500000 0.037067 0.250000
O O12 0.592420 0.192435 0.123440
O O13 0.693299 0.038692 0.053793
#
# Coordination Sequence:
#
# PCOD9293444 Si02
#       6
#     8   8   8   8   8   8
#     4  11  24  44  69  95 143 184 227 277 351 431
#     4  11  24  44  71 102 135 183 240 290 341 414
#     4  10  24  44  65 102 133 180 233 284 344 416
#     4  10  23  40  68  99 129 165 229 288 335 397
#     4  10  22  45  75  97 130 186 238 283 339 417
#     4  12  26  40  66 101 145 174 222 286 359 409
#
# _framework density 26.355004999999998
#
# number of rings (size 3 to 8) (size 9 to 14) (size 15 to 20)
#    0.000    1.333    0.000    5.500    7.000    3.333 
#    6.000    0.000    0.000    0.000    0.000    0.000 
#    0.000    0.000    0.000    0.000    0.000    0.000 
#
# Total GULP energy -133894.681086 kJ/mol
# GULP energy per Si atom -5578.945045 kJ/mol
# Density = 2.629502 g / cm^3
# Si number density = 26.355005 Si / 1000 Ang^3
#
#
#
# Elastic Constant Matrix: (Units=GPa)
#
#
# Indices 1 2 3 4 5 6 
#
# 1 202.4298 38.4626 53.6874 0.0000 -15.6577 0.0000
# 2 38.4626 106.9918 26.4817 0.0000 -14.4169 0.0000
# 3 53.6874 26.4817 81.9203 0.0000 -25.5676 0.0000
# 4 0.0000 0.0000 0.0000 41.0291 0.0000 -1.1168
# 5 -15.6577 -14.4169 -25.5676 0.0000 40.6691 0.0000
# 6 0.0000 0.0000 0.0000 -1.1168 0.0000 42.6060
#
#
#
# Elastic Compliance Matrix: (Units=1/GPa)
#
#
# Indices 1 2 3 4 5 6 
#
# 1 0.006152 -0.001348 -0.003740 0.000000 -0.000460 0.000000
# 2 -0.001348 0.010576 -0.001900 0.000000 0.002036 0.000000
# 3 -0.003740 -0.001900 0.018180 0.000000 0.009316 0.000000
# 4 0.000000 0.000000 0.000000 0.024390 0.000000 0.000639
# 5 -0.000460 0.002036 0.009316 0.000000 0.030990 0.000000
# 6 0.000000 0.000000 0.000000 0.000639 0.000000 0.023488
#
#
# Mechanical properties :
#
#
# Convention : Reuss Voigt Hill
#
# Bulk Modulus (GPa) = 47.77430 69.84505 58.80967
# Shear Modulus (GPa) = 37.11171 43.04153 40.07662
#
# Velocity S-wave (km/s) = 3.75660 4.04560 3.90378
# Velocity P-wave (km/s) = 6.08133 6.95569 6.53316
#
# Compressibility (1/GPa) = 0.02093176
#
# Stress axis : x y z
#
# Youngs Moduli (GPa) = 162.53793 94.55658 55.00666
#
# Poissons Ratio (x) = 0.12747 0.20572
# Poissons Ratio (y) = 0.21912 0.10451
# Poissons Ratio (z) = 0.60789 0.17965
#
# Static dielectric constant tensor:
#      x y z
#    x 2.374550 0.000000 0.088920 
#    y 0.000000 2.051120 0.000000 
#    z 0.088920 0.000000 2.377340 
# 
# From -- ./inp_files/96843.got.cif
#   From: 2010.05.17/outbox.cif.g08.bks.cpg/sg15_49_cif.got.tgz:96843.got - 2010.06.03 18:47:42.
