data_PCOD9293905
_publ_section_title
;
Structure prediction by ZEFSAII (Michael W. Deem and Ramdas Pophale) SiO2 
 PCOD9293905
Probable space group: C 2/C
;
_chemical_formula_sum "Si O2"
_cell_formula_units_Z 56
_cell_length_a 15.548816
_cell_length_b 10.229980
_cell_length_c 21.502926
_cell_angle_alpha 90.000000
_cell_angle_beta 58.018842
_cell_angle_gamma 90.000000
_cell_volume 2901.211324
_symmetry_space_group_name_H-M "C 2/C"
_symmetry_group_IT_number 15
_symmetry_cell_setting 'monoclinic'
loop_
_space_group_symop_operation_xyz
x,y,z
-x,y,1/2-z
-x,-y,-z
x,-y,1/2+z
1/2+x,1/2+y,z
1/2-x,1/2+y,1/2-z
1/2-x,1/2-y,-z
1/2+x,1/2-y,1/2+z
loop_
_atom_site_type_symbol
_atom_site_label
_atom_site_fract_x
_atom_site_fract_y
_atom_site_fract_z
Si Si1 0.812241 0.288983 0.690485
Si Si2 0.243924 0.564090 0.802013
Si Si3 0.918287 0.180356 0.532484
Si Si4 0.809009 0.796399 0.393453
Si Si5 0.509041 0.081463 0.931798
Si Si6 0.362082 0.599811 0.005585
Si Si7 0.011614 0.590057 0.175878
O O1 0.739006 0.413315 0.720169
O O2 0.766453 0.158798 0.736462
O O3 0.848778 0.260042 0.606851
O O4 0.908384 0.337737 0.694230
O O5 0.309846 0.610375 0.834426
O O6 0.127543 0.583566 0.868375
O O7 0.958418 0.278604 0.464064
O O8 0.020386 0.141513 0.531557
O O9 0.863111 0.049356 0.529338
O O10 0.708335 0.704726 0.431243
O O11 0.820569 0.880514 0.451771
O O12 0.901599 0.697412 0.355121
O O13 0.461235 0.008358 0.890632
O O14 0.500000 0.000000 0.000000
O O15 0.000000 0.532876 0.250000
#
# Coordination Sequence:
#
# PCOD9293905 Si02
#       7
#     8   8   8   8   8   8   8
#     4  11  24  40  64  97 128 172 211 271 330 392
#     4  11  24  39  66  93 131 167 220 262 330 392
#     4  11  21  41  63  96 128 170 216 274 319 391
#     4  11  21  40  59  95 120 168 208 271 316 390
#     4  11  21  41  67  92 124 176 213 264 329 393
#     4  10  23  34  65  95 124 158 222 268 321 377
#     4  11  22  39  63  92 130 169 215 265 330 390
#
# _framework density 19.302282999999999
#
# number of rings (size 3 to 8) (size 9 to 14) (size 15 to 20)
#    0.000    1.143    7.143    0.000    4.000    0.000 
#    0.000    5.714    0.000    0.000    0.000    0.000 
#    0.000    0.000    0.000    0.000    0.000    0.000 
#
# Total GULP energy -156289.804167 kJ/mol
# GULP energy per Si atom -5581.778720 kJ/mol
# Density = 1.925835 g / cm^3
# Si number density = 19.302283 Si / 1000 Ang^3
#
#
#
# Elastic Constant Matrix: (Units=GPa)
#
#
# Indices 1 2 3 4 5 6 
#
# 1 54.8493 28.5370 2.0984 0.0000 12.0994 0.0000
# 2 28.5370 120.0113 21.6287 0.0000 16.3921 0.0000
# 3 2.0984 21.6287 57.8853 0.0000 17.1804 0.0000
# 4 0.0000 0.0000 0.0000 31.6960 0.0000 -6.0530
# 5 12.0994 16.3921 17.1804 0.0000 19.0750 0.0000
# 6 0.0000 0.0000 0.0000 -6.0530 0.0000 32.1242
#
#
#
# Elastic Compliance Matrix: (Units=1/GPa)
#
#
# Indices 1 2 3 4 5 6 
#
# 1 0.023982 -0.004476 0.005700 0.000000 -0.016499 0.000000
# 2 -0.004476 0.010376 -0.002608 0.000000 -0.003728 0.000000
# 3 0.005700 -0.002608 0.025183 0.000000 -0.024056 0.000000
# 4 0.000000 0.000000 0.000000 0.032727 0.000000 0.006167
# 5 -0.016499 -0.003728 -0.024056 0.000000 0.087761 0.000000
# 6 0.000000 0.000000 0.000000 0.006167 0.000000 0.032291
#
#
# Mechanical properties :
#
#
# Convention : Reuss Voigt Hill
#
# Bulk Modulus (GPa) = 17.61391 37.47491 27.54441
# Shear Modulus (GPa) = 21.36615 28.61115 24.98865
#
# Velocity S-wave (km/s) = 3.33066 3.85420 3.60195
# Velocity P-wave (km/s) = 4.89246 6.26605 5.62137
#
# Compressibility (1/GPa) = 0.05677330
#
# Stress axis : x y z
#
# Youngs Moduli (GPa) = 41.69740 96.37380 39.70871
#
# Poissons Ratio (x) = 0.43140 -0.22635
# Poissons Ratio (y) = 0.18665 0.10357
# Poissons Ratio (z) = -0.23768 0.25136
#
# Static dielectric constant tensor:
#      x y z
#    x 1.698400 0.000000 0.003830 
#    y 0.000000 1.694880 0.000000 
#    z 0.003830 0.000000 1.692320 
# 
# From -- ./inp_files/276508.got.cif
#   From: 2010.05.17/outbox.cif.g08.bks.cpg/sg15_139_cif.got.tgz:276508.got - 2010.06.03 18:47:42.
