data_PCOD9293234
_publ_section_title
;
Structure prediction by ZEFSAII (Michael W. Deem and Ramdas Pophale) SiO2 
 PCOD9293234
Probable space group: C 2/C
;
_chemical_formula_sum "Si O2"
_cell_formula_units_Z 60
_cell_length_a 20.937510
_cell_length_b 8.666711
_cell_length_c 18.213036
_cell_angle_alpha 90.000000
_cell_angle_beta 122.865074
_cell_angle_gamma 90.000000
_cell_volume 2775.974981
_symmetry_space_group_name_H-M "C 2/C"
_symmetry_group_IT_number 15
_symmetry_cell_setting 'monoclinic'
loop_
_space_group_symop_operation_xyz
x,y,z
-x,y,1/2-z
-x,-y,-z
x,-y,1/2+z
1/2+x,1/2+y,z
1/2-x,1/2+y,1/2-z
1/2-x,1/2-y,-z
1/2+x,1/2-y,1/2+z
loop_
_atom_site_type_symbol
_atom_site_label
_atom_site_fract_x
_atom_site_fract_y
_atom_site_fract_z
Si Si1 0.500000 0.553130 0.250000
Si Si2 0.655969 0.414864 0.025311
Si Si3 0.339104 0.447991 0.823430
Si Si4 0.201272 0.135208 0.921742
Si Si5 0.782901 0.609941 0.369069
Si Si6 0.600488 0.700920 0.732424
Si Si7 0.499014 0.292334 0.891695
Si Si8 0.444418 0.968937 0.896010
O O1 0.447280 0.439683 0.263190
O O2 0.469083 0.663458 0.168204
O O3 0.680981 0.533459 0.104647
O O4 0.704296 0.259190 0.070848
O O5 0.662015 0.513414 0.954051
O O6 0.569925 0.348982 0.985247
O O7 0.280242 0.362094 0.733735
O O8 0.345830 0.621042 0.794679
O O9 0.423233 0.377995 0.871523
O O10 0.148599 0.240275 0.835021
O O11 0.251083 0.027542 0.899644
O O12 0.250000 0.250000 0.000000
O O13 0.860166 0.550812 0.377786
O O14 0.550785 0.825445 0.657746
O O15 0.467765 0.119939 0.865923
O O16 0.500000 0.000000 0.000000
#
# Coordination Sequence:
#
# PCOD9293234 Si02
#       8
#     4   8   8   8   8   8   8   8
#     4  10  22  46  68  94 144 188 232 282 362 440
#     4  12  23  47  72 103 149 190 246 304 364 445
#     4  10  24  41  73 100 138 191 241 290 370 438
#     4  11  27  44  70 104 145 193 244 299 376 438
#     4  11  26  46  68 105 146 190 244 310 368 446
#     4  10  22  45  66 101 140 184 234 298 358 437
#     4  11  24  43  71 106 138 190 241 298 369 439
#     4  12  25  43  71 106 142 181 246 308 368 431
#
# _framework density 21.614027
#
# number of rings (size 3 to 8) (size 9 to 14) (size 15 to 20)
#    0.000    1.067    4.000    0.800    5.600    2.667 
#    2.400    0.000    0.000    0.000    0.000    0.000 
#    0.000    0.000    0.000    0.000    0.000    0.000 
#
# Total GULP energy -167073.472988 kJ/mol
# GULP energy per Si atom -5569.115766 kJ/mol
# Density = 2.156483 g / cm^3
# Si number density = 21.614027 Si / 1000 Ang^3
#
#
#
# Elastic Constant Matrix: (Units=GPa)
#
#
# Indices 1 2 3 4 5 6 
#
# 1 67.2827 20.7288 20.7155 0.0000 -6.0313 0.0000
# 2 20.7288 95.0146 39.9421 0.0000 -4.9423 0.0000
# 3 20.7155 39.9421 123.2823 0.0000 -1.1641 0.0000
# 4 0.0000 0.0000 0.0000 17.1965 0.0000 -11.1257
# 5 -6.0313 -4.9423 -1.1641 0.0000 40.8837 0.0000
# 6 0.0000 0.0000 0.0000 -11.1257 0.0000 32.2768
#
#
#
# Elastic Compliance Matrix: (Units=1/GPa)
#
#
# Indices 1 2 3 4 5 6 
#
# 1 0.016453 -0.002696 -0.001872 0.000000 0.002048 0.000000
# 2 -0.002696 0.012702 -0.003653 0.000000 0.001034 0.000000
# 3 -0.001872 -0.003653 0.009605 0.000000 -0.000444 0.000000
# 4 0.000000 0.000000 0.000000 0.074842 0.000000 0.025798
# 5 0.002048 0.001034 -0.000444 0.000000 0.024874 0.000000
# 6 0.000000 0.000000 0.000000 0.025798 0.000000 0.039874
#
#
# Mechanical properties :
#
#
# Convention : Reuss Voigt Hill
#
# Bulk Modulus (GPa) = 44.80383 49.81696 47.31039
# Shear Modulus (GPa) = 24.72412 31.68426 28.20419
#
# Velocity S-wave (km/s) = 3.38582 3.83288 3.61626
# Velocity P-wave (km/s) = 6.00492 6.53348 6.27477
#
# Compressibility (1/GPa) = 0.02231952
#
# Stress axis : x y z
#
# Youngs Moduli (GPa) = 60.77855 78.72708 104.11041
#
# Poissons Ratio (x) = 0.21225 0.19488
# Poissons Ratio (y) = 0.16386 0.38027
# Poissons Ratio (z) = 0.11377 0.28755
#
# Static dielectric constant tensor:
#      x y z
#    x 1.776330 0.000000 -0.001420 
#    y 0.000000 2.065550 0.000000 
#    z -0.001420 0.000000 1.966260 
# 
# From -- ./inp_files/214302.got.cif
#   From: 2010.05.17/outbox.cif.g08.bks.cpg/sg15_108_cif.got.tgz:214302.got - 2010.06.03 18:47:42.
