data_PCOD9293257
_publ_section_title
;
Structure prediction by ZEFSAII (Michael W. Deem and Ramdas Pophale) SiO2 
 PCOD9293257
Probable space group: C 2/C
;
_chemical_formula_sum "Si O2"
_cell_formula_units_Z 44
_cell_length_a 5.131628
_cell_length_b 23.208008
_cell_length_c 19.013777
_cell_angle_alpha 90.000000
_cell_angle_beta 49.840710
_cell_angle_gamma 90.000000
_cell_volume 1730.610774
_symmetry_space_group_name_H-M "C 2/C"
_symmetry_group_IT_number 15
_symmetry_cell_setting 'monoclinic'
loop_
_space_group_symop_operation_xyz
x,y,z
-x,y,1/2-z
-x,-y,-z
x,-y,1/2+z
1/2+x,1/2+y,z
1/2-x,1/2+y,1/2-z
1/2-x,1/2-y,-z
1/2+x,1/2-y,1/2+z
loop_
_atom_site_type_symbol
_atom_site_label
_atom_site_fract_x
_atom_site_fract_y
_atom_site_fract_z
Si Si1 0.793551 0.734774 0.911266
Si Si2 0.766051 0.051623 0.432305
Si Si3 0.231100 0.102710 0.934026
Si Si4 0.865183 0.343610 0.645369
Si Si5 0.456292 0.556993 0.838768
Si Si6 0.000000 0.284552 0.750000
O O1 0.673666 0.669218 0.929117
O O2 0.596876 0.783428 0.902636
O O3 0.173724 0.742048 0.811196
O O4 0.750000 0.750000 0.000000
O O5 0.971195 0.071448 0.466724
O O6 0.627733 0.105176 0.411361
O O7 0.500000 0.000000 0.500000
O O8 0.977501 0.012268 0.341228
O O9 0.595854 0.091584 0.908472
O O10 0.185282 0.074953 0.865607
O O11 0.500000 0.345480 0.750000
O O12 0.101867 0.329831 0.670552
O O13 0.500000 0.571721 0.750000
#
# Coordination Sequence:
#
# PCOD9293257 Si02
#       6
#     8   8   8   8   8   4
#     4  11  24  44  72 103 143 190 242 304 376 445
#     4  10  22  45  67  99 138 186 249 299 359 443
#     4  11  25  44  71 104 140 186 244 298 366 441
#     4  10  22  45  67 103 141 183 245 300 370 438
#     4  11  25  44  68 101 142 190 237 300 366 432
#     4  10  26  42  70 110 146 192 240 314 374 456
#
# _framework density 25.424548000000001
#
# number of rings (size 3 to 8) (size 9 to 14) (size 15 to 20)
#    0.000    1.455    1.818    1.636    3.818    6.545 
#   19.636    0.000    0.000    0.000    0.000    0.000 
#    0.000    0.000    0.000    0.000    0.000    0.000 
#
# Total GULP energy -122528.626026 kJ/mol
# GULP energy per Si atom -5569.483001 kJ/mol
# Density = 2.536668 g / cm^3
# Si number density = 25.424548 Si / 1000 Ang^3
#
#
#
# Elastic Constant Matrix: (Units=GPa)
#
#
# Indices 1 2 3 4 5 6 
#
# 1 77.3036 49.8946 51.9755 0.0000 37.8139 0.0000
# 2 49.8946 194.1504 42.2834 0.0000 41.4199 0.0000
# 3 51.9755 42.2834 117.6339 0.0000 47.8164 0.0000
# 4 0.0000 0.0000 0.0000 40.6485 0.0000 14.4032
# 5 37.8139 41.4199 47.8164 0.0000 55.7662 0.0000
# 6 0.0000 0.0000 0.0000 14.4032 0.0000 -3.9566
#
#
#
# Elastic Compliance Matrix: (Units=1/GPa)
#
#
# Indices 1 2 3 4 5 6 
#
# 1 0.022626 -0.002791 -0.005526 0.000000 -0.008531 0.000000
# 2 -0.002791 0.006487 0.000139 0.000000 -0.003045 0.000000
# 3 -0.005526 0.000139 0.014447 0.000000 -0.008743 0.000000
# 4 0.000000 0.000000 0.000000 0.010743 0.000000 0.039109
# 5 -0.008531 -0.003045 -0.008743 0.000000 0.033475 0.000000
# 6 0.000000 0.000000 0.000000 0.039109 0.000000 -0.110373
#
#
# Mechanical properties :
#
#
# Convention : Reuss Voigt Hill
#
# Bulk Modulus (GPa) = 36.75997 75.26610 56.01304
# Shear Modulus (GPa) = 1767.03517 34.82059 900.92788
#
# Velocity S-wave (km/s) = 26.39167 3.70478 18.84470
# Velocity P-wave (km/s) = 30.71129 6.92593 22.26154
#
# Compressibility (1/GPa) = 0.02720350
#
# Stress axis : x y z
#
# Youngs Moduli (GPa) = 44.19695 154.14810 69.22003
#
# Poissons Ratio (x) = 0.43025 0.38253
# Poissons Ratio (y) = 0.12336 -0.00963
# Poissons Ratio (z) = 0.24424 -0.02146
#
# Static dielectric constant tensor:
#      x y z
#    x 2.154750 0.000000 -0.257190 
#    y 0.000000 2.038900 0.000000 
#    z -0.257190 0.000000 2.583290 
# 
# From -- ./inp_files/227231.got.cif
#   From: 2010.05.17/outbox.cif.g08.bks.cpg/sg15_114_cif.got.tgz:227231.got - 2010.06.03 18:47:42.
