data_PCOD9293174
_publ_section_title
;
Structure prediction by ZEFSAII (Michael W. Deem and Ramdas Pophale) SiO2 
 PCOD9293174
Probable space group: C 2/C
;
_chemical_formula_sum "Si O2"
_cell_formula_units_Z 20
_cell_length_a 6.733208
_cell_length_b 17.446853
_cell_length_c 8.321244
_cell_angle_alpha 90.000000
_cell_angle_beta 57.455187
_cell_angle_gamma 90.000000
_cell_volume 824.024258
_symmetry_space_group_name_H-M "C 2/C"
_symmetry_group_IT_number 15
_symmetry_cell_setting 'monoclinic'
loop_
_space_group_symop_operation_xyz
x,y,z
-x,y,1/2-z
-x,-y,-z
x,-y,1/2+z
1/2+x,1/2+y,z
1/2-x,1/2+y,1/2-z
1/2-x,1/2-y,-z
1/2+x,1/2-y,1/2+z
loop_
_atom_site_type_symbol
_atom_site_label
_atom_site_fract_x
_atom_site_fract_y
_atom_site_fract_z
Si Si1 0.500000 0.888359 0.750000
Si Si2 0.651258 0.165306 0.524248
Si Si3 0.274445 0.500076 0.446598
O O1 0.467904 0.839951 0.600920
O O2 0.723413 0.944145 0.618841
O O3 0.500000 0.153265 0.750000
O O4 0.750000 0.250000 0.500000
O O5 0.813244 0.089890 0.459770
O O6 0.500000 0.469875 0.250000
O O7 0.000000 0.500000 0.500000
#
# Coordination Sequence:
#
# PCOD9293174 Si02
#       3
#     4   8   8
#     4  10  24  48  74 108 150 196 254 314 372 448
#     4  11  24  45  71 110 151 196 251 312 381 448
#     4  10  22  44  76 112 148 196 254 310 375 452
#
# _framework density 24.271128999999998
#
# number of rings (size 3 to 8) (size 9 to 14) (size 15 to 20)
#    0.000    1.600    2.000    1.200    0.000    8.000 
#   14.400    0.000    0.000    0.000    0.000    0.000 
#    0.000    0.000    0.000    0.000    0.000    0.000 
#
# Total GULP energy -55720.356302 kJ/mol
# GULP energy per Si atom -5572.035630 kJ/mol
# Density = 2.421589 g / cm^3
# Si number density = 24.271129 Si / 1000 Ang^3
#
#
#
# Elastic Constant Matrix: (Units=GPa)
#
#
# Indices 1 2 3 4 5 6 
#
# 1 148.9289 44.5642 72.6938 0.0000 15.3547 0.0000
# 2 44.5642 169.9269 66.2205 0.0000 5.0613 0.0000
# 3 72.6938 66.2205 285.8404 0.0000 -10.3289 0.0000
# 4 0.0000 0.0000 0.0000 -36.9904 0.0000 -32.2676
# 5 15.3547 5.0613 -10.3289 0.0000 58.3599 0.0000
# 6 0.0000 0.0000 0.0000 -32.2676 0.0000 12.5154
#
#
#
# Elastic Compliance Matrix: (Units=1/GPa)
#
#
# Indices 1 2 3 4 5 6 
#
# 1 0.008288 -0.001371 -0.001877 0.000000 -0.002394 0.000000
# 2 -0.001371 0.006736 -0.001228 0.000000 -0.000441 0.000000
# 3 -0.001877 -0.001228 0.004309 0.000000 0.001363 0.000000
# 4 0.000000 0.000000 0.000000 -0.008321 0.000000 -0.021452
# 5 -0.002394 -0.000441 0.001363 0.000000 0.018044 0.000000
# 6 0.000000 0.000000 0.000000 -0.021452 0.000000 0.024592
#
#
# Mechanical properties :
#
#
# Convention : Reuss Voigt Hill
#
# Bulk Modulus (GPa) = 96.31619 107.96149 102.13884
# Shear Modulus (GPa) = 75.68838 34.85814 55.27326
#
# Velocity S-wave (km/s) = 5.59037 3.79383 4.77731
# Velocity P-wave (km/s) = 9.02437 7.98554 8.52080
#
# Compressibility (1/GPa) = 0.01038247
#
# Stress axis : x y z
#
# Youngs Moduli (GPa) = 120.66226 148.45572 232.05090
#
# Poissons Ratio (x) = 0.20351 0.43546
# Poissons Ratio (y) = 0.16541 0.28492
# Poissons Ratio (z) = 0.22643 0.18228
#
# Static dielectric constant tensor:
#      x y z
#    x 2.187330 0.000000 0.141220 
#    y 0.000000 1.955500 0.000000 
#    z 0.141220 0.000000 2.141190 
# 
# From -- ./inp_files/21314.got.cif
#   From: 2010.05.17/outbox.cif.g08.bks.cpg/sg15_11_cif.got.tgz:21314.got - 2010.06.03 18:47:42.
