data_PCOD9293207
_publ_section_title
;
Structure prediction by ZEFSAII (Michael W. Deem and Ramdas Pophale) SiO2 
 PCOD9293207
Probable space group: C 2/C
;
_chemical_formula_sum "Si O2"
_cell_formula_units_Z 36
_cell_length_a 15.760354
_cell_length_b 23.205121
_cell_length_c 9.589953
_cell_angle_alpha 90.000000
_cell_angle_beta 152.129199
_cell_angle_gamma 90.000000
_cell_volume 1639.565361
_symmetry_space_group_name_H-M "C 2/C"
_symmetry_group_IT_number 15
_symmetry_cell_setting 'monoclinic'
loop_
_space_group_symop_operation_xyz
x,y,z
-x,y,1/2-z
-x,-y,-z
x,-y,1/2+z
1/2+x,1/2+y,z
1/2-x,1/2+y,1/2-z
1/2-x,1/2-y,-z
1/2+x,1/2-y,1/2+z
loop_
_atom_site_type_symbol
_atom_site_label
_atom_site_fract_x
_atom_site_fract_y
_atom_site_fract_z
Si Si1 0.766467 0.178951 0.135714
Si Si2 0.772198 0.942321 0.079705
Si Si3 0.212058 0.054575 0.221601
Si Si4 0.000000 0.656660 0.250000
Si Si5 0.014900 0.271892 0.491612
O O1 0.734924 0.112857 0.122958
O O2 0.968510 0.204106 0.416638
O O3 0.647463 0.197415 0.830925
O O4 0.692100 0.214062 0.160819
O O5 0.991695 0.941166 0.400178
O O6 0.726131 0.998774 0.103231
O O7 0.721718 0.946560 0.842303
O O8 0.671843 0.887051 0.998403
O O9 0.977456 0.698050 0.349380
#
# Coordination Sequence:
#
# PCOD9293207 Si02
#       5
#     8   8   8   4   8
#     4  10  22  45  63  89 129 171 208 260 310 383
#     4  10  24  40  64  95 125 167 213 253 323 368
#     4  10  22  45  63  89 129 171 208 260 310 383
#     4  12  24  40  62 104 124 162 212 268 312 380
#     4  10  24  40  64  95 125 167 213 253 323 368
#
# _framework density 21.957039999999999
#
# number of rings (size 3 to 8) (size 9 to 14) (size 15 to 20)
#    0.000    1.778    2.222    0.000    6.222    5.333 
#    0.000    0.000    0.000    0.000    0.000    0.000 
#    0.000    0.000    0.000    0.000    0.000    0.000 
#
# Total GULP energy -100584.687901 kJ/mol
# GULP energy per Si atom -5588.038217 kJ/mol
# Density = 2.190706 g / cm^3
# Si number density = 21.957040 Si / 1000 Ang^3
#
#
#
# Elastic Constant Matrix: (Units=GPa)
#
#
# Indices 1 2 3 4 5 6 
#
# 1 50.6820 -20.9373 3.7811 0.0000 -18.8936 0.0000
# 2 -20.9373 55.7512 21.5487 0.0000 -11.6895 0.0000
# 3 3.7811 21.5487 34.7310 0.0000 -11.4855 0.0000
# 4 0.0000 0.0000 0.0000 30.7890 0.0000 -5.6864
# 5 -18.8936 -11.6895 -11.4855 0.0000 33.6168 0.0000
# 6 0.0000 0.0000 0.0000 -5.6864 0.0000 28.1510
#
#
#
# Elastic Compliance Matrix: (Units=1/GPa)
#
#
# Indices 1 2 3 4 5 6 
#
# 1 0.042311 0.026375 -0.011357 0.000000 0.029071 0.000000
# 2 0.026375 0.040432 -0.020750 0.000000 0.021793 0.000000
# 3 -0.011357 -0.020750 0.043299 0.000000 0.001195 0.000000
# 4 0.000000 0.000000 0.000000 0.033738 0.000000 0.006815
# 5 0.029071 0.021793 0.001195 0.000000 0.054072 0.000000
# 6 0.000000 0.000000 0.000000 0.006815 0.000000 0.036899
#
#
# Mechanical properties :
#
#
# Convention : Reuss Voigt Hill
#
# Bulk Modulus (GPa) = 8.72768 16.66102 12.69435
# Shear Modulus (GPa) = 16.64404 27.62946 22.13675
#
# Velocity S-wave (km/s) = 2.75622 3.55116 3.17864
# Velocity P-wave (km/s) = 3.75666 4.94154 4.38926
#
# Compressibility (1/GPa) = 0.11457796
#
# Stress axis : x y z
#
# Youngs Moduli (GPa) = 23.63430 24.73309 23.09535
#
# Poissons Ratio (x) = -0.65234 0.26229
# Poissons Ratio (y) = -0.62336 0.47923
# Poissons Ratio (z) = 0.26841 0.51321
#
# Static dielectric constant tensor:
#      x y z
#    x 1.812280 0.000000 0.054970 
#    y 0.000000 1.784560 0.000000 
#    z 0.054970 0.000000 1.823550 
# 
# From -- ./inp_files/23325.got.cif
#   From: 2010.05.17/outbox.cif.g08.bks.cpg/sg15_12_cif.got.tgz:23325.got - 2010.06.03 18:47:42.
