data_PCOD9293943
_publ_section_title
;
Structure prediction by ZEFSAII (Michael W. Deem and Ramdas Pophale) SiO2 
 PCOD9293943
Probable space group: C 2/C
;
_chemical_formula_sum "Si O2"
_cell_formula_units_Z 44
_cell_length_a 16.128547
_cell_length_b 8.967499
_cell_length_c 13.533892
_cell_angle_alpha 90.000000
_cell_angle_beta 119.537938
_cell_angle_gamma 90.000000
_cell_volume 1703.033697
_symmetry_space_group_name_H-M "C 2/C"
_symmetry_group_IT_number 15
_symmetry_cell_setting 'monoclinic'
loop_
_space_group_symop_operation_xyz
x,y,z
-x,y,1/2-z
-x,-y,-z
x,-y,1/2+z
1/2+x,1/2+y,z
1/2-x,1/2+y,1/2-z
1/2-x,1/2-y,-z
1/2+x,1/2-y,1/2+z
loop_
_atom_site_type_symbol
_atom_site_label
_atom_site_fract_x
_atom_site_fract_y
_atom_site_fract_z
Si Si1 0.883108 0.959412 0.003240
Si Si2 0.313873 0.102921 0.604407
Si Si3 0.175853 0.108305 0.251130
Si Si4 0.377924 0.006630 0.325708
Si Si5 0.000000 0.062176 0.750000
Si Si6 0.956577 0.715979 0.521780
O O1 0.849378 0.883690 0.881251
O O2 0.784543 0.030490 0.987042
O O3 0.941070 0.870597 0.121784
O O4 0.945122 0.107573 0.015619
O O5 0.299112 0.239460 0.674507
O O6 0.369346 0.984295 0.703546
O O7 0.119902 0.341894 0.443315
O O8 0.270521 0.005092 0.306061
O O9 0.083907 0.038427 0.250464
O O10 0.446636 0.869247 0.392800
O O11 0.424790 0.151895 0.398878
#
# Coordination Sequence:
#
# PCOD9293943 Si02
#       6
#     8   8   8   8   4   8
#     4  11  23  38  69  99 137 174 228 282 331 400
#     4  11  21  41  70  98 134 179 231 270 336 409
#     4  11  23  41  65 101 132 175 230 284 331 398
#     4  10  23  36  64  98 134 168 229 285 326 391
#     4  12  22  38  62  94 128 178 222 268 332 402
#     4  11  20  40  66  98 132 180 227 270 337 404
#
# _framework density 25.836248000000001
#
# number of rings (size 3 to 8) (size 9 to 14) (size 15 to 20)
#    0.000    1.091    3.636    3.818    0.000    0.000 
#    0.000    0.000   12.000    7.636    0.000    0.000 
#    0.000    0.000    0.000    0.000    0.000    0.000 
#
# Total GULP energy -123052.389272 kJ/mol
# GULP energy per Si atom -5593.290421 kJ/mol
# Density = 2.577744 g / cm^3
# Si number density = 25.836248 Si / 1000 Ang^3
#
#
#
# Elastic Constant Matrix: (Units=GPa)
#
#
# Indices 1 2 3 4 5 6 
#
# 1 145.3745 69.8680 60.2876 0.0000 15.9167 0.0000
# 2 69.8680 61.0174 35.8888 0.0000 -1.7065 0.0000
# 3 60.2876 35.8888 205.6975 0.0000 10.6856 0.0000
# 4 0.0000 0.0000 0.0000 2.0083 0.0000 -5.1049
# 5 15.9167 -1.7065 10.6856 0.0000 52.0335 0.0000
# 6 0.0000 0.0000 0.0000 -5.1049 0.0000 34.0637
#
#
#
# Elastic Compliance Matrix: (Units=1/GPa)
#
#
# Indices 1 2 3 4 5 6 
#
# 1 0.017252 -0.019065 -0.001439 0.000000 -0.005607 0.000000
# 2 -0.019065 0.039415 -0.001677 0.000000 0.007469 0.000000
# 3 -0.001439 -0.001677 0.005616 0.000000 -0.000768 0.000000
# 4 0.000000 0.000000 0.000000 0.804354 0.000000 0.120544
# 5 -0.005607 0.007469 -0.000768 0.000000 0.021336 0.000000
# 6 0.000000 0.000000 0.000000 0.120544 0.000000 0.047422
#
#
# Mechanical properties :
#
#
# Convention : Reuss Voigt Hill
#
# Bulk Modulus (GPa) = 55.80179 82.68647 69.24413
# Shear Modulus (GPa) = 5.07238 34.02409 19.54823
#
# Velocity S-wave (km/s) = 1.40269 3.63287 2.75366
# Velocity P-wave (km/s) = 4.92631 7.04773 6.08026
#
# Compressibility (1/GPa) = 0.01792057
#
# Stress axis : x y z
#
# Youngs Moduli (GPa) = 57.96326 25.37114 178.07241
#
# Poissons Ratio (x) = 0.48371 0.25620
# Poissons Ratio (y) = 1.10509 0.29863
# Poissons Ratio (z) = 0.08340 0.04255
#
# Static dielectric constant tensor:
#      x y z
#    x 2.044530 0.000000 0.018630 
#    y 0.000000 2.046840 0.000000 
#    z 0.018630 0.000000 2.086450 
# 
# From -- ./inp_files/161111.got.cif
#   From: 2010.05.17/outbox.cif.g08.bks.cpg/sg15_81_cif.got.tgz:161111.got - 2010.06.03 18:47:42.
