data_PCOD9293752
_publ_section_title
;
Structure prediction by ZEFSAII (Michael W. Deem and Ramdas Pophale) SiO2 
 PCOD9293752
Probable space group: C 2/C
;
_chemical_formula_sum "Si O2"
_cell_formula_units_Z 36
_cell_length_a 7.796680
_cell_length_b 12.496452
_cell_length_c 17.992252
_cell_angle_alpha 90.000000
_cell_angle_beta 116.843278
_cell_angle_gamma 90.000000
_cell_volume 1564.105638
_symmetry_space_group_name_H-M "C 2/C"
_symmetry_group_IT_number 15
_symmetry_cell_setting 'monoclinic'
loop_
_space_group_symop_operation_xyz
x,y,z
-x,y,1/2-z
-x,-y,-z
x,-y,1/2+z
1/2+x,1/2+y,z
1/2-x,1/2+y,1/2-z
1/2-x,1/2-y,-z
1/2+x,1/2-y,1/2+z
loop_
_atom_site_type_symbol
_atom_site_label
_atom_site_fract_x
_atom_site_fract_y
_atom_site_fract_z
Si Si1 0.436413 0.939518 0.654693
Si Si2 0.500000 0.573068 0.750000
Si Si3 0.096261 0.330009 0.142634
Si Si4 0.403198 0.113579 0.463542
Si Si5 0.456750 0.600478 0.365407
O O1 0.500000 0.909057 0.750000
O O2 0.549058 0.872444 0.613888
O O3 0.208955 0.917779 0.606123
O O4 0.486673 0.065741 0.653316
O O5 0.319495 0.639420 0.685421
O O6 0.570316 0.495034 0.698387
O O7 0.073802 0.216739 0.177567
O O8 0.006109 0.310480 0.042863
O O9 0.000000 0.500000 0.000000
O O10 0.177899 0.101344 0.433072
#
# Coordination Sequence:
#
# PCOD9293752 Si02
#       5
#     8   4   8   8   8
#     4  11  23  44  69 102 134 179 231 277 345 414
#     4  12  24  44  66 102 142 174 234 296 322 418
#     4  11  26  44  70 103 137 182 233 280 350 408
#     4  10  22  47  68 103 143 173 232 292 331 412
#     4  12  24  44  73  95 142 184 223 289 347 398
#
# _framework density 23.016349999999999
#
# number of rings (size 3 to 8) (size 9 to 14) (size 15 to 20)
#    0.000    0.889    6.667    0.667    3.111    4.444 
#    4.000    0.000    0.000    0.000    0.000    0.000 
#    0.000    0.000    0.000    0.000    0.000    0.000 
#
# Total GULP energy -100613.617103 kJ/mol
# GULP energy per Si atom -5589.645395 kJ/mol
# Density = 2.296396 g / cm^3
# Si number density = 23.016350 Si / 1000 Ang^3
#
#
#
# Elastic Constant Matrix: (Units=GPa)
#
#
# Indices 1 2 3 4 5 6 
#
# 1 184.7523 38.5982 46.8613 0.0000 34.5318 0.0000
# 2 38.5982 71.0191 8.4825 0.0000 14.8432 0.0000
# 3 46.8613 8.4825 115.3199 0.0000 3.0076 0.0000
# 4 0.0000 0.0000 0.0000 2.8515 0.0000 -2.4560
# 5 34.5318 14.8432 3.0076 0.0000 31.9141 0.0000
# 6 0.0000 0.0000 0.0000 -2.4560 0.0000 14.0612
#
#
#
# Elastic Compliance Matrix: (Units=1/GPa)
#
#
# Indices 1 2 3 4 5 6 
#
# 1 0.008021 -0.002501 -0.002887 0.000000 -0.007244 0.000000
# 2 -0.002501 0.016483 -0.000067 0.000000 -0.004954 0.000000
# 3 -0.002887 -0.000067 0.009791 0.000000 0.002232 0.000000
# 4 0.000000 0.000000 0.000000 0.412785 0.000000 0.072099
# 5 -0.007244 -0.004954 0.002232 0.000000 0.041266 0.000000
# 6 0.000000 0.000000 0.000000 0.072099 0.000000 0.083711
#
#
# Mechanical properties :
#
#
# Convention : Reuss Voigt Hill
#
# Bulk Modulus (GPa) = 42.75869 62.10835 52.43352
# Shear Modulus (GPa) = 8.46364 28.24200 18.35282
#
# Velocity S-wave (km/s) = 1.91969 3.50671 2.82686
# Velocity P-wave (km/s) = 4.85093 6.59083 5.78665
#
# Compressibility (1/GPa) = 0.02338706
#
# Stress axis : x y z
#
# Youngs Moduli (GPa) = 124.66899 60.66759 102.13186
#
# Poissons Ratio (x) = 0.15171 0.29482
# Poissons Ratio (y) = 0.31175 0.00685
# Poissons Ratio (z) = 0.35987 0.00407
#
# Static dielectric constant tensor:
#      x y z
#    x 1.870900 0.000000 -0.021670 
#    y 0.000000 1.848660 0.000000 
#    z -0.021670 0.000000 1.977550 
# 
# From -- ./inp_files/188017.got.cif
#   From: 2010.05.17/outbox.cif.g08.bks.cpg/sg15_95_cif.got.tgz:188017.got - 2010.06.03 18:47:42.
