data_PCOD9293372
_publ_section_title
;
Structure prediction by ZEFSAII (Michael W. Deem and Ramdas Pophale) SiO2 
 PCOD9293372
Probable space group: C 2/C
;
_chemical_formula_sum "Si O2"
_cell_formula_units_Z 36
_cell_length_a 7.528240
_cell_length_b 25.490467
_cell_length_c 8.493943
_cell_angle_alpha 90.000000
_cell_angle_beta 113.402945
_cell_angle_gamma 90.000000
_cell_volume 1495.882604
_symmetry_space_group_name_H-M "C 2/C"
_symmetry_group_IT_number 15
_symmetry_cell_setting 'monoclinic'
loop_
_space_group_symop_operation_xyz
x,y,z
-x,y,1/2-z
-x,-y,-z
x,-y,1/2+z
1/2+x,1/2+y,z
1/2-x,1/2+y,1/2-z
1/2-x,1/2-y,-z
1/2+x,1/2-y,1/2+z
loop_
_atom_site_type_symbol
_atom_site_label
_atom_site_fract_x
_atom_site_fract_y
_atom_site_fract_z
Si Si1 0.210328 0.512738 0.640389
Si Si2 0.883387 0.677948 0.963371
Si Si3 0.412544 0.398267 0.046618
Si Si4 0.000000 0.078803 0.250000
Si Si5 0.000000 0.758984 0.250000
Si Si6 0.500000 0.903054 0.250000
O O1 0.340761 0.542914 0.558372
O O2 0.317232 0.459160 0.714803
O O3 0.171868 0.555909 0.764462
O O4 0.000000 0.500000 0.500000
O O5 0.772929 0.638668 0.042734
O O6 0.702242 0.708974 0.819642
O O7 0.001177 0.637965 0.894623
O O8 0.999392 0.721722 0.097100
O O9 0.500000 0.383871 0.250000
O O10 0.529419 0.392319 0.926422
#
# Coordination Sequence:
#
# PCOD9293372 Si02
#       6
#     8   8   8   4   4   4
#     4  11  24  40  66  99 136 185 235 284 333 409
#     4  10  23  44  69 100 136 176 223 293 358 418
#     4  11  24  44  67  97 141 185 231 292 344 409
#     4  12  26  43  69 100 140 196 237 279 340 408
#     4  10  22  45  71  96 134 172 229 289 354 444
#     4  10  24  40  68  98 138 176 226 284 344 406
#
# _framework density 24.066061000000001
#
# number of rings (size 3 to 8) (size 9 to 14) (size 15 to 20)
#    0.000    1.333    2.222    2.000    6.222    4.444 
#    0.000    4.444    0.000    0.000    0.000    0.000 
#    0.000    0.000    0.000    0.000    0.000    0.000 
#
# Total GULP energy -100431.747740 kJ/mol
# GULP energy per Si atom -5579.541541 kJ/mol
# Density = 2.401129 g / cm^3
# Si number density = 24.066061 Si / 1000 Ang^3
#
#
#
# Elastic Constant Matrix: (Units=GPa)
#
#
# Indices 1 2 3 4 5 6 
#
# 1 90.1100 16.8788 52.9986 0.0000 -30.4116 0.0000
# 2 16.8788 74.6878 31.3523 0.0000 -13.5464 0.0000
# 3 52.9986 31.3523 114.8891 0.0000 -20.7824 0.0000
# 4 0.0000 0.0000 0.0000 11.7547 0.0000 -7.7217
# 5 -30.4116 -13.5464 -20.7824 0.0000 53.8822 0.0000
# 6 0.0000 0.0000 0.0000 -7.7217 0.0000 32.7252
#
#
#
# Elastic Compliance Matrix: (Units=1/GPa)
#
#
# Indices 1 2 3 4 5 6 
#
# 1 0.017544 0.000231 -0.006831 0.000000 0.007326 0.000000
# 2 0.000231 0.015413 -0.003857 0.000000 0.002518 0.000000
# 3 -0.006831 -0.003857 0.012938 0.000000 0.000165 0.000000
# 4 0.000000 0.000000 0.000000 0.100677 0.000000 0.023755
# 5 0.007326 0.002518 0.000165 0.000000 0.023390 0.000000
# 6 0.000000 0.000000 0.000000 0.023755 0.000000 0.036163
#
#
# Mechanical properties :
#
#
# Convention : Reuss Voigt Hill
#
# Bulk Modulus (GPa) = 40.03134 53.57181 46.80158
# Shear Modulus (GPa) = 21.24349 31.56955 26.40652
#
# Velocity S-wave (km/s) = 2.97428 3.62579 3.31607
# Velocity P-wave (km/s) = 5.33527 6.31166 5.84390
#
# Compressibility (1/GPa) = 0.02498043
#
# Stress axis : x y z
#
# Youngs Moduli (GPa) = 56.99819 64.88183 77.29315
#
# Poissons Ratio (x) = -0.01501 0.52801
# Poissons Ratio (y) = -0.01319 0.29814
# Poissons Ratio (z) = 0.38937 0.25027
#
# Static dielectric constant tensor:
#      x y z
#    x 2.007950 0.000000 0.050590 
#    y 0.000000 1.925320 0.000000 
#    z 0.050590 0.000000 2.039530 
# 
# From -- ./inp_files/24718.got.cif
#   From: 2010.05.17/outbox.cif.g08.bks.cpg/sg15_13_cif.got.tgz:24718.got - 2010.06.03 18:47:42.
