data_PCOD9293074
_publ_section_title
;
Structure prediction by ZEFSAII (Michael W. Deem and Ramdas Pophale) SiO2 
 PCOD9293074
Probable space group: C 2/C
;
_chemical_formula_sum "Si O2"
_cell_formula_units_Z 28
_cell_length_a 5.538115
_cell_length_b 23.621239
_cell_length_c 9.678519
_cell_angle_alpha 90.000000
_cell_angle_beta 64.577102
_cell_angle_gamma 90.000000
_cell_volume 1143.510277
_symmetry_space_group_name_H-M "C 2/C"
_symmetry_group_IT_number 15
_symmetry_cell_setting 'monoclinic'
loop_
_space_group_symop_operation_xyz
x,y,z
-x,y,1/2-z
-x,-y,-z
x,-y,1/2+z
1/2+x,1/2+y,z
1/2-x,1/2+y,1/2-z
1/2-x,1/2-y,-z
1/2+x,1/2-y,1/2+z
loop_
_atom_site_type_symbol
_atom_site_label
_atom_site_fract_x
_atom_site_fract_y
_atom_site_fract_z
Si Si1 0.103305 0.297781 0.877572
Si Si2 0.227125 0.321758 0.279197
Si Si3 0.500000 0.612666 0.250000
Si Si4 0.805775 0.502403 0.181903
O O1 0.207933 0.234421 0.827189
O O2 0.329088 0.341476 0.877155
O O3 0.000000 0.315561 0.750000
O O4 0.880519 0.300459 0.047696
O O5 0.500000 0.352389 0.250000
O O6 0.000000 0.353214 0.250000
O O7 0.723335 0.567512 0.243120
O O8 0.500000 0.478088 0.250000
O O9 0.000000 0.478796 0.250000
O O10 0.000000 0.500000 0.000000
#
# Coordination Sequence:
#
# PCOD9293074 Si02
#       4
#     8   8   4   8
#     4  11  22  39  61  89 128 170 214 254 305 363
#     4  11  23  38  61  84 122 175 212 254 304 358
#     4  10  24  36  70  90 134 154 214 256 322 360
#     4  10  22  44  72  95 124 163 206 256 326 391
#
# _framework density 24.486008999999999
#
# number of rings (size 3 to 8) (size 9 to 14) (size 15 to 20)
#    0.857    0.571    1.429    6.000    4.000    0.000 
#    0.000    2.857    0.000    0.000    0.000    0.000 
#    0.000    0.000    0.000    0.000    0.000    0.000 
#
# Total GULP energy -77938.487651 kJ/mol
# GULP energy per Si atom -5567.034832 kJ/mol
# Density = 2.443028 g / cm^3
# Si number density = 24.486009 Si / 1000 Ang^3
#
#
#
# Elastic Constant Matrix: (Units=GPa)
#
#
# Indices 1 2 3 4 5 6 
#
# 1 240.3623 34.5958 78.7910 0.0000 -14.2487 0.0000
# 2 34.5958 143.4013 4.6633 0.0000 -11.1703 0.0000
# 3 78.7910 4.6633 170.7407 0.0000 -9.8184 0.0000
# 4 0.0000 0.0000 0.0000 -3.4805 0.0000 1.7125
# 5 -14.2487 -11.1703 -9.8184 0.0000 47.1310 0.0000
# 6 0.0000 0.0000 0.0000 1.7125 0.0000 -57.1779
#
#
#
# Elastic Compliance Matrix: (Units=1/GPa)
#
#
# Indices 1 2 3 4 5 6 
#
# 1 0.005115 -0.001097 -0.002284 0.000000 0.000811 0.000000
# 2 -0.001097 0.007341 0.000391 0.000000 0.001490 0.000000
# 3 -0.002284 0.000391 0.006949 0.000000 0.000850 0.000000
# 4 0.000000 0.000000 0.000000 -0.291612 0.000000 -0.008734
# 5 0.000811 0.001490 0.000850 0.000000 0.021993 0.000000
# 6 0.000000 0.000000 0.000000 -0.008734 0.000000 -0.017751
#
#
# Mechanical properties :
#
#
# Convention : Reuss Voigt Hill
#
# Bulk Modulus (GPa) = 74.47776 87.84495 81.16136
# Shear Modulus (GPa) = -19.41661 26.39148 3.48744
#
# Velocity S-wave (km/s) = -2.81902 3.28658 1.19472
# Velocity P-wave (km/s) = 4.45944 7.09617 5.92631
#
# Compressibility (1/GPa) = 0.01342683
#
# Stress axis : x y z
#
# Youngs Moduli (GPa) = 195.50719 136.21533 143.90743
#
# Poissons Ratio (x) = 0.14937 0.32865
# Poissons Ratio (y) = 0.21439 -0.05630
# Poissons Ratio (z) = 0.44650 -0.05329
#
# Static dielectric constant tensor:
#      x y z
#    x 1.814410 0.000000 -0.332320 
#    y 0.000000 1.949380 0.000000 
#    z -0.332320 0.000000 1.709380 
# 
# From -- ./inp_files/19738.got.cif
#   From: 2010.05.17/outbox.cif.g08.bks.cpg/sg15_10_cif.got.tgz:19738.got - 2010.06.03 18:47:42.
