data_PCOD9293598
_publ_section_title
;
Structure prediction by ZEFSAII (Michael W. Deem and Ramdas Pophale) SiO2 
 PCOD9293598
Probable space group: C 2/C
;
_chemical_formula_sum "Si O2"
_cell_formula_units_Z 52
_cell_length_a 29.885687
_cell_length_b 5.533841
_cell_length_c 14.866220
_cell_angle_alpha 90.000000
_cell_angle_beta 114.589047
_cell_angle_gamma 90.000000
_cell_volume 2235.656886
_symmetry_space_group_name_H-M "C 2/C"
_symmetry_group_IT_number 15
_symmetry_cell_setting 'monoclinic'
loop_
_space_group_symop_operation_xyz
x,y,z
-x,y,1/2-z
-x,-y,-z
x,-y,1/2+z
1/2+x,1/2+y,z
1/2-x,1/2+y,1/2-z
1/2-x,1/2-y,-z
1/2+x,1/2-y,1/2+z
loop_
_atom_site_type_symbol
_atom_site_label
_atom_site_fract_x
_atom_site_fract_y
_atom_site_fract_z
Si Si1 0.500000 0.992505 0.750000
Si Si2 0.753362 0.500568 0.950167
Si Si3 0.054072 0.756364 0.932629
Si Si4 0.886194 0.976023 0.367891
Si Si5 0.778808 0.859444 0.255305
Si Si6 0.090173 0.127873 0.816199
Si Si7 0.859270 0.626457 0.985879
O O1 0.548829 0.834777 0.776166
O O2 0.505942 0.131544 0.851154
O O3 0.714748 0.524872 0.838038
O O4 0.750000 0.750000 0.000000
O O5 0.806209 0.510015 0.946536
O O6 0.750000 0.250000 0.000000
O O7 0.096689 0.559335 0.971769
O O8 0.066498 0.930612 0.860875
O O9 0.064910 0.890376 0.035888
O O10 0.834819 0.826072 0.336230
O O11 0.898068 0.970597 0.272579
O O12 0.869598 0.219067 0.405231
O O13 0.750711 0.594810 0.224664
O O14 0.135067 0.218950 0.916648
#
# Coordination Sequence:
#
# PCOD9293598 Si02
#       7
#     4   8   8   8   8   8   8
#     4  10  22  46  70 102 134 178 228 290 378 446
#     4  12  26  42  68 100 140 199 247 298 358 422
#     4  10  23  44  70  95 139 175 224 303 354 449
#     4  11  24  42  68 103 139 187 238 296 364 420
#     4  12  25  44  67 100 150 193 241 300 350 418
#     4  10  23  43  71 100 136 181 234 291 369 443
#     4  10  23  43  64  99 139 183 238 295 354 424
#
# _framework density 23.259381999999999
#
# number of rings (size 3 to 8) (size 9 to 14) (size 15 to 20)
#    0.000    1.231    1.538    3.231    6.462    3.077 
#    0.000   10.769    0.000    0.000    0.000    0.000 
#    0.000    0.000    0.000    0.000    0.000    0.000 
#
# Total GULP energy -144904.099229 kJ/mol
# GULP energy per Si atom -5573.234586 kJ/mol
# Density = 2.320644 g / cm^3
# Si number density = 23.259382 Si / 1000 Ang^3
#
#
#
# Elastic Constant Matrix: (Units=GPa)
#
#
# Indices 1 2 3 4 5 6 
#
# 1 -7.0382 23.1491 8.4109 0.0000 57.5337 0.0000
# 2 23.1491 51.0939 51.1693 0.0000 -34.7249 0.0000
# 3 8.4109 51.1693 114.2662 0.0000 7.2520 0.0000
# 4 0.0000 0.0000 0.0000 86.5750 0.0000 -11.3295
# 5 57.5337 -34.7249 7.2520 0.0000 -15.4052 0.0000
# 6 0.0000 0.0000 0.0000 -11.3295 0.0000 18.8467
#
#
#
# Elastic Compliance Matrix: (Units=1/GPa)
#
#
# Indices 1 2 3 4 5 6 
#
# 1 0.012184 0.011977 -0.007219 0.000000 0.015108 0.000000
# 2 0.011977 0.020173 -0.009582 0.000000 -0.005251 0.000000
# 3 -0.007219 -0.009582 0.013510 0.000000 0.000997 0.000000
# 4 0.000000 0.000000 0.000000 0.012537 0.000000 0.007536
# 5 0.015108 -0.005251 0.000997 0.000000 0.003815 0.000000
# 6 0.000000 0.000000 0.000000 0.007536 0.000000 0.057590
#
#
# Mechanical properties :
#
#
# Convention : Reuss Voigt Hill
#
# Bulk Modulus (GPa) = 27.60917 35.97561 31.79239
# Shear Modulus (GPa) = 35.32806 23.04280 29.18543
#
# Velocity S-wave (km/s) = 3.90150 3.15093 3.54613
# Velocity P-wave (km/s) = 5.67376 5.36084 5.51951
#
# Compressibility (1/GPa) = 0.03621985
#
# Stress axis : x y z
#
# Youngs Moduli (GPa) = 82.07318 49.57169 74.01666
#
# Poissons Ratio (x) = -0.59374 0.53434
# Poissons Ratio (y) = -0.98302 0.70922
# Poissons Ratio (z) = 0.59250 0.47499
#
# Static dielectric constant tensor:
#      x y z
#    x 1.902290 0.000000 0.095950 
#    y 0.000000 1.697080 0.000000 
#    z 0.095950 0.000000 2.019070 
# 
# From -- ./inp_files/180172.got.cif
#   From: 2010.05.17/outbox.cif.g08.bks.cpg/sg15_91_cif.got.tgz:180172.got - 2010.06.03 18:47:42.
