data_PCOD9293564
_publ_section_title
;
Structure prediction by ZEFSAII (Michael W. Deem and Ramdas Pophale) SiO2 
 PCOD9293564
Probable space group: C 2/C
;
_chemical_formula_sum "Si O2"
_cell_formula_units_Z 60
_cell_length_a 27.597313
_cell_length_b 22.049793
_cell_length_c 5.329202
_cell_angle_alpha 90.000000
_cell_angle_beta 57.822889
_cell_angle_gamma 90.000000
_cell_volume 2744.809571
_symmetry_space_group_name_H-M "C 2/C"
_symmetry_group_IT_number 15
_symmetry_cell_setting 'monoclinic'
loop_
_space_group_symop_operation_xyz
x,y,z
-x,y,1/2-z
-x,-y,-z
x,-y,1/2+z
1/2+x,1/2+y,z
1/2-x,1/2+y,1/2-z
1/2-x,1/2-y,-z
1/2+x,1/2-y,1/2+z
loop_
_atom_site_type_symbol
_atom_site_label
_atom_site_fract_x
_atom_site_fract_y
_atom_site_fract_z
Si Si1 0.809482 0.733179 0.709386
Si Si2 0.149228 0.036828 0.518534
Si Si3 0.892108 0.170336 0.768267
Si Si4 0.000000 0.770498 0.250000
Si Si5 0.409712 0.239683 0.831504
Si Si6 0.851357 0.363443 0.753377
Si Si7 0.431889 0.968966 0.467289
Si Si8 0.286345 0.038684 0.132260
O O1 0.834327 0.790918 0.486870
O O2 0.858914 0.726704 0.779024
O O3 0.807202 0.670070 0.561263
O O4 0.750000 0.750000 0.000000
O O5 0.119357 0.100587 0.654671
O O6 0.217856 0.047030 0.330433
O O7 0.135095 0.008565 0.286581
O O8 0.946756 0.192291 0.781710
O O9 0.906892 0.192266 0.446704
O O10 0.970844 0.730255 0.542402
O O11 0.394042 0.192568 0.086902
O O12 0.897052 0.414900 0.692177
O O13 0.816038 0.398004 0.630885
O O14 0.500000 0.960047 0.250000
O O15 0.417610 0.021101 0.712243
O O16 0.299747 0.990925 0.323536
#
# Coordination Sequence:
#
# PCOD9293564 Si02
#       8
#     8   8   8   4   8   8   8   8
#     4  10  25  39  63  99 134 177 224 278 343 406
#     4  10  24  42  68 102 134 175 224 269 338 412
#     4  10  23  43  69  94 135 177 216 289 342 412
#     4  10  22  46  68  94 130 176 224 276 364 398
#     4  10  24  41  66  96 129 174 223 281 338 407
#     4  11  24  38  65  96 130 179 228 278 329 413
#     4  10  23  42  64  93 132 179 227 287 340 387
#     4  10  23  40  64  96 138 183 223 279 335 399
#
# _framework density 21.859442000000001
#
# number of rings (size 3 to 8) (size 9 to 14) (size 15 to 20)
#    0.000    1.867    0.000    1.200   11.200    5.333 
#    1.200    0.667    0.000    0.000    0.000    0.000 
#    0.000    0.000    0.000    0.000    0.000    0.000 
#
# Total GULP energy -167255.001200 kJ/mol
# GULP energy per Si atom -5575.166707 kJ/mol
# Density = 2.180969 g / cm^3
# Si number density = 21.859442 Si / 1000 Ang^3
#
#
#
# Elastic Constant Matrix: (Units=GPa)
#
#
# Indices 1 2 3 4 5 6 
#
# 1 47.6414 -0.3850 18.3479 0.0000 -8.9756 0.0000
# 2 -0.3850 81.1348 33.5756 0.0000 -14.8975 0.0000
# 3 18.3479 33.5756 127.9184 0.0000 -17.2793 0.0000
# 4 0.0000 0.0000 0.0000 14.3283 0.0000 -4.7547
# 5 -8.9756 -14.8975 -17.2793 0.0000 33.0076 0.0000
# 6 0.0000 0.0000 0.0000 -4.7547 0.0000 20.3779
#
#
#
# Elastic Compliance Matrix: (Units=1/GPa)
#
#
# Indices 1 2 3 4 5 6 
#
# 1 0.023343 0.002509 -0.003224 0.000000 0.005792 0.000000
# 2 0.002509 0.014800 -0.003497 0.000000 0.005531 0.000000
# 3 -0.003224 -0.003497 0.009541 0.000000 0.002539 0.000000
# 4 0.000000 0.000000 0.000000 0.075649 0.000000 0.017651
# 5 0.005792 0.005531 0.002539 0.000000 0.035697 0.000000
# 6 0.000000 0.000000 0.000000 0.017651 0.000000 0.053191
#
#
# Mechanical properties :
#
#
# Convention : Reuss Voigt Hill
#
# Bulk Modulus (GPa) = 25.47246 39.97463 32.72355
# Shear Modulus (GPa) = 21.39188 27.21983 24.30586
#
# Velocity S-wave (km/s) = 3.13167 3.53260 3.33816
# Velocity P-wave (km/s) = 4.97540 5.91319 5.46445
#
# Compressibility (1/GPa) = 0.03925808
#
# Stress axis : x y z
#
# Youngs Moduli (GPa) = 42.83874 67.56790 104.81143
#
# Poissons Ratio (x) = -0.16950 0.33794
# Poissons Ratio (y) = -0.10746 0.36656
# Poissons Ratio (z) = 0.13812 0.23631
#
# Static dielectric constant tensor:
#      x y z
#    x 1.834300 0.000000 0.072080 
#    y 0.000000 1.821490 0.000000 
#    z 0.072080 0.000000 1.920890 
# 
# From -- ./inp_files/17513.got.cif
#   From: 2010.05.17/outbox.cif.g08.bks.cpg/sg15_9_cif.got.tgz:17513.got - 2010.06.03 18:47:42.
