data_PCOD9293183
_publ_section_title
;
Structure prediction by ZEFSAII (Michael W. Deem and Ramdas Pophale) SiO2 
 PCOD9293183
Probable space group: C 2/C
;
_chemical_formula_sum "Si O2"
_cell_formula_units_Z 44
_cell_length_a 4.751559
_cell_length_b 20.822605
_cell_length_c 17.491354
_cell_angle_alpha 90.000000
_cell_angle_beta 77.189765
_cell_angle_gamma 90.000000
_cell_volume 1687.516861
_symmetry_space_group_name_H-M "C 2/C"
_symmetry_group_IT_number 15
_symmetry_cell_setting 'monoclinic'
loop_
_space_group_symop_operation_xyz
x,y,z
-x,y,1/2-z
-x,-y,-z
x,-y,1/2+z
1/2+x,1/2+y,z
1/2-x,1/2+y,1/2-z
1/2-x,1/2-y,-z
1/2+x,1/2-y,1/2+z
loop_
_atom_site_type_symbol
_atom_site_label
_atom_site_fract_x
_atom_site_fract_y
_atom_site_fract_z
Si Si1 0.000000 0.543538 0.750000
Si Si2 0.011257 0.567912 0.353280
Si Si3 0.500000 0.000000 0.500000
Si Si4 0.701486 0.693978 0.396901
Si Si5 0.832197 0.618649 0.616786
Si Si6 0.500000 0.344044 0.750000
Si Si7 0.865972 0.201261 0.572503
O O1 0.139007 0.490719 0.683882
O O2 0.172131 0.588019 0.798554
O O3 0.154024 0.536153 0.418345
O O4 0.241552 0.609298 0.292332
O O5 0.783157 0.618849 0.397039
O O6 0.531935 0.931516 0.450887
O O7 0.601767 0.698074 0.315304
O O8 0.984058 0.736634 0.398014
O O9 0.468832 0.703311 0.478109
O O10 0.033756 0.682207 0.601944
O O11 0.524716 0.641154 0.604418
#
# Coordination Sequence:
#
# PCOD9293183 Si02
#       7
#     4   8   4   8   8   4   8
#     4  10  24  45  64 104 149 182 244 302 362 444
#     4  11  22  46  66 108 137 195 240 311 367 442
#     4  10  22  44  76  96 152 186 252 290 378 446
#     4  11  25  45  71 104 142 188 248 304 367 441
#     4  11  25  47  70 108 141 196 237 303 367 436
#     4  12  24  41  74 106 147 184 252 304 382 428
#     4  11  27  47  76 102 147 191 250 299 367 441
#
# _framework density 26.073816000000001
#
# number of rings (size 3 to 8) (size 9 to 14) (size 15 to 20)
#    0.000    1.091    3.636    1.091    2.545    6.545 
#    3.273    0.000    0.000    0.000    0.000    0.000 
#    0.000    0.000    0.000    0.000    0.000    0.000 
#
# Total GULP energy -122623.422400 kJ/mol
# GULP energy per Si atom -5573.791927 kJ/mol
# Density = 2.601447 g / cm^3
# Si number density = 26.073816 Si / 1000 Ang^3
#
#
#
# Elastic Constant Matrix: (Units=GPa)
#
#
# Indices 1 2 3 4 5 6 
#
# 1 83.7848 11.5555 36.3817 0.0000 1.1921 0.0000
# 2 11.5555 122.5344 55.0728 0.0000 7.3829 0.0000
# 3 36.3817 55.0728 154.9094 0.0000 24.5440 0.0000
# 4 0.0000 0.0000 0.0000 78.0168 0.0000 19.6091
# 5 1.1921 7.3829 24.5440 0.0000 40.4195 0.0000
# 6 0.0000 0.0000 0.0000 19.6091 0.0000 6.9339
#
#
#
# Elastic Compliance Matrix: (Units=1/GPa)
#
#
# Indices 1 2 3 4 5 6 
#
# 1 0.013397 0.000201 -0.003485 0.000000 0.001684 0.000000
# 2 0.000201 0.009721 -0.003564 0.000000 0.000383 0.000000
# 3 -0.003485 -0.003564 0.009318 0.000000 -0.004904 0.000000
# 4 0.000000 0.000000 0.000000 0.044322 0.000000 -0.125342
# 5 0.001684 0.000383 -0.004904 0.000000 0.027599 0.000000
# 6 0.000000 0.000000 0.000000 -0.125342 0.000000 0.498684
#
#
# Mechanical properties :
#
#
# Convention : Reuss Voigt Hill
#
# Bulk Modulus (GPa) = 53.35903 63.02763 58.19333
# Shear Modulus (GPa) = 8.02592 42.28861 25.15726
#
# Velocity S-wave (km/s) = 1.75637 4.03163 3.10957
# Velocity P-wave (km/s) = 4.96207 6.77475 5.93799
#
# Compressibility (1/GPa) = 0.01874097
#
# Stress axis : x y z
#
# Youngs Moduli (GPa) = 74.64477 102.87374 107.32105
#
# Poissons Ratio (x) = -0.02072 0.37399
# Poissons Ratio (y) = -0.01503 0.38247
# Poissons Ratio (z) = 0.26012 0.36662
#
# Static dielectric constant tensor:
#      x y z
#    x 2.072760 0.000000 0.062820 
#    y 0.000000 2.057030 0.000000 
#    z 0.062820 0.000000 2.007490 
# 
# From -- ./inp_files/184865.got.cif
#   From: 2010.05.17/outbox.cif.g08.bks.cpg/sg15_93_cif.got.tgz:184865.got - 2010.06.03 18:47:42.
