data_PCOD9293061
_publ_section_title
;
Structure prediction by ZEFSAII (Michael W. Deem and Ramdas Pophale) SiO2 
 PCOD9293061
Probable space group: C 2/C
;
_chemical_formula_sum "Si O2"
_cell_formula_units_Z 32
_cell_length_a 5.911131
_cell_length_b 16.490545
_cell_length_c 14.598059
_cell_angle_alpha 90.000000
_cell_angle_beta 112.139504
_cell_angle_gamma 90.000000
_cell_volume 1318.068082
_symmetry_space_group_name_H-M "C 2/C"
_symmetry_group_IT_number 15
_symmetry_cell_setting 'monoclinic'
loop_
_space_group_symop_operation_xyz
x,y,z
-x,y,1/2-z
-x,-y,-z
x,-y,1/2+z
1/2+x,1/2+y,z
1/2-x,1/2+y,1/2-z
1/2-x,1/2-y,-z
1/2+x,1/2-y,1/2+z
loop_
_atom_site_type_symbol
_atom_site_label
_atom_site_fract_x
_atom_site_fract_y
_atom_site_fract_z
Si Si1 0.000000 0.262149 0.250000
Si Si2 0.000000 0.492009 0.750000
Si Si3 0.172145 0.320892 0.559787
Si Si4 0.814879 0.613765 0.870523
Si Si5 0.998813 0.021418 0.393987
O O1 0.227265 0.215831 0.331033
O O2 0.142239 0.314299 0.194455
O O3 0.971817 0.545452 0.838731
O O4 0.748908 0.447396 0.691054
O O5 0.250000 0.250000 0.500000
O O6 0.310448 0.406411 0.580784
O O7 0.908610 0.349870 0.481994
O O8 0.571829 0.563257 0.855804
O O9 0.000000 0.000000 0.500000
#
# Coordination Sequence:
#
# PCOD9293061 Si02
#       5
#     4   4   8   8   8
#     4   9  22  42  74 104 149 188 238 307 358 418
#     4  11  24  42  72 108 139 184 248 297 346 410
#     4  10  22  44  72 104 147 183 234 304 359 424
#     4  10  22  45  73  99 145 189 241 291 358 422
#     4  12  25  42  77 104 141 190 246 291 354 433
#
# _framework density 24.277954999999999
#
# number of rings (size 3 to 8) (size 9 to 14) (size 15 to 20)
#    0.000    1.500    2.500    1.500    3.500    0.000 
#    0.000    5.000   38.500    0.000    0.000    0.000 
#    0.000    0.000    0.000    0.000    0.000    0.000 
#
# Total GULP energy -89119.927744 kJ/mol
# GULP energy per Si atom -5569.995484 kJ/mol
# Density = 2.422270 g / cm^3
# Si number density = 24.277955 Si / 1000 Ang^3
#
#
#
# Elastic Constant Matrix: (Units=GPa)
#
#
# Indices 1 2 3 4 5 6 
#
# 1 42.2325 10.2122 43.2357 0.0000 5.0776 0.0000
# 2 10.2122 81.4528 58.3025 0.0000 -1.8363 0.0000
# 3 43.2357 58.3025 175.4016 0.0000 12.9340 0.0000
# 4 0.0000 0.0000 0.0000 27.2176 0.0000 7.9470
# 5 5.0776 -1.8363 12.9340 0.0000 35.6636 0.0000
# 6 0.0000 0.0000 0.0000 7.9470 0.0000 3.5122
#
#
#
# Elastic Compliance Matrix: (Units=1/GPa)
#
#
# Indices 1 2 3 4 5 6 
#
# 1 0.032018 0.002008 -0.008457 0.000000 -0.001388 0.000000
# 2 0.002008 0.016522 -0.006194 0.000000 0.002811 0.000000
# 3 -0.008457 -0.006194 0.010048 0.000000 -0.002759 0.000000
# 4 0.000000 0.000000 0.000000 0.108270 0.000000 -0.244980
# 5 -0.001388 0.002811 -0.002759 0.000000 0.029383 0.000000
# 6 0.000000 0.000000 0.000000 -0.244980 0.000000 0.839029
#
#
# Mechanical properties :
#
#
# Convention : Reuss Voigt Hill
#
# Bulk Modulus (GPa) = 30.02861 58.06532 44.04697
# Shear Modulus (GPa) = 4.66567 25.76778 15.21672
#
# Velocity S-wave (km/s) = 1.38778 3.26139 2.50626
# Velocity P-wave (km/s) = 3.86826 6.17666 5.15337
#
# Compressibility (1/GPa) = 0.03330157
#
# Stress axis : x y z
#
# Youngs Moduli (GPa) = 31.23239 60.52400 99.51942
#
# Poissons Ratio (x) = -0.12154 0.84168
# Poissons Ratio (y) = -0.06272 0.61645
# Poissons Ratio (z) = 0.26415 0.37490
#
# Static dielectric constant tensor:
#      x y z
#    x 2.003600 0.000000 0.012490 
#    y 0.000000 1.902660 0.000000 
#    z 0.012490 0.000000 1.848450 
# 
# From -- ./inp_files/128308.got.cif
#   From: 2010.05.17/outbox.cif.g08.bks.cpg/sg15_65_cif.got.tgz:128308.got - 2010.06.03 18:47:42.
