data_PCOD9293730
_publ_section_title
;
Structure prediction by ZEFSAII (Michael W. Deem and Ramdas Pophale) SiO2 
 PCOD9293730
Probable space group: C 2/C
;
_chemical_formula_sum "Si O2"
_cell_formula_units_Z 24
_cell_length_a 7.488323
_cell_length_b 12.836700
_cell_length_c 9.027641
_cell_angle_alpha 90.000000
_cell_angle_beta 70.026149
_cell_angle_gamma 90.000000
_cell_volume 815.586723
_symmetry_space_group_name_H-M "C 2/C"
_symmetry_group_IT_number 15
_symmetry_cell_setting 'monoclinic'
loop_
_space_group_symop_operation_xyz
x,y,z
-x,y,1/2-z
-x,-y,-z
x,-y,1/2+z
1/2+x,1/2+y,z
1/2-x,1/2+y,1/2-z
1/2-x,1/2-y,-z
1/2+x,1/2-y,1/2+z
loop_
_atom_site_type_symbol
_atom_site_label
_atom_site_fract_x
_atom_site_fract_y
_atom_site_fract_z
Si Si1 0.334464 0.149182 0.379569
Si Si2 0.893274 0.843553 0.010431
Si Si3 0.736619 0.524329 0.675013
O O1 0.500000 0.212466 0.250000
O O2 0.384121 0.308735 0.553780
O O3 0.363761 0.092955 0.528597
O O4 0.321777 0.057735 0.262245
O O5 0.846410 0.892953 0.183129
O O6 0.750000 0.750000 0.000000
O O7 0.873189 0.944098 0.906163
#
# Coordination Sequence:
#
# PCOD9293730 Si02
#       3
#     8   8   8
#     4  11  21  41  74 113 151 197 252 328 402 459
#     4  11  23  45  77 115 156 209 262 316 391 478
#     4  10  22  46  78 112 156 202 255 324 399 477
#
# _framework density 29.426670000000001
#
# number of rings (size 3 to 8) (size 9 to 14) (size 15 to 20)
#    0.000    1.333    0.000    9.000    0.000    0.000 
#    0.000   33.333    0.000    0.000    0.000    2.333 
#    0.000    0.000    0.000    0.000    0.000    0.000 
#
# Total GULP energy -67123.648958 kJ/mol
# GULP energy per Si atom -5593.637413 kJ/mol
# Density = 2.935969 g / cm^3
# Si number density = 29.426670 Si / 1000 Ang^3
#
#
#
# Elastic Constant Matrix: (Units=GPa)
#
#
# Indices 1 2 3 4 5 6 
#
# 1 139.5157 35.5783 50.7962 0.0000 -47.5649 0.0000
# 2 35.5783 195.9488 73.4117 0.0000 -14.9637 0.0000
# 3 50.7962 73.4117 300.4868 0.0000 -49.5718 0.0000
# 4 0.0000 0.0000 0.0000 24.2377 0.0000 -34.9044
# 5 -47.5649 -14.9637 -49.5718 0.0000 64.5676 0.0000
# 6 0.0000 0.0000 0.0000 -34.9044 0.0000 -106.8210
#
#
#
# Elastic Compliance Matrix: (Units=1/GPa)
#
#
# Indices 1 2 3 4 5 6 
#
# 1 0.009884 -0.001177 -0.000260 0.000000 0.006809 0.000000
# 2 -0.001177 0.005762 -0.001296 0.000000 -0.000527 0.000000
# 3 -0.000260 -0.001296 0.004130 0.000000 0.002679 0.000000
# 4 0.000000 0.000000 0.000000 0.028056 0.000000 -0.009167
# 5 0.006809 -0.000527 0.002679 0.000000 0.022438 0.000000
# 6 0.000000 0.000000 0.000000 -0.009167 0.000000 -0.006366
#
#
# Mechanical properties :
#
#
# Convention : Reuss Voigt Hill
#
# Bulk Modulus (GPa) = 69.87722 106.16930 88.02326
# Shear Modulus (GPa) = 67.43896 28.14119 47.79007
#
# Velocity S-wave (km/s) = 4.79243 3.09579 4.03431
# Velocity P-wave (km/s) = 7.37706 6.99544 7.18878
#
# Compressibility (1/GPa) = 0.01431082
#
# Stress axis : x y z
#
# Youngs Moduli (GPa) = 101.17586 173.54099 242.10499
#
# Poissons Ratio (x) = 0.20430 0.06294
# Poissons Ratio (y) = 0.11911 0.31368
# Poissons Ratio (z) = 0.02630 0.22485
#
# Static dielectric constant tensor:
#      x y z
#    x 2.677090 0.000000 -0.025980 
#    y 0.000000 2.305430 0.000000 
#    z -0.025980 0.000000 2.196100 
# 
# From -- ./inp_files/27005.got.cif
#   From: 2010.05.17/outbox.cif.g08.bks.cpg/sg15_14_cif.got.tgz:27005.got - 2010.06.03 18:47:42.
