data_PCOD9293349
_publ_section_title
;
Structure prediction by ZEFSAII (Michael W. Deem and Ramdas Pophale) SiO2 
 PCOD9293349
Probable space group: C 2/C
;
_chemical_formula_sum "Si O2"
_cell_formula_units_Z 52
_cell_length_a 8.940751
_cell_length_b 30.772227
_cell_length_c 10.716083
_cell_angle_alpha 90.000000
_cell_angle_beta 119.855797
_cell_angle_gamma 90.000000
_cell_volume 2556.989016
_symmetry_space_group_name_H-M "C 2/C"
_symmetry_group_IT_number 15
_symmetry_cell_setting 'monoclinic'
loop_
_space_group_symop_operation_xyz
x,y,z
-x,y,1/2-z
-x,-y,-z
x,-y,1/2+z
1/2+x,1/2+y,z
1/2-x,1/2+y,1/2-z
1/2-x,1/2-y,-z
1/2+x,1/2-y,1/2+z
loop_
_atom_site_type_symbol
_atom_site_label
_atom_site_fract_x
_atom_site_fract_y
_atom_site_fract_z
Si Si1 0.500000 0.064999 0.250000
Si Si2 0.309974 0.858293 0.224578
Si Si3 0.448145 0.432884 0.388543
Si Si4 0.798629 0.733755 0.657304
Si Si5 0.297302 0.216933 0.134061
Si Si6 0.265610 0.872633 0.490171
Si Si7 0.357960 0.526348 0.295564
O O1 0.596007 0.096001 0.388385
O O2 0.656146 0.040279 0.237921
O O3 0.500000 0.862922 0.250000
O O4 0.201339 0.899746 0.137358
O O5 0.216258 0.813596 0.145480
O O6 0.324611 0.856270 0.380089
O O7 0.597067 0.401704 0.396479
O O8 0.362328 0.474008 0.283639
O O9 0.548204 0.455905 0.542679
O O10 0.750000 0.750000 0.500000
O O11 0.770574 0.765860 0.761513
O O12 0.000000 0.724831 0.750000
O O13 0.500000 0.214680 0.250000
O O14 0.250000 0.250000 0.000000
O O15 0.236401 0.169199 0.065819
O O16 0.500000 0.541903 0.250000
#
# Coordination Sequence:
#
# PCOD9293349 Si02
#       7
#     4   8   8   8   8   8   8
#     4  10  24  42  70 104 138 178 230 292 348 416
#     4  11  25  40  66  96 136 174 228 281 350 411
#     4  10  24  44  66 101 130 176 227 281 347 420
#     4  11  26  45  64  99 139 176 227 289 347 408
#     4  12  25  43  72  97 133 187 235 281 350 417
#     4  11  23  44  66  98 137 175 233 289 332 426
#     4  10  22  45  70  98 140 176 229 284 355 429
#
# _framework density 20.336417999999998
#
# number of rings (size 3 to 8) (size 9 to 14) (size 15 to 20)
#    0.000    1.231    2.308    2.308    9.692    0.000 
#    2.769    3.077    0.000    0.000    0.000    0.000 
#    0.000    0.000    0.000    0.000    0.000    0.000 
#
# Total GULP energy -144817.069535 kJ/mol
# GULP energy per Si atom -5569.887290 kJ/mol
# Density = 2.029013 g / cm^3
# Si number density = 20.336418 Si / 1000 Ang^3
#
#
#
# Elastic Constant Matrix: (Units=GPa)
#
#
# Indices 1 2 3 4 5 6 
#
# 1 123.1746 58.7979 39.9846 0.0000 -4.1255 0.0000
# 2 58.7979 154.8797 65.3220 0.0000 -2.3390 0.0000
# 3 39.9846 65.3220 113.1474 0.0000 2.2889 0.0000
# 4 0.0000 0.0000 0.0000 111.8427 0.0000 41.3428
# 5 -4.1255 -2.3390 2.2889 0.0000 39.3135 0.0000
# 6 0.0000 0.0000 0.0000 41.3428 0.0000 48.2347
#
#
#
# Elastic Compliance Matrix: (Units=1/GPa)
#
#
# Indices 1 2 3 4 5 6 
#
# 1 0.010226 -0.003086 -0.001852 0.000000 0.000997 0.000000
# 2 -0.003086 0.009491 -0.004399 0.000000 0.000497 0.000000
# 3 -0.001852 -0.004399 0.012056 0.000000 -0.001158 0.000000
# 4 0.000000 0.000000 0.000000 0.013088 0.000000 -0.011218
# 5 0.000997 0.000497 -0.001158 0.000000 0.025638 0.000000
# 6 0.000000 0.000000 0.000000 -0.011218 0.000000 0.030347
#
#
# Mechanical properties :
#
#
# Convention : Reuss Voigt Hill
#
# Bulk Modulus (GPa) = 76.34471 79.93452 78.13961
# Shear Modulus (GPa) = 40.35958 55.01799 47.68878
#
# Velocity S-wave (km/s) = 4.45971 5.20698 4.84777
# Velocity P-wave (km/s) = 8.00881 8.69147 8.35711
#
# Compressibility (1/GPa) = 0.01309849
#
# Stress axis : x y z
#
# Youngs Moduli (GPa) = 97.78615 105.36412 82.94908
#
# Poissons Ratio (x) = 0.32515 0.15366
# Poissons Ratio (y) = 0.30176 0.36488
# Poissons Ratio (z) = 0.18114 0.46347
#
# Static dielectric constant tensor:
#      x y z
#    x 1.785350 0.000000 -0.021220 
#    y 0.000000 1.763440 0.000000 
#    z -0.021220 0.000000 1.704320 
# 
# From -- ./inp_files/81502.got.cif
#   From: 2010.05.17/outbox.cif.g08.bks.cpg/sg15_41_cif.got.tgz:81502.got - 2010.06.03 18:47:42.
