data_PCOD9293931
_publ_section_title
;
Structure prediction by ZEFSAII (Michael W. Deem and Ramdas Pophale) SiO2 
 PCOD9293931
Probable space group: C 2/C
;
_chemical_formula_sum "Si O2"
_cell_formula_units_Z 56
_cell_length_a 13.348200
_cell_length_b 23.779920
_cell_length_c 9.516188
_cell_angle_alpha 90.000000
_cell_angle_beta 112.278311
_cell_angle_gamma 90.000000
_cell_volume 2795.140755
_symmetry_space_group_name_H-M "C 2/C"
_symmetry_group_IT_number 15
_symmetry_cell_setting 'monoclinic'
loop_
_space_group_symop_operation_xyz
x,y,z
-x,y,1/2-z
-x,-y,-z
x,-y,1/2+z
1/2+x,1/2+y,z
1/2-x,1/2+y,1/2-z
1/2-x,1/2-y,-z
1/2+x,1/2-y,1/2+z
loop_
_atom_site_type_symbol
_atom_site_label
_atom_site_fract_x
_atom_site_fract_y
_atom_site_fract_z
Si Si1 0.500000 0.992893 0.750000
Si Si2 0.814939 0.177226 0.279677
Si Si3 0.016538 0.575251 0.020238
Si Si4 0.250114 0.691703 0.735962
Si Si5 0.000000 0.287482 0.750000
Si Si6 0.681760 0.871952 0.929501
Si Si7 0.537533 0.714489 0.502897
Si Si8 0.355448 0.174936 0.545538
O O1 0.466398 0.034119 0.604218
O O2 0.426933 0.951170 0.809613
O O3 0.771711 0.241264 0.291242
O O4 0.773635 0.126301 0.357920
O O5 0.056439 0.183026 0.130176
O O6 0.757944 0.168404 0.098441
O O7 0.895092 0.584947 0.020588
O O8 0.062737 0.633348 0.988360
O O9 0.240723 0.662529 0.583559
O O10 0.366197 0.681434 0.869247
O O11 0.163380 0.666476 0.799960
O O12 0.099272 0.329953 0.807021
O O13 0.987187 0.249303 0.606668
O O14 0.597781 0.762379 0.444319
#
# Coordination Sequence:
#
# PCOD9293931 Si02
#       8
#     4   8   8   8   4   8   8   8
#     4  10  23  36  60  82 108 126 164 236 280 349
#     4  11  20  33  50  72 105 152 193 220 246 296
#     4  11  21  39  56  83 108 135 172 217 290 334
#     4  11  22  32  47  76 107 148 193 223 250 290
#     4  12  17  32  50  70  96 150 184 220 242 297
#     4  12  20  34  54  73 104 144 184 212 261 326
#     4  11  21  32  49  75 110 147 195 215 237 290
#     4  11  22  35  52  73 111 152 178 216 269 322
#
# _framework density 20.034768
#
# number of rings (size 3 to 8) (size 9 to 14) (size 15 to 20)
#    0.000    0.857    5.714    5.143    0.000    3.429 
#    0.000    0.000    0.000    0.000    0.000    0.000 
#    0.000   80.000    0.000    0.000    0.000    0.000 
#
# Total GULP energy -155928.293656 kJ/mol
# GULP energy per Si atom -5568.867631 kJ/mol
# Density = 1.998917 g / cm^3
# Si number density = 20.034768 Si / 1000 Ang^3
#
#
#
# Elastic Constant Matrix: (Units=GPa)
#
#
# Indices 1 2 3 4 5 6 
#
# 1 73.6830 21.8485 32.5269 0.0000 18.5367 0.0000
# 2 21.8485 51.6640 23.4991 0.0000 -9.4011 0.0000
# 3 32.5269 23.4991 104.9020 0.0000 -7.3130 0.0000
# 4 0.0000 0.0000 0.0000 28.6587 0.0000 -13.6673
# 5 18.5367 -9.4011 -7.3130 0.0000 39.7280 0.0000
# 6 0.0000 0.0000 0.0000 -13.6673 0.0000 15.3292
#
#
#
# Elastic Compliance Matrix: (Units=1/GPa)
#
#
# Indices 1 2 3 4 5 6 
#
# 1 0.022330 -0.009298 -0.005795 0.000000 -0.013686 0.000000
# 2 -0.009298 0.026161 -0.002273 0.000000 0.010111 0.000000
# 3 -0.005795 -0.002273 0.012146 0.000000 0.004402 0.000000
# 4 0.000000 0.000000 0.000000 0.060705 0.000000 0.054124
# 5 -0.013686 0.010111 0.004402 0.000000 0.034760 0.000000
# 6 0.000000 0.000000 0.000000 0.054124 0.000000 0.113491
#
#
# Mechanical properties :
#
#
# Convention : Reuss Voigt Hill
#
# Bulk Modulus (GPa) = 38.60132 42.88866 40.74499
# Shear Modulus (GPa) = 15.97657 26.90148 21.43902
#
# Velocity S-wave (km/s) = 2.82697 3.66832 3.27477
# Velocity P-wave (km/s) = 5.47400 6.27660 5.88898
#
# Compressibility (1/GPa) = 0.02590585
#
# Stress axis : x y z
#
# Youngs Moduli (GPa) = 44.78323 38.22441 82.33475
#
# Poissons Ratio (x) = 0.35540 0.47714
# Poissons Ratio (y) = 0.41638 0.18712
# Poissons Ratio (z) = 0.25952 0.08687
#
# Static dielectric constant tensor:
#      x y z
#    x 1.844770 0.000000 -0.005170 
#    y 0.000000 1.790040 0.000000 
#    z -0.005170 0.000000 1.768310 
# 
# From -- ./inp_files/51026.got.cif
#   From: 2010.05.17/outbox.cif.g08.bks.cpg/sg15_26_cif.got.tgz:51026.got - 2010.06.03 18:47:42.
