data_PCOD9293509
_publ_section_title
;
Structure prediction by ZEFSAII (Michael W. Deem and Ramdas Pophale) SiO2 
 PCOD9293509
Probable space group: C 2/C
;
_chemical_formula_sum "Si O2"
_cell_formula_units_Z 36
_cell_length_a 21.119785
_cell_length_b 9.001933
_cell_length_c 19.568314
_cell_angle_alpha 90.000000
_cell_angle_beta 24.455764
_cell_angle_gamma 90.000000
_cell_volume 1540.171658
_symmetry_space_group_name_H-M "C 2/C"
_symmetry_group_IT_number 15
_symmetry_cell_setting 'monoclinic'
loop_
_space_group_symop_operation_xyz
x,y,z
-x,y,1/2-z
-x,-y,-z
x,-y,1/2+z
1/2+x,1/2+y,z
1/2-x,1/2+y,1/2-z
1/2-x,1/2-y,-z
1/2+x,1/2-y,1/2+z
loop_
_atom_site_type_symbol
_atom_site_label
_atom_site_fract_x
_atom_site_fract_y
_atom_site_fract_z
Si Si1 0.826061 0.457588 0.151041
Si Si2 0.083824 0.772186 0.235717
Si Si3 0.743177 0.565605 0.085263
Si Si4 0.500000 0.766442 0.250000
Si Si5 0.816499 0.867527 0.596502
O O1 0.776943 0.550929 0.132371
O O2 0.815599 0.285311 0.140808
O O3 0.710655 0.497681 0.325730
O O4 0.000000 0.500000 0.000000
O O5 0.169006 0.642394 0.192053
O O6 0.000000 0.726569 0.250000
O O7 0.966192 0.855162 0.402791
O O8 0.207834 0.897908 0.096276
O O9 0.598840 0.663889 0.204032
O O10 0.885716 0.635015 0.906376
#
# Coordination Sequence:
#
# PCOD9293509 Si02
#       5
#     8   8   8   4   8
#     4  11  25  46  69 104 135 184 232 287 349 412
#     4  11  23  45  66 104 134 182 227 291 344 418
#     4  10  24  41  71  98 140 181 238 287 346 408
#     4  10  22  46  66 102 136 190 232 286 350 410
#     4  11  25  45  73  98 139 181 234 285 348 410
#
# _framework density 23.374018
#
# number of rings (size 3 to 8) (size 9 to 14) (size 15 to 20)
#    0.000    1.333    3.333    0.667    3.111    7.111 
#    8.000    0.000    0.000    0.000    0.000    0.000 
#    0.000    0.000    0.000    0.000    0.000    0.000 
#
# Total GULP energy -100877.034913 kJ/mol
# GULP energy per Si atom -5604.279717 kJ/mol
# Density = 2.332082 g / cm^3
# Si number density = 23.374018 Si / 1000 Ang^3
#
#
#
# Elastic Constant Matrix: (Units=GPa)
#
#
# Indices 1 2 3 4 5 6 
#
# 1 154.1135 31.2166 29.5182 -0.0001 -14.3144 0.0000
# 2 31.2166 69.3960 26.5297 -0.0003 11.4615 0.0002
# 3 29.5182 26.5297 111.0893 -0.0003 -4.7419 0.0002
# 4 -0.0001 -0.0003 -0.0003 38.1621 0.0002 0.4537
# 5 -14.3144 11.4615 -4.7419 0.0002 26.7667 -0.0001
# 6 0.0000 0.0002 0.0002 0.4537 -0.0001 11.6179
#
#
#
# Elastic Compliance Matrix: (Units=1/GPa)
#
#
# Indices 1 2 3 4 5 6 
#
# 1 0.008083 -0.004298 -0.000865 0.000000 0.006010 0.000000
# 2 -0.004298 0.019802 -0.004078 0.000000 -0.011500 0.000000
# 3 -0.000865 -0.004078 0.010338 0.000000 0.003115 0.000000
# 4 0.000000 0.000000 0.000000 0.026216 0.000000 -0.001024
# 5 0.006010 -0.011500 0.003115 0.000000 0.046050 0.000000
# 6 0.000000 0.000000 0.000000 -0.001024 0.000000 0.086114
#
#
# Mechanical properties :
#
#
# Convention : Reuss Voigt Hill
#
# Bulk Modulus (GPa) = 50.65361 56.56976 53.61169
# Shear Modulus (GPa) = 22.55649 31.79829 27.17739
#
# Velocity S-wave (km/s) = 3.10985 3.69238 3.41356
# Velocity P-wave (km/s) = 5.88327 6.51404 6.20667
#
# Compressibility (1/GPa) = 0.01974193
#
# Stress axis : x y z
#
# Youngs Moduli (GPa) = 123.71349 50.50066 96.72703
#
# Poissons Ratio (x) = 0.21706 0.08365
# Poissons Ratio (y) = 0.53173 0.39443
# Poissons Ratio (z) = 0.10699 0.20593
#
# Static dielectric constant tensor:
#      x y z
#    x 1.901460 0.000000 -0.011790 
#    y 0.000000 1.841010 0.000000 
#    z -0.011790 0.000000 1.903970 
# 
# From -- ./inp_files/54022.got.cif
#   From: 2010.05.17/outbox.cif.g08.bks.cpg/sg15_28_cif.got.tgz:54022.got - 2010.06.03 18:47:42.
