data_PCOD9293187
_publ_section_title
;
Structure prediction by ZEFSAII (Michael W. Deem and Ramdas Pophale) SiO2 
 PCOD9293187
Probable space group: C 2/C
;
_chemical_formula_sum "Si O2"
_cell_formula_units_Z 52
_cell_length_a 8.770967
_cell_length_b 21.299793
_cell_length_c 17.061136
_cell_angle_alpha 90.000000
_cell_angle_beta 45.846876
_cell_angle_gamma 90.000000
_cell_volume 2286.867782
_symmetry_space_group_name_H-M "C 2/C"
_symmetry_group_IT_number 15
_symmetry_cell_setting 'monoclinic'
loop_
_space_group_symop_operation_xyz
x,y,z
-x,y,1/2-z
-x,-y,-z
x,-y,1/2+z
1/2+x,1/2+y,z
1/2-x,1/2+y,1/2-z
1/2-x,1/2-y,-z
1/2+x,1/2-y,1/2+z
loop_
_atom_site_type_symbol
_atom_site_label
_atom_site_fract_x
_atom_site_fract_y
_atom_site_fract_z
Si Si1 0.530769 0.183490 0.910837
Si Si2 0.747529 0.137618 0.141409
Si Si3 0.148490 0.455994 0.395745
Si Si4 0.449829 0.389215 0.411334
Si Si5 0.233026 0.507359 0.694783
Si Si6 0.000000 0.193090 0.750000
Si Si7 0.921826 0.795482 0.860863
O O1 0.545242 0.108532 0.901189
O O2 0.757659 0.212792 0.858031
O O3 0.468564 0.221680 0.855818
O O4 0.329225 0.195711 0.039088
O O5 0.500000 0.156965 0.250000
O O6 0.932097 0.170730 0.125981
O O7 0.765791 0.063348 0.154246
O O8 0.804441 0.142638 0.029079
O O9 0.316864 0.430742 0.397687
O O10 0.237706 0.490983 0.287835
O O11 0.000000 0.500000 0.500000
O O12 0.609817 0.438963 0.392030
O O13 0.558709 0.341466 0.311522
O O14 0.000000 0.525177 0.750000
O O15 0.000000 0.819086 0.750000
#
# Coordination Sequence:
#
# PCOD9293187 Si02
#       7
#     8   8   8   8   8   4   8
#     4  10  25  48  68 110 136 183 252 295 357 435
#     4  11  27  43  65 105 146 194 243 306 367 437
#     4  11  23  41  73  99 144 189 231 300 370 441
#     4  11  22  43  65 104 139 181 248 288 369 448
#     4  11  23  39  63 105 141 188 237 299 374 438
#     4  10  22  44  78 100 136 190 240 300 368 442
#     4  11  28  48  74 103 147 196 247 302 367 435
#
# _framework density 22.738524999999999
#
# number of rings (size 3 to 8) (size 9 to 14) (size 15 to 20)
#    0.000    1.231    3.077    2.308   11.846    3.077 
#    0.000    3.846    0.000    0.000    0.000    0.000 
#    0.000    0.000    0.000    0.000    0.000    0.000 
#
# Total GULP energy -145037.926325 kJ/mol
# GULP energy per Si atom -5578.381782 kJ/mol
# Density = 2.268677 g / cm^3
# Si number density = 22.738525 Si / 1000 Ang^3
#
#
#
# Elastic Constant Matrix: (Units=GPa)
#
#
# Indices 1 2 3 4 5 6 
#
# 1 85.4066 16.5758 68.9726 0.0000 -9.0147 0.0000
# 2 16.5758 35.4758 13.4902 0.0000 -13.2131 0.0000
# 3 68.9726 13.4902 162.6888 0.0000 -7.6704 0.0000
# 4 0.0000 0.0000 0.0000 20.0250 0.0000 -1.6827
# 5 -9.0147 -13.2131 -7.6704 0.0000 45.0811 0.0000
# 6 0.0000 0.0000 0.0000 -1.6827 0.0000 -0.4037
#
#
#
# Elastic Compliance Matrix: (Units=1/GPa)
#
#
# Indices 1 2 3 4 5 6 
#
# 1 0.018992 -0.005691 -0.007540 0.000000 0.000847 0.000001
# 2 -0.005691 0.034152 -0.000001 0.000000 0.008872 0.000001
# 3 -0.007540 -0.000001 0.009347 0.000000 0.000082 -0.000001
# 4 0.000000 0.000000 0.000000 0.036985 0.000000 -0.154142
# 5 0.000847 0.008872 0.000082 0.000000 0.024966 0.000001
# 6 0.000001 0.000001 -0.000001 -0.154142 0.000001 -1.834366
#
#
# Mechanical properties :
#
#
# Convention : Reuss Voigt Hill
#
# Bulk Modulus (GPa) = 27.75680 53.51650 40.63665
# Shear Modulus (GPa) = -2.99141 25.24265 11.12562
#
# Velocity S-wave (km/s) = -1.14823 3.33547 2.21438
# Velocity P-wave (km/s) = 3.23660 6.19843 4.94450
#
# Compressibility (1/GPa) = 0.03602721
#
# Stress axis : x y z
#
# Youngs Moduli (GPa) = 52.65507 29.28091 106.98454
#
# Poissons Ratio (x) = 0.16664 0.80663
# Poissons Ratio (y) = 0.29967 0.00009
# Poissons Ratio (z) = 0.39700 0.00002
#
# Static dielectric constant tensor:
#      x y z
#    x 1.862200 0.000000 -0.053910 
#    y 0.000000 1.929960 0.000000 
#    z -0.053910 0.000000 1.770330 
# 
# From -- ./inp_files/192460.got.cif
#   From: 2010.05.17/outbox.cif.g08.bks.cpg/sg15_97_cif.got.tgz:192460.got - 2010.06.03 18:47:42.
