data_PCOD9293839
_publ_section_title
;
Structure prediction by ZEFSAII (Michael W. Deem and Ramdas Pophale) SiO2 
 PCOD9293839
Probable space group: C 2/C
;
_chemical_formula_sum "Si O2"
_cell_formula_units_Z 44
_cell_length_a 7.039196
_cell_length_b 12.345037
_cell_length_c 22.692799
_cell_angle_alpha 90.000000
_cell_angle_beta 54.609879
_cell_angle_gamma 90.000000
_cell_volume 1607.616403
_symmetry_space_group_name_H-M "C 2/C"
_symmetry_group_IT_number 15
_symmetry_cell_setting 'monoclinic'
loop_
_space_group_symop_operation_xyz
x,y,z
-x,y,1/2-z
-x,-y,-z
x,-y,1/2+z
1/2+x,1/2+y,z
1/2-x,1/2+y,1/2-z
1/2-x,1/2-y,-z
1/2+x,1/2-y,1/2+z
loop_
_atom_site_type_symbol
_atom_site_label
_atom_site_fract_x
_atom_site_fract_y
_atom_site_fract_z
Si Si1 0.404290 0.917157 0.566356
Si Si2 0.276883 0.583288 0.609389
Si Si3 0.892981 0.244567 0.887796
Si Si4 0.765421 0.461649 0.210832
Si Si5 0.500000 0.126445 0.250000
Si Si6 0.521258 0.353337 0.551913
O O1 0.578002 0.829919 0.563493
O O2 0.190721 0.854395 0.576170
O O3 0.500000 0.000000 0.500000
O O4 0.315897 0.980376 0.639503
O O5 0.452293 0.643196 0.622441
O O6 0.006766 0.606774 0.673564
O O7 0.346004 0.455796 0.593974
O O8 0.342192 0.621323 0.532174
O O9 0.965587 0.296789 0.812641
O O10 0.000000 0.077724 0.750000
O O11 0.883499 0.259176 0.070336
O O12 0.799579 0.546271 0.259078
#
# Coordination Sequence:
#
# PCOD9293839 Si02
#       6
#     8   8   8   8   4   8
#     4  11  21  42  75 111 151 203 261 322 402 474
#     4  11  23  44  75 115 149 200 266 319 402 484
#     4  11  24  45  74 112 155 204 264 333 390 484
#     4  11  23  44  76 104 153 214 261 316 406 487
#     4  10  22  48  72 102 150 216 266 322 396 478
#     4  11  21  44  71 112 161 192 249 337 409 459
#
# _framework density 27.369714999999999
#
# number of rings (size 3 to 8) (size 9 to 14) (size 15 to 20)
#    0.000    1.091    5.455    2.727    0.000    0.727 
#    3.273    3.636    8.000    4.364    0.000    0.000 
#    0.000    0.182    0.000    0.000    0.000    0.000 
#
# Total GULP energy -123231.805159 kJ/mol
# GULP energy per Si atom -5601.445689 kJ/mol
# Density = 2.730742 g / cm^3
# Si number density = 27.369715 Si / 1000 Ang^3
#
#
#
# Elastic Constant Matrix: (Units=GPa)
#
#
# Indices 1 2 3 4 5 6 
#
# 1 224.6517 75.5593 55.5411 0.0000 15.5468 0.0000
# 2 75.5593 130.5501 46.1488 0.0000 7.3235 0.0000
# 3 55.5411 46.1488 164.3969 0.0000 27.9188 0.0000
# 4 0.0000 0.0000 0.0000 36.5411 0.0000 17.5999
# 5 15.5468 7.3235 27.9188 0.0000 64.0906 0.0000
# 6 0.0000 0.0000 0.0000 17.5999 0.0000 59.3223
#
#
#
# Elastic Compliance Matrix: (Units=1/GPa)
#
#
# Indices 1 2 3 4 5 6 
#
# 1 0.005727 -0.002923 -0.001010 0.000000 -0.000615 0.000000
# 2 -0.002923 0.009996 -0.001884 0.000000 0.000388 0.000000
# 3 -0.001010 -0.001884 0.007424 0.000000 -0.002774 0.000000
# 4 0.000000 0.000000 0.000000 0.031929 0.000000 -0.009473
# 5 -0.000615 0.000388 -0.002774 0.000000 0.016916 0.000000
# 6 0.000000 0.000000 0.000000 -0.009473 0.000000 0.019667
#
#
# Mechanical properties :
#
#
# Convention : Reuss Voigt Hill
#
# Bulk Modulus (GPa) = 86.86183 97.12192 91.99187
# Shear Modulus (GPa) = 46.67185 54.81409 50.74297
#
# Velocity S-wave (km/s) = 4.13393 4.48004 4.31046
# Velocity P-wave (km/s) = 7.38859 7.89451 7.64573
#
# Compressibility (1/GPa) = 0.01151254
#
# Stress axis : x y z
#
# Youngs Moduli (GPa) = 174.62134 100.03971 134.69849
#
# Poissons Ratio (x) = 0.29242 0.13601
# Poissons Ratio (y) = 0.51042 0.25382
# Poissons Ratio (z) = 0.17632 0.18851
#
# Static dielectric constant tensor:
#      x y z
#    x 2.118510 0.000000 -0.087700 
#    y 0.000000 2.191710 0.000000 
#    z -0.087700 0.000000 2.145890 
# 
# From -- ./inp_files/230198.got.cif
#   From: 2010.05.17/outbox.cif.g08.bks.cpg/sg15_116_cif.got.tgz:230198.got - 2010.06.03 18:47:42.
