data_PCOD9293209
_publ_section_title
;
Structure prediction by ZEFSAII (Michael W. Deem and Ramdas Pophale) SiO2 
 PCOD9293209
Probable space group: C 2/C
;
_chemical_formula_sum "Si O2"
_cell_formula_units_Z 48
_cell_length_a 29.717134
_cell_length_b 11.621007
_cell_length_c 20.372463
_cell_angle_alpha 90.000000
_cell_angle_beta 20.878966
_cell_angle_gamma 90.000000
_cell_volume 2507.412846
_symmetry_space_group_name_H-M "C 2/C"
_symmetry_group_IT_number 15
_symmetry_cell_setting 'monoclinic'
loop_
_space_group_symop_operation_xyz
x,y,z
-x,y,1/2-z
-x,-y,-z
x,-y,1/2+z
1/2+x,1/2+y,z
1/2-x,1/2+y,1/2-z
1/2-x,1/2-y,-z
1/2+x,1/2-y,1/2+z
loop_
_atom_site_type_symbol
_atom_site_label
_atom_site_fract_x
_atom_site_fract_y
_atom_site_fract_z
Si Si1 0.172977 0.573714 0.773222
Si Si2 0.889538 0.518325 0.354486
Si Si3 0.868839 0.093208 0.734532
Si Si4 0.584338 0.859961 0.816773
Si Si5 0.064496 0.080577 0.009847
Si Si6 0.379063 0.206627 0.791902
O O1 0.141644 0.441969 0.795644
O O2 0.312211 0.580550 0.612965
O O3 0.153931 0.647226 0.732701
O O4 0.066404 0.621828 0.968101
O O5 0.759351 0.528301 0.571185
O O6 0.875067 0.591471 0.308435
O O7 0.926367 0.392078 0.277189
O O8 0.000000 0.563170 0.250000
O O9 0.871438 0.229518 0.740791
O O10 0.893817 0.081016 0.622999
O O11 0.976961 0.032801 0.631241
O O12 0.977831 0.191027 0.144912
O O13 0.250000 0.250000 0.000000
#
# Coordination Sequence:
#
# PCOD9293209 Si02
#       6
#     8   8   8   8   8   8
#     4  10  23  42  66  95 129 178 215 266 338 387
#     4  11  24  40  67  95 128 172 213 267 334 385
#     4  11  23  44  63  98 131 167 223 274 315 400
#     4  10  22  45  63  92 136 167 219 273 323 397
#     4  11  24  40  69  96 131 174 220 269 331 392
#     4  11  23  43  62  95 134 163 216 273 315 390
#
# _framework density 19.143236999999999
#
# number of rings (size 3 to 8) (size 9 to 14) (size 15 to 20)
#    0.000    1.333    3.333    1.500    2.333    2.667 
#    0.000    0.000    0.000    0.000    0.000    0.000 
#    0.000    0.000    0.000    0.000    0.000    0.000 
#
# Total GULP energy -133990.665669 kJ/mol
# GULP energy per Si atom -5582.944403 kJ/mol
# Density = 1.909967 g / cm^3
# Si number density = 19.143237 Si / 1000 Ang^3
#
#
#
# Elastic Constant Matrix: (Units=GPa)
#
#
# Indices 1 2 3 4 5 6 
#
# 1 50.0869 26.2859 34.2956 0.0000 -17.0865 0.0000
# 2 26.2859 103.1086 23.0835 0.0000 -5.1898 0.0000
# 3 34.2956 23.0835 114.9010 0.0000 -5.3930 0.0000
# 4 0.0000 0.0000 0.0000 26.1570 0.0000 -5.3311
# 5 -17.0865 -5.1898 -5.3930 0.0000 44.6349 0.0000
# 6 0.0000 0.0000 0.0000 -5.3311 0.0000 -15.7240
#
#
#
# Elastic Compliance Matrix: (Units=1/GPa)
#
#
# Indices 1 2 3 4 5 6 
#
# 1 0.032089 -0.005877 -0.007898 0.000000 0.010646 0.000000
# 2 -0.005877 0.011271 -0.000557 0.000000 -0.001006 0.000000
# 3 -0.007898 -0.000557 0.011090 0.000000 -0.001748 0.000000
# 4 0.000000 0.000000 0.000000 0.035760 0.000000 -0.012124
# 5 0.010646 -0.001006 -0.001748 0.000000 0.026151 0.000000
# 6 0.000000 0.000000 0.000000 -0.012124 0.000000 -0.059487
#
#
# Mechanical properties :
#
#
# Convention : Reuss Voigt Hill
#
# Bulk Modulus (GPa) = 38.77969 48.38073 43.58021
# Shear Modulus (GPa) = 53.11619 23.30903 38.21261
#
# Velocity S-wave (km/s) = 5.27323 3.49321 4.47267
# Velocity P-wave (km/s) = 7.57480 6.44965 7.03475
#
# Compressibility (1/GPa) = 0.02578670
#
# Stress axis : x y z
#
# Youngs Moduli (GPa) = 31.16342 88.72473 90.16840
#
# Poissons Ratio (x) = 0.52140 0.71211
# Poissons Ratio (y) = 0.18314 0.05027
# Poissons Ratio (z) = 0.24612 0.04946
#
# Static dielectric constant tensor:
#      x y z
#    x 1.637720 0.000000 0.014940 
#    y 0.000000 1.714760 0.000000 
#    z 0.014940 0.000000 1.674020 
# 
# From -- ./inp_files/103743.got.cif
#   From: 2010.05.17/outbox.cif.g08.bks.cpg/sg15_52_cif.got.tgz:103743.got - 2010.06.03 18:47:42.
