data_PCOD9293029
_publ_section_title
;
Structure prediction by ZEFSAII (Michael W. Deem and Ramdas Pophale) SiO2 
 PCOD9293029
Probable space group: C 2/C
;
_chemical_formula_sum "Si O2"
_cell_formula_units_Z 44
_cell_length_a 13.049318
_cell_length_b 5.007203
_cell_length_c 27.862620
_cell_angle_alpha 90.000000
_cell_angle_beta 99.791734
_cell_angle_gamma 90.000000
_cell_volume 1794.038762
_symmetry_space_group_name_H-M "C 2/C"
_symmetry_group_IT_number 15
_symmetry_cell_setting 'monoclinic'
loop_
_space_group_symop_operation_xyz
x,y,z
-x,y,1/2-z
-x,-y,-z
x,-y,1/2+z
1/2+x,1/2+y,z
1/2-x,1/2+y,1/2-z
1/2-x,1/2-y,-z
1/2+x,1/2-y,1/2+z
loop_
_atom_site_type_symbol
_atom_site_label
_atom_site_fract_x
_atom_site_fract_y
_atom_site_fract_z
Si Si1 0.409962 0.299849 0.977657
Si Si2 0.003992 0.466255 0.396569
Si Si3 0.000000 0.324931 0.750000
Si Si4 0.218660 0.397658 0.277112
Si Si5 0.209836 0.453484 0.455957
Si Si6 0.076614 0.966211 0.160729
O O1 0.454831 0.084694 0.944981
O O2 0.315620 0.440620 0.942130
O O3 0.500000 0.500000 0.000000
O O4 0.353471 0.179485 0.019592
O O5 0.123351 0.369168 0.411138
O O6 0.982083 0.769195 0.380669
O O7 0.949347 0.270290 0.354113
O O8 0.100245 0.504590 0.772755
O O9 0.032962 0.139326 0.708107
O O10 0.268399 0.598838 0.241338
O O11 0.298908 0.426602 0.327368
O O12 0.250000 0.250000 0.500000
#
# Coordination Sequence:
#
# PCOD9293029 Si02
#       6
#     8   8   4   8   8   8
#     4  11  24  46  69  98 143 191 231 297 354 422
#     4  12  26  46  69 107 147 179 239 298 342 418
#     4  10  24  50  74  96 142 190 228 292 358 414
#     4  10  22  44  71  98 129 179 231 279 352 423
#     4  11  25  44  74 102 137 194 241 276 362 434
#     4  11  26  45  70 106 141 184 237 292 353 419
#
# _framework density 24.525670999999999
#
# number of rings (size 3 to 8) (size 9 to 14) (size 15 to 20)
#    0.000    1.091    1.818    3.818    5.091    8.000 
#    0.000    5.455    0.000    0.000    0.000    0.000 
#    0.000    0.000    0.000    0.000    0.000    0.000 
#
# Total GULP energy -123172.004897 kJ/mol
# GULP energy per Si atom -5598.727495 kJ/mol
# Density = 2.446985 g / cm^3
# Si number density = 24.525671 Si / 1000 Ang^3
#
#
#
# Elastic Constant Matrix: (Units=GPa)
#
#
# Indices 1 2 3 4 5 6 
#
# 1 178.7972 18.4732 30.3499 0.0000 32.9334 0.0000
# 2 18.4732 60.2746 0.6028 0.0000 3.6053 0.0000
# 3 30.3499 0.6028 75.8283 0.0000 12.1252 0.0000
# 4 0.0000 0.0000 0.0000 48.2677 0.0000 6.5273
# 5 32.9334 3.6053 12.1252 0.0000 47.0201 0.0000
# 6 0.0000 0.0000 0.0000 6.5273 0.0000 51.1747
#
#
#
# Elastic Compliance Matrix: (Units=1/GPa)
#
#
# Indices 1 2 3 4 5 6 
#
# 1 0.006903 -0.001846 -0.002084 0.000000 -0.004156 0.000000
# 2 -0.001846 0.017161 0.000632 0.000000 -0.000186 0.000000
# 3 -0.002084 0.000632 0.014384 0.000000 -0.002298 0.000000
# 4 0.000000 0.000000 0.000000 0.021081 0.000000 -0.002689
# 5 -0.004156 -0.000186 -0.002298 0.000000 0.024785 0.000000
# 6 0.000000 0.000000 0.000000 -0.002689 0.000000 0.019884
#
#
# Mechanical properties :
#
#
# Convention : Reuss Voigt Hill
#
# Bulk Modulus (GPa) = 31.39407 45.97245 38.68326
# Shear Modulus (GPa) = 41.18214 46.99078 44.08646
#
# Velocity S-wave (km/s) = 4.10218 4.38194 4.24437
# Velocity P-wave (km/s) = 5.93847 6.66237 6.31081
#
# Compressibility (1/GPa) = 0.03185315
#
# Stress axis : x y z
#
# Youngs Moduli (GPa) = 144.86737 58.27047 69.52113
#
# Poissons Ratio (x) = 0.10758 0.14485
# Poissons Ratio (y) = 0.26745 -0.04395
# Poissons Ratio (z) = 0.30185 -0.03684
#
# Static dielectric constant tensor:
#      x y z
#    x 2.026320 0.000000 0.080000 
#    y 0.000000 1.954070 0.000000 
#    z 0.080000 0.000000 2.025930 
# 
# From -- ./inp_files/294279.got.cif
#   From: 2010.05.17/outbox.cif.g08.bks.cpg/sg15_148_cif.got.tgz:294279.got - 2010.06.03 18:47:42.
