data_PCOD9293620
_publ_section_title
;
Structure prediction by ZEFSAII (Michael W. Deem and Ramdas Pophale) SiO2 
 PCOD9293620
Probable space group: C 2/C
;
_chemical_formula_sum "Si O2"
_cell_formula_units_Z 44
_cell_length_a 23.230950
_cell_length_b 8.909802
_cell_length_c 28.901126
_cell_angle_alpha 90.000000
_cell_angle_beta 19.583675
_cell_angle_gamma 90.000000
_cell_volume 2005.081140
_symmetry_space_group_name_H-M "C 2/C"
_symmetry_group_IT_number 15
_symmetry_cell_setting 'monoclinic'
loop_
_space_group_symop_operation_xyz
x,y,z
-x,y,1/2-z
-x,-y,-z
x,-y,1/2+z
1/2+x,1/2+y,z
1/2-x,1/2+y,1/2-z
1/2-x,1/2-y,-z
1/2+x,1/2-y,1/2+z
loop_
_atom_site_type_symbol
_atom_site_label
_atom_site_fract_x
_atom_site_fract_y
_atom_site_fract_z
Si Si1 0.885412 0.951415 0.543386
Si Si2 0.714334 0.846618 0.419947
Si Si3 0.014821 0.529149 0.648545
Si Si4 0.500000 0.136953 0.250000
Si Si5 0.853218 0.396788 0.589989
Si Si6 0.018459 0.802728 0.884229
O O1 0.888372 0.773816 0.533107
O O2 0.689753 0.002355 0.699566
O O3 0.000000 0.000000 0.500000
O O4 0.947648 0.032785 0.449268
O O5 0.601323 0.920947 0.545543
O O6 0.863153 0.747155 0.329893
O O7 0.766734 0.987375 0.348560
O O8 0.044507 0.702133 0.611426
O O9 0.071814 0.472254 0.655640
O O10 0.723900 0.316761 0.723235
O O11 0.000000 0.500000 0.500000
O O12 0.948073 0.288399 0.481949
#
# Coordination Sequence:
#
# PCOD9293620 Si02
#       6
#     8   8   8   4   8   8
#     4  11  24  38  67  99 138 179 222 278 346 418
#     4  10  24  42  71  97 134 181 232 284 341 414
#     4  10  23  44  64  96 133 176 229 287 337 404
#     4  10  22  46  70  98 128 180 242 286 342 404
#     4  11  25  43  69 101 143 180 228 278 351 421
#     4  11  24  43  64 100 140 179 223 281 345 409
#
# _framework density 21.944248999999999
#
# number of rings (size 3 to 8) (size 9 to 14) (size 15 to 20)
#    0.000    1.455    1.818    1.636   10.182    0.000 
#    0.000    4.545    0.000    0.000    0.000    0.000 
#    0.000    0.000    0.000    0.000    0.000    0.000 
#
# Total GULP energy -122857.985781 kJ/mol
# GULP energy per Si atom -5584.453899 kJ/mol
# Density = 2.189430 g / cm^3
# Si number density = 21.944249 Si / 1000 Ang^3
#
#
#
# Elastic Constant Matrix: (Units=GPa)
#
#
# Indices 1 2 3 4 5 6 
#
# 1 59.9278 17.9855 13.7834 0.0130 -6.1791 -0.0057
# 2 17.9855 100.5513 29.7134 0.0073 8.0057 -0.0026
# 3 13.7834 29.7134 86.8476 0.0405 15.9866 -0.0115
# 4 0.0130 0.0073 0.0405 29.6101 0.0002 -2.2138
# 5 -6.1791 8.0057 15.9866 0.0002 32.7077 -0.0002
# 6 -0.0057 -0.0026 -0.0115 -2.2138 -0.0002 29.6841
#
#
#
# Elastic Compliance Matrix: (Units=1/GPa)
#
#
# Indices 1 2 3 4 5 6 
#
# 1 0.018864 -0.002932 -0.003054 -0.000003 0.005774 0.000002
# 2 -0.002932 0.011546 -0.003146 0.000003 -0.001842 -0.000001
# 3 -0.003054 -0.003146 0.014329 -0.000017 -0.006811 0.000003
# 4 -0.000003 0.000003 -0.000017 0.033962 0.000007 0.002533
# 5 0.005774 -0.001842 -0.006811 0.000007 0.035444 -0.000001
# 6 0.000002 -0.000001 0.000003 0.002533 -0.000001 0.033877
#
#
# Mechanical properties :
#
#
# Convention : Reuss Voigt Hill
#
# Bulk Modulus (GPa) = 37.76884 41.14346 39.45615
# Shear Modulus (GPa) = 28.55348 30.79001 29.67175
#
# Velocity S-wave (km/s) = 3.61110 3.74986 3.68114
# Velocity P-wave (km/s) = 5.88519 6.12686 6.00724
#
# Compressibility (1/GPa) = 0.02647685
#
# Stress axis : x y z
#
# Youngs Moduli (GPa) = 53.01025 86.61152 69.78830
#
# Poissons Ratio (x) = 0.25390 0.21312
# Poissons Ratio (y) = 0.15540 0.21954
# Poissons Ratio (z) = 0.16188 0.27246
#
# Static dielectric constant tensor:
#      x y z
#    x 1.840580 0.000000 -0.016060 
#    y 0.000000 1.880400 0.000010 
#    z -0.016060 0.000010 1.780420 
# 
# From -- ./inp_files/318574.got.cif
#   From: 2010.05.17/outbox.cif.g08.bks.cpg/sg15_160_cif.got.tgz:318574.got - 2010.06.03 18:47:42.
