data_PCOD9293121
_publ_section_title
;
Structure prediction by ZEFSAII (Michael W. Deem and Ramdas Pophale) SiO2 
 PCOD9293121
Probable space group: C 2/C
;
_chemical_formula_sum "Si O2"
_cell_formula_units_Z 44
_cell_length_a 5.073604
_cell_length_b 18.998962
_cell_length_c 20.604154
_cell_angle_alpha 90.000000
_cell_angle_beta 74.712991
_cell_angle_gamma 90.000000
_cell_volume 1915.826783
_symmetry_space_group_name_H-M "C 2/C"
_symmetry_group_IT_number 15
_symmetry_cell_setting 'monoclinic'
loop_
_space_group_symop_operation_xyz
x,y,z
-x,y,1/2-z
-x,-y,-z
x,-y,1/2+z
1/2+x,1/2+y,z
1/2-x,1/2+y,1/2-z
1/2-x,1/2-y,-z
1/2+x,1/2-y,1/2+z
loop_
_atom_site_type_symbol
_atom_site_label
_atom_site_fract_x
_atom_site_fract_y
_atom_site_fract_z
Si Si1 0.000000 0.425629 0.250000
Si Si2 0.323371 0.332656 0.500459
Si Si3 0.253168 0.878545 0.578937
Si Si4 0.849697 0.995767 0.818833
Si Si5 0.601861 0.356536 0.346977
Si Si6 0.312689 0.791538 0.707185
O O1 0.925931 0.482902 0.198413
O O2 0.919339 0.366319 0.310754
O O3 0.250000 0.250000 0.500000
O O4 0.510606 0.348196 0.550744
O O5 0.496772 0.354559 0.426268
O O6 0.039212 0.375132 0.522177
O O7 0.304765 0.831993 0.639565
O O8 0.177035 0.954303 0.613358
O O9 0.000000 0.955281 0.750000
O O10 0.007914 0.070639 0.818001
O O11 0.535684 0.282708 0.318156
O O12 0.500000 0.827116 0.750000
O O13 0.000000 0.784265 0.750000
#
# Coordination Sequence:
#
# PCOD9293121 Si02
#       6
#     4   8   8   8   8   8
#     4  10  22  44  74 100 144 180 236 306 354 426
#     4  12  28  48  73 104 149 192 240 297 353 434
#     4  12  28  47  73 105 147 190 235 301 361 427
#     4  10  25  45  71 105 144 186 237 305 361 426
#     4  11  25  44  71 102 144 186 243 290 366 419
#     4  12  25  42  75 107 137 185 249 299 358 424
#
# _framework density 22.966587000000001
#
# number of rings (size 3 to 8) (size 9 to 14) (size 15 to 20)
#    0.000    0.727    2.727    3.818    8.909    1.455 
#    0.000    0.000    0.000    0.000    0.000    0.000 
#    0.000    0.000    0.000    0.000    0.000    0.000 
#
# Total GULP energy -122533.847593 kJ/mol
# GULP energy per Si atom -5569.720345 kJ/mol
# Density = 2.291431 g / cm^3
# Si number density = 22.966587 Si / 1000 Ang^3
#
#
#
# Elastic Constant Matrix: (Units=GPa)
#
#
# Indices 1 2 3 4 5 6 
#
# 1 60.9836 -11.2101 -0.5287 0.0000 18.6497 0.0000
# 2 -11.2101 66.5891 19.1651 0.0000 8.5690 0.0000
# 3 -0.5287 19.1651 109.7322 0.0000 -3.9803 0.0000
# 4 0.0000 0.0000 0.0000 32.5881 0.0000 -1.1968
# 5 18.6497 8.5690 -3.9803 0.0000 49.3876 0.0000
# 6 0.0000 0.0000 0.0000 -1.1968 0.0000 37.3720
#
#
#
# Elastic Compliance Matrix: (Units=1/GPa)
#
#
# Indices 1 2 3 4 5 6 
#
# 1 0.019819 0.004713 -0.001032 0.000000 -0.008385 0.000000
# 2 0.004713 0.017381 -0.003196 0.000000 -0.005053 0.000000
# 3 -0.001032 -0.003196 0.009729 0.000000 0.001728 0.000000
# 4 0.000000 0.000000 0.000000 0.030722 0.000000 0.000984
# 5 -0.008385 -0.005053 0.001728 0.000000 0.024430 0.000000
# 6 0.000000 0.000000 0.000000 0.000984 0.000000 0.026790
#
#
# Mechanical properties :
#
#
# Convention : Reuss Voigt Hill
#
# Bulk Modulus (GPa) = 20.87745 28.01749 24.44747
# Shear Modulus (GPa) = 34.75397 39.19477 36.97437
#
# Velocity S-wave (km/s) = 3.89426 4.13558 4.01673
# Velocity P-wave (km/s) = 5.41576 5.91860 5.67275
#
# Compressibility (1/GPa) = 0.04789857
#
# Stress axis : x y z
#
# Youngs Moduli (GPa) = 50.45557 57.53425 102.78498
#
# Poissons Ratio (x) = -0.27113 0.10604
# Poissons Ratio (y) = -0.23777 0.32852
# Poissons Ratio (z) = 0.05206 0.18389
#
# Static dielectric constant tensor:
#      x y z
#    x 1.136280 0.000000 0.230760 
#    y 0.000000 1.934850 0.000000 
#    z 0.230760 0.000000 1.701420 
# 
# From -- ./inp_files/184818.got.cif
#   From: 2010.05.17/outbox.cif.g08.bks.cpg/sg15_93_cif.got.tgz:184818.got - 2010.06.03 18:47:42.
