data_PCOD9293685
_publ_section_title
;
Structure prediction by ZEFSAII (Michael W. Deem and Ramdas Pophale) SiO2 
 PCOD9293685
Probable space group: C 2/C
;
_chemical_formula_sum "Si O2"
_cell_formula_units_Z 36
_cell_length_a 5.753194
_cell_length_b 23.930986
_cell_length_c 10.605597
_cell_angle_alpha 90.000000
_cell_angle_beta 82.114659
_cell_angle_gamma 90.000000
_cell_volume 1446.367867
_symmetry_space_group_name_H-M "C 2/C"
_symmetry_group_IT_number 15
_symmetry_cell_setting 'monoclinic'
loop_
_space_group_symop_operation_xyz
x,y,z
-x,y,1/2-z
-x,-y,-z
x,-y,1/2+z
1/2+x,1/2+y,z
1/2-x,1/2+y,1/2-z
1/2-x,1/2-y,-z
1/2+x,1/2-y,1/2+z
loop_
_atom_site_type_symbol
_atom_site_label
_atom_site_fract_x
_atom_site_fract_y
_atom_site_fract_z
Si Si1 0.249978 0.630082 0.890097
Si Si2 0.646049 0.114418 0.364822
Si Si3 0.955696 0.206996 0.443525
Si Si4 0.228429 0.996319 0.073719
Si Si5 0.500000 0.205191 0.750000
O O1 0.304673 0.564916 0.865032
O O2 0.203148 0.659075 0.759120
O O3 0.414750 0.670536 0.961096
O O4 0.018688 0.624456 0.999073
O O5 0.500000 0.123131 0.250000
O O6 0.838779 0.160887 0.365890
O O7 0.763075 0.053357 0.348338
O O8 0.750000 0.250000 0.500000
O O9 0.093650 0.251262 0.348598
O O10 0.500000 0.000000 0.000000
O O11 0.000000 0.000000 0.000000
#
# Coordination Sequence:
#
# PCOD9293685 Si02
#       5
#     8   8   8   8   4
#     4  11  25  47  68 102 141 181 241 295 357 430
#     4  11  24  44  73 102 141 188 235 293 361 430
#     4  12  25  43  68  99 143 186 236 290 356 429
#     4  10  22  46  73 101 140 185 240 301 360 425
#     4  12  26  42  72  98 142 188 234 290 354 430
#
# _framework density 24.889931000000001
#
# number of rings (size 3 to 8) (size 9 to 14) (size 15 to 20)
#    0.000    0.889    4.444    2.000    4.667    0.000 
#    0.000    0.000    0.000    0.000    0.000    0.000 
#    0.000    0.000    0.000    0.000    0.000    0.000 
#
# Total GULP energy -100210.699234 kJ/mol
# GULP energy per Si atom -5567.261069 kJ/mol
# Density = 2.483328 g / cm^3
# Si number density = 24.889931 Si / 1000 Ang^3
#
#
#
# Elastic Constant Matrix: (Units=GPa)
#
#
# Indices 1 2 3 4 5 6 
#
# 1 115.6713 64.2992 54.4965 0.0000 21.8002 0.0000
# 2 64.2992 269.7488 49.0903 0.0000 33.3637 0.0000
# 3 54.4965 49.0903 77.2455 0.0000 20.3297 0.0000
# 4 0.0000 0.0000 0.0000 16.5013 0.0000 39.3563
# 5 21.8002 33.3637 20.3297 0.0000 64.6077 0.0000
# 6 0.0000 0.0000 0.0000 39.3563 0.0000 42.0642
#
#
#
# Elastic Compliance Matrix: (Units=1/GPa)
#
#
# Indices 1 2 3 4 5 6 
#
# 1 0.013677 -0.001601 -0.008324 0.000000 -0.001169 0.000000
# 2 -0.001601 0.004507 -0.001379 0.000000 -0.001353 0.000000
# 3 -0.008324 -0.001379 0.020463 0.000000 -0.002918 0.000000
# 4 0.000000 0.000000 0.000000 -0.049209 0.000000 0.046041
# 5 -0.001169 -0.001353 -0.002918 0.000000 0.017490 0.000000
# 6 0.000000 0.000000 0.000000 0.046041 0.000000 -0.019304
#
#
# Mechanical properties :
#
#
# Convention : Reuss Voigt Hill
#
# Bulk Modulus (GPa) = 62.34639 88.71529 75.53084
# Shear Modulus (GPa) = 320.99444 44.28663 182.64053
#
# Velocity S-wave (km/s) = 11.36862 4.22275 8.57546
# Velocity P-wave (km/s) = 14.05100 7.71336 11.33416
#
# Compressibility (1/GPa) = 0.01603942
#
# Stress axis : x y z
#
# Youngs Moduli (GPa) = 73.11483 221.87588 48.86951
#
# Poissons Ratio (x) = 0.35515 0.40680
# Poissons Ratio (y) = 0.11703 0.06738
# Poissons Ratio (z) = 0.60862 0.30591
#
# Static dielectric constant tensor:
#      x y z
#    x 2.943820 0.000000 0.085380 
#    y 0.000000 1.873260 0.000000 
#    z 0.085380 0.000000 2.340480 
# 
# From -- ./inp_files/72475.got.cif
#   From: 2010.05.17/outbox.cif.g08.bks.cpg/sg15_37_cif.got.tgz:72475.got - 2010.06.03 18:47:42.
