data_PCOD9293848
_publ_section_title
;
Structure prediction by ZEFSAII (Michael W. Deem and Ramdas Pophale) SiO2 
 PCOD9293848
Probable space group: C 2/C
;
_chemical_formula_sum "Si O2"
_cell_formula_units_Z 40
_cell_length_a 31.136123
_cell_length_b 11.992676
_cell_length_c 9.282869
_cell_angle_alpha 90.000000
_cell_angle_beta 23.922206
_cell_angle_gamma 90.000000
_cell_volume 1405.559760
_symmetry_space_group_name_H-M "C 2/C"
_symmetry_group_IT_number 15
_symmetry_cell_setting 'monoclinic'
loop_
_space_group_symop_operation_xyz
x,y,z
-x,y,1/2-z
-x,-y,-z
x,-y,1/2+z
1/2+x,1/2+y,z
1/2-x,1/2+y,1/2-z
1/2-x,1/2-y,-z
1/2+x,1/2-y,1/2+z
loop_
_atom_site_type_symbol
_atom_site_label
_atom_site_fract_x
_atom_site_fract_y
_atom_site_fract_z
Si Si1 0.668173 0.041368 0.366680
Si Si2 0.500000 0.497873 0.750000
Si Si3 0.000000 0.294890 0.250000
Si Si4 0.194185 0.053109 0.839190
Si Si5 0.367524 0.702871 0.249881
Si Si6 0.580752 0.201721 0.203202
O O1 0.763726 0.048069 0.189033
O O2 0.609082 0.928594 0.599131
O O3 0.581407 0.131529 0.592952
O O4 0.729163 0.033018 0.029748
O O5 0.578445 0.438639 0.620021
O O6 0.575802 0.581544 0.431480
O O7 0.927634 0.250220 0.606970
O O8 0.209113 0.169647 0.882445
O O9 0.351032 0.733983 0.132299
O O10 0.459550 0.785012 0.016661
#
# Coordination Sequence:
#
# PCOD9293848 Si02
#       6
#     8   4   4   8   8   8
#     4  12  26  45  78 114 143 203 258 306 364 462
#     4  10  22  48  74 102 154 196 252 314 368 446
#     4  12  24  48  74 112 152 204 250 314 364 456
#     4  12  25  46  78 112 146 197 262 301 375 453
#     4  10  24  46  71 107 150 204 234 321 382 433
#     4  10  24  46  71 104 157 192 241 311 384 423
#
# _framework density 28.458413
#
# number of rings (size 3 to 8) (size 9 to 14) (size 15 to 20)
#    0.000    1.200    4.000    2.400    5.600    1.600 
#    3.600    1.000    0.000    0.000    0.000    0.000 
#    0.000    0.000    0.000    0.000    0.000    0.000 
#
# Total GULP energy -111568.428424 kJ/mol
# GULP energy per Si atom -5578.421421 kJ/mol
# Density = 2.839364 g / cm^3
# Si number density = 28.458413 Si / 1000 Ang^3
#
#
#
# Elastic Constant Matrix: (Units=GPa)
#
#
# Indices 1 2 3 4 5 6 
#
# 1 254.4856 62.4085 67.0216 0.0000 39.4955 0.0000
# 2 62.4085 56.0364 37.5610 0.0000 -0.5248 0.0000
# 3 67.0216 37.5610 116.2986 0.0000 45.8426 0.0000
# 4 0.0000 0.0000 0.0000 -0.9142 0.0000 -13.3803
# 5 39.4955 -0.5248 45.8426 0.0000 72.0994 0.0000
# 6 0.0000 0.0000 0.0000 -13.3803 0.0000 33.2754
#
#
#
# Elastic Compliance Matrix: (Units=1/GPa)
#
#
# Indices 1 2 3 4 5 6 
#
# 1 0.006146 -0.006911 0.000049 0.000000 -0.003449 0.000000
# 2 -0.006911 0.033051 -0.011048 0.000000 0.011051 0.000000
# 3 0.000049 -0.011048 0.016255 0.000000 -0.010442 0.000000
# 4 0.000000 0.000000 0.000000 -0.158868 0.000000 -0.063882
# 5 -0.003449 0.011051 -0.010442 0.000000 0.022479 0.000000
# 6 0.000000 0.000000 0.000000 -0.063882 0.000000 0.004365
#
#
# Mechanical properties :
#
#
# Convention : Reuss Voigt Hill
#
# Bulk Modulus (GPa) = 50.93438 84.53366 67.73402
# Shear Modulus (GPa) = -146.16066 38.21409 -53.97329
#
# Velocity S-wave (km/s) = -7.17432 3.66841 -4.35968
# Velocity P-wave (km/s) = 7.11977 6.90737 1.22055
#
# Compressibility (1/GPa) = 0.01963310
#
# Stress axis : x y z
#
# Youngs Moduli (GPa) = 162.69459 30.25640 61.52121
#
# Poissons Ratio (x) = 0.20909 -0.00302
# Poissons Ratio (y) = 1.12433 0.67968
# Poissons Ratio (z) = -0.00799 0.33427
#
# Static dielectric constant tensor:
#      x y z
#    x 2.257990 0.000000 0.047040 
#    y 0.000000 2.264560 0.000000 
#    z 0.047040 0.000000 3.153420 
# 
# From -- ./inp_files/70057.got.cif
#   From: 2010.05.17/outbox.cif.g08.bks.cpg/sg15_36_cif.got.tgz:70057.got - 2010.06.03 18:47:42.
