data_PCOD9293371
_publ_section_title
;
Structure prediction by ZEFSAII (Michael W. Deem and Ramdas Pophale) SiO2 
 PCOD9293371
Probable space group: C 2/C
;
_chemical_formula_sum "Si O2"
_cell_formula_units_Z 52
_cell_length_a 5.240724
_cell_length_b 21.739734
_cell_length_c 17.498619
_cell_angle_alpha 90.000000
_cell_angle_beta 105.835776
_cell_angle_gamma 90.000000
_cell_volume 1917.988225
_symmetry_space_group_name_H-M "C 2/C"
_symmetry_group_IT_number 15
_symmetry_cell_setting 'monoclinic'
loop_
_space_group_symop_operation_xyz
x,y,z
-x,y,1/2-z
-x,-y,-z
x,-y,1/2+z
1/2+x,1/2+y,z
1/2-x,1/2+y,1/2-z
1/2-x,1/2-y,-z
1/2+x,1/2-y,1/2+z
loop_
_atom_site_type_symbol
_atom_site_label
_atom_site_fract_x
_atom_site_fract_y
_atom_site_fract_z
Si Si1 0.319639 0.311019 0.171635
Si Si2 0.500000 0.092907 0.750000
Si Si3 0.526205 0.855238 0.662804
Si Si4 0.257339 0.742068 0.908754
Si Si5 0.085345 0.085640 0.049887
Si Si6 0.171358 0.978406 0.833853
Si Si7 0.860193 0.459764 0.083186
O O1 0.500000 0.279518 0.250000
O O2 0.208165 0.368379 0.215442
O O3 0.510695 0.302324 0.111463
O O4 0.036564 0.282026 0.131777
O O5 0.660787 0.055079 0.828149
O O6 0.500000 0.841025 0.750000
O O7 0.710973 0.806810 0.633862
O O8 0.272392 0.857385 0.583906
O O9 0.618678 0.926562 0.674088
O O10 0.250000 0.750000 0.000000
O O11 0.999994 0.062952 0.125535
O O12 0.254908 0.024759 0.041659
O O13 0.817423 0.088900 0.977711
O O14 0.000000 0.999926 0.750000
O O15 0.322243 0.031799 0.892170
#
# Coordination Sequence:
#
# PCOD9293371 Si02
#       7
#     8   4   8   8   8   8   8
#     4  12  27  54  81 118 165 212 285 340 410 515
#     4  12  26  46  80 116 168 224 276 342 418 510
#     4  11  25  43  78 115 155 214 267 342 420 489
#     4  12  29  54  85 119 164 216 275 362 427 498
#     4  10  22  45  71 118 162 205 275 333 400 506
#     4  11  21  39  70 113 157 206 276 325 404 503
#     4  10  24  43  73 113 162 218 261 337 410 480
#
# _framework density 27.111740000000001
#
# number of rings (size 3 to 8) (size 9 to 14) (size 15 to 20)
#    0.000    0.923    3.077    2.308    4.308    5.538 
#    0.000    0.000    0.000    0.000    0.000    0.000 
#    0.000    0.000    0.000    0.000    0.000    0.000 
#
# Total GULP energy -144949.610914 kJ/mol
# GULP energy per Si atom -5574.985035 kJ/mol
# Density = 2.705003 g / cm^3
# Si number density = 27.111740 Si / 1000 Ang^3
#
#
#
# Elastic Constant Matrix: (Units=GPa)
#
#
# Indices 1 2 3 4 5 6 
#
# 1 163.2368 39.4870 81.9329 0.0000 -5.4618 0.0000
# 2 39.4870 77.3676 59.8260 0.0000 -16.0647 0.0000
# 3 81.9329 59.8260 232.2395 0.0000 -5.2418 0.0000
# 4 0.0000 0.0000 0.0000 17.1808 0.0000 -7.3082
# 5 -5.4618 -16.0647 -5.2418 0.0000 64.5137 0.0000
# 6 0.0000 0.0000 0.0000 -7.3082 0.0000 10.4797
#
#
#
# Elastic Compliance Matrix: (Units=1/GPa)
#
#
# Indices 1 2 3 4 5 6 
#
# 1 0.007760 -0.002325 -0.002141 0.000000 -0.000096 0.000000
# 2 -0.002325 0.017763 -0.003667 0.000000 0.003928 0.000000
# 3 -0.002141 -0.003667 0.005992 0.000000 -0.000608 0.000000
# 4 0.000000 0.000000 0.000000 0.082751 0.000000 0.057708
# 5 -0.000096 0.003928 -0.000608 0.000000 0.016421 0.000000
# 6 0.000000 0.000000 0.000000 0.057708 0.000000 0.135666
#
#
# Mechanical properties :
#
#
# Convention : Reuss Voigt Hill
#
# Bulk Modulus (GPa) = 65.57572 92.81506 79.19539
# Shear Modulus (GPa) = 17.37907 37.87472 27.62690
#
# Velocity S-wave (km/s) = 2.53458 3.74168 3.19564
# Velocity P-wave (km/s) = 5.72758 7.27843 6.54907
#
# Compressibility (1/GPa) = 0.01524955
#
# Stress axis : x y z
#
# Youngs Moduli (GPa) = 128.86897 56.29623 166.88596
#
# Poissons Ratio (x) = 0.13088 0.35728
# Poissons Ratio (y) = 0.29961 0.61197
# Poissons Ratio (z) = 0.27589 0.20644
#
# Static dielectric constant tensor:
#      x y z
#    x 2.256300 0.000000 0.089730 
#    y 0.000000 2.227990 0.000000 
#    z 0.089730 0.000000 1.990360 
# 
# From -- ./inp_files/185945.got.cif
#   From: 2010.05.17/outbox.cif.g08.bks.cpg/sg15_93_cif.got.tgz:185945.got - 2010.06.03 18:47:42.
