data_PCOD9293739
_publ_section_title
;
Structure prediction by ZEFSAII (Michael W. Deem and Ramdas Pophale) SiO2 
 PCOD9293739
Probable space group: C 2/C
;
_chemical_formula_sum "Si O2"
_cell_formula_units_Z 36
_cell_length_a 5.010732
_cell_length_b 24.694019
_cell_length_c 11.051407
_cell_angle_alpha 90.000000
_cell_angle_beta 90.151869
_cell_angle_gamma 90.000000
_cell_volume 1367.442271
_symmetry_space_group_name_H-M "C 2/C"
_symmetry_group_IT_number 15
_symmetry_cell_setting 'monoclinic'
loop_
_space_group_symop_operation_xyz
x,y,z
-x,y,1/2-z
-x,-y,-z
x,-y,1/2+z
1/2+x,1/2+y,z
1/2-x,1/2+y,1/2-z
1/2-x,1/2-y,-z
1/2+x,1/2-y,1/2+z
loop_
_atom_site_type_symbol
_atom_site_label
_atom_site_fract_x
_atom_site_fract_y
_atom_site_fract_z
Si Si1 0.320350 0.438050 0.931501
Si Si2 0.820172 0.552962 0.597595
Si Si3 0.620827 0.206944 0.619483
Si Si4 0.000000 0.135906 0.750000
Si Si5 0.655502 0.821901 0.872248
O O1 0.236510 0.491651 0.858334
O O2 0.276371 0.381396 0.865694
O O3 0.618589 0.441667 0.982784
O O4 0.116727 0.439747 0.046462
O O5 0.721680 0.596173 0.694214
O O6 0.500000 0.197190 0.750000
O O7 0.491756 0.182846 0.498280
O O8 0.645271 0.271541 0.609292
O O9 0.898043 0.174551 0.641216
O O10 0.500000 0.810152 0.750000
#
# Coordination Sequence:
#
# PCOD9293739 Si02
#       5
#     8   8   8   4   8
#     4  10  22  47  65 105 142 191 239 311 367 438
#     4  10  23  42  75  99 144 190 249 297 370 440
#     4  11  25  45  72 103 144 197 250 303 372 452
#     4  12  22  44  72 104 138 196 252 302 360 472
#     4  11  24  46  68 109 147 191 247 311 378 440
#
# _framework density 26.326522000000001
#
# number of rings (size 3 to 8) (size 9 to 14) (size 15 to 20)
#    0.000    1.333    3.333    1.333    0.000    2.667 
#   14.000    0.000    0.000    0.000    0.000    0.000 
#    0.000    0.000    0.000    0.000    0.000    0.000 
#
# Total GULP energy -100823.161713 kJ/mol
# GULP energy per Si atom -5601.286762 kJ/mol
# Density = 2.626660 g / cm^3
# Si number density = 26.326522 Si / 1000 Ang^3
#
#
#
# Elastic Constant Matrix: (Units=GPa)
#
#
# Indices 1 2 3 4 5 6 
#
# 1 75.9373 10.4308 26.3058 0.0000 -6.3931 0.0000
# 2 10.4308 223.5665 31.7578 0.0000 5.8747 0.0000
# 3 26.3058 31.7578 151.2918 0.0000 6.8959 0.0000
# 4 0.0000 0.0000 0.0000 35.4995 0.0000 3.9720
# 5 -6.3931 5.8747 6.8959 0.0000 39.5075 0.0000
# 6 0.0000 0.0000 0.0000 3.9720 0.0000 18.4126
#
#
#
# Elastic Compliance Matrix: (Units=1/GPa)
#
#
# Indices 1 2 3 4 5 6 
#
# 1 0.014339 -0.000382 -0.002542 0.000000 0.002821 0.000000
# 2 -0.000382 0.004631 -0.000878 0.000000 -0.000597 0.000000
# 3 -0.002542 -0.000878 0.007307 0.000000 -0.001556 0.000000
# 4 0.000000 0.000000 0.000000 0.028866 0.000000 -0.006227
# 5 0.002821 -0.000597 -0.001556 0.000000 0.026128 0.000000
# 6 0.000000 0.000000 0.000000 -0.006227 0.000000 0.055654
#
#
# Mechanical properties :
#
#
# Convention : Reuss Voigt Hill
#
# Bulk Modulus (GPa) = 53.55310 65.30939 59.43125
# Shear Modulus (GPa) = 33.16648 44.17068 38.66858
#
# Velocity S-wave (km/s) = 3.55323 4.10054 3.83666
# Velocity P-wave (km/s) = 6.10082 6.87609 6.50002
#
# Compressibility (1/GPa) = 0.01867305
#
# Stress axis : x y z
#
# Youngs Moduli (GPa) = 69.73904 215.92438 136.85526
#
# Poissons Ratio (x) = 0.08250 0.34783
# Poissons Ratio (y) = 0.02665 0.12023
# Poissons Ratio (z) = 0.17725 0.18969
#
# Static dielectric constant tensor:
#      x y z
#    x 2.184070 0.000000 -0.071420 
#    y 0.000000 2.052310 0.000000 
#    z -0.071420 0.000000 2.060530 
# 
# From -- ./inp_files/72931.got.cif
#   From: 2010.05.17/outbox.cif.g08.bks.cpg/sg15_37_cif.got.tgz:72931.got - 2010.06.03 18:47:42.
