data_PCOD9293498
_publ_section_title
;
Structure prediction by ZEFSAII (Michael W. Deem and Ramdas Pophale) SiO2 
 PCOD9293498
Probable space group: C 2/C
;
_chemical_formula_sum "Si O2"
_cell_formula_units_Z 44
_cell_length_a 10.499342
_cell_length_b 22.367745
_cell_length_c 8.172650
_cell_angle_alpha 90.000000
_cell_angle_beta 74.728762
_cell_angle_gamma 90.000000
_cell_volume 1851.547482
_symmetry_space_group_name_H-M "C 2/C"
_symmetry_group_IT_number 15
_symmetry_cell_setting 'monoclinic'
loop_
_space_group_symop_operation_xyz
x,y,z
-x,y,1/2-z
-x,-y,-z
x,-y,1/2+z
1/2+x,1/2+y,z
1/2-x,1/2+y,1/2-z
1/2-x,1/2-y,-z
1/2+x,1/2-y,1/2+z
loop_
_atom_site_type_symbol
_atom_site_label
_atom_site_fract_x
_atom_site_fract_y
_atom_site_fract_z
Si Si1 0.832608 0.879820 0.581560
Si Si2 0.119654 0.566878 0.603428
Si Si3 0.500000 0.181821 0.750000
Si Si4 0.745936 0.743362 0.304461
Si Si5 0.254790 0.966776 0.122829
Si Si6 0.000000 0.811237 0.250000
Si Si7 0.000000 0.967133 0.750000
O O1 0.775236 0.826941 0.712914
O O2 0.720094 0.915599 0.519599
O O3 0.917221 0.924448 0.660998
O O4 0.926820 0.850567 0.411317
O O5 0.157779 0.525468 0.440872
O O6 0.235073 0.561545 0.700749
O O7 0.000000 0.539349 0.750000
O O8 0.068702 0.634511 0.599997
O O9 0.380606 0.220835 0.719539
O O10 0.750000 0.750000 0.500000
O O11 0.885732 0.771112 0.203342
O O12 0.108281 0.989706 0.136466
#
# Coordination Sequence:
#
# PCOD9293498 Si02
#       7
#     8   8   4   8   8   4   4
#     4  11  24  42  68  99 139 176 239 286 349 416
#     4  10  24  41  67  98 138 183 233 280 348 423
#     4  10  23  42  73  97 142 185 232 292 354 416
#     4  10  22  46  65 101 134 181 239 293 344 416
#     4  12  23  45  63 104 139 184 228 286 354 418
#     4  10  23  44  75  93 134 193 234 294 360 408
#     4  12  26  40  66 106 140 180 228 294 350 430
#
# _framework density 23.763904
#
# number of rings (size 3 to 8) (size 9 to 14) (size 15 to 20)
#    0.545    0.727    1.818    4.364    5.091    0.000 
#    8.182    4.545    0.000    0.000    0.000    0.000 
#    0.000    0.000    0.000    0.000    0.000    0.000 
#
# Total GULP energy -122869.061835 kJ/mol
# GULP energy per Si atom -5584.957356 kJ/mol
# Density = 2.370982 g / cm^3
# Si number density = 23.763904 Si / 1000 Ang^3
#
#
#
# Elastic Constant Matrix: (Units=GPa)
#
#
# Indices 1 2 3 4 5 6 
#
# 1 108.2489 53.3371 4.2156 0.0000 13.1181 0.0000
# 2 53.3371 142.3836 16.1095 0.0000 6.3446 0.0000
# 3 4.2156 16.1095 32.7939 0.0000 0.3843 0.0000
# 4 0.0000 0.0000 0.0000 25.4746 0.0000 -9.1896
# 5 13.1181 6.3446 0.3843 0.0000 39.4483 0.0000
# 6 0.0000 0.0000 0.0000 -9.1896 0.0000 -94.4103
#
#
#
# Elastic Compliance Matrix: (Units=1/GPa)
#
#
# Indices 1 2 3 4 5 6 
#
# 1 0.011733 -0.004326 0.000655 0.000000 -0.003212 0.000000
# 2 -0.004326 0.009085 -0.003907 0.000000 0.000016 0.000000
# 3 0.000655 -0.003907 0.032328 0.000000 0.000096 0.000000
# 4 0.000000 0.000000 0.000000 0.037923 0.000000 -0.003691
# 5 -0.003212 0.000016 0.000096 0.000000 0.026414 0.000000
# 6 0.000000 0.000000 0.000000 -0.003691 0.000000 -0.010233
#
#
# Mechanical properties :
#
#
# Convention : Reuss Voigt Hill
#
# Bulk Modulus (GPa) = 26.32363 47.86118 37.09240
# Shear Modulus (GPa) = 37.01740 8.08679 22.55210
#
# Velocity S-wave (km/s) = 3.95107 1.84672 3.08394
# Velocity P-wave (km/s) = 5.64941 4.97304 5.32198
#
# Compressibility (1/GPa) = 0.03798869
#
# Stress axis : x y z
#
# Youngs Moduli (GPa) = 85.22653 110.06835 30.93340
#
# Poissons Ratio (x) = 0.47619 -0.02025
# Poissons Ratio (y) = 0.36871 0.12086
# Poissons Ratio (z) = -0.05578 0.43004
#
# Static dielectric constant tensor:
#      x y z
#    x 1.996830 0.000000 0.049810 
#    y 0.000000 1.976070 0.000000 
#    z 0.049810 0.000000 2.063000 
# 
# From -- ./inp_files/30802.got.cif
#   From: 2010.05.17/outbox.cif.g08.bks.cpg/sg15_16_cif.got.tgz:30802.got - 2010.06.03 18:47:42.
