data_PCOD9293665
_publ_section_title
;
Structure prediction by ZEFSAII (Michael W. Deem and Ramdas Pophale) SiO2 
 PCOD9293665
Probable space group: C 2/C
;
_chemical_formula_sum "Si O2"
_cell_formula_units_Z 32
_cell_length_a 11.382226
_cell_length_b 14.277769
_cell_length_c 9.088116
_cell_angle_alpha 90.000000
_cell_angle_beta 64.085409
_cell_angle_gamma 90.000000
_cell_volume 1328.424143
_symmetry_space_group_name_H-M "C 2/C"
_symmetry_group_IT_number 15
_symmetry_cell_setting 'monoclinic'
loop_
_space_group_symop_operation_xyz
x,y,z
-x,y,1/2-z
-x,-y,-z
x,-y,1/2+z
1/2+x,1/2+y,z
1/2-x,1/2+y,1/2-z
1/2-x,1/2-y,-z
1/2+x,1/2-y,1/2+z
loop_
_atom_site_type_symbol
_atom_site_label
_atom_site_fract_x
_atom_site_fract_y
_atom_site_fract_z
Si Si1 0.500000 0.203325 0.750000
Si Si2 0.106085 0.583214 0.942824
Si Si3 0.000000 0.279579 0.750000
Si Si4 0.065680 0.157900 0.961262
Si Si5 0.875790 0.971417 0.426384
O O1 0.593374 0.138119 0.796345
O O2 0.430807 0.270409 0.906170
O O3 0.246406 0.543672 0.905915
O O4 0.000000 0.500000 0.000000
O O5 0.070088 0.655651 0.092671
O O6 0.904496 0.213700 0.705022
O O7 0.138648 0.064345 0.968810
O O8 0.919731 0.115923 0.005090
O O9 0.000000 0.985722 0.250000
#
# Coordination Sequence:
#
# PCOD9293665 Si02
#       5
#     4   8   4   8   8
#     4  10  23  45  74 106 144 192 248 297 365 434
#     4  11  26  49  72 107 154 197 238 309 373 444
#     4  10  23  47  72 108 146 190 244 299 373 426
#     4  10  22  46  72 109 139 195 243 312 354 444
#     4  11  24  46  77 106 150 191 252 297 377 428
#
# _framework density 24.088692000000002
#
# number of rings (size 3 to 8) (size 9 to 14) (size 15 to 20)
#    0.000    1.500    2.500    0.750    0.000   12.000 
#    9.000    3.750    0.000    0.000    0.000    0.000 
#    0.000    0.000    0.000    0.000    0.000    0.000 
#
# Total GULP energy -89575.509393 kJ/mol
# GULP energy per Si atom -5598.469337 kJ/mol
# Density = 2.403387 g / cm^3
# Si number density = 24.088692 Si / 1000 Ang^3
#
#
#
# Elastic Constant Matrix: (Units=GPa)
#
#
# Indices 1 2 3 4 5 6 
#
# 1 196.7285 88.2206 75.6374 0.0000 25.6545 0.0000
# 2 88.2206 165.1625 76.9455 0.0000 26.1272 0.0000
# 3 75.6374 76.9455 148.3861 0.0000 42.4946 0.0000
# 4 0.0000 0.0000 0.0000 54.5150 0.0000 29.0284
# 5 25.6545 26.1272 42.4946 0.0000 44.1961 0.0000
# 6 0.0000 0.0000 0.0000 29.0284 0.0000 31.7662
#
#
#
# Elastic Compliance Matrix: (Units=1/GPa)
#
#
# Indices 1 2 3 4 5 6 
#
# 1 0.007203 -0.002800 -0.002065 0.000000 -0.000540 0.000000
# 2 -0.002800 0.009105 -0.003061 0.000000 -0.000814 0.000000
# 3 -0.002065 -0.003061 0.011754 0.000000 -0.008293 0.000000
# 4 0.000000 0.000000 0.000000 0.035729 0.000000 -0.032650
# 5 -0.000540 -0.000814 -0.008293 0.000000 0.031396 0.000000
# 6 0.000000 0.000000 0.000000 -0.032650 0.000000 0.061316
#
#
# Mechanical properties :
#
#
# Convention : Reuss Voigt Hill
#
# Bulk Modulus (GPa) = 81.89793 110.20938 96.05365
# Shear Modulus (GPa) = 28.34063 44.06037 36.20050
#
# Velocity S-wave (km/s) = 3.43375 4.28143 3.88080
# Velocity P-wave (km/s) = 7.05643 8.38401 7.74870
#
# Compressibility (1/GPa) = 0.01221032
#
# Stress axis : x y z
#
# Youngs Moduli (GPa) = 138.82714 109.82840 85.07663
#
# Poissons Ratio (x) = 0.30752 0.17568
# Poissons Ratio (y) = 0.38872 0.26042
# Poissons Ratio (z) = 0.28668 0.33619
#
# Static dielectric constant tensor:
#      x y z
#    x 1.907740 0.000000 -0.017540 
#    y 0.000000 1.943390 0.000000 
#    z -0.017540 0.000000 1.958100 
# 
# From -- ./inp_files/27936.got.cif
#   From: 2010.05.17/outbox.cif.g08.bks.cpg/sg15_14_cif.got.tgz:27936.got - 2010.06.03 18:47:42.
