data_PCOD9293222
_publ_section_title
;
Structure prediction by ZEFSAII (Michael W. Deem and Ramdas Pophale) SiO2 
 PCOD9293222
Probable space group: C 2/C
;
_chemical_formula_sum "Si O2"
_cell_formula_units_Z 44
_cell_length_a 6.520906
_cell_length_b 13.667442
_cell_length_c 22.455684
_cell_angle_alpha 90.000000
_cell_angle_beta 109.012661
_cell_angle_gamma 90.000000
_cell_volume 1892.162697
_symmetry_space_group_name_H-M "C 2/C"
_symmetry_group_IT_number 15
_symmetry_cell_setting 'monoclinic'
loop_
_space_group_symop_operation_xyz
x,y,z
-x,y,1/2-z
-x,-y,-z
x,-y,1/2+z
1/2+x,1/2+y,z
1/2-x,1/2+y,1/2-z
1/2-x,1/2-y,-z
1/2+x,1/2-y,1/2+z
loop_
_atom_site_type_symbol
_atom_site_label
_atom_site_fract_x
_atom_site_fract_y
_atom_site_fract_z
Si Si1 0.000000 0.187024 0.750000
Si Si2 0.801243 0.925757 0.557541
Si Si3 0.414503 0.808517 0.559509
Si Si4 0.689918 0.655980 0.163524
Si Si5 0.783477 0.445784 0.198900
Si Si6 0.902222 0.108245 0.929752
O O1 0.202062 0.253119 0.791926
O O2 0.086379 0.116530 0.706302
O O3 0.551975 0.897544 0.545064
O O4 0.859747 0.893382 0.495858
O O5 0.941566 0.864757 0.619816
O O6 0.893137 0.037189 0.566722
O O7 0.250000 0.750000 0.500000
O O8 0.302104 0.841797 0.609100
O O9 0.573954 0.719076 0.587993
O O10 0.750364 0.560293 0.207182
O O11 0.789990 0.434820 0.128346
O O12 0.000000 0.410926 0.250000
#
# Coordination Sequence:
#
# PCOD9293222 Si02
#       6
#     4   8   8   8   8   8
#     4  12  26  46  70  96 138 192 234 290 356 410
#     4  10  24  44  70 102 146 178 229 298 344 428
#     4  12  24  42  73 107 139 183 230 291 361 419
#     4  11  25  48  68 106 141 177 246 287 348 429
#     4  11  26  46  70 101 140 185 239 290 341 419
#     4  10  22  45  65 104 139 183 233 279 361 413
#
# _framework density 23.253816
#
# number of rings (size 3 to 8) (size 9 to 14) (size 15 to 20)
#    0.000    1.091    4.545    0.545    2.545    3.636 
#    1.636    0.000    0.000    0.000    0.000    0.000 
#    0.000    0.000    0.000    0.000    0.000    0.000 
#
# Total GULP energy -122812.637744 kJ/mol
# GULP energy per Si atom -5582.392625 kJ/mol
# Density = 2.320089 g / cm^3
# Si number density = 23.253816 Si / 1000 Ang^3
#
#
#
# Elastic Constant Matrix: (Units=GPa)
#
#
# Indices 1 2 3 4 5 6 
#
# 1 31.8502 21.0558 13.6199 0.0000 8.6624 0.0000
# 2 21.0558 103.5749 16.6625 0.0000 -4.9415 0.0000
# 3 13.6199 16.6625 89.1240 0.0000 12.1133 0.0000
# 4 0.0000 0.0000 0.0000 24.1393 0.0000 -8.6173
# 5 8.6624 -4.9415 12.1133 0.0000 28.6740 0.0000
# 6 0.0000 0.0000 0.0000 -8.6173 0.0000 27.5899
#
#
#
# Elastic Compliance Matrix: (Units=1/GPa)
#
#
# Indices 1 2 3 4 5 6 
#
# 1 0.041911 -0.008645 -0.003040 0.000000 -0.012867 0.000000
# 2 -0.008645 0.011932 -0.001638 0.000000 0.005360 0.000000
# 3 -0.003040 -0.001638 0.012630 0.000000 -0.004699 0.000000
# 4 0.000000 0.000000 0.000000 0.046625 0.000000 0.014562
# 5 -0.012867 0.005360 -0.004699 0.000000 0.041671 0.000000
# 6 0.000000 0.000000 0.000000 0.014562 0.000000 0.040793
#
#
# Mechanical properties :
#
#
# Convention : Reuss Voigt Hill
#
# Bulk Modulus (GPa) = 25.10859 36.35841 30.73350
# Shear Modulus (GPa) = 21.23291 27.62804 24.43047
#
# Velocity S-wave (km/s) = 3.02502 3.45063 3.24481
# Velocity P-wave (km/s) = 4.79813 5.61651 5.22338
#
# Compressibility (1/GPa) = 0.03982700
#
# Stress axis : x y z
#
# Youngs Moduli (GPa) = 23.85980 83.81139 79.17758
#
# Poissons Ratio (x) = 0.72456 0.24068
# Poissons Ratio (y) = 0.20627 0.12970
# Poissons Ratio (z) = 0.07253 0.13729
#
# Static dielectric constant tensor:
#      x y z
#    x 1.941480 0.000000 0.091900 
#    y 0.000000 1.922730 0.000000 
#    z 0.091900 0.000000 1.975610 
# 
# From -- ./inp_files/285490.got.cif
#   From: 2010.05.17/outbox.cif.g08.bks.cpg/sg15_143_cif.got.tgz:285490.got - 2010.06.03 18:47:42.
