data_PCOD9293402
_publ_section_title
;
Structure prediction by ZEFSAII (Michael W. Deem and Ramdas Pophale) SiO2 
 PCOD9293402
Probable space group: C 2/C
;
_chemical_formula_sum "Si O2"
_cell_formula_units_Z 52
_cell_length_a 13.829141
_cell_length_b 11.187822
_cell_length_c 14.345531
_cell_angle_alpha 90.000000
_cell_angle_beta 74.689815
_cell_angle_gamma 90.000000
_cell_volume 2140.742048
_symmetry_space_group_name_H-M "C 2/C"
_symmetry_group_IT_number 15
_symmetry_cell_setting 'monoclinic'
loop_
_space_group_symop_operation_xyz
x,y,z
-x,y,1/2-z
-x,-y,-z
x,-y,1/2+z
1/2+x,1/2+y,z
1/2-x,1/2+y,1/2-z
1/2-x,1/2-y,-z
1/2+x,1/2-y,1/2+z
loop_
_atom_site_type_symbol
_atom_site_label
_atom_site_fract_x
_atom_site_fract_y
_atom_site_fract_z
Si Si1 0.742973 0.141601 0.694441
Si Si2 0.592189 0.587247 0.991855
Si Si3 0.396671 0.987943 0.647611
Si Si4 0.794150 0.267731 0.853834
Si Si5 0.000000 0.707898 0.250000
Si Si6 0.953232 0.292897 0.358279
Si Si7 0.780924 0.549696 0.510789
O O1 0.848540 0.118642 0.618228
O O2 0.700397 0.035031 0.770071
O O3 0.750559 0.255618 0.761327
O O4 0.659129 0.166061 0.638212
O O5 0.551459 0.701753 0.056313
O O6 0.678374 0.523228 0.031522
O O7 0.500000 0.500000 0.000000
O O8 0.476178 0.095068 0.637674
O O9 0.362559 0.976300 0.549125
O O10 0.447971 0.876491 0.685380
O O11 0.730705 0.173398 0.929017
O O12 0.908660 0.222154 0.818803
O O13 0.799739 0.395755 0.903059
O O14 0.000000 0.240352 0.250000
#
# Coordination Sequence:
#
# PCOD9293402 Si02
#       7
#     8   8   8   8   4   8   8
#     4  10  22  47  67  94 138 178 222 283 343 406
#     4  12  28  41  70 101 140 180 235 276 348 425
#     4  10  22  45  72  97 136 175 234 285 345 403
#     4  10  25  41  72  93 142 172 229 284 343 400
#     4  12  22  40  72 104 122 180 238 284 332 412
#     4  10  23  44  70  98 134 181 225 288 343 405
#     4  10  25  46  64 100 138 186 219 285 351 410
#
# _framework density 24.290641000000001
#
# number of rings (size 3 to 8) (size 9 to 14) (size 15 to 20)
#    0.000    1.538    2.308    1.385   12.923    3.077 
#    0.000    0.000    0.000    0.000    0.000    0.000 
#    0.000    0.000    0.000    0.000    0.000    0.000 
#
# Total GULP energy -145523.573748 kJ/mol
# GULP energy per Si atom -5597.060529 kJ/mol
# Density = 2.423535 g / cm^3
# Si number density = 24.290641 Si / 1000 Ang^3
#
#
#
# Elastic Constant Matrix: (Units=GPa)
#
#
# Indices 1 2 3 4 5 6 
#
# 1 113.8063 15.3925 45.1757 0.0000 13.8168 0.0000
# 2 15.3925 50.9466 35.5350 0.0000 9.2073 0.0000
# 3 45.1757 35.5350 131.1413 0.0000 -1.5466 0.0000
# 4 0.0000 0.0000 0.0000 31.5458 0.0000 -4.6716
# 5 13.8168 9.2073 -1.5466 0.0000 54.3065 0.0000
# 6 0.0000 0.0000 0.0000 -4.6716 0.0000 41.5276
#
#
#
# Elastic Compliance Matrix: (Units=1/GPa)
#
#
# Indices 1 2 3 4 5 6 
#
# 1 0.010589 -0.000162 -0.003636 0.000000 -0.002770 0.000000
# 2 -0.000162 0.025248 -0.006838 0.000000 -0.004434 0.000000
# 3 -0.003636 -0.006838 0.010759 0.000000 0.002391 0.000000
# 4 0.000000 0.000000 0.000000 0.032237 0.000000 0.003626
# 5 -0.002770 -0.004434 0.002391 0.000000 0.019939 0.000000
# 6 0.000000 0.000000 0.000000 0.003626 0.000000 0.024488
#
#
# Mechanical properties :
#
#
# Convention : Reuss Voigt Hill
#
# Bulk Modulus (GPa) = 39.48975 54.23342 46.86158
# Shear Modulus (GPa) = 32.68547 38.79539 35.74043
#
# Velocity S-wave (km/s) = 3.67222 4.00075 3.84000
# Velocity P-wave (km/s) = 5.85429 6.61186 6.24457
#
# Compressibility (1/GPa) = 0.02532303
#
# Stress axis : x y z
#
# Youngs Moduli (GPa) = 94.44196 39.60687 92.94544
#
# Poissons Ratio (x) = 0.00643 0.33797
# Poissons Ratio (y) = 0.01532 0.63554
# Poissons Ratio (z) = 0.34341 0.27082
#
# Static dielectric constant tensor:
#      x y z
#    x 1.903890 0.000000 -0.004010 
#    y 0.000000 1.922460 0.000000 
#    z -0.004010 0.000000 2.030730 
# 
# From -- ./inp_files/144163.got.cif
#   From: 2010.05.17/outbox.cif.g08.bks.cpg/sg15_73_cif.got.tgz:144163.got - 2010.06.03 18:47:42.
