data_PCOD9293363
_publ_section_title
;
Structure prediction by ZEFSAII (Michael W. Deem and Ramdas Pophale) SiO2 
 PCOD9293363
Probable space group: C 2/C
;
_chemical_formula_sum "Si O2"
_cell_formula_units_Z 52
_cell_length_a 14.398784
_cell_length_b 5.060554
_cell_length_c 25.902866
_cell_angle_alpha 90.000000
_cell_angle_beta 112.634183
_cell_angle_gamma 90.000000
_cell_volume 1742.065005
_symmetry_space_group_name_H-M "C 2/C"
_symmetry_group_IT_number 15
_symmetry_cell_setting 'monoclinic'
loop_
_space_group_symop_operation_xyz
x,y,z
-x,y,1/2-z
-x,-y,-z
x,-y,1/2+z
1/2+x,1/2+y,z
1/2-x,1/2+y,1/2-z
1/2-x,1/2-y,-z
1/2+x,1/2-y,1/2+z
loop_
_atom_site_type_symbol
_atom_site_label
_atom_site_fract_x
_atom_site_fract_y
_atom_site_fract_z
Si Si1 0.627311 0.700534 0.562906
Si Si2 0.203499 0.907037 0.382239
Si Si3 0.447551 0.884637 0.047839
Si Si4 0.372085 0.576889 0.822224
Si Si5 0.250000 0.750000 0.500000
Si Si6 0.470628 0.988542 0.661865
Si Si7 0.343288 0.723649 0.221296
O O1 0.739971 0.821959 0.587775
O O2 0.588138 0.640016 0.496206
O O3 0.548769 0.951146 0.556302
O O4 0.613460 0.536391 0.612939
O O5 0.259568 0.721427 0.436413
O O6 0.093210 0.782070 0.364139
O O7 0.085369 0.384688 0.301973
O O8 0.456324 0.821742 0.109763
O O9 0.351222 0.074084 0.022413
O O10 0.420756 0.854353 0.816033
O O11 0.402010 0.371601 0.784372
O O12 0.253054 0.599722 0.789136
O O13 0.298673 0.528328 0.679368
#
# Coordination Sequence:
#
# PCOD9293363 Si02
#       7
#     8   8   8   8   4   8   8
#     4   8  15  34  65 102 145 185 231 299 368 436
#     4   9  19  38  62 101 136 182 233 289 355 430
#     4   8  14  30  66 103 140 187 226 293 372 435
#     4  10  24  47  69 103 144 188 244 304 366 437
#     4   8  14  30  60  96 144 172 226 296 344 432
#     4  10  22  45  71 104 142 188 242 302 368 444
#     4  11  25  47  71  98 141 191 245 299 368 436
#
# _framework density 29.849633999999998
#
# number of rings (size 3 to 8) (size 9 to 14) (size 15 to 20)
#    0.000    2.769    0.000    0.000    2.154    0.615 
#    8.308   13.846    0.000    0.000    0.000   57.077 
#    0.000    1.231    0.000    0.462    0.000    0.000 
#
# Total GULP energy -144806.346465 kJ/mol
# GULP energy per Si atom -5569.474864 kJ/mol
# Density = 2.978169 g / cm^3
# Si number density = 29.849634 Si / 1000 Ang^3
#
#
#
# Elastic Constant Matrix: (Units=GPa)
#
#
# Indices 1 2 3 4 5 6 
#
# 1 159.0557 35.0732 45.9204 0.0000 0.9369 0.0000
# 2 35.0732 118.6726 56.7190 0.0000 -18.1172 0.0001
# 3 45.9204 56.7190 237.8299 0.0000 -9.6386 0.0000
# 4 0.0000 0.0000 0.0000 44.7051 0.0000 -13.6485
# 5 0.9369 -18.1172 -9.6386 0.0000 54.5926 0.0000
# 6 0.0000 0.0001 0.0000 -13.6485 0.0000 34.4465
#
#
#
# Elastic Compliance Matrix: (Units=1/GPa)
#
#
# Indices 1 2 3 4 5 6 
#
# 1 0.006951 -0.001724 -0.000966 0.000000 -0.000862 0.000000
# 2 -0.001724 0.010375 -0.002015 0.000000 0.003117 0.000000
# 3 -0.000966 -0.002015 0.004880 0.000000 0.000209 0.000000
# 4 0.000000 0.000000 0.000000 0.025447 0.000000 0.010083
# 5 -0.000862 0.003117 0.000209 0.000000 0.019404 0.000000
# 6 0.000000 0.000000 0.000000 0.010083 0.000000 0.033026
#
#
# Mechanical properties :
#
#
# Convention : Reuss Voigt Hill
#
# Bulk Modulus (GPa) = 78.14938 87.88706 83.01822
# Shear Modulus (GPa) = 43.95261 51.93856 47.94559
#
# Velocity S-wave (km/s) = 3.84144 4.17586 4.01214
# Velocity P-wave (km/s) = 6.77594 7.26344 7.02392
#
# Compressibility (1/GPa) = 0.01279601
#
# Stress axis : x y z
#
# Youngs Moduli (GPa) = 143.85843 96.38445 204.90875
#
# Poissons Ratio (x) = 0.16621 0.19791
# Poissons Ratio (y) = 0.24807 0.41290
# Poissons Ratio (z) = 0.13895 0.19422
#
# Static dielectric constant tensor:
#      x y z
#    x 3.429410 0.000000 -0.605480 
#    y 0.000000 2.449650 0.000000 
#    z -0.605480 0.000000 2.698910 
# 
# From -- ./inp_files/297908.got.cif
#   From: 2010.05.17/outbox.cif.g08.bks.cpg/sg15_149_cif.got.tgz:297908.got - 2010.06.03 18:47:42.
