data_PCOD9293063
_publ_section_title
;
Structure prediction by ZEFSAII (Michael W. Deem and Ramdas Pophale) SiO2 
 PCOD9293063
Probable space group: C 2/C
;
_chemical_formula_sum "Si O2"
_cell_formula_units_Z 60
_cell_length_a 11.231004
_cell_length_b 16.265334
_cell_length_c 20.228270
_cell_angle_alpha 90.000000
_cell_angle_beta 38.632826
_cell_angle_gamma 90.000000
_cell_volume 2307.026571
_symmetry_space_group_name_H-M "C 2/C"
_symmetry_group_IT_number 15
_symmetry_cell_setting 'monoclinic'
loop_
_space_group_symop_operation_xyz
x,y,z
-x,y,1/2-z
-x,-y,-z
x,-y,1/2+z
1/2+x,1/2+y,z
1/2-x,1/2+y,1/2-z
1/2-x,1/2-y,-z
1/2+x,1/2-y,1/2+z
loop_
_atom_site_type_symbol
_atom_site_label
_atom_site_fract_x
_atom_site_fract_y
_atom_site_fract_z
Si Si1 0.635943 0.622672 0.486038
Si Si2 0.889000 0.674278 0.087000
Si Si3 0.544803 0.402302 0.307276
Si Si4 0.328969 0.663010 0.529140
Si Si5 0.003024 0.475159 0.816965
Si Si6 0.129630 0.907465 0.801858
Si Si7 0.250000 0.250000 0.500000
Si Si8 0.042005 0.613400 0.888407
O O1 0.600252 0.645123 0.580498
O O2 0.438070 0.605752 0.536297
O O3 0.789498 0.553900 0.417386
O O4 0.728598 0.710188 0.431223
O O5 0.041776 0.698647 0.076355
O O6 0.993803 0.620916 0.985428
O O7 0.823777 0.752445 0.071499
O O8 0.710525 0.629707 0.199002
O O9 0.500000 0.402327 0.250000
O O10 0.548664 0.498439 0.329549
O O11 0.948474 0.481556 0.135928
O O12 0.475655 0.650503 0.404330
O O13 0.250741 0.641806 0.775649
O O14 0.000000 0.526211 0.750000
O O15 0.183279 0.414659 0.731742
O O16 0.874565 0.646004 0.914151
#
# Coordination Sequence:
#
# PCOD9293063 Si02
#       8
#     8   8   8   8   8   8   4   8
#     4  11  23  44  73 106 148 195 246 307 371 439
#     4  11  25  47  74 106 151 198 246 306 374 443
#     4  11  27  45  74 109 146 190 250 313 374 449
#     4  11  26  46  72 105 149 198 245 303 369 458
#     4  11  23  43  73 107 146 191 246 304 368 442
#     4  11  25  44  72 111 142 193 246 306 375 441
#     4  10  22  44  72 106 138 190 246 300 364 438
#     4  11  27  46  70 105 147 193 245 304 376 441
#
# _framework density 26.007504000000001
#
# number of rings (size 3 to 8) (size 9 to 14) (size 15 to 20)
#    0.000    1.067    2.667    2.000    7.467    4.267 
#    0.000    4.667    0.000    0.000    0.000    0.000 
#    0.000    0.000    0.000    0.000    0.000    0.000 
#
# Total GULP energy -167253.367602 kJ/mol
# GULP energy per Si atom -5575.112253 kJ/mol
# Density = 2.594831 g / cm^3
# Si number density = 26.007504 Si / 1000 Ang^3
#
#
#
# Elastic Constant Matrix: (Units=GPa)
#
#
# Indices 1 2 3 4 5 6 
#
# 1 144.6306 22.6194 39.7909 -0.0003 -17.2526 0.0006
# 2 22.6194 58.6830 31.5312 -0.0001 -0.3746 0.0003
# 3 39.7909 31.5312 120.1531 -0.0004 -1.0524 0.0008
# 4 -0.0003 -0.0001 -0.0004 32.5870 0.0003 13.1587
# 5 -17.2526 -0.3746 -1.0524 0.0003 42.0453 -0.0004
# 6 0.0006 0.0003 0.0008 13.1587 -0.0004 37.1708
#
#
#
# Elastic Compliance Matrix: (Units=1/GPa)
#
#
# Indices 1 2 3 4 5 6 
#
# 1 0.008215 -0.001978 -0.002172 0.000000 0.003299 0.000000
# 2 -0.001978 0.020314 -0.004682 0.000000 -0.000748 0.000000
# 3 -0.002172 -0.004682 0.010265 0.000000 -0.000676 0.000000
# 4 0.000000 0.000000 0.000000 0.035805 0.000000 -0.012675
# 5 0.003299 -0.000748 -0.000676 0.000000 0.025114 0.000000
# 6 0.000000 0.000000 0.000000 -0.012675 0.000000 0.031390
#
#
# Mechanical properties :
#
#
# Convention : Reuss Voigt Hill
#
# Bulk Modulus (GPa) = 47.33023 56.81663 52.07343
# Shear Modulus (GPa) = 32.08992 37.66229 34.87611
#
# Velocity S-wave (km/s) = 3.51646 3.80956 3.66594
# Velocity P-wave (km/s) = 5.89284 6.42215 6.16318
#
# Compressibility (1/GPa) = 0.02112814
#
# Stress axis : x y z
#
# Youngs Moduli (GPa) = 121.73281 49.22635 97.41790
#
# Poissons Ratio (x) = 0.09737 0.21164
# Poissons Ratio (y) = 0.24079 0.45616
# Poissons Ratio (z) = 0.26446 0.23050
#
# Static dielectric constant tensor:
#      x y z
#    x 2.519940 -0.000050 -0.424600 
#    y -0.000050 3.287080 0.000050 
#    z -0.424600 0.000050 2.506850 
# 
# From -- ./inp_files/200508.got.cif
#   From: 2010.05.17/outbox.cif.g08.bks.cpg/sg15_101_cif.got.tgz:200508.got - 2010.06.03 18:47:42.
