data_PCOD9293066
_publ_section_title
;
Structure prediction by ZEFSAII (Michael W. Deem and Ramdas Pophale) SiO2 
 PCOD9293066
Probable space group: C 2/C
;
_chemical_formula_sum "Si O2"
_cell_formula_units_Z 40
_cell_length_a 20.627450
_cell_length_b 7.703715
_cell_length_c 26.475717
_cell_angle_alpha 90.000000
_cell_angle_beta 155.575349
_cell_angle_gamma 90.000000
_cell_volume 1739.662529
_symmetry_space_group_name_H-M "C 2/C"
_symmetry_group_IT_number 15
_symmetry_cell_setting 'monoclinic'
loop_
_space_group_symop_operation_xyz
x,y,z
-x,y,1/2-z
-x,-y,-z
x,-y,1/2+z
1/2+x,1/2+y,z
1/2-x,1/2+y,1/2-z
1/2-x,1/2-y,-z
1/2+x,1/2-y,1/2+z
loop_
_atom_site_type_symbol
_atom_site_label
_atom_site_fract_x
_atom_site_fract_y
_atom_site_fract_z
Si Si1 0.000000 0.500000 0.500000
Si Si2 0.500000 0.146899 0.250000
Si Si3 0.116286 0.278164 0.180745
Si Si4 0.958908 0.082557 0.916751
Si Si5 0.769735 0.641063 0.908905
Si Si6 0.355488 0.082691 0.564964
O O1 0.944414 0.385279 0.410982
O O2 0.824771 0.476037 0.401805
O O3 0.396549 0.266349 0.213356
O O4 0.615664 0.028553 0.364608
O O5 0.303054 0.303167 0.314457
O O6 0.025079 0.357836 0.163666
O O7 0.069679 0.079146 0.139624
O O8 0.094234 0.212043 0.995314
O O9 0.000000 0.000000 0.000000
O O10 0.777494 0.535642 0.966415
O O11 0.250000 0.250000 0.500000
#
# Coordination Sequence:
#
# PCOD9293066 Si02
#       6
#     4   4   8   8   8   8
#     4  10  22  44  72 110 138 184 248 298 380 436
#     4  12  26  48  74  98 150 204 244 308 374 434
#     4  11  24  43  73 104 148 186 246 312 371 436
#     4  12  24  44  71 110 145 189 239 313 373 447
#     4  11  25  46  73 107 146 187 251 303 375 445
#     4  11  26  49  67 108 147 197 253 305 368 453
#
# _framework density 22.992965999999999
#
# number of rings (size 3 to 8) (size 9 to 14) (size 15 to 20)
#    0.000    0.800    2.000    5.400    2.800    0.800 
#    7.200    0.000    0.000    0.000    0.000    0.000 
#    0.000    0.000    0.000    0.000    0.000    0.000 
#
# Total GULP energy -111548.097139 kJ/mol
# GULP energy per Si atom -5577.404857 kJ/mol
# Density = 2.294063 g / cm^3
# Si number density = 22.992966 Si / 1000 Ang^3
#
#
#
# Elastic Constant Matrix: (Units=GPa)
#
#
# Indices 1 2 3 4 5 6 
#
# 1 72.1532 14.7743 12.6742 0.0001 -1.8520 -0.0001
# 2 14.7743 90.9442 29.8862 0.0004 -2.1138 -0.0003
# 3 12.6742 29.8862 91.8027 0.0000 27.1096 -0.0001
# 4 0.0001 0.0004 0.0000 44.0744 0.0001 22.2814
# 5 -1.8520 -2.1138 27.1096 0.0001 36.9134 0.0000
# 6 -0.0001 -0.0003 -0.0001 22.2814 0.0000 45.7464
#
#
#
# Elastic Compliance Matrix: (Units=1/GPa)
#
#
# Indices 1 2 3 4 5 6 
#
# 1 0.014625 -0.001619 -0.002147 0.000000 0.002218 0.000000
# 2 -0.001619 0.013154 -0.005436 0.000000 0.004664 0.000000
# 3 -0.002147 -0.005436 0.016706 0.000000 -0.012688 0.000000
# 4 0.000000 0.000000 0.000000 0.030101 0.000000 -0.014661
# 5 0.002218 0.004664 -0.012688 0.000000 0.036787 0.000000
# 6 0.000000 0.000000 0.000000 -0.014661 0.000000 0.029000
#
#
# Mechanical properties :
#
#
# Convention : Reuss Voigt Hill
#
# Bulk Modulus (GPa) = 38.34263 41.06328 39.70295
# Shear Modulus (GPa) = 29.85619 38.51787 34.18703
#
# Velocity S-wave (km/s) = 3.60737 4.09736 3.86015
# Velocity P-wave (km/s) = 5.83634 6.34684 6.09693
#
# Compressibility (1/GPa) = 0.02608063
#
# Stress axis : x y z
#
# Youngs Moduli (GPa) = 68.37635 76.02525 59.85936
#
# Poissons Ratio (x) = 0.12307 0.12852
# Poissons Ratio (y) = 0.11069 0.32540
# Poissons Ratio (z) = 0.14681 0.41327
#
# Static dielectric constant tensor:
#      x y z
#    x 1.835830 0.000000 -0.030220 
#    y 0.000000 1.924400 0.000000 
#    z -0.030220 0.000000 1.851650 
# 
# From -- ./inp_files/218805.got.cif
#   From: 2010.05.17/outbox.cif.g08.bks.cpg/sg15_110_cif.got.tgz:218805.got - 2010.06.03 18:47:42.
