data_PCOD9293897
_publ_section_title
;
Structure prediction by ZEFSAII (Michael W. Deem and Ramdas Pophale) SiO2 
 PCOD9293897
Probable space group: C 2/C
;
_chemical_formula_sum "Si O2"
_cell_formula_units_Z 48
_cell_length_a 16.468481
_cell_length_b 18.180142
_cell_length_c 10.151146
_cell_angle_alpha 90.000000
_cell_angle_beta 126.837167
_cell_angle_gamma 90.000000
_cell_volume 2432.438312
_symmetry_space_group_name_H-M "C 2/C"
_symmetry_group_IT_number 15
_symmetry_cell_setting 'monoclinic'
loop_
_space_group_symop_operation_xyz
x,y,z
-x,y,1/2-z
-x,-y,-z
x,-y,1/2+z
1/2+x,1/2+y,z
1/2-x,1/2+y,1/2-z
1/2-x,1/2-y,-z
1/2+x,1/2-y,1/2+z
loop_
_atom_site_type_symbol
_atom_site_label
_atom_site_fract_x
_atom_site_fract_y
_atom_site_fract_z
Si Si1 0.000000 0.746741 0.250000
Si Si2 0.310679 0.332768 0.182945
Si Si3 0.117241 0.282935 0.107223
Si Si4 0.704648 0.444195 0.551174
Si Si5 0.000000 0.014765 0.250000
Si Si6 0.244860 0.607924 0.878027
Si Si7 0.138872 0.129850 0.245791
O O1 0.909655 0.798105 0.216192
O O2 0.039067 0.702228 0.414425
O O3 0.226467 0.272513 0.140071
O O4 0.262701 0.390154 0.033636
O O5 0.323494 0.376132 0.333671
O O6 0.144569 0.348993 0.232775
O O7 0.092212 0.207406 0.156156
O O8 0.588288 0.466748 0.401573
O O9 0.764428 0.520768 0.614917
O O10 0.702979 0.403086 0.687869
O O11 0.944267 0.068867 0.297832
O O12 0.291603 0.639533 0.057442
#
# Coordination Sequence:
#
# PCOD9293897 Si02
#       7
#     4   8   8   8   4   8   8
#     4  12  21  38  64  88 121 162 206 262 299 366
#     4  10  23  38  60  91 123 163 210 241 310 369
#     4  10  24  39  59  90 125 167 207 253 301 376
#     4  11  20  36  61  88 127 167 194 257 305 381
#     4  10  23  32  54 102 129 158 198 244 335 386
#     4   9  22  38  54  87 125 161 202 242 304 369
#     4  11  21  34  59  87 129 163 191 256 307 374
#
# _framework density 19.733284999999999
#
# number of rings (size 3 to 8) (size 9 to 14) (size 15 to 20)
#    1.000    0.667    1.667    4.000    4.667    0.000 
#    0.000    0.000    0.000    1.000    0.000    0.000 
#    0.000    0.000    0.000    0.000    0.000    0.000 
#
# Total GULP energy -133832.442700 kJ/mol
# GULP energy per Si atom -5576.351779 kJ/mol
# Density = 1.968837 g / cm^3
# Si number density = 19.733285 Si / 1000 Ang^3
#
#
#
# Elastic Constant Matrix: (Units=GPa)
#
#
# Indices 1 2 3 4 5 6 
#
# 1 24.7452 -1.4753 0.4053 0.0000 -13.3870 0.0000
# 2 -1.4753 52.1182 31.9179 0.0000 -2.4522 0.0000
# 3 0.4053 31.9179 124.2646 0.0000 -27.8210 0.0000
# 4 0.0000 0.0000 0.0000 28.4467 0.0000 -0.8367
# 5 -13.3870 -2.4522 -27.8210 0.0000 24.6548 0.0000
# 6 0.0000 0.0000 0.0000 -0.8367 0.0000 17.8185
#
#
#
# Elastic Compliance Matrix: (Units=1/GPa)
#
#
# Indices 1 2 3 4 5 6 
#
# 1 0.066345 -0.002807 0.011383 0.000000 0.048590 0.000000
# 2 -0.002807 0.023525 -0.007828 0.000000 -0.008018 0.000000
# 3 0.011383 -0.007828 0.015027 0.000000 0.022359 0.000000
# 4 0.000000 0.000000 0.000000 0.035202 0.000000 0.001653
# 5 0.048590 -0.008018 0.022359 0.000000 0.091376 0.000000
# 6 0.000000 0.000000 0.000000 0.001653 0.000000 0.056199
#
#
# Mechanical properties :
#
#
# Convention : Reuss Voigt Hill
#
# Bulk Modulus (GPa) = 9.39923 29.20264 19.30093
# Shear Modulus (GPa) = 15.54524 25.53601 20.54063
#
# Velocity S-wave (km/s) = 2.80976 3.60120 3.22982
# Velocity P-wave (km/s) = 3.91150 5.66766 4.86940
#
# Compressibility (1/GPa) = 0.10639173
#
# Stress axis : x y z
#
# Youngs Moduli (GPa) = 15.07275 42.50856 66.54789
#
# Poissons Ratio (x) = 0.11932 -0.75752
# Poissons Ratio (y) = 0.04231 0.52096
# Poissons Ratio (z) = -0.17158 0.33277
#
# Static dielectric constant tensor:
#      x y z
#    x 1.699680 0.000000 -0.011130 
#    y 0.000000 1.695930 0.000000 
#    z -0.011130 0.000000 1.731790 
# 
# From -- ./inp_files/49884.got.cif
#   From: 2010.05.17/outbox.cif.g08.bks.cpg/sg15_25_cif.got.tgz:49884.got - 2010.06.03 18:47:42.
