data_PCOD9293607
_publ_section_title
;
Structure prediction by ZEFSAII (Michael W. Deem and Ramdas Pophale) SiO2 
 PCOD9293607
Probable space group: C 2/C
;
_chemical_formula_sum "Si O2"
_cell_formula_units_Z 44
_cell_length_a 17.352096
_cell_length_b 5.104552
_cell_length_c 19.160998
_cell_angle_alpha 90.000000
_cell_angle_beta 78.252879
_cell_angle_gamma 90.000000
_cell_volume 1661.632973
_symmetry_space_group_name_H-M "C 2/C"
_symmetry_group_IT_number 15
_symmetry_cell_setting 'monoclinic'
loop_
_space_group_symop_operation_xyz
x,y,z
-x,y,1/2-z
-x,-y,-z
x,-y,1/2+z
1/2+x,1/2+y,z
1/2-x,1/2+y,1/2-z
1/2-x,1/2-y,-z
1/2+x,1/2-y,1/2+z
loop_
_atom_site_type_symbol
_atom_site_label
_atom_site_fract_x
_atom_site_fract_y
_atom_site_fract_z
Si Si1 0.198616 0.631939 0.071744
Si Si2 0.514609 0.689355 0.885617
Si Si3 0.189307 0.828013 0.348462
Si Si4 0.337780 0.500494 0.304960
Si Si5 0.950860 0.661728 0.948748
Si Si6 0.000000 0.141198 0.250000
O O1 0.262141 0.535415 0.116076
O O2 0.139942 0.420136 0.046029
O O3 0.144397 0.817415 0.131313
O O4 0.250000 0.750000 0.000000
O O5 0.604018 0.699290 0.897891
O O6 0.467832 0.468929 0.939798
O O7 0.516315 0.549088 0.811643
O O8 0.492279 0.993791 0.878719
O O9 0.175628 0.879256 0.269023
O O10 0.250813 0.595313 0.340601
O O11 0.407392 0.720739 0.283105
O O12 0.000000 0.500000 0.000000
#
# Coordination Sequence:
#
# PCOD9293607 Si02
#       6
#     8   8   8   8   8   4
#     4  12  27  46  73 111 156 207 258 324 396 468
#     4  11  26  46  76 106 147 195 251 316 380 455
#     4  11  25  44  77 107 149 197 257 321 392 465
#     4  11  23  46  71 108 148 197 263 323 394 468
#     4  12  27  50  72 108 152 202 256 309 389 468
#     4  10  22  46  70 110 140 198 254 320 382 462
#
# _framework density 26.479972
#
# number of rings (size 3 to 8) (size 9 to 14) (size 15 to 20)
#    0.000    0.727    3.636    2.727    5.091    1.455 
#    0.000    0.000    0.000    0.000    0.000    0.000 
#    0.000    0.000    0.000    0.000    0.000    0.000 
#
# Total GULP energy -122577.154985 kJ/mol
# GULP energy per Si atom -5571.688863 kJ/mol
# Density = 2.641970 g / cm^3
# Si number density = 26.479972 Si / 1000 Ang^3
#
#
#
# Elastic Constant Matrix: (Units=GPa)
#
#
# Indices 1 2 3 4 5 6 
#
# 1 166.2624 34.3040 13.5725 0.0000 -8.8212 0.0000
# 2 34.3040 82.7248 8.5687 0.0000 6.0560 0.0000
# 3 13.5725 8.5687 101.3120 0.0000 29.1411 0.0000
# 4 0.0000 0.0000 0.0000 154.6168 0.0000 -5.6065
# 5 -8.8212 6.0560 29.1411 0.0000 56.4559 0.0000
# 6 0.0000 0.0000 0.0000 -5.6065 0.0000 49.0671
#
#
#
# Elastic Compliance Matrix: (Units=1/GPa)
#
#
# Indices 1 2 3 4 5 6 
#
# 1 0.006810 -0.002842 -0.001252 0.000000 0.002015 0.000000
# 2 -0.002842 0.013421 -0.000250 0.000000 -0.001755 0.000000
# 3 -0.001252 -0.000250 0.011870 0.000000 -0.006296 0.000000
# 4 0.000000 0.000000 0.000000 0.006495 0.000000 0.000742
# 5 0.002015 -0.001755 -0.006296 0.000000 0.021466 0.000000
# 6 0.000000 0.000000 0.000000 0.000742 0.000000 0.020465
#
#
# Mechanical properties :
#
#
# Convention : Reuss Voigt Hill
#
# Bulk Modulus (GPa) = 42.70721 51.46552 47.08637
# Shear Modulus (GPa) = 51.53706 71.61824 61.57765
#
# Velocity S-wave (km/s) = 4.41644 5.20624 4.82752
# Velocity P-wave (km/s) = 6.49382 7.45773 6.99240
#
# Compressibility (1/GPa) = 0.02341525
#
# Stress axis : x y z
#
# Youngs Moduli (GPa) = 146.84313 74.50993 84.24463
#
# Poissons Ratio (x) = 0.21174 0.10543
# Poissons Ratio (y) = 0.41730 0.02103
# Poissons Ratio (z) = 0.18378 0.01860
#
# Static dielectric constant tensor:
#      x y z
#    x 2.096900 0.000000 -0.178870 
#    y 0.000000 2.549450 0.000000 
#    z -0.178870 0.000000 1.966850 
# 
# From -- ./inp_files/246428.got.cif
#   From: 2010.05.17/outbox.cif.g08.bks.cpg/sg15_124_cif.got.tgz:246428.got - 2010.06.03 18:47:42.
