data_PCOD9293487
_publ_section_title
;
Structure prediction by ZEFSAII (Michael W. Deem and Ramdas Pophale) SiO2 
 PCOD9293487
Probable space group: C 2/C
;
_chemical_formula_sum "Si O2"
_cell_formula_units_Z 36
_cell_length_a 14.797744
_cell_length_b 17.159135
_cell_length_c 9.591266
_cell_angle_alpha 90.000000
_cell_angle_beta 36.689563
_cell_angle_gamma 90.000000
_cell_volume 1455.088955
_symmetry_space_group_name_H-M "C 2/C"
_symmetry_group_IT_number 15
_symmetry_cell_setting 'monoclinic'
loop_
_space_group_symop_operation_xyz
x,y,z
-x,y,1/2-z
-x,-y,-z
x,-y,1/2+z
1/2+x,1/2+y,z
1/2-x,1/2+y,1/2-z
1/2-x,1/2-y,-z
1/2+x,1/2-y,1/2+z
loop_
_atom_site_type_symbol
_atom_site_label
_atom_site_fract_x
_atom_site_fract_y
_atom_site_fract_z
Si Si1 0.169734 0.526046 0.074536
Si Si2 0.704312 0.575858 0.300055
Si Si3 0.438755 0.784453 0.479840
Si Si4 0.815010 0.305061 0.083984
Si Si5 0.000000 0.835225 0.250000
O O1 0.293851 0.476070 0.839095
O O2 0.175763 0.615400 0.013461
O O3 0.206967 0.527159 0.190844
O O4 0.000000 0.496729 0.250000
O O5 0.552410 0.607144 0.560942
O O6 0.810536 0.649379 0.133303
O O7 0.500000 0.771190 0.250000
O O8 0.349594 0.709987 0.648988
O O9 0.567996 0.807718 0.430308
O O10 0.632360 0.270484 0.070469
#
# Coordination Sequence:
#
# PCOD9293487 Si02
#       5
#     8   8   8   8   4
#     4  12  23  41  65  97 124 170 216 268 315 388
#     4  11  25  40  68  91 134 165 217 263 329 379
#     4  11  23  41  63  98 129 172 212 275 318 389
#     4  11  22  41  69  91 131 170 223 260 326 381
#     4  10  22  46  64  92 126 178 208 264 324 394
#
# _framework density 24.740753999999999
#
# number of rings (size 3 to 8) (size 9 to 14) (size 15 to 20)
#    0.000    0.889    3.333    3.333    3.111    4.444 
#    2.000    0.000    0.000    0.000    0.000    0.000 
#    0.000    0.000    0.000    0.000    0.000    0.000 
#
# Total GULP energy -100765.839766 kJ/mol
# GULP energy per Si atom -5598.102209 kJ/mol
# Density = 2.468444 g / cm^3
# Si number density = 24.740754 Si / 1000 Ang^3
#
#
#
# Elastic Constant Matrix: (Units=GPa)
#
#
# Indices 1 2 3 4 5 6 
#
# 1 49.9809 -12.7694 12.9259 -0.0003 -7.1105 0.0004
# 2 -12.7694 60.6658 32.9219 -0.0001 -7.2793 0.0002
# 3 12.9259 32.9219 184.1351 -0.0003 16.9185 0.0003
# 4 -0.0003 -0.0001 -0.0003 21.8490 0.0003 5.5046
# 5 -7.1105 -7.2793 16.9185 0.0003 31.7373 -0.0004
# 6 0.0004 0.0002 0.0003 5.5046 -0.0004 22.3335
#
#
#
# Elastic Compliance Matrix: (Units=1/GPa)
#
#
# Indices 1 2 3 4 5 6 
#
# 1 0.024672 0.008622 -0.004167 0.000000 0.009726 0.000000
# 2 0.008622 0.022521 -0.005556 0.000000 0.010059 0.000000
# 3 -0.004167 -0.005556 0.007276 0.000000 -0.006087 0.000000
# 4 0.000000 0.000000 0.000000 0.048799 -0.000001 -0.012028
# 5 0.009726 0.010059 -0.006087 -0.000001 0.039239 0.000001
# 6 0.000000 0.000000 0.000000 -0.012028 0.000001 0.047740
#
#
# Mechanical properties :
#
#
# Convention : Reuss Voigt Hill
#
# Bulk Modulus (GPa) = 19.13315 40.10429 29.61872
# Shear Modulus (GPa) = 23.82411 32.63084 28.22748
#
# Velocity S-wave (km/s) = 3.10651 3.63562 3.38143
# Velocity P-wave (km/s) = 4.54064 5.81968 5.21949
#
# Compressibility (1/GPa) = 0.05226532
#
# Stress axis : x y z
#
# Youngs Moduli (GPa) = 40.53223 44.40398 137.43995
#
# Poissons Ratio (x) = -0.38283 0.57272
# Poissons Ratio (y) = -0.34945 0.76360
# Poissons Ratio (z) = 0.16890 0.24670
#
# Static dielectric constant tensor:
#      x y z
#    x 2.065890 0.000000 -0.049810 
#    y 0.000000 1.938720 0.000000 
#    z -0.049810 0.000000 1.931130 
# 
# From -- ./inp_files/41170.got.cif
#   From: 2010.05.17/outbox.cif.g08.bks.cpg/sg15_21_cif.got.tgz:41170.got - 2010.06.03 18:47:42.
