data_PCOD9293784
_publ_section_title
;
Structure prediction by ZEFSAII (Michael W. Deem and Ramdas Pophale) SiO2 
 PCOD9293784
Probable space group: C 2/C
;
_chemical_formula_sum "Si O2"
_cell_formula_units_Z 56
_cell_length_a 5.338911
_cell_length_b 16.831478
_cell_length_c 30.285174
_cell_angle_alpha 90.000000
_cell_angle_beta 120.578342
_cell_angle_gamma 90.000000
_cell_volume 2343.014960
_symmetry_space_group_name_H-M "C 2/C"
_symmetry_group_IT_number 15
_symmetry_cell_setting 'monoclinic'
loop_
_space_group_symop_operation_xyz
x,y,z
-x,y,1/2-z
-x,-y,-z
x,-y,1/2+z
1/2+x,1/2+y,z
1/2-x,1/2+y,1/2-z
1/2-x,1/2-y,-z
1/2+x,1/2-y,1/2+z
loop_
_atom_site_type_symbol
_atom_site_label
_atom_site_fract_x
_atom_site_fract_y
_atom_site_fract_z
Si Si1 0.407712 0.633018 0.620778
Si Si2 0.274801 0.319560 0.437660
Si Si3 0.671002 0.968580 0.629769
Si Si4 0.990772 0.743418 0.299358
Si Si5 0.059414 0.161340 0.389393
Si Si6 0.827448 0.563601 0.278066
Si Si7 0.895953 0.078787 0.465052
O O1 0.600422 0.634449 0.593911
O O2 0.347564 0.546029 0.633959
O O3 0.578895 0.687783 0.671722
O O4 0.066453 0.661378 0.581855
O O5 0.290649 0.226837 0.426326
O O6 0.485580 0.347775 0.495580
O O7 0.870784 0.891235 0.646799
O O8 0.528327 0.971921 0.664916
O O9 0.440645 0.942400 0.572060
O O10 0.291926 0.713067 0.347838
O O11 0.000000 0.774877 0.250000
O O12 0.823612 0.659797 0.280746
O O13 0.997906 0.103068 0.424954
O O14 0.500000 0.532643 0.250000
O O15 0.000000 0.541462 0.250000
O O16 0.000000 0.000000 0.500000
#
# Coordination Sequence:
#
# PCOD9293784 Si02
#       7
#     8   8   8   8   8   8   8
#     4  11  26  45  70 102 146 183 235 296 359 438
#     4  11  26  46  69 104 142 190 241 294 357 429
#     4  12  25  43  73 104 147 189 245 298 366 446
#     4  10  22  47  72 101 137 183 236 301 363 428
#     4  11  25  45  73 107 141 191 253 305 360 445
#     4  11  24  43  73 104 136 181 238 301 361 430
#     4  12  25  44  71 104 148 197 239 304 371 435
#
# _framework density 23.900831
#
# number of rings (size 3 to 8) (size 9 to 14) (size 15 to 20)
#    0.000    0.857    2.857    3.857    4.000    4.571 
#    0.000    0.000    0.000    0.857    0.000    0.000 
#    0.000    0.000    0.000    0.000    0.000    0.000 
#
# Total GULP energy -156369.081471 kJ/mol
# GULP energy per Si atom -5584.610053 kJ/mol
# Density = 2.384643 g / cm^3
# Si number density = 23.900831 Si / 1000 Ang^3
#
#
#
# Elastic Constant Matrix: (Units=GPa)
#
#
# Indices 1 2 3 4 5 6 
#
# 1 68.7446 0.0346 33.7877 -0.0001 -12.4443 0.0000
# 2 0.0346 65.8654 6.2878 0.0000 -1.8534 0.0000
# 3 33.7877 6.2878 120.3532 -0.0003 -19.5986 -0.0001
# 4 -0.0001 0.0000 -0.0003 -23.5578 -0.0002 -24.3493
# 5 -12.4443 -1.8534 -19.5986 -0.0002 37.8644 0.0000
# 6 0.0000 0.0000 -0.0001 -24.3493 0.0000 23.6336
#
#
#
# Elastic Compliance Matrix: (Units=1/GPa)
#
#
# Indices 1 2 3 4 5 6 
#
# 1 0.017297 0.000501 -0.004316 0.000000 0.003475 0.000000
# 2 0.000501 0.015278 -0.000863 0.000000 0.000466 0.000000
# 3 -0.004316 -0.000863 0.010186 0.000000 0.003812 0.000000
# 4 0.000000 0.000000 0.000000 -0.020557 0.000000 -0.021180
# 5 0.003475 0.000466 0.003812 0.000000 0.029548 0.000000
# 6 0.000000 0.000000 0.000000 -0.021180 0.000000 0.020491
#
#
# Mechanical properties :
#
#
# Convention : Reuss Voigt Hill
#
# Bulk Modulus (GPa) = 29.93629 37.24260 33.58944
# Shear Modulus (GPa) = 53.91760 21.91159 37.91459
#
# Velocity S-wave (km/s) = 4.75477 3.03111 3.98720
# Velocity P-wave (km/s) = 6.53423 5.27884 5.93979
#
# Compressibility (1/GPa) = 0.03340427
#
# Stress axis : x y z
#
# Youngs Moduli (GPa) = 57.81421 65.45493 98.17041
#
# Poissons Ratio (x) = -0.03278 0.42372
# Poissons Ratio (y) = -0.02895 0.08471
# Poissons Ratio (z) = 0.24953 0.05648
#
# Static dielectric constant tensor:
#      x y z
#    x 2.160560 0.000000 0.103630 
#    y 0.000000 1.953730 0.000000 
#    z 0.103630 0.000000 1.923520 
# 
# From -- ./inp_files/286102.got.cif
#   From: 2010.05.17/outbox.cif.g08.bks.cpg/sg15_144_cif.got.tgz:286102.got - 2010.06.03 18:47:42.
