data_PCOD9293979
_publ_section_title
;
Structure prediction by ZEFSAII (Michael W. Deem and Ramdas Pophale) SiO2 
 PCOD9293979
Probable space group: C 2/C
;
_chemical_formula_sum "Si O2"
_cell_formula_units_Z 48
_cell_length_a 10.851745
_cell_length_b 9.387767
_cell_length_c 19.466490
_cell_angle_alpha 90.000000
_cell_angle_beta 91.018736
_cell_angle_gamma 90.000000
_cell_volume 1982.808996
_symmetry_space_group_name_H-M "C 2/C"
_symmetry_group_IT_number 15
_symmetry_cell_setting 'monoclinic'
loop_
_space_group_symop_operation_xyz
x,y,z
-x,y,1/2-z
-x,-y,-z
x,-y,1/2+z
1/2+x,1/2+y,z
1/2-x,1/2+y,1/2-z
1/2-x,1/2-y,-z
1/2+x,1/2-y,1/2+z
loop_
_atom_site_type_symbol
_atom_site_label
_atom_site_fract_x
_atom_site_fract_y
_atom_site_fract_z
Si Si1 0.308223 0.176513 0.188890
Si Si2 0.460834 0.442775 0.170865
Si Si3 0.291029 0.114219 0.346531
Si Si4 0.096418 0.671339 0.609155
Si Si5 0.114183 0.951149 0.546071
Si Si6 0.812006 0.393592 0.098711
O O1 0.410105 0.283059 0.158017
O O2 0.331670 0.152012 0.269422
O O3 0.176850 0.258035 0.173252
O O4 0.314075 0.023436 0.153228
O O5 0.500000 0.450942 0.250000
O O6 0.343277 0.543500 0.161005
O O7 0.564073 0.499058 0.120598
O O8 0.275381 0.261694 0.384693
O O9 0.370359 0.994250 0.384887
O O10 0.134294 0.781796 0.549548
O O11 0.948897 0.669189 0.601317
O O12 0.000000 0.000000 0.500000
O O13 0.242915 0.031164 0.533751
#
# Coordination Sequence:
#
# PCOD9293979 Si02
#       6
#     8   8   8   8   8   8
#     4  10  23  37  62 102 136 178 223 279 348 416
#     4  11  22  41  68  99 140 177 224 289 350 413
#     4  11  22  39  66 100 139 177 225 284 352 415
#     4  10  23  44  62  97 136 178 232 280 347 418
#     4  11  25  48  70  98 138 186 239 293 351 418
#     4  11  23  41  67  91 136 179 226 288 344 413
#
# _framework density 24.208079999999999
#
# number of rings (size 3 to 8) (size 9 to 14) (size 15 to 20)
#    0.000    1.333    1.667    5.000    4.667    2.000 
#    0.000    8.333    0.000    0.000    0.000    0.000 
#    0.000    0.000    0.000    0.000    0.000    0.000 
#
# Total GULP energy -134075.470381 kJ/mol
# GULP energy per Si atom -5586.477933 kJ/mol
# Density = 2.415298 g / cm^3
# Si number density = 24.208080 Si / 1000 Ang^3
#
#
#
# Elastic Constant Matrix: (Units=GPa)
#
#
# Indices 1 2 3 4 5 6 
#
# 1 84.1096 37.7591 31.0081 0.0000 18.4011 0.0000
# 2 37.7591 164.7429 3.7720 0.0000 -5.4772 0.0000
# 3 31.0081 3.7720 46.2100 0.0000 7.9972 0.0000
# 4 0.0000 0.0000 0.0000 -0.7735 0.0000 -2.2378
# 5 18.4011 -5.4772 7.9972 0.0000 32.5668 0.0000
# 6 0.0000 0.0000 0.0000 -2.2378 0.0000 19.3212
#
#
#
# Elastic Compliance Matrix: (Units=1/GPa)
#
#
# Indices 1 2 3 4 5 6 
#
# 1 0.020365 -0.004715 -0.011647 0.000000 -0.009440 0.000000
# 2 -0.004715 0.007218 0.001988 0.000000 0.003390 0.000000
# 3 -0.011647 0.001988 0.029344 0.000000 -0.000291 0.000000
# 4 0.000000 0.000000 0.000000 -0.968377 0.000000 -0.112159
# 5 -0.009440 0.003390 -0.000291 0.000000 0.036681 0.000000
# 6 0.000000 0.000000 0.000000 -0.112159 0.000000 0.038766
#
#
# Mechanical properties :
#
#
# Convention : Reuss Voigt Hill
#
# Bulk Modulus (GPa) = 35.48743 48.90455 42.19599
# Shear Modulus (GPa) = -6.26674 25.05779 9.39553
#
# Velocity S-wave (km/s) = -1.61069 3.22079 1.97220
# Velocity P-wave (km/s) = 3.35143 5.83754 4.75967
#
# Compressibility (1/GPa) = 0.02817899
#
# Stress axis : x y z
#
# Youngs Moduli (GPa) = 49.10465 138.54504 34.07900
#
# Poissons Ratio (x) = 0.65321 0.39691
# Poissons Ratio (y) = 0.23152 -0.06775
# Poissons Ratio (z) = 0.57191 -0.27541
#
# Static dielectric constant tensor:
#      x y z
#    x 1.985400 0.000000 0.011660 
#    y 0.000000 1.919260 0.000000 
#    z 0.011660 0.000000 1.959020 
# 
# From -- ./inp_files/267643.got.cif
#   From: 2010.05.17/outbox.cif.g08.bks.cpg/sg15_134_cif.got.tgz:267643.got - 2010.06.03 18:47:42.
