data_PCOD9293336
_publ_section_title
;
Structure prediction by ZEFSAII (Michael W. Deem and Ramdas Pophale) SiO2 
 PCOD9293336
Probable space group: C 2/C
;
_chemical_formula_sum "Si O2"
_cell_formula_units_Z 48
_cell_length_a 21.262919
_cell_length_b 13.842116
_cell_length_c 18.297664
_cell_angle_alpha 90.000000
_cell_angle_beta 23.104327
_cell_angle_gamma 90.000000
_cell_volume 2113.281249
_symmetry_space_group_name_H-M "C 2/C"
_symmetry_group_IT_number 15
_symmetry_cell_setting 'monoclinic'
loop_
_space_group_symop_operation_xyz
x,y,z
-x,y,1/2-z
-x,-y,-z
x,-y,1/2+z
1/2+x,1/2+y,z
1/2-x,1/2+y,1/2-z
1/2-x,1/2-y,-z
1/2+x,1/2-y,1/2+z
loop_
_atom_site_type_symbol
_atom_site_label
_atom_site_fract_x
_atom_site_fract_y
_atom_site_fract_z
Si Si1 0.229275 0.937632 0.964350
Si Si2 0.465176 0.182873 0.132489
Si Si3 0.207828 0.813148 0.290589
Si Si4 0.788856 0.301909 0.569279
Si Si5 0.500000 0.063736 0.750000
Si Si6 0.500000 0.275370 0.250000
Si Si7 0.056783 0.888896 0.586168
O O1 0.328390 0.896668 0.789249
O O2 0.354755 0.997628 0.877905
O O3 0.091019 0.009249 0.084819
O O4 0.152546 0.846857 0.087472
O O5 0.391957 0.276211 0.171132
O O6 0.512540 0.212618 0.163825
O O7 0.619409 0.153373 0.921090
O O8 0.219391 0.721534 0.334977
O O9 0.116903 0.889619 0.438087
O O10 0.931437 0.369775 0.388792
O O11 0.830271 0.193479 0.496887
O O12 0.622056 0.347787 0.722904
#
# Coordination Sequence:
#
# PCOD9293336 Si02
#       7
#     8   8   8   8   4   4   8
#     4  12  27  43  68 107 137 178 242 285 334 408
#     4  12  24  47  73  97 140 185 231 284 344 418
#     4  10  22  46  74  97 132 187 226 278 353 413
#     4  10  22  45  71 102 143 184 221 272 372 401
#     4  12  27  43  68 106 144 180 228 295 333 420
#     4  12  27  47  70  98 140 194 226 281 353 404
#     4  10  22  45  70 104 138 178 230 281 340 415
#
# _framework density 22.713493
#
# number of rings (size 3 to 8) (size 9 to 14) (size 15 to 20)
#    1.000    0.000    3.333    3.000    4.667    4.000 
#    0.000    1.667    0.000    0.000    0.000    0.000 
#    0.000    0.000    0.000    0.000    0.000    0.000 
#
# Total GULP energy -134164.922654 kJ/mol
# GULP energy per Si atom -5590.205111 kJ/mol
# Density = 2.266180 g / cm^3
# Si number density = 22.713493 Si / 1000 Ang^3
#
#
#
# Elastic Constant Matrix: (Units=GPa)
#
#
# Indices 1 2 3 4 5 6 
#
# 1 85.9565 19.3448 24.0555 0.0275 14.8941 0.0057
# 2 19.3448 68.0327 16.0188 0.0931 3.6988 0.0221
# 3 24.0555 16.0188 130.9192 0.1732 17.7005 0.0395
# 4 0.0275 0.0931 0.1732 455.3678 -0.0944 98.8010
# 5 14.8941 3.6988 17.7005 -0.0944 37.3356 -0.0216
# 6 0.0057 0.0221 0.0395 98.8010 -0.0216 42.5133
#
#
#
# Elastic Compliance Matrix: (Units=1/GPa)
#
#
# Indices 1 2 3 4 5 6 
#
# 1 0.013544 -0.003261 -0.001499 -0.000001 -0.004369 0.000000
# 2 -0.003261 0.015935 -0.001403 -0.000002 0.000387 -0.000001
# 3 -0.001499 -0.001403 0.008533 -0.000003 -0.003308 -0.000001
# 4 -0.000001 -0.000002 -0.000003 0.004430 0.000007 -0.010294
# 5 -0.004369 0.000387 -0.003308 0.000007 0.030057 0.000002
# 6 0.000000 -0.000001 -0.000001 -0.010294 0.000002 0.047446
#
#
# Mechanical properties :
#
#
# Convention : Reuss Voigt Hill
#
# Bulk Modulus (GPa) = 38.93042 44.86074 41.89558
# Shear Modulus (GPa) = 35.50302 122.07594 78.78948
#
# Velocity S-wave (km/s) = 3.95787 7.33912 5.89608
# Velocity P-wave (km/s) = 6.16955 9.57134 8.05214
#
# Compressibility (1/GPa) = 0.02568685
#
# Stress axis : x y z
#
# Youngs Moduli (GPa) = 73.83210 62.75380 117.19640
#
# Poissons Ratio (x) = 0.20462 0.17567
# Poissons Ratio (y) = 0.24075 0.16443
# Poissons Ratio (z) = 0.11067 0.08804
#
# Static dielectric constant tensor:
#      x y z
#    x 1.857850 0.000000 -0.000880 
#    y 0.000000 1.831930 0.000000 
#    z -0.000880 0.000000 1.868500 
# 
# From -- ./inp_files/255700.got.cif
#   From: 2010.05.17/outbox.cif.g08.bks.cpg/sg15_128_cif.got.tgz:255700.got - 2010.06.03 18:47:42.
