data_PCOD9293782
_publ_section_title
;
Structure prediction by ZEFSAII (Michael W. Deem and Ramdas Pophale) SiO2 
 PCOD9293782
Probable space group: C 2/C
;
_chemical_formula_sum "Si O2"
_cell_formula_units_Z 56
_cell_length_a 22.281447
_cell_length_b 15.563911
_cell_length_c 14.769093
_cell_angle_alpha 90.000000
_cell_angle_beta 27.611007
_cell_angle_gamma 90.000000
_cell_volume 2373.745156
_symmetry_space_group_name_H-M "C 2/C"
_symmetry_group_IT_number 15
_symmetry_cell_setting 'monoclinic'
loop_
_space_group_symop_operation_xyz
x,y,z
-x,y,1/2-z
-x,-y,-z
x,-y,1/2+z
1/2+x,1/2+y,z
1/2-x,1/2+y,1/2-z
1/2-x,1/2-y,-z
1/2+x,1/2-y,1/2+z
loop_
_atom_site_type_symbol
_atom_site_label
_atom_site_fract_x
_atom_site_fract_y
_atom_site_fract_z
Si Si1 0.559197 0.783978 0.968918
Si Si2 0.846676 0.422117 0.212409
Si Si3 0.141370 0.493210 0.602486
Si Si4 0.780593 0.817797 0.382814
Si Si5 0.212901 0.575297 0.338496
Si Si6 0.478398 0.430601 0.387421
Si Si7 0.049999 0.876426 0.582282
O O1 0.680777 0.743810 0.752005
O O2 0.620855 0.842971 0.963719
O O3 0.458350 0.849418 0.055944
O O4 0.493989 0.700504 0.098270
O O5 0.844511 0.470706 0.313911
O O6 0.856955 0.497190 0.123497
O O7 0.706968 0.379244 0.379675
O O8 0.174360 0.393043 0.538166
O O9 0.237042 0.543944 0.407188
O O10 0.000000 0.510031 0.750000
O O11 0.750000 0.750000 0.500000
O O12 0.912911 0.870150 0.218647
O O13 0.338058 0.595967 0.110871
O O14 0.500000 0.428012 0.250000
O O15 0.486718 0.529842 0.404354
O O16 0.000000 0.867810 0.750000
#
# Coordination Sequence:
#
# PCOD9293782 Si02
#       7
#     8   8   8   8   8   8   8
#     4  12  26  42  69 109 142 188 249 311 368 444
#     4  11  25  49  73 103 152 197 242 317 379 443
#     4  12  26  46  77 106 150 204 254 300 385 461
#     4  12  27  44  71 109 142 188 255 311 376 447
#     4  11  25  46  75 102 146 196 248 306 384 453
#     4  10  22  47  71  97 147 196 236 307 386 449
#     4  10  24  44  70 101 146 183 242 300 369 451
#
# _framework density 23.591411999999998
#
# number of rings (size 3 to 8) (size 9 to 14) (size 15 to 20)
#    0.000    0.857    1.429    6.429    6.000    5.714 
#    0.000    0.000    0.000    0.000    0.000    0.000 
#    0.000    0.000    0.000    0.000    0.000    0.000 
#
# Total GULP energy -156480.331323 kJ/mol
# GULP energy per Si atom -5588.583262 kJ/mol
# Density = 2.353772 g / cm^3
# Si number density = 23.591412 Si / 1000 Ang^3
#
#
#
# Elastic Constant Matrix: (Units=GPa)
#
#
# Indices 1 2 3 4 5 6 
#
# 1 61.0026 23.1352 21.0944 0.0017 1.9118 -0.0005
# 2 23.1352 116.4087 28.0219 0.0007 1.4320 -0.0002
# 3 21.0944 28.0219 83.5464 0.0021 4.3603 -0.0006
# 4 0.0017 0.0007 0.0021-3256.6464 -0.0019 986.8741
# 5 1.9118 1.4320 4.3603 -0.0019 45.0708 0.0006
# 6 -0.0005 -0.0002 -0.0006 986.8741 0.0006 -256.0192
#
#
#
# Elastic Compliance Matrix: (Units=1/GPa)
#
#
# Indices 1 2 3 4 5 6 
#
# 1 0.018779 -0.002818 -0.003778 0.000000 -0.000341 0.000000
# 2 -0.002818 0.009768 -0.002568 0.000000 0.000058 0.000000
# 3 -0.003778 -0.002568 0.013842 0.000000 -0.001097 0.000000
# 4 0.000000 0.000000 0.000000 0.001827 0.000000 0.007041
# 5 -0.000341 0.000058 -0.001097 0.000000 0.022306 0.000000
# 6 0.000000 0.000000 0.000000 0.007041 0.000000 0.023236
#
#
# Mechanical properties :
#
#
# Convention : Reuss Voigt Hill
#
# Bulk Modulus (GPa) = 41.56281 45.05118 43.30700
# Shear Modulus (GPa) = 43.06420 -680.93854 -318.93717
#
# Velocity S-wave (km/s) = 4.27713 -17.00779 -11.63983
# Velocity P-wave (km/s) = 6.48442 19.14546 12.73776
#
# Compressibility (1/GPa) = 0.02405997
#
# Stress axis : x y z
#
# Youngs Moduli (GPa) = 53.25147 102.37587 72.24484
#
# Poissons Ratio (x) = 0.28854 0.27296
# Poissons Ratio (y) = 0.15008 0.18550
# Poissons Ratio (z) = 0.20120 0.26286
#
# Static dielectric constant tensor:
#      x y z
#    x 1.889340 0.000000 0.011250 
#    y 0.000000 1.873330 0.000000 
#    z 0.011250 0.000000 2.024060 
# 
# From -- ./inp_files/173784.got.cif
#   From: 2010.05.17/outbox.cif.g08.bks.cpg/sg15_87_cif.got.tgz:173784.got - 2010.06.03 18:47:42.
