data_PCOD9293843
_publ_section_title
;
Structure prediction by ZEFSAII (Michael W. Deem and Ramdas Pophale) SiO2 
 PCOD9293843
Probable space group: C 2/C
;
_chemical_formula_sum "Si O2"
_cell_formula_units_Z 36
_cell_length_a 21.205890
_cell_length_b 4.790774
_cell_length_c 19.954015
_cell_angle_alpha 90.000000
_cell_angle_beta 140.272335
_cell_angle_gamma 90.000000
_cell_volume 1295.650799
_symmetry_space_group_name_H-M "C 2/C"
_symmetry_group_IT_number 15
_symmetry_cell_setting 'monoclinic'
loop_
_space_group_symop_operation_xyz
x,y,z
-x,y,1/2-z
-x,-y,-z
x,-y,1/2+z
1/2+x,1/2+y,z
1/2-x,1/2+y,1/2-z
1/2-x,1/2-y,-z
1/2+x,1/2-y,1/2+z
loop_
_atom_site_type_symbol
_atom_site_label
_atom_site_fract_x
_atom_site_fract_y
_atom_site_fract_z
Si Si1 0.000000 0.812341 0.250000
Si Si2 0.714167 0.127702 0.400418
Si Si3 0.098903 0.829238 0.951202
Si Si4 0.286502 0.388015 0.241151
Si Si5 0.007131 0.688090 0.440385
O O1 0.095363 0.628660 0.306381
O O2 0.043989 0.016523 0.344230
O O3 0.750000 0.250000 0.500000
O O4 0.782545 0.851909 0.453920
O O5 0.742455 0.307588 0.357879
O O6 0.069160 0.027414 0.989764
O O7 0.056029 0.524052 0.927012
O O8 0.273369 0.705716 0.253010
O O9 0.398159 0.289209 0.335780
O O10 0.000000 0.500000 0.500000
#
# Coordination Sequence:
#
# PCOD9293843 Si02
#       5
#     4   8   8   8   8
#     4  10  22  48  72 108 146 196 242 306 362 446
#     4  10  23  47  77 107 151 194 254 302 377 436
#     4  11  24  45  70 106 143 188 243 299 360 438
#     4  12  25  45  75 109 150 194 249 306 373 441
#     4  12  24  44  71 104 149 186 243 298 370 436
#
# _framework density 27.785264999999999
#
# number of rings (size 3 to 8) (size 9 to 14) (size 15 to 20)
#    0.000    0.889    2.222    4.667    0.000    0.889 
#    0.000    6.667    0.000    0.000    0.000    0.000 
#    0.000    0.000    0.000    0.000    0.000    0.000 
#
# Total GULP energy -100979.833633 kJ/mol
# GULP energy per Si atom -5609.990757 kJ/mol
# Density = 2.772202 g / cm^3
# Si number density = 27.785265 Si / 1000 Ang^3
#
#
#
# Elastic Constant Matrix: (Units=GPa)
#
#
# Indices 1 2 3 4 5 6 
#
# 1 124.5900 36.2645 57.1524 0.0008 3.2279 0.0028
# 2 36.2645 147.7569 27.1060 -0.0013 20.0384 0.0018
# 3 57.1524 27.1060 166.8858 0.0005 25.0280 0.0041
# 4 0.0008 -0.0013 0.0005 31.4021 -0.0006 -4.2518
# 5 3.2279 20.0384 25.0280 -0.0006 75.2890 -0.0007
# 6 0.0028 0.0018 0.0041 -4.2518 -0.0007 55.5017
#
#
#
# Elastic Compliance Matrix: (Units=1/GPa)
#
#
# Indices 1 2 3 4 5 6 
#
# 1 0.010107 -0.002037 -0.003312 0.000000 0.001210 0.000000
# 2 -0.002037 0.007564 -0.000255 0.000000 -0.001841 0.000000
# 3 -0.003312 -0.000255 0.007511 0.000000 -0.002287 0.000000
# 4 0.000000 0.000000 0.000000 0.032179 0.000000 0.002465
# 5 0.001210 -0.001841 -0.002287 0.000000 0.014481 0.000000
# 6 0.000000 0.000000 0.000000 0.002465 0.000000 0.018206
#
#
# Mechanical properties :
#
#
# Convention : Reuss Voigt Hill
#
# Bulk Modulus (GPa) = 71.55941 75.58652 73.57297
# Shear Modulus (GPa) = 47.20822 53.68588 50.44705
#
# Velocity S-wave (km/s) = 4.12641 4.40042 4.26561
# Velocity P-wave (km/s) = 6.96515 7.28568 7.12722
#
# Compressibility (1/GPa) = 0.01397440
#
# Stress axis : x y z
#
# Youngs Moduli (GPa) = 98.93946 132.19986 133.14346
#
# Poissons Ratio (x) = 0.26931 0.44096
# Poissons Ratio (y) = 0.20155 0.03393
# Poissons Ratio (z) = 0.32768 0.03369
#
# Static dielectric constant tensor:
#      x y z
#    x 2.279940 0.000000 -0.043910 
#    y 0.000000 2.052170 0.000000 
#    z -0.043910 0.000000 2.165650 
# 
# From -- ./inp_files/251183.got.cif
#   From: 2010.05.17/outbox.cif.g08.bks.cpg/sg15_126_cif.got.tgz:251183.got - 2010.06.03 18:47:42.
