data_PCOD9293872
_publ_section_title
;
Structure prediction by ZEFSAII (Michael W. Deem and Ramdas Pophale) SiO2 
 PCOD9293872
Probable space group: C 2/C
;
_chemical_formula_sum "Si O2"
_cell_formula_units_Z 28
_cell_length_a 16.603470
_cell_length_b 14.808111
_cell_length_c 5.436870
_cell_angle_alpha 90.000000
_cell_angle_beta 46.476445
_cell_angle_gamma 90.000000
_cell_volume 969.259747
_symmetry_space_group_name_H-M "C 2/C"
_symmetry_group_IT_number 15
_symmetry_cell_setting 'monoclinic'
loop_
_space_group_symop_operation_xyz
x,y,z
-x,y,1/2-z
-x,-y,-z
x,-y,1/2+z
1/2+x,1/2+y,z
1/2-x,1/2+y,1/2-z
1/2-x,1/2-y,-z
1/2+x,1/2-y,1/2+z
loop_
_atom_site_type_symbol
_atom_site_label
_atom_site_fract_x
_atom_site_fract_y
_atom_site_fract_z
Si Si1 0.000000 0.204124 0.250000
Si Si2 0.612313 0.419882 0.141287
Si Si3 0.643734 0.232697 0.049597
Si Si4 0.336102 0.964192 0.195429
O O1 0.914305 0.129596 0.544481
O O2 0.966416 0.273032 0.544690
O O3 0.500000 0.454657 0.250000
O O4 0.637500 0.329365 0.921714
O O5 0.713977 0.486419 0.962096
O O6 0.750000 0.250000 0.000000
O O7 0.663401 0.141794 0.861016
O O8 0.386758 0.988028 0.350471
#
# Coordination Sequence:
#
# PCOD9293872 Si02
#       4
#     4   8   8   8
#     4   8  22  46  72 102 146 198 246 304 376 448
#     4  10  24  44  79 106 150 198 259 317 378 452
#     4  10  22  49  73 108 156 204 250 315 391 456
#     4  12  27  45  75 117 152 196 256 320 381 453
#
# _framework density 28.888023
#
# number of rings (size 3 to 8) (size 9 to 14) (size 15 to 20)
#    1.714    0.000    2.857    0.000    8.000    4.571 
#    2.571    1.429    0.000    0.000    0.000    0.000 
#    0.000    0.000    0.000    0.000    0.000    0.000 
#
# Total GULP energy -78027.506779 kJ/mol
# GULP energy per Si atom -5573.393341 kJ/mol
# Density = 2.882227 g / cm^3
# Si number density = 28.888023 Si / 1000 Ang^3
#
#
#
# Elastic Constant Matrix: (Units=GPa)
#
#
# Indices 1 2 3 4 5 6 
#
# 1 138.3685 45.5192 58.5248 0.0000 -5.8217 0.0000
# 2 45.5192 217.8017 77.5117 0.0000 -8.9873 0.0000
# 3 58.5248 77.5117 211.7257 0.0000 16.6724 0.0000
# 4 0.0000 0.0000 0.0000 80.8699 0.0000 -6.1380
# 5 -5.8217 -8.9873 16.6724 0.0000 60.6902 0.0000
# 6 0.0000 0.0000 0.0000 -6.1380 0.0000 36.4937
#
#
#
# Elastic Compliance Matrix: (Units=1/GPa)
#
#
# Indices 1 2 3 4 5 6 
#
# 1 0.008483 -0.000980 -0.002084 0.000000 0.001241 0.000000
# 2 -0.000980 0.005501 -0.001840 0.000000 0.001226 0.000000
# 3 -0.002084 -0.001840 0.006143 0.000000 -0.002160 0.000000
# 4 0.000000 0.000000 0.000000 0.012525 0.000000 0.002107
# 5 0.001241 0.001226 -0.002160 0.000000 0.017371 0.000000
# 6 0.000000 0.000000 0.000000 0.002107 0.000000 0.027756
#
#
# Mechanical properties :
#
#
# Convention : Reuss Voigt Hill
#
# Bulk Modulus (GPa) = 96.89885 103.44525 100.17205
# Shear Modulus (GPa) = 54.92862 61.36676 58.14769
#
# Velocity S-wave (km/s) = 4.36527 4.61401 4.49136
# Velocity P-wave (km/s) = 7.68266 8.01700 7.85161
#
# Compressibility (1/GPa) = 0.01032004
#
# Stress axis : x y z
#
# Youngs Moduli (GPa) = 117.88153 181.76948 162.79590
#
# Poissons Ratio (x) = 0.17816 0.33923
# Poissons Ratio (y) = 0.11554 0.29949
# Poissons Ratio (z) = 0.24564 0.33440
#
# Static dielectric constant tensor:
#      x y z
#    x 2.562640 0.000000 0.159860 
#    y 0.000000 2.279120 0.000000 
#    z 0.159860 0.000000 2.543040 
# 
# From -- ./inp_files/12733.got.cif
#   From: 2010.05.17/outbox.cif.g08.bks.cpg/sg15_7_cif.got.tgz:12733.got - 2010.06.03 18:47:42.
