data_PCOD9293180
_publ_section_title
;
Structure prediction by ZEFSAII (Michael W. Deem and Ramdas Pophale) SiO2 
 PCOD9293180
Probable space group: C 2/C
;
_chemical_formula_sum "Si O2"
_cell_formula_units_Z 36
_cell_length_a 16.643427
_cell_length_b 9.111869
_cell_length_c 12.581604
_cell_angle_alpha 90.000000
_cell_angle_beta 128.908138
_cell_angle_gamma 90.000000
_cell_volume 1484.744619
_symmetry_space_group_name_H-M "C 2/C"
_symmetry_group_IT_number 15
_symmetry_cell_setting 'monoclinic'
loop_
_space_group_symop_operation_xyz
x,y,z
-x,y,1/2-z
-x,-y,-z
x,-y,1/2+z
1/2+x,1/2+y,z
1/2-x,1/2+y,1/2-z
1/2-x,1/2-y,-z
1/2+x,1/2-y,1/2+z
loop_
_atom_site_type_symbol
_atom_site_label
_atom_site_fract_x
_atom_site_fract_y
_atom_site_fract_z
Si Si1 0.563057 0.202443 0.125551
Si Si2 0.624931 0.980038 0.024152
Si Si3 0.500000 0.176617 0.750000
Si Si4 0.450786 0.590873 0.054663
Si Si5 0.173653 0.123693 0.894628
O O1 0.595917 0.287699 0.255810
O O2 0.559682 0.172216 0.471287
O O3 0.603791 0.042795 0.125526
O O4 0.611628 0.291675 0.066892
O O5 0.575915 0.070420 0.881477
O O6 0.745879 0.970665 0.107511
O O7 0.471360 0.300827 0.815982
O O8 0.384643 0.484583 0.073506
O O9 0.500000 0.500000 0.000000
O O10 0.250000 0.250000 0.000000
#
# Coordination Sequence:
#
# PCOD9293180 Si02
#       5
#     8   8   4   8   8
#     4  10  24  46  72 101 151 188 238 313 367 440
#     4  10  23  47  72 107 140 200 241 303 379 438
#     4  10  22  44  76  94 146 192 242 304 370 440
#     4  11  24  44  68 104 142 191 239 309 367 429
#     4  12  26  43  74 108 145 194 250 304 365 451
#
# _framework density 24.246593000000001
#
# number of rings (size 3 to 8) (size 9 to 14) (size 15 to 20)
#    0.000    1.333    0.000    4.000    3.111    5.333 
#   16.000    0.000    0.000    0.000    0.000    0.000 
#    0.000    0.000    0.000    0.000    0.000    0.000 
#
# Total GULP energy -100219.391241 kJ/mol
# GULP energy per Si atom -5567.743958 kJ/mol
# Density = 2.419141 g / cm^3
# Si number density = 24.246593 Si / 1000 Ang^3
#
#
#
# Elastic Constant Matrix: (Units=GPa)
#
#
# Indices 1 2 3 4 5 6 
#
# 1 153.1997 50.9843 46.4236 0.0000 -12.9559 0.0000
# 2 50.9843 111.3030 52.2455 0.0000 -3.9549 0.0000
# 3 46.4236 52.2455 100.9828 0.0000 -18.1876 0.0000
# 4 0.0000 0.0000 0.0000 72.0685 0.0000 -17.3730
# 5 -12.9559 -3.9549 -18.1876 0.0000 26.9143 0.0000
# 6 0.0000 0.0000 0.0000 -17.3730 0.0000 31.3344
#
#
#
# Elastic Compliance Matrix: (Units=1/GPa)
#
#
# Indices 1 2 3 4 5 6 
#
# 1 0.008230 -0.002779 -0.001942 0.000000 0.002241 0.000000
# 2 -0.002779 0.012984 -0.006077 0.000000 -0.003536 0.000000
# 3 -0.001942 -0.006077 0.015497 0.000000 0.008644 0.000000
# 4 0.000000 0.000000 0.000000 0.016016 0.000000 0.008880
# 5 0.002241 -0.003536 0.008644 0.000000 0.043555 0.000000
# 6 0.000000 0.000000 0.000000 0.008880 0.000000 0.036837
#
#
# Mechanical properties :
#
#
# Convention : Reuss Voigt Hill
#
# Bulk Modulus (GPa) = 66.16089 73.86580 70.01334
# Shear Modulus (GPa) = 31.29802 40.45226 35.87514
#
# Velocity S-wave (km/s) = 3.59670 4.08900 3.85072
# Velocity P-wave (km/s) = 6.67789 7.26800 6.97918
#
# Compressibility (1/GPa) = 0.01511467
#
# Stress axis : x y z
#
# Youngs Moduli (GPa) = 121.50281 77.01646 64.53029
#
# Poissons Ratio (x) = 0.21400 0.12534
# Poissons Ratio (y) = 0.33761 0.39216
# Poissons Ratio (z) = 0.23601 0.46804
#
# Static dielectric constant tensor:
#      x y z
#    x 2.035480 0.000000 -0.029590 
#    y 0.000000 2.259280 0.000000 
#    z -0.029590 0.000000 2.051920 
# 
# From -- ./inp_files/109837.got.cif
#   From: 2010.05.17/outbox.cif.g08.bks.cpg/sg15_55_cif.got.tgz:109837.got - 2010.06.03 18:47:42.
