data_PCOD9293976
_publ_section_title
;
Structure prediction by ZEFSAII (Michael W. Deem and Ramdas Pophale) SiO2 
 PCOD9293976
Probable space group: C 2/C
;
_chemical_formula_sum "Si O2"
_cell_formula_units_Z 56
_cell_length_a 27.002131
_cell_length_b 6.292296
_cell_length_c 22.488455
_cell_angle_alpha 90.000000
_cell_angle_beta 131.080508
_cell_angle_gamma 90.000000
_cell_volume 2880.152210
_symmetry_space_group_name_H-M "C 2/C"
_symmetry_group_IT_number 15
_symmetry_cell_setting 'monoclinic'
loop_
_space_group_symop_operation_xyz
x,y,z
-x,y,1/2-z
-x,-y,-z
x,-y,1/2+z
1/2+x,1/2+y,z
1/2-x,1/2+y,1/2-z
1/2-x,1/2-y,-z
1/2+x,1/2-y,1/2+z
loop_
_atom_site_type_symbol
_atom_site_label
_atom_site_fract_x
_atom_site_fract_y
_atom_site_fract_z
Si Si1 0.734213 0.271357 0.390603
Si Si2 0.593066 0.333632 0.972013
Si Si3 0.820584 0.450235 0.244205
Si Si4 0.471674 0.307976 0.017173
Si Si5 0.458889 0.917531 0.388550
Si Si6 0.298457 0.881966 0.860151
Si Si7 0.697831 0.439128 0.966377
O O1 0.689475 0.132860 0.312050
O O2 0.781179 0.414645 0.386668
O O3 0.694854 0.429602 0.403058
O O4 0.774679 0.106231 0.463231
O O5 0.577259 0.576488 0.977245
O O6 0.641362 0.238573 0.060502
O O7 0.525110 0.201661 0.919805
O O8 0.631789 0.337668 0.940720
O O9 0.894804 0.365015 0.300448
O O10 0.764865 0.273321 0.190412
O O11 0.811674 0.549577 0.302993
O O12 0.443215 0.153986 0.944170
O O13 0.500000 0.500000 0.000000
O O14 0.524596 0.167450 0.093961
O O15 0.750000 0.250000 0.000000
#
# Coordination Sequence:
#
# PCOD9293976 Si02
#       7
#     8   8   8   8   8   8   8
#     4  11  24  41  64  97 130 169 222 281 325 390
#     4  11  23  39  67  97 125 176 229 270 324 400
#     4  12  24  39  62  99 141 174 206 278 346 405
#     4   9  19  37  57  91 126 169 213 260 321 397
#     4  10  23  37  61  92 139 169 211 270 338 398
#     4  12  24  38  66 100 133 172 220 273 343 393
#     4  11  23  43  69  95 124 171 233 280 316 388
#
# _framework density 19.443418000000001
#
# number of rings (size 3 to 8) (size 9 to 14) (size 15 to 20)
#    0.000    1.143    4.286    2.571    6.000    2.286 
#    0.000    0.000    0.000   12.857    0.000    0.000 
#    0.000    0.000    0.000    0.000    0.000    0.000 
#
# Total GULP energy -156395.584635 kJ/mol
# GULP energy per Si atom -5585.556594 kJ/mol
# Density = 1.939916 g / cm^3
# Si number density = 19.443418 Si / 1000 Ang^3
#
#
#
# Elastic Constant Matrix: (Units=GPa)
#
#
# Indices 1 2 3 4 5 6 
#
# 1 125.1643 42.5135 46.3792 -0.0005 7.4593 0.0003
# 2 42.5135 93.3267 38.3162 -0.0041 11.5200 0.0031
# 3 46.3792 38.3162 95.5772 0.0001 15.2292 0.0003
# 4 -0.0005 -0.0041 0.0001 29.8734 -0.0001 -5.8013
# 5 7.4593 11.5200 15.2292 -0.0001 41.5165 -0.0001
# 6 0.0003 0.0031 0.0003 -5.8013 -0.0001 44.3489
#
#
#
# Elastic Compliance Matrix: (Units=1/GPa)
#
#
# Indices 1 2 3 4 5 6 
#
# 1 0.010498 -0.003251 -0.003860 0.000000 0.000432 0.000000
# 2 -0.003251 0.013957 -0.003711 0.000002 -0.001928 -0.000001
# 3 -0.003860 -0.003711 0.014390 -0.000001 -0.003555 0.000000
# 4 0.000000 0.000002 -0.000001 0.034347 0.000000 0.004493
# 5 0.000432 -0.001928 -0.003555 0.000000 0.025848 0.000000
# 6 0.000000 -0.000001 0.000000 0.004493 0.000000 0.023136
#
#
# Mechanical properties :
#
#
# Convention : Reuss Voigt Hill
#
# Bulk Modulus (GPa) = 58.13111 63.16512 60.64811
# Shear Modulus (GPa) = 33.43269 35.60504 34.51887
#
# Velocity S-wave (km/s) = 4.15117 4.28391 4.21806
# Velocity P-wave (km/s) = 7.27590 7.55158 7.41502
#
# Compressibility (1/GPa) = 0.01720249
#
# Stress axis : x y z
#
# Youngs Moduli (GPa) = 95.25423 71.64678 69.49333
#
# Poissons Ratio (x) = 0.23292 0.26823
# Poissons Ratio (y) = 0.30966 0.25787
# Poissons Ratio (z) = 0.36767 0.26586
#
# Static dielectric constant tensor:
#      x y z
#    x 1.710450 0.000000 0.012440 
#    y 0.000000 1.711180 0.000000 
#    z 0.012440 0.000000 1.671300 
# 
# From -- ./inp_files/282974.got.cif
#   From: 2010.05.17/outbox.cif.g08.bks.cpg/sg15_142_cif.got.tgz:282974.got - 2010.06.03 18:47:42.
