data_PCOD9293179
_publ_section_title
;
Structure prediction by ZEFSAII (Michael W. Deem and Ramdas Pophale) SiO2 
 PCOD9293179
Probable space group: C 2/C
;
_chemical_formula_sum "Si O2"
_cell_formula_units_Z 48
_cell_length_a 18.882388
_cell_length_b 11.474275
_cell_length_c 9.388521
_cell_angle_alpha 90.000000
_cell_angle_beta 113.329798
_cell_angle_gamma 90.000000
_cell_volume 1867.823429
_symmetry_space_group_name_H-M "C 2/C"
_symmetry_group_IT_number 15
_symmetry_cell_setting 'monoclinic'
loop_
_space_group_symop_operation_xyz
x,y,z
-x,y,1/2-z
-x,-y,-z
x,-y,1/2+z
1/2+x,1/2+y,z
1/2-x,1/2+y,1/2-z
1/2-x,1/2-y,-z
1/2+x,1/2-y,1/2+z
loop_
_atom_site_type_symbol
_atom_site_label
_atom_site_fract_x
_atom_site_fract_y
_atom_site_fract_z
Si Si1 0.000000 0.500000 0.500000
Si Si2 0.358517 0.565214 0.571121
Si Si3 0.036019 0.244593 0.996655
Si Si4 0.639489 0.730840 0.697106
Si Si5 0.356576 0.115612 0.538209
Si Si6 0.291439 0.020833 0.220477
Si Si7 0.500000 0.608333 0.250000
O O1 0.042753 0.618245 0.483270
O O2 0.057911 0.419690 0.443369
O O3 0.395937 0.676512 0.524076
O O4 0.327515 0.621321 0.694003
O O5 0.291666 0.521061 0.415357
O O6 0.428113 0.473616 0.647196
O O7 0.030785 0.190941 0.149907
O O8 0.952149 0.214460 0.864151
O O9 0.657487 0.756919 0.543438
O O10 0.666044 0.854973 0.784937
O O11 0.301118 0.033763 0.397263
O O12 0.339618 0.083932 0.686428
#
# Coordination Sequence:
#
# PCOD9293179 Si02
#       7
#     4   8   8   8   8   8   4
#     4  10  22  44  76  94 146 178 252 306 354 430
#     4  12  23  43  73  99 153 192 241 290 381 452
#     4  11  24  46  69 110 136 196 245 306 360 441
#     4   9  21  41  66  96 136 187 241 280 364 427
#     4   9  22  39  66 106 136 184 246 298 360 419
#     4  10  23  40  68 106 143 195 238 307 362 437
#     4  12  28  40  70 112 144 190 244 300 372 444
#
# _framework density 25.698360000000001
#
# number of rings (size 3 to 8) (size 9 to 14) (size 15 to 20)
#    1.000    0.667    1.667    2.000    2.333    4.667 
#    3.000    0.000    0.000    7.000    0.000    0.000 
#    0.000    0.000    0.000    0.000    0.000    0.000 
#
# Total GULP energy -133672.008039 kJ/mol
# GULP energy per Si atom -5569.667002 kJ/mol
# Density = 2.563987 g / cm^3
# Si number density = 25.698360 Si / 1000 Ang^3
#
#
#
# Elastic Constant Matrix: (Units=GPa)
#
#
# Indices 1 2 3 4 5 6 
#
# 1 28.0120 19.1440 11.3145 0.0000 12.6993 0.0000
# 2 19.1440 109.9660 -4.5053 0.0000 -14.4732 0.0000
# 3 11.3145 -4.5053 75.4144 0.0000 1.7572 0.0000
# 4 0.0000 0.0000 0.0000 -33.6320 0.0000 8.2690
# 5 12.6993 -14.4732 1.7572 0.0000 48.6630 0.0000
# 6 0.0000 0.0000 0.0000 8.2690 0.0000 45.0186
#
#
#
# Elastic Compliance Matrix: (Units=1/GPa)
#
#
# Indices 1 2 3 4 5 6 
#
# 1 0.055869 -0.012448 -0.008707 0.000000 -0.017967 0.000000
# 2 -0.012448 0.012256 0.002441 0.000000 0.006806 0.000000
# 3 -0.008707 0.002441 0.014655 0.000000 0.002469 0.000000
# 4 0.000000 0.000000 0.000000 -0.028449 0.000000 0.005225
# 5 -0.017967 0.006806 0.002469 0.000000 0.027173 0.000000
# 6 0.000000 0.000000 0.000000 0.005225 0.000000 0.021253
#
#
# Mechanical properties :
#
#
# Convention : Reuss Voigt Hill
#
# Bulk Modulus (GPa) = 22.04941 29.47765 25.76353
# Shear Modulus (GPa) = 32.19534 24.50586 28.35060
#
# Velocity S-wave (km/s) = 3.54336 3.09139 3.32506
# Velocity P-wave (km/s) = 5.03381 4.92319 4.97880
#
# Compressibility (1/GPa) = 0.04535269
#
# Stress axis : x y z
#
# Youngs Moduli (GPa) = 17.89916 81.58967 68.23755
#
# Poissons Ratio (x) = 1.01560 0.59415
# Poissons Ratio (y) = 0.22280 -0.16658
# Poissons Ratio (z) = 0.15585 -0.19917
#
# Static dielectric constant tensor:
#      x y z
#    x 2.048000 0.000000 -0.055920 
#    y 0.000000 1.772370 0.000000 
#    z -0.055920 0.000000 2.180490 
# 
# From -- ./inp_files/111252.got.cif
#   From: 2010.05.17/outbox.cif.g08.bks.cpg/sg15_56_cif.got.tgz:111252.got - 2010.06.03 18:47:42.
