data_PCOD9293986
_publ_section_title
;
Structure prediction by ZEFSAII (Michael W. Deem and Ramdas Pophale) SiO2 
 PCOD9293986
Probable space group: C 2/C
;
_chemical_formula_sum "Si O2"
_cell_formula_units_Z 52
_cell_length_a 17.162452
_cell_length_b 26.387385
_cell_length_c 4.971699
_cell_angle_alpha 90.000000
_cell_angle_beta 111.785644
_cell_angle_gamma 90.000000
_cell_volume 2090.736509
_symmetry_space_group_name_H-M "C 2/C"
_symmetry_group_IT_number 15
_symmetry_cell_setting 'monoclinic'
loop_
_space_group_symop_operation_xyz
x,y,z
-x,y,1/2-z
-x,-y,-z
x,-y,1/2+z
1/2+x,1/2+y,z
1/2-x,1/2+y,1/2-z
1/2-x,1/2-y,-z
1/2+x,1/2-y,1/2+z
loop_
_atom_site_type_symbol
_atom_site_label
_atom_site_fract_x
_atom_site_fract_y
_atom_site_fract_z
Si Si1 0.148268 0.468764 0.376419
Si Si2 0.580500 0.872427 0.036594
Si Si3 0.000000 0.287704 0.250000
Si Si4 0.198917 0.898252 0.900314
Si Si5 0.090118 0.888969 0.279187
Si Si6 0.616504 0.273131 0.309929
Si Si7 0.787383 0.692962 0.756476
O O1 0.136860 0.482690 0.671707
O O2 0.087173 0.425600 0.188732
O O3 0.238629 0.443498 0.444129
O O4 0.569805 0.828387 0.244363
O O5 0.665561 0.851609 0.006674
O O6 0.500000 0.869977 0.750000
O O7 0.044836 0.254765 0.540187
O O8 0.161896 0.910185 0.563259
O O9 0.122429 0.893802 0.015641
O O10 0.251444 0.845100 0.978066
O O11 0.088622 0.829192 0.349553
O O12 0.000000 0.910287 0.250000
O O13 0.700169 0.282243 0.241602
O O14 0.649618 0.240445 0.604404
#
# Coordination Sequence:
#
# PCOD9293986 Si02
#       7
#     8   8   4   8   8   8   8
#     4  11  26  47  79 103 128 175 236 291 357 439
#     4  11  25  43  65  96 142 179 226 293 364 399
#     4  12  26  40  64  98 148 194 232 294 338 400
#     4  10  23  44  68  97 138 176 228 292 356 413
#     4  11  24  39  67 102 142 184 227 284 345 411
#     4  10  23  37  63  95 135 189 253 273 324 399
#     4   9  21  40  59  91 127 185 231 285 327 395
#
# _framework density 24.871617000000001
#
# number of rings (size 3 to 8) (size 9 to 14) (size 15 to 20)
#    0.000    1.538    1.538    1.385    8.615    9.231 
#    0.000    0.000    0.000    9.231    0.000    0.000 
#    0.000    0.000    0.000    0.000    0.000    0.000 
#
# Total GULP energy -145176.258559 kJ/mol
# GULP energy per Si atom -5583.702252 kJ/mol
# Density = 2.481501 g / cm^3
# Si number density = 24.871617 Si / 1000 Ang^3
#
#
#
# Elastic Constant Matrix: (Units=GPa)
#
#
# Indices 1 2 3 4 5 6 
#
# 1 62.9146 -2.9219 27.6462 0.0000 10.9319 0.0000
# 2 -2.9219 53.1041 14.1677 0.0000 4.1519 0.0000
# 3 27.6462 14.1677 89.0652 0.0000 15.5527 0.0000
# 4 0.0000 0.0000 0.0000 25.9824 0.0000 -0.1166
# 5 10.9319 4.1519 15.5527 0.0000 41.9864 0.0000
# 6 0.0000 0.0000 0.0000 -0.1166 0.0000 7.1561
#
#
#
# Elastic Compliance Matrix: (Units=1/GPa)
#
#
# Indices 1 2 3 4 5 6 
#
# 1 0.019138 0.002857 -0.005854 0.000000 -0.003097 0.000000
# 2 0.002857 0.020120 -0.003860 0.000000 -0.001304 0.000000
# 3 -0.005854 -0.003860 0.014248 0.000000 -0.003372 0.000000
# 4 0.000000 0.000000 0.000000 0.038490 0.000000 0.000627
# 5 -0.003097 -0.001304 -0.003372 0.000000 0.026001 0.000000
# 6 0.000000 0.000000 0.000000 0.000627 0.000000 0.139751
#
#
# Mechanical properties :
#
#
# Convention : Reuss Voigt Hill
#
# Bulk Modulus (GPa) = 25.13092 31.42977 28.28034
# Shear Modulus (GPa) = 17.56078 26.10443 21.83261
#
# Velocity S-wave (km/s) = 2.66006 3.24322 2.96600
# Velocity P-wave (km/s) = 4.42275 5.16612 4.80882
#
# Compressibility (1/GPa) = 0.03979163
#
# Stress axis : x y z
#
# Youngs Moduli (GPa) = 52.25255 49.70230 70.18716
#
# Poissons Ratio (x) = -0.14200 0.41089
# Poissons Ratio (y) = -0.14928 0.27090
# Poissons Ratio (z) = 0.30589 0.19183
#
# Static dielectric constant tensor:
#      x y z
#    x 2.197110 0.000000 0.017330 
#    y 0.000000 1.923120 0.000000 
#    z 0.017330 0.000000 1.927600 
# 
# From -- ./inp_files/11631.got.cif
#   From: 2010.05.17/outbox.cif.g08.bks.cpg/sg15_6_cif.got.tgz:11631.got - 2010.06.03 18:47:42.
