data_PCOD9293760
_publ_section_title
;
Structure prediction by ZEFSAII (Michael W. Deem and Ramdas Pophale) SiO2 
 PCOD9293760
Probable space group: C 2/C
;
_chemical_formula_sum "Si O2"
_cell_formula_units_Z 32
_cell_length_a 24.633108
_cell_length_b 7.495605
_cell_length_c 20.971640
_cell_angle_alpha 90.000000
_cell_angle_beta 158.535928
_cell_angle_gamma 90.000000
_cell_volume 1416.908301
_symmetry_space_group_name_H-M "C 2/C"
_symmetry_group_IT_number 15
_symmetry_cell_setting 'monoclinic'
loop_
_space_group_symop_operation_xyz
x,y,z
-x,y,1/2-z
-x,-y,-z
x,-y,1/2+z
1/2+x,1/2+y,z
1/2-x,1/2+y,1/2-z
1/2-x,1/2-y,-z
1/2+x,1/2-y,1/2+z
loop_
_atom_site_type_symbol
_atom_site_label
_atom_site_fract_x
_atom_site_fract_y
_atom_site_fract_z
Si Si1 0.652721 0.998946 0.981723
Si Si2 0.078395 0.021975 0.652401
Si Si3 0.852158 0.678670 0.189235
Si Si4 0.094110 0.900265 0.913175
O O1 0.642719 0.200639 0.947760
O O2 0.490557 0.914289 0.807078
O O3 0.745044 0.017121 0.149333
O O4 0.758931 0.853893 0.063066
O O5 0.070452 0.228299 0.665132
O O6 0.000000 0.000000 0.500000
O O7 0.000931 0.909452 0.625294
O O8 0.732765 0.529300 0.074582
O O9 0.000000 0.968351 0.750000
#
# Coordination Sequence:
#
# PCOD9293760 Si02
#       4
#     8   8   8   8
#     4  10  23  43  72 104 142 186 236 292 352 419
#     4  10  23  47  71 102 137 183 238 285 357 419
#     4  10  22  47  69 102 144 182 237 294 351 420
#     4  12  26  45  71 106 143 187 239 295 353 422
#
# _framework density 22.584381
#
# number of rings (size 3 to 8) (size 9 to 14) (size 15 to 20)
#    1.500    0.000    2.500    1.500    0.000   10.000 
#    0.000    3.750    0.000    0.000    0.000    0.000 
#    0.000    0.000    0.000    0.000    0.000    0.000 
#
# Total GULP energy -89203.756855 kJ/mol
# GULP energy per Si atom -5575.234803 kJ/mol
# Density = 2.253298 g / cm^3
# Si number density = 22.584381 Si / 1000 Ang^3
#
#
#
# Elastic Constant Matrix: (Units=GPa)
#
#
# Indices 1 2 3 4 5 6 
#
# 1 88.7902 40.6580 58.6467 0.0000 -2.4031 0.0000
# 2 40.6580 164.5409 45.9367 0.0000 18.1514 0.0000
# 3 58.6467 45.9367 122.5306 0.0000 6.8822 0.0000
# 4 0.0000 0.0000 0.0000 18.2679 0.0000 8.7587
# 5 -2.4031 18.1514 6.8822 0.0000 43.3869 0.0000
# 6 0.0000 0.0000 0.0000 8.7587 0.0000 22.6881
#
#
#
# Elastic Compliance Matrix: (Units=1/GPa)
#
#
# Indices 1 2 3 4 5 6 
#
# 1 0.017565 -0.002571 -0.007626 0.000000 0.003258 0.000000
# 2 -0.002571 0.007434 -0.001386 0.000000 -0.003033 0.000000
# 3 -0.007626 -0.001386 0.012433 0.000000 -0.001815 0.000000
# 4 0.000000 0.000000 0.000000 0.067174 0.000000 -0.025932
# 5 0.003258 -0.003033 -0.001815 0.000000 0.024785 0.000000
# 6 0.000000 0.000000 0.000000 -0.025932 0.000000 0.054087
#
#
# Mechanical properties :
#
#
# Convention : Reuss Voigt Hill
#
# Bulk Modulus (GPa) = 70.09844 74.03829 72.06837
# Shear Modulus (GPa) = 23.65165 32.24326 27.94745
#
# Velocity S-wave (km/s) = 3.23965 3.78256 3.52158
# Velocity P-wave (km/s) = 6.71562 7.20633 6.96530
#
# Compressibility (1/GPa) = 0.01426565
#
# Stress axis : x y z
#
# Youngs Moduli (GPa) = 56.93090 134.51117 80.43003
#
# Poissons Ratio (x) = 0.34577 0.61340
# Poissons Ratio (y) = 0.14635 0.11151
# Poissons Ratio (z) = 0.43418 0.18649
#
# Static dielectric constant tensor:
#      x y z
#    x 1.916950 0.000000 -0.010360 
#    y 0.000000 1.860610 0.000000 
#    z -0.010360 0.000000 1.903710 
# 
# From -- ./inp_files/257276.got.cif
#   From: 2010.05.17/outbox.cif.g08.bks.cpg/sg15_129_cif.got.tgz:257276.got - 2010.06.03 18:47:42.
