data_PCOD9293823
_publ_section_title
;
Structure prediction by ZEFSAII (Michael W. Deem and Ramdas Pophale) SiO2 
 PCOD9293823
Probable space group: C 2/C
;
_chemical_formula_sum "Si O2"
_cell_formula_units_Z 36
_cell_length_a 6.380242
_cell_length_b 12.459359
_cell_length_c 18.729409
_cell_angle_alpha 90.000000
_cell_angle_beta 79.998242
_cell_angle_gamma 90.000000
_cell_volume 1466.243278
_symmetry_space_group_name_H-M "C 2/C"
_symmetry_group_IT_number 15
_symmetry_cell_setting 'monoclinic'
loop_
_space_group_symop_operation_xyz
x,y,z
-x,y,1/2-z
-x,-y,-z
x,-y,1/2+z
1/2+x,1/2+y,z
1/2-x,1/2+y,1/2-z
1/2-x,1/2-y,-z
1/2+x,1/2-y,1/2+z
loop_
_atom_site_type_symbol
_atom_site_label
_atom_site_fract_x
_atom_site_fract_y
_atom_site_fract_z
Si Si1 0.500000 0.035397 0.750000
Si Si2 0.338067 0.671877 0.819800
Si Si3 0.949671 0.815295 0.564535
Si Si4 0.608756 0.116710 0.495137
Si Si5 0.321239 0.467047 0.112971
O O1 0.661949 0.103500 0.788480
O O2 0.336840 0.986438 0.817036
O O3 0.500000 0.715636 0.750000
O O4 0.202633 0.760852 0.868629
O O5 0.477805 0.592126 0.862292
O O6 0.193795 0.854694 0.568026
O O7 0.965836 0.723223 0.503442
O O8 0.861812 0.934030 0.557155
O O9 0.703432 0.118615 0.570293
O O10 0.500000 0.000000 0.500000
#
# Coordination Sequence:
#
# PCOD9293823 Si02
#       5
#     4   8   8   8   8
#     4  10  22  48  66  96 146 172 226 304 336 404
#     4  10  23  46  67 100 141 179 235 295 344 415
#     4  11  24  42  72 103 131 188 230 275 354 416
#     4  11  25  45  69 104 144 178 230 291 341 418
#     4  11  24  44  70  97 140 182 226 287 347 412
#
# _framework density 24.552541000000002
#
# number of rings (size 3 to 8) (size 9 to 14) (size 15 to 20)
#    0.000    1.333    2.222    2.000    1.556    5.333 
#    6.000    0.000    0.000    0.000    0.000    0.000 
#    0.000    0.000    0.000    0.000    0.000    0.000 
#
# Total GULP energy -100327.447592 kJ/mol
# GULP energy per Si atom -5573.747088 kJ/mol
# Density = 2.449666 g / cm^3
# Si number density = 24.552541 Si / 1000 Ang^3
#
#
#
# Elastic Constant Matrix: (Units=GPa)
#
#
# Indices 1 2 3 4 5 6 
#
# 1 162.2083 58.6062 50.9257 0.0000 -8.7880 0.0000
# 2 58.6062 149.7135 61.0193 0.0000 -33.8355 0.0000
# 3 50.9257 61.0193 90.2359 0.0000 -29.3291 0.0000
# 4 0.0000 0.0000 0.0000 39.6898 0.0000 -15.1313
# 5 -8.7880 -33.8355 -29.3291 0.0000 57.8803 0.0000
# 6 0.0000 0.0000 0.0000 -15.1313 0.0000 27.1658
#
#
#
# Elastic Compliance Matrix: (Units=1/GPa)
#
#
# Indices 1 2 3 4 5 6 
#
# 1 0.007966 -0.002016 -0.003738 0.000000 -0.001863 0.000000
# 2 -0.002016 0.010089 -0.004630 0.000000 0.003246 0.000000
# 3 -0.003738 -0.004630 0.018267 0.000000 0.005982 0.000000
# 4 0.000000 0.000000 0.000000 0.031988 0.000000 0.017817
# 5 -0.001863 0.003246 0.005982 0.000000 0.021923 0.000000
# 6 0.000000 0.000000 0.000000 0.017817 0.000000 0.046735
#
#
# Mechanical properties :
#
#
# Convention : Reuss Voigt Hill
#
# Bulk Modulus (GPa) = 64.29062 82.58444 73.43753
# Shear Modulus (GPa) = 30.68995 40.38762 35.53878
#
# Velocity S-wave (km/s) = 3.53933 4.06019 3.80868
# Velocity P-wave (km/s) = 6.55318 7.46251 7.02258
#
# Compressibility (1/GPa) = 0.01555437
#
# Stress axis : x y z
#
# Youngs Moduli (GPa) = 125.53572 99.11733 54.74412
#
# Poissons Ratio (x) = 0.19980 0.20464
# Poissons Ratio (y) = 0.25306 0.25346
# Poissons Ratio (z) = 0.46926 0.45890
#
# Static dielectric constant tensor:
#      x y z
#    x 2.036810 0.000000 -0.078420 
#    y 0.000000 1.881340 0.000000 
#    z -0.078420 0.000000 2.009920 
# 
# From -- ./inp_files/285141.got.cif
#   From: 2010.05.17/outbox.cif.g08.bks.cpg/sg15_143_cif.got.tgz:285141.got - 2010.06.03 18:47:42.
