data_PCOD9293351
_publ_section_title
;
Structure prediction by ZEFSAII (Michael W. Deem and Ramdas Pophale) SiO2 
 PCOD9293351
Probable space group: C 2/C
;
_chemical_formula_sum "Si O2"
_cell_formula_units_Z 44
_cell_length_a 5.877260
_cell_length_b 17.006787
_cell_length_c 23.819024
_cell_angle_alpha 90.000000
_cell_angle_beta 47.891087
_cell_angle_gamma 90.000000
_cell_volume 1766.240539
_symmetry_space_group_name_H-M "C 2/C"
_symmetry_group_IT_number 15
_symmetry_cell_setting 'monoclinic'
loop_
_space_group_symop_operation_xyz
x,y,z
-x,y,1/2-z
-x,-y,-z
x,-y,1/2+z
1/2+x,1/2+y,z
1/2-x,1/2+y,1/2-z
1/2-x,1/2-y,-z
1/2+x,1/2-y,1/2+z
loop_
_atom_site_type_symbol
_atom_site_label
_atom_site_fract_x
_atom_site_fract_y
_atom_site_fract_z
Si Si1 0.000000 0.036585 0.750000
Si Si2 0.489859 0.514700 0.934358
Si Si3 0.815024 0.275453 0.625255
Si Si4 0.154850 0.905815 0.806216
Si Si5 0.119751 0.664946 0.961259
Si Si6 0.509688 0.136728 0.632498
O O1 0.188401 0.095013 0.679904
O O2 0.185214 0.980588 0.760608
O O3 0.540288 0.439299 0.885970
O O4 0.219817 0.575948 0.962305
O O5 0.778339 0.571075 0.876330
O O6 0.500000 0.500000 0.000000
O O7 0.628512 0.353998 0.671610
O O8 0.539029 0.213391 0.664425
O O9 0.960725 0.297946 0.541253
O O10 0.098222 0.223997 0.603741
O O11 0.500000 0.869250 0.750000
O O12 0.892755 0.658242 0.946462
#
# Coordination Sequence:
#
# PCOD9293351 Si02
#       6
#     4   8   8   8   8   8
#     4  12  26  44  70  94 138 192 224 278 356 420
#     4  11  24  41  72 102 135 178 231 288 347 407
#     4  10  25  42  70 103 134 178 228 291 345 414
#     4  12  26  46  66 104 141 179 235 290 348 426
#     4  10  22  45  71 100 138 174 231 290 351 415
#     4  11  23  44  68 100 133 185 223 279 348 419
#
# _framework density 24.911667000000001
#
# number of rings (size 3 to 8) (size 9 to 14) (size 15 to 20)
#    0.000    1.091    3.636    1.636    3.818    5.818 
#    0.000    0.000    0.000    0.000    0.000    0.000 
#    0.000    0.000    0.000    0.000    0.000    0.000 
#
# Total GULP energy -122706.185275 kJ/mol
# GULP energy per Si atom -5577.553876 kJ/mol
# Density = 2.485497 g / cm^3
# Si number density = 24.911667 Si / 1000 Ang^3
#
#
#
# Elastic Constant Matrix: (Units=GPa)
#
#
# Indices 1 2 3 4 5 6 
#
# 1 42.9443 18.4277 12.8867 -0.0003 2.1400 0.0002
# 2 18.4277 104.9779 35.4586 0.0000 -8.0013 -0.0001
# 3 12.8867 35.4586 74.8131 -0.0005 2.9891 0.0000
# 4 -0.0003 0.0000 -0.0005 34.5872 0.0004 -10.2081
# 5 2.1400 -8.0013 2.9891 0.0004 38.8130 -0.0002
# 6 0.0002 -0.0001 0.0000 -10.2081 -0.0002 37.8587
#
#
#
# Elastic Compliance Matrix: (Units=1/GPa)
#
#
# Indices 1 2 3 4 5 6 
#
# 1 0.025791 -0.003819 -0.002552 0.000000 -0.002013 0.000000
# 2 -0.003819 0.012210 -0.005254 0.000000 0.003132 0.000000
# 3 -0.002552 -0.005254 0.016385 0.000000 -0.002204 0.000000
# 4 0.000000 0.000000 0.000000 0.031412 0.000000 0.008470
# 5 -0.002013 0.003132 -0.002204 0.000000 0.026691 0.000000
# 6 0.000000 0.000000 0.000000 0.008470 0.000000 0.028698
#
#
# Mechanical properties :
#
#
# Convention : Reuss Voigt Hill
#
# Bulk Modulus (GPa) = 32.11836 39.58678 35.85257
# Shear Modulus (GPa) = 28.60175 32.64928 30.62551
#
# Velocity S-wave (km/s) = 3.39208 3.62415 3.51003
# Velocity P-wave (km/s) = 5.31625 5.78256 5.55430
#
# Compressibility (1/GPa) = 0.03113484
#
# Stress axis : x y z
#
# Youngs Moduli (GPa) = 38.77361 81.90273 61.03267
#
# Poissons Ratio (x) = 0.31276 0.15577
# Poissons Ratio (y) = 0.14806 0.32068
# Poissons Ratio (z) = 0.09896 0.43034
#
# Static dielectric constant tensor:
#      x y z
#    x 2.016210 0.000000 0.011180 
#    y 0.000000 1.996530 0.000000 
#    z 0.011180 0.000000 2.111790 
# 
# From -- ./inp_files/226912.got.cif
#   From: 2010.05.17/outbox.cif.g08.bks.cpg/sg15_114_cif.got.tgz:226912.got - 2010.06.03 18:47:42.
