data_PCOD9293914
_publ_section_title
;
Structure prediction by ZEFSAII (Michael W. Deem and Ramdas Pophale) SiO2 
 PCOD9293914
Probable space group: C 2/C
;
_chemical_formula_sum "Si O2"
_cell_formula_units_Z 52
_cell_length_a 26.607294
_cell_length_b 7.483749
_cell_length_c 17.503273
_cell_angle_alpha 90.000000
_cell_angle_beta 143.142337
_cell_angle_gamma 90.000000
_cell_volume 2090.579857
_symmetry_space_group_name_H-M "C 2/C"
_symmetry_group_IT_number 15
_symmetry_cell_setting 'monoclinic'
loop_
_space_group_symop_operation_xyz
x,y,z
-x,y,1/2-z
-x,-y,-z
x,-y,1/2+z
1/2+x,1/2+y,z
1/2-x,1/2+y,1/2-z
1/2-x,1/2-y,-z
1/2+x,1/2-y,1/2+z
loop_
_atom_site_type_symbol
_atom_site_label
_atom_site_fract_x
_atom_site_fract_y
_atom_site_fract_z
Si Si1 0.500000 0.647567 0.750000
Si Si2 0.567191 0.440626 0.018745
Si Si3 0.206946 0.562167 0.810242
Si Si4 0.742053 0.665970 0.791463
Si Si5 0.105220 0.538674 0.425528
Si Si6 0.482722 0.067262 0.895229
Si Si7 0.882881 0.119628 0.085117
O O1 0.423098 0.797498 0.660843
O O2 0.561974 0.487950 0.787493
O O3 0.654821 0.432133 0.169348
O O4 0.500000 0.500000 0.000000
O O5 0.533875 0.248377 0.954057
O O6 0.590892 0.503232 0.960564
O O7 0.216611 0.674495 0.743098
O O8 0.218205 0.358850 0.795330
O O9 0.115843 0.586538 0.735268
O O10 0.282816 0.605282 0.959554
O O11 0.805583 0.568896 0.925872
O O12 0.098853 0.332800 0.389816
O O13 0.033832 0.562344 0.403333
O O14 0.500000 0.000000 0.000000
#
# Coordination Sequence:
#
# PCOD9293914 Si02
#       7
#     4   8   8   8   8   8   8
#     4  12  24  44  74  84 130 182 222 260 304 404
#     4  10  23  35  61  99 130 164 204 273 333 381
#     4  11  21  36  61  95 132 169 209 269 329 380
#     4  11  20  35  59  95 131 165 214 262 328 385
#     4  11  24  43  65  96 127 173 220 267 317 383
#     4  11  21  37  60  94 136 164 204 271 329 378
#     4  10  24  42  63  97 124 168 227 259 317 390
#
# _framework density 24.873483
#
# number of rings (size 3 to 8) (size 9 to 14) (size 15 to 20)
#    0.000    1.231    4.615    2.308    8.615    0.000 
#    0.000    0.769    3.385    2.769    0.000    0.000 
#    0.000    0.000    0.000    0.000    0.000    0.000 
#
# Total GULP energy -144796.170168 kJ/mol
# GULP energy per Si atom -5569.083468 kJ/mol
# Density = 2.481687 g / cm^3
# Si number density = 24.873483 Si / 1000 Ang^3
#
#
#
# Elastic Constant Matrix: (Units=GPa)
#
#
# Indices 1 2 3 4 5 6 
#
# 1 52.6697 -1.8559 3.1166 0.0000 10.3640 0.0000
# 2 -1.8559 124.0116 41.3765 0.0002 -1.2123 0.0001
# 3 3.1166 41.3765 205.5030 0.0000 30.6915 0.0000
# 4 0.0000 0.0002 0.0000 -28.9887 0.0000 18.1070
# 5 10.3640 -1.2123 30.6915 0.0000 34.4085 0.0000
# 6 0.0000 0.0001 0.0000 18.1070 0.0000 18.8655
#
#
#
# Elastic Compliance Matrix: (Units=1/GPa)
#
#
# Indices 1 2 3 4 5 6 
#
# 1 0.020269 0.000005 0.000696 0.000000 -0.006726 0.000000
# 2 0.000005 0.008784 -0.002093 0.000000 0.002175 0.000000
# 3 0.000696 -0.002093 0.006137 0.000000 -0.005757 0.000000
# 4 0.000000 0.000000 0.000000 -0.021567 0.000000 0.020700
# 5 -0.006726 0.002175 -0.005757 0.000000 0.036300 0.000000
# 6 0.000000 0.000000 0.000000 0.020700 0.000000 0.033139
#
#
# Mechanical properties :
#
#
# Convention : Reuss Voigt Hill
#
# Bulk Modulus (GPa) = 30.85944 51.93986 41.39965
# Shear Modulus (GPa) = 51.73410 27.49355 39.61382
#
# Velocity S-wave (km/s) = 4.56553 3.32827 3.99508
# Velocity P-wave (km/s) = 6.34236 5.97468 6.16126
#
# Compressibility (1/GPa) = 0.03240499
#
# Stress axis : x y z
#
# Youngs Moduli (GPa) = 49.33723 113.84878 162.94867
#
# Poissons Ratio (x) = -0.00061 -0.11341
# Poissons Ratio (y) = -0.00026 0.34112
# Poissons Ratio (z) = -0.03434 0.23834
#
# Static dielectric constant tensor:
#      x y z
#    x -2.611690 0.000000 4.402290 
#    y 0.000000 1.524920 0.000000 
#    z 4.402290 0.000000 -1.305570 
# 
# From -- ./inp_files/258878.got.cif
#   From: 2010.05.17/outbox.cif.g08.bks.cpg/sg15_130_cif.got.tgz:258878.got - 2010.06.03 18:47:42.
