data_PCOD9293901
_publ_section_title
;
Structure prediction by ZEFSAII (Michael W. Deem and Ramdas Pophale) SiO2 
 PCOD9293901
Probable space group: C 2/C
;
_chemical_formula_sum "Si O2"
_cell_formula_units_Z 48
_cell_length_a 12.195103
_cell_length_b 21.993170
_cell_length_c 8.338481
_cell_angle_alpha 90.000000
_cell_angle_beta 98.542266
_cell_angle_gamma 90.000000
_cell_volume 2211.645441
_symmetry_space_group_name_H-M "C 2/C"
_symmetry_group_IT_number 15
_symmetry_cell_setting 'monoclinic'
loop_
_space_group_symop_operation_xyz
x,y,z
-x,y,1/2-z
-x,-y,-z
x,-y,1/2+z
1/2+x,1/2+y,z
1/2-x,1/2+y,1/2-z
1/2-x,1/2-y,-z
1/2+x,1/2-y,1/2+z
loop_
_atom_site_type_symbol
_atom_site_label
_atom_site_fract_x
_atom_site_fract_y
_atom_site_fract_z
Si Si1 0.000000 0.764221 0.250000
Si Si2 0.606906 0.576792 0.052434
Si Si3 0.636104 0.441897 0.937164
Si Si4 0.778919 0.813071 0.097618
Si Si5 0.117202 0.578173 0.983668
Si Si6 0.500000 0.976167 0.750000
Si Si7 0.468438 0.194452 0.904982
O O1 0.116256 0.800316 0.265340
O O2 0.012700 0.727313 0.420014
O O3 0.473961 0.583949 0.001590
O O4 0.624376 0.567742 0.245038
O O5 0.639109 0.514180 0.971939
O O6 0.677250 0.633506 0.006989
O O7 0.752665 0.414184 0.013416
O O8 0.658160 0.828323 0.138534
O O9 0.750000 0.750000 0.000000
O O10 0.082254 0.563447 0.159274
O O11 0.074580 0.520077 0.875380
O O12 0.048453 0.636911 0.923080
O O13 0.500000 0.231731 0.750000
#
# Coordination Sequence:
#
# PCOD9293901 Si02
#       7
#     4   8   8   8   8   4   8
#     4  10  25  50  72  94 130 194 227 302 374 384
#     4  10  23  44  66 107 142 182 241 292 358 444
#     4  10  23  39  70 105 143 184 228 293 363 432
#     4  10  25  47  71  98 139 188 243 299 353 434
#     4  11  22  38  60  99 134 181 218 281 352 419
#     4  10  23  34  56  94 138 176 223 258 352 430
#     4  11  25  44  70 103 134 176 245 293 346 438
#
# _framework density 21.703299000000001
#
# number of rings (size 3 to 8) (size 9 to 14) (size 15 to 20)
#    0.000    1.667    0.833    1.500   11.667    6.000 
#   12.000    0.000    0.000    0.000    0.000    0.000 
#    0.000    0.000    0.000    0.000    0.000    0.000 
#
# Total GULP energy -134089.786061 kJ/mol
# GULP energy per Si atom -5587.074419 kJ/mol
# Density = 2.165390 g / cm^3
# Si number density = 21.703299 Si / 1000 Ang^3
#
#
#
# Elastic Constant Matrix: (Units=GPa)
#
#
# Indices 1 2 3 4 5 6 
#
# 1 214.4126 55.2630 53.8658 0.0000 18.9133 0.0000
# 2 55.2630 67.6746 34.3752 0.0000 -7.4389 0.0000
# 3 53.8658 34.3752 103.2236 0.0000 -7.7070 0.0000
# 4 0.0000 0.0000 0.0000 7.4416 0.0000 12.6588
# 5 18.9133 -7.4389 -7.7070 0.0000 38.3925 0.0000
# 6 0.0000 0.0000 0.0000 12.6588 0.0000 29.8859
#
#
#
# Elastic Compliance Matrix: (Units=1/GPa)
#
#
# Indices 1 2 3 4 5 6 
#
# 1 0.006983 -0.005059 -0.002324 0.000000 -0.004887 0.000000
# 2 -0.005059 0.021651 -0.004133 0.000000 0.005857 0.000000
# 3 -0.002324 -0.004133 0.012490 0.000000 0.002851 0.000000
# 4 0.000000 0.000000 0.000000 0.480839 0.000000 -0.203670
# 5 -0.004887 0.005857 0.002851 0.000000 0.030161 0.000000
# 6 0.000000 0.000000 0.000000 -0.203670 0.000000 0.119730
#
#
# Mechanical properties :
#
#
# Convention : Reuss Voigt Hill
#
# Bulk Modulus (GPa) = 55.27369 74.70210 64.98790
# Shear Modulus (GPa) = 7.13353 31.26446 19.19899
#
# Velocity S-wave (km/s) = 1.81493 3.79956 2.97747
# Velocity P-wave (km/s) = 5.46947 7.33098 6.46755
#
# Compressibility (1/GPa) = 0.01809179
#
# Stress axis : x y z
#
# Youngs Moduli (GPa) = 143.21267 46.18797 80.06613
#
# Poissons Ratio (x) = 0.23365 0.18607
# Poissons Ratio (y) = 0.72446 0.33091
# Poissons Ratio (z) = 0.33283 0.19089
#
# Static dielectric constant tensor:
#      x y z
#    x 1.791400 0.000000 -0.016650 
#    y 0.000000 1.784780 0.000000 
#    z -0.016650 0.000000 1.843520 
# 
# From -- ./inp_files/32188.got.cif
#   From: 2010.05.17/outbox.cif.g08.bks.cpg/sg15_17_cif.got.tgz:32188.got - 2010.06.03 18:47:42.
