data_PCOD9293747
_publ_section_title
;
Structure prediction by ZEFSAII (Michael W. Deem and Ramdas Pophale) SiO2 
 PCOD9293747
Probable space group: C 2/C
;
_chemical_formula_sum "Si O2"
_cell_formula_units_Z 52
_cell_length_a 12.815463
_cell_length_b 15.365558
_cell_length_c 15.197110
_cell_angle_alpha 90.000000
_cell_angle_beta 132.208114
_cell_angle_gamma 90.000000
_cell_volume 2216.621478
_symmetry_space_group_name_H-M "C 2/C"
_symmetry_group_IT_number 15
_symmetry_cell_setting 'monoclinic'
loop_
_space_group_symop_operation_xyz
x,y,z
-x,y,1/2-z
-x,-y,-z
x,-y,1/2+z
1/2+x,1/2+y,z
1/2-x,1/2+y,1/2-z
1/2-x,1/2-y,-z
1/2+x,1/2-y,1/2+z
loop_
_atom_site_type_symbol
_atom_site_label
_atom_site_fract_x
_atom_site_fract_y
_atom_site_fract_z
Si Si1 0.276981 0.289634 0.335058
Si Si2 0.500000 0.727491 0.250000
Si Si3 0.375080 0.073917 0.830325
Si Si4 0.083482 0.386598 0.578551
Si Si5 0.729582 0.527970 0.108189
Si Si6 0.879331 0.690929 0.111275
Si Si7 0.028469 0.897586 0.931951
O O1 0.138013 0.286116 0.316522
O O2 0.236774 0.347502 0.227807
O O3 0.306813 0.188570 0.339474
O O4 0.409287 0.336102 0.455211
O O5 0.486568 0.664211 0.159078
O O6 0.362960 0.984948 0.879197
O O7 0.345000 0.034244 0.717803
O O8 0.520442 0.115789 0.944503
O O9 0.959492 0.358073 0.575896
O O10 0.802394 0.614430 0.119364
O O11 0.611775 0.554836 0.113659
O O12 0.645327 0.473248 0.987570
O O13 0.000000 0.726502 0.250000
O O14 0.750000 0.750000 0.000000
#
# Coordination Sequence:
#
# PCOD9293747 Si02
#       7
#     8   4   8   8   8   8   8
#     4  11  24  42  67  98 141 179 229 298 368 424
#     4  12  24  38  64  98 130 170 236 282 350 436
#     4  10  23  42  71  97 133 187 232 298 361 432
#     4  11  24  43  70 104 137 185 247 293 362 444
#     4  10  22  47  66  96 139 183 234 294 368 424
#     4  12  27  45  72 108 149 194 247 301 367 442
#     4  10  23  42  68  96 135 180 227 296 355 432
#
# _framework density 23.459125
#
# number of rings (size 3 to 8) (size 9 to 14) (size 15 to 20)
#    0.000    1.231    1.538    3.231    2.154    6.154 
#    1.385    0.000    0.000    0.000    0.000    0.000 
#    0.000    0.000    0.000    0.000    0.000    0.000 
#
# Total GULP energy -145109.708837 kJ/mol
# GULP energy per Si atom -5581.142648 kJ/mol
# Density = 2.340573 g / cm^3
# Si number density = 23.459125 Si / 1000 Ang^3
#
#
#
# Elastic Constant Matrix: (Units=GPa)
#
#
# Indices 1 2 3 4 5 6 
#
# 1 61.7757 15.4052 30.8749 0.0000 12.1045 0.0000
# 2 15.4052 155.0747 73.8458 0.0000 7.4449 0.0000
# 3 30.8749 73.8458 147.3201 0.0000 4.6375 0.0000
# 4 0.0000 0.0000 0.0000 37.0178 0.0000 12.2151
# 5 12.1045 7.4449 4.6375 0.0000 17.7022 0.0000
# 6 0.0000 0.0000 0.0000 12.2151 0.0000 27.4122
#
#
#
# Elastic Compliance Matrix: (Units=1/GPa)
#
#
# Indices 1 2 3 4 5 6 
#
# 1 0.020768 0.000591 -0.004229 0.000000 -0.013342 0.000000
# 2 0.000591 0.008596 -0.004342 0.000000 -0.002882 0.000000
# 3 -0.004229 -0.004342 0.009783 0.000000 0.002155 0.000000
# 4 0.000000 0.000000 0.000000 0.031671 0.000000 -0.014113
# 5 -0.013342 -0.002882 0.002155 0.000000 0.066261 0.000000
# 6 0.000000 0.000000 0.000000 -0.014113 0.000000 0.042769
#
#
# Mechanical properties :
#
#
# Convention : Reuss Voigt Hill
#
# Bulk Modulus (GPa) = 43.12703 67.15806 55.14254
# Shear Modulus (GPa) = 24.56578 32.69606 28.63092
#
# Velocity S-wave (km/s) = 3.23952 3.73734 3.49730
# Velocity P-wave (km/s) = 5.69354 6.87848 6.31387
#
# Compressibility (1/GPa) = 0.02318732
#
# Stress axis : x y z
#
# Youngs Moduli (GPa) = 48.15124 116.33708 102.22042
#
# Poissons Ratio (x) = -0.06877 0.43227
# Poissons Ratio (y) = -0.02846 0.44383
# Poissons Ratio (z) = 0.20362 0.50512
#
# Static dielectric constant tensor:
#      x y z
#    x 1.935810 0.000000 0.024040 
#    y 0.000000 1.931530 0.000000 
#    z 0.024040 0.000000 1.966290 
# 
# From -- ./inp_files/205769.got.cif
#   From: 2010.05.17/outbox.cif.g08.bks.cpg/sg15_103_cif.got.tgz:205769.got - 2010.06.03 18:47:42.
