data_PCOD9293855
_publ_section_title
;
Structure prediction by ZEFSAII (Michael W. Deem and Ramdas Pophale) SiO2 
 PCOD9293855
Probable space group: C 2/C
;
_chemical_formula_sum "Si O2"
_cell_formula_units_Z 48
_cell_length_a 28.175624
_cell_length_b 11.291742
_cell_length_c 22.132132
_cell_angle_alpha 90.000000
_cell_angle_beta 163.425641
_cell_angle_gamma 90.000000
_cell_volume 2008.620140
_symmetry_space_group_name_H-M "C 2/C"
_symmetry_group_IT_number 15
_symmetry_cell_setting 'monoclinic'
loop_
_space_group_symop_operation_xyz
x,y,z
-x,y,1/2-z
-x,-y,-z
x,-y,1/2+z
1/2+x,1/2+y,z
1/2-x,1/2+y,1/2-z
1/2-x,1/2-y,-z
1/2+x,1/2-y,1/2+z
loop_
_atom_site_type_symbol
_atom_site_label
_atom_site_fract_x
_atom_site_fract_y
_atom_site_fract_z
Si Si1 0.666834 0.493328 0.802279
Si Si2 0.903061 0.411192 0.494801
Si Si3 0.327794 0.748829 0.295453
Si Si4 0.500000 0.500000 0.000000
Si Si5 0.068618 0.800616 0.269284
Si Si6 0.961461 0.665199 0.837247
Si Si7 0.000000 0.354872 0.250000
O O1 0.725812 0.539507 0.805541
O O2 0.501567 0.439314 0.573198
O O3 0.604974 0.588063 0.772773
O O4 0.834176 0.431279 0.030082
O O5 0.883416 0.358126 0.404869
O O6 0.029940 0.521040 0.653735
O O7 0.956837 0.303374 0.603804
O O8 0.436559 0.635378 0.447138
O O9 0.142386 0.703405 0.080741
O O10 0.336469 0.787209 0.235214
O O11 0.250000 0.750000 0.500000
O O12 0.000000 0.836385 0.250000
O O13 0.948599 0.705880 0.751107
#
# Coordination Sequence:
#
# PCOD9293855 Si02
#       7
#     8   8   8   4   8   8   4
#     4  11  22  44  66 101 134 182 225 286 343 411
#     4  11  23  44  70  97 139 178 226 286 356 411
#     4  12  25  45  70 104 136 180 239 287 344 414
#     4  12  22  44  70  96 136 178 230 284 340 398
#     4  12  23  37  66 102 136 177 225 282 350 412
#     4  11  26  44  72  99 139 183 232 283 350 420
#     4  10  22  48  74  90 148 190 222 280 362 418
#
# _framework density 23.897000999999999
#
# number of rings (size 3 to 8) (size 9 to 14) (size 15 to 20)
#    0.000    0.667    6.667    3.500    1.167    0.667 
#    0.000    3.333    0.000    0.000    0.000    0.000 
#    0.000    0.000    0.000    0.000    0.000    0.000 
#
# Total GULP energy -133662.488602 kJ/mol
# GULP energy per Si atom -5569.270358 kJ/mol
# Density = 2.384261 g / cm^3
# Si number density = 23.897001 Si / 1000 Ang^3
#
#
#
# Elastic Constant Matrix: (Units=GPa)
#
#
# Indices 1 2 3 4 5 6 
#
# 1 131.9546 31.0664 15.4683 0.0009 -15.4522 0.0005
# 2 31.0664 72.5139 8.4147 0.0009 8.5231 0.0007
# 3 15.4683 8.4147 87.5896 0.0012 -12.8845 0.0007
# 4 0.0009 0.0009 0.0012 33.6149 0.0009 -7.8084
# 5 -15.4522 8.5231 -12.8845 0.0009 40.0251 0.0006
# 6 0.0005 0.0007 0.0007 -7.8084 0.0006 53.0540
#
#
#
# Elastic Compliance Matrix: (Units=1/GPa)
#
#
# Indices 1 2 3 4 5 6 
#
# 1 0.009176 -0.004369 -0.000570 0.000000 0.004290 0.000000
# 2 -0.004369 0.016530 -0.001661 0.000000 -0.005741 0.000000
# 3 -0.000570 -0.001661 0.012278 -0.000001 0.004086 0.000000
# 4 0.000000 0.000000 -0.000001 0.030802 -0.000001 0.004533
# 5 0.004290 -0.005741 0.004086 -0.000001 0.029178 -0.000001
# 6 0.000000 0.000000 0.000000 0.004533 -0.000001 0.019516
#
#
# Mechanical properties :
#
#
# Convention : Reuss Voigt Hill
#
# Bulk Modulus (GPa) = 40.34834 44.66187 42.50510
# Shear Modulus (GPa) = 35.98632 41.14607 38.56619
#
# Velocity S-wave (km/s) = 3.88479 4.15397 4.02163
# Velocity P-wave (km/s) = 6.08630 6.46043 6.27616
#
# Compressibility (1/GPa) = 0.02478417
#
# Stress axis : x y z
#
# Youngs Moduli (GPa) = 108.97822 60.49627 81.44546
#
# Poissons Ratio (x) = 0.26433 0.04640
# Poissons Ratio (y) = 0.47616 0.13528
# Poissons Ratio (z) = 0.06209 0.10048
#
# Static dielectric constant tensor:
#      x y z
#    x 1.797730 0.000000 -0.397280 
#    y 0.000000 1.766850 0.000000 
#    z -0.397280 0.000000 1.500900 
# 
# From -- ./inp_files/257669.got.cif
#   From: 2010.05.17/outbox.cif.g08.bks.cpg/sg15_129_cif.got.tgz:257669.got - 2010.06.03 18:47:42.
