data_PCOD9293483
_publ_section_title
;
Structure prediction by ZEFSAII (Michael W. Deem and Ramdas Pophale) SiO2 
 PCOD9293483
Probable space group: C 2/C
;
_chemical_formula_sum "Si O2"
_cell_formula_units_Z 48
_cell_length_a 25.596008
_cell_length_b 6.565407
_cell_length_c 14.044052
_cell_angle_alpha 90.000000
_cell_angle_beta 108.028430
_cell_angle_gamma 90.000000
_cell_volume 2244.205217
_symmetry_space_group_name_H-M "C 2/C"
_symmetry_group_IT_number 15
_symmetry_cell_setting 'monoclinic'
loop_
_space_group_symop_operation_xyz
x,y,z
-x,y,1/2-z
-x,-y,-z
x,-y,1/2+z
1/2+x,1/2+y,z
1/2-x,1/2+y,1/2-z
1/2-x,1/2-y,-z
1/2+x,1/2-y,1/2+z
loop_
_atom_site_type_symbol
_atom_site_label
_atom_site_fract_x
_atom_site_fract_y
_atom_site_fract_z
Si Si1 0.559836 0.837814 0.240787
Si Si2 0.814637 0.540802 0.870079
Si Si3 0.367108 0.710546 0.038059
Si Si4 0.711886 0.591283 0.925373
Si Si5 0.389675 0.581122 0.392386
Si Si6 0.369196 0.203294 0.244368
O O1 0.500000 0.810238 0.250000
O O2 0.602758 0.763088 0.346313
O O3 0.568332 0.721140 0.144908
O O4 0.575505 0.074433 0.234347
O O5 0.750736 0.526656 0.859633
O O6 0.838807 0.768392 0.884717
O O7 0.827170 0.447802 0.773901
O O8 0.851118 0.405799 0.964784
O O9 0.309507 0.601762 0.029720
O O10 0.402041 0.546658 0.995294
O O11 0.657785 0.716264 0.866230
O O12 0.750000 0.750000 0.000000
O O13 0.375080 0.401723 0.311653
#
# Coordination Sequence:
#
# PCOD9293483 Si02
#       6
#     8   8   8   8   8   8
#     4  11  25  45  69  93 127 175 223 282 338 381
#     4  10  23  38  65  96 137 171 213 261 331 389
#     4  11  23  42  67  98 138 168 222 275 313 405
#     4  12  22  37  66  96 133 180 209 253 330 393
#     4  10  22  46  64 100 131 171 220 276 328 394
#     4  10  24  41  61  96 133 167 222 273 315 403
#
# _framework density 21.38842
#
# number of rings (size 3 to 8) (size 9 to 14) (size 15 to 20)
#    0.000    1.333    3.333    1.500    2.333    1.333 
#    0.000    7.500    0.000    0.000    0.000    0.000 
#    0.000    0.000    0.000    0.000    0.000    0.000 
#
# Total GULP energy -133983.582243 kJ/mol
# GULP energy per Si atom -5582.649260 kJ/mol
# Density = 2.133974 g / cm^3
# Si number density = 21.388420 Si / 1000 Ang^3
#
#
#
# Elastic Constant Matrix: (Units=GPa)
#
#
# Indices 1 2 3 4 5 6 
#
# 1 104.8961 24.0674 1.3594 0.0000 -17.4752 0.0000
# 2 24.0674 114.5130 20.8522 0.0000 -5.2990 0.0000
# 3 1.3594 20.8522 43.1641 0.0000 -12.3323 0.0000
# 4 0.0000 0.0000 0.0000 35.8181 0.0000 -13.5467
# 5 -17.4752 -5.2990 -12.3323 0.0000 20.5029 0.0000
# 6 0.0000 0.0000 0.0000 -13.5467 0.0000 24.8650
#
#
#
# Elastic Compliance Matrix: (Units=1/GPa)
#
#
# Indices 1 2 3 4 5 6 
#
# 1 0.012179 -0.002808 0.004506 0.000000 0.012365 0.000000
# 2 -0.002808 0.010225 -0.005772 0.000000 -0.003222 0.000000
# 3 0.004506 -0.005772 0.031981 0.000000 0.021585 0.000000
# 4 0.000000 0.000000 0.000000 0.035165 0.000000 0.019158
# 5 0.012365 -0.003222 0.021585 0.000000 0.071463 0.000000
# 6 0.000000 0.000000 0.000000 0.019158 0.000000 0.050655
#
#
# Mechanical properties :
#
#
# Convention : Reuss Voigt Hill
#
# Bulk Modulus (GPa) = 21.62789 39.45900 30.54344
# Shear Modulus (GPa) = 21.25609 30.65682 25.95645
#
# Velocity S-wave (km/s) = 3.15590 3.79005 3.48742
# Velocity P-wave (km/s) = 4.83875 6.13526 5.52517
#
# Compressibility (1/GPa) = 0.04623660
#
# Stress axis : x y z
#
# Youngs Moduli (GPa) = 82.10803 97.80272 31.26889
#
# Poissons Ratio (x) = 0.27463 -0.14089
# Poissons Ratio (y) = 0.23056 0.18047
# Poissons Ratio (z) = -0.36996 0.56448
#
# Static dielectric constant tensor:
#      x y z
#    x 1.802380 0.000000 -0.068190 
#    y 0.000000 1.810800 0.000000 
#    z -0.068190 0.000000 1.806840 
# 
# From -- ./inp_files/217794.got.cif
#   From: 2010.05.17/outbox.cif.g08.bks.cpg/sg15_109_cif.got.tgz:217794.got - 2010.06.03 18:47:42.
