data_PCOD9293889
_publ_section_title
;
Structure prediction by ZEFSAII (Michael W. Deem and Ramdas Pophale) SiO2 
 PCOD9293889
Probable space group: C 2/C
;
_chemical_formula_sum "Si O2"
_cell_formula_units_Z 60
_cell_length_a 8.469244
_cell_length_b 12.303537
_cell_length_c 27.676948
_cell_angle_alpha 90.000000
_cell_angle_beta 118.428618
_cell_angle_gamma 90.000000
_cell_volume 2536.206822
_symmetry_space_group_name_H-M "C 2/C"
_symmetry_group_IT_number 15
_symmetry_cell_setting 'monoclinic'
loop_
_space_group_symop_operation_xyz
x,y,z
-x,y,1/2-z
-x,-y,-z
x,-y,1/2+z
1/2+x,1/2+y,z
1/2-x,1/2+y,1/2-z
1/2-x,1/2-y,-z
1/2+x,1/2-y,1/2+z
loop_
_atom_site_type_symbol
_atom_site_label
_atom_site_fract_x
_atom_site_fract_y
_atom_site_fract_z
Si Si1 0.398730 0.694757 0.989705
Si Si2 0.786347 0.449370 0.773195
Si Si3 0.500000 0.135492 0.750000
Si Si4 0.415284 0.164835 0.124147
Si Si5 0.442745 0.343460 0.681997
Si Si6 0.521582 0.382840 0.092723
Si Si7 0.618280 0.094830 0.491263
Si Si8 0.952142 0.113041 0.397901
O O1 0.346803 0.640057 0.932558
O O2 0.538296 0.789048 0.996117
O O3 0.250000 0.750000 0.000000
O O4 0.477414 0.606557 0.037554
O O5 0.652861 0.376638 0.720557
O O6 0.669327 0.437336 0.806434
O O7 0.855062 0.559234 0.756998
O O8 0.968131 0.394545 0.818507
O O9 0.415531 0.224139 0.700463
O O10 0.503809 0.278517 0.123163
O O11 0.395159 0.099267 0.069715
O O12 0.222972 0.184306 0.120322
O O13 0.407779 0.341673 0.620163
O O14 0.586569 0.492533 0.126136
O O15 0.321410 0.404556 0.041191
O O16 0.500000 0.000000 0.500000
#
# Coordination Sequence:
#
# PCOD9293889 Si02
#       8
#     8   8   4   8   8   8   8   8
#     4  11  23  40  63  98 139 185 233 278 330 413
#     4  10  23  46  71  97 132 172 222 283 347 409
#     4  10  22  50  74  94 136 174 216 292 352 404
#     4  11  24  42  68 100 137 181 233 276 343 414
#     4  10  27  46  70 109 134 167 240 286 338 435
#     4  11  24  44  64 100 144 186 228 285 338 406
#     4  11  23  41  64  97 144 187 229 283 336 411
#     4  12  24  42  68  98 138 180 228 279 348 408
#
# _framework density 23.657378000000001
#
# number of rings (size 3 to 8) (size 9 to 14) (size 15 to 20)
#    0.000    1.333    2.667    2.800    7.467    6.400 
#    0.000    8.000    0.000    0.000    0.000    0.000 
#    0.000    0.000    0.000    0.000    0.000    0.000 
#
# Total GULP energy -167425.896709 kJ/mol
# GULP energy per Si atom -5580.863224 kJ/mol
# Density = 2.360353 g / cm^3
# Si number density = 23.657378 Si / 1000 Ang^3
#
#
#
# Elastic Constant Matrix: (Units=GPa)
#
#
# Indices 1 2 3 4 5 6 
#
# 1 97.6288 38.4084 16.7177 0.0000 -25.2580 0.0000
# 2 38.4084 136.7930 36.8426 0.0000 -25.8795 0.0000
# 3 16.7177 36.8426 61.5501 0.0000 -20.6932 0.0000
# 4 0.0000 0.0000 0.0000 24.0199 0.0000 -9.6323
# 5 -25.2580 -25.8795 -20.6932 0.0000 39.7169 0.0000
# 6 0.0000 0.0000 0.0000 -9.6323 0.0000 46.2680
#
#
#
# Elastic Compliance Matrix: (Units=1/GPa)
#
#
# Indices 1 2 3 4 5 6 
#
# 1 0.012897 -0.002399 0.000200 0.000000 0.006743 0.000000
# 2 -0.002399 0.009605 -0.004251 0.000000 0.002518 0.000000
# 3 0.000200 -0.004251 0.021639 0.000000 0.008632 0.000000
# 4 0.000000 0.000000 0.000000 0.045424 0.000000 0.009457
# 5 0.006743 0.002518 0.008632 0.000000 0.035604 0.000000
# 6 0.000000 0.000000 0.000000 0.009457 0.000000 0.023582
#
#
# Mechanical properties :
#
#
# Convention : Reuss Voigt Hill
#
# Bulk Modulus (GPa) = 32.00977 53.32325 42.66651
# Shear Modulus (GPa) = 29.05848 35.60118 32.32983
#
# Velocity S-wave (km/s) = 3.50852 3.88347 3.70075
# Velocity P-wave (km/s) = 5.47475 6.53431 6.02785
#
# Compressibility (1/GPa) = 0.03124046
#
# Stress axis : x y z
#
# Youngs Moduli (GPa) = 77.53734 104.10810 46.21226
#
# Poissons Ratio (x) = 0.24981 -0.00925
# Poissons Ratio (y) = 0.18605 0.19646
# Poissons Ratio (z) = -0.01552 0.44260
#
# Static dielectric constant tensor:
#      x y z
#    x 1.976690 0.000000 0.035560 
#    y 0.000000 1.891340 0.000000 
#    z 0.035560 0.000000 2.002780 
# 
# From -- ./inp_files/307525.got.cif
#   From: 2010.05.17/outbox.cif.g08.bks.cpg/sg15_154_cif.got.tgz:307525.got - 2010.06.03 18:47:42.
