data_PCOD9293772
_publ_section_title
;
Structure prediction by ZEFSAII (Michael W. Deem and Ramdas Pophale) SiO2 
 PCOD9293772
Probable space group: C 2/C
;
_chemical_formula_sum "Si O2"
_cell_formula_units_Z 40
_cell_length_a 28.077654
_cell_length_b 5.753733
_cell_length_c 10.003403
_cell_angle_alpha 90.000000
_cell_angle_beta 78.031016
_cell_angle_gamma 90.000000
_cell_volume 1580.929804
_symmetry_space_group_name_H-M "C 2/C"
_symmetry_group_IT_number 15
_symmetry_cell_setting 'monoclinic'
loop_
_space_group_symop_operation_xyz
x,y,z
-x,y,1/2-z
-x,-y,-z
x,-y,1/2+z
1/2+x,1/2+y,z
1/2-x,1/2+y,1/2-z
1/2-x,1/2-y,-z
1/2+x,1/2-y,1/2+z
loop_
_atom_site_type_symbol
_atom_site_label
_atom_site_fract_x
_atom_site_fract_y
_atom_site_fract_z
Si Si1 0.555049 0.762076 0.417303
Si Si2 0.963763 0.241993 0.646907
Si Si3 0.716534 0.089273 0.426645
Si Si4 0.814762 0.045757 0.745121
Si Si5 0.353508 0.272903 0.477293
O O1 0.498459 0.754581 0.494634
O O2 0.563803 0.505744 0.348508
O O3 0.590762 0.775793 0.524241
O O4 0.562678 0.006050 0.335050
O O5 0.000000 0.226653 0.750000
O O6 0.750000 0.250000 0.500000
O O7 0.680857 0.225376 0.348241
O O8 0.757852 0.959603 0.317070
O O9 0.682009 0.937019 0.540079
O O10 0.831130 0.848696 0.633034
O O11 0.844369 0.045657 0.865106
#
# Coordination Sequence:
#
# PCOD9293772 Si02
#       5
#     8   8   8   8   8
#     4  10  25  43  69 106 138 181 239 291 359 440
#     4  10  22  47  71 100 142 184 225 296 373 429
#     4  12  24  45  68  98 143 188 241 293 366 423
#     4  12  25  45  66 100 141 184 236 299 359 423
#     4  12  28  42  71 106 135 192 241 299 358 432
#
# _framework density 25.301566999999999
#
# number of rings (size 3 to 8) (size 9 to 14) (size 15 to 20)
#    0.000    0.800    4.000    2.400    5.600    0.000 
#    0.000    0.000    0.000    0.000    0.000    0.000 
#    0.000    0.000    0.000    0.000    0.000    0.000 
#
# Total GULP energy -111785.953017 kJ/mol
# GULP energy per Si atom -5589.297651 kJ/mol
# Density = 2.524398 g / cm^3
# Si number density = 25.301567 Si / 1000 Ang^3
#
#
#
# Elastic Constant Matrix: (Units=GPa)
#
#
# Indices 1 2 3 4 5 6 
#
# 1 97.5712 31.4350 12.9011 0.0000 6.4123 0.0000
# 2 31.4350 161.7527 34.0679 0.0000 15.8377 0.0000
# 3 12.9011 34.0679 90.9272 0.0000 25.3260 0.0000
# 4 0.0000 0.0000 0.0000 33.9959 0.0000 19.9592
# 5 6.4123 15.8377 25.3260 0.0000 48.1423 0.0000
# 6 0.0000 0.0000 0.0000 19.9592 0.0000 20.1440
#
#
#
# Elastic Compliance Matrix: (Units=1/GPa)
#
#
# Indices 1 2 3 4 5 6 
#
# 1 0.010998 -0.001944 -0.000706 0.000000 -0.000454 0.000000
# 2 -0.001944 0.007100 -0.002116 0.000000 -0.000964 0.000000
# 3 -0.000706 -0.002116 0.013674 0.000000 -0.006403 0.000000
# 4 0.000000 0.000000 0.000000 0.070325 0.000000 -0.069680
# 5 -0.000454 -0.000964 -0.006403 0.000000 0.024518 0.000000
# 6 0.000000 0.000000 0.000000 -0.069680 0.000000 0.118684
#
#
# Mechanical properties :
#
#
# Convention : Reuss Voigt Hill
#
# Bulk Modulus (GPa) = 44.96154 56.33991 50.65072
# Shear Modulus (GPa) = 19.06616 38.57958 28.82287
#
# Velocity S-wave (km/s) = 2.74808 3.90909 3.37883
# Velocity P-wave (km/s) = 5.27997 6.53379 5.94005
#
# Compressibility (1/GPa) = 0.02224123
#
# Stress axis : x y z
#
# Youngs Moduli (GPa) = 90.92156 140.84189 73.13013
#
# Poissons Ratio (x) = 0.27385 0.05159
# Poissons Ratio (y) = 0.17679 0.15474
# Poissons Ratio (z) = 0.06415 0.29801
#
# Static dielectric constant tensor:
#      x y z
#    x 1.978170 0.000000 -0.056250 
#    y 0.000000 2.093310 0.000000 
#    z -0.056250 0.000000 1.997370 
# 
# From -- ./inp_files/120888.got.cif
#   From: 2010.05.17/outbox.cif.g08.bks.cpg/sg15_61_cif.got.tgz:120888.got - 2010.06.03 18:47:42.
