data_PCOD9293251
_publ_section_title
;
Structure prediction by ZEFSAII (Michael W. Deem and Ramdas Pophale) SiO2 
 PCOD9293251
Probable space group: C 2/C
;
_chemical_formula_sum "Si O2"
_cell_formula_units_Z 44
_cell_length_a 22.223591
_cell_length_b 10.244188
_cell_length_c 14.111531
_cell_angle_alpha 90.000000
_cell_angle_beta 142.805026
_cell_angle_gamma 90.000000
_cell_volume 1942.152026
_symmetry_space_group_name_H-M "C 2/C"
_symmetry_group_IT_number 15
_symmetry_cell_setting 'monoclinic'
loop_
_space_group_symop_operation_xyz
x,y,z
-x,y,1/2-z
-x,-y,-z
x,-y,1/2+z
1/2+x,1/2+y,z
1/2-x,1/2+y,1/2-z
1/2-x,1/2-y,-z
1/2+x,1/2-y,1/2+z
loop_
_atom_site_type_symbol
_atom_site_label
_atom_site_fract_x
_atom_site_fract_y
_atom_site_fract_z
Si Si1 0.971153 0.553684 0.569100
Si Si2 0.744163 0.764512 0.154294
Si Si3 0.300039 0.392206 0.561258
Si Si4 0.000000 0.785750 0.750000
Si Si5 0.767543 0.036248 0.230471
Si Si6 0.859289 0.616024 0.155919
O O1 0.002119 0.690546 0.659254
O O2 0.852184 0.555690 0.429256
O O3 0.000000 0.500000 0.500000
O O4 0.034264 0.447181 0.705204
O O5 0.774967 0.882946 0.261199
O O6 0.698406 0.644210 0.153096
O O7 0.840212 0.716781 0.216627
O O8 0.779146 0.499253 0.074007
O O9 0.250000 0.250000 0.500000
O O10 0.401886 0.374264 0.632688
O O11 0.317152 0.435978 0.691462
O O12 0.671417 0.817728 0.981140
#
# Coordination Sequence:
#
# PCOD9293251 Si02
#       6
#     8   8   8   4   8   8
#     4  12  23  40  69 107 138 193 248 294 347 456
#     4  10  23  41  68 101 141 187 236 299 363 430
#     4  11  22  40  68  99 141 181 238 300 360 426
#     4  12  24  42  68 108 144 184 248 298 364 432
#     4  11  24  41  70 105 139 189 243 297 366 437
#     4  10  22  45  67 100 147 191 236 297 374 430
#
# _framework density 22.655280000000001
#
# number of rings (size 3 to 8) (size 9 to 14) (size 15 to 20)
#    0.000    1.091    5.455    1.091    5.091    0.000 
#    0.000    5.455    0.000    6.545    0.000    0.000 
#    0.000    0.000    0.000    0.000    0.000    0.000 
#
# Total GULP energy -122833.663597 kJ/mol
# GULP energy per Si atom -5583.348345 kJ/mol
# Density = 2.260372 g / cm^3
# Si number density = 22.655280 Si / 1000 Ang^3
#
#
#
# Elastic Constant Matrix: (Units=GPa)
#
#
# Indices 1 2 3 4 5 6 
#
# 1 89.9871 25.0981 38.6877 0.0000 -8.2539 0.0000
# 2 25.0981 120.8881 36.1232 0.0000 -18.7329 0.0000
# 3 38.6877 36.1232 63.5611 0.0000 2.2837 0.0000
# 4 0.0000 0.0000 0.0000 10.1268 0.0000 -13.3913
# 5 -8.2539 -18.7329 2.2837 0.0000 38.7271 0.0000
# 6 0.0000 0.0000 0.0000 -13.3913 0.0000 55.9479
#
#
#
# Elastic Compliance Matrix: (Units=1/GPa)
#
#
# Indices 1 2 3 4 5 6 
#
# 1 0.015627 0.000328 -0.009844 0.000000 0.004070 0.000000
# 2 0.000328 0.011121 -0.006730 0.000000 0.005846 0.000000
# 3 -0.009844 -0.006730 0.025796 0.000000 -0.006875 0.000000
# 4 0.000000 0.000000 0.000000 0.144476 0.000000 0.034581
# 5 0.004070 0.005846 -0.006875 0.000000 0.029922 0.000000
# 6 0.000000 0.000000 0.000000 0.034581 0.000000 0.026151
#
#
# Mechanical properties :
#
#
# Convention : Reuss Voigt Hill
#
# Bulk Modulus (GPa) = 49.87054 52.69491 51.28273
# Shear Modulus (GPa) = 17.10753 32.59553 24.85153
#
# Velocity S-wave (km/s) = 2.75093 3.79722 3.31560
# Velocity P-wave (km/s) = 5.67016 6.52189 6.11088
#
# Compressibility (1/GPa) = 0.02005192
#
# Stress axis : x y z
#
# Youngs Moduli (GPa) = 63.99289 89.92041 38.76514
#
# Poissons Ratio (x) = -0.02948 0.38161
# Poissons Ratio (y) = -0.02098 0.26088
# Poissons Ratio (z) = 0.62995 0.60515
#
# Static dielectric constant tensor:
#      x y z
#    x 1.874350 0.000000 -0.077760 
#    y 0.000000 1.876370 0.000000 
#    z -0.077760 0.000000 1.906780 
# 
# From -- ./inp_files/172092.got.cif
#   From: 2010.05.17/outbox.cif.g08.bks.cpg/sg15_87_cif.got.tgz:172092.got - 2010.06.03 18:47:42.
