data_PCOD9293236
_publ_section_title
;
Structure prediction by ZEFSAII (Michael W. Deem and Ramdas Pophale) SiO2 
 PCOD9293236
Probable space group: C 2/C
;
_chemical_formula_sum "Si O2"
_cell_formula_units_Z 56
_cell_length_a 6.727884
_cell_length_b 23.716818
_cell_length_c 18.728585
_cell_angle_alpha 90.000000
_cell_angle_beta 104.058397
_cell_angle_gamma 90.000000
_cell_volume 2898.901093
_symmetry_space_group_name_H-M "C 2/C"
_symmetry_group_IT_number 15
_symmetry_cell_setting 'monoclinic'
loop_
_space_group_symop_operation_xyz
x,y,z
-x,y,1/2-z
-x,-y,-z
x,-y,1/2+z
1/2+x,1/2+y,z
1/2-x,1/2+y,1/2-z
1/2-x,1/2-y,-z
1/2+x,1/2-y,1/2+z
loop_
_atom_site_type_symbol
_atom_site_label
_atom_site_fract_x
_atom_site_fract_y
_atom_site_fract_z
Si Si1 0.500000 0.109383 0.750000
Si Si2 0.898295 0.770297 0.075707
Si Si3 0.432866 0.946957 0.090571
Si Si4 0.346037 0.072259 0.035682
Si Si5 0.263851 0.292429 0.210299
Si Si6 0.676356 0.162268 0.113808
Si Si7 0.083977 0.135239 0.503758
Si Si8 0.500000 0.306724 0.750000
O O1 0.524079 0.072286 0.824224
O O2 0.318319 0.153773 0.753395
O O3 0.762210 0.798816 0.125115
O O4 0.035069 0.717331 0.111797
O O5 0.048501 0.817339 0.059277
O O6 0.750000 0.750000 0.000000
O O7 0.245738 0.909297 0.046601
O O8 0.365848 0.011746 0.075091
O O9 0.609898 0.936194 0.045788
O O10 0.523717 0.111124 0.084644
O O11 0.130598 0.103513 0.028734
O O12 0.500000 0.283115 0.250000
O O13 0.129023 0.237137 0.213264
O O14 0.833452 0.157424 0.192750
O O15 0.821826 0.165459 0.057211
#
# Coordination Sequence:
#
# PCOD9293236 Si02
#       8
#     4   8   8   8   8   8   8   4
#     4  11  24  40  62  98 122 166 216 269 332 378
#     4  12  22  38  64  96 128 167 209 258 321 394
#     4  10  23  42  67  91 128 165 220 279 321 382
#     4  10  22  45  66  91 125 171 220 269 326 379
#     4  11  23  40  59  88 131 167 201 255 328 383
#     4  11  24  40  61  96 126 170 211 257 318 393
#     4  11  22  39  67  94 123 167 216 266 316 382
#     4  11  24  40  58  88 134 168 202 251 320 390
#
# _framework density 19.317664000000001
#
# number of rings (size 3 to 8) (size 9 to 14) (size 15 to 20)
#    0.000    1.143    2.857    3.429    4.000    0.000 
#    2.571    0.000    0.000    0.000    0.000    0.000 
#    0.000    0.000    0.000    0.000    0.000    0.000 
#
# Total GULP energy -156342.914123 kJ/mol
# GULP energy per Si atom -5583.675504 kJ/mol
# Density = 1.927370 g / cm^3
# Si number density = 19.317664 Si / 1000 Ang^3
#
#
#
# Elastic Constant Matrix: (Units=GPa)
#
#
# Indices 1 2 3 4 5 6 
#
# 1 57.6783 3.7300 27.8624 0.0000 -1.1837 0.0000
# 2 3.7300 85.2492 27.2716 0.0000 -9.8790 0.0000
# 3 27.8624 27.2716 103.3672 0.0000 -4.6814 0.0000
# 4 0.0000 0.0000 0.0000 24.5221 0.0000 -12.0934
# 5 -1.1837 -9.8790 -4.6814 0.0000 32.8151 0.0000
# 6 0.0000 0.0000 0.0000 -12.0934 0.0000 10.0193
#
#
#
# Elastic Compliance Matrix: (Units=1/GPa)
#
#
# Indices 1 2 3 4 5 6 
#
# 1 0.020001 0.000950 -0.005633 0.000000 0.000204 0.000000
# 2 0.000950 0.013244 -0.003592 0.000000 0.003509 0.000000
# 3 -0.005633 -0.003592 0.012161 0.000000 0.000450 0.000000
# 4 0.000000 0.000000 0.000000 0.100752 0.000000 0.121609
# 5 0.000204 0.003509 0.000450 0.000000 0.031602 0.000000
# 6 0.000000 0.000000 0.000000 0.121609 0.000000 0.246590
#
#
# Mechanical properties :
#
#
# Convention : Reuss Voigt Hill
#
# Bulk Modulus (GPa) = 34.65206 40.44698 37.54952
# Shear Modulus (GPa) = 11.09835 25.96670 18.53253
#
# Velocity S-wave (km/s) = 2.39951 3.67030 3.10071
# Velocity P-wave (km/s) = 5.06496 6.24058 5.68325
#
# Compressibility (1/GPa) = 0.02885831
#
# Stress axis : x y z
#
# Youngs Moduli (GPa) = 49.99679 75.50406 82.23327
#
# Poissons Ratio (x) = -0.07176 0.46321
# Poissons Ratio (y) = -0.04752 0.29534
# Poissons Ratio (z) = 0.28162 0.27118
#
# Static dielectric constant tensor:
#      x y z
#    x 1.802350 0.000000 0.165880 
#    y 0.000000 1.664740 0.000000 
#    z 0.165880 0.000000 2.027770 
# 
# From -- ./inp_files/227945.got.cif
#   From: 2010.05.17/outbox.cif.g08.bks.cpg/sg15_114_cif.got.tgz:227945.got - 2010.06.03 18:47:42.
