data_PCOD9293742
_publ_section_title
;
Structure prediction by ZEFSAII (Michael W. Deem and Ramdas Pophale) SiO2 
 PCOD9293742
Probable space group: C 2/C
;
_chemical_formula_sum "Si O2"
_cell_formula_units_Z 60
_cell_length_a 21.765673
_cell_length_b 5.391821
_cell_length_c 26.516803
_cell_angle_alpha 90.000000
_cell_angle_beta 108.751920
_cell_angle_gamma 90.000000
_cell_volume 2946.739352
_symmetry_space_group_name_H-M "C 2/C"
_symmetry_group_IT_number 15
_symmetry_cell_setting 'monoclinic'
loop_
_space_group_symop_operation_xyz
x,y,z
-x,y,1/2-z
-x,-y,-z
x,-y,1/2+z
1/2+x,1/2+y,z
1/2-x,1/2+y,1/2-z
1/2-x,1/2-y,-z
1/2+x,1/2-y,1/2+z
loop_
_atom_site_type_symbol
_atom_site_label
_atom_site_fract_x
_atom_site_fract_y
_atom_site_fract_z
Si Si1 0.342064 0.521599 0.862030
Si Si2 0.455151 0.450618 0.818049
Si Si3 0.156349 0.254065 0.272805
Si Si4 0.184592 0.006016 0.527869
Si Si5 0.780406 0.479166 0.299490
Si Si6 0.500000 0.173675 0.250000
Si Si7 0.833979 0.511613 0.038752
Si Si8 0.917563 0.649917 0.651760
O O1 0.413931 0.517111 0.856324
O O2 0.340120 0.512739 0.921672
O O3 0.308888 0.777069 0.834526
O O4 0.306422 0.270158 0.833116
O O5 0.410758 0.253965 0.776084
O O6 0.457764 0.661494 0.776599
O O7 0.528049 0.356074 0.846652
O O8 0.195363 0.461391 0.251945
O O9 0.203132 0.017099 0.278477
O O10 0.141319 0.263759 0.327911
O O11 0.159070 0.764058 0.491229
O O12 0.263061 0.981562 0.546521
O O13 0.166701 0.263708 0.495619
O O14 0.545140 0.029184 0.300318
O O15 0.889041 0.479117 0.095252
#
# Coordination Sequence:
#
# PCOD9293742 Si02
#       8
#     8   8   8   8   8   4   8   8
#     4  11  24  43  68  94 134 171 223 276 337 390
#     4  11  24  40  61  94 131 182 218 263 321 393
#     4  11  21  42  58  95 140 167 222 270 321 406
#     4  10  22  47  66 100 124 168 214 297 333 383
#     4  11  24  38  65  99 131 178 213 268 342 392
#     4  12  22  42  66  92 140 182 226 260 320 394
#     4  10  24  41  72  94 130 163 227 270 345 394
#     4  12  24  42  63  98 130 182 220 267 325 402
#
# _framework density 20.361488999999999
#
# number of rings (size 3 to 8) (size 9 to 14) (size 15 to 20)
#    0.000    1.067    2.667    4.000    3.733    4.267 
#    0.000    1.333    0.000    0.000    0.000    0.000 
#    0.000    0.000    0.000    0.000    0.000    0.000 
#
# Total GULP energy -167492.746023 kJ/mol
# GULP energy per Si atom -5583.091534 kJ/mol
# Density = 2.031515 g / cm^3
# Si number density = 20.361489 Si / 1000 Ang^3
#
#
#
# Elastic Constant Matrix: (Units=GPa)
#
#
# Indices 1 2 3 4 5 6 
#
# 1 96.3494 36.6827 67.0857 0.0003 -22.6630 0.0000
# 2 36.6827 111.5109 51.5968 0.0008 -3.7582 -0.0017
# 3 67.0857 51.5968 120.5287 0.0002 -18.4903 -0.0018
# 4 0.0003 0.0008 0.0002 30.8700 -0.0003 32.7975
# 5 -22.6630 -3.7582 -18.4903 -0.0003 42.4149 -0.0003
# 6 0.0000 -0.0017 -0.0018 32.7975 -0.0003 137.2246
#
#
#
# Elastic Compliance Matrix: (Units=1/GPa)
#
#
# Indices 1 2 3 4 5 6 
#
# 1 0.018458 -0.001921 -0.008535 0.000000 0.005971 0.000000
# 2 -0.001921 0.011438 -0.004103 0.000000 -0.001802 0.000000
# 3 -0.008535 -0.004103 0.015055 0.000000 0.001639 0.000000
# 4 0.000000 0.000000 0.000000 0.043419 0.000000 -0.010378
# 5 0.005971 -0.001802 0.001639 0.000000 0.027322 0.000000
# 6 0.000000 0.000000 0.000000 -0.010378 0.000000 0.009768
#
#
# Mechanical properties :
#
#
# Convention : Reuss Voigt Hill
#
# Bulk Modulus (GPa) = 63.16551 71.01327 67.08939
# Shear Modulus (GPa) = 31.27819 53.63684 42.45751
#
# Velocity S-wave (km/s) = 3.92362 5.13804 4.57134
# Velocity P-wave (km/s) = 7.18441 8.37564 7.80279
#
# Compressibility (1/GPa) = 0.01583142
#
# Stress axis : x y z
#
# Youngs Moduli (GPa) = 54.17843 87.43005 66.42204
#
# Poissons Ratio (x) = 0.16799 0.56690
# Poissons Ratio (y) = 0.10410 0.27255
# Poissons Ratio (z) = 0.46240 0.35875
#
# Static dielectric constant tensor:
#      x y z
#    x 2.005550 0.000000 -0.054060 
#    y 0.000000 1.831570 0.000000 
#    z -0.054060 0.000000 1.707260 
# 
# From -- ./inp_files/299960.got.cif
#   From: 2010.05.17/outbox.cif.g08.bks.cpg/sg15_150_cif.got.tgz:299960.got - 2010.06.03 18:47:42.
