data_PCOD9293966
_publ_section_title
;
Structure prediction by ZEFSAII (Michael W. Deem and Ramdas Pophale) SiO2 
 PCOD9293966
Probable space group: C 2/C
;
_chemical_formula_sum "Si O2"
_cell_formula_units_Z 60
_cell_length_a 19.876537
_cell_length_b 14.784337
_cell_length_c 10.059307
_cell_angle_alpha 90.000000
_cell_angle_beta 82.581891
_cell_angle_gamma 90.000000
_cell_volume 2931.301378
_symmetry_space_group_name_H-M "C 2/C"
_symmetry_group_IT_number 15
_symmetry_cell_setting 'monoclinic'
loop_
_space_group_symop_operation_xyz
x,y,z
-x,y,1/2-z
-x,-y,-z
x,-y,1/2+z
1/2+x,1/2+y,z
1/2-x,1/2+y,1/2-z
1/2-x,1/2-y,-z
1/2+x,1/2-y,1/2+z
loop_
_atom_site_type_symbol
_atom_site_label
_atom_site_fract_x
_atom_site_fract_y
_atom_site_fract_z
Si Si1 0.664881 0.435201 0.395902
Si Si2 0.000000 0.799093 0.750000
Si Si3 0.222304 0.789079 0.714482
Si Si4 0.200455 0.461691 0.557064
Si Si5 0.895627 0.873980 0.579080
Si Si6 0.379387 0.244616 0.961761
Si Si7 0.307652 0.656149 0.874792
Si Si8 0.342439 0.911180 0.647107
O O1 0.741085 0.468030 0.410953
O O2 0.617214 0.520208 0.441585
O O3 0.637352 0.343927 0.472763
O O4 0.667733 0.417832 0.237568
O O5 0.035738 0.855247 0.859567
O O6 0.057629 0.744772 0.655223
O O7 0.161444 0.836393 0.806598
O O8 0.187193 0.727177 0.612562
O O9 0.273033 0.733278 0.795094
O O10 0.266925 0.870444 0.649203
O O11 0.246754 0.381916 0.482519
O O12 0.156315 0.434753 0.697262
O O13 0.155251 0.503382 0.451057
O O14 0.872994 0.823015 0.449365
O O15 0.387115 0.170066 0.074838
#
# Coordination Sequence:
#
# PCOD9293966 Si02
#       8
#     8   4   8   8   8   8   8   8
#     4  11  20  35  58  91 129 170 205 252 312 372
#     4  10  26  48  58  84 118 186 230 254 292 364
#     4  11  19  34  60  94 126 162 200 253 330 380
#     4  11  22  33  59  96 137 157 193 253 332 397
#     4  10  23  37  60  85 128 168 213 252 301 367
#     4  11  24  39  63  83 126 175 215 260 306 378
#     4  11  20  33  57  98 133 158 197 263 317 386
#     4  12  21  37  59  95 125 161 200 258 329 386
#
# _framework density 20.468724000000002
#
# number of rings (size 3 to 8) (size 9 to 14) (size 15 to 20)
#    0.000    1.067    6.667    1.600    5.600    0.533 
#    0.000    0.000    0.000    0.800    0.000    0.000 
#    0.000    0.000    0.000    0.000    0.000    0.000 
#
# Total GULP energy -167275.176021 kJ/mol
# GULP energy per Si atom -5575.839201 kJ/mol
# Density = 2.042214 g / cm^3
# Si number density = 20.468724 Si / 1000 Ang^3
#
#
#
# Elastic Constant Matrix: (Units=GPa)
#
#
# Indices 1 2 3 4 5 6 
#
# 1 48.4557 15.9923 25.3290 0.0000 8.5749 0.0000
# 2 15.9923 49.4284 33.9990 0.0000 8.6054 0.0000
# 3 25.3290 33.9990 134.4250 0.0000 1.9979 0.0000
# 4 0.0000 0.0000 0.0000 42.5253 0.0000 -0.9197
# 5 8.5749 8.6054 1.9979 0.0000 33.9071 0.0000
# 6 0.0000 0.0000 0.0000 -0.9197 0.0000 7.6546
#
#
#
# Elastic Compliance Matrix: (Units=1/GPa)
#
#
# Indices 1 2 3 4 5 6 
#
# 1 0.024873 -0.004877 -0.003381 0.000000 -0.004853 0.000000
# 2 -0.004877 0.026668 -0.005749 0.000000 -0.005196 0.000000
# 3 -0.003381 -0.005749 0.009504 0.000000 0.001754 0.000000
# 4 0.000000 0.000000 0.000000 0.023577 0.000000 0.002833
# 5 -0.004853 -0.005196 0.001754 0.000000 0.031935 0.000000
# 6 0.000000 0.000000 0.000000 0.002833 0.000000 0.130980
#
#
# Mechanical properties :
#
#
# Convention : Reuss Voigt Hill
#
# Bulk Modulus (GPa) = 30.27389 42.54996 36.41193
# Shear Modulus (GPa) = 17.44823 27.28331 22.36577
#
# Velocity S-wave (km/s) = 2.92281 3.65489 3.30916
# Velocity P-wave (km/s) = 5.11985 6.21642 5.69459
#
# Compressibility (1/GPa) = 0.03303176
#
# Stress axis : x y z
#
# Youngs Moduli (GPa) = 40.20386 37.49794 105.21768
#
# Poissons Ratio (x) = 0.18288 0.35575
# Poissons Ratio (y) = 0.19607 0.60487
# Poissons Ratio (z) = 0.13593 0.21557
#
# Static dielectric constant tensor:
#      x y z
#    x 1.713660 0.000000 0.022840 
#    y 0.000000 1.787880 0.000000 
#    z 0.022840 0.000000 1.805520 
# 
# From -- ./inp_files/61561.got.cif
#   From: 2010.05.17/outbox.cif.g08.bks.cpg/sg15_31_cif.got.tgz:61561.got - 2010.06.03 18:47:42.
