data_PCOD9293085
_publ_section_title
;
Structure prediction by ZEFSAII (Michael W. Deem and Ramdas Pophale) SiO2 
 PCOD9293085
Probable space group: C 2/C
;
_chemical_formula_sum "Si O2"
_cell_formula_units_Z 60
_cell_length_a 9.616518
_cell_length_b 21.824104
_cell_length_c 13.949320
_cell_angle_alpha 90.000000
_cell_angle_beta 73.493765
_cell_angle_gamma 90.000000
_cell_volume 2806.921525
_symmetry_space_group_name_H-M "C 2/C"
_symmetry_group_IT_number 15
_symmetry_cell_setting 'monoclinic'
loop_
_space_group_symop_operation_xyz
x,y,z
-x,y,1/2-z
-x,-y,-z
x,-y,1/2+z
1/2+x,1/2+y,z
1/2-x,1/2+y,1/2-z
1/2-x,1/2-y,-z
1/2+x,1/2-y,1/2+z
loop_
_atom_site_type_symbol
_atom_site_label
_atom_site_fract_x
_atom_site_fract_y
_atom_site_fract_z
Si Si1 0.127313 0.281941 0.957166
Si Si2 0.679666 0.905154 0.829381
Si Si3 0.919495 0.280922 0.162769
Si Si4 0.592668 0.532190 0.086641
Si Si5 0.810695 0.959845 0.138557
Si Si6 0.623651 0.325686 0.304303
Si Si7 0.416484 0.360049 0.663534
Si Si8 0.000000 0.515925 0.250000
O O1 0.176657 0.342272 0.889738
O O2 0.088037 0.229726 0.886027
O O3 0.250000 0.250000 0.000000
O O4 0.008317 0.306651 0.055931
O O5 0.785641 0.953050 0.860118
O O6 0.758836 0.887111 0.714536
O O7 0.531897 0.939146 0.833598
O O8 0.762442 0.306161 0.214496
O O9 0.910165 0.209567 0.136624
O O10 0.000000 0.285791 0.250000
O O11 0.461527 0.489642 0.148528
O O12 0.510290 0.596262 0.079427
O O13 0.674238 0.515769 0.973451
O O14 0.831322 0.887309 0.148640
O O15 0.650265 0.978328 0.207365
O O16 0.500000 0.336789 0.250000
O O17 0.500000 0.362057 0.750000
#
# Coordination Sequence:
#
# PCOD9293085 Si02
#       8
#     8   8   8   8   8   8   8   4
#     4  12  23  45  76 109 144 181 234 287 358 434
#     4  11  23  41  73 100 138 177 237 287 342 414
#     4  11  22  41  71 105 138 187 228 286 358 424
#     4  10  22  44  72  97 125 190 244 280 332 423
#     4  11  26  46  67  99 140 182 242 288 350 418
#     4  12  28  44  67 105 148 186 229 294 360 418
#     4   9  16  36  67  95 125 173 231 271 326 409
#     4  12  28  44  68 102 140 186 230 300 352 394
#
# _framework density 21.375730999999998
#
# number of rings (size 3 to 8) (size 9 to 14) (size 15 to 20)
#    0.000    1.067    4.000    3.200    3.733    1.067 
#    4.800    0.000    0.000    0.000    0.000    0.000 
#    0.000    0.000    0.000    0.000    0.000    0.000 
#
# Total GULP energy -167357.322139 kJ/mol
# GULP energy per Si atom -5578.577405 kJ/mol
# Density = 2.132708 g / cm^3
# Si number density = 21.375731 Si / 1000 Ang^3
#
#
#
# Elastic Constant Matrix: (Units=GPa)
#
#
# Indices 1 2 3 4 5 6 
#
# 1 93.9445 28.6902 36.4942 0.0000 -15.7855 0.0000
# 2 28.6902 68.9806 18.7344 0.0000 -9.0505 0.0000
# 3 36.4942 18.7344 102.7001 0.0000 -18.0528 0.0000
# 4 0.0000 0.0000 0.0000 21.5586 0.0000 1.0813
# 5 -15.7855 -9.0505 -18.0528 0.0000 26.9641 0.0000
# 6 0.0000 0.0000 0.0000 1.0813 0.0000 15.3050
#
#
#
# Elastic Compliance Matrix: (Units=1/GPa)
#
#
# Indices 1 2 3 4 5 6 
#
# 1 0.014045 -0.004326 -0.003413 0.000000 0.004485 0.000000
# 2 -0.004326 0.016916 -0.001128 0.000000 0.002390 0.000000
# 3 -0.003413 -0.001128 0.012170 0.000000 0.005771 0.000000
# 4 0.000000 0.000000 0.000000 0.046550 0.000000 -0.003289
# 5 0.004485 0.002390 0.005771 0.000000 0.044378 0.000000
# 6 0.000000 0.000000 0.000000 -0.003289 0.000000 0.065570
#
#
# Mechanical properties :
#
#
# Convention : Reuss Voigt Hill
#
# Bulk Modulus (GPa) = 39.37659 48.16255 43.76957
# Shear Modulus (GPa) = 22.14036 24.87930 23.50983
#
# Velocity S-wave (km/s) = 3.22183 3.41531 3.31998
# Velocity P-wave (km/s) = 5.68343 6.17517 5.93440
#
# Compressibility (1/GPa) = 0.02539580
#
# Stress axis : x y z
#
# Youngs Moduli (GPa) = 71.19757 59.11489 82.16685
#
# Poissons Ratio (x) = 0.25574 0.28047
# Poissons Ratio (y) = 0.30802 0.09272
# Poissons Ratio (z) = 0.24303 0.06671
#
# Static dielectric constant tensor:
#      x y z
#    x 1.896030 0.000000 -0.037770 
#    y 0.000000 1.805550 0.000000 
#    z -0.037770 0.000000 1.810630 
# 
# From -- ./inp_files/137807.got.cif
#   From: 2010.05.17/outbox.cif.g08.bks.cpg/sg15_69_cif.got.tgz:137807.got - 2010.06.03 18:47:42.
