data_PCOD9293173
_publ_section_title
;
Structure prediction by ZEFSAII (Michael W. Deem and Ramdas Pophale) SiO2 
 PCOD9293173
Probable space group: C 2/C
;
_chemical_formula_sum "Si O2"
_cell_formula_units_Z 40
_cell_length_a 5.051293
_cell_length_b 18.278694
_cell_length_c 20.150931
_cell_angle_alpha 90.000000
_cell_angle_beta 121.686936
_cell_angle_gamma 90.000000
_cell_volume 1583.204929
_symmetry_space_group_name_H-M "C 2/C"
_symmetry_group_IT_number 15
_symmetry_cell_setting 'monoclinic'
loop_
_space_group_symop_operation_xyz
x,y,z
-x,y,1/2-z
-x,-y,-z
x,-y,1/2+z
1/2+x,1/2+y,z
1/2-x,1/2+y,1/2-z
1/2-x,1/2-y,-z
1/2+x,1/2-y,1/2+z
loop_
_atom_site_type_symbol
_atom_site_label
_atom_site_fract_x
_atom_site_fract_y
_atom_site_fract_z
Si Si1 0.647188 0.695521 0.044830
Si Si2 0.209160 0.893345 0.673334
Si Si3 0.689352 0.523398 0.843869
Si Si4 0.152207 0.733446 0.682440
Si Si5 0.287456 0.391901 0.391927
O O1 0.820138 0.636740 0.116056
O O2 0.581988 0.754027 0.094666
O O3 0.415642 0.640961 0.976964
O O4 0.750000 0.750000 0.000000
O O5 0.500000 0.927733 0.750000
O O6 0.122787 0.817868 0.699771
O O7 0.917951 0.947009 0.637556
O O8 0.500000 0.529376 0.750000
O O9 0.559695 0.582286 0.879430
O O10 0.045359 0.542811 0.875282
O O11 0.500000 0.711698 0.750000
O O12 0.902896 0.673312 0.668687
#
# Coordination Sequence:
#
# PCOD9293173 Si02
#       5
#     8   8   8   8   8
#     4  10  22  44  76 111 153 188 251 311 377 437
#     4   9  22  48  75 106 145 201 248 304 367 450
#     4  12  27  49  71 107 149 196 249 307 373 446
#     4   9  21  45  73 106 139 197 249 302 365 447
#     4  12  25  45  77 109 150 192 244 316 381 439
#
# _framework density 25.265207
#
# number of rings (size 3 to 8) (size 9 to 14) (size 15 to 20)
#    1.200    0.400    0.000    4.200    0.000    3.200 
#    7.200    0.000    0.000    0.000    0.000    0.000 
#    0.000    0.000    0.000    0.000    0.000    0.000 
#
# Total GULP energy -111535.946813 kJ/mol
# GULP energy per Si atom -5576.797341 kJ/mol
# Density = 2.520770 g / cm^3
# Si number density = 25.265207 Si / 1000 Ang^3
#
#
#
# Elastic Constant Matrix: (Units=GPa)
#
#
# Indices 1 2 3 4 5 6 
#
# 1 52.8976 23.4907 39.1539 0.0000 -16.7997 0.0000
# 2 23.4907 100.5893 3.5740 0.0000 3.7439 0.0000
# 3 39.1539 3.5740 157.1965 0.0000 -8.3641 0.0000
# 4 0.0000 0.0000 0.0000 -292.5625 0.0000 -559.5145
# 5 -16.7997 3.7439 -8.3641 0.0000 28.8002 0.0000
# 6 0.0000 0.0000 0.0000 -559.5145 0.0000-1601.1590
#
#
#
# Elastic Compliance Matrix: (Units=1/GPa)
#
#
# Indices 1 2 3 4 5 6 
#
# 1 0.033976 -0.008376 -0.007272 0.000000 0.018795 0.000000
# 2 -0.008376 0.012068 0.001491 0.000000 -0.006021 0.000000
# 3 -0.007272 0.001491 0.008027 0.000000 -0.002105 0.000000
# 4 0.000000 0.000000 0.000000 -0.010305 0.000000 0.003601
# 5 0.018795 -0.006021 -0.002105 0.000000 0.045857 0.000000
# 6 0.000000 0.000000 0.000000 0.003601 0.000000 -0.001883
#
#
# Mechanical properties :
#
#
# Convention : Reuss Voigt Hill
#
# Bulk Modulus (GPa) = 38.82195 49.23562 44.02879
# Shear Modulus (GPa) = 40.11570 -356.68661 -158.28546
#
# Velocity S-wave (km/s) = 3.98902 -11.89468 -7.92374
# Velocity P-wave (km/s) = 6.05108 13.00442 8.13939
#
# Compressibility (1/GPa) = 0.02575862
#
# Stress axis : x y z
#
# Youngs Moduli (GPa) = 29.43279 82.86036 124.58165
#
# Poissons Ratio (x) = 0.69400 0.90596
# Poissons Ratio (y) = 0.24652 -0.18580
# Poissons Ratio (z) = 0.21404 -0.12358
#
# Static dielectric constant tensor:
#      x y z
#    x 2.065090 0.000000 -0.027040 
#    y 0.000000 2.046190 0.000000 
#    z -0.027040 0.000000 1.983070 
# 
# From -- ./inp_files/189523.got.cif
#   From: 2010.05.17/outbox.cif.g08.bks.cpg/sg15_95_cif.got.tgz:189523.got - 2010.06.03 18:47:42.
