data_PCOD9293797
_publ_section_title
;
Structure prediction by ZEFSAII (Michael W. Deem and Ramdas Pophale) SiO2 
 PCOD9293797
Probable space group: C 2/C
;
_chemical_formula_sum "Si O2"
_cell_formula_units_Z 40
_cell_length_a 8.866618
_cell_length_b 12.021258
_cell_length_c 21.663779
_cell_angle_alpha 90.000000
_cell_angle_beta 38.031610
_cell_angle_gamma 90.000000
_cell_volume 1422.625572
_symmetry_space_group_name_H-M "C 2/C"
_symmetry_group_IT_number 15
_symmetry_cell_setting 'monoclinic'
loop_
_space_group_symop_operation_xyz
x,y,z
-x,y,1/2-z
-x,-y,-z
x,-y,1/2+z
1/2+x,1/2+y,z
1/2-x,1/2+y,1/2-z
1/2-x,1/2-y,-z
1/2+x,1/2-y,1/2+z
loop_
_atom_site_type_symbol
_atom_site_label
_atom_site_fract_x
_atom_site_fract_y
_atom_site_fract_z
Si Si1 0.272130 0.095390 0.544996
Si Si2 0.285795 0.968704 0.903639
Si Si3 0.134298 0.241776 0.385138
Si Si4 0.239895 0.410375 0.247578
Si Si5 0.550782 0.616687 0.165954
O O1 0.355774 0.067107 0.449950
O O2 0.411405 0.192391 0.536329
O O3 0.243815 0.165363 0.697206
O O4 0.248970 0.982144 0.593392
O O5 0.287799 0.863765 0.858143
O O6 0.020523 0.129487 0.867557
O O7 0.000000 0.000000 0.000000
O O8 0.950653 0.427420 0.328620
O O9 0.941039 0.191848 0.397919
O O10 0.310129 0.539152 0.236117
O O11 0.500000 0.669323 0.250000
#
# Coordination Sequence:
#
# PCOD9293797 Si02
#       5
#     8   8   8   8   8
#     4  10  23  47  73 114 147 192 261 298 378 453
#     4  12  26  47  74 114 157 198 252 313 373 454
#     4  12  24  48  77 102 154 201 244 315 387 434
#     4  10  25  43  77 107 146 203 251 305 371 452
#     4  10  22  47  74 104 145 189 252 311 364 458
#
# _framework density 28.117024000000001
#
# number of rings (size 3 to 8) (size 9 to 14) (size 15 to 20)
#    1.200    0.000    4.000    1.200    5.600    4.000 
#    7.200    0.000    0.000    0.000    0.000    0.000 
#    0.000    0.000    0.000    0.000    0.000    0.000 
#
# Total GULP energy -111660.011907 kJ/mol
# GULP energy per Si atom -5583.000595 kJ/mol
# Density = 2.805303 g / cm^3
# Si number density = 28.117024 Si / 1000 Ang^3
#
#
#
# Elastic Constant Matrix: (Units=GPa)
#
#
# Indices 1 2 3 4 5 6 
#
# 1 161.7454 58.9305 57.6439 -0.0004 3.5562 0.0006
# 2 58.9305 137.2841 59.4515 0.0001 20.4010 0.0000
# 3 57.6439 59.4515 179.9342 0.0002 38.4429 -0.0003
# 4 -0.0004 0.0001 0.0002 48.7440 0.0001 25.4839
# 5 3.5562 20.4010 38.4429 0.0001 54.6040 -0.0002
# 6 0.0006 0.0000 -0.0003 25.4839 -0.0002 50.9006
#
#
#
# Elastic Compliance Matrix: (Units=1/GPa)
#
#
# Indices 1 2 3 4 5 6 
#
# 1 0.007878 -0.002799 -0.002016 0.000000 0.001952 0.000000
# 2 -0.002799 0.009588 -0.001819 0.000000 -0.002120 0.000000
# 3 -0.002016 -0.001819 0.007805 0.000000 -0.004684 0.000000
# 4 0.000000 0.000000 0.000000 0.027789 0.000000 -0.013913
# 5 0.001952 -0.002120 -0.004684 0.000000 0.022276 0.000000
# 6 0.000000 0.000000 0.000000 -0.013913 0.000000 0.026612
#
#
# Mechanical properties :
#
#
# Convention : Reuss Voigt Hill
#
# Bulk Modulus (GPa) = 83.30206 92.33504 87.81855
# Shear Modulus (GPa) = 41.94061 51.04558 46.49310
#
# Velocity S-wave (km/s) = 3.86637 4.26545 4.07081
# Velocity P-wave (km/s) = 7.04436 7.56106 7.30728
#
# Compressibility (1/GPa) = 0.01200450
#
# Stress axis : x y z
#
# Youngs Moduli (GPa) = 126.93906 104.29707 128.12121
#
# Poissons Ratio (x) = 0.29189 0.25830
# Poissons Ratio (y) = 0.35525 0.23299
# Poissons Ratio (z) = 0.25592 0.18966
#
# Static dielectric constant tensor:
#      x y z
#    x 2.519460 0.000000 -0.096750 
#    y 0.000000 2.154340 0.000000 
#    z -0.096750 0.000000 2.131970 
# 
# From -- ./inp_files/195561.got.cif
#   From: 2010.05.17/outbox.cif.g08.bks.cpg/sg15_98_cif.got.tgz:195561.got - 2010.06.03 18:47:42.
