data_PCOD9293315
_publ_section_title
;
Structure prediction by ZEFSAII (Michael W. Deem and Ramdas Pophale) SiO2 
 PCOD9293315
Probable space group: C 2/C
;
_chemical_formula_sum "Si O2"
_cell_formula_units_Z 44
_cell_length_a 14.756048
_cell_length_b 11.620867
_cell_length_c 13.235998
_cell_angle_alpha 90.000000
_cell_angle_beta 78.930755
_cell_angle_gamma 90.000000
_cell_volume 2227.457909
_symmetry_space_group_name_H-M "C 2/C"
_symmetry_group_IT_number 15
_symmetry_cell_setting 'monoclinic'
loop_
_space_group_symop_operation_xyz
x,y,z
-x,y,1/2-z
-x,-y,-z
x,-y,1/2+z
1/2+x,1/2+y,z
1/2-x,1/2+y,1/2-z
1/2-x,1/2-y,-z
1/2+x,1/2-y,1/2+z
loop_
_atom_site_type_symbol
_atom_site_label
_atom_site_fract_x
_atom_site_fract_y
_atom_site_fract_z
Si Si1 0.326199 0.694425 0.712599
Si Si2 0.899597 0.050592 0.507258
Si Si3 0.084115 0.503065 0.559545
Si Si4 0.830140 0.252795 0.399033
Si Si5 0.500000 0.155659 0.250000
Si Si6 0.738601 0.626184 0.553834
O O1 0.359541 0.607411 0.618045
O O2 0.231876 0.753667 0.689137
O O3 0.417283 0.771546 0.715230
O O4 0.295139 0.638220 0.824231
O O5 0.893109 0.145244 0.418353
O O6 0.836653 0.944541 0.490851
O O7 0.000000 0.000000 0.500000
O O8 0.114607 0.627877 0.596403
O O9 0.053074 0.422682 0.658071
O O10 0.168903 0.447001 0.480951
O O11 0.000000 0.500000 0.500000
O O12 0.750000 0.250000 0.500000
O O13 0.750000 0.750000 0.500000
#
# Coordination Sequence:
#
# PCOD9293315 Si02
#       6
#     8   8   8   8   4   8
#     4  11  24  46  71  98 144 188 232 289 363 416
#     4  11  25  46  74 101 142 184 239 292 351 424
#     4  12  26  43  71 101 143 178 236 292 348 422
#     4  10  22  45  69  98 134 188 226 287 348 415
#     4  12  26  44  72 104 140 188 232 290 364 420
#     4  12  26  45  70 105 139 189 235 292 354 427
#
# _framework density 19.753457999999998
#
# number of rings (size 3 to 8) (size 9 to 14) (size 15 to 20)
#    0.000    0.727    5.455    3.273    5.091    1.455 
#    0.000    1.818    0.000    0.000    0.000    0.000 
#    0.000    0.000    0.000    0.000    0.000    0.000 
#
# Total GULP energy -122849.622207 kJ/mol
# GULP energy per Si atom -5584.073737 kJ/mol
# Density = 1.970850 g / cm^3
# Si number density = 19.753458 Si / 1000 Ang^3
#
#
#
# Elastic Constant Matrix: (Units=GPa)
#
#
# Indices 1 2 3 4 5 6 
#
# 1 198.3247 93.4639 50.5270 0.0000 22.1468 0.0000
# 2 93.4639 154.2779 58.6781 0.0000 19.9906 0.0000
# 3 50.5270 58.6781 119.4281 0.0000 6.8712 0.0000
# 4 0.0000 0.0000 0.0000 39.7638 0.0000 15.4803
# 5 22.1468 19.9906 6.8712 0.0000 37.0081 0.0000
# 6 0.0000 0.0000 0.0000 15.4803 0.0000 35.9046
#
#
#
# Elastic Compliance Matrix: (Units=1/GPa)
#
#
# Indices 1 2 3 4 5 6 
#
# 1 0.007331 -0.003725 -0.001147 0.000000 -0.002162 0.000000
# 2 -0.003725 0.010374 -0.003363 0.000000 -0.002750 0.000000
# 3 -0.001147 -0.003363 0.010479 0.000000 0.000557 0.000000
# 4 0.000000 0.000000 0.000000 0.030221 0.000000 -0.013030
# 5 -0.002162 -0.002750 0.000557 0.000000 0.029697 0.000000
# 6 0.000000 0.000000 0.000000 -0.013030 0.000000 0.033469
#
#
# Mechanical properties :
#
#
# Convention : Reuss Voigt Hill
#
# Bulk Modulus (GPa) = 85.36685 97.48540 91.42613
# Shear Modulus (GPa) = 35.22468 40.49275 37.85872
#
# Velocity S-wave (km/s) = 4.22740 4.53250 4.38260
# Velocity P-wave (km/s) = 8.19377 8.76639 8.48491
#
# Compressibility (1/GPa) = 0.01171415
#
# Stress axis : x y z
#
# Youngs Moduli (GPa) = 136.39913 96.39670 95.43170
#
# Poissons Ratio (x) = 0.35908 0.10947
# Poissons Ratio (y) = 0.50809 0.32091
# Poissons Ratio (z) = 0.15647 0.32416
#
# Static dielectric constant tensor:
#      x y z
#    x 2.069250 0.000000 -0.260410 
#    y 0.000000 1.709630 0.000000 
#    z -0.260410 0.000000 1.960790 
# 
# From -- ./inp_files/94955.got.cif
#   From: 2010.05.17/outbox.cif.g08.bks.cpg/sg15_48_cif.got.tgz:94955.got - 2010.06.03 18:47:42.
