data_PCOD9293580
_publ_section_title
;
Structure prediction by ZEFSAII (Michael W. Deem and Ramdas Pophale) SiO2 
 PCOD9293580
Probable space group: C 2/C
;
_chemical_formula_sum "Si O2"
_cell_formula_units_Z 52
_cell_length_a 16.502251
_cell_length_b 14.113110
_cell_length_c 11.597048
_cell_angle_alpha 90.000000
_cell_angle_beta 69.730806
_cell_angle_gamma 90.000000
_cell_volume 2533.676052
_symmetry_space_group_name_H-M "C 2/C"
_symmetry_group_IT_number 15
_symmetry_cell_setting 'monoclinic'
loop_
_space_group_symop_operation_xyz
x,y,z
-x,y,1/2-z
-x,-y,-z
x,-y,1/2+z
1/2+x,1/2+y,z
1/2-x,1/2+y,1/2-z
1/2-x,1/2-y,-z
1/2+x,1/2-y,1/2+z
loop_
_atom_site_type_symbol
_atom_site_label
_atom_site_fract_x
_atom_site_fract_y
_atom_site_fract_z
Si Si1 0.493779 0.175702 0.024464
Si Si2 0.500000 0.051076 0.250000
Si Si3 0.617967 0.890751 0.266418
Si Si4 0.646686 0.746087 0.057836
Si Si5 0.692597 0.456511 0.289813
Si Si6 0.862549 0.975571 0.934683
Si Si7 0.006530 0.133812 0.874334
O O1 0.495453 0.115888 0.139614
O O2 0.526562 0.283673 0.026681
O O3 0.552504 0.123148 0.903209
O O4 0.397873 0.194107 0.022384
O O5 0.582699 0.981082 0.212922
O O6 0.615741 0.798517 0.187876
O O7 0.715566 0.905553 0.259198
O O8 0.619704 0.636548 0.071749
O O9 0.750000 0.750000 0.000000
O O10 0.689886 0.502080 0.421383
O O11 0.679947 0.506771 0.170960
O O12 0.606657 0.392006 0.339585
O O13 0.948811 0.039248 0.902546
O O14 0.000000 0.175676 0.750000
#
# Coordination Sequence:
#
# PCOD9293580 Si02
#       7
#     8   4   8   8   8   8   8
#     4  12  25  45  74  98 140 185 238 293 358 427
#     4  12  28  46  72  94 142 194 232 298 354 416
#     4  12  27  45  68 105 138 186 250 279 356 430
#     4  12  25  46  72 103 141 188 237 293 352 424
#     4  11  25  44  70 104 144 181 233 298 354 419
#     4  11  25  43  76 102 146 184 232 291 366 417
#     4  10  22  46  69 105 140 180 231 293 366 425
#
# _framework density 20.523540000000001
#
# number of rings (size 3 to 8) (size 9 to 14) (size 15 to 20)
#    0.000    0.615    5.385    0.923    6.462    2.462 
#    0.000    3.077    0.000    0.000    0.000    0.000 
#    0.000    0.000    0.000    0.000    0.000    0.000 
#
# Total GULP energy -145039.450883 kJ/mol
# GULP energy per Si atom -5578.440419 kJ/mol
# Density = 2.047683 g / cm^3
# Si number density = 20.523540 Si / 1000 Ang^3
#
#
#
# Elastic Constant Matrix: (Units=GPa)
#
#
# Indices 1 2 3 4 5 6 
#
# 1 131.1952 64.1367 52.8491 0.0000 6.6993 0.0000
# 2 64.1367 102.7015 33.4999 0.0000 8.8093 0.0000
# 3 52.8491 33.4999 131.9830 0.0000 30.2835 0.0000
# 4 0.0000 0.0000 0.0000 31.7181 0.0000 1.1585
# 5 6.6993 8.8093 30.2835 0.0000 37.4075 0.0000
# 6 0.0000 0.0000 0.0000 1.1585 0.0000 23.3658
#
#
#
# Elastic Compliance Matrix: (Units=1/GPa)
#
#
# Indices 1 2 3 4 5 6 
#
# 1 0.012266 -0.006634 -0.003785 0.000000 0.002430 0.000000
# 2 -0.006634 0.014208 -0.000559 0.000000 -0.001706 0.000000
# 3 -0.003785 -0.000559 0.011113 0.000000 -0.008187 0.000000
# 4 0.000000 0.000000 0.000000 0.031585 0.000000 -0.001566
# 5 0.002430 -0.001706 -0.008187 0.000000 0.033327 0.000000
# 6 0.000000 0.000000 0.000000 -0.001566 0.000000 0.042875
#
#
# Mechanical properties :
#
#
# Convention : Reuss Voigt Hill
#
# Bulk Modulus (GPa) = 63.97365 74.09458 69.03411
# Shear Modulus (GPa) = 28.97874 32.85787 30.91831
#
# Velocity S-wave (km/s) = 3.76170 4.00557 3.88555
# Velocity P-wave (km/s) = 7.07854 7.58771 7.33755
#
# Compressibility (1/GPa) = 0.01563144
#
# Stress axis : x y z
#
# Youngs Moduli (GPa) = 81.52599 70.38163 89.98653
#
# Poissons Ratio (x) = 0.46690 0.34063
# Poissons Ratio (y) = 0.54083 0.05027
# Poissons Ratio (z) = 0.30861 0.03932
#
# Static dielectric constant tensor:
#      x y z
#    x 1.749370 0.000000 0.064310 
#    y 0.000000 1.728520 0.000000 
#    z 0.064310 0.000000 1.768810 
# 
# From -- ./inp_files/96971.got.cif
#   From: 2010.05.17/outbox.cif.g08.bks.cpg/sg15_49_cif.got.tgz:96971.got - 2010.06.03 18:47:42.
