data_PCOD9293508
_publ_section_title
;
Structure prediction by ZEFSAII (Michael W. Deem and Ramdas Pophale) SiO2 
 PCOD9293508
Probable space group: C 2/C
;
_chemical_formula_sum "Si O2"
_cell_formula_units_Z 52
_cell_length_a 7.750689
_cell_length_b 12.415751
_cell_length_c 27.666494
_cell_angle_alpha 90.000000
_cell_angle_beta 62.294642
_cell_angle_gamma 90.000000
_cell_volume 2357.124374
_symmetry_space_group_name_H-M "C 2/C"
_symmetry_group_IT_number 15
_symmetry_cell_setting 'monoclinic'
loop_
_space_group_symop_operation_xyz
x,y,z
-x,y,1/2-z
-x,-y,-z
x,-y,1/2+z
1/2+x,1/2+y,z
1/2-x,1/2+y,1/2-z
1/2-x,1/2-y,-z
1/2+x,1/2-y,1/2+z
loop_
_atom_site_type_symbol
_atom_site_label
_atom_site_fract_x
_atom_site_fract_y
_atom_site_fract_z
Si Si1 0.625261 0.082827 0.097937
Si Si2 0.500000 0.912734 0.250000
Si Si3 0.432512 0.478341 0.203809
Si Si4 0.276249 0.029974 0.520662
Si Si5 0.508982 0.319182 0.111633
Si Si6 0.997329 0.869197 0.610074
Si Si7 0.086563 0.358108 0.134496
O O1 0.500976 0.190998 0.109595
O O2 0.781791 0.107629 0.118854
O O3 0.512591 0.973313 0.125468
O O4 0.738318 0.059720 0.033510
O O5 0.697479 0.980509 0.230298
O O6 0.518688 0.844284 0.198603
O O7 0.500000 0.480240 0.250000
O O8 0.494097 0.368759 0.167311
O O9 0.516708 0.574091 0.159804
O O10 0.199581 0.131463 0.561635
O O11 0.500000 0.000000 0.500000
O O12 0.146740 0.929572 0.555131
O O13 0.321514 0.364411 0.107258
O O14 0.029641 0.742683 0.610017
#
# Coordination Sequence:
#
# PCOD9293508 Si02
#       7
#     8   4   8   8   8   8   8
#     4  12  24  45  71  97 141 182 224 293 339 424
#     4  10  22  46  66 102 136 186 234 286 354 414
#     4  10  23  46  71 101 143 181 238 294 347 428
#     4  11  24  44  71 102 138 186 232 282 356 416
#     4  10  24  47  64 105 139 176 239 286 346 420
#     4  11  25  45  67 105 137 180 232 290 352 413
#     4  11  25  46  68  99 143 175 236 290 344 423
#
# _framework density 22.060779
#
# number of rings (size 3 to 8) (size 9 to 14) (size 15 to 20)
#    0.000    1.231    4.615    1.846    5.385    3.077 
#    4.154    0.000    0.000    0.000    0.000    0.000 
#    0.000    0.000    0.000    0.000    0.000    0.000 
#
# Total GULP energy -145431.905125 kJ/mol
# GULP energy per Si atom -5593.534812 kJ/mol
# Density = 2.201057 g / cm^3
# Si number density = 22.060779 Si / 1000 Ang^3
#
#
#
# Elastic Constant Matrix: (Units=GPa)
#
#
# Indices 1 2 3 4 5 6 
#
# 1 52.2140 22.3882 25.0487 0.0000 7.1810 0.0000
# 2 22.3882 140.0442 24.0086 0.0000 5.1067 0.0000
# 3 25.0487 24.0086 110.0544 0.0000 17.2979 0.0000
# 4 0.0000 0.0000 0.0000 13.4739 0.0000 2.8550
# 5 7.1810 5.1067 17.2979 0.0000 37.8443 0.0000
# 6 0.0000 0.0000 0.0000 2.8550 0.0000 22.9185
#
#
#
# Elastic Compliance Matrix: (Units=1/GPa)
#
#
# Indices 1 2 3 4 5 6 
#
# 1 0.022666 -0.002826 -0.004230 0.000000 -0.001986 0.000000
# 2 -0.002826 0.007773 -0.001047 0.000000 -0.000034 0.000000
# 3 -0.004230 -0.001047 0.010913 0.000000 -0.004044 0.000000
# 4 0.000000 0.000000 0.000000 0.076230 0.000000 -0.009496
# 5 -0.001986 -0.000034 -0.004044 0.000000 0.028654 0.000000
# 6 0.000000 0.000000 0.000000 -0.009496 0.000000 0.044816
#
#
# Mechanical properties :
#
#
# Convention : Reuss Voigt Hill
#
# Bulk Modulus (GPa) = 39.76783 49.46707 44.61745
# Shear Modulus (GPa) = 23.18668 30.23845 26.71257
#
# Velocity S-wave (km/s) = 3.24549 3.70630 3.48352
# Velocity P-wave (km/s) = 5.66656 6.38649 6.03727
#
# Compressibility (1/GPa) = 0.02514595
#
# Stress axis : x y z
#
# Youngs Moduli (GPa) = 44.11863 128.64826 91.63091
#
# Poissons Ratio (x) = 0.36355 0.38762
# Poissons Ratio (y) = 0.12467 0.09596
# Poissons Ratio (z) = 0.18663 0.13472
#
# Static dielectric constant tensor:
#      x y z
#    x 1.807970 0.000000 -0.000090 
#    y 0.000000 1.800380 0.000000 
#    z -0.000090 0.000000 1.807190 
# 
# From -- ./inp_files/287897.got.cif
#   From: 2010.05.17/outbox.cif.g08.bks.cpg/sg15_144_cif.got.tgz:287897.got - 2010.06.03 18:47:42.
