data_PCOD9293389
_publ_section_title
;
Structure prediction by ZEFSAII (Michael W. Deem and Ramdas Pophale) SiO2 
 PCOD9293389
Probable space group: C 2/C
;
_chemical_formula_sum "Si O2"
_cell_formula_units_Z 40
_cell_length_a 20.313973
_cell_length_b 15.007775
_cell_length_c 8.143044
_cell_angle_alpha 90.000000
_cell_angle_beta 135.363421
_cell_angle_gamma 90.000000
_cell_volume 1744.258042
_symmetry_space_group_name_H-M "C 2/C"
_symmetry_group_IT_number 15
_symmetry_cell_setting 'monoclinic'
loop_
_space_group_symop_operation_xyz
x,y,z
-x,y,1/2-z
-x,-y,-z
x,-y,1/2+z
1/2+x,1/2+y,z
1/2-x,1/2+y,1/2-z
1/2-x,1/2-y,-z
1/2+x,1/2-y,1/2+z
loop_
_atom_site_type_symbol
_atom_site_label
_atom_site_fract_x
_atom_site_fract_y
_atom_site_fract_z
Si Si1 0.806684 0.261913 0.432081
Si Si2 0.773226 0.564923 0.671836
Si Si3 0.500000 0.212462 0.750000
Si Si4 0.937230 0.113800 0.291592
Si Si5 0.500000 0.659315 0.750000
Si Si6 0.323911 0.117680 0.423077
O O1 0.750000 0.250000 0.500000
O O2 0.797326 0.362712 0.353752
O O3 0.750140 0.197898 0.207301
O O4 0.910066 0.221300 0.626920
O O5 0.667102 0.579450 0.420338
O O6 0.839556 0.584958 0.635642
O O7 0.784089 0.465044 0.752774
O O8 0.555024 0.278940 0.725543
O O9 0.421110 0.153948 0.524491
O O10 0.000000 0.080513 0.250000
O O11 0.977308 0.102471 0.545380
#
# Coordination Sequence:
#
# PCOD9293389 Si02
#       6
#     8   8   4   8   4   8
#     4  12  24  45  72 105 144 193 244 304 373 450
#     4  12  25  46  71 104 153 187 242 307 371 428
#     4  10  22  45  75 102 142 192 246 297 369 440
#     4  10  22  45  72 103 140 195 242 300 361 444
#     4  12  22  39  75 102 134 196 244 289 371 440
#     4  12  25  44  72 104 145 192 240 308 361 438
#
# _framework density 22.932386999999999
#
# number of rings (size 3 to 8) (size 9 to 14) (size 15 to 20)
#    0.600    0.000    4.000    5.400    0.000    1.600 
#    1.800    2.000    0.000    0.000    0.000    0.000 
#    0.000    0.000    0.000    0.000    0.000    0.000 
#
# Total GULP energy -111926.092159 kJ/mol
# GULP energy per Si atom -5596.304608 kJ/mol
# Density = 2.288019 g / cm^3
# Si number density = 22.932387 Si / 1000 Ang^3
#
#
#
# Elastic Constant Matrix: (Units=GPa)
#
#
# Indices 1 2 3 4 5 6 
#
# 1 92.1657 27.9064 48.6300 0.0000 0.8489 0.0000
# 2 27.9064 106.6602 50.4238 0.0000 14.2624 0.0000
# 3 48.6300 50.4238 133.3980 0.0000 13.5184 0.0000
# 4 0.0000 0.0000 0.0000 44.7220 0.0000 -2.3207
# 5 0.8489 14.2624 13.5184 0.0000 57.1052 0.0000
# 6 0.0000 0.0000 0.0000 -2.3207 0.0000 18.3233
#
#
#
# Elastic Compliance Matrix: (Units=1/GPa)
#
#
# Indices 1 2 3 4 5 6 
#
# 1 0.013711 -0.001623 -0.004513 0.000000 0.001270 0.000000
# 2 -0.001623 0.011807 -0.003663 0.000000 -0.002058 0.000000
# 3 -0.004513 -0.003663 0.010683 0.000000 -0.001547 0.000000
# 4 0.000000 0.000000 0.000000 0.022508 0.000000 0.002851
# 5 0.001270 -0.002058 -0.001547 0.000000 0.018373 0.000000
# 6 0.000000 0.000000 0.000000 0.002851 0.000000 0.054936
#
#
# Mechanical properties :
#
#
# Convention : Reuss Voigt Hill
#
# Bulk Modulus (GPa) = 60.23320 65.12712 62.68016
# Shear Modulus (GPa) = 31.81633 37.71435 34.76534
#
# Velocity S-wave (km/s) = 3.72882 4.05975 3.89780
# Velocity P-wave (km/s) = 6.69786 7.10188 6.90283
#
# Compressibility (1/GPa) = 0.01660214
#
# Stress axis : x y z
#
# Youngs Moduli (GPa) = 72.93209 84.69555 93.60676
#
# Poissons Ratio (x) = 0.13750 0.42249
# Poissons Ratio (y) = 0.11840 0.34285
# Poissons Ratio (z) = 0.32918 0.31021
#
# Static dielectric constant tensor:
#      x y z
#    x 1.885280 0.000000 -0.033830 
#    y 0.000000 1.870400 0.000000 
#    z -0.033830 0.000000 1.894310 
# 
# From -- ./inp_files/61770.got.cif
#   From: 2010.05.17/outbox.cif.g08.bks.cpg/sg15_31_cif.got.tgz:61770.got - 2010.06.03 18:47:42.
