data_PCOD9293892
_publ_section_title
;
Structure prediction by ZEFSAII (Michael W. Deem and Ramdas Pophale) SiO2 
 PCOD9293892
Probable space group: C 2/C
;
_chemical_formula_sum "Si O2"
_cell_formula_units_Z 40
_cell_length_a 12.539249
_cell_length_b 21.765502
_cell_length_c 15.225398
_cell_angle_alpha 90.000000
_cell_angle_beta 156.887863
_cell_angle_gamma 90.000000
_cell_volume 1631.112385
_symmetry_space_group_name_H-M "C 2/C"
_symmetry_group_IT_number 15
_symmetry_cell_setting 'monoclinic'
loop_
_space_group_symop_operation_xyz
x,y,z
-x,y,1/2-z
-x,-y,-z
x,-y,1/2+z
1/2+x,1/2+y,z
1/2-x,1/2+y,1/2-z
1/2-x,1/2-y,-z
1/2+x,1/2-y,1/2+z
loop_
_atom_site_type_symbol
_atom_site_label
_atom_site_fract_x
_atom_site_fract_y
_atom_site_fract_z
Si Si1 0.500000 0.405226 0.250000
Si Si2 0.559612 0.634756 0.198078
Si Si3 0.368744 0.241656 0.426055
Si Si4 0.161931 0.517578 0.036693
Si Si5 0.500000 0.899345 0.250000
Si Si6 0.199243 0.808420 0.524420
O O1 0.255094 0.453374 0.066419
O O2 0.505852 0.359643 0.336746
O O3 0.500000 0.660534 0.250000
O O4 0.830852 0.668875 0.373974
O O5 0.608327 0.562369 0.247119
O O6 0.268775 0.640571 0.932264
O O7 0.550760 0.242418 0.654736
O O8 0.562890 0.279996 0.507578
O O9 0.036457 0.559153 0.864455
O O10 0.000000 0.500000 0.000000
O O11 0.500000 0.837308 0.750000
O O12 0.250000 0.750000 0.500000
#
# Coordination Sequence:
#
# PCOD9293892 Si02
#       6
#     4   8   8   8   4   8
#     4  12  26  48  71 113 154 198 260 322 394 476
#     4  10  25  49  75 107 154 196 265 332 390 474
#     4  12  28  46  75 113 150 207 261 319 402 475
#     4  11  26  45  77 110 152 204 261 327 398 470
#     4  10  22  52  73 115 152 202 262 332 402 466
#     4  12  25  45  71 104 156 200 249 316 389 474
#
# _framework density 24.523142
#
# number of rings (size 3 to 8) (size 9 to 14) (size 15 to 20)
#    0.000    0.800    6.000    0.000   12.600    1.600 
#    0.000    0.000    0.000    0.000    0.000    0.000 
#    0.000    0.000    0.000    0.000    0.000    0.000 
#
# Total GULP energy -111371.339003 kJ/mol
# GULP energy per Si atom -5568.566950 kJ/mol
# Density = 2.446733 g / cm^3
# Si number density = 24.523142 Si / 1000 Ang^3
#
#
#
# Elastic Constant Matrix: (Units=GPa)
#
#
# Indices 1 2 3 4 5 6 
#
# 1 86.0793 19.2544 32.5455 0.0030 -0.2703 0.0012
# 2 19.2544 103.2461 48.9093 0.0010 -6.2938 0.0000
# 3 32.5455 48.9093 159.9940 0.0126 -7.6540 0.0063
# 4 0.0030 0.0010 0.0126 49.0803 0.0050 -5.6181
# 5 -0.2703 -6.2938 -7.6540 0.0050 33.7231 0.0022
# 6 0.0012 0.0000 0.0063 -5.6181 0.0022 36.4283
#
#
#
# Elastic Compliance Matrix: (Units=1/GPa)
#
#
# Indices 1 2 3 4 5 6 
#
# 1 0.012757 -0.001374 -0.002206 0.000000 -0.000655 0.000000
# 2 -0.001374 0.011534 -0.003179 0.000001 0.001420 0.000001
# 3 -0.002206 -0.003179 0.007725 -0.000002 0.001143 -0.000002
# 4 0.000000 0.000001 -0.000002 0.020741 -0.000004 0.003199
# 5 -0.000655 0.001420 0.001143 -0.000004 0.030172 -0.000003
# 6 0.000000 0.000001 -0.000002 0.003199 -0.000003 0.027945
#
#
# Mechanical properties :
#
#
# Convention : Reuss Voigt Hill
#
# Bulk Modulus (GPa) = 54.05730 61.19311 57.62520
# Shear Modulus (GPa) = 38.29736 40.42034 39.35885
#
# Velocity S-wave (km/s) = 3.95610 4.06427 4.01055
# Velocity P-wave (km/s) = 6.55430 6.85797 6.70786
#
# Compressibility (1/GPa) = 0.01849889
#
# Stress axis : x y z
#
# Youngs Moduli (GPa) = 78.39080 86.69966 129.44412
#
# Poissons Ratio (x) = 0.11910 0.28559
# Poissons Ratio (y) = 0.10769 0.41144
# Poissons Ratio (z) = 0.17295 0.27558
#
# Static dielectric constant tensor:
#      x y z
#    x 2.111740 0.000000 0.153030 
#    y 0.000000 1.948340 0.000000 
#    z 0.153030 0.000000 2.297200 
# 
# From -- ./inp_files/206884.got.cif
#   From: 2010.05.17/outbox.cif.g08.bks.cpg/sg15_104_cif.got.tgz:206884.got - 2010.06.03 18:47:42.
