data_PCOD9293981
_publ_section_title
;
Structure prediction by ZEFSAII (Michael W. Deem and Ramdas Pophale) SiO2 
 PCOD9293981
Probable space group: C 2/C
;
_chemical_formula_sum "Si O2"
_cell_formula_units_Z 56
_cell_length_a 27.958517
_cell_length_b 9.450120
_cell_length_c 11.174547
_cell_angle_alpha 90.000000
_cell_angle_beta 121.050574
_cell_angle_gamma 90.000000
_cell_volume 2529.393567
_symmetry_space_group_name_H-M "C 2/C"
_symmetry_group_IT_number 15
_symmetry_cell_setting 'monoclinic'
loop_
_space_group_symop_operation_xyz
x,y,z
-x,y,1/2-z
-x,-y,-z
x,-y,1/2+z
1/2+x,1/2+y,z
1/2-x,1/2+y,1/2-z
1/2-x,1/2-y,-z
1/2+x,1/2-y,1/2+z
loop_
_atom_site_type_symbol
_atom_site_label
_atom_site_fract_x
_atom_site_fract_y
_atom_site_fract_z
Si Si1 0.652821 0.720888 0.785031
Si Si2 0.185451 0.915526 0.871406
Si Si3 0.115077 0.502442 0.377583
Si Si4 0.924959 0.231756 0.286539
Si Si5 0.500000 0.556685 0.250000
Si Si6 0.794479 0.694702 0.390023
Si Si7 0.973403 0.815988 0.406697
Si Si8 0.000000 0.414710 0.750000
O O1 0.678093 0.582389 0.881223
O O2 0.693910 0.763869 0.730917
O O3 0.592315 0.674759 0.651205
O O4 0.640409 0.852858 0.857374
O O5 0.127535 0.859352 0.740790
O O6 0.234990 0.872264 0.846231
O O7 0.196063 0.827994 0.007770
O O8 0.097280 0.390576 0.251720
O O9 0.160151 0.422898 0.515053
O O10 0.055613 0.511445 0.368997
O O11 0.945983 0.158220 0.189629
O O12 0.980650 0.218136 0.435279
O O13 0.494500 0.450614 0.355852
O O14 0.976729 0.682976 0.323295
#
# Coordination Sequence:
#
# PCOD9293981 Si02
#       8
#     8   8   8   8   4   8   8   4
#     4  11  24  44  68  98 132 174 226 281 336 407
#     4  10  24  46  64  98 129 173 231 272 331 414
#     4  10  24  41  63  99 130 175 227 266 342 401
#     4  11  23  37  65  94 132 171 218 270 330 403
#     4  11  21  38  60  98 136 176 222 272 334 402
#     4  10  25  46  69  93 136 176 223 287 332 388
#     4  10  23  37  62  98 132 168 224 266 335 404
#     4   9  21  40  56  92 132 164 208 272 324 402
#
# _framework density 22.139695
#
# number of rings (size 3 to 8) (size 9 to 14) (size 15 to 20)
#    0.000    1.714    1.429    0.857    8.000    5.143 
#    0.000    0.000    0.000    0.000    0.000    0.000 
#    0.000    0.000    0.000    0.000    0.000    0.000 
#
# Total GULP energy -156260.238186 kJ/mol
# GULP energy per Si atom -5580.722792 kJ/mol
# Density = 2.208930 g / cm^3
# Si number density = 22.139695 Si / 1000 Ang^3
#
#
#
# Elastic Constant Matrix: (Units=GPa)
#
#
# Indices 1 2 3 4 5 6 
#
# 1 135.4374 35.1109 -7.7008 0.0000 14.1731 0.0000
# 2 35.1109 148.4297 5.0357 0.0000 6.6422 0.0000
# 3 -7.7008 5.0357 9.9630 0.0000 4.2361 0.0000
# 4 0.0000 0.0000 0.0000 21.1330 0.0000 -18.6791
# 5 14.1731 6.6422 4.2361 0.0000 22.7583 0.0000
# 6 0.0000 0.0000 0.0000 -18.6791 0.0000 57.3870
#
#
#
# Elastic Compliance Matrix: (Units=1/GPa)
#
#
# Indices 1 2 3 4 5 6 
#
# 1 0.009400 -0.002287 0.011540 0.000000 -0.007335 0.000000
# 2 -0.002287 0.007457 -0.005665 0.000000 0.000302 0.000000
# 3 0.011540 -0.005665 0.124349 0.000000 -0.028679 0.000000
# 4 0.000000 0.000000 0.000000 0.066432 0.000000 0.021623
# 5 -0.007335 0.000302 -0.028679 0.000000 0.053758 0.000000
# 6 0.000000 0.000000 0.000000 0.021623 0.000000 0.024464
#
#
# Mechanical properties :
#
#
# Convention : Reuss Voigt Hill
#
# Bulk Modulus (GPa) = 6.73937 39.85798 23.29868
# Shear Modulus (GPa) = 15.23726 37.68127 26.45926
#
# Velocity S-wave (km/s) = 2.62626 4.12998 3.46078
# Velocity P-wave (km/s) = 3.49957 6.38626 5.14934
#
# Compressibility (1/GPa) = 0.14838176
#
# Stress axis : x y z
#
# Youngs Moduli (GPa) = 106.38269 134.10535 8.04190
#
# Poissons Ratio (x) = 0.30668 -0.09280
# Poissons Ratio (y) = 0.24328 0.04556
# Poissons Ratio (z) = -1.22767 0.75973
#
# Static dielectric constant tensor:
#      x y z
#    x 1.861940 0.000000 -0.017500 
#    y 0.000000 1.868810 0.000000 
#    z -0.017500 0.000000 1.908210 
# 
# From -- ./inp_files/122023.got.cif
#   From: 2010.05.17/outbox.cif.g08.bks.cpg/sg15_62_cif.got.tgz:122023.got - 2010.06.03 18:47:42.
