data_PCOD9293196
_publ_section_title
;
Structure prediction by ZEFSAII (Michael W. Deem and Ramdas Pophale) SiO2 
 PCOD9293196
Probable space group: C 2/C
;
_chemical_formula_sum "Si O2"
_cell_formula_units_Z 40
_cell_length_a 12.021098
_cell_length_b 14.341053
_cell_length_c 8.868487
_cell_angle_alpha 90.000000
_cell_angle_beta 88.367310
_cell_angle_gamma 90.000000
_cell_volume 1528.263927
_symmetry_space_group_name_H-M "C 2/C"
_symmetry_group_IT_number 15
_symmetry_cell_setting 'monoclinic'
loop_
_space_group_symop_operation_xyz
x,y,z
-x,y,1/2-z
-x,-y,-z
x,-y,1/2+z
1/2+x,1/2+y,z
1/2-x,1/2+y,1/2-z
1/2-x,1/2-y,-z
1/2+x,1/2-y,1/2+z
loop_
_atom_site_type_symbol
_atom_site_label
_atom_site_fract_x
_atom_site_fract_y
_atom_site_fract_z
Si Si1 0.450923 0.411045 0.584962
Si Si2 0.740596 0.984237 0.730254
Si Si3 0.579466 0.783234 0.543106
Si Si4 0.133388 0.608193 0.517759
Si Si5 0.757580 0.188385 0.769035
O O1 0.500000 0.402780 0.750000
O O2 0.500000 0.500000 0.500000
O O3 0.319672 0.425181 0.619640
O O4 0.473386 0.316804 0.494865
O O5 0.647772 0.762756 0.693619
O O6 0.803521 0.081889 0.766774
O O7 0.708906 0.929826 0.880381
O O8 0.484824 0.859822 0.536956
O O9 0.666620 0.804079 0.405312
O O10 0.635395 0.024416 0.641502
O O11 0.191362 0.690303 0.614263
#
# Coordination Sequence:
#
# PCOD9293196 Si02
#       5
#     8   8   8   8   8
#     4  12  25  45  76 104 146 210 263 318 389 467
#     4  10  23  46  76 112 154 202 261 328 391 480
#     4  11  22  46  72 114 152 205 261 326 391 466
#     4  10  22  44  79 111 154 204 258 330 395 464
#     4   9  22  42  75 103 160 198 256 318 389 471
#
# _framework density 26.173489
#
# number of rings (size 3 to 8) (size 9 to 14) (size 15 to 20)
#    1.200    0.400    0.000    5.400    0.000    0.800 
#    3.600    3.000   17.600    0.000    0.000    0.000 
#    0.000    0.000    0.000    0.000    0.000    0.000 
#
# Total GULP energy -112057.558656 kJ/mol
# GULP energy per Si atom -5602.877933 kJ/mol
# Density = 2.611392 g / cm^3
# Si number density = 26.173489 Si / 1000 Ang^3
#
#
#
# Elastic Constant Matrix: (Units=GPa)
#
#
# Indices 1 2 3 4 5 6 
#
# 1 131.5936 46.0698 39.4653 0.0000 28.3912 0.0000
# 2 46.0698 65.5993 29.0736 0.0000 22.7909 0.0000
# 3 39.4653 29.0736 99.1180 0.0000 7.5017 0.0000
# 4 0.0000 0.0000 0.0000 62.8024 0.0000 11.3039
# 5 28.3912 22.7909 7.5017 0.0000 29.5512 0.0000
# 6 0.0000 0.0000 0.0000 11.3039 0.0000 62.1324
#
#
#
# Elastic Compliance Matrix: (Units=1/GPa)
#
#
# Indices 1 2 3 4 5 6 
#
# 1 0.011463 -0.004442 -0.002740 0.000000 -0.006892 0.000000
# 2 -0.004442 0.025282 -0.004583 0.000000 -0.014068 0.000000
# 3 -0.002740 -0.004583 0.012293 0.000000 0.003046 0.000000
# 4 0.000000 0.000000 0.000000 0.016462 0.000000 -0.002995
# 5 -0.006892 -0.014068 0.003046 0.000000 0.050537 0.000000
# 6 0.000000 0.000000 0.000000 -0.002995 0.000000 0.016640
#
#
# Mechanical properties :
#
#
# Convention : Reuss Voigt Hill
#
# Bulk Modulus (GPa) = 39.19964 58.39203 48.79584
# Shear Modulus (GPa) = 30.35689 43.01069 36.68379
#
# Velocity S-wave (km/s) = 3.40933 4.05815 3.74781
# Velocity P-wave (km/s) = 5.52335 6.65704 6.11652
#
# Compressibility (1/GPa) = 0.02551044
#
# Stress axis : x y z
#
# Youngs Moduli (GPa) = 87.24038 39.55417 81.34398
#
# Poissons Ratio (x) = 0.17568 0.22285
# Poissons Ratio (y) = 0.38748 0.37277
# Poissons Ratio (z) = 0.23900 0.18126
#
# Static dielectric constant tensor:
#      x y z
#    x 2.093950 0.000000 0.065350 
#    y 0.000000 2.068040 0.000000 
#    z 0.065350 0.000000 1.996590 
# 
# From -- ./inp_files/94890.got.cif
#   From: 2010.05.17/outbox.cif.g08.bks.cpg/sg15_48_cif.got.tgz:94890.got - 2010.06.03 18:47:42.
