data_PCOD9293954
_publ_section_title
;
Structure prediction by ZEFSAII (Michael W. Deem and Ramdas Pophale) SiO2 
 PCOD9293954
Probable space group: C 2/C
;
_chemical_formula_sum "Si O2"
_cell_formula_units_Z 44
_cell_length_a 30.753773
_cell_length_b 7.289974
_cell_length_c 11.811652
_cell_angle_alpha 90.000000
_cell_angle_beta 39.449431
_cell_angle_gamma 90.000000
_cell_volume 1682.597139
_symmetry_space_group_name_H-M "C 2/C"
_symmetry_group_IT_number 15
_symmetry_cell_setting 'monoclinic'
loop_
_space_group_symop_operation_xyz
x,y,z
-x,y,1/2-z
-x,-y,-z
x,-y,1/2+z
1/2+x,1/2+y,z
1/2-x,1/2+y,1/2-z
1/2-x,1/2-y,-z
1/2+x,1/2-y,1/2+z
loop_
_atom_site_type_symbol
_atom_site_label
_atom_site_fract_x
_atom_site_fract_y
_atom_site_fract_z
Si Si1 0.057446 0.653583 0.857182
Si Si2 0.802395 0.841707 0.241387
Si Si3 0.147374 0.688606 0.138352
Si Si4 0.739494 0.748954 0.154240
Si Si5 0.603112 0.157912 0.995663
Si Si6 0.000000 0.669764 0.750000
O O1 0.123207 0.522920 0.699166
O O2 0.073046 0.753764 0.943824
O O3 0.029124 0.761967 0.805351
O O4 0.000000 0.500000 0.000000
O O5 0.854568 0.781123 0.234587
O O6 0.725845 0.788741 0.439931
O O7 0.803178 0.776765 0.109654
O O8 0.798587 0.059839 0.243256
O O9 0.103306 0.754081 0.118267
O O10 0.681623 0.894779 0.307538
O O11 0.750000 0.750000 0.000000
O O12 0.560320 0.972259 0.096049
#
# Coordination Sequence:
#
# PCOD9293954 Si02
#       6
#     8   8   8   8   8   4
#     4   9  16  30  54  85 108 143 195 245 290 345
#     4  10  23  37  57  83 121 159 196 244 299 359
#     4   9  19  34  56  77 116 153 195 239 298 342
#     4  11  24  37  58  89 123 154 200 238 302 361
#     4   9  18  32  56  80 110 147 193 235 294 343
#     4   8  16  32  54  82 112 144 190 246 294 342
#
# _framework density 26.150051000000001
#
# number of rings (size 3 to 8) (size 9 to 14) (size 15 to 20)
#    0.000    2.545    0.000    1.091   12.727    0.000 
#    3.273    0.000    0.000    9.818    0.000    1.273 
#    0.000    0.000    0.000    0.000    0.000    0.000 
#
# Total GULP energy -122736.333761 kJ/mol
# GULP energy per Si atom -5578.924262 kJ/mol
# Density = 2.609053 g / cm^3
# Si number density = 26.150051 Si / 1000 Ang^3
#
#
#
# Elastic Constant Matrix: (Units=GPa)
#
#
# Indices 1 2 3 4 5 6 
#
# 1 296.2634 43.9777 54.2926 0.0000 88.2416 0.0000
# 2 43.9777 48.3654 19.8527 0.0000 18.9094 -0.0001
# 3 54.2926 19.8527 94.2489 0.0000 24.6508 0.0000
# 4 0.0000 0.0000 0.0000 14.0829 0.0000 4.3376
# 5 88.2416 18.9094 24.6508 0.0000 59.5417 0.0000
# 6 0.0000 -0.0001 0.0000 4.3376 0.0000 29.6403
#
#
#
# Elastic Compliance Matrix: (Units=1/GPa)
#
#
# Indices 1 2 3 4 5 6 
#
# 1 0.006357 -0.002098 -0.001043 0.000000 -0.008323 0.000000
# 2 -0.002098 0.025299 -0.003176 0.000000 -0.003610 0.000000
# 3 -0.001043 -0.003176 0.012573 0.000000 -0.002651 0.000000
# 4 0.000000 0.000000 0.000000 0.074360 0.000000 -0.010882
# 5 -0.008323 -0.003610 -0.002651 0.000000 0.031374 0.000000
# 6 0.000000 0.000000 0.000000 -0.010882 0.000000 0.035330
#
#
# Mechanical properties :
#
#
# Convention : Reuss Voigt Hill
#
# Bulk Modulus (GPa) = 31.65101 75.01374 53.33237
# Shear Modulus (GPa) = 23.98550 42.03662 33.01106
#
# Velocity S-wave (km/s) = 3.03186 4.01373 3.55684
# Velocity P-wave (km/s) = 4.93823 7.08719 6.10796
#
# Compressibility (1/GPa) = 0.03159457
#
# Stress axis : x y z
#
# Youngs Moduli (GPa) = 157.30848 39.52746 79.53241
#
# Poissons Ratio (x) = 0.08293 0.08297
# Poissons Ratio (y) = 0.33004 0.25261
# Poissons Ratio (z) = 0.16410 0.12554
#
# Static dielectric constant tensor:
#      x y z
#    x 2.152800 0.000000 0.007430 
#    y 0.000000 1.829480 0.000000 
#    z 0.007430 0.000000 2.181600 
# 
# From -- ./inp_files/110100.got.cif
#   From: 2010.05.17/outbox.cif.g08.bks.cpg/sg15_56_cif.got.tgz:110100.got - 2010.06.03 18:47:42.
