data_PCOD9293675
_publ_section_title
;
Structure prediction by ZEFSAII (Michael W. Deem and Ramdas Pophale) SiO2 
 PCOD9293675
Probable space group: C 2/C
;
_chemical_formula_sum "Si O2"
_cell_formula_units_Z 44
_cell_length_a 15.217411
_cell_length_b 9.417329
_cell_length_c 14.295962
_cell_angle_alpha 90.000000
_cell_angle_beta 61.698254
_cell_angle_gamma 90.000000
_cell_volume 1803.819022
_symmetry_space_group_name_H-M "C 2/C"
_symmetry_group_IT_number 15
_symmetry_cell_setting 'monoclinic'
loop_
_space_group_symop_operation_xyz
x,y,z
-x,y,1/2-z
-x,-y,-z
x,-y,1/2+z
1/2+x,1/2+y,z
1/2-x,1/2+y,1/2-z
1/2-x,1/2-y,-z
1/2+x,1/2-y,1/2+z
loop_
_atom_site_type_symbol
_atom_site_label
_atom_site_fract_x
_atom_site_fract_y
_atom_site_fract_z
Si Si1 0.907728 0.527306 0.478716
Si Si2 0.553939 0.331590 0.996771
Si Si3 0.000000 0.386035 0.750000
Si Si4 0.649214 0.686568 0.781507
Si Si5 0.049557 0.080088 0.129468
Si Si6 0.222732 0.114651 0.160215
O O1 0.817474 0.428212 0.549848
O O2 0.000000 0.500000 0.500000
O O3 0.884115 0.693013 0.509821
O O4 0.954791 0.518421 0.353517
O O5 0.441457 0.326218 0.097386
O O6 0.596392 0.462347 0.036120
O O7 0.532084 0.348342 0.897419
O O8 0.907994 0.285583 0.764619
O O9 0.688559 0.534937 0.725569
O O10 0.738815 0.773477 0.783563
O O11 0.136982 0.168974 0.133358
O O12 0.000000 0.017837 0.250000
#
# Coordination Sequence:
#
# PCOD9293675 Si02
#       6
#     8   8   4   8   8   8
#     4  11  23  45  66 104 131 177 226 281 341 399
#     4  10  23  45  69  94 141 177 227 285 340 407
#     4  10  22  46  72  92 144 184 216 288 342 408
#     4  11  24  44  69 103 138 179 230 279 341 410
#     4  11  24  44  69  99 138 183 224 283 345 407
#     4  12  25  43  72 104 137 180 235 276 343 410
#
# _framework density 24.392692
#
# number of rings (size 3 to 8) (size 9 to 14) (size 15 to 20)
#    0.000    1.091    5.455    2.182    3.818    5.091 
#    4.909    0.000    0.000    0.000    0.000    0.000 
#    0.000    0.000    0.000    0.000    0.000    0.000 
#
# Total GULP energy -122951.116849 kJ/mol
# GULP energy per Si atom -5588.687129 kJ/mol
# Density = 2.433717 g / cm^3
# Si number density = 24.392692 Si / 1000 Ang^3
#
#
#
# Elastic Constant Matrix: (Units=GPa)
#
#
# Indices 1 2 3 4 5 6 
#
# 1 98.7771 6.3759 31.2794 0.0000 25.2031 0.0000
# 2 6.3759 46.2949 25.1499 0.0000 4.2895 0.0000
# 3 31.2794 25.1499 150.6213 0.0000 24.6469 0.0000
# 4 0.0000 0.0000 0.0000 31.5704 0.0000 2.2808
# 5 25.2031 4.2895 24.6469 0.0000 38.4038 0.0000
# 6 0.0000 0.0000 0.0000 2.2808 0.0000 31.3586
#
#
#
# Elastic Compliance Matrix: (Units=1/GPa)
#
#
# Indices 1 2 3 4 5 6 
#
# 1 0.012420 -0.000310 -0.001340 0.000000 -0.007256 0.000000
# 2 -0.000310 0.023764 -0.003913 0.000000 0.000061 0.000000
# 3 -0.001340 -0.003913 0.008219 0.000000 -0.003958 0.000000
# 4 0.000000 0.000000 0.000000 0.031843 0.000000 -0.002316
# 5 -0.007256 0.000061 -0.003958 0.000000 0.033334 0.000000
# 6 0.000000 0.000000 0.000000 -0.002316 0.000000 0.032058
#
#
# Mechanical properties :
#
#
# Convention : Reuss Voigt Hill
#
# Bulk Modulus (GPa) = 30.05317 46.81154 38.43236
# Shear Modulus (GPa) = 30.51476 35.79243 33.15359
#
# Velocity S-wave (km/s) = 3.54076 3.83475 3.69068
# Velocity P-wave (km/s) = 5.39103 6.23213 5.82678
#
# Compressibility (1/GPa) = 0.03327435
#
# Stress axis : x y z
#
# Youngs Moduli (GPa) = 80.51849 42.08093 121.67566
#
# Poissons Ratio (x) = 0.01305 0.16305
# Poissons Ratio (y) = 0.02498 0.47618
# Poissons Ratio (z) = 0.10790 0.16468
#
# Static dielectric constant tensor:
#      x y z
#    x 1.947600 0.000000 -0.010170 
#    y 0.000000 2.068510 0.000000 
#    z -0.010170 0.000000 1.981350 
# 
# From -- ./inp_files/95003.got.cif
#   From: 2010.05.17/outbox.cif.g08.bks.cpg/sg15_48_cif.got.tgz:95003.got - 2010.06.03 18:47:42.
