data_PCOD9293963
_publ_section_title
;
Structure prediction by ZEFSAII (Michael W. Deem and Ramdas Pophale) SiO2 
 PCOD9293963
Probable space group: C 2/C
;
_chemical_formula_sum "Si O2"
_cell_formula_units_Z 52
_cell_length_a 12.618333
_cell_length_b 7.661170
_cell_length_c 28.170922
_cell_angle_alpha 90.000000
_cell_angle_beta 53.455782
_cell_angle_gamma 90.000000
_cell_volume 2187.905989
_symmetry_space_group_name_H-M "C 2/C"
_symmetry_group_IT_number 15
_symmetry_cell_setting 'monoclinic'
loop_
_space_group_symop_operation_xyz
x,y,z
-x,y,1/2-z
-x,-y,-z
x,-y,1/2+z
1/2+x,1/2+y,z
1/2-x,1/2+y,1/2-z
1/2-x,1/2-y,-z
1/2+x,1/2-y,1/2+z
loop_
_atom_site_type_symbol
_atom_site_label
_atom_site_fract_x
_atom_site_fract_y
_atom_site_fract_z
Si Si1 0.500610 0.016935 0.342056
Si Si2 0.681706 0.495861 0.240938
Si Si3 0.005970 0.875750 0.627749
Si Si4 0.000000 0.694074 0.250000
Si Si5 0.485286 0.854981 0.946190
Si Si6 0.232354 0.948910 0.628317
Si Si7 0.929960 0.729223 0.557694
O O1 0.660632 0.999115 0.295177
O O2 0.443611 0.077539 0.307424
O O3 0.465574 0.146638 0.395025
O O4 0.459336 0.824002 0.367982
O O5 0.612490 0.567043 0.306360
O O6 0.607024 0.315944 0.248018
O O7 0.660713 0.598861 0.196565
O O8 0.135722 0.971191 0.610675
O O9 0.973718 0.881397 0.580868
O O10 0.642533 0.823853 0.911472
O O11 0.468550 0.062805 0.964168
O O12 0.412674 0.746198 0.006219
O O13 0.302469 0.137932 0.615231
#
# Coordination Sequence:
#
# PCOD9293963 Si02
#       7
#     8   8   8   4   8   8   8
#     4  10  23  37  59  86 115 154 197 239 294 351
#     4  11  21  38  56  82 120 153 187 246 295 344
#     4  11  19  32  58  87 111 152 199 234 288 356
#     4  12  24  38  58  84 118 156 190 232 306 348
#     4   7  15  35  52  81 118 150 188 244 286 341
#     4   9  17  31  54  81 117 148 192 239 288 340
#     4   8  16  32  54  84 114 154 191 236 295 336
#
# _framework density 23.767018
#
# number of rings (size 3 to 8) (size 9 to 14) (size 15 to 20)
#    0.923    1.538    3.077    0.923    2.154    0.615 
#    0.000    0.000    0.000    1.846    0.000    0.000 
#    0.000    2.769    0.000    0.000    0.000    0.000 
#
# Total GULP energy -144818.704834 kJ/mol
# GULP energy per Si atom -5569.950186 kJ/mol
# Density = 2.371292 g / cm^3
# Si number density = 23.767018 Si / 1000 Ang^3
#
#
#
# Elastic Constant Matrix: (Units=GPa)
#
#
# Indices 1 2 3 4 5 6 
#
# 1 39.4663 19.2347 2.2825 0.0000 16.0406 0.0000
# 2 19.2347 32.9884 11.9068 0.0000 11.9826 0.0000
# 3 2.2825 11.9068 100.4190 0.0000 31.8948 0.0000
# 4 0.0000 0.0000 0.0000 25.3361 0.0000 8.2227
# 5 16.0406 11.9826 31.8948 0.0000 35.2646 0.0000
# 6 0.0000 0.0000 0.0000 8.2227 0.0000 19.5900
#
#
#
# Elastic Compliance Matrix: (Units=1/GPa)
#
#
# Indices 1 2 3 4 5 6 
#
# 1 0.042859 -0.020713 0.007630 0.000000 -0.019358 0.000000
# 2 -0.020713 0.044611 -0.004204 0.000000 -0.001934 0.000000
# 3 0.007630 -0.004204 0.015338 0.000000 -0.015915 0.000000
# 4 0.000000 0.000000 0.000000 0.045694 0.000000 -0.019180
# 5 -0.019358 -0.001934 -0.015915 0.000000 0.052213 0.000000
# 6 0.000000 0.000000 0.000000 -0.019180 0.000000 0.059097
#
#
# Mechanical properties :
#
#
# Convention : Reuss Voigt Hill
#
# Bulk Modulus (GPa) = 14.65526 26.63575 20.64550
# Shear Modulus (GPa) = 15.76635 25.33480 20.55058
#
# Velocity S-wave (km/s) = 2.57839 3.26845 2.94371
# Velocity P-wave (km/s) = 3.87863 5.04728 4.50105
#
# Compressibility (1/GPa) = 0.06823488
#
# Stress axis : x y z
#
# Youngs Moduli (GPa) = 23.33206 22.41612 65.19724
#
# Poissons Ratio (x) = 0.46430 -0.49747
# Poissons Ratio (y) = 0.48327 0.27411
# Poissons Ratio (z) = -0.17803 0.09425
#
# Static dielectric constant tensor:
#      x y z
#    x 1.947080 0.000000 0.010700 
#    y 0.000000 1.986710 0.000000 
#    z 0.010700 0.000000 1.973520 
# 
# From -- ./inp_files/312624.got.cif
#   From: 2010.05.17/outbox.cif.g08.bks.cpg/sg15_157_cif.got.tgz:312624.got - 2010.06.03 18:47:42.
