data_PCOD9293325
_publ_section_title
;
Structure prediction by ZEFSAII (Michael W. Deem and Ramdas Pophale) SiO2 
 PCOD9293325
Probable space group: C 2/C
;
_chemical_formula_sum "Si O2"
_cell_formula_units_Z 40
_cell_length_a 21.358344
_cell_length_b 12.792303
_cell_length_c 17.985566
_cell_angle_alpha 90.000000
_cell_angle_beta 159.174632
_cell_angle_gamma 90.000000
_cell_volume 1747.050549
_symmetry_space_group_name_H-M "C 2/C"
_symmetry_group_IT_number 15
_symmetry_cell_setting 'monoclinic'
loop_
_space_group_symop_operation_xyz
x,y,z
-x,y,1/2-z
-x,-y,-z
x,-y,1/2+z
1/2+x,1/2+y,z
1/2-x,1/2+y,1/2-z
1/2-x,1/2-y,-z
1/2+x,1/2-y,1/2+z
loop_
_atom_site_type_symbol
_atom_site_label
_atom_site_fract_x
_atom_site_fract_y
_atom_site_fract_z
Si Si1 0.146107 0.167271 0.573154
Si Si2 0.235115 0.618209 0.109066
Si Si3 0.657529 0.854744 0.867562
Si Si4 0.426565 0.071904 0.985615
Si Si5 0.797777 0.081885 0.018767
O O1 0.145162 0.289720 0.555250
O O2 0.266621 0.140438 0.776655
O O3 0.246912 0.117866 0.613368
O O4 0.946851 0.124189 0.357544
O O5 0.155081 0.509274 0.046032
O O6 0.204875 0.631054 0.987191
O O7 0.500000 0.872825 0.750000
O O8 0.571453 0.858039 0.689365
O O9 0.750000 0.750000 0.000000
O O10 0.779472 0.957189 0.004848
O O11 0.500000 0.000000 0.000000
O O12 0.000000 0.112995 0.250000
#
# Coordination Sequence:
#
# PCOD9293325 Si02
#       5
#     8   8   8   8   8
#     4  11  24  43  72 107 141 187 237 297 362 429
#     4  11  24  44  70 105 142 187 235 293 362 430
#     4  12  26  46  72 100 140 189 239 290 364 434
#     4  12  25  46  70 103 144 186 239 303 355 430
#     4  10  22  45  70 101 140 179 236 291 348 424
#
# _framework density 22.895733
#
# number of rings (size 3 to 8) (size 9 to 14) (size 15 to 20)
#    0.000    0.800    4.000    3.000    0.000    3.200 
#    7.200    0.000    0.000    0.000    0.000    0.000 
#    0.000    0.000    0.000    0.000    0.000    0.000 
#
# Total GULP energy -111891.594436 kJ/mol
# GULP energy per Si atom -5594.579722 kJ/mol
# Density = 2.284362 g / cm^3
# Si number density = 22.895733 Si / 1000 Ang^3
#
#
#
# Elastic Constant Matrix: (Units=GPa)
#
#
# Indices 1 2 3 4 5 6 
#
# 1 81.5479 20.0448 40.4245 0.0009 -7.3142 0.0003
# 2 20.0448 121.0119 36.0472 0.0017 -13.6450 0.0008
# 3 40.4245 36.0472 117.3071 0.0022 -5.8298 0.0013
# 4 0.0009 0.0017 0.0022 38.4923 0.0009 1.0333
# 5 -7.3142 -13.6450 -5.8298 0.0009 30.5238 0.0003
# 6 0.0003 0.0008 0.0013 1.0333 0.0003 32.1675
#
#
#
# Elastic Compliance Matrix: (Units=1/GPa)
#
#
# Indices 1 2 3 4 5 6 
#
# 1 0.015061 -0.000793 -0.004831 0.000000 0.002332 0.000000
# 2 -0.000793 0.009540 -0.002479 0.000000 0.003601 0.000000
# 3 -0.004831 -0.002479 0.010942 0.000000 -0.000176 0.000000
# 4 0.000000 0.000000 0.000000 0.026002 -0.000001 -0.000835
# 5 0.002332 0.003601 -0.000176 -0.000001 0.034896 0.000000
# 6 0.000000 0.000000 0.000000 -0.000835 0.000000 0.031114
#
#
# Mechanical properties :
#
#
# Convention : Reuss Voigt Hill
#
# Bulk Modulus (GPa) = 51.71224 56.98888 54.35056
# Shear Modulus (GPa) = 33.28742 35.12674 34.20708
#
# Velocity S-wave (km/s) = 3.81710 3.92114 3.86947
# Velocity P-wave (km/s) = 6.48552 6.74130 6.61465
#
# Compressibility (1/GPa) = 0.01933778
#
# Stress axis : x y z
#
# Youngs Moduli (GPa) = 66.39468 104.82694 91.38760
#
# Poissons Ratio (x) = 0.08312 0.44147
# Poissons Ratio (y) = 0.05264 0.22657
# Poissons Ratio (z) = 0.32073 0.25989
#
# Static dielectric constant tensor:
#      x y z
#    x 1.873630 0.000000 -0.035970 
#    y 0.000000 1.847310 0.000000 
#    z -0.035970 0.000000 1.875150 
# 
# From -- ./inp_files/46242.got.cif
#   From: 2010.05.17/outbox.cif.g08.bks.cpg/sg15_24_cif.got.tgz:46242.got - 2010.06.03 18:47:42.
