data_PCOD9293175
_publ_section_title
;
Structure prediction by ZEFSAII (Michael W. Deem and Ramdas Pophale) SiO2 
 PCOD9293175
Probable space group: C 2/C
;
_chemical_formula_sum "Si O2"
_cell_formula_units_Z 44
_cell_length_a 9.596875
_cell_length_b 23.078549
_cell_length_c 9.223179
_cell_angle_alpha 90.000000
_cell_angle_beta 61.986412
_cell_angle_gamma 90.000000
_cell_volume 1803.429309
_symmetry_space_group_name_H-M "C 2/C"
_symmetry_group_IT_number 15
_symmetry_cell_setting 'monoclinic'
loop_
_space_group_symop_operation_xyz
x,y,z
-x,y,1/2-z
-x,-y,-z
x,-y,1/2+z
1/2+x,1/2+y,z
1/2-x,1/2+y,1/2-z
1/2-x,1/2-y,-z
1/2+x,1/2-y,1/2+z
loop_
_atom_site_type_symbol
_atom_site_label
_atom_site_fract_x
_atom_site_fract_y
_atom_site_fract_z
Si Si1 0.667700 0.209884 0.352161
Si Si2 0.261444 0.103744 0.605056
Si Si3 0.500000 0.304504 0.250000
Si Si4 0.000000 0.188377 0.250000
Si Si5 0.113571 0.984680 0.580489
Si Si6 0.500000 0.879017 0.750000
Si Si7 0.761300 0.628889 0.939677
O O1 0.565249 0.262878 0.345479
O O2 0.647814 0.275425 0.736469
O O3 0.637012 0.160335 0.249954
O O4 0.636729 0.175498 0.518343
O O5 0.172647 0.043029 0.628265
O O6 0.414009 0.093839 0.429586
O O7 0.294227 0.123090 0.753972
O O8 0.138244 0.154396 0.621933
O O9 0.912583 0.152192 0.421492
O O10 0.000000 0.954570 0.750000
O O11 0.254178 0.939140 0.486032
O O12 0.000000 0.000000 0.500000
#
# Coordination Sequence:
#
# PCOD9293175 Si02
#       7
#     8   8   4   4   8   4   8
#     4   9  23  45  76 106 153 198 242 323 380 455
#     4  12  27  45  74 115 151 205 256 321 374 468
#     4  11  24  47  80 112 151 198 264 303 394 449
#     4   8  20  43  76 109 144 192 246 314 376 438
#     4  12  22  40  76 115 149 197 255 315 377 462
#     4  11  28  48  68 107 163 198 252 315 394 435
#     4  10  22  44  76 112 153 191 258 306 385 453
#
# _framework density 24.397960999999999
#
# number of rings (size 3 to 8) (size 9 to 14) (size 15 to 20)
#    1.091    0.364    3.636    0.000    7.636    4.364 
#    0.000    3.636    0.000    1.091    0.000    0.000 
#    0.000    0.000    0.000    0.000    0.000    0.000 
#
# Total GULP energy -122588.179282 kJ/mol
# GULP energy per Si atom -5572.189967 kJ/mol
# Density = 2.434243 g / cm^3
# Si number density = 24.397961 Si / 1000 Ang^3
#
#
#
# Elastic Constant Matrix: (Units=GPa)
#
#
# Indices 1 2 3 4 5 6 
#
# 1 102.3352 54.1386 43.4868 0.0000 10.2660 0.0000
# 2 54.1386 128.9847 46.5176 0.0000 10.7912 0.0000
# 3 43.4868 46.5176 175.5709 0.0000 -1.8415 0.0000
# 4 0.0000 0.0000 0.0000 -208.2276 0.0000 -79.4263
# 5 10.2660 10.7912 -1.8415 0.0000 34.6905 0.0000
# 6 0.0000 0.0000 0.0000 -79.4263 0.0000 -24.8115
#
#
#
# Elastic Compliance Matrix: (Units=1/GPa)
#
#
# Indices 1 2 3 4 5 6 
#
# 1 0.013387 -0.004636 -0.002115 0.000000 -0.002632 0.000000
# 2 -0.004636 0.010456 -0.001643 0.000000 -0.001968 0.000000
# 3 -0.002115 -0.001643 0.006670 0.000000 0.001491 0.000000
# 4 0.000000 0.000000 0.000000 0.021725 0.000000 -0.069544
# 5 -0.002632 -0.001968 0.001491 0.000000 0.030296 0.000000
# 6 0.000000 0.000000 0.000000 -0.069544 0.000000 0.182320
#
#
# Mechanical properties :
#
#
# Convention : Reuss Voigt Hill
#
# Bulk Modulus (GPa) = 72.85494 77.24185 75.04839
# Shear Modulus (GPa) = 17.46922 -22.15322 -2.34200
#
# Velocity S-wave (km/s) = 2.67874 -3.01656 -0.98082
# Velocity P-wave (km/s) = 6.28438 4.42662 5.43546
#
# Compressibility (1/GPa) = 0.01372591
#
# Stress axis : x y z
#
# Youngs Moduli (GPa) = 74.69788 95.64112 149.91495
#
# Poissons Ratio (x) = 0.44339 0.31709
# Poissons Ratio (y) = 0.34630 0.24625
# Poissons Ratio (z) = 0.15800 0.15710
#
# Static dielectric constant tensor:
#      x y z
#    x 2.012820 0.000000 0.006790 
#    y 0.000000 1.926540 0.000000 
#    z 0.006790 0.000000 1.994520 
# 
# From -- ./inp_files/32465.got.cif
#   From: 2010.05.17/outbox.cif.g08.bks.cpg/sg15_17_cif.got.tgz:32465.got - 2010.06.03 18:47:42.
