data_PCOD9293877
_publ_section_title
;
Structure prediction by ZEFSAII (Michael W. Deem and Ramdas Pophale) SiO2 
 PCOD9293877
Probable space group: C 2/C
;
_chemical_formula_sum "Si O2"
_cell_formula_units_Z 36
_cell_length_a 18.989626
_cell_length_b 11.462343
_cell_length_c 13.880622
_cell_angle_alpha 90.000000
_cell_angle_beta 147.409563
_cell_angle_gamma 90.000000
_cell_volume 1627.381642
_symmetry_space_group_name_H-M "C 2/C"
_symmetry_group_IT_number 15
_symmetry_cell_setting 'monoclinic'
loop_
_space_group_symop_operation_xyz
x,y,z
-x,y,1/2-z
-x,-y,-z
x,-y,1/2+z
1/2+x,1/2+y,z
1/2-x,1/2+y,1/2-z
1/2-x,1/2-y,-z
1/2+x,1/2-y,1/2+z
loop_
_atom_site_type_symbol
_atom_site_label
_atom_site_fract_x
_atom_site_fract_y
_atom_site_fract_z
Si Si1 0.500000 0.816043 0.250000
Si Si2 0.455927 0.018882 0.058094
Si Si3 0.474443 0.592344 0.323462
Si Si4 0.667281 0.593631 0.711515
Si Si5 0.893972 0.729100 0.204523
O O1 0.426536 0.721057 0.234216
O O2 0.434288 0.903054 0.096986
O O3 0.571692 0.094483 0.238816
O O4 0.322916 0.093882 0.900070
O O5 0.500000 0.000000 0.000000
O O6 0.500000 0.532018 0.250000
O O7 0.610975 0.596663 0.539088
O O8 0.380749 0.521472 0.286209
O O9 0.599810 0.700837 0.688946
O O10 0.000000 0.771024 0.250000
O O11 0.750000 0.750000 0.000000
#
# Coordination Sequence:
#
# PCOD9293877 Si02
#       5
#     4   8   8   8   8
#     4  10  22  50  64 106 138 186 238 298 370 428
#     4  12  26  45  71 106 144 188 243 306 363 437
#     4   9  23  45  70 104 141 189 237 303 363 443
#     4  11  23  46  71 106 141 192 250 299 371 435
#     4  12  24  46  75 104 144 192 243 302 364 440
#
# _framework density 22.121423
#
# number of rings (size 3 to 8) (size 9 to 14) (size 15 to 20)
#    0.667    0.444    3.333    2.000    0.000    8.000 
#   16.000    0.000    0.000    0.000    0.000    0.000 
#    0.000    0.000    0.000    0.000    0.000    0.000 
#
# Total GULP energy -100407.526207 kJ/mol
# GULP energy per Si atom -5578.195900 kJ/mol
# Density = 2.207107 g / cm^3
# Si number density = 22.121423 Si / 1000 Ang^3
#
#
#
# Elastic Constant Matrix: (Units=GPa)
#
#
# Indices 1 2 3 4 5 6 
#
# 1 108.2814 28.0897 50.8265 0.0000 -22.1468 0.0000
# 2 28.0897 113.3262 17.4005 0.0000 -9.8068 0.0000
# 3 50.8265 17.4005 104.8162 0.0000 -8.8112 0.0000
# 4 0.0000 0.0000 0.0000 22.4244 0.0000 -2.9106
# 5 -22.1468 -9.8068 -8.8112 0.0000 48.1402 0.0000
# 6 0.0000 0.0000 0.0000 -2.9106 0.0000 0.5230
#
#
#
# Elastic Compliance Matrix: (Units=1/GPa)
#
#
# Indices 1 2 3 4 5 6 
#
# 1 0.013442 -0.002036 -0.005784 0.000000 0.004710 0.000000
# 2 -0.002036 0.009485 -0.000512 0.000000 0.000902 0.000000
# 3 -0.005784 -0.000512 0.012388 0.000000 -0.000498 0.000000
# 4 0.000000 0.000000 0.000000 0.160597 0.000000 0.893726
# 5 0.004710 0.000902 -0.000498 0.000000 0.023032 0.000000
# 6 0.000000 0.000000 0.000000 0.893726 0.000000 6.885591
#
#
# Mechanical properties :
#
#
# Convention : Reuss Voigt Hill
#
# Bulk Modulus (GPa) = 53.61305 57.67302 55.64303
# Shear Modulus (GPa) = 0.70152 29.55800 15.12976
#
# Velocity S-wave (km/s) = 0.56375 3.65933 2.61806
# Velocity P-wave (km/s) = 4.97113 6.63189 5.86064
#
# Compressibility (1/GPa) = 0.01865218
#
# Stress axis : x y z
#
# Youngs Moduli (GPa) = 74.39472 105.42581 80.72092
#
# Poissons Ratio (x) = 0.21465 0.46690
# Poissons Ratio (y) = 0.15147 0.04129
# Poissons Ratio (z) = 0.43031 0.05393
#
# Static dielectric constant tensor:
#      x y z
#    x 1.834200 0.000000 -0.065340 
#    y 0.000000 1.868460 0.000000 
#    z -0.065340 0.000000 1.883290 
# 
# From -- ./inp_files/167781.got.cif
#   From: 2010.05.17/outbox.cif.g08.bks.cpg/sg15_84_cif.got.tgz:167781.got - 2010.06.03 18:47:42.
