data_PCOD9293400
_publ_section_title
;
Structure prediction by ZEFSAII (Michael W. Deem and Ramdas Pophale) SiO2 
 PCOD9293400
Probable space group: C 2/C
;
_chemical_formula_sum "Si O2"
_cell_formula_units_Z 48
_cell_length_a 11.644416
_cell_length_b 17.530447
_cell_length_c 11.124608
_cell_angle_alpha 90.000000
_cell_angle_beta 76.419509
_cell_angle_gamma 90.000000
_cell_volume 2207.394757
_symmetry_space_group_name_H-M "C 2/C"
_symmetry_group_IT_number 15
_symmetry_cell_setting 'monoclinic'
loop_
_space_group_symop_operation_xyz
x,y,z
-x,y,1/2-z
-x,-y,-z
x,-y,1/2+z
1/2+x,1/2+y,z
1/2-x,1/2+y,1/2-z
1/2-x,1/2-y,-z
1/2+x,1/2-y,1/2+z
loop_
_atom_site_type_symbol
_atom_site_label
_atom_site_fract_x
_atom_site_fract_y
_atom_site_fract_z
Si Si1 0.157065 0.717824 0.429374
Si Si2 0.263308 0.820258 0.843693
Si Si3 0.431460 0.303335 0.429923
Si Si4 0.819044 0.465528 0.989203
Si Si5 0.504679 0.098301 0.613333
Si Si6 0.065316 0.981284 0.110635
O O1 0.250000 0.750000 0.500000
O O2 0.223385 0.680756 0.300923
O O3 0.069727 0.657594 0.511831
O O4 0.068054 0.782926 0.404922
O O5 0.357400 0.758319 0.871570
O O6 0.291642 0.901495 0.896625
O O7 0.133717 0.799681 0.924715
O O8 0.420507 0.389259 0.385335
O O9 0.915080 0.522582 0.911370
O O10 0.700425 0.508292 0.060104
O O11 0.878597 0.423106 0.087997
O O12 0.500000 0.126874 0.750000
O O13 0.000000 0.007102 0.250000
O O14 0.000000 0.000000 0.000000
#
# Coordination Sequence:
#
# PCOD9293400 Si02
#       6
#     8   8   8   8   8   8
#     4  12  27  40  69 102 137 172 220 292 343 396
#     4  10  22  45  72  92 130 179 236 265 340 421
#     4  10  23  44  69  92 126 179 225 277 332 419
#     4  10  25  46  71  98 135 189 226 281 342 420
#     4  11  27  42  70 102 141 176 230 284 339 409
#     4  11  26  45  71  99 136 181 235 288 347 416
#
# _framework density 21.745092
#
# number of rings (size 3 to 8) (size 9 to 14) (size 15 to 20)
#    0.000    1.333    1.667    1.500   11.667    1.333 
#    0.000    0.000    0.000    0.000    0.000    0.000 
#    0.000    0.000    0.000    0.000    0.000    0.000 
#
# Total GULP energy -134226.717107 kJ/mol
# GULP energy per Si atom -5592.779879 kJ/mol
# Density = 2.169560 g / cm^3
# Si number density = 21.745092 Si / 1000 Ang^3
#
#
#
# Elastic Constant Matrix: (Units=GPa)
#
#
# Indices 1 2 3 4 5 6 
#
# 1 102.2318 -12.6360 45.5113 0.0000 -12.9380 0.0000
# 2 -12.6360 33.5930 -9.3905 0.0000 2.7266 0.0000
# 3 45.5113 -9.3905 173.0311 0.0000 1.3142 0.0000
# 4 0.0000 0.0000 0.0000 16.0639 0.0000 5.6980
# 5 -12.9380 2.7266 1.3142 0.0000 19.2261 0.0000
# 6 0.0000 0.0000 0.0000 5.6980 0.0000 23.4819
#
#
#
# Elastic Compliance Matrix: (Units=1/GPa)
#
#
# Indices 1 2 3 4 5 6 
#
# 1 0.012657 0.003189 -0.003219 0.000000 0.008285 0.000000
# 2 0.003189 0.031407 0.000884 0.000000 -0.002369 0.000000
# 3 -0.003219 0.000884 0.006695 0.000000 -0.002749 0.000000
# 4 0.000000 0.000000 0.000000 0.068114 0.000000 -0.016528
# 5 0.008285 -0.002369 -0.002749 0.000000 0.058112 0.000000
# 6 0.000000 0.000000 0.000000 -0.016528 0.000000 0.046597
#
#
# Mechanical properties :
#
#
# Convention : Reuss Voigt Hill
#
# Bulk Modulus (GPa) = 19.05998 39.53618 29.29808
# Shear Modulus (GPa) = 20.88868 30.77912 25.83390
#
# Velocity S-wave (km/s) = 3.10274 3.76633 3.45053
# Velocity P-wave (km/s) = 4.64976 6.09383 5.42010
#
# Compressibility (1/GPa) = 0.05246596
#
# Stress axis : x y z
#
# Youngs Moduli (GPa) = 79.00477 31.84016 149.36870
#
# Poissons Ratio (x) = -0.10153 0.48083
# Poissons Ratio (y) = -0.25193 -0.13200
# Poissons Ratio (z) = 0.25432 -0.02814
#
# Static dielectric constant tensor:
#      x y z
#    x 1.804470 0.000000 -0.016000 
#    y 0.000000 1.811380 0.000000 
#    z -0.016000 0.000000 1.795820 
# 
# From -- ./inp_files/87753.got.cif
#   From: 2010.05.17/outbox.cif.g08.bks.cpg/sg15_44_cif.got.tgz:87753.got - 2010.06.03 18:47:42.
