data_PCOD9293971
_publ_section_title
;
Structure prediction by ZEFSAII (Michael W. Deem and Ramdas Pophale) SiO2 
 PCOD9293971
Probable space group: C 2/C
;
_chemical_formula_sum "Si O2"
_cell_formula_units_Z 64
_cell_length_a 17.786352
_cell_length_b 22.071353
_cell_length_c 17.769154
_cell_angle_alpha 90.000000
_cell_angle_beta 29.528346
_cell_angle_gamma 90.000000
_cell_volume 3437.961093
_symmetry_space_group_name_H-M "C 2/C"
_symmetry_group_IT_number 15
_symmetry_cell_setting 'monoclinic'
loop_
_space_group_symop_operation_xyz
x,y,z
-x,y,1/2-z
-x,-y,-z
x,-y,1/2+z
1/2+x,1/2+y,z
1/2-x,1/2+y,1/2-z
1/2-x,1/2-y,-z
1/2+x,1/2-y,1/2+z
loop_
_atom_site_type_symbol
_atom_site_label
_atom_site_fract_x
_atom_site_fract_y
_atom_site_fract_z
Si Si1 0.325143 0.989899 0.563266
Si Si2 0.354269 0.744567 0.837715
Si Si3 0.008804 0.040149 0.417247
Si Si4 0.660015 0.526265 0.563797
Si Si5 0.517026 0.096217 0.464043
Si Si6 0.270014 0.129303 0.359347
Si Si7 0.510597 0.671140 0.484477
Si Si8 0.807215 0.291056 0.173769
O O1 0.167827 0.977172 0.741850
O O2 0.433654 0.937900 0.502394
O O3 0.280346 0.995742 0.515565
O O4 0.394234 0.053262 0.530594
O O5 0.500000 0.714874 0.750000
O O6 0.375864 0.813626 0.789429
O O7 0.268499 0.713706 0.843414
O O8 0.250000 0.750000 0.000000
O O9 0.005678 0.111180 0.438279
O O10 0.000000 0.000000 0.500000
O O11 0.883594 0.018420 0.466482
O O12 0.500000 0.539352 0.750000
O O13 0.739670 0.583651 0.454097
O O14 0.653122 0.102712 0.283936
O O15 0.439421 0.159347 0.552346
O O16 0.101242 0.151903 0.481670
O O17 0.337830 0.691506 0.649603
O O18 0.614777 0.728020 0.369012
#
# Coordination Sequence:
#
# PCOD9293971 Si02
#       8
#     8   8   8   8   8   8   8   8
#     4  10  23  38  61  90 122 164 202 261 310 363
#     4  11  23  37  51  81 124 164 196 244 292 354
#     4  11  19  40  64  91 122 160 207 256 312 371
#     4  10  23  37  60  94 122 158 203 256 314 361
#     4  11  22  41  61  88 126 165 209 252 308 364
#     4  11  22  37  59  86 126 167 203 247 299 374
#     4  11  22  39  64  88 122 161 208 253 299 373
#     4  11  24  39  60  91 118 166 210 246 307 366
#
# _framework density 18.615684999999999
#
# number of rings (size 3 to 8) (size 9 to 14) (size 15 to 20)
#    0.000    1.250    2.500    4.500    5.250    1.500 
#    0.000    0.000    0.000    0.750    0.000    0.000 
#    0.000    0.000    0.000    0.000    0.000    0.000 
#
# Total GULP energy -178491.531384 kJ/mol
# GULP energy per Si atom -5577.860356 kJ/mol
# Density = 1.857332 g / cm^3
# Si number density = 18.615685 Si / 1000 Ang^3
#
#
#
# Elastic Constant Matrix: (Units=GPa)
#
#
# Indices 1 2 3 4 5 6 
#
# 1 111.2620 46.8749 6.8859 0.0007 -2.6792 -0.0011
# 2 46.8749 107.9575 26.5875 -0.0038 4.9389 0.0012
# 3 6.8859 26.5875 68.4334 -0.0043 4.3638 0.0008
# 4 0.0007 -0.0038 -0.0043 21.1061 0.0004 7.1018
# 5 -2.6792 4.9389 4.3638 0.0004 17.4324 -0.0007
# 6 -0.0011 0.0012 0.0008 7.1018 -0.0007 13.9040
#
#
#
# Elastic Compliance Matrix: (Units=1/GPa)
#
#
# Indices 1 2 3 4 5 6 
#
# 1 0.011195 -0.005169 0.000689 -0.000002 0.003012 0.000003
# 2 -0.005169 0.012694 -0.004199 0.000003 -0.003340 -0.000003
# 3 0.000689 -0.004199 0.016353 0.000003 -0.002798 -0.000002
# 4 -0.000002 0.000003 0.000003 0.057213 -0.000004 -0.029223
# 5 0.003012 -0.003340 -0.002798 -0.000004 0.059474 0.000006
# 6 0.000003 -0.000003 -0.000002 -0.029223 0.000006 0.086848
#
#
# Mechanical properties :
#
#
# Convention : Reuss Voigt Hill
#
# Bulk Modulus (GPa) = 43.69380 49.81663 46.75522
# Shear Modulus (GPa) = 18.60384 24.30881 21.45633
#
# Velocity S-wave (km/s) = 3.16470 3.61754 3.39867
# Velocity P-wave (km/s) = 6.07258 6.65338 6.36960
#
# Compressibility (1/GPa) = 0.02288654
#
# Stress axis : x y z
#
# Youngs Moduli (GPa) = 89.32416 78.77787 61.15060
#
# Poissons Ratio (x) = 0.40717 -0.04216
# Poissons Ratio (y) = 0.46168 0.25676
# Poissons Ratio (z) = -0.06159 0.33077
#
# Static dielectric constant tensor:
#      x y z
#    x 1.646090 -0.000010 -0.013650 
#    y -0.000010 1.624470 0.000010 
#    z -0.013650 0.000010 1.645260 
# 
# From -- ./inp_files/211956.got.cif
#   From: 2010.05.17/outbox.cif.g08.bks.cpg/sg15_106_cif.got.tgz:211956.got - 2010.06.03 18:47:42.
