data_PCOD9293639
_publ_section_title
;
Structure prediction by ZEFSAII (Michael W. Deem and Ramdas Pophale) SiO2 
 PCOD9293639
Probable space group: C 2/C
;
_chemical_formula_sum "Si O2"
_cell_formula_units_Z 48
_cell_length_a 14.946418
_cell_length_b 23.813063
_cell_length_c 12.008453
_cell_angle_alpha 90.000000
_cell_angle_beta 152.345267
_cell_angle_gamma 90.000000
_cell_volume 1983.767084
_symmetry_space_group_name_H-M "C 2/C"
_symmetry_group_IT_number 15
_symmetry_cell_setting 'monoclinic'
loop_
_space_group_symop_operation_xyz
x,y,z
-x,y,1/2-z
-x,-y,-z
x,-y,1/2+z
1/2+x,1/2+y,z
1/2-x,1/2+y,1/2-z
1/2-x,1/2-y,-z
1/2+x,1/2-y,1/2+z
loop_
_atom_site_type_symbol
_atom_site_label
_atom_site_fract_x
_atom_site_fract_y
_atom_site_fract_z
Si Si1 0.758837 0.793686 0.192458
Si Si2 0.500000 0.670449 0.750000
Si Si3 0.540078 0.922696 0.422079
Si Si4 0.864358 0.901874 0.404721
Si Si5 0.693061 0.039051 0.513796
Si Si6 0.500000 0.470241 0.750000
Si Si7 0.328333 0.833387 0.766855
O O1 0.874542 0.834971 0.403111
O O2 0.755886 0.728707 0.222012
O O3 0.870929 0.796150 0.198336
O O4 0.543156 0.820563 0.954789
O O5 0.327727 0.642218 0.491590
O O6 0.500000 0.906970 0.250000
O O7 0.338480 0.917699 0.262833
O O8 0.618138 0.986112 0.504833
O O9 0.664626 0.877056 0.624921
O O10 0.007991 0.932252 0.647904
O O11 0.835868 0.925035 0.247944
O O12 0.815717 0.010243 0.551686
O O13 0.500000 0.066290 0.250000
#
# Coordination Sequence:
#
# PCOD9293639 Si02
#       7
#     8   4   8   8   8   4   8
#     4  11  25  42  65  99 131 177 217 268 327 391
#     4  12  24  41  68  90 140 168 211 276 326 384
#     4  10  22  46  71  91 131 179 216 268 329 382
#     4  11  25  45  67  98 137 169 222 272 325 393
#     4  11  24  45  70  95 135 176 214 273 329 383
#     4  12  24  43  70  98 132 172 217 272 328 388
#     4  11  24  42  66  98 131 171 222 267 332 387
#
# _framework density 24.196389
#
# number of rings (size 3 to 8) (size 9 to 14) (size 15 to 20)
#    0.000    1.000    5.000    2.000    2.333    3.333 
#    1.500    1.667    0.000    0.000    0.000    0.000 
#    0.000    0.000    0.000    0.000    0.000    0.000 
#
# Total GULP energy -134192.941008 kJ/mol
# GULP energy per Si atom -5591.372542 kJ/mol
# Density = 2.414132 g / cm^3
# Si number density = 24.196389 Si / 1000 Ang^3
#
#
#
# Elastic Constant Matrix: (Units=GPa)
#
#
# Indices 1 2 3 4 5 6 
#
# 1 74.2884 17.6371 5.8579 0.0000 9.5831 0.0000
# 2 17.6371 101.8876 29.0783 0.0000 -13.5308 0.0000
# 3 5.8579 29.0783 119.7367 -0.0001 -17.8860 0.0000
# 4 0.0000 0.0000 -0.0001 27.2640 0.0000 5.5100
# 5 9.5831 -13.5308 -17.8860 0.0000 55.5572 0.0000
# 6 0.0000 0.0000 0.0000 5.5100 0.0000 14.9238
#
#
#
# Elastic Compliance Matrix: (Units=1/GPa)
#
#
# Indices 1 2 3 4 5 6 
#
# 1 0.014610 -0.002826 -0.000533 0.000000 -0.003380 0.000000
# 2 -0.002826 0.011273 -0.002223 0.000000 0.002517 0.000000
# 3 -0.000533 -0.002223 0.009298 0.000000 0.002544 0.000000
# 4 0.000000 0.000000 0.000000 0.039636 0.000000 -0.014634
# 5 -0.003380 0.002517 0.002544 0.000000 0.020014 0.000000
# 6 0.000000 0.000000 0.000000 -0.014634 0.000000 0.072410
#
#
# Mechanical properties :
#
#
# Convention : Reuss Voigt Hill
#
# Bulk Modulus (GPa) = 41.63994 44.56214 43.10104
# Shear Modulus (GPa) = 26.82249 35.77162 31.29706
#
# Velocity S-wave (km/s) = 3.33308 3.84915 3.60037
# Velocity P-wave (km/s) = 5.66207 6.18154 5.92750
#
# Compressibility (1/GPa) = 0.02401541
#
# Stress axis : x y z
#
# Youngs Moduli (GPa) = 68.44640 88.71011 107.55352
#
# Poissons Ratio (x) = 0.25066 0.05737
# Poissons Ratio (y) = 0.19341 0.23913
# Poissons Ratio (z) = 0.03651 0.19723
#
# Static dielectric constant tensor:
#      x y z
#    x 1.950410 0.000000 -0.010440 
#    y 0.000000 1.942040 0.000000 
#    z -0.010440 0.000000 2.147620 
# 
# From -- ./inp_files/101424.got.cif
#   From: 2010.05.17/outbox.cif.g08.bks.cpg/sg15_51_cif.got.tgz:101424.got - 2010.06.03 18:47:42.
