data_PCOD9293357
_publ_section_title
;
Structure prediction by ZEFSAII (Michael W. Deem and Ramdas Pophale) SiO2 
 PCOD9293357
Probable space group: C 2/C
;
_chemical_formula_sum "Si O2"
_cell_formula_units_Z 64
_cell_length_a 8.997435
_cell_length_b 15.477676
_cell_length_c 29.500511
_cell_angle_alpha 90.000000
_cell_angle_beta 44.928206
_cell_angle_gamma 90.000000
_cell_volume 2901.310024
_symmetry_space_group_name_H-M "C 2/C"
_symmetry_group_IT_number 15
_symmetry_cell_setting 'monoclinic'
loop_
_space_group_symop_operation_xyz
x,y,z
-x,y,1/2-z
-x,-y,-z
x,-y,1/2+z
1/2+x,1/2+y,z
1/2-x,1/2+y,1/2-z
1/2-x,1/2-y,-z
1/2+x,1/2-y,1/2+z
loop_
_atom_site_type_symbol
_atom_site_label
_atom_site_fract_x
_atom_site_fract_y
_atom_site_fract_z
Si Si1 0.479983 0.680994 0.418834
Si Si2 0.655165 0.924171 0.954206
Si Si3 0.435338 0.749732 0.003965
Si Si4 0.445420 0.876385 0.814350
Si Si5 0.851356 0.544271 0.691953
Si Si6 0.416332 0.451213 0.339525
Si Si7 0.010307 0.773418 0.366233
Si Si8 0.818686 0.303683 0.374160
O O1 0.293110 0.612894 0.465483
O O2 0.503927 0.744365 0.455817
O O3 0.694918 0.628926 0.370027
O O4 0.430017 0.734268 0.383566
O O5 0.826852 0.963296 0.882795
O O6 0.515900 0.842697 0.969316
O O7 0.500000 0.000000 0.000000
O O8 0.184204 0.739585 0.060433
O O9 0.590592 0.679431 0.947622
O O10 0.500000 0.888386 0.750000
O O11 0.522427 0.785451 0.818847
O O12 0.537058 0.952028 0.825903
O O13 0.750514 0.564803 0.664799
O O14 0.648884 0.540410 0.768556
O O15 0.023396 0.617197 0.665708
O O16 0.436650 0.369593 0.368476
O O17 0.231511 0.771664 0.344592
#
# Coordination Sequence:
#
# PCOD9293357 Si02
#       8
#     8   8   8   8   8   8   8   8
#     4  10  24  44  69 103 140 183 228 282 350 421
#     4  11  21  37  73  99 134 177 227 283 346 397
#     4  10  22  45  71 101 145 179 233 279 356 419
#     4  11  26  47  70  95 142 180 231 286 351 409
#     4  11  27  46  70  98 136 186 237 289 341 421
#     4  11  26  47  69  97 141 182 238 284 354 409
#     4  11  25  45  71 105 138 183 228 289 345 423
#     4  11  24  42  72 101 141 182 231 280 350 416
#
# _framework density 22.059000000000001
#
# number of rings (size 3 to 8) (size 9 to 14) (size 15 to 20)
#    0.000    1.250    1.250    4.125   12.250    0.000 
#    0.000    2.500    0.000    0.000    0.000    0.000 
#    0.000    0.000    0.000    0.000    0.000    0.000 
#
# Total GULP energy -178668.433109 kJ/mol
# GULP energy per Si atom -5583.388535 kJ/mol
# Density = 2.200879 g / cm^3
# Si number density = 22.059000 Si / 1000 Ang^3
#
#
#
# Elastic Constant Matrix: (Units=GPa)
#
#
# Indices 1 2 3 4 5 6 
#
# 1 142.6530 54.2468 29.7112 -0.0001 -22.9311 0.0004
# 2 54.2468 94.2320 29.6352 0.0001 -10.8323 0.0000
# 3 29.7112 29.6352 63.4962 -0.0002 -18.4448 0.0001
# 4 -0.0001 0.0001 -0.0002 35.7195 0.0000 -4.0940
# 5 -22.9311 -10.8323 -18.4448 0.0000 29.9282 -0.0002
# 6 0.0004 0.0000 0.0001 -4.0940 -0.0002 30.8305
#
#
#
# Elastic Compliance Matrix: (Units=1/GPa)
#
#
# Indices 1 2 3 4 5 6 
#
# 1 0.009864 -0.004807 -0.000831 0.000000 0.005306 0.000000
# 2 -0.004807 0.014812 -0.005087 0.000000 -0.001457 0.000000
# 3 -0.000831 -0.005087 0.021672 0.000000 0.010879 0.000000
# 4 0.000000 0.000000 0.000000 0.028429 0.000000 0.003775
# 5 0.005306 -0.001457 0.010879 0.000000 0.043656 0.000000
# 6 0.000000 0.000000 0.000000 0.003775 0.000000 0.032937
#
#
# Mechanical properties :
#
#
# Convention : Reuss Voigt Hill
#
# Bulk Modulus (GPa) = 40.16362 58.61863 49.39112
# Shear Modulus (GPa) = 27.60631 31.74818 29.67725
#
# Velocity S-wave (km/s) = 3.54146 3.79785 3.67189
# Velocity P-wave (km/s) = 5.91350 6.77221 6.35737
#
# Compressibility (1/GPa) = 0.02489816
#
# Stress axis : x y z
#
# Youngs Moduli (GPa) = 101.37873 67.51378 46.14249
#
# Poissons Ratio (x) = 0.32456 0.03833
# Poissons Ratio (y) = 0.48736 0.23472
# Poissons Ratio (z) = 0.08420 0.34344
#
# Static dielectric constant tensor:
#      x y z
#    x 1.855690 0.000000 0.036120 
#    y 0.000000 1.808320 0.000000 
#    z 0.036120 0.000000 1.871100 
# 
# From -- ./inp_files/308230.got.cif
#   From: 2010.05.17/outbox.cif.g08.bks.cpg/sg15_155_cif.got.tgz:308230.got - 2010.06.03 18:47:42.
