data_PCOD9293170
_publ_section_title
;
Structure prediction by ZEFSAII (Michael W. Deem and Ramdas Pophale) SiO2 
 PCOD9293170
Probable space group: C 2/C
;
_chemical_formula_sum "Si O2"
_cell_formula_units_Z 40
_cell_length_a 17.049450
_cell_length_b 13.656369
_cell_length_c 13.670691
_cell_angle_alpha 90.000000
_cell_angle_beta 27.048043
_cell_angle_gamma 90.000000
_cell_volume 1447.427475
_symmetry_space_group_name_H-M "C 2/C"
_symmetry_group_IT_number 15
_symmetry_cell_setting 'monoclinic'
loop_
_space_group_symop_operation_xyz
x,y,z
-x,y,1/2-z
-x,-y,-z
x,-y,1/2+z
1/2+x,1/2+y,z
1/2-x,1/2+y,1/2-z
1/2-x,1/2-y,-z
1/2+x,1/2-y,1/2+z
loop_
_atom_site_type_symbol
_atom_site_label
_atom_site_fract_x
_atom_site_fract_y
_atom_site_fract_z
Si Si1 0.389385 0.202901 0.044342
Si Si2 0.764210 0.160542 0.846428
Si Si3 0.000000 0.803196 0.250000
Si Si4 0.306442 0.484239 0.676399
Si Si5 0.250000 0.250000 0.000000
Si Si6 0.151441 0.556574 0.653985
O O1 0.384986 0.278396 0.137938
O O2 0.254027 0.122553 0.227719
O O3 0.357094 0.262690 0.982235
O O4 0.555653 0.141766 0.825826
O O5 0.701616 0.066850 0.855146
O O6 0.880150 0.134440 0.811293
O O7 0.617734 0.230984 0.053100
O O8 0.500000 0.500000 0.500000
O O9 0.255226 0.496145 0.619086
O O10 0.237507 0.129191 0.036552
O O11 0.000000 0.513740 0.750000
#
# Coordination Sequence:
#
# PCOD9293170 Si02
#       6
#     8   8   4   8   4   8
#     4  11  24  45  77 103 150 199 241 305 377 440
#     4  11  23  48  70 102 148 188 251 302 364 444
#     4  10  24  44  72  98 138 208 236 300 372 436
#     4  12  26  44  74 111 148 192 247 313 367 436
#     4  10  22  44  76 110 136 192 246 306 366 444
#     4  10  23  45  72 109 148 197 249 296 376 448
#
# _framework density 27.635237
#
# number of rings (size 3 to 8) (size 9 to 14) (size 15 to 20)
#    0.000    1.200    2.000    3.000    2.800    1.600 
#   28.800    0.000    0.000    0.000    0.000    0.000 
#    0.000    0.000    0.000    0.000    0.000    0.000 
#
# Total GULP energy -111534.191864 kJ/mol
# GULP energy per Si atom -5576.709593 kJ/mol
# Density = 2.757234 g / cm^3
# Si number density = 27.635237 Si / 1000 Ang^3
#
#
#
# Elastic Constant Matrix: (Units=GPa)
#
#
# Indices 1 2 3 4 5 6 
#
# 1 254.9442 46.6746 36.9070 -0.0003 7.2108 0.0002
# 2 46.6746 73.1889 10.2049 -0.0001 10.6870 0.0003
# 3 36.9070 10.2049 59.7558 0.0000 6.3932 0.0004
# 4 -0.0003 -0.0001 0.0000 48.2235 0.0000 17.2539
# 5 7.2108 10.6870 6.3932 0.0000 46.3518 -0.0003
# 6 0.0002 0.0003 0.0004 17.2539 -0.0003 63.1222
#
#
#
# Elastic Compliance Matrix: (Units=1/GPa)
#
#
# Indices 1 2 3 4 5 6 
#
# 1 0.004779 -0.002732 -0.002510 0.000000 0.000233 0.000000
# 2 -0.002732 0.015965 -0.000701 0.000000 -0.003159 0.000000
# 3 -0.002510 -0.000701 0.018621 0.000000 -0.002016 0.000000
# 4 0.000000 0.000000 0.000000 0.022985 0.000000 -0.006283
# 5 0.000233 -0.003159 -0.002016 0.000000 0.022544 0.000000
# 6 0.000000 0.000000 0.000000 -0.006283 0.000000 0.017560
#
#
# Mechanical properties :
#
#
# Convention : Reuss Voigt Hill
#
# Bulk Modulus (GPa) = 36.39262 63.94021 50.16642
# Shear Modulus (GPa) = 40.48618 51.14635 45.81627
#
# Velocity S-wave (km/s) = 3.83171 4.30672 4.07614
# Velocity P-wave (km/s) = 5.72482 6.92227 6.35183
#
# Compressibility (1/GPa) = 0.02747810
#
# Stress axis : x y z
#
# Youngs Moduli (GPa) = 209.23157 62.63885 53.70397
#
# Poissons Ratio (x) = 0.17112 0.13481
# Poissons Ratio (y) = 0.57160 0.03765
# Poissons Ratio (z) = 0.52522 0.04391
#
# Static dielectric constant tensor:
#      x y z
#    x 2.218990 0.000000 0.007560 
#    y 0.000000 2.123340 0.000000 
#    z 0.007560 0.000000 3.024350 
# 
# From -- ./inp_files/162456.got.cif
#   From: 2010.05.17/outbox.cif.g08.bks.cpg/sg15_82_cif.got.tgz:162456.got - 2010.06.03 18:47:42.
