data_PCOD9293323
_publ_section_title
;
Structure prediction by ZEFSAII (Michael W. Deem and Ramdas Pophale) SiO2 
 PCOD9293323
Probable space group: C 2/C
;
_chemical_formula_sum "Si O2"
_cell_formula_units_Z 52
_cell_length_a 11.377315
_cell_length_b 26.548876
_cell_length_c 9.129169
_cell_angle_alpha 90.000000
_cell_angle_beta 130.229338
_cell_angle_gamma 90.000000
_cell_volume 2105.263895
_symmetry_space_group_name_H-M "C 2/C"
_symmetry_group_IT_number 15
_symmetry_cell_setting 'monoclinic'
loop_
_space_group_symop_operation_xyz
x,y,z
-x,y,1/2-z
-x,-y,-z
x,-y,1/2+z
1/2+x,1/2+y,z
1/2-x,1/2+y,1/2-z
1/2-x,1/2-y,-z
1/2+x,1/2-y,1/2+z
loop_
_atom_site_type_symbol
_atom_site_label
_atom_site_fract_x
_atom_site_fract_y
_atom_site_fract_z
Si Si1 0.741495 0.686053 0.618644
Si Si2 0.166043 0.638257 0.336694
Si Si3 0.079382 0.291095 0.520570
Si Si4 0.500000 0.508274 0.750000
Si Si5 0.816607 0.055964 0.272670
Si Si6 0.164841 0.471985 0.342241
Si Si7 0.206731 0.097272 0.774128
O O1 0.811920 0.681291 0.512496
O O2 0.626386 0.733080 0.537447
O O3 0.653990 0.636815 0.607799
O O4 0.900513 0.697821 0.837877
O O5 0.120978 0.689059 0.215386
O O6 0.271341 0.608410 0.305624
O O7 0.256270 0.633896 0.560832
O O8 0.000000 0.614846 0.250000
O O9 0.515341 0.464681 0.633615
O O10 0.613991 0.550523 0.769104
O O11 0.757007 0.018558 0.351138
O O12 0.731523 0.047715 0.049290
O O13 0.156950 0.430335 0.207530
O O14 0.000000 0.491695 0.250000
#
# Coordination Sequence:
#
# PCOD9293323 Si02
#       7
#     8   8   8   4   8   8   8
#     4  10  22  45  70 101 132 183 215 291 329 424
#     4  12  23  41  65 101 128 173 220 284 325 406
#     4  10  23  43  71 100 139 169 234 267 355 397
#     4  10  26  46  58  96 130 186 222 276 328 418
#     4  11  23  40  64  87 134 169 224 275 335 387
#     4  11  22  38  62  95 120 170 218 280 327 396
#     4  11  24  40  66  91 135 170 225 267 342 390
#
# _framework density 24.699992000000002
#
# number of rings (size 3 to 8) (size 9 to 14) (size 15 to 20)
#    0.000    1.231    1.538    4.615    2.154    7.385 
#    1.385    3.077    0.000    0.000    0.000    0.000 
#    0.000    0.000    0.000    0.000    0.000    0.000 
#
# Total GULP energy -144901.218421 kJ/mol
# GULP energy per Si atom -5573.123785 kJ/mol
# Density = 2.464377 g / cm^3
# Si number density = 24.699992 Si / 1000 Ang^3
#
#
#
# Elastic Constant Matrix: (Units=GPa)
#
#
# Indices 1 2 3 4 5 6 
#
# 1 149.5208 50.6056 24.7834 0.0000 -20.2960 0.0000
# 2 50.6056 86.2762 23.7644 0.0000 -16.6965 0.0000
# 3 24.7834 23.7644 68.0777 0.0000 -27.4481 0.0000
# 4 0.0000 0.0000 0.0000 34.1575 0.0000 -14.5801
# 5 -20.2960 -16.6965 -27.4481 0.0000 36.1929 0.0000
# 6 0.0000 0.0000 0.0000 -14.5801 0.0000 31.9254
#
#
#
# Elastic Compliance Matrix: (Units=1/GPa)
#
#
# Indices 1 2 3 4 5 6 
#
# 1 0.008605 -0.004422 -0.000671 0.000000 0.002277 0.000000
# 2 -0.004422 0.015436 -0.002747 0.000000 0.002558 0.000000
# 3 -0.000671 -0.002747 0.021938 0.000000 0.014993 0.000000
# 4 0.000000 0.000000 0.000000 0.036365 0.000000 0.016608
# 5 0.002277 0.002558 0.014993 0.000000 0.041457 0.000000
# 6 0.000000 0.000000 0.000000 0.016608 0.000000 0.038908
#
#
# Mechanical properties :
#
#
# Convention : Reuss Voigt Hill
#
# Bulk Modulus (GPa) = 33.00563 55.79795 44.40179
# Shear Modulus (GPa) = 26.52688 34.10326 30.31507
#
# Velocity S-wave (km/s) = 3.28069 3.71981 3.50713
# Velocity P-wave (km/s) = 5.26709 6.41004 5.86646
#
# Compressibility (1/GPa) = 0.03029786
#
# Stress axis : x y z
#
# Youngs Moduli (GPa) = 116.21353 64.78350 45.58387
#
# Poissons Ratio (x) = 0.28646 0.03059
# Poissons Ratio (y) = 0.51387 0.12524
# Poissons Ratio (z) = 0.07800 0.17798
#
# Static dielectric constant tensor:
#      x y z
#    x 1.996930 0.000000 0.198620 
#    y 0.000000 1.921860 0.000000 
#    z 0.198620 0.000000 2.354240 
# 
# From -- ./inp_files/34456.got.cif
#   From: 2010.05.17/outbox.cif.g08.bks.cpg/sg15_18_cif.got.tgz:34456.got - 2010.06.03 18:47:42.
