data_PCOD9293231
_publ_section_title
;
Structure prediction by ZEFSAII (Michael W. Deem and Ramdas Pophale) SiO2 
 PCOD9293231
Probable space group: C 2/C
;
_chemical_formula_sum "Si O2"
_cell_formula_units_Z 60
_cell_length_a 9.240481
_cell_length_b 25.628562
_cell_length_c 19.962605
_cell_angle_alpha 90.000000
_cell_angle_beta 143.617300
_cell_angle_gamma 90.000000
_cell_volume 2804.267742
_symmetry_space_group_name_H-M "C 2/C"
_symmetry_group_IT_number 15
_symmetry_cell_setting 'monoclinic'
loop_
_space_group_symop_operation_xyz
x,y,z
-x,y,1/2-z
-x,-y,-z
x,-y,1/2+z
1/2+x,1/2+y,z
1/2-x,1/2+y,1/2-z
1/2-x,1/2-y,-z
1/2+x,1/2-y,1/2+z
loop_
_atom_site_type_symbol
_atom_site_label
_atom_site_fract_x
_atom_site_fract_y
_atom_site_fract_z
Si Si1 0.104809 0.401847 0.479370
Si Si2 0.000000 0.199262 0.750000
Si Si3 0.654176 0.951302 0.242027
Si Si4 0.970471 0.714969 0.559552
Si Si5 0.963439 0.263705 0.903694
Si Si6 0.507054 0.876675 0.904811
Si Si7 0.093675 0.050738 0.208190
Si Si8 0.541092 0.349784 0.125578
O O1 0.061798 0.344811 0.431159
O O2 0.015463 0.395611 0.524430
O O3 0.386741 0.417460 0.591829
O O4 0.979758 0.441743 0.380092
O O5 0.245704 0.230752 0.824508
O O6 0.956523 0.162897 0.670176
O O7 0.500000 0.967874 0.250000
O O8 0.770990 0.896115 0.305319
O O9 0.860855 0.994126 0.305246
O O10 0.750000 0.750000 0.500000
O O11 0.938298 0.717409 0.468925
O O12 0.897606 0.318779 0.844956
O O13 0.848061 0.206394 0.854403
O O14 0.250000 0.250000 0.000000
O O15 0.350274 0.918708 0.806416
O O16 0.793556 0.868358 0.996996
O O17 0.000000 0.046336 0.250000
#
# Coordination Sequence:
#
# PCOD9293231 Si02
#       8
#     8   4   8   8   8   8   8   8
#     4  10  22  45  65  98 133 165 235 276 327 408
#     4  12  20  40  66  96 140 180 222 278 338 390
#     4  12  28  43  64  96 135 175 223 278 345 409
#     4  11  23  39  66 101 138 174 222 280 333 409
#     4   9  18  38  64  91 135 168 211 268 331 402
#     4   9  19  41  70 100 125 168 223 280 325 393
#     4  10  25  43  70  94 124 174 226 286 339 386
#     4  11  21  38  70  95 130 176 220 270 339 408
#
# _framework density 21.395959000000001
#
# number of rings (size 3 to 8) (size 9 to 14) (size 15 to 20)
#    0.000    1.600    5.333    0.000    6.533    2.667 
#    0.000    2.000    1.467    0.000    0.000    0.000 
#    0.000    0.000    0.000    0.000    0.000    0.000 
#
# Total GULP energy -167021.752439 kJ/mol
# GULP energy per Si atom -5567.391748 kJ/mol
# Density = 2.134726 g / cm^3
# Si number density = 21.395959 Si / 1000 Ang^3
#
#
#
# Elastic Constant Matrix: (Units=GPa)
#
#
# Indices 1 2 3 4 5 6 
#
# 1 36.6789 7.6381 6.7695 -0.0006 11.3578 0.0001
# 2 7.6381 72.4368 15.0614 -0.0002 -0.6033 0.0001
# 3 6.7695 15.0614 70.0344 -0.0020 14.2279 0.0003
# 4 -0.0006 -0.0002 -0.0020 32.0562 -0.0005 13.6253
# 5 11.3578 -0.6033 14.2279 -0.0005 20.2893 0.0001
# 6 0.0001 0.0001 0.0003 13.6253 0.0001 28.3562
#
#
#
# Elastic Compliance Matrix: (Units=1/GPa)
#
#
# Indices 1 2 3 4 5 6 
#
# 1 0.034136 -0.004133 0.001745 0.000000 -0.020456 0.000000
# 2 -0.004133 0.015115 -0.003979 0.000000 0.005553 0.000000
# 3 0.001745 -0.003979 0.017711 0.000001 -0.013515 -0.000001
# 4 0.000000 0.000000 0.000001 0.039202 0.000000 -0.018837
# 5 -0.020456 0.005553 -0.013515 0.000000 0.070381 0.000000
# 6 0.000000 0.000000 -0.000001 -0.018837 0.000000 0.044317
#
#
# Mechanical properties :
#
#
# Convention : Reuss Voigt Hill
#
# Bulk Modulus (GPa) = 18.44051 26.45423 22.44737
# Shear Modulus (GPa) = 19.86714 26.11907 22.99311
#
# Velocity S-wave (km/s) = 3.05051 3.49771 3.28174
# Velocity P-wave (km/s) = 4.58747 5.35751 4.98738
#
# Compressibility (1/GPa) = 0.05422844
#
# Stress axis : x y z
#
# Youngs Moduli (GPa) = 29.29420 66.16151 56.46050
#
# Poissons Ratio (x) = 0.27342 -0.09852
# Poissons Ratio (y) = 0.12106 0.22467
# Poissons Ratio (z) = -0.05111 0.26327
#
# Static dielectric constant tensor:
#      x y z
#    x 1.808900 0.000000 -0.021840 
#    y 0.000000 1.807970 0.000000 
#    z -0.021840 0.000000 1.844230 
# 
# From -- ./inp_files/234578.got.cif
#   From: 2010.05.17/outbox.cif.g08.bks.cpg/sg15_118_cif.got.tgz:234578.got - 2010.06.03 18:47:42.
