data_PCOD9293157
_publ_section_title
;
Structure prediction by ZEFSAII (Michael W. Deem and Ramdas Pophale) SiO2 
 PCOD9293157
Probable space group: C 2/C
;
_chemical_formula_sum "Si O2"
_cell_formula_units_Z 56
_cell_length_a 14.822389
_cell_length_b 12.507649
_cell_length_c 27.455299
_cell_angle_alpha 90.000000
_cell_angle_beta 26.841177
_cell_angle_gamma 90.000000
_cell_volume 2298.243319
_symmetry_space_group_name_H-M "C 2/C"
_symmetry_group_IT_number 15
_symmetry_cell_setting 'monoclinic'
loop_
_space_group_symop_operation_xyz
x,y,z
-x,y,1/2-z
-x,-y,-z
x,-y,1/2+z
1/2+x,1/2+y,z
1/2-x,1/2+y,1/2-z
1/2-x,1/2-y,-z
1/2+x,1/2-y,1/2+z
loop_
_atom_site_type_symbol
_atom_site_label
_atom_site_fract_x
_atom_site_fract_y
_atom_site_fract_z
Si Si1 0.736529 0.589108 0.914632
Si Si2 0.264886 0.828645 0.103843
Si Si3 0.039994 0.479555 0.621456
Si Si4 0.938713 0.863596 0.397544
Si Si5 0.780742 0.989713 0.798812
Si Si6 0.774395 0.890313 0.651664
Si Si7 0.819339 0.734745 0.136889
O O1 0.897025 0.586162 0.880123
O O2 0.758548 0.475307 0.876232
O O3 0.761193 0.676362 0.860884
O O4 0.513443 0.600481 0.043944
O O5 0.149978 0.810987 0.108552
O O6 0.213563 0.939289 0.155200
O O7 0.226340 0.728732 0.157592
O O8 0.074591 0.957360 0.310475
O O9 0.243213 0.411699 0.518098
O O10 0.941445 0.500916 0.617043
O O11 0.868225 0.421802 0.735500
O O12 0.075155 0.792002 0.367453
O O13 0.502116 0.178593 0.020403
O O14 0.823869 0.863938 0.782643
#
# Coordination Sequence:
#
# PCOD9293157 Si02
#       7
#     8   8   8   8   8   8   8
#     4  10  22  44  75 109 147 184 244 304 360 422
#     4  11  25  48  76 108 145 195 244 303 369 427
#     4  12  24  44  76 108 148 189 241 302 369 428
#     4  12  27  46  75 113 140 197 251 299 362 441
#     4  12  28  46  74 106 151 190 243 302 367 439
#     4  10  23  44  75 109 143 185 245 306 349 435
#     4  11  25  49  76 106 147 188 245 310 357 432
#
# _framework density 24.366436
#
# number of rings (size 3 to 8) (size 9 to 14) (size 15 to 20)
#    0.000    0.857    1.429    6.000    4.000    2.286 
#    0.000    8.571    3.143    0.000    0.000    0.000 
#    0.000    0.000    0.000    0.000    0.000    0.000 
#
# Total GULP energy -156899.677468 kJ/mol
# GULP energy per Si atom -5603.559910 kJ/mol
# Density = 2.431098 g / cm^3
# Si number density = 24.366436 Si / 1000 Ang^3
#
#
#
# Elastic Constant Matrix: (Units=GPa)
#
#
# Indices 1 2 3 4 5 6 
#
# 1 120.3914 47.2832 1.7472 -0.0019 13.5423 0.0013
# 2 47.2832 104.6089 40.3067 -0.0023 3.8627 0.0006
# 3 1.7472 40.3067 123.7729 -0.0020 10.4678 0.0061
# 4 -0.0019 -0.0023 -0.0020 33.5747 0.0000 5.6874
# 5 13.5423 3.8627 10.4678 0.0000 29.8655 -0.0021
# 6 0.0013 0.0006 0.0061 5.6874 -0.0021 2.1662
#
#
#
# Elastic Compliance Matrix: (Units=1/GPa)
#
#
# Indices 1 2 3 4 5 6 
#
# 1 0.011046 -0.005615 0.002097 0.000005 -0.005017 -0.000030
# 2 -0.005615 0.013787 -0.004612 -0.000004 0.002380 0.000025
# 3 0.002097 -0.004612 0.009874 0.000010 -0.003815 -0.000059
# 4 0.000005 -0.000004 0.000010 0.053642 -0.000015 -0.140841
# 5 -0.005017 0.002380 -0.003815 -0.000015 0.036788 0.000089
# 6 -0.000030 0.000025 -0.000059 -0.140841 0.000089 0.831428
#
#
# Mechanical properties :
#
#
# Convention : Reuss Voigt Hill
#
# Bulk Modulus (GPa) = 54.21069 58.60526 56.40798
# Shear Modulus (GPa) = 5.10739 30.41701 17.76220
#
# Velocity S-wave (km/s) = 1.44935 3.53698 2.70286
# Velocity P-wave (km/s) = 5.00971 6.38625 5.73940
#
# Compressibility (1/GPa) = 0.01844655
#
# Stress axis : x y z
#
# Youngs Moduli (GPa) = 90.53388 72.53435 101.27457
#
# Poissons Ratio (x) = 0.40731 -0.21238
# Poissons Ratio (y) = 0.50838 0.46704
# Poissons Ratio (z) = -0.18985 0.33450
#
# Static dielectric constant tensor:
#      x y z
#    x 1.964080 0.000000 -0.011770 
#    y 0.000000 1.967350 0.000000 
#    z -0.011770 0.000000 1.970500 
# 
# From -- ./inp_files/295907.got.cif
#   From: 2010.05.17/outbox.cif.g08.bks.cpg/sg15_148_cif.got.tgz:295907.got - 2010.06.03 18:47:42.
