data_PCOD9293155
_publ_section_title
;
Structure prediction by ZEFSAII (Michael W. Deem and Ramdas Pophale) SiO2 
 PCOD9293155
Probable space group: C 2/C
;
_chemical_formula_sum "Si O2"
_cell_formula_units_Z 40
_cell_length_a 7.060028
_cell_length_b 19.491213
_cell_length_c 11.783425
_cell_angle_alpha 90.000000
_cell_angle_beta 79.005253
_cell_angle_gamma 90.000000
_cell_volume 1591.736397
_symmetry_space_group_name_H-M "C 2/C"
_symmetry_group_IT_number 15
_symmetry_cell_setting 'monoclinic'
loop_
_space_group_symop_operation_xyz
x,y,z
-x,y,1/2-z
-x,-y,-z
x,-y,1/2+z
1/2+x,1/2+y,z
1/2-x,1/2+y,1/2-z
1/2-x,1/2-y,-z
1/2+x,1/2-y,1/2+z
loop_
_atom_site_type_symbol
_atom_site_label
_atom_site_fract_x
_atom_site_fract_y
_atom_site_fract_z
Si Si1 0.000000 0.629146 0.250000
Si Si2 0.221948 0.986081 0.684506
Si Si3 0.901127 0.841826 0.032074
Si Si4 0.202284 0.360388 0.277028
Si Si5 0.473949 0.192760 0.491144
Si Si6 0.000000 0.000000 0.500000
O O1 0.161882 0.577337 0.280173
O O2 0.938241 0.674571 0.364329
O O3 0.000000 0.978981 0.750000
O O4 0.290800 0.057093 0.731450
O O5 0.202636 0.998179 0.552802
O O6 0.862152 0.835583 0.171529
O O7 0.008730 0.773174 0.983440
O O8 0.995271 0.915390 0.999811
O O9 0.686476 0.838056 0.999441
O O10 0.000000 0.334614 0.250000
O O11 0.187263 0.338696 0.408230
#
# Coordination Sequence:
#
# PCOD9293155 Si02
#       6
#     4   8   8   8   8   4
#     4  12  26  48  74 114 158 198 262 326 392 472
#     4  12  26  44  73 114 151 200 256 321 387 459
#     4  10  22  48  71 112 151 196 265 316 389 477
#     4  10  22  44  75 104 148 203 249 317 391 459
#     4  10  24  45  75 108 154 205 249 327 394 468
#     4  12  24  44  76 108 152 198 258 326 374 466
#
# _framework density 25.129788999999999
#
# number of rings (size 3 to 8) (size 9 to 14) (size 15 to 20)
#    0.000    1.200    5.000    0.000    2.800    2.400 
#    3.600    2.000    0.000    0.000    0.000    0.000 
#    0.000    0.000    0.000    0.000    0.000    0.000 
#
# Total GULP energy -111448.044950 kJ/mol
# GULP energy per Si atom -5572.402248 kJ/mol
# Density = 2.507259 g / cm^3
# Si number density = 25.129789 Si / 1000 Ang^3
#
#
#
# Elastic Constant Matrix: (Units=GPa)
#
#
# Indices 1 2 3 4 5 6 
#
# 1 88.0902 50.2835 20.6663 0.0000 17.7295 0.0000
# 2 50.2835 193.2082 28.4217 0.0000 -12.3749 0.0000
# 3 20.6663 28.4217 116.0242 0.0000 9.4326 0.0000
# 4 0.0000 0.0000 0.0000 32.3317 0.0000 8.9261
# 5 17.7295 -12.3749 9.4326 0.0000 45.3316 0.0000
# 6 0.0000 0.0000 0.0000 8.9261 0.0000 24.4696
#
#
#
# Elastic Compliance Matrix: (Units=1/GPa)
#
#
# Indices 1 2 3 4 5 6 
#
# 1 0.015488 -0.004312 -0.001133 0.000000 -0.006999 0.000000
# 2 -0.004312 0.006713 -0.001182 0.000000 0.003765 0.000000
# 3 -0.001133 -0.001182 0.009257 0.000000 -0.001806 0.000000
# 4 0.000000 0.000000 0.000000 0.034393 0.000000 -0.012546
# 5 -0.006999 0.003765 -0.001806 0.000000 0.026201 0.000000
# 6 0.000000 0.000000 0.000000 -0.012546 0.000000 0.045444
#
#
# Mechanical properties :
#
#
# Convention : Reuss Voigt Hill
#
# Bulk Modulus (GPa) = 54.93880 66.22949 60.58414
# Shear Modulus (GPa) = 31.88371 40.28999 36.08685
#
# Velocity S-wave (km/s) = 3.56583 4.00844 3.79360
# Velocity P-wave (km/s) = 6.23402 6.91633 6.58402
#
# Compressibility (1/GPa) = 0.01820207
#
# Stress axis : x y z
#
# Youngs Moduli (GPa) = 64.56544 148.96004 108.02360
#
# Poissons Ratio (x) = 0.64238 0.12243
# Poissons Ratio (y) = 0.27843 0.12773
# Poissons Ratio (z) = 0.07318 0.17614
#
# Static dielectric constant tensor:
#      x y z
#    x 2.067270 0.000000 0.083530 
#    y 0.000000 1.900350 0.000000 
#    z 0.083530 0.000000 2.189540 
# 
# From -- ./inp_files/76845.got.cif
#   From: 2010.05.17/outbox.cif.g08.bks.cpg/sg15_39_cif.got.tgz:76845.got - 2010.06.03 18:47:42.
