data_PCOD9293680
_publ_section_title
;
Structure prediction by ZEFSAII (Michael W. Deem and Ramdas Pophale) SiO2 
 PCOD9293680
Probable space group: C 2/C
;
_chemical_formula_sum "Si O2"
_cell_formula_units_Z 52
_cell_length_a 18.177013
_cell_length_b 25.655553
_cell_length_c 11.888448
_cell_angle_alpha 90.000000
_cell_angle_beta 152.798513
_cell_angle_gamma 90.000000
_cell_volume 2534.312952
_symmetry_space_group_name_H-M "C 2/C"
_symmetry_group_IT_number 15
_symmetry_cell_setting 'monoclinic'
loop_
_space_group_symop_operation_xyz
x,y,z
-x,y,1/2-z
-x,-y,-z
x,-y,1/2+z
1/2+x,1/2+y,z
1/2-x,1/2+y,1/2-z
1/2-x,1/2-y,-z
1/2+x,1/2-y,1/2+z
loop_
_atom_site_type_symbol
_atom_site_label
_atom_site_fract_x
_atom_site_fract_y
_atom_site_fract_z
Si Si1 0.391229 0.848712 0.866664
Si Si2 0.808290 0.297113 0.160830
Si Si3 0.754667 0.384908 0.916876
Si Si4 0.351646 0.301917 0.129180
Si Si5 0.000000 0.476106 0.250000
Si Si6 0.420968 0.922784 0.526325
Si Si7 0.610178 0.355579 0.081014
O O1 0.298826 0.861980 0.854971
O O2 0.261704 0.841054 0.593212
O O3 0.513040 0.798490 0.040321
O O4 0.494136 0.897922 0.965395
O O5 0.678797 0.315464 0.078996
O O6 0.750000 0.250000 0.000000
O O7 0.830729 0.345307 0.108088
O O8 0.564221 0.380126 0.679835
O O9 0.844827 0.439568 0.056010
O O10 0.500000 0.291254 0.250000
O O11 0.398524 0.324732 0.313449
O O12 0.250000 0.250000 0.000000
O O13 0.046386 0.516067 0.413381
O O14 0.239613 0.901956 0.271601
O O15 0.500000 0.900419 0.750000
#
# Coordination Sequence:
#
# PCOD9293680 Si02
#       7
#     8   8   8   8   4   8   8
#     4  11  23  44  71  96 140 180 231 291 343 423
#     4  11  27  45  70  97 141 191 231 278 349 419
#     4  12  24  43  66 106 139 179 230 287 344 421
#     4  12  27  41  65 102 134 180 235 279 345 406
#     4  10  22  46  72  98 144 184 240 278 358 424
#     4   9  21  44  70  95 131 178 232 281 352 404
#     4  11  25  45  71 100 142 178 232 297 337 422
#
# _framework density 20.518381000000002
#
# number of rings (size 3 to 8) (size 9 to 14) (size 15 to 20)
#    0.462    0.615    4.615    0.462    8.615    2.462 
#    0.000    0.000    3.385    0.000    0.000    0.000 
#    0.000    0.000    0.000    0.000    0.000    0.000 
#
# Total GULP energy -145111.282208 kJ/mol
# GULP energy per Si atom -5581.203162 kJ/mol
# Density = 2.047168 g / cm^3
# Si number density = 20.518381 Si / 1000 Ang^3
#
#
#
# Elastic Constant Matrix: (Units=GPa)
#
#
# Indices 1 2 3 4 5 6 
#
# 1 131.2613 44.0523 20.3838 0.0000 4.1506 0.0000
# 2 44.0523 110.7987 38.6055 0.0000 4.6955 0.0000
# 3 20.3838 38.6055 91.4228 0.0000 18.6262 0.0000
# 4 0.0000 0.0000 0.0000 18.2266 0.0000 0.3812
# 5 4.1506 4.6955 18.6262 0.0000 43.6846 0.0000
# 6 0.0000 0.0000 0.0000 0.3812 0.0000 27.9986
#
#
#
# Elastic Compliance Matrix: (Units=1/GPa)
#
#
# Indices 1 2 3 4 5 6 
#
# 1 0.008819 -0.003317 -0.000512 0.000000 -0.000263 0.000000
# 2 -0.003317 0.011858 -0.004460 0.000000 0.000942 0.000000
# 3 -0.000512 -0.004460 0.014048 0.000000 -0.005462 0.000000
# 4 0.000000 0.000000 0.000000 0.054881 0.000000 -0.000747
# 5 -0.000263 0.000942 -0.005462 0.000000 0.025144 0.000000
# 6 0.000000 0.000000 0.000000 -0.000747 0.000000 0.035726
#
#
# Mechanical properties :
#
#
# Convention : Reuss Voigt Hill
#
# Bulk Modulus (GPa) = 55.10158 59.95177 57.52668
# Shear Modulus (GPa) = 28.88438 33.34470 31.11454
#
# Velocity S-wave (km/s) = 3.75605 4.03564 3.89835
# Velocity P-wave (km/s) = 6.76192 7.14123 6.95416
#
# Compressibility (1/GPa) = 0.01814830
#
# Stress axis : x y z
#
# Youngs Moduli (GPa) = 113.38609 84.33023 71.18228
#
# Poissons Ratio (x) = 0.27972 0.03646
# Poissons Ratio (y) = 0.37609 0.31746
# Poissons Ratio (z) = 0.05807 0.37610
#
# Static dielectric constant tensor:
#      x y z
#    x 1.736820 0.000000 -0.028180 
#    y 0.000000 1.720200 0.000000 
#    z -0.028180 0.000000 1.501490 
# 
# From -- ./inp_files/108352.got.cif
#   From: 2010.05.17/outbox.cif.g08.bks.cpg/sg15_55_cif.got.tgz:108352.got - 2010.06.03 18:47:42.
