data_PCOD9293926
_publ_section_title
;
Structure prediction by ZEFSAII (Michael W. Deem and Ramdas Pophale) SiO2 
 PCOD9293926
Probable space group: C 2/C
;
_chemical_formula_sum "Si O2"
_cell_formula_units_Z 64
_cell_length_a 8.230689
_cell_length_b 17.319044
_cell_length_c 23.225447
_cell_angle_alpha 90.000000
_cell_angle_beta 82.801500
_cell_angle_gamma 90.000000
_cell_volume 3284.637979
_symmetry_space_group_name_H-M "C 2/C"
_symmetry_group_IT_number 15
_symmetry_cell_setting 'monoclinic'
loop_
_space_group_symop_operation_xyz
x,y,z
-x,y,1/2-z
-x,-y,-z
x,-y,1/2+z
1/2+x,1/2+y,z
1/2-x,1/2+y,1/2-z
1/2-x,1/2-y,-z
1/2+x,1/2-y,1/2+z
loop_
_atom_site_type_symbol
_atom_site_label
_atom_site_fract_x
_atom_site_fract_y
_atom_site_fract_z
Si Si1 0.362063 0.330111 0.853899
Si Si2 0.118514 0.264227 0.957758
Si Si3 0.448294 0.883158 0.037773
Si Si4 0.346381 0.207338 0.646889
Si Si5 0.757958 0.005661 0.518131
Si Si6 0.509854 0.656299 0.623619
Si Si7 0.675170 0.739396 0.769530
Si Si8 0.013661 0.019284 0.096713
O O1 0.210701 0.313902 0.904433
O O2 0.515308 0.273316 0.861134
O O3 0.282737 0.305131 0.796344
O O4 0.434325 0.415302 0.860466
O O5 0.067857 0.183414 0.932411
O O6 0.250000 0.250000 0.000000
O O7 0.975259 0.308369 0.996963
O O8 0.419042 0.861682 0.105441
O O9 0.610392 0.934710 0.028932
O O10 0.307639 0.930736 0.012463
O O11 0.288256 0.200724 0.715575
O O12 0.167316 0.212457 0.624609
O O13 0.831859 0.985687 0.577312
O O14 0.886966 0.038552 0.466311
O O15 0.382882 0.678014 0.679745
O O16 0.549596 0.566041 0.620063
O O17 0.000000 0.266603 0.750000
#
# Coordination Sequence:
#
# PCOD9293926 Si02
#       8
#     8   8   8   8   8   8   8   8
#     4  11  23  38  66  91 125 162 207 260 323 374
#     4  11  21  35  58  92 128 166 207 251 307 379
#     4  11  21  37  59  94 134 173 212 250 322 378
#     4  11  22  39  65  92 118 163 218 265 308 369
#     4  10  23  36  58  93 145 169 196 259 314 393
#     4  10  23  40  66  92 126 167 215 259 318 372
#     4   9  22  46  66  89 118 159 219 277 309 365
#     4  11  22  40  61  95 132 170 203 252 326 379
#
# _framework density 19.484643999999999
#
# number of rings (size 3 to 8) (size 9 to 14) (size 15 to 20)
#    0.000    1.500    3.750    1.125    5.250    0.500 
#    0.000    3.750    0.000    3.000    0.000    0.000 
#    0.000    0.000    0.000    0.000    0.000    0.000 
#
# Total GULP energy -178263.983326 kJ/mol
# GULP energy per Si atom -5570.749479 kJ/mol
# Density = 1.944030 g / cm^3
# Si number density = 19.484644 Si / 1000 Ang^3
#
#
#
# Elastic Constant Matrix: (Units=GPa)
#
#
# Indices 1 2 3 4 5 6 
#
# 1 60.8750 30.2631 27.9219 0.0000 9.3497 0.0000
# 2 30.2631 92.9104 33.5683 0.0000 11.3673 0.0000
# 3 27.9219 33.5683 97.2681 0.0000 6.3324 0.0000
# 4 0.0000 0.0000 0.0000 12.6195 0.0000 8.9508
# 5 9.3497 11.3673 6.3324 0.0000 34.0858 0.0000
# 6 0.0000 0.0000 0.0000 8.9508 0.0000 24.6392
#
#
#
# Elastic Compliance Matrix: (Units=1/GPa)
#
#
# Indices 1 2 3 4 5 6 
#
# 1 0.021368 -0.005035 -0.004175 0.000000 -0.003407 0.000000
# 2 -0.005035 0.013873 -0.003169 0.000000 -0.002657 0.000000
# 3 -0.004175 -0.003169 0.012582 0.000000 -0.000135 0.000000
# 4 0.000000 0.000000 0.000000 0.106748 0.000000 -0.038779
# 5 -0.003407 -0.002657 -0.000135 0.000000 0.031183 0.000000
# 6 0.000000 0.000000 0.000000 -0.038779 0.000000 0.054673
#
#
# Mechanical properties :
#
#
# Convention : Reuss Voigt Hill
#
# Bulk Modulus (GPa) = 43.35556 48.28444 45.82000
# Shear Modulus (GPa) = 18.32346 24.88890 21.60618
#
# Velocity S-wave (km/s) = 3.06993 3.57789 3.33360
# Velocity P-wave (km/s) = 5.90469 6.47325 6.19550
#
# Compressibility (1/GPa) = 0.02306509
#
# Stress axis : x y z
#
# Youngs Moduli (GPa) = 46.79853 72.08102 79.47960
#
# Poissons Ratio (x) = 0.36294 0.33179
# Poissons Ratio (y) = 0.23564 0.25191
# Poissons Ratio (z) = 0.19536 0.22846
#
# Static dielectric constant tensor:
#      x y z
#    x 1.789080 0.000000 -0.047120 
#    y 0.000000 1.755160 0.000000 
#    z -0.047120 0.000000 1.737850 
# 
# From -- ./inp_files/288737.got.cif
#   From: 2010.05.17/outbox.cif.g08.bks.cpg/sg15_145_cif.got.tgz:288737.got - 2010.06.03 18:47:42.
