data_PCOD9293642
_publ_section_title
;
Structure prediction by ZEFSAII (Michael W. Deem and Ramdas Pophale) SiO2 
 PCOD9293642
Probable space group: C 2/C
;
_chemical_formula_sum "Si O2"
_cell_formula_units_Z 44
_cell_length_a 14.324683
_cell_length_b 16.427908
_cell_length_c 9.089876
_cell_angle_alpha 90.000000
_cell_angle_beta 102.081369
_cell_angle_gamma 90.000000
_cell_volume 2091.693656
_symmetry_space_group_name_H-M "C 2/C"
_symmetry_group_IT_number 15
_symmetry_cell_setting 'monoclinic'
loop_
_space_group_symop_operation_xyz
x,y,z
-x,y,1/2-z
-x,-y,-z
x,-y,1/2+z
1/2+x,1/2+y,z
1/2-x,1/2+y,1/2-z
1/2-x,1/2-y,-z
1/2+x,1/2-y,1/2+z
loop_
_atom_site_type_symbol
_atom_site_label
_atom_site_fract_x
_atom_site_fract_y
_atom_site_fract_z
Si Si1 0.272905 0.020220 0.387182
Si Si2 0.115882 0.278996 0.018603
Si Si3 0.325497 0.323901 0.509391
Si Si4 0.500000 0.262287 0.750000
Si Si5 0.398296 0.060459 0.156994
Si Si6 0.321085 0.652866 0.673497
O O1 0.226672 0.093209 0.462126
O O2 0.312276 0.049833 0.243980
O O3 0.365895 0.989310 0.504517
O O4 0.203131 0.942450 0.350658
O O5 0.095902 0.345788 0.888427
O O6 0.117631 0.191571 0.938735
O O7 0.219432 0.300259 0.121093
O O8 0.041967 0.286922 0.126632
O O9 0.250000 0.250000 0.500000
O O10 0.412601 0.311669 0.650519
O O11 0.357459 0.328918 0.349552
O O12 0.500000 0.033054 0.250000
#
# Coordination Sequence:
#
# PCOD9293642 Si02
#       6
#     8   8   8   4   8   8
#     4  11  24  45  69 101 138 189 228 287 355 411
#     4  10  24  43  69 104 136 183 229 282 345 420
#     4  12  25  46  71 100 142 185 233 288 350 413
#     4  12  28  42  74 106 132 180 248 282 342 420
#     4  11  24  41  69 103 145 177 233 284 353 420
#     4  10  22  46  71  95 142 184 226 282 351 411
#
# _framework density 21.035585000000001
#
# number of rings (size 3 to 8) (size 9 to 14) (size 15 to 20)
#    0.000    1.091    3.636    1.636   10.182    0.000 
#    8.182    3.636    0.000    0.000    0.000    0.000 
#    0.000    0.000    0.000    0.000    0.000    0.000 
#
# Total GULP energy -122993.117011 kJ/mol
# GULP energy per Si atom -5590.596228 kJ/mol
# Density = 2.098771 g / cm^3
# Si number density = 21.035585 Si / 1000 Ang^3
#
#
#
# Elastic Constant Matrix: (Units=GPa)
#
#
# Indices 1 2 3 4 5 6 
#
# 1 55.5484 29.1827 19.1166 0.0000 -3.3417 0.0000
# 2 29.1827 117.5506 44.5682 0.0000 -8.5124 0.0000
# 3 19.1166 44.5682 103.9550 0.0000 -7.3910 0.0000
# 4 0.0000 0.0000 0.0000 22.4283 0.0000 -3.5710
# 5 -3.3417 -8.5124 -7.3910 0.0000 59.8950 0.0000
# 6 0.0000 0.0000 0.0000 -3.5710 0.0000 2.4712
#
#
#
# Elastic Compliance Matrix: (Units=1/GPa)
#
#
# Indices 1 2 3 4 5 6 
#
# 1 0.021032 -0.004467 -0.001931 0.000000 0.000300 0.000000
# 2 -0.004467 0.011157 -0.003901 0.000000 0.000855 0.000000
# 3 -0.001931 -0.003901 0.011703 0.000000 0.000782 0.000000
# 4 0.000000 0.000000 0.000000 0.057910 0.000000 0.083681
# 5 0.000300 0.000855 0.000782 0.000000 0.016931 0.000000
# 6 0.000000 0.000000 0.000000 0.083681 0.000000 0.525574
#
#
# Mechanical properties :
#
#
# Convention : Reuss Voigt Hill
#
# Bulk Modulus (GPa) = 42.93171 51.42099 47.17635
# Shear Modulus (GPa) = 7.43307 29.23800 18.33553
#
# Velocity S-wave (km/s) = 1.88182 3.73222 2.95556
# Velocity P-wave (km/s) = 5.01747 6.56281 5.84147
#
# Compressibility (1/GPa) = 0.02329280
#
# Stress axis : x y z
#
# Youngs Moduli (GPa) = 47.54680 89.62996 85.45048
#
# Poissons Ratio (x) = 0.40042 0.16500
# Poissons Ratio (y) = 0.21241 0.33334
# Poissons Ratio (z) = 0.09181 0.34964
#
# Static dielectric constant tensor:
#      x y z
#    x 1.763580 0.000000 -0.007940 
#    y 0.000000 1.739660 0.000000 
#    z -0.007940 0.000000 1.781250 
# 
# From -- ./inp_files/39291.got.cif
#   From: 2010.05.17/outbox.cif.g08.bks.cpg/sg15_20_cif.got.tgz:39291.got - 2010.06.03 18:47:42.
