data_PCOD9293828
_publ_section_title
;
Structure prediction by ZEFSAII (Michael W. Deem and Ramdas Pophale) SiO2 
 PCOD9293828
Probable space group: C 2/C
;
_chemical_formula_sum "Si O2"
_cell_formula_units_Z 56
_cell_length_a 14.846829
_cell_length_b 16.035870
_cell_length_c 13.870058
_cell_angle_alpha 90.000000
_cell_angle_beta 122.716153
_cell_angle_gamma 90.000000
_cell_volume 2778.341125
_symmetry_space_group_name_H-M "C 2/C"
_symmetry_group_IT_number 15
_symmetry_cell_setting 'monoclinic'
loop_
_space_group_symop_operation_xyz
x,y,z
-x,y,1/2-z
-x,-y,-z
x,-y,1/2+z
1/2+x,1/2+y,z
1/2-x,1/2+y,1/2-z
1/2-x,1/2-y,-z
1/2+x,1/2-y,1/2+z
loop_
_atom_site_type_symbol
_atom_site_label
_atom_site_fract_x
_atom_site_fract_y
_atom_site_fract_z
Si Si1 0.307493 0.039932 0.187069
Si Si2 0.998372 0.732853 0.462567
Si Si3 0.269993 0.510740 0.061320
Si Si4 0.117890 0.148869 0.166785
Si Si5 0.906718 0.437545 0.412032
Si Si6 0.000000 0.960131 0.750000
Si Si7 0.500000 0.165919 0.250000
Si Si8 0.763520 0.704864 0.405507
O O1 0.216204 0.089489 0.192786
O O2 0.397376 0.106146 0.206044
O O3 0.365429 0.970415 0.285691
O O4 0.252033 0.999112 0.063448
O O5 0.873676 0.733385 0.419781
O O6 0.062660 0.810740 0.542307
O O7 0.046803 0.653711 0.547955
O O8 0.010875 0.717701 0.355482
O O9 0.192035 0.449477 0.072991
O O10 0.392115 0.492601 0.160270
O O11 0.240146 0.605399 0.074554
O O12 0.030964 0.097364 0.177051
O O13 0.168623 0.214987 0.272197
O O14 0.000000 0.500000 0.500000
O O15 0.750000 0.750000 0.500000
#
# Coordination Sequence:
#
# PCOD9293828 Si02
#       8
#     8   8   8   8   8   4   4   8
#     4  12  23  42  67  97 132 174 214 284 331 388
#     4  12  24  41  69  98 129 179 220 271 334 397
#     4  11  22  41  68  94 129 174 218 274 333 388
#     4  11  24  45  64  91 137 175 218 269 335 393
#     4  12  20  42  66  97 132 167 222 277 332 390
#     4  10  22  48  68  90 138 176 216 278 330 400
#     4  12  22  42  66  94 138 168 218 278 332 384
#     4  11  23  44  64  99 133 169 220 275 332 393
#
# _framework density 20.155912000000001
#
# number of rings (size 3 to 8) (size 9 to 14) (size 15 to 20)
#    0.000    0.571    8.571    1.714    2.000    1.143 
#    0.000    0.714    0.000    0.000    0.000    0.000 
#    0.000    0.000    0.000    0.000    0.000    0.000 
#
# Total GULP energy -156494.615438 kJ/mol
# GULP energy per Si atom -5589.093409 kJ/mol
# Density = 2.011004 g / cm^3
# Si number density = 20.155912 Si / 1000 Ang^3
#
#
#
# Elastic Constant Matrix: (Units=GPa)
#
#
# Indices 1 2 3 4 5 6 
#
# 1 117.5206 4.5470 28.6431 0.0000 -0.2476 0.0000
# 2 4.5470 11.4806 10.3453 0.0000 -3.7759 0.0000
# 3 28.6431 10.3453 155.9942 0.0000 -12.2967 0.0000
# 4 0.0000 0.0000 0.0000 20.3173 0.0000 3.0252
# 5 -0.2476 -3.7759 -12.2967 0.0000 42.2760 0.0000
# 6 0.0000 0.0000 0.0000 3.0252 0.0000 16.0199
#
#
#
# Elastic Compliance Matrix: (Units=1/GPa)
#
#
# Indices 1 2 3 4 5 6 
#
# 1 0.008974 -0.002367 -0.001539 0.000000 -0.000606 0.000000
# 2 -0.002367 0.095122 -0.005327 0.000000 0.006932 0.000000
# 3 -0.001539 -0.005327 0.007173 0.000000 0.001601 0.000000
# 4 0.000000 0.000000 0.000000 0.050643 0.000000 -0.009563
# 5 -0.000606 0.006932 0.001601 0.000000 0.024736 0.000000
# 6 0.000000 0.000000 0.000000 -0.009563 0.000000 0.064228
#
#
# Mechanical properties :
#
#
# Convention : Reuss Voigt Hill
#
# Bulk Modulus (GPa) = 10.77560 41.34070 26.05815
# Shear Modulus (GPa) = 16.65132 31.81996 24.23564
#
# Velocity S-wave (km/s) = 2.87736 3.97759 3.47134
# Velocity P-wave (km/s) = 4.04928 6.45367 5.38733
#
# Compressibility (1/GPa) = 0.09280228
#
# Stress axis : x y z
#
# Youngs Moduli (GPa) = 111.42700 10.51284 139.42047
#
# Poissons Ratio (x) = 0.02489 0.21452
# Poissons Ratio (y) = 0.26379 0.74272
# Poissons Ratio (z) = 0.17145 0.05600
#
# Static dielectric constant tensor:
#      x y z
#    x 1.696440 0.000000 -0.006120 
#    y 0.000000 1.726340 0.000000 
#    z -0.006120 0.000000 1.723630 
# 
# From -- ./inp_files/98865.got.cif
#   From: 2010.05.17/outbox.cif.g08.bks.cpg/sg15_50_cif.got.tgz:98865.got - 2010.06.03 18:47:42.
