data_PCOD9293868
_publ_section_title
;
Structure prediction by ZEFSAII (Michael W. Deem and Ramdas Pophale) SiO2 
 PCOD9293868
Probable space group: C 2/C
;
_chemical_formula_sum "Si O2"
_cell_formula_units_Z 36
_cell_length_a 19.366217
_cell_length_b 11.513442
_cell_length_c 14.466265
_cell_angle_alpha 90.000000
_cell_angle_beta 150.250319
_cell_angle_gamma 90.000000
_cell_volume 1600.565169
_symmetry_space_group_name_H-M "C 2/C"
_symmetry_group_IT_number 15
_symmetry_cell_setting 'monoclinic'
loop_
_space_group_symop_operation_xyz
x,y,z
-x,y,1/2-z
-x,-y,-z
x,-y,1/2+z
1/2+x,1/2+y,z
1/2-x,1/2+y,1/2-z
1/2-x,1/2-y,-z
1/2+x,1/2-y,1/2+z
loop_
_atom_site_type_symbol
_atom_site_label
_atom_site_fract_x
_atom_site_fract_y
_atom_site_fract_z
Si Si1 0.244084 0.612469 0.511413
Si Si2 0.142177 0.781063 0.793177
Si Si3 0.668940 0.490993 0.703503
Si Si4 0.500000 0.547027 0.250000
Si Si5 0.379905 0.022982 0.788867
O O1 0.250000 0.750000 0.500000
O O2 0.262310 0.579740 0.641149
O O3 0.373224 0.539538 0.619489
O O4 0.122360 0.555709 0.306603
O O5 0.204057 0.863221 0.785488
O O6 0.017797 0.860320 0.688120
O O7 0.098795 0.656341 0.710723
O O8 0.250000 0.750000 0.000000
O O9 0.500000 0.500000 0.500000
O O10 0.740240 0.506758 0.687641
O O11 0.500000 0.000000 0.000000
#
# Coordination Sequence:
#
# PCOD9293868 Si02
#       5
#     8   8   8   4   8
#     4  11  26  48  71 107 152 194 245 312 379 448
#     4  11  24  47  77 100 146 197 261 305 369 453
#     4  11  27  47  74 104 145 205 249 302 380 448
#     4  10  22  48  80  98 140 206 248 308 388 420
#     4  12  28  43  70 115 145 192 248 314 376 437
#
# _framework density 22.492055000000001
#
# number of rings (size 3 to 8) (size 9 to 14) (size 15 to 20)
#    0.000    0.889    4.444    2.667    9.333    2.667 
#    0.000    0.000    0.000    0.000    0.000    0.000 
#    0.000    0.000    0.000    0.000    0.000    0.000 
#
# Total GULP energy -100417.490965 kJ/mol
# GULP energy per Si atom -5578.749498 kJ/mol
# Density = 2.244086 g / cm^3
# Si number density = 22.492055 Si / 1000 Ang^3
#
#
#
# Elastic Constant Matrix: (Units=GPa)
#
#
# Indices 1 2 3 4 5 6 
#
# 1 96.2710 24.8640 11.8183 0.0000 -13.1336 0.0000
# 2 24.8640 222.8027 30.1127 0.0000 -32.3101 0.0000
# 3 11.8183 30.1127 100.3111 0.0000 -25.7218 0.0000
# 4 0.0000 0.0000 0.0000 39.6100 0.0000 -7.6272
# 5 -13.1336 -32.3101 -25.7218 0.0000 40.7663 0.0000
# 6 0.0000 0.0000 0.0000 -7.6272 0.0000 32.5092
#
#
#
# Elastic Compliance Matrix: (Units=1/GPa)
#
#
# Indices 1 2 3 4 5 6 
#
# 1 0.011003 -0.000788 -0.000371 0.000000 0.002686 0.000000
# 2 -0.000788 0.005157 -0.000563 0.000000 0.003478 0.000000
# 3 -0.000371 -0.000563 0.011974 0.000000 0.006989 0.000000
# 4 0.000000 0.000000 0.000000 0.026441 0.000000 0.006203
# 5 0.002686 0.003478 0.006989 0.000000 0.032561 0.000000
# 6 0.000000 0.000000 0.000000 0.006203 0.000000 0.032216
#
#
# Mechanical properties :
#
#
# Convention : Reuss Voigt Hill
#
# Bulk Modulus (GPa) = 40.50496 61.44164 50.97330
# Shear Modulus (GPa) = 38.16030 46.08309 42.12170
#
# Velocity S-wave (km/s) = 4.12346 4.53134 4.33221
# Velocity P-wave (km/s) = 6.38109 7.39958 6.90913
#
# Compressibility (1/GPa) = 0.02468833
#
# Stress axis : x y z
#
# Youngs Moduli (GPa) = 90.88524 193.92246 83.51466
#
# Poissons Ratio (x) = 0.15286 0.03098
# Poissons Ratio (y) = 0.07164 0.04705
# Poissons Ratio (z) = 0.03371 0.10926
#
# Static dielectric constant tensor:
#      x y z
#    x 1.890860 0.000000 -0.000630 
#    y 0.000000 1.687760 0.000000 
#    z -0.000630 0.000000 2.038470 
# 
# From -- ./inp_files/167783.got.cif
#   From: 2010.05.17/outbox.cif.g08.bks.cpg/sg15_84_cif.got.tgz:167783.got - 2010.06.03 18:47:42.
