data_PCOD9293226
_publ_section_title
;
Structure prediction by ZEFSAII (Michael W. Deem and Ramdas Pophale) SiO2 
 PCOD9293226
Probable space group: C 2/C
;
_chemical_formula_sum "Si O2"
_cell_formula_units_Z 44
_cell_length_a 16.167206
_cell_length_b 8.350686
_cell_length_c 15.113724
_cell_angle_alpha 90.000000
_cell_angle_beta 85.112291
_cell_angle_gamma 90.000000
_cell_volume 2033.042533
_symmetry_space_group_name_H-M "C 2/C"
_symmetry_group_IT_number 15
_symmetry_cell_setting 'monoclinic'
loop_
_space_group_symop_operation_xyz
x,y,z
-x,y,1/2-z
-x,-y,-z
x,-y,1/2+z
1/2+x,1/2+y,z
1/2-x,1/2+y,1/2-z
1/2-x,1/2-y,-z
1/2+x,1/2-y,1/2+z
loop_
_atom_site_type_symbol
_atom_site_label
_atom_site_fract_x
_atom_site_fract_y
_atom_site_fract_z
Si Si1 0.000000 0.643119 0.250000
Si Si2 0.181639 0.334331 0.119524
Si Si3 0.429406 0.655820 0.915720
Si Si4 0.247076 0.010350 0.547254
Si Si5 0.504517 0.705234 0.094324
Si Si6 0.869154 0.392905 0.188060
O O1 0.049609 0.746685 0.173610
O O2 0.067753 0.535982 0.294695
O O3 0.220215 0.163162 0.089487
O O4 0.083377 0.316243 0.108601
O O5 0.189766 0.368152 0.222345
O O6 0.221161 0.469568 0.053846
O O7 0.332382 0.625705 0.943246
O O8 0.467538 0.477968 0.901734
O O9 0.473153 0.732935 0.997291
O O10 0.318123 0.074474 0.604605
O O11 0.428996 0.741784 0.166669
#
# Coordination Sequence:
#
# PCOD9293226 Si02
#       6
#     4   8   8   8   8   8
#     4  12  26  40  64 102 130 176 234 272 328 410
#     4  10  22  45  65  95 135 180 218 270 345 395
#     4  10  25  44  68  98 132 176 224 282 336 405
#     4  10  25  42  66  98 137 171 221 284 337 398
#     4  10  22  46  70  93 130 181 221 276 337 402
#     4  12  25  41  71  99 132 183 221 285 325 407
#
# _framework density 21.642439
#
# number of rings (size 3 to 8) (size 9 to 14) (size 15 to 20)
#    0.000    1.455    1.818    1.091   10.182    5.091 
#    0.000    0.000    0.000    0.000    0.000    0.000 
#    0.000    0.000    0.000    0.000    0.000    0.000 
#
# Total GULP energy -123155.566731 kJ/mol
# GULP energy per Si atom -5597.980306 kJ/mol
# Density = 2.159318 g / cm^3
# Si number density = 21.642439 Si / 1000 Ang^3
#
#
#
# Elastic Constant Matrix: (Units=GPa)
#
#
# Indices 1 2 3 4 5 6 
#
# 1 61.4467 14.5248 8.4137 0.0000 0.2037 0.0000
# 2 14.5248 31.7341 20.7778 0.0000 -3.2823 0.0000
# 3 8.4137 20.7778 79.0061 0.0000 -24.3423 0.0000
# 4 0.0000 0.0000 0.0000 32.6975 0.0000 -1.1839
# 5 0.2037 -3.2823 -24.3423 0.0000 40.2188 0.0000
# 6 0.0000 0.0000 0.0000 -1.1839 0.0000 12.9837
#
#
#
# Elastic Compliance Matrix: (Units=1/GPa)
#
#
# Indices 1 2 3 4 5 6 
#
# 1 0.018273 -0.008475 0.000051 0.000000 -0.000754 0.000000
# 2 -0.008475 0.042433 -0.011280 0.000000 -0.003321 0.000000
# 3 0.000051 -0.011280 0.018850 0.000000 0.010488 0.000000
# 4 0.000000 0.000000 0.000000 0.030685 0.000000 0.002798
# 5 -0.000754 -0.003321 0.010488 0.000000 0.030945 0.000000
# 6 0.000000 0.000000 0.000000 0.002798 0.000000 0.077275
#
#
# Mechanical properties :
#
#
# Convention : Reuss Voigt Hill
#
# Bulk Modulus (GPa) = 24.90838 28.84661 26.87750
# Shear Modulus (GPa) = 18.43310 25.74471 22.08890
#
# Velocity S-wave (km/s) = 2.92157 3.45272 3.19819
# Velocity P-wave (km/s) = 4.78694 5.40858 5.10723
#
# Compressibility (1/GPa) = 0.04014713
#
# Stress axis : x y z
#
# Youngs Moduli (GPa) = 54.72530 23.56656 53.05066
#
# Poissons Ratio (x) = 0.19972 -0.00269
# Poissons Ratio (y) = 0.46378 0.59843
# Poissons Ratio (z) = -0.00277 0.26584
#
# Static dielectric constant tensor:
#      x y z
#    x 1.768330 0.000000 -0.022870 
#    y 0.000000 1.773830 0.000000 
#    z -0.022870 0.000000 1.764570 
# 
# From -- ./inp_files/159360.got.cif
#   From: 2010.05.17/outbox.cif.g08.bks.cpg/sg15_80_cif.got.tgz:159360.got - 2010.06.03 18:47:42.
