data_PCOD9293606
_publ_section_title
;
Structure prediction by ZEFSAII (Michael W. Deem and Ramdas Pophale) SiO2 
 PCOD9293606
Probable space group: C 2/C
;
_chemical_formula_sum "Si O2"
_cell_formula_units_Z 32
_cell_length_a 10.914128
_cell_length_b 19.264045
_cell_length_c 6.693368
_cell_angle_alpha 90.000000
_cell_angle_beta 68.863688
_cell_angle_gamma 90.000000
_cell_volume 1312.607671
_symmetry_space_group_name_H-M "C 2/C"
_symmetry_group_IT_number 15
_symmetry_cell_setting 'monoclinic'
loop_
_space_group_symop_operation_xyz
x,y,z
-x,y,1/2-z
-x,-y,-z
x,-y,1/2+z
1/2+x,1/2+y,z
1/2-x,1/2+y,1/2-z
1/2-x,1/2-y,-z
1/2+x,1/2-y,1/2+z
loop_
_atom_site_type_symbol
_atom_site_label
_atom_site_fract_x
_atom_site_fract_y
_atom_site_fract_z
Si Si1 0.824630 0.281619 0.143828
Si Si2 0.307556 0.658434 0.387833
Si Si3 0.640288 0.908157 0.644857
Si Si4 0.103309 0.994390 0.567708
O O1 0.735551 0.306199 0.380542
O O2 0.888514 0.212222 0.200464
O O3 0.750000 0.250000 0.000000
O O4 0.885650 0.351037 0.014671
O O5 0.186111 0.633867 0.316684
O O6 0.371546 0.587166 0.413133
O O7 0.500000 0.945662 0.750000
O O8 0.764005 0.957758 0.524538
O O9 0.066940 0.989445 0.337923
#
# Coordination Sequence:
#
# PCOD9293606 Si02
#       4
#     8   8   8   8
#     4   9  21  46  71 104 151 200 250 308 384 456
#     4  10  22  46  70 106 149 201 251 314 374 455
#     4  11  25  46  72 112 150 197 253 316 383 455
#     4  12  24  46  73 110 148 200 256 309 383 453
#
# _framework density 24.378952000000002
#
# number of rings (size 3 to 8) (size 9 to 14) (size 15 to 20)
#    0.000    1.500    2.500    1.500    0.000    2.000 
#   13.500    6.250    0.000    0.000    0.000    0.000 
#    0.000    0.000    0.000    0.000    0.000    0.000 
#
# Total GULP energy -89151.076068 kJ/mol
# GULP energy per Si atom -5571.942254 kJ/mol
# Density = 2.432346 g / cm^3
# Si number density = 24.378952 Si / 1000 Ang^3
#
#
#
# Elastic Constant Matrix: (Units=GPa)
#
#
# Indices 1 2 3 4 5 6 
#
# 1 179.2546 75.4898 81.3559 0.0000 -0.2493 0.0000
# 2 75.4898 166.8414 63.0216 0.0000 11.1865 0.0000
# 3 81.3559 63.0216 197.1736 0.0000 23.5891 0.0000
# 4 0.0000 0.0000 0.0000 59.3697 0.0000 17.5990
# 5 -0.2493 11.1865 23.5891 0.0000 38.6687 0.0000
# 6 0.0000 0.0000 0.0000 17.5990 0.0000 10.6983
#
#
#
# Elastic Compliance Matrix: (Units=1/GPa)
#
#
# Indices 1 2 3 4 5 6 
#
# 1 0.007970 -0.002751 -0.002708 0.000000 0.002499 0.000000
# 2 -0.002751 0.007783 -0.001166 0.000000 -0.001558 0.000000
# 3 -0.002708 -0.001166 0.007037 0.000000 -0.003973 0.000000
# 4 0.000000 0.000000 0.000000 0.032874 0.000000 -0.054079
# 5 0.002499 -0.001558 -0.003973 0.000000 0.028751 0.000000
# 6 0.000000 0.000000 0.000000 -0.054079 0.000000 0.182434
#
#
# Mechanical properties :
#
#
# Convention : Reuss Voigt Hill
#
# Bulk Modulus (GPa) = 104.82466 109.22268 107.02367
# Shear Modulus (GPa) = 17.65041 43.30750 30.47896
#
# Velocity S-wave (km/s) = 2.69365 4.21934 3.53968
# Velocity P-wave (km/s) = 7.26400 8.28471 7.79109
#
# Compressibility (1/GPa) = 0.00953974
#
# Stress axis : x y z
#
# Youngs Moduli (GPa) = 125.47664 128.48019 142.10115
#
# Poissons Ratio (x) = 0.35339 0.38484
# Poissons Ratio (y) = 0.34513 0.16576
# Poissons Ratio (z) = 0.33981 0.14987
#
# Static dielectric constant tensor:
#      x y z
#    x 2.039550 0.000000 -0.029360 
#    y 0.000000 1.934330 0.000000 
#    z -0.029360 0.000000 2.003470 
# 
# From -- ./inp_files/3672.got.cif
#   From: 2010.05.17/outbox.cif.g08.bks.cpg/sg15_2_cif.got.tgz:3672.got - 2010.06.03 18:47:42.
