data_PCOD9293995
_publ_section_title
;
Structure prediction by ZEFSAII (Michael W. Deem and Ramdas Pophale) SiO2 
 PCOD9293995
Probable space group: C 2/C
;
_chemical_formula_sum "Si O2"
_cell_formula_units_Z 48
_cell_length_a 10.483244
_cell_length_b 23.165510
_cell_length_c 11.962545
_cell_angle_alpha 90.000000
_cell_angle_beta 127.336398
_cell_angle_gamma 90.000000
_cell_volume 2309.811496
_symmetry_space_group_name_H-M "C 2/C"
_symmetry_group_IT_number 15
_symmetry_cell_setting 'monoclinic'
loop_
_space_group_symop_operation_xyz
x,y,z
-x,y,1/2-z
-x,-y,-z
x,-y,1/2+z
1/2+x,1/2+y,z
1/2-x,1/2+y,1/2-z
1/2-x,1/2-y,-z
1/2+x,1/2-y,1/2+z
loop_
_atom_site_type_symbol
_atom_site_label
_atom_site_fract_x
_atom_site_fract_y
_atom_site_fract_z
Si Si1 0.693497 0.189328 0.215639
Si Si2 0.197434 0.549220 0.665810
Si Si3 0.277679 0.681965 0.018123
Si Si4 0.933488 0.437189 0.832732
Si Si5 0.032453 0.204760 0.974241
Si Si6 0.000000 0.613604 0.750000
Si Si7 0.000000 0.122423 0.750000
O O1 0.621046 0.128324 0.212455
O O2 0.559099 0.236570 0.110756
O O3 0.797240 0.172468 0.160366
O O4 0.195036 0.215912 0.128831
O O5 0.203008 0.480832 0.694578
O O6 0.359855 0.581716 0.722429
O O7 0.075507 0.559040 0.498370
O O8 0.114109 0.577676 0.729231
O O9 0.417477 0.671665 0.002711
O O10 0.116617 0.651336 0.889922
O O11 0.250000 0.750000 0.000000
O O12 0.000000 0.458562 0.750000
O O13 0.057962 0.164078 0.881119
#
# Coordination Sequence:
#
# PCOD9293995 Si02
#       7
#     8   8   8   8   8   4   4
#     4  11  25  43  69 105 142 185 233 296 353 423
#     4  11  25  46  72 102 135 193 232 293 349 420
#     4  10  23  37  68  96 137 178 236 278 341 415
#     4  11  24  45  71  99 136 183 248 283 347 422
#     4  11  26  42  68 106 146 187 229 291 362 422
#     4  12  20  46  71  97 138 192 236 278 340 432
#     4  12  26  46  69 107 150 178 234 292 366 414
#
# _framework density 20.780915
#
# number of rings (size 3 to 8) (size 9 to 14) (size 15 to 20)
#    0.000    1.000    4.167    1.500   12.833    0.667 
#    3.000    1.667    0.000    0.000    0.000    0.000 
#    0.000    0.000    0.000    0.000    0.000    0.000 
#
# Total GULP energy -134099.823029 kJ/mol
# GULP energy per Si atom -5587.492626 kJ/mol
# Density = 2.073362 g / cm^3
# Si number density = 20.780915 Si / 1000 Ang^3
#
#
#
# Elastic Constant Matrix: (Units=GPa)
#
#
# Indices 1 2 3 4 5 6 
#
# 1 105.3580 59.1669 40.1358 0.0000 -17.0475 0.0000
# 2 59.1669 124.1525 56.5846 0.0000 12.6582 0.0000
# 3 40.1358 56.5846 145.0744 0.0000 -0.7498 0.0000
# 4 0.0000 0.0000 0.0000 34.6810 0.0000 -4.7715
# 5 -17.0475 12.6582 -0.7498 0.0000 34.5577 0.0000
# 6 0.0000 0.0000 0.0000 -4.7715 0.0000 37.3017
#
#
#
# Elastic Compliance Matrix: (Units=1/GPa)
#
#
# Indices 1 2 3 4 5 6 
#
# 1 0.016525 -0.008468 -0.001211 0.000000 0.011227 0.000000
# 2 -0.008468 0.014624 -0.003411 0.000000 -0.009608 0.000000
# 3 -0.001211 -0.003411 0.008563 0.000000 0.000838 0.000000
# 4 0.000000 0.000000 0.000000 0.029351 0.000000 0.003754
# 5 0.011227 -0.009608 0.000838 0.000000 0.038013 0.000000
# 6 0.000000 0.000000 0.000000 0.003754 0.000000 0.027289
#
#
# Mechanical properties :
#
#
# Convention : Reuss Voigt Hill
#
# Bulk Modulus (GPa) = 73.89735 76.26218 75.07976
# Shear Modulus (GPa) = 30.29293 35.88791 33.09042
#
# Velocity S-wave (km/s) = 3.82216 4.16018 3.99475
# Velocity P-wave (km/s) = 7.42401 7.73654 7.58189
#
# Compressibility (1/GPa) = 0.01353229
#
# Stress axis : x y z
#
# Youngs Moduli (GPa) = 60.51514 68.37881 116.78481
#
# Poissons Ratio (x) = 0.57903 0.14141
# Poissons Ratio (y) = 0.51244 0.39835
# Poissons Ratio (z) = 0.07327 0.23324
#
# Static dielectric constant tensor:
#      x y z
#    x 1.843420 0.000000 -0.011050 
#    y 0.000000 1.724440 0.000000 
#    z -0.011050 0.000000 1.733220 
# 
# From -- ./inp_files/79912.got.cif
#   From: 2010.05.17/outbox.cif.g08.bks.cpg/sg15_40_cif.got.tgz:79912.got - 2010.06.03 18:47:42.
