data_PCOD9293857
_publ_section_title
;
Structure prediction by ZEFSAII (Michael W. Deem and Ramdas Pophale) SiO2 
 PCOD9293857
Probable space group: C 2/C
;
_chemical_formula_sum "Si O2"
_cell_formula_units_Z 32
_cell_length_a 10.593142
_cell_length_b 17.610195
_cell_length_c 10.433244
_cell_angle_alpha 90.000000
_cell_angle_beta 139.172943
_cell_angle_gamma 90.000000
_cell_volume 1272.443864
_symmetry_space_group_name_H-M "C 2/C"
_symmetry_group_IT_number 15
_symmetry_cell_setting 'monoclinic'
loop_
_space_group_symop_operation_xyz
x,y,z
-x,y,1/2-z
-x,-y,-z
x,-y,1/2+z
1/2+x,1/2+y,z
1/2-x,1/2+y,1/2-z
1/2-x,1/2-y,-z
1/2+x,1/2-y,1/2+z
loop_
_atom_site_type_symbol
_atom_site_label
_atom_site_fract_x
_atom_site_fract_y
_atom_site_fract_z
Si Si1 0.287943 0.550838 0.199911
Si Si2 0.221969 0.433743 0.924116
Si Si3 0.036018 0.157194 0.536509
Si Si4 0.026933 0.325204 0.118031
O O1 0.242426 0.518788 0.306898
O O2 0.480715 0.600334 0.376437
O O3 0.274847 0.486279 0.084063
O O4 0.125550 0.613310 0.046437
O O5 0.377300 0.367428 0.019672
O O6 0.000000 0.407176 0.750000
O O7 0.010059 0.243339 0.471870
O O8 0.255844 0.150728 0.746754
O O9 0.000000 0.318289 0.250000
#
# Coordination Sequence:
#
# PCOD9293857 Si02
#       4
#     8   8   8   8
#     4  10  24  45  77 110 158 197 259 316 388 459
#     4  10  22  48  75 111 159 205 250 320 392 464
#     4  10  24  42  79 113 148 198 266 321 384 450
#     4  12  23  47  78 113 147 205 266 322 375 472
#
# _framework density 25.148457000000001
#
# number of rings (size 3 to 8) (size 9 to 14) (size 15 to 20)
#    1.500    0.000    2.500    2.250    0.000    0.000 
#    4.500   11.250    0.000    0.000    0.000    0.000 
#    0.000    0.000    0.000    0.000    0.000    0.000 
#
# Total GULP energy -89665.124077 kJ/mol
# GULP energy per Si atom -5604.070255 kJ/mol
# Density = 2.509122 g / cm^3
# Si number density = 25.148457 Si / 1000 Ang^3
#
#
#
# Elastic Constant Matrix: (Units=GPa)
#
#
# Indices 1 2 3 4 5 6 
#
# 1 107.0028 67.6499 42.3935 0.0000 -2.3711 0.0000
# 2 67.6499 133.8884 75.3126 0.0000 6.5494 0.0000
# 3 42.3935 75.3126 136.6080 0.0000 24.7649 0.0000
# 4 0.0000 0.0000 0.0000 10.5357 0.0000 3.8033
# 5 -2.3711 6.5494 24.7649 0.0000 70.7623 0.0000
# 6 0.0000 0.0000 0.0000 3.8033 0.0000 46.2276
#
#
#
# Elastic Compliance Matrix: (Units=1/GPa)
#
#
# Indices 1 2 3 4 5 6 
#
# 1 0.013899 -0.006554 -0.000955 0.000000 0.001406 0.000000
# 2 -0.006554 0.014007 -0.005780 0.000000 0.000507 0.000000
# 3 -0.000955 -0.005780 0.011438 0.000000 -0.003500 0.000000
# 4 0.000000 0.000000 0.000000 0.097821 0.000000 -0.008048
# 5 0.001406 0.000507 -0.003500 0.000000 0.015357 0.000000
# 6 0.000000 0.000000 0.000000 -0.008048 0.000000 0.022294
#
#
# Mechanical properties :
#
#
# Convention : Reuss Voigt Hill
#
# Bulk Modulus (GPa) = 78.33837 83.13457 80.73647
# Shear Modulus (GPa) = 24.31329 38.31467 31.31398
#
# Velocity S-wave (km/s) = 3.11270 3.90749 3.53252
# Velocity P-wave (km/s) = 6.64353 7.31350 6.98655
#
# Compressibility (1/GPa) = 0.01276514
#
# Stress axis : x y z
#
# Youngs Moduli (GPa) = 71.94835 71.39183 87.43151
#
# Poissons Ratio (x) = 0.46794 0.08347
# Poissons Ratio (y) = 0.47158 0.50536
# Poissons Ratio (z) = 0.06869 0.41265
#
# Static dielectric constant tensor:
#      x y z
#    x 2.108670 0.000000 -0.014520 
#    y 0.000000 1.918920 0.000000 
#    z -0.014520 0.000000 1.983640 
# 
# From -- ./inp_files/88678.got.cif
#   From: 2010.05.17/outbox.cif.g08.bks.cpg/sg15_45_cif.got.tgz:88678.got - 2010.06.03 18:47:42.
