data_PCOD9293978
_publ_section_title
;
Structure prediction by ZEFSAII (Michael W. Deem and Ramdas Pophale) SiO2 
 PCOD9293978
Probable space group: C 2/C
;
_chemical_formula_sum "Si O2"
_cell_formula_units_Z 60
_cell_length_a 19.648549
_cell_length_b 16.709665
_cell_length_c 9.079440
_cell_angle_alpha 90.000000
_cell_angle_beta 98.356088
_cell_angle_gamma 90.000000
_cell_volume 2949.321889
_symmetry_space_group_name_H-M "C 2/C"
_symmetry_group_IT_number 15
_symmetry_cell_setting 'monoclinic'
loop_
_space_group_symop_operation_xyz
x,y,z
-x,y,1/2-z
-x,-y,-z
x,-y,1/2+z
1/2+x,1/2+y,z
1/2-x,1/2+y,1/2-z
1/2-x,1/2-y,-z
1/2+x,1/2-y,1/2+z
loop_
_atom_site_type_symbol
_atom_site_label
_atom_site_fract_x
_atom_site_fract_y
_atom_site_fract_z
Si Si1 0.000000 0.735059 0.750000
Si Si2 0.561454 0.475687 0.373875
Si Si3 0.259626 0.203972 0.652940
Si Si4 0.604778 0.892629 0.371770
Si Si5 0.084310 0.886171 0.686424
Si Si6 0.341606 0.974054 0.815504
Si Si7 0.260948 0.646681 0.354527
Si Si8 0.290288 0.415453 0.172790
O O1 0.042673 0.670823 0.860804
O O2 0.051273 0.797164 0.681674
O O3 0.500000 0.443546 0.250000
O O4 0.558888 0.441225 0.539259
O O5 0.565592 0.570245 0.334676
O O6 0.635304 0.449070 0.335638
O O7 0.250000 0.250000 0.500000
O O8 0.333153 0.162316 0.667997
O O9 0.251094 0.268524 0.776990
O O10 0.208940 0.131035 0.672408
O O11 0.623627 0.931254 0.534545
O O12 0.606642 0.966950 0.256182
O O13 0.166846 0.883478 0.694071
O O14 0.305243 0.907639 0.701876
O O15 0.273699 0.023610 0.845163
O O16 0.273742 0.642550 0.531267
#
# Coordination Sequence:
#
# PCOD9293978 Si02
#       8
#     4   8   8   8   8   8   8   8
#     4  12  26  46  64  90 134 170 222 262 330 384
#     4  11  23  39  61  95 129 174 212 242 322 393
#     4  11  22  36  63  99 125 163 214 267 335 370
#     4  11  25  42  67  93 127 172 216 273 320 387
#     4  11  24  39  66  91 132 173 205 262 315 399
#     4  11  21  41  67  97 121 165 221 267 322 369
#     4  11  20  39  62  97 128 163 204 267 328 377
#     4  10  23  37  61  93 134 161 206 272 309 392
#
# _framework density 20.343658999999999
#
# number of rings (size 3 to 8) (size 9 to 14) (size 15 to 20)
#    0.000    1.067    6.000    0.800    0.000    2.667 
#    0.000    0.000    0.000    0.000    0.000    0.000 
#    0.000    0.000    0.000    0.000    0.000    0.000 
#
# Total GULP energy -167210.354237 kJ/mol
# GULP energy per Si atom -5573.678475 kJ/mol
# Density = 2.029736 g / cm^3
# Si number density = 20.343659 Si / 1000 Ang^3
#
#
#
# Elastic Constant Matrix: (Units=GPa)
#
#
# Indices 1 2 3 4 5 6 
#
# 1 44.7184 35.0218 29.5815 0.0000 1.2297 0.0000
# 2 35.0218 122.4558 62.2064 0.0000 10.4494 0.0000
# 3 29.5815 62.2064 72.3060 0.0000 3.8383 0.0000
# 4 0.0000 0.0000 0.0000 39.0321 0.0000 -4.5580
# 5 1.2297 10.4494 3.8383 0.0000 21.5120 0.0000
# 6 0.0000 0.0000 0.0000 -4.5580 0.0000 28.8860
#
#
#
# Elastic Compliance Matrix: (Units=1/GPa)
#
#
# Indices 1 2 3 4 5 6 
#
# 1 0.032051 -0.004666 -0.009209 0.000000 0.002077 0.000000
# 2 -0.004666 0.015708 -0.011321 0.000000 -0.005343 0.000000
# 3 -0.009209 -0.011321 0.027276 0.000000 0.001159 0.000000
# 4 0.000000 0.000000 0.000000 0.026101 0.000000 0.004118
# 5 0.002077 -0.005343 0.001159 0.000000 0.048756 0.000000
# 6 0.000000 0.000000 0.000000 0.004118 0.000000 0.035269
#
#
# Mechanical properties :
#
#
# Convention : Reuss Voigt Hill
#
# Bulk Modulus (GPa) = 40.57945 54.78885 47.68415
# Shear Modulus (GPa) = 20.51160 25.39739 22.95449
#
# Velocity S-wave (km/s) = 3.17875 3.53713 3.36272
# Velocity P-wave (km/s) = 5.78471 6.60847 6.21026
#
# Compressibility (1/GPa) = 0.02464301
#
# Stress axis : x y z
#
# Youngs Moduli (GPa) = 31.20065 63.66384 36.66250
#
# Poissons Ratio (x) = 0.29703 0.33762
# Poissons Ratio (y) = 0.14557 0.41506
# Poissons Ratio (z) = 0.28732 0.72074
#
# Static dielectric constant tensor:
#      x y z
#    x 1.763150 0.000000 -0.000690 
#    y 0.000000 1.771480 0.000000 
#    z -0.000690 0.000000 1.735010 
# 
# From -- ./inp_files/56654.got.cif
#   From: 2010.05.17/outbox.cif.g08.bks.cpg/sg15_29_cif.got.tgz:56654.got - 2010.06.03 18:47:42.
