data_PCOD9293480
_publ_section_title
;
Structure prediction by ZEFSAII (Michael W. Deem and Ramdas Pophale) SiO2 
 PCOD9293480
Probable space group: C 2/C
;
_chemical_formula_sum "Si O2"
_cell_formula_units_Z 48
_cell_length_a 8.956918
_cell_length_b 11.446236
_cell_length_c 25.424531
_cell_angle_alpha 90.000000
_cell_angle_beta 110.413930
_cell_angle_gamma 90.000000
_cell_volume 2442.897439
_symmetry_space_group_name_H-M "C 2/C"
_symmetry_group_IT_number 15
_symmetry_cell_setting 'monoclinic'
loop_
_space_group_symop_operation_xyz
x,y,z
-x,y,1/2-z
-x,-y,-z
x,-y,1/2+z
1/2+x,1/2+y,z
1/2-x,1/2+y,1/2-z
1/2-x,1/2-y,-z
1/2+x,1/2-y,1/2+z
loop_
_atom_site_type_symbol
_atom_site_label
_atom_site_fract_x
_atom_site_fract_y
_atom_site_fract_z
Si Si1 0.032901 0.440891 0.430522
Si Si2 0.000000 0.413282 0.250000
Si Si3 0.306788 0.820070 0.319950
Si Si4 0.423489 0.189123 0.023513
Si Si5 0.500000 0.541856 0.750000
Si Si6 0.893994 0.074910 0.945442
Si Si7 0.692130 0.548686 0.173170
O O1 0.047125 0.581580 0.433548
O O2 0.215779 0.407136 0.444619
O O3 0.914842 0.396594 0.371669
O O4 0.966643 0.376036 0.474280
O O5 0.101772 0.332411 0.223950
O O6 0.132862 0.493237 0.295150
O O7 0.134672 0.877519 0.292771
O O8 0.296393 0.686348 0.335619
O O9 0.534816 0.296848 0.050541
O O10 0.250000 0.250000 0.000000
O O11 0.412356 0.472736 0.786672
O O12 0.884137 0.011919 0.887617
O O13 0.000000 0.000000 0.000000
#
# Coordination Sequence:
#
# PCOD9293480 Si02
#       7
#     8   4   8   8   4   8   8
#     4  11  25  43  67  98 131 182 218 275 335 402
#     4  10  22  46  62  98 128 174 224 272 336 388
#     4  11  23  43  68  95 132 169 224 272 336 391
#     4  11  25  44  66  97 139 173 222 272 333 410
#     4  10  26  42  66 100 130 178 222 276 336 396
#     4  12  24  43  70  99 135 178 224 275 342 402
#     4  11  24  43  68  98 133 174 223 278 330 399
#
# _framework density 19.648799
#
# number of rings (size 3 to 8) (size 9 to 14) (size 15 to 20)
#    0.000    1.000    3.333    2.500    2.333    1.333 
#   12.000    0.000    0.000    0.000    0.000    0.000 
#    0.000    0.000    0.000    0.000    0.000    0.000 
#
# Total GULP energy -134035.555948 kJ/mol
# GULP energy per Si atom -5584.814831 kJ/mol
# Density = 1.960408 g / cm^3
# Si number density = 19.648799 Si / 1000 Ang^3
#
#
#
# Elastic Constant Matrix: (Units=GPa)
#
#
# Indices 1 2 3 4 5 6 
#
# 1 105.8357 53.3205 19.6824 0.0000 18.7116 0.0000
# 2 53.3205 167.5079 55.7114 0.0000 31.1136 0.0000
# 3 19.6824 55.7114 88.1856 0.0000 20.4222 0.0000
# 4 0.0000 0.0000 0.0000 14.8340 0.0000 -21.4322
# 5 18.7116 31.1136 20.4222 0.0000 29.6836 0.0000
# 6 0.0000 0.0000 0.0000 -21.4322 0.0000 68.6090
#
#
#
# Elastic Compliance Matrix: (Units=1/GPa)
#
#
# Indices 1 2 3 4 5 6 
#
# 1 0.011686 -0.003000 0.000315 0.000000 -0.004439 0.000000
# 2 -0.003000 0.009172 -0.003969 0.000000 -0.004992 0.000000
# 3 0.000315 -0.003969 0.015296 0.000000 -0.006563 0.000000
# 4 0.000000 0.000000 0.000000 0.122866 0.000000 0.038381
# 5 -0.004439 -0.004992 -0.006563 0.000000 0.046234 0.000000
# 6 0.000000 0.000000 0.000000 0.038381 0.000000 0.026565
#
#
# Mechanical properties :
#
#
# Convention : Reuss Voigt Hill
#
# Bulk Modulus (GPa) = 43.76963 68.77309 56.27136
# Shear Modulus (GPa) = 19.78289 38.14630 28.96459
#
# Velocity S-wave (km/s) = 3.17649 4.41092 3.84359
# Velocity P-wave (km/s) = 5.98146 7.81145 6.95689
#
# Compressibility (1/GPa) = 0.02284689
#
# Stress axis : x y z
#
# Youngs Moduli (GPa) = 85.57009 109.02560 65.37467
#
# Poissons Ratio (x) = 0.32711 -0.02059
# Poissons Ratio (y) = 0.25673 0.25946
# Poissons Ratio (z) = -0.02696 0.43270
#
# Static dielectric constant tensor:
#      x y z
#    x 1.644350 0.000000 -0.020910 
#    y 0.000000 1.641380 0.000000 
#    z -0.020910 0.000000 1.698940 
# 
# From -- ./inp_files/263129.got.cif
#   From: 2010.05.17/outbox.cif.g08.bks.cpg/sg15_132_cif.got.tgz:263129.got - 2010.06.03 18:47:42.
