data_PCOD9293385
_publ_section_title
;
Structure prediction by ZEFSAII (Michael W. Deem and Ramdas Pophale) SiO2 
 PCOD9293385
Probable space group: C 2/C
;
_chemical_formula_sum "Si O2"
_cell_formula_units_Z 52
_cell_length_a 8.654303
_cell_length_b 23.282673
_cell_length_c 13.955783
_cell_angle_alpha 90.000000
_cell_angle_beta 116.373246
_cell_angle_gamma 90.000000
_cell_volume 2519.347222
_symmetry_space_group_name_H-M "C 2/C"
_symmetry_group_IT_number 15
_symmetry_cell_setting 'monoclinic'
loop_
_space_group_symop_operation_xyz
x,y,z
-x,y,1/2-z
-x,-y,-z
x,-y,1/2+z
1/2+x,1/2+y,z
1/2-x,1/2+y,1/2-z
1/2-x,1/2-y,-z
1/2+x,1/2-y,1/2+z
loop_
_atom_site_type_symbol
_atom_site_label
_atom_site_fract_x
_atom_site_fract_y
_atom_site_fract_z
Si Si1 0.617066 0.444039 0.542595
Si Si2 0.680507 0.885344 0.741906
Si Si3 0.916278 0.167981 0.933720
Si Si4 0.475594 0.155125 0.639876
Si Si5 0.335807 0.729320 0.355396
Si Si6 0.000000 0.791785 0.250000
Si Si7 0.462990 0.066473 0.012423
O O1 0.500000 0.500000 0.500000
O O2 0.704736 0.432399 0.670204
O O3 0.487872 0.393139 0.483399
O O4 0.778843 0.435998 0.515330
O O5 0.500000 0.876111 0.750000
O O6 0.790689 0.826152 0.777020
O O7 0.613739 0.908360 0.622488
O O8 0.724559 0.171977 0.921830
O O9 0.927282 0.174467 0.821799
O O10 0.043753 0.211358 0.023523
O O11 0.500000 0.126285 0.750000
O O12 0.576609 0.215349 0.667452
O O13 0.538637 0.110762 0.576698
O O14 0.149425 0.752194 0.334695
O O15 0.500000 0.000000 0.000000
#
# Coordination Sequence:
#
# PCOD9293385 Si02
#       7
#     8   8   8   8   8   4   8
#     4  10  22  45  72 101 133 179 233 293 351 418
#     4   9  21  43  70  98 133 176 232 287 351 420
#     4  11  25  42  65  99 140 180 232 290 347 427
#     4  12  26  44  65 101 144 184 233 287 348 421
#     4  11  23  41  69 100 134 182 229 290 357 417
#     4  12  22  40  68  98 134 180 230 286 356 416
#     4  11  25  45  71 101 136 188 232 290 355 420
#
# _framework density 20.640267000000001
#
# number of rings (size 3 to 8) (size 9 to 14) (size 15 to 20)
#    0.000    1.231    2.308    2.769    2.154    4.308 
#    0.000    5.385    0.000    0.000    0.000    0.000 
#    0.000    0.000    0.000    0.000    0.000    0.000 
#
# Total GULP energy -145126.708219 kJ/mol
# GULP energy per Si atom -5581.796470 kJ/mol
# Density = 2.059329 g / cm^3
# Si number density = 20.640267 Si / 1000 Ang^3
#
#
#
# Elastic Constant Matrix: (Units=GPa)
#
#
# Indices 1 2 3 4 5 6 
#
# 1 96.0941 45.0335 48.5125 0.0000 22.5453 0.0000
# 2 45.0335 96.4841 65.6418 0.0000 -3.4654 0.0000
# 3 48.5125 65.6418 139.9308 0.0000 1.3191 0.0000
# 4 0.0000 0.0000 0.0000 19.6400 0.0000 17.1962
# 5 22.5453 -3.4654 1.3191 0.0000 40.2547 0.0000
# 6 0.0000 0.0000 0.0000 17.1962 0.0000 33.2165
#
#
#
# Elastic Compliance Matrix: (Units=1/GPa)
#
#
# Indices 1 2 3 4 5 6 
#
# 1 0.017258 -0.006482 -0.002847 0.000000 -0.010131 0.000000
# 2 -0.006482 0.017754 -0.006132 0.000000 0.005360 0.000000
# 3 -0.002847 -0.006132 0.011003 0.000000 0.000706 0.000000
# 4 0.000000 0.000000 0.000000 0.093131 0.000000 -0.048214
# 5 -0.010131 0.005360 0.000706 0.000000 0.030954 0.000000
# 6 0.000000 0.000000 0.000000 -0.048214 0.000000 0.055066
#
#
# Mechanical properties :
#
#
# Convention : Reuss Voigt Hill
#
# Bulk Modulus (GPa) = 66.25218 72.32048 69.28633
# Shear Modulus (GPa) = 19.14832 30.17699 24.66265
#
# Velocity S-wave (km/s) = 3.04915 3.82782 3.46045
# Velocity P-wave (km/s) = 6.67567 7.39262 7.04328
#
# Compressibility (1/GPa) = 0.01509384
#
# Stress axis : x y z
#
# Youngs Moduli (GPa) = 57.94286 56.32515 90.88325
#
# Poissons Ratio (x) = 0.36511 0.25874
# Poissons Ratio (y) = 0.37560 0.55727
# Poissons Ratio (z) = 0.16496 0.34537
#
# Static dielectric constant tensor:
#      x y z
#    x 1.756070 0.000000 -0.043720 
#    y 0.000000 2.131720 0.000000 
#    z -0.043720 0.000000 1.739250 
# 
# From -- ./inp_files/137520.got.cif
#   From: 2010.05.17/outbox.cif.g08.bks.cpg/sg15_69_cif.got.tgz:137520.got - 2010.06.03 18:47:42.
