data_PCOD9293714
_publ_section_title
;
Structure prediction by ZEFSAII (Michael W. Deem and Ramdas Pophale) SiO2 
 PCOD9293714
Probable space group: C 2/C
;
_chemical_formula_sum "Si O2"
_cell_formula_units_Z 44
_cell_length_a 27.360966
_cell_length_b 7.150961
_cell_length_c 12.381689
_cell_angle_alpha 90.000000
_cell_angle_beta 138.098992
_cell_angle_gamma 90.000000
_cell_volume 1617.900573
_symmetry_space_group_name_H-M "C 2/C"
_symmetry_group_IT_number 15
_symmetry_cell_setting 'monoclinic'
loop_
_space_group_symop_operation_xyz
x,y,z
-x,y,1/2-z
-x,-y,-z
x,-y,1/2+z
1/2+x,1/2+y,z
1/2-x,1/2+y,1/2-z
1/2-x,1/2-y,-z
1/2+x,1/2-y,1/2+z
loop_
_atom_site_type_symbol
_atom_site_label
_atom_site_fract_x
_atom_site_fract_y
_atom_site_fract_z
Si Si1 0.500000 0.500000 0.000000
Si Si2 0.640668 0.463208 0.918733
Si Si3 0.413691 0.748371 0.515986
Si Si4 0.253314 0.384984 0.748021
Si Si5 0.135891 0.756941 0.226652
Si Si6 0.121751 0.452640 0.384728
O O1 0.533295 0.681199 0.988842
O O2 0.567038 0.365181 0.062754
O O3 0.664715 0.580584 0.854881
O O4 0.605892 0.264321 0.837353
O O5 0.582320 0.600700 0.878058
O O6 0.707036 0.455367 0.111374
O O7 0.328080 0.725993 0.340940
O O8 0.420804 0.949133 0.585479
O O9 0.195966 0.303850 0.740450
O O10 0.205480 0.449591 0.567803
O O11 0.116777 0.580183 0.270969
#
# Coordination Sequence:
#
# PCOD9293714 Si02
#       6
#     4   8   8   8   8   8
#     4  12  26  50  74 102 166 224 258 346 418 488
#     4   9  22  41  72 108 155 200 266 344 402 476
#     4   9  24  43  69 104 154 206 265 332 412 483
#     4  10  22  46  75 114 160 205 272 354 401 497
#     4  11  26  45  73 113 157 217 275 328 422 500
#     4  11  22  43  76 117 149 208 279 340 404 492
#
# _framework density 27.195739
#
# number of rings (size 3 to 8) (size 9 to 14) (size 15 to 20)
#    1.091    0.727    0.000    2.727    2.545    5.091 
#    0.000   11.818    0.000    0.000    0.000    0.000 
#    0.000    0.000    0.000    0.000    0.000    0.000 
#
# Total GULP energy -122573.550004 kJ/mol
# GULP energy per Si atom -5571.525000 kJ/mol
# Density = 2.713384 g / cm^3
# Si number density = 27.195739 Si / 1000 Ang^3
#
#
#
# Elastic Constant Matrix: (Units=GPa)
#
#
# Indices 1 2 3 4 5 6 
#
# 1 125.1896 16.8529 1.8222 0.0000 20.0664 0.0000
# 2 16.8529 145.3978 -4.2724 0.0000 -9.3078 0.0000
# 3 1.8222 -4.2724 94.5173 0.0000 8.7776 0.0000
# 4 0.0000 0.0000 0.0000 40.5259 0.0000 -2.3309
# 5 20.0664 -9.3078 8.7776 0.0000 34.6641 0.0000
# 6 0.0000 0.0000 0.0000 -2.3309 0.0000 46.3083
#
#
#
# Elastic Compliance Matrix: (Units=1/GPa)
#
#
# Indices 1 2 3 4 5 6 
#
# 1 0.009090 -0.001411 0.000292 0.000000 -0.005714 0.000000
# 2 -0.001411 0.007219 0.000100 0.000000 0.002730 0.000000
# 3 0.000292 0.000100 0.010847 0.000000 -0.002889 0.000000
# 4 0.000000 0.000000 0.000000 0.024747 0.000000 0.001246
# 5 -0.005714 0.002730 -0.002889 0.000000 0.033621 0.000000
# 6 0.000000 0.000000 0.000000 0.001246 0.000000 0.021657
#
#
# Mechanical properties :
#
#
# Convention : Reuss Voigt Hill
#
# Bulk Modulus (GPa) = 39.81302 43.76780 41.79041
# Shear Modulus (GPa) = 42.52013 47.67980 45.09996
#
# Velocity S-wave (km/s) = 3.95838 4.19168 4.07670
# Velocity P-wave (km/s) = 5.96347 6.28931 6.12855
#
# Compressibility (1/GPa) = 0.02511741
#
# Stress axis : x y z
#
# Youngs Moduli (GPa) = 110.01684 138.52542 92.18937
#
# Poissons Ratio (x) = 0.19543 -0.02689
# Poissons Ratio (y) = 0.15521 -0.00922
# Poissons Ratio (z) = -0.03209 -0.01385
#
# Static dielectric constant tensor:
#      x y z
#    x 2.019850 0.000000 -0.050760 
#    y 0.000000 2.257330 0.000000 
#    z -0.050760 0.000000 2.256570 
# 
# From -- ./inp_files/176751.got.cif
#   From: 2010.05.17/outbox.cif.g08.bks.cpg/sg15_89_cif.got.tgz:176751.got - 2010.06.03 18:47:42.
