data_PCOD9293330
_publ_section_title
;
Structure prediction by ZEFSAII (Michael W. Deem and Ramdas Pophale) SiO2 
 PCOD9293330
Probable space group: C 2/C
;
_chemical_formula_sum "Si O2"
_cell_formula_units_Z 40
_cell_length_a 23.117513
_cell_length_b 5.304352
_cell_length_c 21.549119
_cell_angle_alpha 90.000000
_cell_angle_beta 142.118121
_cell_angle_gamma 90.000000
_cell_volume 1622.544142
_symmetry_space_group_name_H-M "C 2/C"
_symmetry_group_IT_number 15
_symmetry_cell_setting 'monoclinic'
loop_
_space_group_symop_operation_xyz
x,y,z
-x,y,1/2-z
-x,-y,-z
x,-y,1/2+z
1/2+x,1/2+y,z
1/2-x,1/2+y,1/2-z
1/2-x,1/2-y,-z
1/2+x,1/2-y,1/2+z
loop_
_atom_site_type_symbol
_atom_site_label
_atom_site_fract_x
_atom_site_fract_y
_atom_site_fract_z
Si Si1 0.686118 0.680337 0.690894
Si Si2 0.965334 0.260312 0.158109
Si Si3 0.493751 0.072788 0.421546
Si Si4 0.846477 0.941251 0.963694
Si Si5 0.704627 0.003948 0.432733
O O1 0.752135 0.437816 0.762502
O O2 0.594403 0.732903 0.655586
O O3 0.641990 0.601709 0.587948
O O4 0.900589 0.069407 0.065698
O O5 0.902929 0.477032 0.139120
O O6 0.000000 0.123460 0.250000
O O7 0.023998 0.378818 0.150412
O O8 0.598911 0.181290 0.498672
O O9 0.500000 0.000000 0.500000
O O10 0.736735 0.960667 0.888858
O O11 0.750000 0.250000 0.500000
O O12 0.750000 0.750000 0.500000
#
# Coordination Sequence:
#
# PCOD9293330 Si02
#       5
#     8   8   8   8   8
#     4  12  29  46  75 115 150 200 256 318 386 457
#     4  11  26  46  74 112 148 203 253 314 381 466
#     4  12  25  49  79 108 155 202 261 320 391 456
#     4  11  25  48  78 104 157 197 255 316 388 455
#     4  10  22  45  70 102 142 191 242 300 373 441
#
# _framework density 24.652642
#
# number of rings (size 3 to 8) (size 9 to 14) (size 15 to 20)
#    0.000    0.800    4.000    1.800    5.600    0.800 
#    0.000    0.000    0.000    0.000    0.000    0.000 
#    0.000    0.000    0.000    0.000    0.000    0.000 
#
# Total GULP energy -111501.416563 kJ/mol
# GULP energy per Si atom -5575.070828 kJ/mol
# Density = 2.459653 g / cm^3
# Si number density = 24.652642 Si / 1000 Ang^3
#
#
#
# Elastic Constant Matrix: (Units=GPa)
#
#
# Indices 1 2 3 4 5 6 
#
# 1 89.1910 -14.3002 1.3333 -0.0025 -19.5755 -0.0116
# 2 -14.3002 76.0328 9.5920 -0.0017 5.0221 -0.0164
# 3 1.3333 9.5920 119.1358 0.0003 -26.0011 -0.0031
# 4 -0.0025 -0.0017 0.0003 28.2866 -0.0005 -1.7217
# 5 -19.5755 5.0221 -26.0011 -0.0005 40.1095 -0.0019
# 6 -0.0116 -0.0164 -0.0031 -1.7217 -0.0019 40.8528
#
#
#
# Elastic Compliance Matrix: (Units=1/GPa)
#
#
# Indices 1 2 3 4 5 6 
#
# 1 0.013003 0.001837 0.001213 0.000002 0.006903 0.000005
# 2 0.001837 0.013811 -0.001531 0.000001 -0.001825 0.000006
# 3 0.001213 -0.001531 0.010104 0.000000 0.007334 0.000001
# 4 0.000002 0.000001 0.000000 0.035443 0.000001 0.001494
# 5 0.006903 -0.001825 0.007334 0.000001 0.033283 0.000003
# 6 0.000005 0.000006 0.000001 0.001494 0.000003 0.024541
#
#
# Mechanical properties :
#
#
# Convention : Reuss Voigt Hill
#
# Bulk Modulus (GPa) = 25.02736 30.84553 27.93644
# Shear Modulus (GPa) = 35.59544 41.03208 38.31376
#
# Velocity S-wave (km/s) = 3.80396 4.08414 3.94654
# Velocity P-wave (km/s) = 5.42840 5.89742 5.66776
#
# Compressibility (1/GPa) = 0.03995628
#
# Stress axis : x y z
#
# Youngs Moduli (GPa) = 76.90401 72.40416 98.97030
#
# Poissons Ratio (x) = -0.13298 -0.12006
# Poissons Ratio (y) = -0.14125 0.15152
# Poissons Ratio (z) = -0.09329 0.11085
#
# Static dielectric constant tensor:
#      x y z
#    x 2.139420 0.000000 0.054590 
#    y 0.000000 2.026670 0.000000 
#    z 0.054590 0.000000 2.073120 
# 
# From -- ./inp_files/254530.got.cif
#   From: 2010.05.17/outbox.cif.g08.bks.cpg/sg15_128_cif.got.tgz:254530.got - 2010.06.03 18:47:42.
