data_PCOD9293255
_publ_section_title
;
Structure prediction by ZEFSAII (Michael W. Deem and Ramdas Pophale) SiO2 
 PCOD9293255
Probable space group: C 2/C
;
_chemical_formula_sum "Si O2"
_cell_formula_units_Z 56
_cell_length_a 18.635326
_cell_length_b 11.225301
_cell_length_c 11.811223
_cell_angle_alpha 90.000000
_cell_angle_beta 110.390639
_cell_angle_gamma 90.000000
_cell_volume 2315.935779
_symmetry_space_group_name_H-M "C 2/C"
_symmetry_group_IT_number 15
_symmetry_cell_setting 'monoclinic'
loop_
_space_group_symop_operation_xyz
x,y,z
-x,y,1/2-z
-x,-y,-z
x,-y,1/2+z
1/2+x,1/2+y,z
1/2-x,1/2+y,1/2-z
1/2-x,1/2-y,-z
1/2+x,1/2-y,1/2+z
loop_
_atom_site_type_symbol
_atom_site_label
_atom_site_fract_x
_atom_site_fract_y
_atom_site_fract_z
Si Si1 0.732964 0.601158 0.369067
Si Si2 0.308443 0.928476 0.558792
Si Si3 0.644920 0.673903 0.947164
Si Si4 0.409961 0.643202 0.351802
Si Si5 0.142623 0.790643 0.025303
Si Si6 0.938869 0.898719 0.303411
Si Si7 0.084389 0.623655 0.796548
O O1 0.791397 0.496325 0.431355
O O2 0.673731 0.599133 0.235426
O O3 0.786046 0.717875 0.383776
O O4 0.682756 0.619579 0.457702
O O5 0.361463 0.814868 0.572748
O O6 0.227393 0.866105 0.540852
O O7 0.347986 0.025381 0.663012
O O8 0.633785 0.611329 0.821405
O O9 0.585199 0.641153 0.011285
O O10 0.462350 0.536219 0.336179
O O11 0.416025 0.774098 0.300597
O O12 0.089754 0.843693 0.094241
O O13 0.096827 0.700231 0.918514
O O14 0.000000 0.840996 0.250000
O O15 0.000000 0.567230 0.750000
#
# Coordination Sequence:
#
# PCOD9293255 Si02
#       7
#     8   8   8   8   8   8   8
#     4   9  18  40  70 101 132 182 237 303 362 415
#     4  10  22  45  67 102 142 175 241 301 364 424
#     4  11  26  43  66 107 138 183 247 302 365 427
#     4  11  24  41  71 100 138 186 247 296 358 440
#     4   9  21  40  68 103 138 184 244 292 353 437
#     4  12  27  44  68 100 153 198 234 304 372 429
#     4  10  23  45  73 103 138 190 237 289 367 440
#
# _framework density 24.180291
#
# number of rings (size 3 to 8) (size 9 to 14) (size 15 to 20)
#    0.000    1.714    1.429    2.143    8.000    2.286 
#    2.571    0.714    0.000    0.000    0.000    0.000 
#    0.000    0.000    0.000    0.000    0.000    0.000 
#
# Total GULP energy -156304.873136 kJ/mol
# GULP energy per Si atom -5582.316898 kJ/mol
# Density = 2.412526 g / cm^3
# Si number density = 24.180291 Si / 1000 Ang^3
#
#
#
# Elastic Constant Matrix: (Units=GPa)
#
#
# Indices 1 2 3 4 5 6 
#
# 1 74.6239 28.6971 23.7705 0.0000 -14.6730 0.0000
# 2 28.6971 123.6518 24.0376 0.0000 -14.9611 0.0000
# 3 23.7705 24.0376 77.3080 0.0000 -20.9784 0.0000
# 4 0.0000 0.0000 0.0000 14.3824 0.0000 12.1833
# 5 -14.6730 -14.9611 -20.9784 0.0000 48.6237 0.0000
# 6 0.0000 0.0000 0.0000 12.1833 0.0000 24.0386
#
#
#
# Elastic Compliance Matrix: (Units=1/GPa)
#
#
# Indices 1 2 3 4 5 6 
#
# 1 0.016037 -0.002757 -0.003387 0.000000 0.002530 0.000000
# 2 -0.002757 0.009206 -0.001667 0.000000 0.001281 0.000000
# 3 -0.003387 -0.001667 0.015945 0.000000 0.005344 0.000000
# 4 0.000000 0.000000 0.000000 0.121838 0.000000 -0.061750
# 5 0.002530 0.001281 0.005344 0.000000 0.024030 0.000000
# 6 0.000000 0.000000 0.000000 -0.061750 0.000000 0.072896
#
#
# Mechanical properties :
#
#
# Convention : Reuss Voigt Hill
#
# Bulk Modulus (GPa) = 39.11503 47.62157 43.36830
# Shear Modulus (GPa) = 17.59961 30.68084 24.14022
#
# Velocity S-wave (km/s) = 2.70079 3.56594 3.16308
# Velocity P-wave (km/s) = 5.09286 6.05737 5.59593
#
# Compressibility (1/GPa) = 0.02556562
#
# Stress axis : x y z
#
# Youngs Moduli (GPa) = 62.35472 108.62181 62.71408
#
# Poissons Ratio (x) = 0.29951 0.21243
# Poissons Ratio (y) = 0.17194 0.10454
# Poissons Ratio (z) = 0.21121 0.18107
#
# Static dielectric constant tensor:
#      x y z
#    x 2.026250 0.000000 0.066470 
#    y 0.000000 1.950350 0.000000 
#    z 0.066470 0.000000 1.919000 
# 
# From -- ./inp_files/111670.got.cif
#   From: 2010.05.17/outbox.cif.g08.bks.cpg/sg15_56_cif.got.tgz:111670.got - 2010.06.03 18:47:42.
