data_PCOD9293672
_publ_section_title
;
Structure prediction by ZEFSAII (Michael W. Deem and Ramdas Pophale) SiO2 
 PCOD9293672
Probable space group: C 2/C
;
_chemical_formula_sum "Si O2"
_cell_formula_units_Z 24
_cell_length_a 16.810228
_cell_length_b 8.817187
_cell_length_c 10.633574
_cell_angle_alpha 90.000000
_cell_angle_beta 29.928438
_cell_angle_gamma 90.000000
_cell_volume 786.343033
_symmetry_space_group_name_H-M "C 2/C"
_symmetry_group_IT_number 15
_symmetry_cell_setting 'monoclinic'
loop_
_space_group_symop_operation_xyz
x,y,z
-x,y,1/2-z
-x,-y,-z
x,-y,1/2+z
1/2+x,1/2+y,z
1/2-x,1/2+y,1/2-z
1/2-x,1/2-y,-z
1/2+x,1/2-y,1/2+z
loop_
_atom_site_type_symbol
_atom_site_label
_atom_site_fract_x
_atom_site_fract_y
_atom_site_fract_z
Si Si1 0.221054 0.234704 0.253753
Si Si2 0.000000 0.929616 0.750000
Si Si3 0.500000 0.000000 0.500000
Si Si4 0.258539 0.936131 0.059581
O O1 0.065208 0.318010 0.414556
O O2 0.265274 0.059590 0.167557
O O3 0.220848 0.276667 0.400545
O O4 0.362377 0.324301 0.991777
O O5 0.914292 0.029491 0.761651
O O6 0.393777 0.972514 0.774337
#
# Coordination Sequence:
#
# PCOD9293672 Si02
#       4
#     8   4   4   8
#     4  11  25  44  80 113 156 205 261 330 387 472
#     4  10  22  46  72 112 152 208 258 324 382 480
#     4  10  22  46  78 112 148 216 256 316 388 476
#     4  11  25  47  82 112 158 205 266 321 399 464
#
# _framework density 30.521031000000001
#
# number of rings (size 3 to 8) (size 9 to 14) (size 15 to 20)
#    0.000    1.333    0.000    6.000    9.333    0.000 
#    6.000    3.333    0.000    8.000    0.000    0.000 
#    0.000    0.000    0.000    0.000    0.000    0.000 
#
# Total GULP energy -67086.665137 kJ/mol
# GULP energy per Si atom -5590.555428 kJ/mol
# Density = 3.045156 g / cm^3
# Si number density = 30.521031 Si / 1000 Ang^3
#
#
#
# Elastic Constant Matrix: (Units=GPa)
#
#
# Indices 1 2 3 4 5 6 
#
# 1 81.7910 13.6299 26.5567 0.0000 15.1945 0.0000
# 2 13.6299 173.4518 50.9373 0.0000 6.5070 0.0000
# 3 26.5567 50.9373 211.0710 0.0000 21.7112 0.0000
# 4 0.0000 0.0000 0.0000 55.4677 0.0000 13.7529
# 5 15.1945 6.5070 21.7112 0.0000 57.1973 0.0000
# 6 0.0000 0.0000 0.0000 13.7529 0.0000 68.2221
#
#
#
# Elastic Compliance Matrix: (Units=1/GPa)
#
#
# Indices 1 2 3 4 5 6 
#
# 1 0.013276 -0.000571 -0.001224 0.000000 -0.002997 0.000000
# 2 -0.000571 0.006231 -0.001430 0.000000 -0.000014 0.000000
# 3 -0.001224 -0.001430 0.005397 0.000000 -0.001561 0.000000
# 4 0.000000 0.000000 0.000000 0.018977 0.000000 -0.003826
# 5 -0.002997 -0.000014 -0.001561 0.000000 0.018874 0.000000
# 6 0.000000 0.000000 0.000000 -0.003826 0.000000 0.015429
#
#
# Mechanical properties :
#
#
# Convention : Reuss Voigt Hill
#
# Bulk Modulus (GPa) = 54.19342 72.06238 63.12790
# Shear Modulus (GPa) = 55.07444 61.19009 58.13226
#
# Velocity S-wave (km/s) = 4.25252 4.48241 4.36898
# Velocity P-wave (km/s) = 6.47353 7.10291 6.79551
#
# Compressibility (1/GPa) = 0.01845243
#
# Stress axis : x y z
#
# Youngs Moduli (GPa) = 75.32536 160.49426 185.27100
#
# Poissons Ratio (x) = 0.09169 0.22681
# Poissons Ratio (y) = 0.04303 0.26500
# Poissons Ratio (z) = 0.09221 0.22956
#
# Static dielectric constant tensor:
#      x y z
#    x 1.546050 0.000000 0.657730 
#    y 0.000000 2.389580 0.000000 
#    z 0.657730 0.000000 1.699470 
# 
# From -- ./inp_files/110240.got.cif
#   From: 2010.05.17/outbox.cif.g08.bks.cpg/sg15_56_cif.got.tgz:110240.got - 2010.06.03 18:47:42.
