data_PCOD9293746
_publ_section_title
;
Structure prediction by ZEFSAII (Michael W. Deem and Ramdas Pophale) SiO2 
 PCOD9293746
Probable space group: C 2/C
;
_chemical_formula_sum "Si O2"
_cell_formula_units_Z 52
_cell_length_a 23.905532
_cell_length_b 8.832141
_cell_length_c 11.451280
_cell_angle_alpha 90.000000
_cell_angle_beta 124.211820
_cell_angle_gamma 90.000000
_cell_volume 1999.426113
_symmetry_space_group_name_H-M "C 2/C"
_symmetry_group_IT_number 15
_symmetry_cell_setting 'monoclinic'
loop_
_space_group_symop_operation_xyz
x,y,z
-x,y,1/2-z
-x,-y,-z
x,-y,1/2+z
1/2+x,1/2+y,z
1/2-x,1/2+y,1/2-z
1/2-x,1/2-y,-z
1/2+x,1/2-y,1/2+z
loop_
_atom_site_type_symbol
_atom_site_label
_atom_site_fract_x
_atom_site_fract_y
_atom_site_fract_z
Si Si1 0.258353 0.283687 0.677660
Si Si2 0.370547 0.530884 0.725727
Si Si3 0.000000 0.886831 0.750000
Si Si4 0.832010 0.430625 0.109695
Si Si5 0.431219 0.216847 0.461410
Si Si6 0.820308 0.752244 0.975161
Si Si7 0.577344 0.121723 0.580534
O O1 0.316517 0.406674 0.708741
O O2 0.192405 0.327723 0.527179
O O3 0.281796 0.121928 0.654772
O O4 0.256360 0.270648 0.814521
O O5 0.443771 0.472391 0.764561
O O6 0.334648 0.608470 0.573807
O O7 0.388215 0.660032 0.841144
O O8 0.044596 0.790657 0.891259
O O9 0.902190 0.391082 0.258170
O O10 0.823491 0.601376 0.057249
O O11 0.501099 0.175466 0.475149
O O12 0.405231 0.045862 0.444559
O O13 0.879344 0.732407 0.948801
#
# Coordination Sequence:
#
# PCOD9293746 Si02
#       7
#     8   8   4   8   8   8   8
#     4  10  25  44  68 101 140 171 229 291 335 405
#     4  12  24  44  66 103 140 177 224 285 345 403
#     4  12  24  36  68  94 138 178 220 274 344 396
#     4  10  22  47  66  94 132 181 223 282 335 407
#     4  11  24  41  63 100 133 181 221 285 337 402
#     4  11  23  42  70  96 127 184 221 276 340 411
#     4  10  23  42  66  95 135 172 235 273 336 409
#
# _framework density 26.007462
#
# number of rings (size 3 to 8) (size 9 to 14) (size 15 to 20)
#    0.000    1.231    1.538    4.154    4.308    4.308 
#    2.769    0.000    0.000    0.000    0.000    0.000 
#    0.000    0.000    0.000    0.000    0.000    0.000 
#
# Total GULP energy -145600.042668 kJ/mol
# GULP energy per Si atom -5600.001641 kJ/mol
# Density = 2.594827 g / cm^3
# Si number density = 26.007462 Si / 1000 Ang^3
#
#
#
# Elastic Constant Matrix: (Units=GPa)
#
#
# Indices 1 2 3 4 5 6 
#
# 1 102.5220 23.8699 22.4750 0.0000 7.9614 0.0000
# 2 23.8699 108.9032 46.4879 0.0000 -6.8838 0.0000
# 3 22.4750 46.4879 171.4022 0.0000 -4.1311 0.0000
# 4 0.0000 0.0000 0.0000 63.7542 0.0000 -7.9057
# 5 7.9614 -6.8838 -4.1311 0.0000 36.3776 0.0000
# 6 0.0000 0.0000 0.0000 -7.9057 0.0000 40.7133
#
#
#
# Elastic Compliance Matrix: (Units=1/GPa)
#
#
# Indices 1 2 3 4 5 6 
#
# 1 0.010667 -0.002139 -0.000887 0.000000 -0.002840 0.000000
# 2 -0.002139 0.010913 -0.002626 0.000000 0.002235 0.000000
# 3 -0.000887 -0.002626 0.006674 0.000000 0.000455 0.000000
# 4 0.000000 0.000000 0.000000 0.016072 0.000000 0.003121
# 5 -0.002840 0.002235 0.000455 0.000000 0.028586 0.000000
# 6 0.000000 0.000000 0.000000 0.003121 0.000000 0.025168
#
#
# Mechanical properties :
#
#
# Convention : Reuss Voigt Hill
#
# Bulk Modulus (GPa) = 58.99388 63.16587 61.07988
# Shear Modulus (GPa) = 43.46569 47.50200 45.48385
#
# Velocity S-wave (km/s) = 4.09256 4.27837 4.18649
# Velocity P-wave (km/s) = 6.71303 6.98185 6.84876
#
# Compressibility (1/GPa) = 0.01695091
#
# Stress axis : x y z
#
# Youngs Moduli (GPa) = 93.74707 91.63078 149.84347
#
# Poissons Ratio (x) = 0.19599 0.13292
# Poissons Ratio (y) = 0.20052 0.39343
# Poissons Ratio (z) = 0.08316 0.24059
#
# Static dielectric constant tensor:
#      x y z
#    x 2.160540 0.000000 0.044340 
#    y 0.000000 2.012450 0.000000 
#    z 0.044340 0.000000 2.017370 
# 
# From -- ./inp_files/122058.got.cif
#   From: 2010.05.17/outbox.cif.g08.bks.cpg/sg15_62_cif.got.tgz:122058.got - 2010.06.03 18:47:42.
