data_PCOD9293022
_publ_section_title
;
Structure prediction by ZEFSAII (Michael W. Deem and Ramdas Pophale) SiO2 
 PCOD9293022
Probable space group: C 2/C
;
_chemical_formula_sum "Si O2"
_cell_formula_units_Z 48
_cell_length_a 11.715971
_cell_length_b 9.005854
_cell_length_c 17.929076
_cell_angle_alpha 90.000000
_cell_angle_beta 75.519348
_cell_angle_gamma 90.000000
_cell_volume 1831.641989
_symmetry_space_group_name_H-M "C 2/C"
_symmetry_group_IT_number 15
_symmetry_cell_setting 'monoclinic'
loop_
_space_group_symop_operation_xyz
x,y,z
-x,y,1/2-z
-x,-y,-z
x,-y,1/2+z
1/2+x,1/2+y,z
1/2-x,1/2+y,1/2-z
1/2-x,1/2-y,-z
1/2+x,1/2-y,1/2+z
loop_
_atom_site_type_symbol
_atom_site_label
_atom_site_fract_x
_atom_site_fract_y
_atom_site_fract_z
Si Si1 0.889582 0.712843 0.551294
Si Si2 0.326287 0.446507 0.035618
Si Si3 0.774361 0.893407 0.779184
Si Si4 0.392549 0.231829 0.889479
Si Si5 0.461127 0.790091 0.610532
Si Si6 0.174891 0.802239 0.172424
O O1 0.808444 0.406837 0.422434
O O2 0.973867 0.701465 0.609620
O O3 0.961706 0.646864 0.470317
O O4 0.864901 0.884661 0.534426
O O5 0.354390 0.364148 0.952852
O O6 0.238799 0.650909 0.909358
O O7 0.401177 0.355340 0.084622
O O8 0.861921 0.788326 0.812179
O O9 0.647845 0.886226 0.842421
O O10 0.827372 0.057347 0.772513
O O11 0.742087 0.829511 0.704147
O O12 0.551138 0.748371 0.660780
#
# Coordination Sequence:
#
# PCOD9293022 Si02
#       6
#     8   8   8   8   8   8
#     4  11  22  38  70 105 127 171 230 285 342 400
#     4   9  18  36  68 100 130 168 219 282 339 394
#     4  11  26  46  65  95 139 185 225 273 347 415
#     4   9  19  38  63  97 135 170 219 278 333 402
#     4  10  22  44  71  94 136 175 225 288 339 401
#     4  12  27  44  66 100 139 182 226 277 347 414
#
# _framework density 26.205995000000001
#
# number of rings (size 3 to 8) (size 9 to 14) (size 15 to 20)
#    0.000    1.667    0.000    6.000    4.667    2.667 
#    6.000    0.000    0.000    0.000    0.000    0.000 
#    0.000    0.000    0.000    0.000    0.000    0.000 
#
# Total GULP energy -134637.298402 kJ/mol
# GULP energy per Si atom -5609.887433 kJ/mol
# Density = 2.614635 g / cm^3
# Si number density = 26.205995 Si / 1000 Ang^3
#
#
#
# Elastic Constant Matrix: (Units=GPa)
#
#
# Indices 1 2 3 4 5 6 
#
# 1 102.4628 55.0510 51.2864 0.0000 41.0022 0.0000
# 2 55.0510 86.6103 20.8378 0.0000 20.4118 0.0000
# 3 51.2864 20.8378 124.8976 0.0000 32.6973 0.0000
# 4 0.0000 0.0000 0.0000 23.8471 0.0000 14.2874
# 5 41.0022 20.4118 32.6973 0.0000 67.5718 0.0000
# 6 0.0000 0.0000 0.0000 14.2874 0.0000 35.6345
#
#
#
# Elastic Compliance Matrix: (Units=1/GPa)
#
#
# Indices 1 2 3 4 5 6 
#
# 1 0.020472 -0.010193 -0.004878 0.000000 -0.006983 0.000000
# 2 -0.010193 0.017679 0.001162 0.000000 0.000282 0.000000
# 3 -0.004878 0.001162 0.010457 0.000000 -0.002452 0.000000
# 4 0.000000 0.000000 0.000000 0.055192 0.000000 -0.022129
# 5 -0.006983 0.000282 -0.002452 0.000000 0.020137 0.000000
# 6 0.000000 0.000000 0.000000 -0.022129 0.000000 0.036935
#
#
# Mechanical properties :
#
#
# Convention : Reuss Voigt Hill
#
# Bulk Modulus (GPa) = 48.09833 63.14679 55.62256
# Shear Modulus (GPa) = 25.55984 37.86372 31.71178
#
# Velocity S-wave (km/s) = 3.12644 3.80524 3.48242
# Velocity P-wave (km/s) = 5.60594 6.59205 6.11889
#
# Compressibility (1/GPa) = 0.02079074
#
# Stress axis : x y z
#
# Youngs Moduli (GPa) = 48.84730 56.56523 95.62635
#
# Poissons Ratio (x) = 0.57658 0.46643
# Poissons Ratio (y) = 0.49791 -0.11113
# Poissons Ratio (z) = 0.23826 -0.06574
#
# Static dielectric constant tensor:
#      x y z
#    x 2.041110 0.000000 -0.076100 
#    y 0.000000 2.039750 0.000000 
#    z -0.076100 0.000000 2.083580 
# 
# From -- ./inp_files/242589.got.cif
#   From: 2010.05.17/outbox.cif.g08.bks.cpg/sg15_122_cif.got.tgz:242589.got - 2010.06.03 18:47:42.
