data_PCOD9293435
_publ_section_title
;
Structure prediction by ZEFSAII (Michael W. Deem and Ramdas Pophale) SiO2 
 PCOD9293435
Probable space group: C 2/C
;
_chemical_formula_sum "Si O2"
_cell_formula_units_Z 44
_cell_length_a 15.058854
_cell_length_b 8.221624
_cell_length_c 14.482506
_cell_angle_alpha 90.000000
_cell_angle_beta 110.176866
_cell_angle_gamma 90.000000
_cell_volume 1683.018060
_symmetry_space_group_name_H-M "C 2/C"
_symmetry_group_IT_number 15
_symmetry_cell_setting 'monoclinic'
loop_
_space_group_symop_operation_xyz
x,y,z
-x,y,1/2-z
-x,-y,-z
x,-y,1/2+z
1/2+x,1/2+y,z
1/2-x,1/2+y,1/2-z
1/2-x,1/2-y,-z
1/2+x,1/2-y,1/2+z
loop_
_atom_site_type_symbol
_atom_site_label
_atom_site_fract_x
_atom_site_fract_y
_atom_site_fract_z
Si Si1 0.620799 0.699327 0.520344
Si Si2 0.917714 0.554800 0.039129
Si Si3 0.204136 0.588588 0.810330
Si Si4 0.000000 0.499068 0.250000
Si Si5 0.017651 0.988701 0.145202
Si Si6 0.188038 0.775074 0.634582
O O1 0.625391 0.873548 0.471171
O O2 0.724331 0.687171 0.601451
O O3 0.578398 0.568868 0.432257
O O4 0.553450 0.654964 0.586379
O O5 0.966798 0.600328 0.151509
O O6 0.852501 0.689190 0.970240
O O7 0.000000 0.500000 0.000000
O O8 0.228696 0.633244 0.713900
O O9 0.229097 0.404840 0.847264
O O10 0.091927 0.607526 0.765132
O O11 0.102647 0.120333 0.152173
O O12 0.000000 0.963866 0.250000
#
# Coordination Sequence:
#
# PCOD9293435 Si02
#       6
#     8   8   8   4   8   8
#     4  10  23  43  71 108 157 192 245 320 369 436
#     4  12  24  47  73 106 153 200 245 316 382 439
#     4  11  25  46  74 114 146 203 253 306 376 445
#     4  12  28  48  78 106 146 210 260 300 372 458
#     4  10  22  45  74 110 152 199 252 301 375 456
#     4  11  24  45  77 103 160 198 245 313 380 443
#
# _framework density 26.143512999999999
#
# number of rings (size 3 to 8) (size 9 to 14) (size 15 to 20)
#    0.000    1.091    3.636    1.091    5.091    1.455 
#    8.182    0.000    0.000    1.091    0.000    0.000 
#    0.000    0.000    0.000    0.000    0.000    0.000 
#
# Total GULP energy -122775.362294 kJ/mol
# GULP energy per Si atom -5580.698286 kJ/mol
# Density = 2.608401 g / cm^3
# Si number density = 26.143513 Si / 1000 Ang^3
#
#
#
# Elastic Constant Matrix: (Units=GPa)
#
#
# Indices 1 2 3 4 5 6 
#
# 1 60.1981 12.5795 41.6770 0.0000 26.9348 0.0000
# 2 12.5795 115.4600 64.8323 0.0000 5.3584 0.0000
# 3 41.6770 64.8323 246.9143 0.0000 6.8353 0.0000
# 4 0.0000 0.0000 0.0000 32.6629 0.0000 11.1874
# 5 26.9348 5.3584 6.8353 0.0000 56.4919 0.0000
# 6 0.0000 0.0000 0.0000 11.1874 0.0000 11.7028
#
#
#
# Elastic Compliance Matrix: (Units=1/GPa)
#
#
# Indices 1 2 3 4 5 6 
#
# 1 0.024179 -0.000001 -0.003774 0.000000 -0.011072 0.000000
# 2 -0.000001 0.010182 -0.002656 0.000000 -0.000644 0.000000
# 3 -0.003774 -0.002656 0.005345 0.000000 0.001405 0.000000
# 4 0.000000 0.000000 0.000000 0.045520 0.000000 -0.043516
# 5 -0.011072 -0.000644 0.001405 0.000000 0.022872 0.000000
# 6 0.000000 0.000000 0.000000 -0.043516 0.000000 0.127049
#
#
# Mechanical properties :
#
#
# Convention : Reuss Voigt Hill
#
# Bulk Modulus (GPa) = 37.25160 73.41668 55.33414
# Shear Modulus (GPa) = 19.45846 40.40376 29.93111
#
# Velocity S-wave (km/s) = 2.73113 3.93550 3.38727
# Velocity P-wave (km/s) = 4.92192 6.98527 6.04232
#
# Compressibility (1/GPa) = 0.02684448
#
# Stress axis : x y z
#
# Youngs Moduli (GPa) = 41.35819 98.21142 187.07499
#
# Poissons Ratio (x) = 0.00011 0.70610
# Poissons Ratio (y) = 0.00005 0.49678
# Poissons Ratio (z) = 0.15610 0.26080
#
# Static dielectric constant tensor:
#      x y z
#    x 2.233310 0.000000 -0.149870 
#    y 0.000000 1.611120 0.000000 
#    z -0.149870 0.000000 2.032420 
# 
# From -- ./inp_files/159794.got.cif
#   From: 2010.05.17/outbox.cif.g08.bks.cpg/sg15_80_cif.got.tgz:159794.got - 2010.06.03 18:47:42.
