data_PCOD9293726
_publ_section_title
;
Structure prediction by ZEFSAII (Michael W. Deem and Ramdas Pophale) SiO2 
 PCOD9293726
Probable space group: C 2/C
;
_chemical_formula_sum "Si O2"
_cell_formula_units_Z 32
_cell_length_a 12.142890
_cell_length_b 8.940218
_cell_length_c 14.879486
_cell_angle_alpha 90.000000
_cell_angle_beta 41.674431
_cell_angle_gamma 90.000000
_cell_volume 1074.020403
_symmetry_space_group_name_H-M "C 2/C"
_symmetry_group_IT_number 15
_symmetry_cell_setting 'monoclinic'
loop_
_space_group_symop_operation_xyz
x,y,z
-x,y,1/2-z
-x,-y,-z
x,-y,1/2+z
1/2+x,1/2+y,z
1/2-x,1/2+y,1/2-z
1/2-x,1/2-y,-z
1/2+x,1/2-y,1/2+z
loop_
_atom_site_type_symbol
_atom_site_label
_atom_site_fract_x
_atom_site_fract_y
_atom_site_fract_z
Si Si1 0.941941 0.720737 0.416203
Si Si2 0.612212 0.106744 0.573983
Si Si3 0.259900 0.408052 0.647490
Si Si4 0.128727 0.878461 0.732241
O O1 0.750000 0.750000 0.500000
O O2 0.943291 0.546392 0.440736
O O3 0.928645 0.835664 0.505912
O O4 0.112308 0.715746 0.255068
O O5 0.740444 0.168750 0.422947
O O6 0.472450 0.231616 0.673463
O O7 0.311776 0.027018 0.881182
O O8 0.302258 0.457596 0.722609
O O9 0.000000 0.973208 0.750000
#
# Coordination Sequence:
#
# PCOD9293726 Si02
#       4
#     8   8   8   8
#     4  10  22  46  77 112 157 206 262 327 394 469
#     4  11  26  49  76 115 162 205 267 331 389 481
#     4  11  25  47  79 115 157 210 263 331 403 463
#     4  12  27  46  74 113 156 207 265 323 396 475
#
# _framework density 29.794589999999999
#
# number of rings (size 3 to 8) (size 9 to 14) (size 15 to 20)
#    0.000    1.000    0.000    6.750    0.000   11.000 
#    0.000    0.000    0.000   10.500    0.000    0.000 
#    0.000    0.000    0.000    0.000    0.000    0.000 
#
# Total GULP energy -89365.592065 kJ/mol
# GULP energy per Si atom -5585.349504 kJ/mol
# Density = 2.972678 g / cm^3
# Si number density = 29.794590 Si / 1000 Ang^3
#
#
#
# Elastic Constant Matrix: (Units=GPa)
#
#
# Indices 1 2 3 4 5 6 
#
# 1 207.4866 42.9431 62.5125 0.0000 33.3621 0.0000
# 2 42.9431 164.7573 85.5148 0.0000 -5.9609 0.0000
# 3 62.5125 85.5148 309.6206 0.0000 14.7295 0.0000
# 4 0.0000 0.0000 0.0000 69.5379 0.0000 0.6916
# 5 33.3621 -5.9609 14.7295 0.0000 51.1800 0.0000
# 6 0.0000 0.0000 0.0000 0.6916 0.0000 31.0023
#
#
#
# Elastic Compliance Matrix: (Units=1/GPa)
#
#
# Indices 1 2 3 4 5 6 
#
# 1 0.005905 -0.001346 -0.000639 0.000000 -0.003822 0.000000
# 2 -0.001346 0.007493 -0.001907 0.000000 0.002299 0.000000
# 3 -0.000639 -0.001907 0.003930 0.000000 -0.000937 0.000000
# 4 0.000000 0.000000 0.000000 0.014384 0.000000 -0.000321
# 5 -0.003822 0.002299 -0.000937 0.000000 0.022568 0.000000
# 6 0.000000 0.000000 0.000000 -0.000321 0.000000 0.032263
#
#
# Mechanical properties :
#
#
# Convention : Reuss Voigt Hill
#
# Bulk Modulus (GPa) = 104.76785 118.20059 111.48422
# Shear Modulus (GPa) = 51.27753 63.07031 57.17392
#
# Velocity S-wave (km/s) = 4.15304 4.60590 4.38532
# Velocity P-wave (km/s) = 7.63130 8.24886 7.94608
#
# Compressibility (1/GPa) = 0.00954491
#
# Stress axis : x y z
#
# Youngs Moduli (GPa) = 169.34321 133.44975 254.44973
#
# Poissons Ratio (x) = 0.17962 0.16251
# Poissons Ratio (y) = 0.22793 0.48530
# Poissons Ratio (z) = 0.10816 0.25452
#
# Static dielectric constant tensor:
#      x y z
#    x 2.607560 0.000000 0.003440 
#    y 0.000000 2.407450 0.000000 
#    z 0.003440 0.000000 2.473660 
# 
# From -- ./inp_files/203758.got.cif
#   From: 2010.05.17/outbox.cif.g08.bks.cpg/sg15_102_cif.got.tgz:203758.got - 2010.06.03 18:47:42.
