data_PCOD9293140
_publ_section_title
;
Structure prediction by ZEFSAII (Michael W. Deem and Ramdas Pophale) SiO2 
 PCOD9293140
Probable space group: C 2/C
;
_chemical_formula_sum "Si O2"
_cell_formula_units_Z 32
_cell_length_a 17.154337
_cell_length_b 8.966336
_cell_length_c 18.420322
_cell_angle_alpha 90.000000
_cell_angle_beta 27.833066
_cell_angle_gamma 90.000000
_cell_volume 1322.839966
_symmetry_space_group_name_H-M "C 2/C"
_symmetry_group_IT_number 15
_symmetry_cell_setting 'monoclinic'
loop_
_space_group_symop_operation_xyz
x,y,z
-x,y,1/2-z
-x,-y,-z
x,-y,1/2+z
1/2+x,1/2+y,z
1/2-x,1/2+y,1/2-z
1/2-x,1/2-y,-z
1/2+x,1/2-y,1/2+z
loop_
_atom_site_type_symbol
_atom_site_label
_atom_site_fract_x
_atom_site_fract_y
_atom_site_fract_z
Si Si1 0.492544 0.511713 0.174750
Si Si2 0.000000 0.514432 0.250000
Si Si3 0.736862 0.617482 0.359611
Si Si4 0.250000 0.250000 0.000000
Si Si5 0.688779 0.054673 0.840287
O O1 0.500000 0.449594 0.250000
O O2 0.579945 0.671980 0.107616
O O3 0.302463 0.529983 0.306061
O O4 0.587249 0.411569 0.038587
O O5 0.090241 0.610305 0.238050
O O6 0.852762 0.407825 0.400691
O O7 0.708424 0.772282 0.342460
O O8 0.742702 0.487103 0.295265
O O9 0.500000 0.000000 0.000000
#
# Coordination Sequence:
#
# PCOD9293140 Si02
#       5
#     8   4   8   4   8
#     4  11  26  47  80 115 157 205 270 331 405 489
#     4  10  24  46  82 112 162 202 278 330 408 482
#     4  11  28  51  80 118 163 209 269 336 409 492
#     4  10  22  44  74 116 146 206 256 328 396 486
#     4  12  29  49  79 117 166 214 266 340 415 484
#
# _framework density 24.190377999999999
#
# number of rings (size 3 to 8) (size 9 to 14) (size 15 to 20)
#    0.000    1.000    1.250    2.250   12.250    1.000 
#    0.000    0.000    0.000    0.000    0.000    0.000 
#    0.000    0.000    0.000    0.000    0.000    0.000 
#
# Total GULP energy -89207.689680 kJ/mol
# GULP energy per Si atom -5575.480605 kJ/mol
# Density = 2.413532 g / cm^3
# Si number density = 24.190378 Si / 1000 Ang^3
#
#
#
# Elastic Constant Matrix: (Units=GPa)
#
#
# Indices 1 2 3 4 5 6 
#
# 1 189.7922 66.9856 87.1804 0.0000 -14.4717 0.0000
# 2 66.9856 162.2520 50.4851 0.0000 1.9348 0.0000
# 3 87.1804 50.4851 135.7323 0.0000 -5.6784 0.0000
# 4 0.0000 0.0000 0.0000 26.1624 0.0000 -7.7009
# 5 -14.4717 1.9348 -5.6784 0.0000 64.7501 0.0000
# 6 0.0000 0.0000 0.0000 -7.7009 0.0000 43.5182
#
#
#
# Elastic Compliance Matrix: (Units=1/GPa)
#
#
# Indices 1 2 3 4 5 6 
#
# 1 0.008110 -0.001995 -0.004404 0.000000 0.001486 0.000000
# 2 -0.001995 0.007473 -0.001532 0.000000 -0.000804 0.000000
# 3 -0.004404 -0.001532 0.010766 0.000000 0.000006 0.000000
# 4 0.000000 0.000000 0.000000 0.040323 0.000000 0.007135
# 5 0.001486 -0.000804 0.000006 0.000000 0.015801 0.000000
# 6 0.000000 0.000000 0.000000 0.007135 0.000000 0.024242
#
#
# Mechanical properties :
#
#
# Convention : Reuss Voigt Hill
#
# Bulk Modulus (GPa) = 95.36283 99.67542 97.51913
# Shear Modulus (GPa) = 39.65964 45.76116 42.71040
#
# Velocity S-wave (km/s) = 4.05344 4.35410 4.20646
# Velocity P-wave (km/s) = 7.83674 8.15914 7.99957
#
# Compressibility (1/GPa) = 0.01048627
#
# Stress axis : x y z
#
# Youngs Moduli (GPa) = 123.31021 133.81199 92.88195
#
# Poissons Ratio (x) = 0.26700 0.40910
# Poissons Ratio (y) = 0.24604 0.14226
# Poissons Ratio (z) = 0.54312 0.20495
#
# Static dielectric constant tensor:
#      x y z
#    x 1.917320 0.000000 0.031840 
#    y 0.000000 1.891870 0.000000 
#    z 0.031840 0.000000 2.005470 
# 
# From -- ./inp_files/247201.got.cif
#   From: 2010.05.17/outbox.cif.g08.bks.cpg/sg15_124_cif.got.tgz:247201.got - 2010.06.03 18:47:42.
