data_PCOD9293787
_publ_section_title
;
Structure prediction by ZEFSAII (Michael W. Deem and Ramdas Pophale) SiO2 
 PCOD9293787
Probable space group: C 2/C
;
_chemical_formula_sum "Si O2"
_cell_formula_units_Z 44
_cell_length_a 31.298648
_cell_length_b 5.699531
_cell_length_c 10.498422
_cell_angle_alpha 90.000000
_cell_angle_beta 72.672698
_cell_angle_gamma 90.000000
_cell_volume 1787.799424
_symmetry_space_group_name_H-M "C 2/C"
_symmetry_group_IT_number 15
_symmetry_cell_setting 'monoclinic'
loop_
_space_group_symop_operation_xyz
x,y,z
-x,y,1/2-z
-x,-y,-z
x,-y,1/2+z
1/2+x,1/2+y,z
1/2-x,1/2+y,1/2-z
1/2-x,1/2-y,-z
1/2+x,1/2-y,1/2+z
loop_
_atom_site_type_symbol
_atom_site_label
_atom_site_fract_x
_atom_site_fract_y
_atom_site_fract_z
Si Si1 0.000000 0.419021 0.250000
Si Si2 0.384993 0.807310 0.726120
Si Si3 0.219455 0.670874 0.909121
Si Si4 0.046599 0.934802 0.894578
Si Si5 0.198867 0.835458 0.349037
Si Si6 0.915573 0.386461 0.959643
O O1 0.033065 0.266453 0.307937
O O2 0.033339 0.553229 0.126023
O O3 0.426517 0.629827 0.704904
O O4 0.337454 0.702475 0.730149
O O5 0.384976 0.924314 0.864153
O O6 0.398985 0.959987 0.592375
O O7 0.199848 0.404439 0.933358
O O8 0.251762 0.651543 0.756637
O O9 0.189375 0.905606 0.915702
O O10 0.250000 0.750000 0.000000
O O11 0.079860 0.867214 0.980003
O O12 0.000000 0.000000 0.000000
#
# Coordination Sequence:
#
# PCOD9293787 Si02
#       6
#     4   8   8   8   8   8
#     4  12  22  46  66  94 140 190 242 302 364 438
#     4  12  28  44  70 105 140 189 237 306 363 432
#     4  10  22  47  72 105 140 189 229 288 359 437
#     4  12  24  44  67  99 137 187 241 297 366 432
#     4  10  25  43  71 106 142 182 240 287 362 432
#     4  12  26  46  67  99 141 184 242 300 365 432
#
# _framework density 24.611260999999999
#
# number of rings (size 3 to 8) (size 9 to 14) (size 15 to 20)
#    0.000    0.727    3.636    3.273    5.091    0.000 
#    0.000    0.000    0.000    0.000    0.000    0.000 
#    0.000    0.000    0.000    0.000    0.000    0.000 
#
# Total GULP energy -122928.672604 kJ/mol
# GULP energy per Si atom -5587.666937 kJ/mol
# Density = 2.455525 g / cm^3
# Si number density = 24.611261 Si / 1000 Ang^3
#
#
#
# Elastic Constant Matrix: (Units=GPa)
#
#
# Indices 1 2 3 4 5 6 
#
# 1 90.1171 9.0065 11.2500 0.0000 14.8591 0.0000
# 2 9.0065 85.1084 20.1908 0.0000 1.4903 0.0000
# 3 11.2500 20.1908 102.4885 0.0000 17.3543 0.0000
# 4 0.0000 0.0000 0.0000 30.7767 0.0000 11.6370
# 5 14.8591 1.4903 17.3543 0.0000 54.1888 0.0000
# 6 0.0000 0.0000 0.0000 11.6370 0.0000 25.3675
#
#
#
# Elastic Compliance Matrix: (Units=1/GPa)
#
#
# Indices 1 2 3 4 5 6 
#
# 1 0.011771 -0.001057 -0.000573 0.000000 -0.003015 0.000000
# 2 -0.001057 0.012432 -0.002458 0.000000 0.000735 0.000000
# 3 -0.000573 -0.002458 0.010855 0.000000 -0.003252 0.000000
# 4 0.000000 0.000000 0.000000 0.039311 0.000000 -0.018033
# 5 -0.003015 0.000735 -0.003252 0.000000 0.020302 0.000000
# 6 0.000000 0.000000 0.000000 -0.018033 0.000000 0.047693
#
#
# Mechanical properties :
#
#
# Convention : Reuss Voigt Hill
#
# Bulk Modulus (GPa) = 37.19949 39.84541 38.52245
# Shear Modulus (GPa) = 31.34809 37.88438 34.61624
#
# Velocity S-wave (km/s) = 3.57281 3.92766 3.75443
# Velocity P-wave (km/s) = 5.67165 6.06579 5.87202
#
# Compressibility (1/GPa) = 0.02688209
#
# Stress axis : x y z
#
# Youngs Moduli (GPa) = 84.95446 80.43943 92.12462
#
# Poissons Ratio (x) = 0.08501 0.05282
# Poissons Ratio (y) = 0.08978 0.22640
# Poissons Ratio (z) = 0.04871 0.19768
#
# Static dielectric constant tensor:
#      x y z
#    x 1.955220 0.000000 0.011900 
#    y 0.000000 2.026990 0.000000 
#    z 0.011900 0.000000 2.007640 
# 
# From -- ./inp_files/124956.got.cif
#   From: 2010.05.17/outbox.cif.g08.bks.cpg/sg15_63_cif.got.tgz:124956.got - 2010.06.03 18:47:42.
