data_PCOD9293575
_publ_section_title
;
Structure prediction by ZEFSAII (Michael W. Deem and Ramdas Pophale) SiO2 
 PCOD9293575
Probable space group: C 2/C
;
_chemical_formula_sum "Si O2"
_cell_formula_units_Z 44
_cell_length_a 17.902488
_cell_length_b 14.228662
_cell_length_c 8.039044
_cell_angle_alpha 90.000000
_cell_angle_beta 60.936036
_cell_angle_gamma 90.000000
_cell_volume 1789.913379
_symmetry_space_group_name_H-M "C 2/C"
_symmetry_group_IT_number 15
_symmetry_cell_setting 'monoclinic'
loop_
_space_group_symop_operation_xyz
x,y,z
-x,y,1/2-z
-x,-y,-z
x,-y,1/2+z
1/2+x,1/2+y,z
1/2-x,1/2+y,1/2-z
1/2-x,1/2-y,-z
1/2+x,1/2-y,1/2+z
loop_
_atom_site_type_symbol
_atom_site_label
_atom_site_fract_x
_atom_site_fract_y
_atom_site_fract_z
Si Si1 0.316416 0.113349 0.349153
Si Si2 0.253309 0.295193 0.232668
Si Si3 0.819615 0.968231 0.980773
Si Si4 0.073125 0.075680 0.430673
Si Si5 0.000000 0.623733 0.250000
Si Si6 0.060049 0.281297 0.341078
O O1 0.296943 0.194510 0.232089
O O2 0.279400 0.160681 0.557800
O O3 0.413723 0.081817 0.269565
O O4 0.268973 0.015275 0.382748
O O5 0.319501 0.370274 0.082092
O O6 0.164918 0.287919 0.218707
O O7 0.887185 0.054842 0.933786
O O8 0.842665 0.943297 0.769592
O O9 0.039746 0.172419 0.399328
O O10 0.000000 0.000000 0.500000
O O11 0.965762 0.675191 0.453210
O O12 0.000000 0.312334 0.250000
#
# Coordination Sequence:
#
# PCOD9293575 Si02
#       6
#     8   8   8   8   4   8
#     4  10  22  46  69 101 142 189 241 284 361 431
#     4  10  23  44  72  97 142 193 230 292 356 428
#     4  12  24  45  70 102 141 188 235 289 361 426
#     4  12  27  41  67 107 145 179 232 297 364 432
#     4  10  26  44  76  96 142 196 232 298 362 410
#     4  11  25  46  67 107 141 184 244 294 355 428
#
# _framework density 24.582196
#
# number of rings (size 3 to 8) (size 9 to 14) (size 15 to 20)
#    0.000    1.091    3.636    1.636    7.636    2.182 
#    1.636    1.818    0.000    0.000    0.000    0.000 
#    0.000    0.000    0.000    0.000    0.000    0.000 
#
# Total GULP energy -122627.757211 kJ/mol
# GULP energy per Si atom -5573.988964 kJ/mol
# Density = 2.452625 g / cm^3
# Si number density = 24.582196 Si / 1000 Ang^3
#
#
#
# Elastic Constant Matrix: (Units=GPa)
#
#
# Indices 1 2 3 4 5 6 
#
# 1 136.5791 7.4072 17.6305 0.0000 -5.3410 0.0000
# 2 7.4072 52.6424 2.4309 0.0000 -2.6785 0.0000
# 3 17.6305 2.4309 60.2395 0.0000 6.1442 0.0000
# 4 0.0000 0.0000 0.0000 19.3915 0.0000 -11.3330
# 5 -5.3410 -2.6785 6.1442 0.0000 40.5976 0.0000
# 6 0.0000 0.0000 0.0000 -11.3330 0.0000 19.5061
#
#
#
# Elastic Compliance Matrix: (Units=1/GPa)
#
#
# Indices 1 2 3 4 5 6 
#
# 1 0.007727 -0.000912 -0.002359 0.000000 0.001313 0.000000
# 2 -0.000912 0.019217 -0.000636 0.000000 0.001244 0.000000
# 3 -0.002359 -0.000636 0.017624 0.000000 -0.003020 0.000000
# 4 0.000000 0.000000 0.000000 0.078082 0.000000 0.045365
# 5 0.001313 0.001244 -0.003020 0.000000 0.025344 0.000000
# 6 0.000000 0.000000 0.000000 0.045365 0.000000 0.077623
#
#
# Mechanical properties :
#
#
# Convention : Reuss Voigt Hill
#
# Bulk Modulus (GPa) = 27.20585 33.82203 30.51394
# Shear Modulus (GPa) = 20.35159 30.69854 25.52506
#
# Velocity S-wave (km/s) = 2.88045 3.53769 3.22585
# Velocity P-wave (km/s) = 4.70680 5.52047 5.12979
#
# Compressibility (1/GPa) = 0.03675680
#
# Stress axis : x y z
#
# Youngs Moduli (GPa) = 129.41579 52.03727 56.73959
#
# Poissons Ratio (x) = 0.04743 0.13383
# Poissons Ratio (y) = 0.11796 0.03606
# Poissons Ratio (z) = 0.30525 0.03308
#
# Static dielectric constant tensor:
#      x y z
#    x 2.043170 0.000000 0.003580 
#    y 0.000000 2.135980 0.000000 
#    z 0.003580 0.000000 1.929760 
# 
# From -- ./inp_files/47405.got.cif
#   From: 2010.05.17/outbox.cif.g08.bks.cpg/sg15_24_cif.got.tgz:47405.got - 2010.06.03 18:47:42.
