data_PCOD9293882
_publ_section_title
;
Structure prediction by ZEFSAII (Michael W. Deem and Ramdas Pophale) SiO2 
 PCOD9293882
Probable space group: C 2/C
;
_chemical_formula_sum "Si O2"
_cell_formula_units_Z 56
_cell_length_a 11.100982
_cell_length_b 11.237000
_cell_length_c 20.768658
_cell_angle_alpha 90.000000
_cell_angle_beta 115.481798
_cell_angle_gamma 90.000000
_cell_volume 2338.698535
_symmetry_space_group_name_H-M "C 2/C"
_symmetry_group_IT_number 15
_symmetry_cell_setting 'monoclinic'
loop_
_space_group_symop_operation_xyz
x,y,z
-x,y,1/2-z
-x,-y,-z
x,-y,1/2+z
1/2+x,1/2+y,z
1/2-x,1/2+y,1/2-z
1/2-x,1/2-y,-z
1/2+x,1/2-y,1/2+z
loop_
_atom_site_type_symbol
_atom_site_label
_atom_site_fract_x
_atom_site_fract_y
_atom_site_fract_z
Si Si1 0.677377 0.753969 0.178899
Si Si2 0.031094 0.257558 0.481986
Si Si3 0.865184 0.539817 0.176618
Si Si4 0.701616 0.608623 0.441475
Si Si5 0.002939 0.707991 0.382988
Si Si6 0.889003 0.918824 0.178846
Si Si7 0.303620 0.230233 0.676921
O O1 0.761135 0.635242 0.181436
O O2 0.774658 0.868252 0.198631
O O3 0.622909 0.749524 0.238577
O O4 0.576377 0.773994 0.097733
O O5 0.144675 0.360319 0.509378
O O6 0.113138 0.136760 0.483693
O O7 0.964610 0.255119 0.536713
O O8 0.800994 0.410006 0.162478
O O9 0.000000 0.536726 0.250000
O O10 0.919599 0.589421 0.120769
O O11 0.672012 0.491472 0.394474
O O12 0.652829 0.707512 0.378465
O O13 0.842174 0.709295 0.344589
O O14 0.044384 0.804748 0.339551
O O15 0.000000 0.979220 0.250000
#
# Coordination Sequence:
#
# PCOD9293882 Si02
#       7
#     8   8   8   8   8   8   8
#     4  11  24  43  70 105 136 180 241 285 367 416
#     4  10  25  47  64  98 143 189 221 289 356 431
#     4  11  24  43  70 107 135 178 239 301 348 424
#     4  10  26  47  63 100 143 176 240 283 354 431
#     4  10  22  50  67  96 145 176 236 285 360 422
#     4  11  23  42  74 103 132 181 235 302 346 416
#     4  11  24  42  72  98 135 187 229 297 347 415
#
# _framework density 23.944941
#
# number of rings (size 3 to 8) (size 9 to 14) (size 15 to 20)
#    0.000    1.429    2.857    0.857    8.000    3.429 
#   12.857    0.000    0.000    0.000    0.000    0.000 
#    0.000    0.000    0.000    0.000    0.000    0.000 
#
# Total GULP energy -156601.855199 kJ/mol
# GULP energy per Si atom -5592.923400 kJ/mol
# Density = 2.389044 g / cm^3
# Si number density = 23.944941 Si / 1000 Ang^3
#
#
#
# Elastic Constant Matrix: (Units=GPa)
#
#
# Indices 1 2 3 4 5 6 
#
# 1 73.0488 11.6018 35.9310 0.0000 -17.0904 0.0000
# 2 11.6018 54.9903 4.4959 0.0000 -7.5450 0.0000
# 3 35.9310 4.4959 149.1546 0.0000 -1.8939 0.0000
# 4 0.0000 0.0000 0.0000 31.2650 0.0000 -2.5521
# 5 -17.0904 -7.5450 -1.8939 0.0000 56.3340 0.0000
# 6 0.0000 0.0000 0.0000 -2.5521 0.0000 -2.2139
#
#
#
# Elastic Compliance Matrix: (Units=1/GPa)
#
#
# Indices 1 2 3 4 5 6 
#
# 1 0.017183 -0.002650 -0.003999 0.000000 0.004723 0.000000
# 2 -0.002650 0.018976 0.000089 0.000000 0.001740 0.000000
# 3 -0.003999 0.000089 0.007653 0.000000 -0.000944 0.000000
# 4 0.000000 0.000000 0.000000 0.029234 0.000000 -0.033699
# 5 0.004723 0.001740 -0.000944 0.000000 0.019386 0.000000
# 6 0.000000 0.000000 0.000000 -0.033699 0.000000 -0.412835
#
#
# Mechanical properties :
#
#
# Convention : Reuss Voigt Hill
#
# Bulk Modulus (GPa) = 32.58430 42.36125 37.47278
# Shear Modulus (GPa) = -16.83204 32.08801 7.62798
#
# Velocity S-wave (km/s) = -2.65419 3.66467 1.78677
# Velocity P-wave (km/s) = 2.06024 5.96959 4.46545
#
# Compressibility (1/GPa) = 0.03068962
#
# Stress axis : x y z
#
# Youngs Moduli (GPa) = 58.19816 52.69893 130.66358
#
# Poissons Ratio (x) = 0.13966 0.52258
# Poissons Ratio (y) = 0.15423 -0.01157
# Poissons Ratio (z) = 0.23276 -0.00467
#
# Static dielectric constant tensor:
#      x y z
#    x 1.943680 0.000000 0.011790 
#    y 0.000000 1.919470 0.000000 
#    z 0.011790 0.000000 1.930880 
# 
# From -- ./inp_files/237619.got.cif
#   From: 2010.05.17/outbox.cif.g08.bks.cpg/sg15_119_cif.got.tgz:237619.got - 2010.06.03 18:47:42.
