data_PCOD9293865
_publ_section_title
;
Structure prediction by ZEFSAII (Michael W. Deem and Ramdas Pophale) SiO2 
 PCOD9293865
Probable space group: C 2/C
;
_chemical_formula_sum "Si O2"
_cell_formula_units_Z 48
_cell_length_a 18.492246
_cell_length_b 10.538421
_cell_length_c 13.969545
_cell_angle_alpha 90.000000
_cell_angle_beta 43.883985
_cell_angle_gamma 90.000000
_cell_volume 1887.149342
_symmetry_space_group_name_H-M "C 2/C"
_symmetry_group_IT_number 15
_symmetry_cell_setting 'monoclinic'
loop_
_space_group_symop_operation_xyz
x,y,z
-x,y,1/2-z
-x,-y,-z
x,-y,1/2+z
1/2+x,1/2+y,z
1/2-x,1/2+y,1/2-z
1/2-x,1/2-y,-z
1/2+x,1/2-y,1/2+z
loop_
_atom_site_type_symbol
_atom_site_label
_atom_site_fract_x
_atom_site_fract_y
_atom_site_fract_z
Si Si1 0.561488 0.225606 0.045756
Si Si2 0.703274 0.817063 0.242079
Si Si3 0.717653 0.129258 0.467586
Si Si4 0.995143 0.463061 0.116882
Si Si5 0.084553 0.894823 0.393024
Si Si6 0.825348 0.129690 0.908088
O O1 0.664205 0.184526 0.889171
O O2 0.590950 0.339856 0.088549
O O3 0.377256 0.381710 0.253576
O O4 0.507483 0.105632 0.145838
O O5 0.724743 0.673064 0.186471
O O6 0.813755 0.889068 0.138222
O O7 0.613513 0.889232 0.268092
O O8 0.750000 0.250000 0.500000
O O9 0.595994 0.110608 0.560024
O O10 0.762487 0.001716 0.471082
O O11 0.014941 0.231035 0.966652
O O12 0.000000 0.500000 0.000000
O O13 0.000000 0.000000 0.500000
O O14 0.750000 0.250000 0.000000
#
# Coordination Sequence:
#
# PCOD9293865 Si02
#       6
#     8   8   8   8   8   8
#     4  11  24  46  81 114 156 218 278 347 422 520
#     4  11  24  48  78 112 165 212 276 346 435 513
#     4  12  28  48  75 118 161 212 281 350 434 510
#     4  10  22  48  79 112 154 215 278 335 431 524
#     4  12  27  46  80 120 161 214 279 349 433 506
#     4  12  24  52  79 117 164 211 281 355 421 514
#
# _framework density 25.435189999999999
#
# number of rings (size 3 to 8) (size 9 to 14) (size 15 to 20)
#    0.000    0.667    3.333    4.500    2.333    3.333 
#    6.000    0.000    0.000    0.000    0.000    0.000 
#    0.000    0.000    0.000    0.000    0.000    0.000 
#
# Total GULP energy -134139.319511 kJ/mol
# GULP energy per Si atom -5589.138313 kJ/mol
# Density = 2.537730 g / cm^3
# Si number density = 25.435190 Si / 1000 Ang^3
#
#
#
# Elastic Constant Matrix: (Units=GPa)
#
#
# Indices 1 2 3 4 5 6 
#
# 1 220.6703 102.6726 68.8474 0.0000 -41.9162 0.0000
# 2 102.6726 208.2499 64.6699 0.0000 -31.7285 0.0000
# 3 68.8474 64.6699 94.2310 0.0000 -20.8374 0.0000
# 4 0.0000 0.0000 0.0000 19.6811 0.0000 3.4036
# 5 -41.9162 -31.7285 -20.8374 0.0000 62.7411 0.0000
# 6 0.0000 0.0000 0.0000 3.4036 0.0000 53.7284
#
#
#
# Elastic Compliance Matrix: (Units=1/GPa)
#
#
# Indices 1 2 3 4 5 6 
#
# 1 0.006947 -0.002077 -0.003083 0.000000 0.002567 0.000000
# 2 -0.002077 0.006924 -0.002987 0.000000 0.001122 0.000000
# 3 -0.003083 -0.002987 0.015245 0.000000 0.001493 0.000000
# 4 0.000000 0.000000 0.000000 0.051373 0.000000 -0.003254
# 5 0.002567 0.001122 0.001493 0.000000 0.018717 0.000000
# 6 0.000000 0.000000 0.000000 -0.003254 0.000000 0.018818
#
#
# Mechanical properties :
#
#
# Convention : Reuss Voigt Hill
#
# Bulk Modulus (GPa) = 77.98116 110.61456 94.29786
# Shear Modulus (GPa) = 36.07717 46.36086 41.21901
#
# Velocity S-wave (km/s) = 3.77025 4.27395 4.02997
# Velocity P-wave (km/s) = 7.04829 8.24249 7.66867
#
# Compressibility (1/GPa) = 0.01282361
#
# Stress axis : x y z
#
# Youngs Moduli (GPa) = 143.93801 144.42028 65.59732
#
# Poissons Ratio (x) = 0.29992 0.20224
# Poissons Ratio (y) = 0.29892 0.19591
# Poissons Ratio (z) = 0.44376 0.43132
#
# Static dielectric constant tensor:
#      x y z
#    x 6.548240 0.000000 -7.793220 
#    y 0.000000 2.055730 0.000000 
#    z -7.793220 0.000000 16.363690 
# 
# From -- ./inp_files/213723.got.cif
#   From: 2010.05.17/outbox.cif.g08.bks.cpg/sg15_107_cif.got.tgz:213723.got - 2010.06.03 18:47:42.
