data_PCOD9293461
_publ_section_title
;
Structure prediction by ZEFSAII (Michael W. Deem and Ramdas Pophale) SiO2 
 PCOD9293461
Probable space group: C 2/C
;
_chemical_formula_sum "Si O2"
_cell_formula_units_Z 56
_cell_length_a 20.487299
_cell_length_b 13.646430
_cell_length_c 11.587395
_cell_angle_alpha 90.000000
_cell_angle_beta 128.182455
_cell_angle_gamma 90.000000
_cell_volume 2546.464671
_symmetry_space_group_name_H-M "C 2/C"
_symmetry_group_IT_number 15
_symmetry_cell_setting 'monoclinic'
loop_
_space_group_symop_operation_xyz
x,y,z
-x,y,1/2-z
-x,-y,-z
x,-y,1/2+z
1/2+x,1/2+y,z
1/2-x,1/2+y,1/2-z
1/2-x,1/2-y,-z
1/2+x,1/2-y,1/2+z
loop_
_atom_site_type_symbol
_atom_site_label
_atom_site_fract_x
_atom_site_fract_y
_atom_site_fract_z
Si Si1 0.918248 0.047876 0.967983
Si Si2 0.000000 0.434423 0.750000
Si Si3 0.946829 0.711726 0.900615
Si Si4 0.822543 0.195088 0.693245
Si Si5 0.579613 0.640244 0.918720
Si Si6 0.500000 0.674887 0.250000
Si Si7 0.843341 0.409323 0.423270
Si Si8 0.608962 0.901984 0.651010
O O1 0.944178 0.110148 0.106321
O O2 0.874545 0.952042 0.972606
O O3 0.873967 0.120117 0.831642
O O4 0.000000 0.000000 0.000000
O O5 0.926527 0.393150 0.589831
O O6 0.935536 0.459349 0.788862
O O7 0.945438 0.761381 0.775955
O O8 0.863559 0.651799 0.830726
O O9 0.950069 0.791302 0.008353
O O10 0.030220 0.646557 0.998742
O O11 0.859412 0.189978 0.605435
O O12 0.733825 0.141713 0.601343
O O13 0.836312 0.307281 0.750823
O O14 0.500000 0.613223 0.750000
O O15 0.844132 0.522012 0.382013
#
# Coordination Sequence:
#
# PCOD9293461 Si02
#       8
#     8   4   8   8   8   4   8   8
#     4  12  21  40  67 102 140 185 236 278 353 424
#     4  10  22  45  79  98 132 190 242 297 345 412
#     4  11  23  40  70 104 130 186 245 287 353 419
#     4  12  25  45  68 106 147 183 236 300 358 422
#     4  12  21  40  72 102 137 183 239 290 345 420
#     4  12  20  39  67 100 136 188 230 287 345 418
#     4  11  28  44  69 108 140 188 236 296 362 419
#     4  11  22  46  70 101 139 181 243 290 355 424
#
# _framework density 21.991273
#
# number of rings (size 3 to 8) (size 9 to 14) (size 15 to 20)
#    0.000    0.571    6.429    3.429    1.000    6.857 
#    0.000    0.714    0.000    0.000    0.000    0.000 
#    0.000    0.000    0.000    0.000    0.000    0.000 
#
# Total GULP energy -156002.755369 kJ/mol
# GULP energy per Si atom -5571.526977 kJ/mol
# Density = 2.194122 g / cm^3
# Si number density = 21.991273 Si / 1000 Ang^3
#
#
#
# Elastic Constant Matrix: (Units=GPa)
#
#
# Indices 1 2 3 4 5 6 
#
# 1 108.2861 47.1471 44.3481 0.0000 -4.5024 0.0000
# 2 47.1471 109.7088 34.6696 0.0000 -12.5545 0.0000
# 3 44.3481 34.6696 83.8364 0.0000 -14.7466 0.0000
# 4 0.0000 0.0000 0.0000 40.7407 0.0000 -13.8121
# 5 -4.5024 -12.5545 -14.7466 0.0000 37.8824 0.0000
# 6 0.0000 0.0000 0.0000 -13.8121 0.0000 39.8402
#
#
#
# Elastic Compliance Matrix: (Units=1/GPa)
#
#
# Indices 1 2 3 4 5 6 
#
# 1 0.013274 -0.004145 -0.005659 0.000000 -0.001999 0.000000
# 2 -0.004145 0.011911 -0.002282 0.000000 0.002567 0.000000
# 3 -0.005659 -0.002282 0.016762 0.000000 0.005096 0.000000
# 4 0.000000 0.000000 0.000000 0.027815 0.000000 0.009643
# 5 -0.001999 0.002567 0.005096 0.000000 0.028994 0.000000
# 6 0.000000 0.000000 0.000000 0.009643 0.000000 0.028443
#
#
# Mechanical properties :
#
#
# Convention : Reuss Voigt Hill
#
# Bulk Modulus (GPa) = 56.25859 61.57343 58.91601
# Shear Modulus (GPa) = 31.78725 35.40375 33.59550
#
# Velocity S-wave (km/s) = 3.80603 4.01671 3.91279
# Velocity P-wave (km/s) = 6.70464 7.04072 6.87474
#
# Compressibility (1/GPa) = 0.01777506
#
# Stress axis : x y z
#
# Youngs Moduli (GPa) = 75.33487 83.95584 59.66005
#
# Poissons Ratio (x) = 0.34798 0.33764
# Poissons Ratio (y) = 0.31225 0.13612
# Poissons Ratio (z) = 0.42635 0.19156
#
# Static dielectric constant tensor:
#      x y z
#    x 1.834290 0.000000 -0.016140 
#    y 0.000000 1.933420 0.000000 
#    z -0.016140 0.000000 1.807470 
# 
# From -- ./inp_files/105820.got.cif
#   From: 2010.05.17/outbox.cif.g08.bks.cpg/sg15_53_cif.got.tgz:105820.got - 2010.06.03 18:47:42.
