data_PCOD9293608
_publ_section_title
;
Structure prediction by ZEFSAII (Michael W. Deem and Ramdas Pophale) SiO2 
 PCOD9293608
Probable space group: C 2/C
;
_chemical_formula_sum "Si O2"
_cell_formula_units_Z 32
_cell_length_a 8.910570
_cell_length_b 12.221157
_cell_length_c 17.184734
_cell_angle_alpha 90.000000
_cell_angle_beta 134.032306
_cell_angle_gamma 90.000000
_cell_volume 1345.420706
_symmetry_space_group_name_H-M "C 2/C"
_symmetry_group_IT_number 15
_symmetry_cell_setting 'monoclinic'
loop_
_space_group_symop_operation_xyz
x,y,z
-x,y,1/2-z
-x,-y,-z
x,-y,1/2+z
1/2+x,1/2+y,z
1/2-x,1/2+y,1/2-z
1/2-x,1/2-y,-z
1/2+x,1/2-y,1/2+z
loop_
_atom_site_type_symbol
_atom_site_label
_atom_site_fract_x
_atom_site_fract_y
_atom_site_fract_z
Si Si1 0.500000 0.187987 0.750000
Si Si2 0.000000 0.042652 0.750000
Si Si3 0.879256 0.739651 0.467665
Si Si4 0.658549 0.371819 0.471813
Si Si5 0.539561 0.960993 0.113148
O O1 0.296703 0.260436 0.661553
O O2 0.457103 0.111344 0.807918
O O3 0.041545 0.103874 0.848013
O O4 0.228661 0.991112 0.816512
O O5 0.750000 0.750000 0.500000
O O6 0.497642 0.872487 0.470271
O O7 0.008976 0.849442 0.492875
O O8 0.750000 0.250000 0.500000
O O9 0.841484 0.459362 0.551059
#
# Coordination Sequence:
#
# PCOD9293608 Si02
#       5
#     4   4   8   8   8
#     4  10  22  46  70 112 148 200 264 330 398 474
#     4  12  24  46  72 108 160 210 270 324 402 466
#     4  10  23  45  73 107 152 192 264 321 394 471
#     4  12  26  47  73 112 158 207 266 330 396 477
#     4  11  25  47  75 112 155 212 263 329 399 471
#
# _framework density 23.784382999999998
#
# number of rings (size 3 to 8) (size 9 to 14) (size 15 to 20)
#    0.000    1.000    5.000    0.750    0.000    6.000 
#    0.000    0.000    0.000    0.000    0.000    0.000 
#    0.000    0.000    0.000    0.000    0.000    0.000 
#
# Total GULP energy -89216.029406 kJ/mol
# GULP energy per Si atom -5576.001838 kJ/mol
# Density = 2.373025 g / cm^3
# Si number density = 23.784383 Si / 1000 Ang^3
#
#
#
# Elastic Constant Matrix: (Units=GPa)
#
#
# Indices 1 2 3 4 5 6 
#
# 1 175.5352 78.7235 68.8607 0.0000 11.0960 0.0000
# 2 78.7235 150.0420 89.3777 0.0000 13.0515 0.0000
# 3 68.8607 89.3777 172.3835 0.0000 14.6359 0.0000
# 4 0.0000 0.0000 0.0000 -11.9717 0.0000 -63.6244
# 5 11.0960 13.0515 14.6359 0.0000 52.0395 0.0000
# 6 0.0000 0.0000 0.0000 -63.6244 0.0000 -74.0804
#
#
#
# Elastic Compliance Matrix: (Units=1/GPa)
#
#
# Indices 1 2 3 4 5 6 
#
# 1 0.007692 -0.003167 -0.001392 0.000000 -0.000454 0.000000
# 2 -0.003167 0.011002 -0.004367 0.000000 -0.000856 0.000000
# 3 -0.001392 -0.004367 0.008711 0.000000 -0.001058 0.000000
# 4 0.000000 0.000000 0.000000 0.023434 0.000000 -0.020127
# 5 -0.000454 -0.000856 -0.001058 0.000000 0.019825 0.000000
# 6 0.000000 0.000000 0.000000 -0.020127 0.000000 0.003787
#
#
# Mechanical properties :
#
#
# Convention : Reuss Voigt Hill
#
# Bulk Modulus (GPa) = 104.67251 107.98719 106.32985
# Shear Modulus (GPa) = 52.36291 10.59739 31.48015
#
# Velocity S-wave (km/s) = 4.69718 2.11312 3.64203
# Velocity P-wave (km/s) = 8.57452 7.17320 7.90497
#
# Compressibility (1/GPa) = 0.00955361
#
# Stress axis : x y z
#
# Youngs Moduli (GPa) = 130.00472 90.89218 114.79901
#
# Poissons Ratio (x) = 0.28787 0.15980
# Poissons Ratio (y) = 0.41174 0.50128
# Poissons Ratio (z) = 0.18097 0.39689
#
# Static dielectric constant tensor:
#      x y z
#    x 2.193600 0.000000 -0.033280 
#    y 0.000000 1.916920 0.000000 
#    z -0.033280 0.000000 2.344100 
# 
# From -- ./inp_files/132492.got.cif
#   From: 2010.05.17/outbox.cif.g08.bks.cpg/sg15_67_cif.got.tgz:132492.got - 2010.06.03 18:47:42.
