data_PCOD9293015
_publ_section_title
;
Structure prediction by ZEFSAII (Michael W. Deem and Ramdas Pophale) SiO2 
 PCOD9293015
Probable space group: C 2/C
;
_chemical_formula_sum "Si O2"
_cell_formula_units_Z 48
_cell_length_a 9.854509
_cell_length_b 26.925114
_cell_length_c 8.020357
_cell_angle_alpha 90.000000
_cell_angle_beta 98.527344
_cell_angle_gamma 90.000000
_cell_volume 2104.546240
_symmetry_space_group_name_H-M "C 2/C"
_symmetry_group_IT_number 15
_symmetry_cell_setting 'monoclinic'
loop_
_space_group_symop_operation_xyz
x,y,z
-x,y,1/2-z
-x,-y,-z
x,-y,1/2+z
1/2+x,1/2+y,z
1/2-x,1/2+y,1/2-z
1/2-x,1/2-y,-z
1/2+x,1/2-y,1/2+z
loop_
_atom_site_type_symbol
_atom_site_label
_atom_site_fract_x
_atom_site_fract_y
_atom_site_fract_z
Si Si1 0.294881 0.698589 0.588253
Si Si2 0.500000 0.367896 0.750000
Si Si3 0.707736 0.553386 0.595625
Si Si4 0.107231 0.163793 0.577323
Si Si5 0.090042 0.615098 0.426296
Si Si6 0.000000 0.575990 0.750000
Si Si7 0.807924 0.949684 0.804433
O O1 0.250000 0.750000 0.500000
O O2 0.451962 0.682814 0.578654
O O3 0.292869 0.696435 0.790215
O O4 0.196360 0.657525 0.493275
O O5 0.390427 0.337216 0.623359
O O6 0.419030 0.406252 0.853408
O O7 0.643588 0.606565 0.634512
O O8 0.633889 0.503175 0.637744
O O9 0.723267 0.552659 0.398436
O O10 0.856197 0.547879 0.711049
O O11 0.003906 0.606085 0.578010
O O12 0.176026 0.566171 0.387887
O O13 0.000000 0.628783 0.250000
#
# Coordination Sequence:
#
# PCOD9293015 Si02
#       7
#     8   4   8   8   8   4   8
#     4  11  25  46  75 102 135 186 243 308 382 434
#     4  10  22  44  71 104 146 190 231 304 370 426
#     4  11  24  39  67 103 148 196 240 294 357 435
#     4  10  23  45  72 101 145 175 238 303 361 433
#     4  12  25  45  71 101 148 196 243 306 358 439
#     4  12  24  44  65 100 146 194 243 286 364 416
#     4  11  24  41  67 106 145 198 244 290 360 436
#
# _framework density 22.807766000000001
#
# number of rings (size 3 to 8) (size 9 to 14) (size 15 to 20)
#    0.000    1.000    5.000    1.000    3.500    5.333 
#    0.000    1.667    0.000    0.000    0.000    0.000 
#    0.000    0.000    0.000    0.000    0.000    0.000 
#
# Total GULP energy -134016.863947 kJ/mol
# GULP energy per Si atom -5584.035998 kJ/mol
# Density = 2.275585 g / cm^3
# Si number density = 22.807766 Si / 1000 Ang^3
#
#
#
# Elastic Constant Matrix: (Units=GPa)
#
#
# Indices 1 2 3 4 5 6 
#
# 1 70.4845 24.6286 32.9192 0.0000 16.8704 0.0000
# 2 24.6286 120.6608 60.4729 0.0000 12.5738 0.0000
# 3 32.9192 60.4729 159.9829 0.0000 27.1056 0.0000
# 4 0.0000 0.0000 0.0000 17.9065 0.0000 4.2014
# 5 16.8704 12.5738 27.1056 0.0000 47.0536 0.0000
# 6 0.0000 0.0000 0.0000 4.2014 0.0000 7.5710
#
#
#
# Elastic Compliance Matrix: (Units=1/GPa)
#
#
# Indices 1 2 3 4 5 6 
#
# 1 0.016853 -0.001996 -0.001973 0.000000 -0.004373 0.000000
# 2 -0.001996 0.010474 -0.003541 0.000000 -0.000044 0.000000
# 3 -0.001973 -0.003541 0.008549 0.000000 -0.003271 0.000000
# 4 0.000000 0.000000 0.000000 0.064206 0.000000 -0.035630
# 5 -0.004373 -0.000044 -0.003271 0.000000 0.024716 0.000000
# 6 0.000000 0.000000 0.000000 -0.035630 0.000000 0.151856
#
#
# Mechanical properties :
#
#
# Convention : Reuss Voigt Hill
#
# Bulk Modulus (GPa) = 47.94402 65.24108 56.59255
# Shear Modulus (GPa) = 16.74338 30.04672 23.39505
#
# Velocity S-wave (km/s) = 2.71238 3.63352 3.20621
# Velocity P-wave (km/s) = 5.55661 6.80222 6.21072
#
# Compressibility (1/GPa) = 0.02085766
#
# Stress axis : x y z
#
# Youngs Moduli (GPa) = 59.33767 95.47101 116.96715
#
# Poissons Ratio (x) = 0.19052 0.23072
# Poissons Ratio (y) = 0.11842 0.41421
# Poissons Ratio (z) = 0.11705 0.33809
#
# Static dielectric constant tensor:
#      x y z
#    x 1.971530 0.000000 -0.043680 
#    y 0.000000 1.824790 0.000000 
#    z -0.043680 0.000000 1.967880 
# 
# From -- ./inp_files/32185.got.cif
#   From: 2010.05.17/outbox.cif.g08.bks.cpg/sg15_17_cif.got.tgz:32185.got - 2010.06.03 18:47:42.
