data_PCOD9293809
_publ_section_title
;
Structure prediction by ZEFSAII (Michael W. Deem and Ramdas Pophale) SiO2 
 PCOD9293809
Probable space group: C 2/C
;
_chemical_formula_sum "Si O2"
_cell_formula_units_Z 48
_cell_length_a 6.833001
_cell_length_b 18.250496
_cell_length_c 13.794324
_cell_angle_alpha 90.000000
_cell_angle_beta 77.215296
_cell_angle_gamma 90.000000
_cell_volume 1677.583095
_symmetry_space_group_name_H-M "C 2/C"
_symmetry_group_IT_number 15
_symmetry_cell_setting 'monoclinic'
loop_
_space_group_symop_operation_xyz
x,y,z
-x,y,1/2-z
-x,-y,-z
x,-y,1/2+z
1/2+x,1/2+y,z
1/2-x,1/2+y,1/2-z
1/2-x,1/2-y,-z
1/2+x,1/2-y,1/2+z
loop_
_atom_site_type_symbol
_atom_site_label
_atom_site_fract_x
_atom_site_fract_y
_atom_site_fract_z
Si Si1 0.617555 0.424279 0.899601
Si Si2 0.500000 0.691186 0.250000
Si Si3 0.000000 0.444973 0.750000
Si Si4 0.724801 0.173179 0.946798
Si Si5 0.193128 0.305474 0.089838
Si Si6 0.764561 0.385420 0.245603
Si Si7 0.317203 0.978949 0.591738
O O1 0.592687 0.359066 0.823681
O O2 0.797379 0.472863 0.832399
O O3 0.691475 0.387522 0.989955
O O4 0.606555 0.543601 0.067407
O O5 0.643552 0.747089 0.178918
O O6 0.892407 0.417724 0.662474
O O7 0.750000 0.250000 0.000000
O O8 0.492934 0.156817 0.944868
O O9 0.801255 0.174689 0.827383
O O10 0.318885 0.365155 0.137968
O O11 0.250000 0.250000 0.000000
O O12 0.754373 0.455888 0.174744
O O13 0.000000 0.385526 0.250000
O O14 0.500000 0.000000 0.500000
#
# Coordination Sequence:
#
# PCOD9293809 Si02
#       7
#     8   4   4   8   8   8   8
#     4  12  27  48  78 125 166 225 289 362 455 542
#     4  12  22  49  76 114 179 210 302 360 434 554
#     4  12  26  49  76 112 167 214 276 356 448 520
#     4  11  22  45  74 113 166 212 277 360 446 529
#     4  11  24  45  81 119 166 230 286 364 457 544
#     4  10  22  47  76 113 168 211 282 368 436 538
#     4  12  27  51  84 115 166 231 301 369 447 541
#
# _framework density 28.612591999999999
#
# number of rings (size 3 to 8) (size 9 to 14) (size 15 to 20)
#    0.000    0.667    6.667    1.000    2.333    5.333 
#    0.000    3.333    3.667    1.000    0.000    0.000 
#    0.000    0.000    0.000    0.000    0.000    0.000 
#
# Total GULP energy -133679.501455 kJ/mol
# GULP energy per Si atom -5569.979227 kJ/mol
# Density = 2.854747 g / cm^3
# Si number density = 28.612592 Si / 1000 Ang^3
#
#
#
# Elastic Constant Matrix: (Units=GPa)
#
#
# Indices 1 2 3 4 5 6 
#
# 1 204.2971 36.0059 106.4336 0.0000 16.6979 0.0000
# 2 36.0059 134.6535 89.6613 0.0000 6.1304 0.0000
# 3 106.4336 89.6613 323.8808 0.0000 33.8271 0.0000
# 4 0.0000 0.0000 0.0000 70.2214 0.0000 16.1519
# 5 16.6979 6.1304 33.8271 0.0000 79.1547 0.0000
# 6 0.0000 0.0000 0.0000 16.1519 0.0000 35.0172
#
#
#
# Elastic Compliance Matrix: (Units=1/GPa)
#
#
# Indices 1 2 3 4 5 6 
#
# 1 0.005935 -0.000367 -0.001801 0.000000 -0.000454 0.000000
# 2 -0.000367 0.009139 -0.002453 0.000000 0.000418 0.000000
# 3 -0.001801 -0.002453 0.004500 0.000000 -0.001353 0.000000
# 4 0.000000 0.000000 0.000000 0.015931 0.000000 -0.007348
# 5 -0.000454 0.000418 -0.001353 0.000000 0.013275 0.000000
# 6 0.000000 0.000000 0.000000 -0.007348 0.000000 0.031947
#
#
# Mechanical properties :
#
#
# Convention : Reuss Voigt Hill
#
# Bulk Modulus (GPa) = 96.79338 125.22587 111.00962
# Shear Modulus (GPa) = 53.52562 65.59402 59.55982
#
# Velocity S-wave (km/s) = 4.32985 4.79319 4.56740
# Velocity P-wave (km/s) = 7.67458 8.63098 8.16680
#
# Compressibility (1/GPa) = 0.01033129
#
# Stress axis : x y z
#
# Youngs Moduli (GPa) = 168.48989 109.42166 222.22434
#
# Poissons Ratio (x) = 0.04014 0.40032
# Poissons Ratio (y) = 0.06181 0.54513
# Poissons Ratio (z) = 0.30352 0.26842
#
# Static dielectric constant tensor:
#      x y z
#    x 3.650310 0.000000 -1.069170 
#    y 0.000000 2.554660 0.000000 
#    z -1.069170 0.000000 2.885650 
# 
# From -- ./inp_files/79410.got.cif
#   From: 2010.05.17/outbox.cif.g08.bks.cpg/sg15_40_cif.got.tgz:79410.got - 2010.06.03 18:47:42.
