data_PCOD9293670
_publ_section_title
;
Structure prediction by ZEFSAII (Michael W. Deem and Ramdas Pophale) SiO2 
 PCOD9293670
Probable space group: C 2/C
;
_chemical_formula_sum "Si O2"
_cell_formula_units_Z 32
_cell_length_a 23.285146
_cell_length_b 4.923393
_cell_length_c 10.679627
_cell_angle_alpha 90.000000
_cell_angle_beta 107.305264
_cell_angle_gamma 90.000000
_cell_volume 1168.911695
_symmetry_space_group_name_H-M "C 2/C"
_symmetry_group_IT_number 15
_symmetry_cell_setting 'monoclinic'
loop_
_space_group_symop_operation_xyz
x,y,z
-x,y,1/2-z
-x,-y,-z
x,-y,1/2+z
1/2+x,1/2+y,z
1/2-x,1/2+y,1/2-z
1/2-x,1/2-y,-z
1/2+x,1/2-y,1/2+z
loop_
_atom_site_type_symbol
_atom_site_label
_atom_site_fract_x
_atom_site_fract_y
_atom_site_fract_z
Si Si1 0.388453 0.674354 0.088711
Si Si2 0.728015 0.843410 0.746167
Si Si3 0.750000 0.250000 0.000000
Si Si4 0.000000 0.526617 0.250000
Si Si5 0.097035 0.202432 0.668323
O O1 0.322640 0.802117 0.048351
O O2 0.444415 0.867748 0.153557
O O3 0.389692 0.467989 0.201570
O O4 0.400564 0.545534 0.960722
O O5 0.742906 0.588343 0.641383
O O6 0.755996 0.067856 0.654273
O O7 0.655903 0.894148 0.697777
O O8 0.032001 0.680748 0.156362
#
# Coordination Sequence:
#
# PCOD9293670 Si02
#       5
#     8   8   4   4   8
#     4  11  25  49  75 110 154 197 266 316 404 463
#     4  11  23  44  72 109 151 196 253 322 391 464
#     4  10  22  46  72 112 144 206 246 334 378 474
#     4  12  26  46  74 110 152 210 258 322 386 484
#     4  11  26  46  75 110 149 208 252 329 384 477
#
# _framework density 27.375893000000001
#
# number of rings (size 3 to 8) (size 9 to 14) (size 15 to 20)
#    0.000    1.000    2.500    3.000    0.000    7.000 
#   13.500    0.000    0.000    0.000    0.000    0.000 
#    0.000    0.000    0.000    0.000    0.000    0.000 
#
# Total GULP energy -89116.552972 kJ/mol
# GULP energy per Si atom -5569.784561 kJ/mol
# Density = 2.731358 g / cm^3
# Si number density = 27.375893 Si / 1000 Ang^3
#
#
#
# Elastic Constant Matrix: (Units=GPa)
#
#
# Indices 1 2 3 4 5 6 
#
# 1 299.7400 49.7330 85.8915 0.0000 9.8487 0.0000
# 2 49.7330 137.0283 12.8617 0.0000 8.9352 0.0000
# 3 85.8915 12.8617 181.1365 0.0000 -26.3418 0.0000
# 4 0.0000 0.0000 0.0000 76.1060 0.0000 -5.9725
# 5 9.8487 8.9352 -26.3418 0.0000 71.9532 0.0000
# 6 0.0000 0.0000 0.0000 -5.9725 0.0000 45.7460
#
#
#
# Elastic Compliance Matrix: (Units=1/GPa)
#
#
# Indices 1 2 3 4 5 6 
#
# 1 0.004171 -0.001244 -0.002060 0.000000 -0.001171 0.000000
# 2 -0.001244 0.007812 -0.000085 0.000000 -0.000831 0.000000
# 3 -0.002060 -0.000085 0.006914 0.000000 0.002824 0.000000
# 4 0.000000 0.000000 0.000000 0.013276 0.000000 0.001733
# 5 -0.001171 -0.000831 0.002824 0.000000 0.015195 0.000000
# 6 0.000000 0.000000 0.000000 0.001733 0.000000 0.022086
#
#
# Mechanical properties :
#
#
# Convention : Reuss Voigt Hill
#
# Bulk Modulus (GPa) = 82.52309 101.65303 92.08806
# Shear Modulus (GPa) = 62.28773 70.05562 66.17168
#
# Velocity S-wave (km/s) = 4.77516 5.06417 4.92179
# Velocity P-wave (km/s) = 7.78542 8.45029 8.12466
#
# Compressibility (1/GPa) = 0.01211782
#
# Stress axis : x y z
#
# Youngs Moduli (GPa) = 239.72732 128.01503 144.63030
#
# Poissons Ratio (x) = 0.15929 0.29792
# Poissons Ratio (y) = 0.29829 0.01237
# Poissons Ratio (z) = 0.49381 0.01095
#
# Static dielectric constant tensor:
#      x y z
#    x 1.952590 0.000000 0.145290 
#    y 0.000000 1.919330 0.000000 
#    z 0.145290 0.000000 1.960460 
# 
# From -- ./inp_files/109071.got.cif
#   From: 2010.05.17/outbox.cif.g08.bks.cpg/sg15_55_cif.got.tgz:109071.got - 2010.06.03 18:47:42.
