data_PCOD9293479
_publ_section_title
;
Structure prediction by ZEFSAII (Michael W. Deem and Ramdas Pophale) SiO2 
 PCOD9293479
Probable space group: C 2/C
;
_chemical_formula_sum "Si O2"
_cell_formula_units_Z 48
_cell_length_a 11.304920
_cell_length_b 8.991132
_cell_length_c 25.912325
_cell_angle_alpha 90.000000
_cell_angle_beta 111.271099
_cell_angle_gamma 90.000000
_cell_volume 2454.401468
_symmetry_space_group_name_H-M "C 2/C"
_symmetry_group_IT_number 15
_symmetry_cell_setting 'monoclinic'
loop_
_space_group_symop_operation_xyz
x,y,z
-x,y,1/2-z
-x,-y,-z
x,-y,1/2+z
1/2+x,1/2+y,z
1/2-x,1/2+y,1/2-z
1/2-x,1/2-y,-z
1/2+x,1/2-y,1/2+z
loop_
_atom_site_type_symbol
_atom_site_label
_atom_site_fract_x
_atom_site_fract_y
_atom_site_fract_z
Si Si1 0.867049 0.295496 0.555407
Si Si2 0.580172 0.206719 0.689068
Si Si3 0.662806 0.291099 0.332452
Si Si4 0.572060 0.341146 0.016662
Si Si5 0.000000 0.457234 0.750000
Si Si6 0.500000 0.539244 0.250000
Si Si7 0.371122 0.854319 0.074347
O O1 0.750000 0.250000 0.500000
O O2 0.842318 0.221014 0.606857
O O3 0.885958 0.471552 0.564559
O O4 0.993392 0.238905 0.548374
O O5 0.695365 0.208539 0.667356
O O6 0.577549 0.352738 0.724157
O O7 0.448453 0.191917 0.637138
O O8 0.583971 0.064483 0.727299
O O9 0.588448 0.148307 0.298285
O O10 0.589962 0.434142 0.298411
O O11 0.719480 0.342893 0.055662
O O12 0.500000 0.500000 0.000000
O O13 0.575713 0.248825 0.963638
#
# Coordination Sequence:
#
# PCOD9293479 Si02
#       7
#     8   8   8   8   4   4   8
#     4  12  24  43  70  98 135 177 219 275 336 396
#     4  11  23  43  69  95 131 171 224 273 330 392
#     4  11  24  43  67  98 134 171 221 273 333 390
#     4  11  25  44  66  97 140 173 221 275 334 403
#     4  10  22  46  62  98 128 174 222 270 332 388
#     4  10  26  42  66 100 130 178 220 272 332 394
#     4  11  25  43  67  99 130 181 221 273 337 398
#
# _framework density 19.556702999999999
#
# number of rings (size 3 to 8) (size 9 to 14) (size 15 to 20)
#    0.000    1.000    3.333    2.500    2.333    1.333 
#   12.000    0.000    0.000    0.000    0.000    0.000 
#    0.000    0.000    0.000    0.000    0.000    0.000 
#
# Total GULP energy -134145.272370 kJ/mol
# GULP energy per Si atom -5589.386349 kJ/mol
# Density = 1.951219 g / cm^3
# Si number density = 19.556703 Si / 1000 Ang^3
#
#
#
# Elastic Constant Matrix: (Units=GPa)
#
#
# Indices 1 2 3 4 5 6 
#
# 1 127.5996 46.3949 56.0500 0.0000 -30.5122 0.0000
# 2 46.3949 124.0672 55.4523 0.0000 -4.8915 0.0000
# 3 56.0500 55.4523 146.4467 0.0000 -3.8988 0.0000
# 4 0.0000 0.0000 0.0000 15.6682 0.0000 8.4988
# 5 -30.5122 -4.8915 -3.8988 0.0000 26.3322 0.0000
# 6 0.0000 0.0000 0.0000 8.4988 0.0000 -5.5072
#
#
#
# Elastic Compliance Matrix: (Units=1/GPa)
#
#
# Indices 1 2 3 4 5 6 
#
# 1 0.014372 -0.002996 -0.003953 0.000000 0.015512 0.000000
# 2 -0.002996 0.010369 -0.002832 0.000000 -0.001965 0.000000
# 3 -0.003953 -0.002832 0.009315 0.000000 -0.003728 0.000000
# 4 0.000000 0.000000 0.000000 0.034742 0.000000 0.053614
# 5 0.015512 -0.001965 -0.003728 0.000000 0.055033 0.000000
# 6 0.000000 0.000000 0.000000 0.053614 0.000000 -0.098842
#
#
# Mechanical properties :
#
#
# Convention : Reuss Voigt Hill
#
# Bulk Modulus (GPa) = 68.99765 79.32309 74.16037
# Shear Modulus (GPa) = 101.25211 23.31306 62.28259
#
# Velocity S-wave (km/s) = 7.20319 3.45639 5.64945
# Velocity P-wave (km/s) = 10.22442 7.52180 8.97542
#
# Compressibility (1/GPa) = 0.01449325
#
# Stress axis : x y z
#
# Youngs Moduli (GPa) = 69.57931 96.44412 107.35946
#
# Poissons Ratio (x) = 0.28894 0.42442
# Poissons Ratio (y) = 0.20846 0.30402
# Poissons Ratio (z) = 0.27507 0.27311
#
# Static dielectric constant tensor:
#      x y z
#    x 1.628400 0.000000 0.012450 
#    y 0.000000 1.716350 0.000000 
#    z 0.012450 0.000000 1.703790 
# 
# From -- ./inp_files/267763.got.cif
#   From: 2010.05.17/outbox.cif.g08.bks.cpg/sg15_134_cif.got.tgz:267763.got - 2010.06.03 18:47:42.
