data_PCOD9293997
_publ_section_title
;
Structure prediction by ZEFSAII (Michael W. Deem and Ramdas Pophale) SiO2 
 PCOD9293997
Probable space group: C 2/C
;
_chemical_formula_sum "Si O2"
_cell_formula_units_Z 56
_cell_length_a 28.990566
_cell_length_b 11.833801
_cell_length_c 15.986487
_cell_angle_alpha 90.000000
_cell_angle_beta 28.459770
_cell_angle_gamma 90.000000
_cell_volume 2613.573993
_symmetry_space_group_name_H-M "C 2/C"
_symmetry_group_IT_number 15
_symmetry_cell_setting 'monoclinic'
loop_
_space_group_symop_operation_xyz
x,y,z
-x,y,1/2-z
-x,-y,-z
x,-y,1/2+z
1/2+x,1/2+y,z
1/2-x,1/2+y,1/2-z
1/2-x,1/2-y,-z
1/2+x,1/2-y,1/2+z
loop_
_atom_site_type_symbol
_atom_site_label
_atom_site_fract_x
_atom_site_fract_y
_atom_site_fract_z
Si Si1 0.125011 0.485790 0.724000
Si Si2 0.776577 0.327854 0.337004
Si Si3 0.808349 0.982012 0.301703
Si Si4 0.741666 0.649160 0.265677
Si Si5 0.698306 0.226921 0.169069
Si Si6 0.028588 0.350999 0.107953
Si Si7 0.106430 0.160216 0.226538
O O1 0.168658 0.557272 0.731423
O O2 0.207395 0.492302 0.518038
O O3 0.113854 0.359610 0.776811
O O4 0.030360 0.548706 0.842975
O O5 0.784012 0.268868 0.236436
O O6 0.827666 0.238540 0.317971
O O7 0.666547 0.343615 0.543944
O O8 0.799565 0.051170 0.228602
O O9 0.888534 0.041027 0.233880
O O10 0.827860 0.850417 0.255802
O O11 0.726353 0.663861 0.388802
O O12 0.857483 0.638265 0.078739
O O13 0.750000 0.250000 0.000000
O O14 0.989817 0.231148 0.134707
O O15 0.000000 0.356084 0.250000
#
# Coordination Sequence:
#
# PCOD9293997 Si02
#       7
#     8   8   8   8   8   8   8
#     4   9  18  34  56  79 118 147 171 231 290 332
#     4   8  14  27  50  82 104 132 180 222 270 319
#     4   9  18  36  56  80 106 149 192 226 267 333
#     4  11  20  31  58  87 105 138 193 237 271 334
#     4  10  23  38  53  75 112 154 184 223 282 332
#     4  11  17  30  55  91 114 136 178 238 293 325
#     4   8  14  28  51  78 112 136 164 225 285 318
#
# _framework density 21.426597999999998
#
# number of rings (size 3 to 8) (size 9 to 14) (size 15 to 20)
#    0.000    2.571    2.857    1.714    2.000    0.571 
#    0.000    0.714    0.000    2.571    0.000    0.000 
#    0.000    0.000    0.000    0.000    0.000    0.000 
#
# Total GULP energy -156142.963645 kJ/mol
# GULP energy per Si atom -5576.534416 kJ/mol
# Density = 2.137783 g / cm^3
# Si number density = 21.426598 Si / 1000 Ang^3
#
#
#
# Elastic Constant Matrix: (Units=GPa)
#
#
# Indices 1 2 3 4 5 6 
#
# 1 99.8483 47.8696 16.1913 0.0000 19.7555 0.0000
# 2 47.8696 138.8765 2.3104 0.0000 -0.8922 0.0000
# 3 16.1913 2.3104 41.3290 0.0000 9.3366 0.0000
# 4 0.0000 0.0000 0.0000 11.1982 0.0000 6.0151
# 5 19.7555 -0.8922 9.3366 0.0000 30.4528 0.0000
# 6 0.0000 0.0000 0.0000 6.0151 0.0000 29.4268
#
#
#
# Elastic Compliance Matrix: (Units=1/GPa)
#
#
# Indices 1 2 3 4 5 6 
#
# 1 0.014726 -0.005072 -0.003539 0.000000 -0.008617 0.000000
# 2 -0.005072 0.008958 0.000735 0.000000 0.003328 0.000000
# 3 -0.003539 0.000735 0.026880 0.000000 -0.005924 0.000000
# 4 0.000000 0.000000 0.000000 0.100314 0.000000 -0.020505
# 5 -0.008617 0.003328 -0.005924 0.000000 0.040341 0.000000
# 6 0.000000 0.000000 0.000000 -0.020505 0.000000 0.038174
#
#
# Mechanical properties :
#
#
# Convention : Reuss Voigt Hill
#
# Bulk Modulus (GPa) = 28.72713 45.86628 37.29670
# Shear Modulus (GPa) = 19.47422 28.46107 23.96764
#
# Velocity S-wave (km/s) = 3.01804 3.64855 3.34817
# Velocity P-wave (km/s) = 5.05777 6.26114 5.69135
#
# Compressibility (1/GPa) = 0.03481030
#
# Stress axis : x y z
#
# Youngs Moduli (GPa) = 67.90868 111.62984 37.20282
#
# Poissons Ratio (x) = 0.56622 0.13166
# Poissons Ratio (y) = 0.34445 -0.02733
# Poissons Ratio (z) = 0.24032 -0.08200
#
# Static dielectric constant tensor:
#      x y z
#    x 1.780360 0.000000 0.060430 
#    y 0.000000 1.875270 0.000000 
#    z 0.060430 0.000000 1.832760 
# 
# From -- ./inp_files/177553.got.cif
#   From: 2010.05.17/outbox.cif.g08.bks.cpg/sg15_89_cif.got.tgz:177553.got - 2010.06.03 18:47:42.
