data_PCOD9293916
_publ_section_title
;
Structure prediction by ZEFSAII (Michael W. Deem and Ramdas Pophale) SiO2 
 PCOD9293916
Probable space group: C 2/C
;
_chemical_formula_sum "Si O2"
_cell_formula_units_Z 48
_cell_length_a 25.126056
_cell_length_b 17.907427
_cell_length_c 5.311636
_cell_angle_alpha 90.000000
_cell_angle_beta 80.734624
_cell_angle_gamma 90.000000
_cell_volume 2358.752510
_symmetry_space_group_name_H-M "C 2/C"
_symmetry_group_IT_number 15
_symmetry_cell_setting 'monoclinic'
loop_
_space_group_symop_operation_xyz
x,y,z
-x,y,1/2-z
-x,-y,-z
x,-y,1/2+z
1/2+x,1/2+y,z
1/2-x,1/2+y,1/2-z
1/2-x,1/2-y,-z
1/2+x,1/2-y,1/2+z
loop_
_atom_site_type_symbol
_atom_site_label
_atom_site_fract_x
_atom_site_fract_y
_atom_site_fract_z
Si Si1 0.311973 0.718956 0.262797
Si Si2 0.000000 0.549251 0.250000
Si Si3 0.587748 0.157131 0.353353
Si Si4 0.060723 0.027853 0.522292
Si Si5 0.797984 0.313999 0.771205
Si Si6 0.000000 0.284965 0.250000
Si Si7 0.925738 0.196558 0.952393
O O1 0.263513 0.661528 0.235317
O O2 0.305467 0.749815 0.550168
O O3 0.372902 0.693960 0.170355
O O4 0.302354 0.783117 0.053939
O O5 0.052360 0.602673 0.209364
O O6 0.000000 0.500000 0.500000
O O7 0.650047 0.134383 0.321208
O O8 0.550801 0.165194 0.628320
O O9 0.588230 0.241746 0.245797
O O10 0.062240 0.111807 0.625199
O O11 0.086084 0.978055 0.724294
O O12 0.000000 0.000000 0.500000
O O13 0.022820 0.231209 0.446985
#
# Coordination Sequence:
#
# PCOD9293916 Si02
#       7
#     8   4   8   8   8   4   8
#     4   9  18  32  54  85 112 144 184 247 288 329
#     4  12  27  42  58  85 124 154 190 242 311 372
#     4  11  23  37  60  87 115 154 195 244 293 356
#     4  10  23  36  49  75 116 159 184 224 276 327
#     4   9  18  34  54  83 115 139 186 240 299 332
#     4  12  19  32  56  91 114 146 196 238 277 344
#     4  11  22  34  60  84 117 153 201 237 283 345
#
# _framework density 20.349741999999999
#
# number of rings (size 3 to 8) (size 9 to 14) (size 15 to 20)
#    0.000    1.667    3.333    1.500    7.000    0.000 
#    0.000    0.000    0.000    2.000    0.000    0.000 
#    0.000    0.000    0.000    0.000    0.000    0.000 
#
# Total GULP energy -133657.105610 kJ/mol
# GULP energy per Si atom -5569.046067 kJ/mol
# Density = 2.030342 g / cm^3
# Si number density = 20.349742 Si / 1000 Ang^3
#
#
#
# Elastic Constant Matrix: (Units=GPa)
#
#
# Indices 1 2 3 4 5 6 
#
# 1 114.2175 7.2587 7.5498 0.0000 -13.6011 0.0000
# 2 7.2587 72.0455 21.5865 0.0000 6.1904 0.0000
# 3 7.5498 21.5865 104.6383 0.0000 6.0382 0.0000
# 4 0.0000 0.0000 0.0000 22.6982 0.0000 2.9168
# 5 -13.6011 6.1904 6.0382 0.0000 39.0056 0.0000
# 6 0.0000 0.0000 0.0000 2.9168 0.0000 6.2795
#
#
#
# Elastic Compliance Matrix: (Units=1/GPa)
#
#
# Indices 1 2 3 4 5 6 
#
# 1 0.009282 -0.001039 -0.000657 0.000000 0.003503 0.000000
# 2 -0.001039 0.015051 -0.002897 0.000000 -0.002303 0.000000
# 3 -0.000657 -0.002897 0.010280 0.000000 -0.001361 0.000000
# 4 0.000000 0.000000 0.000000 0.046853 0.000000 -0.021763
# 5 0.003503 -0.002303 -0.001361 0.000000 0.027435 0.000000
# 6 0.000000 0.000000 0.000000 -0.021763 0.000000 0.169359
#
#
# Mechanical properties :
#
#
# Convention : Reuss Voigt Hill
#
# Bulk Modulus (GPa) = 39.33059 40.41013 39.87036
# Shear Modulus (GPa) = 16.89634 30.56375 23.73005
#
# Velocity S-wave (km/s) = 2.88461 3.87967 3.41854
# Velocity P-wave (km/s) = 5.51941 6.32219 5.93439
#
# Compressibility (1/GPa) = 0.02542550
#
# Stress axis : x y z
#
# Youngs Moduli (GPa) = 107.73656 66.44220 97.27297
#
# Poissons Ratio (x) = 0.06905 0.06396
# Poissons Ratio (y) = 0.11196 0.28180
# Poissons Ratio (z) = 0.07083 0.19249
#
# Static dielectric constant tensor:
#      x y z
#    x 1.823870 0.000000 -0.054530 
#    y 0.000000 1.722850 0.000000 
#    z -0.054530 0.000000 1.871340 
# 
# From -- ./inp_files/16992.got.cif
#   From: 2010.05.17/outbox.cif.g08.bks.cpg/sg15_9_cif.got.tgz:16992.got - 2010.06.03 18:47:42.
