data_PCOD9293794
_publ_section_title
;
Structure prediction by ZEFSAII (Michael W. Deem and Ramdas Pophale) SiO2 
 PCOD9293794
Probable space group: C 2/C
;
_chemical_formula_sum "Si O2"
_cell_formula_units_Z 64
_cell_length_a 22.901890
_cell_length_b 8.500035
_cell_length_c 13.936828
_cell_angle_alpha 90.000000
_cell_angle_beta 80.842672
_cell_angle_gamma 90.000000
_cell_volume 2678.461137
_symmetry_space_group_name_H-M "C 2/C"
_symmetry_group_IT_number 15
_symmetry_cell_setting 'monoclinic'
loop_
_space_group_symop_operation_xyz
x,y,z
-x,y,1/2-z
-x,-y,-z
x,-y,1/2+z
1/2+x,1/2+y,z
1/2-x,1/2+y,1/2-z
1/2-x,1/2-y,-z
1/2+x,1/2-y,1/2+z
loop_
_atom_site_type_symbol
_atom_site_label
_atom_site_fract_x
_atom_site_fract_y
_atom_site_fract_z
Si Si1 0.384581 0.326155 0.120083
Si Si2 0.711111 0.902576 0.043881
Si Si3 0.488855 0.538344 0.147959
Si Si4 0.396382 0.004109 0.564573
Si Si5 0.444712 0.281677 0.480366
Si Si6 0.175851 0.324529 0.266047
Si Si7 0.701153 0.535673 0.725093
Si Si8 0.669868 0.543069 0.513337
O O1 0.426018 0.451622 0.160904
O O2 0.326578 0.328308 0.200650
O O3 0.364921 0.394203 0.022569
O O4 0.416846 0.162684 0.100434
O O5 0.679015 0.864528 0.152139
O O6 0.762825 0.034129 0.042364
O O7 0.750000 0.750000 0.000000
O O8 0.662428 0.956980 0.980407
O O9 0.500000 0.605401 0.250000
O O10 0.483732 0.657749 0.060450
O O11 0.533961 0.396295 0.110199
O O12 0.441758 0.094838 0.483915
O O13 0.380451 0.112788 0.660868
O O14 0.373880 0.318587 0.506240
O O15 0.230263 0.423308 0.295524
O O16 0.187379 0.137503 0.270437
O O17 0.675186 0.539910 0.625672
#
# Coordination Sequence:
#
# PCOD9293794 Si02
#       8
#     8   8   8   8   8   8   8   8
#     4  11  23  42  67  92 129 169 218 274 335 393
#     4  12  21  41  60  91 139 185 215 265 326 391
#     4  10  22  47  73  95 127 170 226 287 346 399
#     4  12  25  42  61 100 139 172 219 273 327 406
#     4  10  25  43  68 101 128 169 228 284 336 398
#     4  12  23  35  59  89 132 178 224 260 320 392
#     4  12  22  37  60  91 128 176 220 268 320 386
#     4  11  21  41  62  89 127 177 220 260 319 392
#
# _framework density 23.894316
#
# number of rings (size 3 to 8) (size 9 to 14) (size 15 to 20)
#    0.000    0.750    5.000    3.000    0.000    4.000 
#    0.000    0.625    0.000    0.000    0.000    0.000 
#    0.000    0.000    0.000    0.000    0.000    0.000 
#
# Total GULP energy -178891.300338 kJ/mol
# GULP energy per Si atom -5590.353136 kJ/mol
# Density = 2.383993 g / cm^3
# Si number density = 23.894316 Si / 1000 Ang^3
#
#
#
# Elastic Constant Matrix: (Units=GPa)
#
#
# Indices 1 2 3 4 5 6 
#
# 1 49.4262 -1.9565 -0.5365 0.0000 4.3025 0.0000
# 2 -1.9565 80.2828 15.1374 0.0000 2.8899 0.0000
# 3 -0.5365 15.1374 135.0761 0.0000 15.4289 0.0000
# 4 0.0000 0.0000 0.0000 26.3221 0.0000 -11.7885
# 5 4.3025 2.8899 15.4289 0.0000 33.4741 0.0000
# 6 0.0000 0.0000 0.0000 -11.7885 0.0000 32.4473
#
#
#
# Elastic Compliance Matrix: (Units=1/GPa)
#
#
# Indices 1 2 3 4 5 6 
#
# 1 0.020504 0.000537 0.000346 0.000000 -0.002841 0.000000
# 2 0.000537 0.012746 -0.001365 0.000000 -0.000540 0.000000
# 3 0.000346 -0.001365 0.007969 0.000000 -0.003600 0.000000
# 4 0.000000 0.000000 0.000000 0.045374 0.000000 0.016485
# 5 -0.002841 -0.000540 -0.003600 0.000000 0.031945 0.000000
# 6 0.000000 0.000000 0.000000 0.016485 0.000000 0.036808
#
#
# Mechanical properties :
#
#
# Convention : Reuss Voigt Hill
#
# Bulk Modulus (GPa) = 24.84158 32.23045 28.53601
# Shear Modulus (GPa) = 29.45890 35.25808 32.35849
#
# Velocity S-wave (km/s) = 3.51505 3.84550 3.68398
# Velocity P-wave (km/s) = 5.18586 5.76500 5.48308
#
# Compressibility (1/GPa) = 0.04025509
#
# Stress axis : x y z
#
# Youngs Moduli (GPa) = 48.76981 78.45730 125.49127
#
# Poissons Ratio (x) = -0.04211 -0.04340
# Poissons Ratio (y) = -0.02618 0.17123
# Poissons Ratio (z) = -0.01687 0.10706
#
# Static dielectric constant tensor:
#      x y z
#    x 1.941880 0.000000 -0.044960 
#    y 0.000000 1.996610 0.000000 
#    z -0.044960 0.000000 1.915730 
# 
# From -- ./inp_files/172391.got.cif
#   From: 2010.05.17/outbox.cif.g08.bks.cpg/sg15_87_cif.got.tgz:172391.got - 2010.06.03 18:47:42.
