data_PCOD9293075
_publ_section_title
;
Structure prediction by ZEFSAII (Michael W. Deem and Ramdas Pophale) SiO2 
 PCOD9293075
Probable space group: C 2/C
;
_chemical_formula_sum "Si O2"
_cell_formula_units_Z 52
_cell_length_a 5.867865
_cell_length_b 22.878760
_cell_length_c 15.193201
_cell_angle_alpha 90.000000
_cell_angle_beta 82.913538
_cell_angle_gamma 90.000000
_cell_volume 2024.098383
_symmetry_space_group_name_H-M "C 2/C"
_symmetry_group_IT_number 15
_symmetry_cell_setting 'monoclinic'
loop_
_space_group_symop_operation_xyz
x,y,z
-x,y,1/2-z
-x,-y,-z
x,-y,1/2+z
1/2+x,1/2+y,z
1/2-x,1/2+y,1/2-z
1/2-x,1/2-y,-z
1/2+x,1/2-y,1/2+z
loop_
_atom_site_type_symbol
_atom_site_label
_atom_site_fract_x
_atom_site_fract_y
_atom_site_fract_z
Si Si1 0.984213 0.249810 0.090204
Si Si2 0.856288 0.123041 0.473262
Si Si3 0.905304 0.563838 0.520672
Si Si4 0.984718 0.080985 0.845941
Si Si5 0.634561 0.449778 0.855782
Si Si6 0.000000 0.629667 0.250000
Si Si7 0.029955 0.264447 0.881533
O O1 0.722516 0.261153 0.135198
O O2 0.214908 0.265938 0.135082
O O3 0.026114 0.180001 0.073961
O O4 0.001091 0.270868 0.988285
O O5 0.589376 0.114003 0.506410
O O6 0.946297 0.115933 0.569982
O O7 0.885525 0.074098 0.394340
O O8 0.777654 0.565730 0.619324
O O9 0.738090 0.567143 0.445702
O O10 0.000000 0.500000 0.500000
O O11 0.000000 0.109181 0.750000
O O12 0.121116 0.018716 0.838890
O O13 0.784504 0.412242 0.781858
O O14 0.045541 0.674709 0.327919
#
# Coordination Sequence:
#
# PCOD9293075 Si02
#       7
#     8   8   8   8   8   4   8
#     4  10  22  44  72  95 134 186 227 284 350 433
#     4  11  21  41  65  88 126 179 230 267 343 422
#     4  11  20  39  63  83 127 179 221 265 340 419
#     4  11  25  38  56  92 132 169 224 282 334 410
#     4  11  23  38  58  97 128 175 217 282 350 408
#     4  12  24  40  68 106 142 174 236 306 360 412
#     4  10  23  44  68 102 138 173 228 290 361 412
#
# _framework density 25.690452000000001
#
# number of rings (size 3 to 8) (size 9 to 14) (size 15 to 20)
#    0.000    1.231    4.615    1.846    4.308    2.462 
#    4.154    0.000    0.000    1.846    0.000    0.000 
#    0.000    0.000    0.000    0.000    0.000    0.000 
#
# Total GULP energy -145000.167082 kJ/mol
# GULP energy per Si atom -5576.929503 kJ/mol
# Density = 2.563198 g / cm^3
# Si number density = 25.690452 Si / 1000 Ang^3
#
#
#
# Elastic Constant Matrix: (Units=GPa)
#
#
# Indices 1 2 3 4 5 6 
#
# 1 139.7785 5.3246 47.5572 0.0000 -17.5147 0.0000
# 2 5.3246 57.8772 0.1948 0.0000 -1.3234 0.0000
# 3 47.5572 0.1948 111.1826 0.0000 4.0048 0.0000
# 4 0.0000 0.0000 0.0000 44.4370 0.0000 -6.0334
# 5 -17.5147 -1.3234 4.0048 0.0000 40.2832 0.0000
# 6 0.0000 0.0000 0.0000 -6.0334 0.0000 25.8092
#
#
#
# Elastic Compliance Matrix: (Units=1/GPa)
#
#
# Indices 1 2 3 4 5 6 
#
# 1 0.009103 -0.000725 -0.004048 0.000000 0.004336 0.000000
# 2 -0.000725 0.017349 0.000271 0.000000 0.000228 0.000000
# 3 -0.004048 0.000271 0.010827 0.000000 -0.002828 0.000000
# 4 0.000000 0.000000 0.000000 0.023241 0.000000 0.005433
# 5 0.004336 0.000228 -0.002828 0.000000 0.026998 0.000000
# 6 0.000000 0.000000 0.000000 0.005433 0.000000 0.040016
#
#
# Mechanical properties :
#
#
# Convention : Reuss Voigt Hill
#
# Bulk Modulus (GPa) = 35.36657 46.11016 40.73836
# Shear Modulus (GPa) = 34.25528 39.15667 36.70598
#
# Velocity S-wave (km/s) = 3.65552 3.90830 3.78402
# Velocity P-wave (km/s) = 5.62258 6.19304 5.91469
#
# Compressibility (1/GPa) = 0.02827529
#
# Stress axis : x y z
#
# Youngs Moduli (GPa) = 109.85923 57.64041 92.35937
#
# Poissons Ratio (x) = 0.04177 0.37391
# Poissons Ratio (y) = 0.07961 -0.02506
# Poissons Ratio (z) = 0.44476 -0.01564
#
# Static dielectric constant tensor:
#      x y z
#    x 1.897320 0.000000 0.003550 
#    y 0.000000 2.039450 0.000000 
#    z 0.003550 0.000000 1.968470 
# 
# From -- ./inp_files/130721.got.cif
#   From: 2010.05.17/outbox.cif.g08.bks.cpg/sg15_66_cif.got.tgz:130721.got - 2010.06.03 18:47:42.
