data_PCOD9293094
_publ_section_title
;
Structure prediction by ZEFSAII (Michael W. Deem and Ramdas Pophale) SiO2 
 PCOD9293094
Probable space group: C 2/C
;
_chemical_formula_sum "Si O2"
_cell_formula_units_Z 56
_cell_length_a 28.369038
_cell_length_b 8.587325
_cell_length_c 20.115000
_cell_angle_alpha 90.000000
_cell_angle_beta 148.306991
_cell_angle_gamma 90.000000
_cell_volume 2574.459271
_symmetry_space_group_name_H-M "C 2/C"
_symmetry_group_IT_number 15
_symmetry_cell_setting 'monoclinic'
loop_
_space_group_symop_operation_xyz
x,y,z
-x,y,1/2-z
-x,-y,-z
x,-y,1/2+z
1/2+x,1/2+y,z
1/2-x,1/2+y,1/2-z
1/2-x,1/2-y,-z
1/2+x,1/2-y,1/2+z
loop_
_atom_site_type_symbol
_atom_site_label
_atom_site_fract_x
_atom_site_fract_y
_atom_site_fract_z
Si Si1 0.903816 0.570626 0.408759
Si Si2 0.910644 0.928942 0.059015
Si Si3 0.732058 0.917383 0.358030
Si Si4 0.597369 0.444840 0.094198
Si Si5 0.774854 0.568770 0.374600
Si Si6 0.859217 0.578181 0.613142
Si Si7 0.000000 0.333360 0.750000
Si Si8 0.000000 0.165125 0.250000
O O1 0.832836 0.512729 0.268452
O O2 0.908707 0.758063 0.418922
O O3 0.857711 0.524703 0.424680
O O4 0.000000 0.500000 0.500000
O O5 0.946673 0.770967 0.132961
O O6 0.985796 0.055495 0.169740
O O7 0.817652 0.979489 0.980649
O O8 0.889130 0.955116 0.956720
O O9 0.760811 0.756714 0.356638
O O10 0.684276 0.879116 0.369722
O O11 0.683008 0.487994 0.241674
O O12 0.500000 0.500000 0.000000
O O13 0.795796 0.530238 0.476239
O O14 0.931321 0.441238 0.707606
O O15 0.914540 0.726185 0.653881
#
# Coordination Sequence:
#
# PCOD9293094 Si02
#       8
#     8   8   8   8   8   8   4   4
#     4  12  27  47  74 108 149 195 247 303 371 443
#     4  11  24  47  69 104 148 195 244 305 368 439
#     4  12  26  45  74 107 147 194 254 304 374 444
#     4  12  28  45  74 105 145 196 246 304 374 439
#     4  12  25  50  74 108 150 192 245 308 370 443
#     4  11  26  44  74 109 143 197 247 307 373 437
#     4  10  28  44  72 104 152 192 246 310 370 442
#     4  10  22  44  72  98 148 186 250 292 370 440
#
# _framework density 21.752141999999999
#
# number of rings (size 3 to 8) (size 9 to 14) (size 15 to 20)
#    0.000    0.571    4.286    1.286   12.000    2.857 
#    0.000    0.000    0.000    0.000    0.000    0.000 
#    0.000    0.000    0.000    0.000    0.000    0.000 
#
# Total GULP energy -156536.270309 kJ/mol
# GULP energy per Si atom -5590.581082 kJ/mol
# Density = 2.170263 g / cm^3
# Si number density = 21.752142 Si / 1000 Ang^3
#
#
#
# Elastic Constant Matrix: (Units=GPa)
#
#
# Indices 1 2 3 4 5 6 
#
# 1 109.9004 17.6319 17.7365 0.0000 4.7657 0.0000
# 2 17.6319 81.1495 28.0158 0.0000 16.3650 0.0000
# 3 17.7365 28.0158 97.2496 0.0000 7.3668 0.0000
# 4 0.0000 0.0000 0.0000 44.9136 0.0000 1.9548
# 5 4.7657 16.3650 7.3668 0.0000 36.5590 0.0000
# 6 0.0000 0.0000 0.0000 1.9548 0.0000 15.6059
#
#
#
# Elastic Compliance Matrix: (Units=1/GPa)
#
#
# Indices 1 2 3 4 5 6 
#
# 1 0.009570 -0.001585 -0.001267 0.000000 -0.000283 0.000000
# 2 -0.001585 0.015090 -0.003617 0.000000 -0.005819 0.000000
# 3 -0.001267 -0.003617 0.011598 0.000000 -0.000553 0.000000
# 4 0.000000 0.000000 0.000000 0.022387 0.000000 -0.002804
# 5 -0.000283 -0.005819 -0.000553 0.000000 0.030106 0.000000
# 6 0.000000 0.000000 0.000000 -0.002804 0.000000 0.064430
#
#
# Mechanical properties :
#
#
# Convention : Reuss Voigt Hill
#
# Bulk Modulus (GPa) = 42.88385 46.11866 44.50126
# Shear Modulus (GPa) = 28.75344 34.41004 31.58174
#
# Velocity S-wave (km/s) = 3.63969 3.98164 3.81450
# Velocity P-wave (km/s) = 6.11725 6.51045 6.31691
#
# Compressibility (1/GPa) = 0.02331880
#
# Stress axis : x y z
#
# Youngs Moduli (GPa) = 104.49081 66.27093 86.22266
#
# Poissons Ratio (x) = 0.10503 0.10928
# Poissons Ratio (y) = 0.16560 0.31188
# Poissons Ratio (z) = 0.13244 0.23971
#
# Static dielectric constant tensor:
#      x y z
#    x 2.193790 0.000000 0.137700 
#    y 0.000000 1.774300 0.000000 
#    z 0.137700 0.000000 1.868420 
# 
# From -- ./inp_files/258984.got.cif
#   From: 2010.05.17/outbox.cif.g08.bks.cpg/sg15_130_cif.got.tgz:258984.got - 2010.06.03 18:47:42.
