data_PCOD9293510
_publ_section_title
;
Structure prediction by ZEFSAII (Michael W. Deem and Ramdas Pophale) SiO2 
 PCOD9293510
Probable space group: C 2/C
;
_chemical_formula_sum "Si O2"
_cell_formula_units_Z 48
_cell_length_a 27.486023
_cell_length_b 4.843139
_cell_length_c 21.825651
_cell_angle_alpha 90.000000
_cell_angle_beta 138.616224
_cell_angle_gamma 90.000000
_cell_volume 1920.758802
_symmetry_space_group_name_H-M "C 2/C"
_symmetry_group_IT_number 15
_symmetry_cell_setting 'monoclinic'
loop_
_space_group_symop_operation_xyz
x,y,z
-x,y,1/2-z
-x,-y,-z
x,-y,1/2+z
1/2+x,1/2+y,z
1/2-x,1/2+y,1/2-z
1/2-x,1/2-y,-z
1/2+x,1/2-y,1/2+z
loop_
_atom_site_type_symbol
_atom_site_label
_atom_site_fract_x
_atom_site_fract_y
_atom_site_fract_z
Si Si1 0.661311 0.490989 0.524668
Si Si2 0.750000 0.250000 0.500000
Si Si3 0.867958 0.012045 0.706226
Si Si4 0.000000 0.845495 0.750000
Si Si5 0.936867 0.517004 0.577073
Si Si6 0.293811 0.190618 0.811146
Si Si7 0.095785 0.512932 0.680311
O O1 0.711130 0.464215 0.512222
O O2 0.631686 0.796435 0.508774
O O3 0.697374 0.353639 0.617757
O O4 0.590138 0.295613 0.444329
O O5 0.798370 0.110758 0.602347
O O6 0.939490 0.021383 0.729374
O O7 0.884256 0.205812 0.779897
O O8 0.867781 0.703121 0.732262
O O9 0.958345 0.645766 0.662862
O O10 0.008324 0.548240 0.602524
O O11 0.254220 0.415152 0.730282
O O12 0.369840 0.100197 0.851362
#
# Coordination Sequence:
#
# PCOD9293510 Si02
#       7
#     8   4   8   4   8   8   8
#     4  12  27  43  69 104 140 180 235 293 345 407
#     4  12  26  42  64 104 138 176 228 294 344 408
#     4  11  25  41  72  99 139 182 231 286 347 419
#     4  10  22  46  66 102 144 188 222 280 354 426
#     4  11  25  43  69 105 136 183 227 290 345 420
#     4  12  26  49  72  98 139 188 233 289 351 419
#     4  11  25  45  72  99 134 187 235 279 351 416
#
# _framework density 24.990122
#
# number of rings (size 3 to 8) (size 9 to 14) (size 15 to 20)
#    0.000    0.667    1.667    6.000    4.667    5.333 
#    0.000    0.000    0.000    0.000    0.000    0.000 
#    0.000    0.000    0.000    0.000    0.000    0.000 
#
# Total GULP energy -134120.786427 kJ/mol
# GULP energy per Si atom -5588.366101 kJ/mol
# Density = 2.493324 g / cm^3
# Si number density = 24.990122 Si / 1000 Ang^3
#
#
#
# Elastic Constant Matrix: (Units=GPa)
#
#
# Indices 1 2 3 4 5 6 
#
# 1 119.6327 11.4333 -2.0544 0.0034 -7.4023 0.0116
# 2 11.4333 83.9726 -1.9849 0.0084 9.3147 0.0434
# 3 -2.0544 -1.9849 73.8500 -0.0015 -4.3984 -0.0006
# 4 0.0034 0.0084 -0.0015 29.1773 -0.0033 5.0092
# 5 -7.4023 9.3147 -4.3984 -0.0033 32.2999 0.0010
# 6 0.0116 0.0434 -0.0006 5.0092 0.0010 26.9244
#
#
#
# Elastic Compliance Matrix: (Units=1/GPa)
#
#
# Indices 1 2 3 4 5 6 
#
# 1 0.008654 -0.001441 0.000348 0.000000 0.002446 -0.000001
# 2 -0.001441 0.012543 0.000062 -0.000001 -0.003939 -0.000019
# 3 0.000348 0.000062 0.013667 0.000001 0.001923 0.000000
# 4 0.000000 -0.000001 0.000001 0.035404 0.000004 -0.006587
# 5 0.002446 -0.003939 0.001923 0.000004 0.032918 0.000003
# 6 -0.000001 -0.000019 0.000000 -0.006587 0.000003 0.038366
#
#
# Mechanical properties :
#
#
# Convention : Reuss Voigt Hill
#
# Bulk Modulus (GPa) = 30.48635 32.47149 31.47892
# Shear Modulus (GPa) = 32.35210 35.68440 34.01825
#
# Velocity S-wave (km/s) = 3.60195 3.78291 3.69354
# Velocity P-wave (km/s) = 5.43365 5.66590 5.55099
#
# Compressibility (1/GPa) = 0.03280157
#
# Stress axis : x y z
#
# Youngs Moduli (GPa) = 115.55337 79.72355 73.16988
#
# Poissons Ratio (x) = 0.11492 -0.02544
# Poissons Ratio (y) = 0.16656 -0.00457
# Poissons Ratio (z) = -0.04018 -0.00498
#
# Static dielectric constant tensor:
#      x y z
#    x 1.954240 -0.000010 0.026280 
#    y -0.000010 1.895230 0.000000 
#    z 0.026280 0.000000 2.015850 
# 
# From -- ./inp_files/258576.got.cif
#   From: 2010.05.17/outbox.cif.g08.bks.cpg/sg15_130_cif.got.tgz:258576.got - 2010.06.03 18:47:42.
