data_PCOD9293972
_publ_section_title
;
Structure prediction by ZEFSAII (Michael W. Deem and Ramdas Pophale) SiO2 
 PCOD9293972
Probable space group: C 2/C
;
_chemical_formula_sum "Si O2"
_cell_formula_units_Z 60
_cell_length_a 26.164619
_cell_length_b 24.934450
_cell_length_c 9.618664
_cell_angle_alpha 90.000000
_cell_angle_beta 30.987821
_cell_angle_gamma 90.000000
_cell_volume 3230.833840
_symmetry_space_group_name_H-M "C 2/C"
_symmetry_group_IT_number 15
_symmetry_cell_setting 'monoclinic'
loop_
_space_group_symop_operation_xyz
x,y,z
-x,y,1/2-z
-x,-y,-z
x,-y,1/2+z
1/2+x,1/2+y,z
1/2-x,1/2+y,1/2-z
1/2-x,1/2-y,-z
1/2+x,1/2-y,1/2+z
loop_
_atom_site_type_symbol
_atom_site_label
_atom_site_fract_x
_atom_site_fract_y
_atom_site_fract_z
Si Si1 0.736171 0.959312 0.319189
Si Si2 0.275668 0.400946 0.510050
Si Si3 0.804692 0.207609 0.775696
Si Si4 0.070139 0.977083 0.216754
Si Si5 0.100765 0.436620 0.099620
Si Si6 0.340182 0.846377 0.088125
Si Si7 0.465216 0.153890 0.558730
Si Si8 0.500000 0.227290 0.750000
O O1 0.745124 0.941743 0.458485
O O2 0.702579 0.906962 0.311858
O O3 0.658958 0.008023 0.485951
O O4 0.843973 0.980157 0.021052
O O5 0.306848 0.346709 0.361172
O O6 0.368024 0.425612 0.377213
O O7 0.178918 0.398516 0.834044
O O8 0.742179 0.192482 0.784387
O O9 0.907996 0.234133 0.495863
O O10 0.750000 0.250000 0.000000
O O11 0.000000 0.965858 0.250000
O O12 0.000000 0.000000 0.500000
O O13 0.067472 0.405056 0.314401
O O14 0.000000 0.445480 0.250000
O O15 0.383783 0.828767 0.134530
O O16 0.430815 0.847561 0.765914
O O17 0.477667 0.190232 0.667041
#
# Coordination Sequence:
#
# PCOD9293972 Si02
#       8
#     8   8   8   8   8   8   8   4
#     4  10  23  37  60  94 126 168 212 243 322 375
#     4  10  23  40  60  95 123 167 213 261 313 381
#     4  11  22  44  67  89 126 166 213 274 318 369
#     4  11  22  40  63  88 128 169 205 262 311 371
#     4  11  22  35  61  90 132 169 205 249 312 387
#     4  10  24  42  64  91 133 161 209 270 312 381
#     4  11  23  41  62  96 127 167 208 260 327 378
#     4  12  24  42  70  94 118 174 222 260 330 376
#
# _framework density 18.571057
#
# number of rings (size 3 to 8) (size 9 to 14) (size 15 to 20)
#    0.000    1.333    3.333    2.400    5.600    3.733 
#    0.000    1.333    0.000    0.000    0.000    0.000 
#    0.000    0.000    0.000    0.000    0.000    0.000 
#
# Total GULP energy -167600.904542 kJ/mol
# GULP energy per Si atom -5586.696818 kJ/mol
# Density = 1.852879 g / cm^3
# Si number density = 18.571057 Si / 1000 Ang^3
#
#
#
# Elastic Constant Matrix: (Units=GPa)
#
#
# Indices 1 2 3 4 5 6 
#
# 1 169.5915 66.0997 58.5092 0.0000 -10.7145 0.0000
# 2 66.0997 86.4941 38.7177 0.0000 -10.8451 0.0000
# 3 58.5092 38.7177 101.9650 0.0000 -17.1324 0.0000
# 4 0.0000 0.0000 0.0000 26.8804 0.0000 -4.3896
# 5 -10.7145 -10.8451 -17.1324 0.0000 33.0728 0.0000
# 6 0.0000 0.0000 0.0000 -4.3896 0.0000 17.5392
#
#
#
# Elastic Compliance Matrix: (Units=1/GPa)
#
#
# Indices 1 2 3 4 5 6 
#
# 1 0.009167 -0.005636 -0.003211 0.000000 -0.000542 0.000000
# 2 -0.005636 0.017516 -0.003022 0.000000 0.002353 0.000000
# 3 -0.003211 -0.003022 0.013644 0.000000 0.005036 0.000000
# 4 0.000000 0.000000 0.000000 0.038787 0.000000 0.009707
# 5 -0.000542 0.002353 0.005036 0.000000 0.033441 0.000000
# 6 0.000000 0.000000 0.000000 0.009707 0.000000 0.059445
#
#
# Mechanical properties :
#
#
# Convention : Reuss Voigt Hill
#
# Bulk Modulus (GPa) = 60.28167 76.07820 68.17994
# Shear Modulus (GPa) = 24.84268 28.48009 26.66138
#
# Velocity S-wave (km/s) = 3.66144 3.92034 3.79310
# Velocity P-wave (km/s) = 7.09967 7.84519 7.48172
#
# Compressibility (1/GPa) = 0.01658879
#
# Stress axis : x y z
#
# Youngs Moduli (GPa) = 109.09024 57.09013 73.29487
#
# Poissons Ratio (x) = 0.32175 0.23535
# Poissons Ratio (y) = 0.61482 0.22149
# Poissons Ratio (z) = 0.35029 0.17252
#
# Static dielectric constant tensor:
#      x y z
#    x 1.652150 0.000000 0.009470 
#    y 0.000000 1.652260 0.000000 
#    z 0.009470 0.000000 1.623460 
# 
# From -- ./inp_files/42181.got.cif
#   From: 2010.05.17/outbox.cif.g08.bks.cpg/sg15_22_cif.got.tgz:42181.got - 2010.06.03 18:47:42.
