data_PCOD9293316
_publ_section_title
;
Structure prediction by ZEFSAII (Michael W. Deem and Ramdas Pophale) SiO2 
 PCOD9293316
Probable space group: C 2/C
;
_chemical_formula_sum "Si O2"
_cell_formula_units_Z 36
_cell_length_a 31.790601
_cell_length_b 10.141263
_cell_length_c 15.031101
_cell_angle_alpha 90.000000
_cell_angle_beta 162.905831
_cell_angle_gamma 90.000000
_cell_volume 1424.442021
_symmetry_space_group_name_H-M "C 2/C"
_symmetry_group_IT_number 15
_symmetry_cell_setting 'monoclinic'
loop_
_space_group_symop_operation_xyz
x,y,z
-x,y,1/2-z
-x,-y,-z
x,-y,1/2+z
1/2+x,1/2+y,z
1/2-x,1/2+y,1/2-z
1/2-x,1/2-y,-z
1/2+x,1/2-y,1/2+z
loop_
_atom_site_type_symbol
_atom_site_label
_atom_site_fract_x
_atom_site_fract_y
_atom_site_fract_z
Si Si1 0.250000 0.250000 0.500000
Si Si2 0.878924 0.625258 0.063397
Si Si3 0.604399 0.673147 0.388270
Si Si4 0.749501 0.497246 0.974603
Si Si5 0.469641 0.610119 0.837811
O O1 0.357645 0.249390 0.623918
O O2 0.168641 0.394154 0.299371
O O3 0.934292 0.769567 0.204565
O O4 0.000000 0.556337 0.250000
O O5 0.744846 0.642243 0.728213
O O6 0.825677 0.556010 0.045253
O O7 0.500000 0.737933 0.250000
O O8 0.534452 0.532458 0.217108
O O9 0.650761 0.598279 0.828755
O O10 0.630669 0.379556 0.705024
#
# Coordination Sequence:
#
# PCOD9293316 Si02
#       5
#     4   8   8   8   8
#     4  10  24  42  66 104 142 178 240 300 344 420
#     4  12  25  41  70 108 139 180 241 298 352 428
#     4  11  23  44  70  99 141 194 236 289 363 428
#     4  10  22  45  69  98 136 190 234 292 360 424
#     4  10  22  45  71  95 137 187 242 287 355 428
#
# _framework density 25.273053000000001
#
# number of rings (size 3 to 8) (size 9 to 14) (size 15 to 20)
#    0.000    1.333    2.222    2.667    3.111    0.889 
#    4.000    5.556    0.000    0.000    0.000    0.000 
#    0.000    0.000    0.000    0.000    0.000    0.000 
#
# Total GULP energy -100447.895193 kJ/mol
# GULP energy per Si atom -5580.438622 kJ/mol
# Density = 2.521553 g / cm^3
# Si number density = 25.273053 Si / 1000 Ang^3
#
#
#
# Elastic Constant Matrix: (Units=GPa)
#
#
# Indices 1 2 3 4 5 6 
#
# 1 235.9556 61.7923 52.4137 0.0000 64.2810 0.0000
# 2 61.7923 117.9632 20.7213 0.0000 6.8272 0.0000
# 3 52.4137 20.7213 98.0308 0.0000 12.9886 0.0000
# 4 0.0000 0.0000 0.0000 37.8203 0.0000 -15.2534
# 5 64.2810 6.8272 12.9886 0.0000 54.3891 0.0000
# 6 0.0000 0.0000 0.0000 -15.2534 0.0000 56.0535
#
#
#
# Elastic Compliance Matrix: (Units=1/GPa)
#
#
# Indices 1 2 3 4 5 6 
#
# 1 0.007898 -0.003226 -0.002435 0.000000 -0.008348 0.000000
# 2 -0.003226 0.010147 -0.000781 0.000000 0.002726 0.000000
# 3 -0.002435 -0.000781 0.011642 0.000000 0.000195 0.000000
# 4 0.000000 0.000000 0.000000 0.029700 0.000000 0.008082
# 5 -0.008348 0.002726 0.000195 0.000000 0.027864 0.000000
# 6 0.000000 0.000000 0.000000 0.008082 0.000000 0.020039
#
#
# Mechanical properties :
#
#
# Convention : Reuss Voigt Hill
#
# Bulk Modulus (GPa) = 59.51498 80.20045 69.85772
# Shear Modulus (GPa) = 39.75346 50.78741 45.27044
#
# Velocity S-wave (km/s) = 3.97036 4.48766 4.23691
# Velocity P-wave (km/s) = 6.67969 7.65863 7.18585
#
# Compressibility (1/GPa) = 0.01680249
#
# Stress axis : x y z
#
# Youngs Moduli (GPa) = 126.61209 98.55423 85.89707
#
# Poissons Ratio (x) = 0.31798 0.20914
# Poissons Ratio (y) = 0.40850 0.06708
# Poissons Ratio (z) = 0.30827 0.07696
#
# Static dielectric constant tensor:
#      x y z
#    x 1.970750 0.000000 0.017030 
#    y 0.000000 2.094010 0.000000 
#    z 0.017030 0.000000 2.119160 
# 
# From -- ./inp_files/181685.got.cif
#   From: 2010.05.17/outbox.cif.g08.bks.cpg/sg15_91_cif.got.tgz:181685.got - 2010.06.03 18:47:42.
