data_PCOD9293279
_publ_section_title
;
Structure prediction by ZEFSAII (Michael W. Deem and Ramdas Pophale) SiO2 
 PCOD9293279
Probable space group: C 2/C
;
_chemical_formula_sum "Si O2"
_cell_formula_units_Z 44
_cell_length_a 11.524223
_cell_length_b 9.095476
_cell_length_c 21.498750
_cell_angle_alpha 90.000000
_cell_angle_beta 59.798574
_cell_angle_gamma 90.000000
_cell_volume 1947.582464
_symmetry_space_group_name_H-M "C 2/C"
_symmetry_group_IT_number 15
_symmetry_cell_setting 'monoclinic'
loop_
_space_group_symop_operation_xyz
x,y,z
-x,y,1/2-z
-x,-y,-z
x,-y,1/2+z
1/2+x,1/2+y,z
1/2-x,1/2+y,1/2-z
1/2-x,1/2-y,-z
1/2+x,1/2-y,1/2+z
loop_
_atom_site_type_symbol
_atom_site_label
_atom_site_fract_x
_atom_site_fract_y
_atom_site_fract_z
Si Si1 0.000000 0.070903 0.250000
Si Si2 0.616997 0.122541 0.460958
Si Si3 0.752627 0.770302 0.188610
Si Si4 0.390440 0.422868 0.959376
Si Si5 0.181446 0.946678 0.893901
Si Si6 0.862471 0.207465 0.794808
O O1 0.912892 0.945817 0.309758
O O2 0.881679 0.178746 0.261083
O O3 0.644705 0.174780 0.382208
O O4 0.586670 0.265445 0.512026
O O5 0.763952 0.081129 0.448293
O O6 0.500000 0.000000 0.500000
O O7 0.729588 0.916612 0.153882
O O8 0.808931 0.817227 0.239931
O O9 0.539544 0.459863 0.896154
O O10 0.351113 0.533033 0.025270
O O11 0.253839 0.794891 0.862010
O O12 0.000000 0.299413 0.750000
#
# Coordination Sequence:
#
# PCOD9293279 Si02
#       6
#     4   8   8   8   8   8
#     4  10  26  42  64  98 132 168 222 278 316 406
#     4  10  23  39  69  97 130 172 220 278 326 391
#     4  11  24  43  65  99 131 175 220 271 339 386
#     4   9  22  44  64  98 130 173 223 274 328 395
#     4  10  22  45  68  91 138 176 218 275 335 392
#     4  10  25  41  64  96 131 176 220 272 324 402
#
# _framework density 22.592113000000001
#
# number of rings (size 3 to 8) (size 9 to 14) (size 15 to 20)
#    0.545    1.455    0.000    1.091   11.455    0.000 
#    0.000    2.727    0.000    0.000    0.000    0.000 
#    0.000    0.000    0.000    0.000    0.000    0.000 
#
# Total GULP energy -122634.285944 kJ/mol
# GULP energy per Si atom -5574.285725 kJ/mol
# Density = 2.254069 g / cm^3
# Si number density = 22.592113 Si / 1000 Ang^3
#
#
#
# Elastic Constant Matrix: (Units=GPa)
#
#
# Indices 1 2 3 4 5 6 
#
# 1 79.6332 48.9565 24.2684 0.0000 -17.0880 0.0000
# 2 48.9565 78.8184 48.3167 0.0000 -17.1626 0.0000
# 3 24.2684 48.3167 83.0263 0.0000 -11.5178 0.0000
# 4 0.0000 0.0000 0.0000 40.9259 0.0000 -19.8777
# 5 -17.0880 -17.1626 -11.5178 0.0000 17.3834 0.0000
# 6 0.0000 0.0000 0.0000 -19.8777 0.0000 37.8462
#
#
#
# Elastic Compliance Matrix: (Units=1/GPa)
#
#
# Indices 1 2 3 4 5 6 
#
# 1 0.021991 -0.012933 0.002561 0.000000 0.010545 0.000000
# 2 -0.012933 0.030453 -0.012702 0.000000 0.008937 0.000000
# 3 0.002561 -0.012702 0.019048 0.000000 0.002598 0.000000
# 4 0.000000 0.000000 0.000000 0.032802 0.000000 0.017229
# 5 0.010545 0.008937 0.002598 0.000000 0.078437 0.000000
# 6 0.000000 0.000000 0.000000 0.017229 0.000000 0.035472
#
#
# Mechanical properties :
#
#
# Convention : Reuss Voigt Hill
#
# Bulk Modulus (GPa) = 39.45628 53.84013 46.64820
# Shear Modulus (GPa) = 18.32861 27.22685 22.77773
#
# Velocity S-wave (km/s) = 2.85139 3.47529 3.17869
# Velocity P-wave (km/s) = 5.32383 6.32350 5.84507
#
# Compressibility (1/GPa) = 0.02534451
#
# Stress axis : x y z
#
# Youngs Moduli (GPa) = 45.47361 32.83767 52.49937
#
# Poissons Ratio (x) = 0.42469 -0.13447
# Poissons Ratio (y) = 0.58811 0.66684
# Poissons Ratio (z) = -0.11647 0.41710
#
# Static dielectric constant tensor:
#      x y z
#    x 1.867640 0.000000 -0.001700 
#    y 0.000000 1.860870 0.000000 
#    z -0.001700 0.000000 1.920710 
# 
# From -- ./inp_files/267982.got.cif
#   From: 2010.05.17/outbox.cif.g08.bks.cpg/sg15_134_cif.got.tgz:267982.got - 2010.06.03 18:47:42.
