data_PCOD9293762
_publ_section_title
;
Structure prediction by ZEFSAII (Michael W. Deem and Ramdas Pophale) SiO2 
 PCOD9293762
Probable space group: C 2/C
;
_chemical_formula_sum "Si O2"
_cell_formula_units_Z 60
_cell_length_a 17.183556
_cell_length_b 12.255264
_cell_length_c 18.912879
_cell_angle_alpha 90.000000
_cell_angle_beta 40.370734
_cell_angle_gamma 90.000000
_cell_volume 2579.811223
_symmetry_space_group_name_H-M "C 2/C"
_symmetry_group_IT_number 15
_symmetry_cell_setting 'monoclinic'
loop_
_space_group_symop_operation_xyz
x,y,z
-x,y,1/2-z
-x,-y,-z
x,-y,1/2+z
1/2+x,1/2+y,z
1/2-x,1/2+y,1/2-z
1/2-x,1/2-y,-z
1/2+x,1/2-y,1/2+z
loop_
_atom_site_type_symbol
_atom_site_label
_atom_site_fract_x
_atom_site_fract_y
_atom_site_fract_z
Si Si1 0.839036 0.449328 0.775896
Si Si2 0.441100 0.790765 0.920519
Si Si3 0.127358 0.450077 0.890101
Si Si4 0.104401 0.739789 0.509503
Si Si5 0.282231 0.442956 0.388463
Si Si6 0.797679 0.408552 0.435628
Si Si7 0.935750 0.882033 0.544035
Si Si8 0.000000 0.816711 0.250000
O O1 0.844037 0.518806 0.701212
O O2 0.857980 0.513466 0.834987
O O3 0.707994 0.395782 0.862305
O O4 0.941768 0.364689 0.677933
O O5 0.413703 0.750021 0.860774
O O6 0.330461 0.860627 0.025680
O O7 0.463822 0.688043 0.954285
O O8 0.242520 0.475723 0.856536
O O9 0.114873 0.325166 0.927806
O O10 0.000000 0.500000 0.000000
O O11 0.114373 0.653224 0.568762
O O12 0.214753 0.821537 0.451689
O O13 0.986653 0.813821 0.576166
O O14 0.285417 0.510927 0.459336
O O15 0.404226 0.390505 0.278125
O O16 0.000000 0.000000 0.500000
#
# Coordination Sequence:
#
# PCOD9293762 Si02
#       8
#     8   8   8   8   8   8   8   4
#     4  12  24  43  77 104 140 201 250 301 384 447
#     4  12  25  47  68 107 143 187 248 309 363 459
#     4  11  23  47  71 102 144 186 248 304 360 446
#     4  10  22  47  69 106 152 192 234 320 371 438
#     4  11  24  45  70 100 147 183 240 311 368 449
#     4  10  23  44  75 103 152 189 243 306 385 455
#     4  12  25  45  74 107 151 195 256 318 372 455
#     4  12  26  38  72  98 142 190 226 292 386 434
#
# _framework density 23.257515999999999
#
# number of rings (size 3 to 8) (size 9 to 14) (size 15 to 20)
#    0.000    0.800    4.000    2.800    1.867    0.000 
#    4.800    0.000    5.867    0.000    0.000    0.000 
#    0.000    0.000    0.000    0.000    0.000    0.000 
#
# Total GULP energy -167053.394775 kJ/mol
# GULP energy per Si atom -5568.446493 kJ/mol
# Density = 2.320458 g / cm^3
# Si number density = 23.257516 Si / 1000 Ang^3
#
#
#
# Elastic Constant Matrix: (Units=GPa)
#
#
# Indices 1 2 3 4 5 6 
#
# 1 60.0105 15.8563 22.3921 0.0000 -5.3452 0.0000
# 2 15.8563 79.9074 14.6275 0.0000 -14.0365 0.0000
# 3 22.3921 14.6275 75.2025 0.0000 -8.9905 0.0000
# 4 0.0000 0.0000 0.0000 63.3075 0.0000 47.2821
# 5 -5.3452 -14.0365 -8.9905 0.0000 48.2781 0.0000
# 6 0.0000 0.0000 0.0000 47.2821 0.0000 100.8635
#
#
#
# Elastic Compliance Matrix: (Units=1/GPa)
#
#
# Indices 1 2 3 4 5 6 
#
# 1 0.019376 -0.002835 -0.005175 0.000000 0.000357 0.000000
# 2 -0.002835 0.013953 -0.001455 0.000000 0.003472 0.000000
# 3 -0.005175 -0.001455 0.015344 0.000000 0.001861 0.000000
# 4 0.000000 0.000000 0.000000 0.024306 0.000000 -0.011394
# 5 0.000357 0.003472 0.001861 0.000000 0.022109 0.000000
# 6 0.000000 0.000000 0.000000 -0.011394 0.000000 0.015255
#
#
# Mechanical properties :
#
#
# Convention : Reuss Voigt Hill
#
# Bulk Modulus (GPa) = 33.62102 35.65245 34.63673
# Shear Modulus (GPa) = 35.92303 53.30613 44.61458
#
# Velocity S-wave (km/s) = 3.93437 4.79267 4.38458
# Velocity P-wave (km/s) = 5.92676 6.78152 6.36849
#
# Compressibility (1/GPa) = 0.02974330
#
# Stress axis : x y z
#
# Youngs Moduli (GPa) = 51.61136 71.66815 65.17254
#
# Poissons Ratio (x) = 0.20316 0.33728
# Poissons Ratio (y) = 0.14630 0.09482
# Poissons Ratio (z) = 0.26710 0.10427
#
# Static dielectric constant tensor:
#      x y z
#    x 1.205930 0.000000 -0.168000 
#    y 0.000000 1.268520 0.000000 
#    z -0.168000 0.000000 1.815110 
# 
# From -- ./inp_files/248745.got.cif
#   From: 2010.05.17/outbox.cif.g08.bks.cpg/sg15_125_cif.got.tgz:248745.got - 2010.06.03 18:47:42.
