data_PCOD9293677
_publ_section_title
;
Structure prediction by ZEFSAII (Michael W. Deem and Ramdas Pophale) SiO2 
 PCOD9293677
Probable space group: C 2/C
;
_chemical_formula_sum "Si O2"
_cell_formula_units_Z 32
_cell_length_a 5.390117
_cell_length_b 15.212614
_cell_length_c 14.430476
_cell_angle_alpha 90.000000
_cell_angle_beta 102.226467
_cell_angle_gamma 90.000000
_cell_volume 1156.428187
_symmetry_space_group_name_H-M "C 2/C"
_symmetry_group_IT_number 15
_symmetry_cell_setting 'monoclinic'
loop_
_space_group_symop_operation_xyz
x,y,z
-x,y,1/2-z
-x,-y,-z
x,-y,1/2+z
1/2+x,1/2+y,z
1/2-x,1/2+y,1/2-z
1/2-x,1/2-y,-z
1/2+x,1/2-y,1/2+z
loop_
_atom_site_type_symbol
_atom_site_label
_atom_site_fract_x
_atom_site_fract_y
_atom_site_fract_z
Si Si1 0.836037 0.130322 0.821269
Si Si2 0.875615 0.150284 0.466143
Si Si3 0.458376 0.009047 0.107639
Si Si4 0.318947 0.183643 0.367151
O O1 0.000000 0.092545 0.750000
O O2 0.588124 0.081305 0.843279
O O3 0.786619 0.234108 0.797077
O O4 0.023485 0.130236 0.924623
O O5 0.595254 0.192618 0.438724
O O6 0.094359 0.192099 0.422214
O O7 0.812449 0.058247 0.409298
O O8 0.652970 0.082205 0.163595
O O9 0.500000 0.000000 0.000000
#
# Coordination Sequence:
#
# PCOD9293677 Si02
#       4
#     8   8   8   8
#     4  12  24  44  69 111 141 180 236 309 365 412
#     4  10  22  46  72  94 137 186 239 280 342 436
#     4  10  23  43  75  98 135 191 245 278 352 437
#     4  10  24  44  72  98 135 189 241 279 345 441
#
# _framework density 27.671410999999999
#
# number of rings (size 3 to 8) (size 9 to 14) (size 15 to 20)
#    1.500    0.000    2.500    2.250    0.000    0.000 
#    4.500   11.250    0.000    0.000    0.000    0.000 
#    0.000    0.000    0.000    0.000    0.000    0.000 
#
# Total GULP energy -89425.168595 kJ/mol
# GULP energy per Si atom -5589.073037 kJ/mol
# Density = 2.760843 g / cm^3
# Si number density = 27.671411 Si / 1000 Ang^3
#
#
#
# Elastic Constant Matrix: (Units=GPa)
#
#
# Indices 1 2 3 4 5 6 
#
# 1 160.9690 26.3536 45.1489 0.0000 -39.7633 0.0000
# 2 26.3536 184.2075 29.6863 0.0000 -31.6563 0.0000
# 3 45.1489 29.6863 133.6607 0.0000 -37.6384 0.0000
# 4 0.0000 0.0000 0.0000 6.6609 0.0000 -20.7863
# 5 -39.7633 -31.6563 -37.6384 0.0000 60.4082 0.0000
# 6 0.0000 0.0000 0.0000 -20.7863 0.0000 46.7797
#
#
#
# Elastic Compliance Matrix: (Units=1/GPa)
#
#
# Indices 1 2 3 4 5 6 
#
# 1 0.007637 -0.000168 -0.001397 0.000000 0.004068 0.000000
# 2 -0.000168 0.006002 -0.000511 0.000000 0.002716 0.000000
# 3 -0.001397 -0.000511 0.009378 0.000000 0.004656 0.000000
# 4 0.000000 0.000000 0.000000 -0.388288 0.000000 -0.172534
# 5 0.004068 0.002716 0.004656 0.000000 0.023556 0.000000
# 6 0.000000 0.000000 0.000000 -0.172534 0.000000 -0.055288
#
#
# Mechanical properties :
#
#
# Convention : Reuss Voigt Hill
#
# Bulk Modulus (GPa) = 53.01094 75.69053 64.35074
# Shear Modulus (GPa) = -12.93453 47.94631 17.50589
#
# Velocity S-wave (km/s) = -2.16437 4.16709 2.51795
# Velocity P-wave (km/s) = 3.59902 7.11095 5.63553
#
# Compressibility (1/GPa) = 0.01886403
#
# Stress axis : x y z
#
# Youngs Moduli (GPa) = 130.94764 166.61484 106.63230
#
# Poissons Ratio (x) = 0.02804 0.14891
# Poissons Ratio (y) = 0.02204 0.05453
# Poissons Ratio (z) = 0.18287 0.08521
#
# Static dielectric constant tensor:
#      x y z
#    x 2.200490 0.000000 0.047790 
#    y 0.000000 2.474380 0.000000 
#    z 0.047790 0.000000 2.067430 
# 
# From -- ./inp_files/184000.got.cif
#   From: 2010.05.17/outbox.cif.g08.bks.cpg/sg15_92_cif.got.tgz:184000.got - 2010.06.03 18:47:42.
