data_PCOD9293456
_publ_section_title
;
Structure prediction by ZEFSAII (Michael W. Deem and Ramdas Pophale) SiO2 
 PCOD9293456
Probable space group: C 2/C
;
_chemical_formula_sum "Si O2"
_cell_formula_units_Z 32
_cell_length_a 20.405227
_cell_length_b 5.260661
_cell_length_c 31.266430
_cell_angle_alpha 90.000000
_cell_angle_beta 160.365452
_cell_angle_gamma 90.000000
_cell_volume 1127.780511
_symmetry_space_group_name_H-M "C 2/C"
_symmetry_group_IT_number 15
_symmetry_cell_setting 'monoclinic'
loop_
_space_group_symop_operation_xyz
x,y,z
-x,y,1/2-z
-x,-y,-z
x,-y,1/2+z
1/2+x,1/2+y,z
1/2-x,1/2+y,1/2-z
1/2-x,1/2-y,-z
1/2+x,1/2-y,1/2+z
loop_
_atom_site_type_symbol
_atom_site_label
_atom_site_fract_x
_atom_site_fract_y
_atom_site_fract_z
Si Si1 0.168846 0.918994 0.739182
Si Si2 0.871682 0.581387 0.228851
Si Si3 0.768400 0.826610 0.460644
Si Si4 0.585431 0.096135 0.506810
O O1 0.174795 0.666272 0.771943
O O2 0.389591 0.920037 0.857641
O O3 0.992728 0.915987 0.597633
O O4 0.377828 0.661786 0.760178
O O5 0.695984 0.646353 0.088236
O O6 0.087399 0.516574 0.344906
O O7 0.750000 0.750000 0.500000
O O8 0.762562 0.591194 0.423827
O O9 0.500000 0.000000 0.500000
#
# Coordination Sequence:
#
# PCOD9293456 Si02
#       4
#     8   8   8   8
#     4  10  22  45  77 118 160 210 271 337 408 492
#     4  10  22  47  75 116 160 208 267 341 416 490
#     4  10  23  46  78 116 159 211 269 337 410 489
#     4  10  23  46  78 116 159 211 269 337 410 489
#
# _framework density 28.374316
#
# number of rings (size 3 to 8) (size 9 to 14) (size 15 to 20)
#    0.000    2.000    0.000    1.500    0.000    8.000 
#    0.000   60.000    0.000   24.000    0.000    0.000 
#    0.000    0.000    0.000    0.000    0.000    0.000 
#
# Total GULP energy -89612.689699 kJ/mol
# GULP energy per Si atom -5600.793106 kJ/mol
# Density = 2.830973 g / cm^3
# Si number density = 28.374316 Si / 1000 Ang^3
#
#
#
# Elastic Constant Matrix: (Units=GPa)
#
#
# Indices 1 2 3 4 5 6 
#
# 1 143.4402 92.1381 39.2013 -0.0174 1.6496 -0.0114
# 2 92.1381 220.6227 96.8576 -0.1338 19.8449 0.0408
# 3 39.2013 96.8576 275.6950 -0.1675 17.8854 0.0389
# 4 -0.0174 -0.1338 -0.1675 56.1715 0.0062 0.8294
# 5 1.6496 19.8449 17.8854 0.0062 58.7705 0.0151
# 6 -0.0114 0.0408 0.0389 0.8294 0.0151 89.0186
#
#
#
# Elastic Compliance Matrix: (Units=1/GPa)
#
#
# Indices 1 2 3 4 5 6 
#
# 1 0.009598 -0.004112 0.000007 -0.000007 0.001117 0.000003
# 2 -0.004112 0.007214 -0.001836 0.000011 -0.001762 -0.000003
# 3 0.000007 -0.001836 0.004316 0.000009 -0.000694 -0.000001
# 4 -0.000007 0.000011 0.000009 0.017805 -0.000008 -0.000166
# 5 0.001117 -0.001762 -0.000694 -0.000008 0.017790 -0.000002
# 6 0.000003 -0.000003 -0.000001 -0.000166 -0.000002 0.011235
#
#
# Mechanical properties :
#
#
# Convention : Reuss Voigt Hill
#
# Bulk Modulus (GPa) = 108.13165 121.79466 114.96315
# Shear Modulus (GPa) = 60.29770 68.22952 64.26361
#
# Velocity S-wave (km/s) = 4.61486 4.90902 4.76421
# Velocity P-wave (km/s) = 8.16012 8.66883 8.41832
#
# Compressibility (1/GPa) = 0.00924799
#
# Stress axis : x y z
#
# Youngs Moduli (GPa) = 104.18730 138.61343 231.69547
#
# Poissons Ratio (x) = 0.57000 -0.00173
# Poissons Ratio (y) = 0.42844 0.42528
# Poissons Ratio (z) = -0.00078 0.25443
#
# Static dielectric constant tensor:
#      x y z
#    x 2.279420 -0.000020 -0.021280 
#    y -0.000020 2.267480 0.000140 
#    z -0.021280 0.000140 2.306430 
# 
# From -- ./inp_files/102374.got.cif
#   From: 2010.05.17/outbox.cif.g08.bks.cpg/sg15_52_cif.got.tgz:102374.got - 2010.06.03 18:47:42.
