data_PCOD9293917
_publ_section_title
;
Structure prediction by ZEFSAII (Michael W. Deem and Ramdas Pophale) SiO2 
 PCOD9293917
Probable space group: C 2/C
;
_chemical_formula_sum "Si O2"
_cell_formula_units_Z 60
_cell_length_a 22.855100
_cell_length_b 24.758876
_cell_length_c 9.432930
_cell_angle_alpha 90.000000
_cell_angle_beta 146.560765
_cell_angle_gamma 90.000000
_cell_volume 2941.395882
_symmetry_space_group_name_H-M "C 2/C"
_symmetry_group_IT_number 15
_symmetry_cell_setting 'monoclinic'
loop_
_space_group_symop_operation_xyz
x,y,z
-x,y,1/2-z
-x,-y,-z
x,-y,1/2+z
1/2+x,1/2+y,z
1/2-x,1/2+y,1/2-z
1/2-x,1/2-y,-z
1/2+x,1/2-y,1/2+z
loop_
_atom_site_type_symbol
_atom_site_label
_atom_site_fract_x
_atom_site_fract_y
_atom_site_fract_z
Si Si1 0.241117 0.196156 0.885156
Si Si2 0.014679 0.789601 0.990644
Si Si3 0.419897 0.834385 0.924909
Si Si4 0.228857 0.196439 0.544013
Si Si5 0.168887 0.936389 0.683740
Si Si6 0.072806 0.026221 0.273711
Si Si7 0.862677 0.374386 0.105416
Si Si8 0.000000 0.154067 0.750000
O O1 0.117185 0.181947 0.629772
O O2 0.274029 0.204673 0.791467
O O3 0.250000 0.250000 0.000000
O O4 0.322631 0.155879 0.123288
O O5 0.028985 0.725141 0.997576
O O6 0.027641 0.806918 0.178218
O O7 0.898773 0.809091 0.710376
O O8 0.371993 0.835819 0.985993
O O9 0.514411 0.877545 0.102851
O O10 0.250000 0.250000 0.500000
O O11 0.293470 0.151535 0.589857
O O12 0.149337 0.944452 0.814766
O O13 0.097309 0.884799 0.492152
O O14 0.130462 0.982492 0.493809
O O15 0.293530 0.925110 0.916809
O O16 0.000000 0.055025 0.250000
O O17 0.000000 0.000000 0.000000
#
# Coordination Sequence:
#
# PCOD9293917 Si02
#       8
#     8   8   8   8   8   8   8   4
#     4  10  23  36  53  77 111 168 229 263 307 353
#     4  11  23  35  59  88 129 175 220 269 310 361
#     4  10  23  42  60  79 129 184 226 264 312 355
#     4  12  22  35  57  84 124 168 217 273 317 365
#     4  11  21  41  66 103 126 167 203 261 346 411
#     4   9  18  38  69  95 137 160 186 257 356 426
#     4  11  23  40  64  86 124 171 226 265 314 382
#     4  12  22  34  62  96 136 166 218 262 302 400
#
# _framework density 20.398478000000001
#
# number of rings (size 3 to 8) (size 9 to 14) (size 15 to 20)
#    0.000    1.333    4.667    2.800    7.467    0.533 
#    2.400    1.333    0.000    3.200    0.000    0.000 
#    0.000    0.000    0.000    0.000    0.000    0.000 
#
# Total GULP energy -167080.507674 kJ/mol
# GULP energy per Si atom -5569.350256 kJ/mol
# Density = 2.035205 g / cm^3
# Si number density = 20.398478 Si / 1000 Ang^3
#
#
#
# Elastic Constant Matrix: (Units=GPa)
#
#
# Indices 1 2 3 4 5 6 
#
# 1 140.9825 34.8325 72.8698 0.0000 -25.5095 0.0000
# 2 34.8325 38.8379 20.1563 0.0000 -5.6255 0.0000
# 3 72.8698 20.1563 122.6600 0.0000 9.7233 0.0000
# 4 0.0000 0.0000 0.0000 28.7789 0.0000 6.3004
# 5 -25.5095 -5.6255 9.7233 0.0000 49.7229 0.0000
# 6 0.0000 0.0000 0.0000 6.3004 0.0000 26.1165
#
#
#
# Elastic Compliance Matrix: (Units=1/GPa)
#
#
# Indices 1 2 3 4 5 6 
#
# 1 0.014697 -0.007780 -0.008106 0.000000 0.008245 0.000000
# 2 -0.007780 0.033138 -0.000817 0.000000 -0.000083 0.000000
# 3 -0.008106 -0.000817 0.013651 0.000000 -0.006921 0.000000
# 4 0.000000 0.000000 0.000000 0.036685 0.000000 -0.008850
# 5 0.008245 -0.000083 -0.006921 0.000000 0.025686 0.000000
# 6 0.000000 0.000000 0.000000 -0.008850 0.000000 0.040425
#
#
# Mechanical properties :
#
#
# Convention : Reuss Voigt Hill
#
# Bulk Modulus (GPa) = 35.61317 62.02194 48.81755
# Shear Modulus (GPa) = 24.14895 32.56511 28.35703
#
# Velocity S-wave (km/s) = 3.44446 3.99989 3.73252
# Velocity P-wave (km/s) = 5.77198 7.19746 6.52377
#
# Compressibility (1/GPa) = 0.02807950
#
# Stress axis : x y z
#
# Youngs Moduli (GPa) = 68.04047 30.17712 73.25301
#
# Poissons Ratio (x) = 0.23478 0.59382
# Poissons Ratio (y) = 0.52936 0.05984
# Poissons Ratio (z) = 0.55156 0.02465
#
# Static dielectric constant tensor:
#      x y z
#    x 1.858370 0.000000 -0.018600 
#    y 0.000000 1.750610 0.000000 
#    z -0.018600 0.000000 1.845810 
# 
# From -- ./inp_files/59157.got.cif
#   From: 2010.05.17/outbox.cif.g08.bks.cpg/sg15_30_cif.got.tgz:59157.got - 2010.06.03 18:47:42.
