data_PCOD9293082
_publ_section_title
;
Structure prediction by ZEFSAII (Michael W. Deem and Ramdas Pophale) SiO2 
 PCOD9293082
Probable space group: C 2/C
;
_chemical_formula_sum "Si O2"
_cell_formula_units_Z 44
_cell_length_a 18.169669
_cell_length_b 4.878805
_cell_length_c 22.793107
_cell_angle_alpha 90.000000
_cell_angle_beta 122.334111
_cell_angle_gamma 90.000000
_cell_volume 1707.228704
_symmetry_space_group_name_H-M "C 2/C"
_symmetry_group_IT_number 15
_symmetry_cell_setting 'monoclinic'
loop_
_space_group_symop_operation_xyz
x,y,z
-x,y,1/2-z
-x,-y,-z
x,-y,1/2+z
1/2+x,1/2+y,z
1/2-x,1/2+y,1/2-z
1/2-x,1/2-y,-z
1/2+x,1/2-y,1/2+z
loop_
_atom_site_type_symbol
_atom_site_label
_atom_site_fract_x
_atom_site_fract_y
_atom_site_fract_z
Si Si1 0.964714 0.105552 0.612403
Si Si2 0.000000 0.167024 0.250000
Si Si3 0.156539 0.405217 0.446556
Si Si4 0.740359 0.816804 0.090847
Si Si5 0.679284 0.728376 0.288620
Si Si6 0.142094 0.063575 0.140939
O O1 0.994054 0.022560 0.690213
O O2 0.883271 0.899222 0.567925
O O3 0.047525 0.065100 0.606200
O O4 0.930344 0.410093 0.591687
O O5 0.089335 0.336029 0.279213
O O6 0.213161 0.556066 0.419570
O O7 0.212146 0.472265 0.528304
O O8 0.652278 0.749574 0.088334
O O9 0.803384 0.950236 0.166797
O O10 0.659089 0.705767 0.210971
O O11 0.772960 0.872250 0.330653
#
# Coordination Sequence:
#
# PCOD9293082 Si02
#       6
#     8   4   8   8   8   8
#     4  11  26  46  69 108 137 188 235 292 355 420
#     4  10  22  44  72  96 144 178 242 292 344 430
#     4  11  27  47  71 102 144 191 238 283 354 428
#     4  11  25  44  71  99 145 188 235 293 349 429
#     4  11  22  44  65 107 134 187 235 298 358 418
#     4  11  25  41  72 101 146 179 236 299 359 415
#
# _framework density 25.772765
#
# number of rings (size 3 to 8) (size 9 to 14) (size 15 to 20)
#    0.000    1.091    3.636    1.091    5.091    3.636 
#    0.000    0.000    0.000    0.000    0.000    0.000 
#    0.000    0.000    0.000    0.000    0.000    0.000 
#
# Total GULP energy -123133.143003 kJ/mol
# GULP energy per Si atom -5596.961046 kJ/mol
# Density = 2.571410 g / cm^3
# Si number density = 25.772765 Si / 1000 Ang^3
#
#
#
# Elastic Constant Matrix: (Units=GPa)
#
#
# Indices 1 2 3 4 5 6 
#
# 1 209.0188 13.5503 24.3280 -0.0006 4.1716 0.0003
# 2 13.5503 46.6780 4.5711 -0.0017 1.5234 0.0029
# 3 24.3280 4.5711 63.3338 0.0000 2.9243 0.0001
# 4 -0.0006 -0.0017 0.0000 27.5075 -0.0003 10.0682
# 5 4.1716 1.5234 2.9243 -0.0003 44.3198 -0.0007
# 6 0.0003 0.0029 0.0001 10.0682 -0.0007 31.2666
#
#
#
# Elastic Compliance Matrix: (Units=1/GPa)
#
#
# Indices 1 2 3 4 5 6 
#
# 1 0.005089 -0.001286 -0.001848 0.000000 -0.000313 0.000000
# 2 -0.001286 0.021919 -0.001062 0.000002 -0.000562 -0.000003
# 3 -0.001848 -0.001062 0.016617 0.000000 -0.000886 0.000000
# 4 0.000000 0.000002 0.000000 0.041211 0.000000 -0.013270
# 5 -0.000313 -0.000562 -0.000886 0.000000 0.022671 0.000001
# 6 0.000000 -0.000003 0.000000 -0.013270 0.000001 0.036256
#
#
# Mechanical properties :
#
#
# Convention : Reuss Voigt Hill
#
# Bulk Modulus (GPa) = 28.38225 44.88104 36.63164
# Shear Modulus (GPa) = 30.50678 39.05752 34.78215
#
# Velocity S-wave (km/s) = 3.44420 3.89711 3.67763
# Velocity P-wave (km/s) = 5.18200 6.14019 5.68133
#
# Compressibility (1/GPa) = 0.03523329
#
# Stress axis : x y z
#
# Youngs Moduli (GPa) = 196.50554 45.62236 60.18082
#
# Poissons Ratio (x) = 0.05868 0.11118
# Poissons Ratio (y) = 0.25273 0.06391
# Poissons Ratio (z) = 0.36304 0.04845
#
# Static dielectric constant tensor:
#      x y z
#    x 2.007400 0.000000 0.006960 
#    y 0.000000 2.104340 0.000000 
#    z 0.006960 0.000000 2.060940 
# 
# From -- ./inp_files/246410.got.cif
#   From: 2010.05.17/outbox.cif.g08.bks.cpg/sg15_124_cif.got.tgz:246410.got - 2010.06.03 18:47:42.
