data_PCOD9293734
_publ_section_title
;
Structure prediction by ZEFSAII (Michael W. Deem and Ramdas Pophale) SiO2 
 PCOD9293734
Probable space group: C 2/C
;
_chemical_formula_sum "Si O2"
_cell_formula_units_Z 40
_cell_length_a 12.753213
_cell_length_b 15.081293
_cell_length_c 11.083330
_cell_angle_alpha 90.000000
_cell_angle_beta 134.331482
_cell_angle_gamma 90.000000
_cell_volume 1524.832241
_symmetry_space_group_name_H-M "C 2/C"
_symmetry_group_IT_number 15
_symmetry_cell_setting 'monoclinic'
loop_
_space_group_symop_operation_xyz
x,y,z
-x,y,1/2-z
-x,-y,-z
x,-y,1/2+z
1/2+x,1/2+y,z
1/2-x,1/2+y,1/2-z
1/2-x,1/2-y,-z
1/2+x,1/2-y,1/2+z
loop_
_atom_site_type_symbol
_atom_site_label
_atom_site_fract_x
_atom_site_fract_y
_atom_site_fract_z
Si Si1 0.581700 0.074484 0.641507
Si Si2 0.169640 0.828086 0.509874
Si Si3 0.207560 0.333223 0.622500
Si Si4 0.364354 0.653594 0.872665
Si Si5 0.808204 0.970891 0.516739
O O1 0.459861 0.149067 0.550448
O O2 0.726964 0.111233 0.692342
O O3 0.651537 0.038125 0.821035
O O4 0.500000 0.000000 0.500000
O O5 0.250000 0.750000 0.500000
O O6 0.256450 0.841325 0.706378
O O7 0.000049 0.807671 0.091309
O O8 0.159067 0.926392 0.444713
O O9 0.219450 0.227848 0.614120
O O10 0.298042 0.407123 0.623387
O O11 0.414275 0.577083 0.004862
#
# Coordination Sequence:
#
# PCOD9293734 Si02
#       5
#     8   8   8   8   8
#     4  10  22  46  81 115 167 211 275 338 423 495
#     4  12  28  51  78 119 169 218 275 349 422 501
#     4  12  23  48  78 117 161 214 276 342 421 497
#     4  10  25  47  80 123 164 209 280 344 412 507
#     4  10  25  48  84 116 161 220 280 340 414 509
#
# _framework density 26.232392999999998
#
# number of rings (size 3 to 8) (size 9 to 14) (size 15 to 20)
#    1.200    0.000    2.000    3.000    0.000    6.400 
#    7.200    3.000    0.000    0.000    0.000    0.000 
#    0.000    0.000    0.000    0.000    0.000    0.000 
#
# Total GULP energy -111749.503731 kJ/mol
# GULP energy per Si atom -5587.475187 kJ/mol
# Density = 2.617269 g / cm^3
# Si number density = 26.232393 Si / 1000 Ang^3
#
#
#
# Elastic Constant Matrix: (Units=GPa)
#
#
# Indices 1 2 3 4 5 6 
#
# 1 132.7439 49.6766 36.6332 0.0000 14.1216 0.0000
# 2 49.6766 193.5790 28.3950 0.0000 -20.4836 0.0000
# 3 36.6332 28.3950 130.8465 0.0000 21.0656 0.0000
# 4 0.0000 0.0000 0.0000 42.3842 0.0000 -1.5629
# 5 14.1216 -20.4836 21.0656 0.0000 57.2252 0.0000
# 6 0.0000 0.0000 0.0000 -1.5629 0.0000 55.1831
#
#
#
# Elastic Compliance Matrix: (Units=1/GPa)
#
#
# Indices 1 2 3 4 5 6 
#
# 1 0.009139 -0.002369 -0.001642 0.000000 -0.002498 0.000000
# 2 -0.002369 0.006304 -0.001235 0.000000 0.003296 0.000000
# 3 -0.001642 -0.001235 0.008904 0.000000 -0.003315 0.000000
# 4 0.000000 0.000000 0.000000 0.023618 0.000000 0.000669
# 5 -0.002498 0.003296 -0.003315 0.000000 0.020491 0.000000
# 6 0.000000 0.000000 0.000000 0.000669 0.000000 0.018140
#
#
# Mechanical properties :
#
#
# Convention : Reuss Voigt Hill
#
# Bulk Modulus (GPa) = 72.18272 76.28656 74.23464
# Shear Modulus (GPa) = 49.16075 53.78948 51.47511
#
# Velocity S-wave (km/s) = 4.33372 4.53316 4.43456
# Velocity P-wave (km/s) = 7.25382 7.51954 7.38788
#
# Compressibility (1/GPa) = 0.01385373
#
# Stress axis : x y z
#
# Youngs Moduli (GPa) = 109.42414 158.63838 112.30812
#
# Poissons Ratio (x) = 0.37576 0.18445
# Poissons Ratio (y) = 0.25919 0.13874
# Poissons Ratio (z) = 0.17971 0.19598
#
# Static dielectric constant tensor:
#      x y z
#    x 2.136700 0.000000 -0.076460 
#    y 0.000000 2.112960 0.000000 
#    z -0.076460 0.000000 2.094840 
# 
# From -- ./inp_files/96672.got.cif
#   From: 2010.05.17/outbox.cif.g08.bks.cpg/sg15_49_cif.got.tgz:96672.got - 2010.06.03 18:47:42.
