data_PCOD9293223
_publ_section_title
;
Structure prediction by ZEFSAII (Michael W. Deem and Ramdas Pophale) SiO2 
 PCOD9293223
Probable space group: C 2/C
;
_chemical_formula_sum "Si O2"
_cell_formula_units_Z 40
_cell_length_a 10.655551
_cell_length_b 18.694355
_cell_length_c 9.490218
_cell_angle_alpha 90.000000
_cell_angle_beta 100.060035
_cell_angle_gamma 90.000000
_cell_volume 1861.373645
_symmetry_space_group_name_H-M "C 2/C"
_symmetry_group_IT_number 15
_symmetry_cell_setting 'monoclinic'
loop_
_space_group_symop_operation_xyz
x,y,z
-x,y,1/2-z
-x,-y,-z
x,-y,1/2+z
1/2+x,1/2+y,z
1/2-x,1/2+y,1/2-z
1/2-x,1/2-y,-z
1/2+x,1/2-y,1/2+z
loop_
_atom_site_type_symbol
_atom_site_label
_atom_site_fract_x
_atom_site_fract_y
_atom_site_fract_z
Si Si1 0.800509 0.439183 0.540038
Si Si2 0.141642 0.577328 0.772745
Si Si3 0.440653 0.622057 0.378518
Si Si4 0.295016 0.791219 0.649443
Si Si5 0.668390 0.301189 0.086219
O O1 0.855101 0.507070 0.630211
O O2 0.822673 0.443177 0.379227
O O3 0.649828 0.430189 0.548344
O O4 0.859856 0.364752 0.610602
O O5 0.241148 0.634249 0.848960
O O6 0.000000 0.608783 0.750000
O O7 0.500000 0.587910 0.250000
O O8 0.337176 0.680810 0.306826
O O9 0.545575 0.663366 0.489762
O O10 0.250000 0.750000 0.500000
O O11 0.362950 0.743567 0.778590
O O12 0.750000 0.250000 0.000000
#
# Coordination Sequence:
#
# PCOD9293223 Si02
#       5
#     8   8   8   8   8
#     4  10  26  48  68 101 145 184 241 288 355 429
#     4  12  28  48  71 105 143 191 240 293 361 431
#     4  10  23  45  70 105 143 180 240 290 355 421
#     4  10  22  45  65 104 144 176 233 290 346 420
#     4  12  24  42  77 106 140 191 232 293 364 414
#
# _framework density 21.489504
#
# number of rings (size 3 to 8) (size 9 to 14) (size 15 to 20)
#    1.200    0.000    4.000    0.600    8.400    4.000 
#    3.600    0.000    0.000    0.000    0.000    0.000 
#    0.000    0.000    0.000    0.000    0.000    0.000 
#
# Total GULP energy -111708.830297 kJ/mol
# GULP energy per Si atom -5585.441515 kJ/mol
# Density = 2.144059 g / cm^3
# Si number density = 21.489504 Si / 1000 Ang^3
#
#
#
# Elastic Constant Matrix: (Units=GPa)
#
#
# Indices 1 2 3 4 5 6 
#
# 1 76.7531 -25.8012 10.9061 0.0000 0.9666 0.0000
# 2 -25.8012 71.0708 13.5964 0.0000 9.3596 0.0000
# 3 10.9061 13.5964 114.9004 0.0000 -10.8508 0.0000
# 4 0.0000 0.0000 0.0000 39.4527 0.0000 -9.2820
# 5 0.9666 9.3596 -10.8508 0.0000 39.8447 0.0000
# 6 0.0000 0.0000 0.0000 -9.2820 0.0000 14.6686
#
#
#
# Elastic Compliance Matrix: (Units=1/GPa)
#
#
# Indices 1 2 3 4 5 6 
#
# 1 0.015592 0.006476 -0.002490 0.000000 -0.002578 0.000000
# 2 0.006476 0.017718 -0.003201 0.000000 -0.005191 0.000000
# 3 -0.002490 -0.003201 0.009643 0.000000 0.003439 0.000000
# 4 0.000000 0.000000 0.000000 0.029780 0.000000 0.018844
# 5 -0.002578 -0.005191 0.003439 0.000000 0.027316 0.000000
# 6 0.000000 0.000000 0.000000 0.018844 0.000000 0.080097
#
#
# Mechanical properties :
#
#
# Convention : Reuss Voigt Hill
#
# Bulk Modulus (GPa) = 22.46043 28.90300 25.68171
# Shear Modulus (GPa) = 25.85088 36.39473 31.12280
#
# Velocity S-wave (km/s) = 3.47212 4.11981 3.80975
# Velocity P-wave (km/s) = 5.15254 6.00911 5.59724
#
# Compressibility (1/GPa) = 0.04452275
#
# Stress axis : x y z
#
# Youngs Moduli (GPa) = 64.13524 56.44099 103.70144
#
# Poissons Ratio (x) = -0.36552 0.25819
# Poissons Ratio (y) = -0.41535 0.33200
# Poissons Ratio (z) = 0.15968 0.18069
#
# Static dielectric constant tensor:
#      x y z
#    x 1.807760 0.000000 -0.027110 
#    y 0.000000 1.757730 0.000000 
#    z -0.027110 0.000000 1.763760 
# 
# From -- ./inp_files/30424.got.cif
#   From: 2010.05.17/outbox.cif.g08.bks.cpg/sg15_16_cif.got.tgz:30424.got - 2010.06.03 18:47:42.
