data_PCOD9293212
_publ_section_title
;
Structure prediction by ZEFSAII (Michael W. Deem and Ramdas Pophale) SiO2 
 PCOD9293212
Probable space group: C 2/C
;
_chemical_formula_sum "Si O2"
_cell_formula_units_Z 40
_cell_length_a 12.321049
_cell_length_b 14.958845
_cell_length_c 9.029658
_cell_angle_alpha 90.000000
_cell_angle_beta 109.733857
_cell_angle_gamma 90.000000
_cell_volume 1566.505098
_symmetry_space_group_name_H-M "C 2/C"
_symmetry_group_IT_number 15
_symmetry_cell_setting 'monoclinic'
loop_
_space_group_symop_operation_xyz
x,y,z
-x,y,1/2-z
-x,-y,-z
x,-y,1/2+z
1/2+x,1/2+y,z
1/2-x,1/2+y,1/2-z
1/2-x,1/2-y,-z
1/2+x,1/2-y,1/2+z
loop_
_atom_site_type_symbol
_atom_site_label
_atom_site_fract_x
_atom_site_fract_y
_atom_site_fract_z
Si Si1 0.434248 0.572517 0.567126
Si Si2 0.130817 0.266694 0.034171
Si Si3 0.347054 0.115130 0.462890
Si Si4 0.339610 0.939262 0.614556
Si Si5 0.382375 0.714608 0.147102
O O1 0.500000 0.564024 0.750000
O O2 0.500000 0.500000 0.500000
O O3 0.442663 0.677753 0.531184
O O4 0.296096 0.557099 0.494216
O O5 0.158606 0.265574 0.221779
O O6 0.250000 0.250000 0.000000
O O7 0.097149 0.362519 0.952111
O O8 0.347475 0.085051 0.291646
O O9 0.406521 0.208003 0.538806
O O10 0.214438 0.144276 0.437833
O O11 0.386487 0.035005 0.585949
O O12 0.500000 0.668471 0.250000
#
# Coordination Sequence:
#
# PCOD9293212 Si02
#       5
#     8   8   8   8   8
#     4  11  24  38  63 104 144 184 238 308 354 440
#     4  10  22  45  63  97 149 186 244 290 379 442
#     4  11  24  44  74  99 150 189 248 307 371 450
#     4  11  23  45  69 104 140 204 239 299 386 443
#     4  11  25  45  70 107 143 192 247 313 370 448
#
# _framework density 25.534548000000001
#
# number of rings (size 3 to 8) (size 9 to 14) (size 15 to 20)
#    0.000    1.200    4.000    2.400    2.800    3.200 
#    0.000    5.000    0.000    0.000    0.000    0.000 
#    0.000    0.000    0.000    0.000    0.000    0.000 
#
# Total GULP energy -111954.572807 kJ/mol
# GULP energy per Si atom -5597.728640 kJ/mol
# Density = 2.547643 g / cm^3
# Si number density = 25.534548 Si / 1000 Ang^3
#
#
#
# Elastic Constant Matrix: (Units=GPa)
#
#
# Indices 1 2 3 4 5 6 
#
# 1 83.8634 44.2728 39.5252 0.0000 10.7333 0.0000
# 2 44.2728 233.6085 81.8126 0.0000 -17.6341 0.0000
# 3 39.5252 81.8126 189.8035 0.0000 -13.0358 0.0000
# 4 0.0000 0.0000 0.0000 46.9550 0.0000 -14.5284
# 5 10.7333 -17.6341 -13.0358 0.0000 50.8116 0.0000
# 6 0.0000 0.0000 0.0000 -14.5284 0.0000 42.5548
#
#
#
# Elastic Compliance Matrix: (Units=1/GPa)
#
#
# Indices 1 2 3 4 5 6 
#
# 1 0.014868 -0.002318 -0.002410 0.000000 -0.004564 0.000000
# 2 -0.002318 0.005478 -0.001745 0.000000 0.001943 0.000000
# 3 -0.002410 -0.001745 0.006633 0.000000 0.001605 0.000000
# 4 0.000000 0.000000 0.000000 0.023812 0.000000 0.008130
# 5 -0.004564 0.001943 0.001605 0.000000 0.021731 0.000000
# 6 0.000000 0.000000 0.000000 0.008130 0.000000 0.026275
#
#
# Mechanical properties :
#
#
# Convention : Reuss Voigt Hill
#
# Bulk Modulus (GPa) = 71.26645 93.16631 82.21638
# Shear Modulus (GPa) = 42.94772 50.84191 46.89482
#
# Velocity S-wave (km/s) = 4.10560 4.46702 4.29012
# Velocity P-wave (km/s) = 7.10247 7.94803 7.53712
#
# Compressibility (1/GPa) = 0.01403185
#
# Stress axis : x y z
#
# Youngs Moduli (GPa) = 67.25854 182.55650 150.76245
#
# Poissons Ratio (x) = 0.42318 0.36340
# Poissons Ratio (y) = 0.15591 0.26307
# Poissons Ratio (z) = 0.16212 0.31855
#
# Static dielectric constant tensor:
#      x y z
#    x 2.109660 0.000000 0.026380 
#    y 0.000000 1.885040 0.000000 
#    z 0.026380 0.000000 1.942500 
# 
# From -- ./inp_files/38051.got.cif
#   From: 2010.05.17/outbox.cif.g08.bks.cpg/sg15_20_cif.got.tgz:38051.got - 2010.06.03 18:47:42.
