data_PCOD9293793
_publ_section_title
;
Structure prediction by ZEFSAII (Michael W. Deem and Ramdas Pophale) SiO2 
 PCOD9293793
Probable space group: C 2/C
;
_chemical_formula_sum "Si O2"
_cell_formula_units_Z 44
_cell_length_a 7.350191
_cell_length_b 19.932513
_cell_length_c 12.278890
_cell_angle_alpha 90.000000
_cell_angle_beta 78.433129
_cell_angle_gamma 90.000000
_cell_volume 1762.418584
_symmetry_space_group_name_H-M "C 2/C"
_symmetry_group_IT_number 15
_symmetry_cell_setting 'monoclinic'
loop_
_space_group_symop_operation_xyz
x,y,z
-x,y,1/2-z
-x,-y,-z
x,-y,1/2+z
1/2+x,1/2+y,z
1/2-x,1/2+y,1/2-z
1/2-x,1/2-y,-z
1/2+x,1/2-y,1/2+z
loop_
_atom_site_type_symbol
_atom_site_label
_atom_site_fract_x
_atom_site_fract_y
_atom_site_fract_z
Si Si1 0.383166 0.314877 0.962598
Si Si2 0.000000 0.239538 0.750000
Si Si3 0.681049 0.979399 0.549840
Si Si4 0.464697 0.425317 0.125821
Si Si5 0.965474 0.357550 0.586196
Si Si6 0.604291 0.799582 0.346674
O O1 0.551946 0.278056 0.882027
O O2 0.019270 0.289783 0.848507
O O3 0.250000 0.250000 0.000000
O O4 0.255999 0.365691 0.906789
O O5 0.817215 0.198162 0.793343
O O6 0.853345 0.958215 0.452422
O O7 0.594429 0.914706 0.620934
O O8 0.500000 0.000000 0.500000
O O9 0.776361 0.033304 0.618032
O O10 0.500000 0.426912 0.250000
O O11 0.439420 0.354894 0.063305
O O12 0.049095 0.344232 0.455656
O O13 0.500000 0.819468 0.250000
#
# Coordination Sequence:
#
# PCOD9293793 Si02
#       6
#     8   4   8   8   8   8
#     4  10  22  47  73 107 157 191 247 313 384 462
#     4  12  24  42  72 102 148 206 246 310 382 464
#     4  11  25  50  76 106 154 195 263 319 380 460
#     4  11  26  49  80 111 149 202 257 325 383 460
#     4  11  24  45  70 107 148 202 249 311 380 459
#     4  11  24  45  70 107 153 195 250 307 382 463
#
# _framework density 24.965693000000002
#
# number of rings (size 3 to 8) (size 9 to 14) (size 15 to 20)
#    0.000    1.091    3.636    1.636    0.000    6.545 
#    8.182    0.909    0.000    0.000    0.000    0.000 
#    0.000    0.000    0.000    0.000    0.000    0.000 
#
# Total GULP energy -123164.764221 kJ/mol
# GULP energy per Si atom -5598.398374 kJ/mol
# Density = 2.490887 g / cm^3
# Si number density = 24.965693 Si / 1000 Ang^3
#
#
#
# Elastic Constant Matrix: (Units=GPa)
#
#
# Indices 1 2 3 4 5 6 
#
# 1 186.0483 51.5440 46.1504 0.0000 18.6377 0.0000
# 2 51.5440 107.8135 35.5259 0.0000 14.9032 0.0000
# 3 46.1504 35.5259 131.9617 0.0000 25.5507 0.0000
# 4 0.0000 0.0000 0.0000 -4.3488 0.0000 4.3838
# 5 18.6377 14.9032 25.5507 0.0000 47.5873 0.0000
# 6 0.0000 0.0000 0.0000 4.3838 0.0000 59.2754
#
#
#
# Elastic Compliance Matrix: (Units=1/GPa)
#
#
# Indices 1 2 3 4 5 6 
#
# 1 0.006522 -0.002514 -0.001408 0.000000 -0.001011 0.000000
# 2 -0.002514 0.011306 -0.001863 0.000000 -0.001556 0.000000
# 3 -0.001408 -0.001863 0.009321 0.000000 -0.003870 0.000000
# 4 0.000000 0.000000 0.000000 -0.213994 0.000000 0.015826
# 5 -0.001011 -0.001556 -0.003870 0.000000 0.023975 0.000000
# 6 0.000000 0.000000 0.000000 0.015826 0.000000 0.015700
#
#
# Mechanical properties :
#
#
# Convention : Reuss Voigt Hill
#
# Bulk Modulus (GPa) = 64.19336 76.91824 70.55580
# Shear Modulus (GPa) = -38.34220 40.00966 0.83373
#
# Velocity S-wave (km/s) = -3.92317 4.00757 0.57851
# Velocity P-wave (km/s) = 2.29057 7.23123 5.36365
#
# Compressibility (1/GPa) = 0.01557794
#
# Stress axis : x y z
#
# Youngs Moduli (GPa) = 153.32374 88.44577 107.28024
#
# Poissons Ratio (x) = 0.22238 0.15109
# Poissons Ratio (y) = 0.38551 0.19989
# Poissons Ratio (z) = 0.21593 0.16480
#
# Static dielectric constant tensor:
#      x y z
#    x 2.032290 0.000000 0.027770 
#    y 0.000000 2.137210 0.000000 
#    z 0.027770 0.000000 1.997220 
# 
# From -- ./inp_files/129824.got.cif
#   From: 2010.05.17/outbox.cif.g08.bks.cpg/sg15_65_cif.got.tgz:129824.got - 2010.06.03 18:47:42.
