data_PCOD9293220
_publ_section_title
;
Structure prediction by ZEFSAII (Michael W. Deem and Ramdas Pophale) SiO2 
 PCOD9293220
Probable space group: C 2/C
;
_chemical_formula_sum "Si O2"
_cell_formula_units_Z 48
_cell_length_a 27.067691
_cell_length_b 7.513210
_cell_length_c 14.520743
_cell_angle_alpha 90.000000
_cell_angle_beta 41.094869
_cell_angle_gamma 90.000000
_cell_volume 1941.039333
_symmetry_space_group_name_H-M "C 2/C"
_symmetry_group_IT_number 15
_symmetry_cell_setting 'monoclinic'
loop_
_space_group_symop_operation_xyz
x,y,z
-x,y,1/2-z
-x,-y,-z
x,-y,1/2+z
1/2+x,1/2+y,z
1/2-x,1/2+y,1/2-z
1/2-x,1/2-y,-z
1/2+x,1/2-y,1/2+z
loop_
_atom_site_type_symbol
_atom_site_label
_atom_site_fract_x
_atom_site_fract_y
_atom_site_fract_z
Si Si1 0.985828 0.793636 0.006583
Si Si2 0.423569 0.175859 0.897676
Si Si3 0.258359 0.780964 0.649021
Si Si4 0.860196 0.314622 0.820361
Si Si5 0.871476 0.728701 0.787770
Si Si6 0.784518 0.141214 0.090311
O O1 0.936548 0.726455 0.159869
O O2 0.946029 0.755332 0.964716
O O3 0.068233 0.711547 0.878271
O O4 0.000000 0.000000 0.000000
O O5 0.500000 0.076856 0.750000
O O6 0.408419 0.302971 0.829493
O O7 0.337458 0.114608 0.041166
O O8 0.200850 0.830387 0.647991
O O9 0.214279 0.799072 0.806080
O O10 0.276526 0.572404 0.607179
O O11 0.854883 0.526517 0.839392
O O12 0.791029 0.274578 0.848614
O O13 0.848774 0.211220 0.931692
#
# Coordination Sequence:
#
# PCOD9293220 Si02
#       6
#     8   8   8   8   8   8
#     4  11  24  43  70  98 138 179 221 286 343 400
#     4  10  23  43  68  94 133 175 220 279 341 394
#     4  11  23  43  66 100 134 174 231 277 344 406
#     4  10  22  45  64  98 133 177 230 274 340 405
#     4  10  24  41  71  98 132 182 223 279 341 405
#     4  10  24  39  69  96 134 178 222 288 334 402
#
# _framework density 24.729020999999999
#
# number of rings (size 3 to 8) (size 9 to 14) (size 15 to 20)
#    0.000    1.667    1.667    1.000    9.333    0.000 
#    0.000    0.833    0.000    0.000    0.000    0.000 
#    0.000    0.000    0.000    0.000    0.000    0.000 
#
# Total GULP energy -133967.406309 kJ/mol
# GULP energy per Si atom -5581.975263 kJ/mol
# Density = 2.467274 g / cm^3
# Si number density = 24.729021 Si / 1000 Ang^3
#
#
#
# Elastic Constant Matrix: (Units=GPa)
#
#
# Indices 1 2 3 4 5 6 
#
# 1 104.5812 -1.7241 50.4838 0.0003 0.6552 0.0000
# 2 -1.7241 63.5554 0.8516 0.0016 8.7285 -0.0004
# 3 50.4838 0.8516 172.4385 0.0004 19.5755 -0.0001
# 4 0.0003 0.0016 0.0004 34.3226 -0.0001 6.4491
# 5 0.6552 8.7285 19.5755 -0.0001 47.3217 0.0000
# 6 0.0000 -0.0004 -0.0001 6.4491 0.0000 11.5517
#
#
#
# Elastic Compliance Matrix: (Units=1/GPa)
#
#
# Indices 1 2 3 4 5 6 
#
# 1 0.011209 0.000181 -0.003422 0.000000 0.001227 0.000000
# 2 0.000181 0.016158 0.000216 -0.000001 -0.003072 0.000001
# 3 -0.003422 0.000216 0.007134 0.000000 -0.002944 0.000000
# 4 0.000000 -0.000001 0.000000 0.032550 0.000000 -0.018172
# 5 0.001227 -0.003072 -0.002944 0.000000 0.022899 0.000000
# 6 0.000000 0.000001 0.000000 -0.018172 0.000000 0.096712
#
#
# Mechanical properties :
#
#
# Convention : Reuss Voigt Hill
#
# Bulk Modulus (GPa) = 35.14650 48.86641 42.00646
# Shear Modulus (GPa) = 24.72854 38.03678 31.38266
#
# Velocity S-wave (km/s) = 3.16568 3.92617 3.56625
# Velocity P-wave (km/s) = 5.25410 6.35270 5.82933
#
# Compressibility (1/GPa) = 0.02845233
#
# Stress axis : x y z
#
# Youngs Moduli (GPa) = 89.21381 61.88787 140.17320
#
# Poissons Ratio (x) = -0.01123 0.47964
# Poissons Ratio (y) = -0.01619 -0.03026
# Poissons Ratio (z) = 0.30527 -0.01336
#
# Static dielectric constant tensor:
#      x y z
#    x 2.069610 0.000000 -0.051260 
#    y 0.000000 1.965060 0.000000 
#    z -0.051260 0.000000 2.034880 
# 
# From -- ./inp_files/176889.got.cif
#   From: 2010.05.17/outbox.cif.g08.bks.cpg/sg15_89_cif.got.tgz:176889.got - 2010.06.03 18:47:42.
