data_PCOD9293840
_publ_section_title
;
Structure prediction by ZEFSAII (Michael W. Deem and Ramdas Pophale) SiO2 
 PCOD9293840
Probable space group: C 2/C
;
_chemical_formula_sum "Si O2"
_cell_formula_units_Z 40
_cell_length_a 23.359990
_cell_length_b 8.373531
_cell_length_c 8.275721
_cell_angle_alpha 90.000000
_cell_angle_beta 83.624477
_cell_angle_gamma 90.000000
_cell_volume 1608.765963
_symmetry_space_group_name_H-M "C 2/C"
_symmetry_group_IT_number 15
_symmetry_cell_setting 'monoclinic'
loop_
_space_group_symop_operation_xyz
x,y,z
-x,y,1/2-z
-x,-y,-z
x,-y,1/2+z
1/2+x,1/2+y,z
1/2-x,1/2+y,1/2-z
1/2-x,1/2-y,-z
1/2+x,1/2-y,1/2+z
loop_
_atom_site_type_symbol
_atom_site_label
_atom_site_fract_x
_atom_site_fract_y
_atom_site_fract_z
Si Si1 0.701219 0.204673 0.884766
Si Si2 0.858718 0.639684 0.063477
Si Si3 0.924406 0.812747 0.514838
Si Si4 0.500000 0.489428 0.750000
Si Si5 0.750000 0.750000 0.000000
Si Si6 0.936020 0.518493 0.323136
O O1 0.720992 0.225868 0.693627
O O2 0.750000 0.250000 0.000000
O O3 0.643951 0.309604 0.937590
O O4 0.684254 0.016867 0.923802
O O5 0.814318 0.781391 0.059186
O O6 0.900501 0.632381 0.896159
O O7 0.896672 0.619308 0.211108
O O8 0.962714 0.882993 0.643422
O O9 0.938514 0.627135 0.482810
O O10 0.952444 0.902452 0.353892
O O11 0.000000 0.492306 0.250000
#
# Coordination Sequence:
#
# PCOD9293840 Si02
#       6
#     8   8   8   4   4   8
#     4  11  26  48  70 106 145 188 246 298 359 436
#     4  11  24  46  68 105 137 185 245 291 366 427
#     4  10  23  45  70 105 143 183 245 299 361 440
#     4  10  22  48  72 104 142 192 242 294 370 434
#     4  12  24  46  76  96 144 194 238 302 350 432
#     4  11  22  44  70 104 143 183 233 303 364 437
#
# _framework density 24.863779000000001
#
# number of rings (size 3 to 8) (size 9 to 14) (size 15 to 20)
#    0.000    1.200    3.000    3.000    0.000    3.200 
#   18.000    0.000    0.000    0.000    0.000    0.000 
#    0.000    0.000    0.000    0.000    0.000    0.000 
#
# Total GULP energy -111441.981235 kJ/mol
# GULP energy per Si atom -5572.099062 kJ/mol
# Density = 2.480719 g / cm^3
# Si number density = 24.863779 Si / 1000 Ang^3
#
#
#
# Elastic Constant Matrix: (Units=GPa)
#
#
# Indices 1 2 3 4 5 6 
#
# 1 198.6828 23.7982 78.0336 0.0000 -25.0382 0.0000
# 2 23.7982 40.3596 11.0993 0.0000 -2.1222 0.0000
# 3 78.0336 11.0993 143.1210 0.0000 -20.1338 0.0000
# 4 0.0000 0.0000 0.0000 39.1740 0.0000 15.5543
# 5 -25.0382 -2.1222 -20.1338 0.0000 68.2279 0.0000
# 6 0.0000 0.0000 0.0000 15.5543 0.0000 43.6978
#
#
#
# Elastic Compliance Matrix: (Units=1/GPa)
#
#
# Indices 1 2 3 4 5 6 
#
# 1 0.006885 -0.003073 -0.003311 0.000000 0.001454 0.000000
# 2 -0.003073 0.026692 -0.000455 0.000000 -0.000432 0.000000
# 3 -0.003311 -0.000455 0.009030 0.000000 0.001435 0.000000
# 4 0.000000 0.000000 0.000000 0.029729 0.000000 -0.010582
# 5 0.001454 -0.000432 0.001435 0.000000 0.015600 0.000000
# 6 0.000000 0.000000 0.000000 -0.010582 0.000000 0.026651
#
#
# Mechanical properties :
#
#
# Convention : Reuss Voigt Hill
#
# Bulk Modulus (GPa) = 34.56870 67.55839 51.06355
# Shear Modulus (GPa) = 36.25627 48.16877 42.21252
#
# Velocity S-wave (km/s) = 3.82278 4.40626 4.12485
# Velocity P-wave (km/s) = 5.78085 7.28816 6.57782
#
# Compressibility (1/GPa) = 0.02892790
#
# Stress axis : x y z
#
# Youngs Moduli (GPa) = 145.24720 37.46495 110.74722
#
# Poissons Ratio (x) = 0.11512 0.36668
# Poissons Ratio (y) = 0.44629 0.05044
# Poissons Ratio (z) = 0.48091 0.01706
#
# Static dielectric constant tensor:
#      x y z
#    x 1.973240 0.000000 -0.003110 
#    y 0.000000 2.247050 0.000000 
#    z -0.003110 0.000000 2.084110 
# 
# From -- ./inp_files/59968.got.cif
#   From: 2010.05.17/outbox.cif.g08.bks.cpg/sg15_30_cif.got.tgz:59968.got - 2010.06.03 18:47:42.
