data_PCOD9293861
_publ_section_title
;
Structure prediction by ZEFSAII (Michael W. Deem and Ramdas Pophale) SiO2 
 PCOD9293861
Probable space group: C 2/C
;
_chemical_formula_sum "Si O2"
_cell_formula_units_Z 44
_cell_length_a 11.309827
_cell_length_b 7.849152
_cell_length_c 22.045201
_cell_angle_alpha 90.000000
_cell_angle_beta 64.149765
_cell_angle_gamma 90.000000
_cell_volume 1761.184236
_symmetry_space_group_name_H-M "C 2/C"
_symmetry_group_IT_number 15
_symmetry_cell_setting 'monoclinic'
loop_
_space_group_symop_operation_xyz
x,y,z
-x,y,1/2-z
-x,-y,-z
x,-y,1/2+z
1/2+x,1/2+y,z
1/2-x,1/2+y,1/2-z
1/2-x,1/2-y,-z
1/2+x,1/2-y,1/2+z
loop_
_atom_site_type_symbol
_atom_site_label
_atom_site_fract_x
_atom_site_fract_y
_atom_site_fract_z
Si Si1 0.037654 0.548478 0.322572
Si Si2 0.701647 0.732887 0.620613
Si Si3 0.131686 0.431204 0.938866
Si Si4 0.500000 0.245396 0.750000
Si Si5 0.364017 0.453644 0.062744
Si Si6 0.687883 0.589651 0.299410
O O1 0.083870 0.566241 0.380299
O O2 0.168489 0.536317 0.253436
O O3 0.946076 0.713458 0.332356
O O4 0.960861 0.379465 0.315344
O O5 0.744816 0.557891 0.581073
O O6 0.759656 0.896858 0.571072
O O7 0.782706 0.744500 0.665641
O O8 0.167877 0.238804 0.947703
O O9 0.000000 0.500000 0.000000
O O10 0.393967 0.365950 0.741556
O O11 0.371974 0.467944 0.135116
O O12 0.500000 0.500000 0.000000
#
# Coordination Sequence:
#
# PCOD9293861 Si02
#       6
#     8   8   8   4   8   8
#     4  12  25  46  77 111 167 196 264 336 383 492
#     4  10  23  47  76 106 156 204 247 332 391 455
#     4  12  25  47  76 116 158 202 266 324 395 473
#     4  12  22  48  78 112 160 204 256 332 402 464
#     4  10  22  48  77 111 155 203 266 323 387 473
#     4  10  24  45  77 111 152 206 257 323 399 469
#
# _framework density 24.98319
#
# number of rings (size 3 to 8) (size 9 to 14) (size 15 to 20)
#    1.091    0.000    5.455    0.000    5.091    0.727 
#    3.273    2.727    8.000    0.000    0.000    0.000 
#    0.000    0.000    0.000    0.000    0.000    0.000 
#
# Total GULP energy -122845.260125 kJ/mol
# GULP energy per Si atom -5583.875460 kJ/mol
# Density = 2.492633 g / cm^3
# Si number density = 24.983190 Si / 1000 Ang^3
#
#
#
# Elastic Constant Matrix: (Units=GPa)
#
#
# Indices 1 2 3 4 5 6 
#
# 1 93.2138 27.7707 26.3269 0.0000 -5.5496 0.0000
# 2 27.7707 181.5649 47.3798 0.0000 -17.4508 0.0000
# 3 26.3269 47.3798 147.7676 0.0000 -19.0475 0.0000
# 4 0.0000 0.0000 0.0000 33.4670 0.0000 -0.2630
# 5 -5.5496 -17.4508 -19.0475 0.0000 28.7085 0.0000
# 6 0.0000 0.0000 0.0000 -0.2630 0.0000 23.2074
#
#
#
# Elastic Compliance Matrix: (Units=1/GPa)
#
#
# Indices 1 2 3 4 5 6 
#
# 1 0.011594 -0.001321 -0.001593 0.000000 0.000381 0.000000
# 2 -0.001321 0.006344 -0.001459 0.000000 0.002632 0.000000
# 3 -0.001593 -0.001459 0.008054 0.000000 0.004149 0.000000
# 4 0.000000 0.000000 0.000000 0.029883 0.000000 0.000339
# 5 0.000381 0.002632 0.004149 0.000000 0.039259 0.000000
# 6 0.000000 0.000000 0.000000 0.000339 0.000000 0.043094
#
#
# Mechanical properties :
#
#
# Convention : Reuss Voigt Hill
#
# Bulk Modulus (GPa) = 57.98754 69.50011 63.74383
# Shear Modulus (GPa) = 32.73920 38.48117 35.61018
#
# Velocity S-wave (km/s) = 3.62394 3.92890 3.77950
# Velocity P-wave (km/s) = 6.38526 6.96138 6.67954
#
# Compressibility (1/GPa) = 0.01724508
#
# Stress axis : x y z
#
# Youngs Moduli (GPa) = 86.24999 157.64065 124.16416
#
# Poissons Ratio (x) = 0.20825 0.19779
# Poissons Ratio (y) = 0.11394 0.18119
# Poissons Ratio (z) = 0.13739 0.23004
#
# Static dielectric constant tensor:
#      x y z
#    x 2.015090 0.000000 -0.000380 
#    y 0.000000 2.033150 0.000000 
#    z -0.000380 0.000000 2.029970 
# 
# From -- ./inp_files/291437.got.cif
#   From: 2010.05.17/outbox.cif.g08.bks.cpg/sg15_146_cif.got.tgz:291437.got - 2010.06.03 18:47:42.
