data_PCOD9293203
_publ_section_title
;
Structure prediction by ZEFSAII (Michael W. Deem and Ramdas Pophale) SiO2 
 PCOD9293203
Probable space group: C 2/C
;
_chemical_formula_sum "Si O2"
_cell_formula_units_Z 52
_cell_length_a 13.604501
_cell_length_b 14.313380
_cell_length_c 16.246118
_cell_angle_alpha 90.000000
_cell_angle_beta 57.071838
_cell_angle_gamma 90.000000
_cell_volume 2655.332774
_symmetry_space_group_name_H-M "C 2/C"
_symmetry_group_IT_number 15
_symmetry_cell_setting 'monoclinic'
loop_
_space_group_symop_operation_xyz
x,y,z
-x,y,1/2-z
-x,-y,-z
x,-y,1/2+z
1/2+x,1/2+y,z
1/2-x,1/2+y,1/2-z
1/2-x,1/2-y,-z
1/2+x,1/2-y,1/2+z
loop_
_atom_site_type_symbol
_atom_site_label
_atom_site_fract_x
_atom_site_fract_y
_atom_site_fract_z
Si Si1 0.500000 0.118397 0.250000
Si Si2 0.426320 0.406222 0.036070
Si Si3 0.087220 0.667436 0.871426
Si Si4 0.786075 0.170005 0.275125
Si Si5 0.623245 0.721850 0.092159
Si Si6 0.015746 0.282086 0.912327
Si Si7 0.789453 0.494127 0.280303
O O1 0.520574 0.182636 0.160640
O O2 0.386719 0.053889 0.284720
O O3 0.482003 0.328805 0.071741
O O4 0.294954 0.431256 0.125078
O O5 0.500000 0.500000 0.000000
O O6 0.423671 0.357245 0.948368
O O7 0.174958 0.751482 0.807605
O O8 0.142080 0.572360 0.813986
O O9 0.966991 0.692692 0.877831
O O10 0.058151 0.670852 0.980990
O O11 0.861689 0.186232 0.322309
O O12 0.651041 0.186974 0.360727
O O13 0.790212 0.068490 0.232611
O O14 0.750000 0.750000 0.000000
#
# Coordination Sequence:
#
# PCOD9293203 Si02
#       7
#     4   8   8   8   8   8   8
#     4  10  26  40  64  96 130 172 216 266 322 398
#     4  11  23  43  65  95 131 172 213 267 325 392
#     4  11  22  39  70  93 127 169 212 277 321 374
#     4  11  22  41  62  97 127 163 213 270 322 378
#     4  11  21  39  66  91 127 166 212 264 329 372
#     4  10  22  45  62  90 137 166 210 269 333 376
#     4  11  24  39  66  96 128 169 225 259 321 396
#
# _framework density 19.583233
#
# number of rings (size 3 to 8) (size 9 to 14) (size 15 to 20)
#    0.000    1.231    4.615    2.308    4.308    3.692 
#    2.769    6.923    0.000    0.000    0.000    0.000 
#    0.000    0.000    0.000    0.000    0.000    0.000 
#
# Total GULP energy -145316.098484 kJ/mol
# GULP energy per Si atom -5589.080711 kJ/mol
# Density = 1.953866 g / cm^3
# Si number density = 19.583233 Si / 1000 Ang^3
#
#
#
# Elastic Constant Matrix: (Units=GPa)
#
#
# Indices 1 2 3 4 5 6 
#
# 1 77.1881 42.3028 49.5875 0.0000 23.4022 0.0000
# 2 42.3028 102.8937 37.0928 0.0000 14.6176 0.0000
# 3 49.5875 37.0928 123.3920 0.0000 19.7875 0.0000
# 4 0.0000 0.0000 0.0000 39.9130 0.0000 -8.9449
# 5 23.4022 14.6176 19.7875 0.0000 37.0920 0.0000
# 6 0.0000 0.0000 0.0000 -8.9449 0.0000 27.9435
#
#
#
# Elastic Compliance Matrix: (Units=1/GPa)
#
#
# Indices 1 2 3 4 5 6 
#
# 1 0.022685 -0.005941 -0.005917 0.000000 -0.008815 0.000000
# 2 -0.005941 0.012726 -0.001350 0.000000 -0.000546 0.000000
# 3 -0.005917 -0.001350 0.011159 0.000000 -0.001688 0.000000
# 4 0.000000 0.000000 0.000000 0.026991 0.000000 0.008640
# 5 -0.008815 -0.000546 -0.001688 0.000000 0.033637 0.000000
# 6 0.000000 0.000000 0.000000 0.008640 0.000000 0.038552
#
#
# Mechanical properties :
#
#
# Convention : Reuss Voigt Hill
#
# Bulk Modulus (GPa) = 49.62142 62.38220 56.00181
# Shear Modulus (GPa) = 27.95111 32.62241 30.28676
#
# Velocity S-wave (km/s) = 3.78206 4.08589 3.93691
# Velocity P-wave (km/s) = 6.66826 7.36094 7.02314
#
# Compressibility (1/GPa) = 0.02015259
#
# Stress axis : x y z
#
# Youngs Moduli (GPa) = 44.08187 78.58059 89.61695
#
# Poissons Ratio (x) = 0.46687 0.53025
# Poissons Ratio (y) = 0.26190 0.12101
# Poissons Ratio (z) = 0.26083 0.10611
#
# Static dielectric constant tensor:
#      x y z
#    x 1.692730 0.000000 -0.011120 
#    y 0.000000 1.678570 0.000000 
#    z -0.011120 0.000000 1.700630 
# 
# From -- ./inp_files/204992.got.cif
#   From: 2010.05.17/outbox.cif.g08.bks.cpg/sg15_103_cif.got.tgz:204992.got - 2010.06.03 18:47:42.
