data_PCOD9293471
_publ_section_title
;
Structure prediction by ZEFSAII (Michael W. Deem and Ramdas Pophale) SiO2 
 PCOD9293471
Probable space group: C 2/C
;
_chemical_formula_sum "Si O2"
_cell_formula_units_Z 44
_cell_length_a 23.988472
_cell_length_b 11.976268
_cell_length_c 10.852507
_cell_angle_alpha 90.000000
_cell_angle_beta 143.944423
_cell_angle_gamma 90.000000
_cell_volume 1835.067670
_symmetry_space_group_name_H-M "C 2/C"
_symmetry_group_IT_number 15
_symmetry_cell_setting 'monoclinic'
loop_
_space_group_symop_operation_xyz
x,y,z
-x,y,1/2-z
-x,-y,-z
x,-y,1/2+z
1/2+x,1/2+y,z
1/2-x,1/2+y,1/2-z
1/2-x,1/2-y,-z
1/2+x,1/2-y,1/2+z
loop_
_atom_site_type_symbol
_atom_site_label
_atom_site_fract_x
_atom_site_fract_y
_atom_site_fract_z
Si Si1 0.061273 0.026841 0.485489
Si Si2 0.000000 0.321585 0.750000
Si Si3 0.163318 0.262541 0.632691
Si Si4 0.391525 0.914668 0.774485
Si Si5 0.150191 0.804574 0.670545
Si Si6 0.907157 0.645720 0.738844
O O1 0.104176 0.151349 0.556572
O O2 0.000000 0.012593 0.250000
O O3 0.146340 0.936574 0.644494
O O4 0.000000 0.000000 0.500000
O O5 0.073880 0.392319 0.802429
O O6 0.944699 0.242456 0.559825
O O7 0.179325 0.330408 0.787495
O O8 0.263430 0.247199 0.744944
O O9 0.108506 0.338637 0.433065
O O10 0.353539 0.040398 0.704323
O O11 0.487572 0.886784 0.025454
O O12 0.135316 0.759825 0.781514
#
# Coordination Sequence:
#
# PCOD9293471 Si02
#       6
#     8   4   8   8   8   8
#     4  12  26  50  76 104 151 202 243 293 376 450
#     4  10  22  46  62 100 138 184 232 286 362 430
#     4  12  26  43  72 107 139 185 243 299 355 430
#     4  10  23  40  71  97 136 181 228 292 361 427
#     4  11  25  44  71 103 142 187 239 300 356 433
#     4  10  23  43  68 102 140 181 230 292 365 436
#
# _framework density 23.977318
#
# number of rings (size 3 to 8) (size 9 to 14) (size 15 to 20)
#    0.000    1.091    0.909    5.455   10.182    0.727 
#    0.000    0.000    0.000    0.000    0.000    0.000 
#    0.000    0.000    0.000    0.000    0.000    0.000 
#
# Total GULP energy -122861.150012 kJ/mol
# GULP energy per Si atom -5584.597728 kJ/mol
# Density = 2.392274 g / cm^3
# Si number density = 23.977318 Si / 1000 Ang^3
#
#
#
# Elastic Constant Matrix: (Units=GPa)
#
#
# Indices 1 2 3 4 5 6 
#
# 1 137.2010 41.5949 19.3860 0.0000 -21.2330 0.0000
# 2 41.5949 152.4190 23.9027 0.0000 -15.8114 0.0000
# 3 19.3860 23.9027 44.7321 0.0000 -7.2339 0.0000
# 4 0.0000 0.0000 0.0000 10.8931 0.0000 -1.0497
# 5 -21.2330 -15.8114 -7.2339 0.0000 30.2382 0.0000
# 6 0.0000 0.0000 0.0000 -1.0497 0.0000 39.1074
#
#
#
# Elastic Compliance Matrix: (Units=1/GPa)
#
#
# Indices 1 2 3 4 5 6 
#
# 1 0.008824 -0.001559 -0.002206 0.000000 0.004853 0.000000
# 2 -0.001559 0.007697 -0.003083 0.000000 0.002193 0.000000
# 3 -0.002206 -0.003083 0.025432 0.000000 0.002923 0.000000
# 4 0.000000 0.000000 0.000000 0.092039 0.000000 0.002471
# 5 0.004853 0.002193 0.002923 0.000000 0.038324 0.000000
# 6 0.000000 0.000000 0.000000 0.002471 0.000000 0.025637
#
#
# Mechanical properties :
#
#
# Convention : Reuss Voigt Hill
#
# Bulk Modulus (GPa) = 35.38974 56.01325 45.70150
# Shear Modulus (GPa) = 22.61747 32.67898 27.64823
#
# Velocity S-wave (km/s) = 3.07463 3.69577 3.39942
# Velocity P-wave (km/s) = 5.23414 6.45161 5.87450
#
# Compressibility (1/GPa) = 0.02825677
#
# Stress axis : x y z
#
# Youngs Moduli (GPa) = 113.32823 129.91849 39.32130
#
# Poissons Ratio (x) = 0.20248 0.08676
# Poissons Ratio (y) = 0.17663 0.12122
# Poissons Ratio (z) = 0.25005 0.40053
#
# Static dielectric constant tensor:
#      x y z
#    x 2.001600 0.000000 0.051590 
#    y 0.000000 2.007480 0.000000 
#    z 0.051590 0.000000 1.988290 
# 
# From -- ./inp_files/118091.got.cif
#   From: 2010.05.17/outbox.cif.g08.bks.cpg/sg15_60_cif.got.tgz:118091.got - 2010.06.03 18:47:42.
