data_PCOD9293030
_publ_section_title
;
Structure prediction by ZEFSAII (Michael W. Deem and Ramdas Pophale) SiO2 
 PCOD9293030
Probable space group: C 2/C
;
_chemical_formula_sum "Si O2"
_cell_formula_units_Z 56
_cell_length_a 13.742271
_cell_length_b 18.620490
_cell_length_c 10.608223
_cell_angle_alpha 90.000000
_cell_angle_beta 79.553435
_cell_angle_gamma 90.000000
_cell_volume 2669.520436
_symmetry_space_group_name_H-M "C 2/C"
_symmetry_group_IT_number 15
_symmetry_cell_setting 'monoclinic'
loop_
_space_group_symop_operation_xyz
x,y,z
-x,y,1/2-z
-x,-y,-z
x,-y,1/2+z
1/2+x,1/2+y,z
1/2-x,1/2+y,1/2-z
1/2-x,1/2-y,-z
1/2+x,1/2-y,1/2+z
loop_
_atom_site_type_symbol
_atom_site_label
_atom_site_fract_x
_atom_site_fract_y
_atom_site_fract_z
Si Si1 0.222566 0.168802 0.971641
Si Si2 0.550303 0.914609 0.605940
Si Si3 0.387940 0.295158 0.249844
Si Si4 0.391144 0.410750 0.473783
Si Si5 0.572861 0.431760 0.612198
Si Si6 0.424115 0.081799 0.883455
Si Si7 0.772536 0.317158 0.904649
O O1 0.147013 0.171684 0.872090
O O2 0.321764 0.125586 0.908137
O O3 0.250000 0.250000 0.000000
O O4 0.159619 0.127242 0.093592
O O5 0.500000 0.895507 0.750000
O O6 0.476144 0.907819 0.506695
O O7 0.640579 0.863096 0.554861
O O8 0.590148 0.995659 0.616873
O O9 0.500000 0.270657 0.250000
O O10 0.379838 0.357830 0.357158
O O11 0.318256 0.225105 0.277168
O O12 0.496990 0.414082 0.516133
O O13 0.375207 0.491862 0.430672
O O14 0.316233 0.372964 0.589414
O O15 0.500000 0.437356 0.750000
O O16 0.500000 0.100214 0.750000
O O17 0.750000 0.250000 0.000000
#
# Coordination Sequence:
#
# PCOD9293030 Si02
#       7
#     8   8   8   8   8   8   8
#     4  12  29  45  67 105 144 185 231 294 355 428
#     4  10  22  44  71  98 131 177 235 287 343 419
#     4  11  23  45  69  99 140 183 232 285 356 427
#     4  10  23  44  69 101 128 182 238 287 352 419
#     4  11  25  44  71 100 141 181 235 299 353 419
#     4  10  25  46  70 100 136 181 229 297 357 406
#     4  10  23  37  68  98 129 175 228 281 339 422
#
# _framework density 20.977550999999998
#
# number of rings (size 3 to 8) (size 9 to 14) (size 15 to 20)
#    0.000    1.429    1.429    1.714   12.000    0.571 
#    2.571    0.000    0.000    0.000    0.000    0.000 
#    0.000    0.000    0.000    0.000    0.000    0.000 
#
# Total GULP energy -156134.648075 kJ/mol
# GULP energy per Si atom -5576.237431 kJ/mol
# Density = 2.092981 g / cm^3
# Si number density = 20.977551 Si / 1000 Ang^3
#
#
#
# Elastic Constant Matrix: (Units=GPa)
#
#
# Indices 1 2 3 4 5 6 
#
# 1 80.7954 84.8514 49.2756 0.0000 -20.1429 0.0000
# 2 84.8514 153.1484 54.5153 0.0000 -22.3043 0.0000
# 3 49.2756 54.5153 98.3933 0.0000 -3.9587 0.0000
# 4 0.0000 0.0000 0.0000 21.1666 0.0000 -7.9156
# 5 -20.1429 -22.3043 -3.9587 0.0000 35.8568 0.0000
# 6 0.0000 0.0000 0.0000 -7.9156 0.0000 46.2180
#
#
#
# Elastic Compliance Matrix: (Units=1/GPa)
#
#
# Indices 1 2 3 4 5 6 
#
# 1 0.037288 -0.015808 -0.009510 0.000000 0.010063 0.000000
# 2 -0.015808 0.015661 -0.000729 0.000000 0.000781 0.000000
# 3 -0.009510 -0.000729 0.015164 0.000000 -0.004122 0.000000
# 4 0.000000 0.000000 0.000000 0.050477 0.000000 0.008645
# 5 0.010063 0.000781 -0.004122 0.000000 0.033573 0.000000
# 6 0.000000 0.000000 0.000000 0.008645 0.000000 0.023117
#
#
# Mechanical properties :
#
#
# Convention : Reuss Voigt Hill
#
# Bulk Modulus (GPa) = 62.42899 78.84688 70.63794
# Shear Modulus (GPa) = 21.48548 30.22792 25.85670
#
# Velocity S-wave (km/s) = 3.20381 3.80012 3.51463
# Velocity P-wave (km/s) = 6.59624 7.54470 7.08635
#
# Compressibility (1/GPa) = 0.01601820
#
# Stress axis : x y z
#
# Youngs Moduli (GPa) = 26.81841 63.85123 65.94492
#
# Poissons Ratio (x) = 1.00938 0.62716
# Poissons Ratio (y) = 0.42395 0.04808
# Poissons Ratio (z) = 0.25505 0.04655
#
# Static dielectric constant tensor:
#      x y z
#    x 1.798130 0.000000 0.029900 
#    y 0.000000 1.750470 0.000000 
#    z 0.029900 0.000000 1.989380 
# 
# From -- ./inp_files/98236.got.cif
#   From: 2010.05.17/outbox.cif.g08.bks.cpg/sg15_50_cif.got.tgz:98236.got - 2010.06.03 18:47:42.
