data_PCOD9293478
_publ_section_title
;
Structure prediction by ZEFSAII (Michael W. Deem and Ramdas Pophale) SiO2 
 PCOD9293478
Probable space group: C 2/C
;
_chemical_formula_sum "Si O2"
_cell_formula_units_Z 36
_cell_length_a 11.609659
_cell_length_b 14.315843
_cell_length_c 21.799023
_cell_angle_alpha 90.000000
_cell_angle_beta 26.365796
_cell_angle_gamma 90.000000
_cell_volume 1608.994538
_symmetry_space_group_name_H-M "C 2/C"
_symmetry_group_IT_number 15
_symmetry_cell_setting 'monoclinic'
loop_
_space_group_symop_operation_xyz
x,y,z
-x,y,1/2-z
-x,-y,-z
x,-y,1/2+z
1/2+x,1/2+y,z
1/2-x,1/2+y,1/2-z
1/2-x,1/2-y,-z
1/2+x,1/2-y,1/2+z
loop_
_atom_site_type_symbol
_atom_site_label
_atom_site_fract_x
_atom_site_fract_y
_atom_site_fract_z
Si Si1 0.769034 0.116524 0.094799
Si Si2 0.028878 0.157150 0.164413
Si Si3 0.092633 0.000108 0.862077
Si Si4 0.000000 0.798521 0.250000
Si Si5 0.392052 0.846924 0.164648
O O1 0.500000 0.078405 0.250000
O O2 0.948559 0.078380 0.064272
O O3 0.714020 0.226516 0.118965
O O4 0.861457 0.072134 0.987914
O O5 0.000000 0.168727 0.250000
O O6 0.903751 0.061855 0.199985
O O7 0.895194 0.245843 0.195521
O O8 0.329445 0.148469 0.000801
O O9 0.335327 0.070833 0.740213
O O10 0.159555 0.851313 0.225853
#
# Coordination Sequence:
#
# PCOD9293478 Si02
#       5
#     8   8   8   4   8
#     4   9  20  39  67  91 127 165 227 266 305 394
#     4  11  26  45  65 100 136 169 218 276 330 392
#     4  11  22  41  67  97 127 178 216 269 328 384
#     4  10  22  46  62  98 128 172 220 268 314 400
#     4  11  26  44  67  97 132 174 219 269 333 386
#
# _framework density 22.374222
#
# number of rings (size 3 to 8) (size 9 to 14) (size 15 to 20)
#    0.667    0.889    2.222    1.333    4.667    4.444 
#    4.000    0.000    0.000    0.000    0.000    0.000 
#    0.000    0.000    0.000    0.000    0.000    0.000 
#
# Total GULP energy -100298.574326 kJ/mol
# GULP energy per Si atom -5572.143018 kJ/mol
# Density = 2.232330 g / cm^3
# Si number density = 22.374222 Si / 1000 Ang^3
#
#
#
# Elastic Constant Matrix: (Units=GPa)
#
#
# Indices 1 2 3 4 5 6 
#
# 1 49.3752 20.5060 0.6193 -0.0218 0.4513 0.0171
# 2 20.5060 104.9193 22.9428 0.0566 5.0949 -0.0102
# 3 0.6193 22.9428 78.4432 0.0477 11.3651 0.0530
# 4 -0.0218 0.0566 0.0477 -0.8109 0.0802 24.9894
# 5 0.4513 5.0949 11.3651 0.0802 21.5297 -0.0382
# 6 0.0171 -0.0102 0.0530 24.9894 -0.0382 7.2059
#
#
#
# Elastic Compliance Matrix: (Units=1/GPa)
#
#
# Indices 1 2 3 4 5 6 
#
# 1 0.022141 -0.004582 0.001165 -0.000027 0.000006 0.000027
# 2 -0.004582 0.011147 -0.003092 0.000019 -0.000910 -0.000020
# 3 0.001165 -0.003092 0.014662 -0.000044 -0.007032 0.000001
# 4 -0.000027 0.000019 -0.000044 -0.011432 0.000132 0.039646
# 5 0.000006 -0.000910 -0.007032 0.000132 0.050374 -0.000142
# 6 0.000027 -0.000020 0.000001 0.039646 -0.000142 0.001287
#
#
# Mechanical properties :
#
#
# Convention : Reuss Voigt Hill
#
# Bulk Modulus (GPa) = 28.62813 35.65264 32.14039
# Shear Modulus (GPa) = 44.30907 18.16293 31.23600
#
# Velocity S-wave (km/s) = 4.45495 2.85227 3.74046
# Velocity P-wave (km/s) = 6.26778 5.17847 5.74898
#
# Compressibility (1/GPa) = 0.03493068
#
# Stress axis : x y z
#
# Youngs Moduli (GPa) = 45.16409 89.70952 68.20258
#
# Poissons Ratio (x) = 0.41108 -0.07943
# Poissons Ratio (y) = 0.20696 0.21090
# Poissons Ratio (z) = -0.05260 0.27741
#
# Static dielectric constant tensor:
#      x y z
#    x 2.085810 -0.000020 -0.035960 
#    y -0.000020 1.840700 0.000000 
#    z -0.035960 0.000000 1.816680 
# 
# From -- ./inp_files/238584.got.cif
#   From: 2010.05.17/outbox.cif.g08.bks.cpg/sg15_120_cif.got.tgz:238584.got - 2010.06.03 18:47:42.
