data_PCOD9293613
_publ_section_title
;
Structure prediction by ZEFSAII (Michael W. Deem and Ramdas Pophale) SiO2 
 PCOD9293613
Probable space group: C 2/C
;
_chemical_formula_sum "Si O2"
_cell_formula_units_Z 60
_cell_length_a 21.632183
_cell_length_b 21.687707
_cell_length_c 8.171373
_cell_angle_alpha 90.000000
_cell_angle_beta 138.041987
_cell_angle_gamma 90.000000
_cell_volume 2563.103811
_symmetry_space_group_name_H-M "C 2/C"
_symmetry_group_IT_number 15
_symmetry_cell_setting 'monoclinic'
loop_
_space_group_symop_operation_xyz
x,y,z
-x,y,1/2-z
-x,-y,-z
x,-y,1/2+z
1/2+x,1/2+y,z
1/2-x,1/2+y,1/2-z
1/2-x,1/2-y,-z
1/2+x,1/2-y,1/2+z
loop_
_atom_site_type_symbol
_atom_site_label
_atom_site_fract_x
_atom_site_fract_y
_atom_site_fract_z
Si Si1 0.902507 0.220613 0.328952
Si Si2 0.088372 0.035376 0.804746
Si Si3 0.953471 0.094284 0.308655
Si Si4 0.424332 0.981823 0.979542
Si Si5 0.765346 0.389953 0.570214
Si Si6 0.710289 0.808681 0.576756
Si Si7 0.174141 0.385729 0.164121
Si Si8 0.000000 0.699338 0.250000
O O1 0.917487 0.147955 0.348808
O O2 0.869912 0.258355 0.106888
O O3 0.989709 0.254566 0.577415
O O4 0.809175 0.225093 0.253502
O O5 0.000000 0.046059 0.750000
O O6 0.041902 0.056135 0.544952
O O7 0.115416 0.963049 0.855364
O O8 0.177621 0.077673 0.987202
O O9 0.000000 0.128938 0.250000
O O10 0.366315 0.044168 0.909294
O O11 0.350656 0.936008 0.760667
O O12 0.500000 0.950986 0.250000
O O13 0.500000 0.000000 0.000000
O O14 0.755038 0.380031 0.352811
O O15 0.790878 0.335238 0.743665
O O16 0.701233 0.858119 0.401180
O O17 0.088579 0.343796 0.936384
#
# Coordination Sequence:
#
# PCOD9293613 Si02
#       8
#     8   8   8   8   8   8   8   4
#     4  10  23  43  71  94 139 189 228 300 365 418
#     4  10  24  45  67 104 144 181 233 294 366 437
#     4  10  23  41  66  98 136 173 232 291 347 433
#     4  12  23  43  67 105 143 188 238 291 358 428
#     4  12  26  42  79 105 142 198 234 296 369 431
#     4  10  25  45  65 106 141 180 242 298 351 431
#     4  11  24  44  68 101 143 184 240 295 354 425
#     4  10  22  46  70  92 140 190 230 302 356 410
#
# _framework density 23.409119
#
# number of rings (size 3 to 8) (size 9 to 14) (size 15 to 20)
#    0.000    1.333    2.000    1.600    6.533    4.267 
#    0.000    6.000    0.000    0.000    0.000    0.000 
#    0.000    0.000    0.000    0.000    0.000    0.000 
#
# Total GULP energy -167012.510289 kJ/mol
# GULP energy per Si atom -5567.083676 kJ/mol
# Density = 2.335584 g / cm^3
# Si number density = 23.409119 Si / 1000 Ang^3
#
#
#
# Elastic Constant Matrix: (Units=GPa)
#
#
# Indices 1 2 3 4 5 6 
#
# 1 28.0606 -11.0303 -7.6778 0.0000 -7.8958 0.0000
# 2 -11.0303 72.2703 -12.8301 0.0000 -2.4858 0.0000
# 3 -7.6778 -12.8301 43.8094 0.0000 2.5083 0.0000
# 4 0.0000 0.0000 0.0000 16.6509 0.0000 1.7028
# 5 -7.8958 -2.4858 2.5083 0.0000 28.5851 0.0000
# 6 0.0000 0.0000 0.0000 1.7028 0.0000 15.3882
#
#
#
# Elastic Compliance Matrix: (Units=1/GPa)
#
#
# Indices 1 2 3 4 5 6 
#
# 1 0.045452 0.009128 0.009925 0.000000 0.012478 0.000000
# 2 0.009128 0.016452 0.006223 0.000000 0.003406 0.000000
# 3 0.009925 0.006223 0.026332 0.000000 0.000972 0.000000
# 4 0.000000 0.000000 0.000000 0.060744 0.000000 -0.006722
# 5 0.012478 0.003406 0.000972 0.000000 0.038641 0.000000
# 6 0.000000 0.000000 0.000000 -0.006722 0.000000 0.065729
#
#
# Mechanical properties :
#
#
# Convention : Reuss Voigt Hill
#
# Bulk Modulus (GPa) = 7.20526 9.00710 8.10618
# Shear Modulus (GPa) = 20.07540 23.83674 21.95607
#
# Velocity S-wave (km/s) = 2.93164 3.19449 3.06588
# Velocity P-wave (km/s) = 3.81366 4.17881 4.00040
#
# Compressibility (1/GPa) = 0.13878742
#
# Stress axis : x y z
#
# Youngs Moduli (GPa) = 22.00128 60.78278 37.97623
#
# Poissons Ratio (x) = -0.55484 -0.37690
# Poissons Ratio (y) = -0.20083 -0.23632
# Poissons Ratio (z) = -0.21835 -0.37825
#
# Static dielectric constant tensor:
#      x y z
#    x 1.945120 0.000000 -0.084780 
#    y 0.000000 1.965010 0.000000 
#    z -0.084780 0.000000 1.969340 
# 
# From -- ./inp_files/63548.got.cif
#   From: 2010.05.17/outbox.cif.g08.bks.cpg/sg15_32_cif.got.tgz:63548.got - 2010.06.03 18:47:42.
