data_PCOD9293597
_publ_section_title
;
Structure prediction by ZEFSAII (Michael W. Deem and Ramdas Pophale) SiO2 
 PCOD9293597
Probable space group: C 2/C
;
_chemical_formula_sum "Si O2"
_cell_formula_units_Z 36
_cell_length_a 5.978345
_cell_length_b 29.504406
_cell_length_c 8.478316
_cell_angle_alpha 90.000000
_cell_angle_beta 100.196580
_cell_angle_gamma 90.000000
_cell_volume 1471.849941
_symmetry_space_group_name_H-M "C 2/C"
_symmetry_group_IT_number 15
_symmetry_cell_setting 'monoclinic'
loop_
_space_group_symop_operation_xyz
x,y,z
-x,y,1/2-z
-x,-y,-z
x,-y,1/2+z
1/2+x,1/2+y,z
1/2-x,1/2+y,1/2-z
1/2-x,1/2-y,-z
1/2+x,1/2-y,1/2+z
loop_
_atom_site_type_symbol
_atom_site_label
_atom_site_fract_x
_atom_site_fract_y
_atom_site_fract_z
Si Si1 0.326620 0.797279 0.581270
Si Si2 0.823232 0.541822 0.088519
Si Si3 0.500000 0.352887 0.750000
Si Si4 0.590172 0.122139 0.985226
Si Si5 0.630105 0.446440 0.103902
O O1 0.500000 0.790518 0.750000
O O2 0.250000 0.750000 0.500000
O O3 0.459081 0.830545 0.476009
O O4 0.104598 0.822742 0.621630
O O5 0.796565 0.487134 0.069558
O O6 0.000000 0.545534 0.250000
O O7 0.912794 0.581527 0.986849
O O8 0.557793 0.554661 0.057453
O O9 0.728106 0.376018 0.846884
O O10 0.747355 0.101914 0.866693
O O11 0.500000 0.458704 0.250000
#
# Coordination Sequence:
#
# PCOD9293597 Si02
#       5
#     8   8   4   8   8
#     4  10  23  45  74 103 134 174 221 282 345 407
#     4  11  25  43  67  93 137 186 228 277 336 403
#     4  10  22  46  70 102 130 176 230 268 340 416
#     4  11  22  43  69  96 136 183 227 273 338 413
#     4  11  27  42  63 102 140 180 233 283 334 400
#
# _framework density 24.459016999999999
#
# number of rings (size 3 to 8) (size 9 to 14) (size 15 to 20)
#    0.000    1.333    0.000    5.333    9.333    3.556 
#    2.000   11.111    0.000    0.000    0.000    0.000 
#    0.000    0.000    0.000    0.000    0.000    0.000 
#
# Total GULP energy -100413.477709 kJ/mol
# GULP energy per Si atom -5578.526539 kJ/mol
# Density = 2.440335 g / cm^3
# Si number density = 24.459017 Si / 1000 Ang^3
#
#
#
# Elastic Constant Matrix: (Units=GPa)
#
#
# Indices 1 2 3 4 5 6 
#
# 1 112.8792 95.0522 43.6237 0.0000 18.7630 0.0000
# 2 95.0522 182.1055 36.4572 0.0000 -7.9583 0.0000
# 3 43.6237 36.4572 83.5968 0.0000 11.2317 0.0000
# 4 0.0000 0.0000 0.0000 35.4366 0.0000 -0.0436
# 5 18.7630 -7.9583 11.2317 0.0000 29.0706 0.0000
# 6 0.0000 0.0000 0.0000 -0.0436 0.0000 55.6910
#
#
#
# Elastic Compliance Matrix: (Units=1/GPa)
#
#
# Indices 1 2 3 4 5 6 
#
# 1 0.023777 -0.012176 -0.004839 0.000000 -0.016810 0.000000
# 2 -0.012176 0.012478 -0.000635 0.000000 0.011520 0.000000
# 3 -0.004839 -0.000635 0.015155 0.000000 -0.002906 0.000000
# 4 0.000000 0.000000 0.000000 0.028219 0.000000 0.000022
# 5 -0.016810 0.011520 -0.002906 0.000000 0.049525 0.000000
# 6 0.000000 0.000000 0.000000 0.000022 0.000000 0.017956
#
#
# Mechanical properties :
#
#
# Convention : Reuss Voigt Hill
#
# Bulk Modulus (GPa) = 62.08085 80.98306 71.53195
# Shear Modulus (GPa) = 26.62686 37.60286 32.11486
#
# Velocity S-wave (km/s) = 3.30302 3.92520 3.62747
# Velocity P-wave (km/s) = 6.32323 7.32970 6.84499
#
# Compressibility (1/GPa) = 0.01610803
#
# Stress axis : x y z
#
# Youngs Moduli (GPa) = 42.05806 80.14342 65.98611
#
# Poissons Ratio (x) = 0.97586 0.31929
# Poissons Ratio (y) = 0.51212 0.04192
# Poissons Ratio (z) = 0.20351 0.05092
#
# Static dielectric constant tensor:
#      x y z
#    x 1.974860 0.000000 -0.054740 
#    y 0.000000 1.936750 0.000000 
#    z -0.054740 0.000000 2.041430 
# 
# From -- ./inp_files/72689.got.cif
#   From: 2010.05.17/outbox.cif.g08.bks.cpg/sg15_37_cif.got.tgz:72689.got - 2010.06.03 18:47:42.
