data_PCOD9293517
_publ_section_title
;
Structure prediction by ZEFSAII (Michael W. Deem and Ramdas Pophale) SiO2 
 PCOD9293517
Probable space group: C 2/C
;
_chemical_formula_sum "Si O2"
_cell_formula_units_Z 48
_cell_length_a 13.639237
_cell_length_b 10.990692
_cell_length_c 19.166585
_cell_angle_alpha 90.000000
_cell_angle_beta 133.997110
_cell_angle_gamma 90.000000
_cell_volume 2066.879206
_symmetry_space_group_name_H-M "C 2/C"
_symmetry_group_IT_number 15
_symmetry_cell_setting 'monoclinic'
loop_
_space_group_symop_operation_xyz
x,y,z
-x,y,1/2-z
-x,-y,-z
x,-y,1/2+z
1/2+x,1/2+y,z
1/2-x,1/2+y,1/2-z
1/2-x,1/2-y,-z
1/2+x,1/2-y,1/2+z
loop_
_atom_site_type_symbol
_atom_site_label
_atom_site_fract_x
_atom_site_fract_y
_atom_site_fract_z
Si Si1 0.195144 0.497913 0.211331
Si Si2 0.886719 0.628145 0.453538
Si Si3 0.652577 0.181504 0.806067
Si Si4 0.022988 0.695407 0.390672
Si Si5 0.999788 0.027374 0.832793
Si Si6 0.713183 0.015925 0.962122
O O1 0.145513 0.504507 0.106208
O O2 0.167314 0.371901 0.236135
O O3 0.101752 0.606798 0.196063
O O4 0.356635 0.520110 0.292414
O O5 0.756239 0.712340 0.374172
O O6 0.001827 0.695372 0.464548
O O7 0.882455 0.593415 0.531914
O O8 0.500000 0.216874 0.750000
O O9 0.694049 0.069803 0.876685
O O10 0.008730 0.828194 0.352758
O O11 0.158884 0.621665 0.439274
O O12 0.000000 0.008834 0.750000
O O13 0.133246 0.971669 0.934798
#
# Coordination Sequence:
#
# PCOD9293517 Si02
#       6
#     8   8   8   8   8   8
#     4  10  22  46  66  94 132 178 220 272 334 394
#     4  10  23  42  67  97 131 175 225 266 335 392
#     4  12  24  44  69 100 132 180 225 276 333 398
#     4  10  23  42  67  97 131 175 225 266 335 392
#     4  12  24  44  69 100 132 180 225 276 333 398
#     4  12  25  43  66 102 136 174 222 284 328 400
#
# _framework density 23.223419
#
# number of rings (size 3 to 8) (size 9 to 14) (size 15 to 20)
#    1.000    0.000    5.000    1.500    4.667    0.667 
#    0.000    0.000    0.000    0.000    0.000    0.000 
#    0.000    0.000    0.000    0.000    0.000    0.000 
#
# Total GULP energy -134134.983937 kJ/mol
# GULP energy per Si atom -5588.957664 kJ/mol
# Density = 2.317056 g / cm^3
# Si number density = 23.223419 Si / 1000 Ang^3
#
#
#
# Elastic Constant Matrix: (Units=GPa)
#
#
# Indices 1 2 3 4 5 6 
#
# 1 62.2566 0.1292 14.4347 0.0000 13.1987 0.0000
# 2 0.1292 49.0987 -2.3530 0.0000 -10.3606 0.0000
# 3 14.4347 -2.3530 69.8126 0.0000 6.5095 0.0000
# 4 0.0000 0.0000 0.0000 39.0383 0.0000 7.5187
# 5 13.1987 -10.3606 6.5095 0.0000 30.9231 0.0000
# 6 0.0000 0.0000 0.0000 7.5187 0.0000 9.1893
#
#
#
# Elastic Compliance Matrix: (Units=1/GPa)
#
#
# Indices 1 2 3 4 5 6 
#
# 1 0.018458 -0.001853 -0.003148 0.000000 -0.007836 0.000000
# 2 -0.001853 0.022103 0.000371 0.000000 0.008118 0.000000
# 3 -0.003148 0.000371 0.015148 0.000000 -0.001721 0.000000
# 4 0.000000 0.000000 0.000000 0.030408 0.000000 -0.024880
# 5 -0.007836 0.008118 -0.001721 0.000000 0.038765 0.000000
# 6 0.000000 0.000000 0.000000 -0.024880 0.000000 0.129179
#
#
# Mechanical properties :
#
#
# Convention : Reuss Voigt Hill
#
# Bulk Modulus (GPa) = 21.52926 22.84329 22.18627
# Shear Modulus (GPa) = 17.93380 27.09394 22.51387
#
# Velocity S-wave (km/s) = 2.78192 3.41935 3.11697
# Velocity P-wave (km/s) = 4.42825 5.04450 4.74638
#
# Compressibility (1/GPa) = 0.04644842
#
# Stress axis : x y z
#
# Youngs Moduli (GPa) = 54.17811 45.24303 66.01560
#
# Poissons Ratio (x) = 0.08384 0.20783
# Poissons Ratio (y) = 0.10039 -0.02450
# Poissons Ratio (z) = 0.17056 -0.01679
#
# Static dielectric constant tensor:
#      x y z
#    x 1.893040 0.000000 0.031630 
#    y 0.000000 1.860900 0.000000 
#    z 0.031630 0.000000 1.859290 
# 
# From -- ./inp_files/243997.got.cif
#   From: 2010.05.17/outbox.cif.g08.bks.cpg/sg15_122_cif.got.tgz:243997.got - 2010.06.03 18:47:42.
