data_PCOD9293837
_publ_section_title
;
Structure prediction by ZEFSAII (Michael W. Deem and Ramdas Pophale) SiO2 
 PCOD9293837
Probable space group: C 2/C
;
_chemical_formula_sum "Si O2"
_cell_formula_units_Z 44
_cell_length_a 10.563332
_cell_length_b 22.674404
_cell_length_c 11.508481
_cell_angle_alpha 90.000000
_cell_angle_beta 42.755158
_cell_angle_gamma 90.000000
_cell_volume 1871.282761
_symmetry_space_group_name_H-M "C 2/C"
_symmetry_group_IT_number 15
_symmetry_cell_setting 'monoclinic'
loop_
_space_group_symop_operation_xyz
x,y,z
-x,y,1/2-z
-x,-y,-z
x,-y,1/2+z
1/2+x,1/2+y,z
1/2-x,1/2+y,1/2-z
1/2-x,1/2-y,-z
1/2+x,1/2-y,1/2+z
loop_
_atom_site_type_symbol
_atom_site_label
_atom_site_fract_x
_atom_site_fract_y
_atom_site_fract_z
Si Si1 0.946848 0.936319 0.915795
Si Si2 0.520836 0.801864 0.373158
Si Si3 0.588705 0.091385 0.971209
Si Si4 0.500000 0.641534 0.750000
Si Si5 0.566373 0.685982 0.939158
Si Si6 0.818409 0.491937 0.772726
O O1 0.000000 0.921133 0.750000
O O2 0.128856 0.968878 0.841918
O O3 0.921615 0.876741 0.005832
O O4 0.764683 0.978127 0.053978
O O5 0.500000 0.815465 0.250000
O O6 0.469158 0.853535 0.498550
O O7 0.453785 0.737376 0.453165
O O8 0.738547 0.798601 0.249344
O O9 0.806613 0.105306 0.856626
O O10 0.604446 0.046154 0.854063
O O11 0.468555 0.059880 0.152375
O O12 0.445583 0.677736 0.903885
#
# Coordination Sequence:
#
# PCOD9293837 Si02
#       6
#     8   8   8   4   8   8
#     4  11  24  43  72 102 149 189 243 304 367 428
#     4  11  24  43  72 107 145 182 244 306 364 437
#     4  10  23  43  74 105 144 191 245 301 362 435
#     4  10  22  48  72 100 152 186 246 304 362 446
#     4  11  25  44  71 104 142 194 240 301 370 423
#     4  10  23  44  68 107 138 194 247 292 370 426
#
# _framework density 23.513280999999999
#
# number of rings (size 3 to 8) (size 9 to 14) (size 15 to 20)
#    0.000    1.455    3.636    1.091    6.364    2.909 
#    0.000    9.091    4.000    0.000    0.000    0.000 
#    0.000    0.000    0.000    0.000    0.000    0.000 
#
# Total GULP energy -122679.403857 kJ/mol
# GULP energy per Si atom -5576.336539 kJ/mol
# Density = 2.345976 g / cm^3
# Si number density = 23.513281 Si / 1000 Ang^3
#
#
#
# Elastic Constant Matrix: (Units=GPa)
#
#
# Indices 1 2 3 4 5 6 
#
# 1 108.1485 5.9126 12.6579 0.0000 27.8741 0.0000
# 2 5.9126 147.2157 40.7088 0.0000 -14.4192 0.0000
# 3 12.6579 40.7088 112.4138 0.0000 7.7959 0.0000
# 4 0.0000 0.0000 0.0000 13.5226 0.0000 -8.7097
# 5 27.8741 -14.4192 7.7959 0.0000 58.7607 0.0000
# 6 0.0000 0.0000 0.0000 -8.7097 0.0000 17.8707
#
#
#
# Elastic Compliance Matrix: (Units=1/GPa)
#
#
# Indices 1 2 3 4 5 6 
#
# 1 0.010693 -0.000783 -0.000561 0.000000 -0.005190 0.000000
# 2 -0.000783 0.007909 -0.002963 0.000000 0.002705 0.000000
# 3 -0.000561 -0.002963 0.010157 0.000000 -0.001809 0.000000
# 4 0.000000 0.000000 0.000000 0.107786 0.000000 0.052532
# 5 -0.005190 0.002705 -0.001809 0.000000 0.020384 0.000000
# 6 0.000000 0.000000 0.000000 0.052532 0.000000 0.081560
#
#
# Mechanical properties :
#
#
# Convention : Reuss Voigt Hill
#
# Bulk Modulus (GPa) = 49.63998 54.03737 51.83868
# Shear Modulus (GPa) = 19.69921 38.59738 29.14830
#
# Velocity S-wave (km/s) = 2.89760 4.05596 3.52469
# Velocity P-wave (km/s) = 5.68789 6.70566 6.21764
#
# Compressibility (1/GPa) = 0.02014505
#
# Stress axis : x y z
#
# Youngs Moduli (GPa) = 93.52261 126.44438 98.45006
#
# Poissons Ratio (x) = 0.09897 0.05519
# Poissons Ratio (y) = 0.07321 0.29175
# Poissons Ratio (z) = 0.05243 0.37471
#
# Static dielectric constant tensor:
#      x y z
#    x 1.982890 0.000000 -0.004500 
#    y 0.000000 2.126520 0.000000 
#    z -0.004500 0.000000 1.881720 
# 
# From -- ./inp_files/91116.got.cif
#   From: 2010.05.17/outbox.cif.g08.bks.cpg/sg15_46_cif.got.tgz:91116.got - 2010.06.03 18:47:42.
