data_PCOD9293866
_publ_section_title
;
Structure prediction by ZEFSAII (Michael W. Deem and Ramdas Pophale) SiO2 
 PCOD9293866
Probable space group: C 2/C
;
_chemical_formula_sum "Si O2"
_cell_formula_units_Z 48
_cell_length_a 13.849390
_cell_length_b 13.121815
_cell_length_c 12.898757
_cell_angle_alpha 90.000000
_cell_angle_beta 132.112300
_cell_angle_gamma 90.000000
_cell_volume 1738.913269
_symmetry_space_group_name_H-M "C 2/C"
_symmetry_group_IT_number 15
_symmetry_cell_setting 'monoclinic'
loop_
_space_group_symop_operation_xyz
x,y,z
-x,y,1/2-z
-x,-y,-z
x,-y,1/2+z
1/2+x,1/2+y,z
1/2-x,1/2+y,1/2-z
1/2-x,1/2-y,-z
1/2+x,1/2-y,1/2+z
loop_
_atom_site_type_symbol
_atom_site_label
_atom_site_fract_x
_atom_site_fract_y
_atom_site_fract_z
Si Si1 0.102487 0.295913 0.194861
Si Si2 0.321472 0.157378 0.467803
Si Si3 0.590698 0.436105 0.912368
Si Si4 0.065590 0.105156 0.632450
Si Si5 0.730826 0.772784 0.866345
Si Si6 0.314550 0.022706 0.277344
O O1 0.215113 0.233820 0.338727
O O2 0.948323 0.288530 0.105925
O O3 0.139527 0.260269 0.104295
O O4 0.126244 0.417152 0.217018
O O5 0.264129 0.407893 0.514824
O O6 0.442740 0.390470 0.498358
O O7 0.374971 0.082364 0.417710
O O8 0.500000 0.406645 0.750000
O O9 0.561582 0.556085 0.908797
O O10 0.120380 0.202014 0.731879
O O11 0.174614 0.015211 0.721074
O O12 0.696747 0.889515 0.816194
O O13 0.750000 0.750000 0.000000
#
# Coordination Sequence:
#
# PCOD9293866 Si02
#       6
#     8   8   8   8   8   8
#     4  10  25  51  79 126 170 225 302 369 434 555
#     4  11  24  51  80 121 169 222 293 365 455 519
#     4  11  24  47  83 116 165 222 285 372 442 523
#     4  10  24  48  77 126 162 215 310 355 441 553
#     4  10  24  50  79 122 176 236 289 376 450 541
#     4  10  22  48  79 112 168 222 290 358 434 540
#
# _framework density 27.603446999999999
#
# number of rings (size 3 to 8) (size 9 to 14) (size 15 to 20)
#    0.000    1.667    1.667    0.500    2.333    4.000 
#   15.000   18.333    0.000    1.000    0.000    0.000 
#    0.000    0.000    0.000    0.000    0.000    0.000 
#
# Total GULP energy -134535.667410 kJ/mol
# GULP energy per Si atom -5605.652809 kJ/mol
# Density = 2.754062 g / cm^3
# Si number density = 27.603447 Si / 1000 Ang^3
#
#
#
# Elastic Constant Matrix: (Units=GPa)
#
#
# Indices 1 2 3 4 5 6 
#
# 1 160.8809 68.6844 82.7313 0.0000 13.7263 0.0000
# 2 68.6844 210.4391 63.5131 0.0000 -3.9650 0.0000
# 3 82.7313 63.5131 205.3246 0.0000 -4.3209 0.0000
# 4 0.0000 0.0000 0.0000 39.9394 0.0000 3.6895
# 5 13.7263 -3.9650 -4.3209 0.0000 49.1768 0.0000
# 6 0.0000 0.0000 0.0000 3.6895 0.0000 61.7642
#
#
#
# Elastic Compliance Matrix: (Units=1/GPa)
#
#
# Indices 1 2 3 4 5 6 
#
# 1 0.008885 -0.002047 -0.003008 0.000000 -0.002909 0.000000
# 2 -0.002047 0.005717 -0.000924 0.000000 0.000951 0.000000
# 3 -0.003008 -0.000924 0.006396 0.000000 0.001327 0.000000
# 4 0.000000 0.000000 0.000000 0.025177 0.000000 -0.001504
# 5 -0.002909 0.000951 0.001327 0.000000 0.021340 0.000000
# 6 0.000000 0.000000 0.000000 -0.001504 0.000000 0.016280
#
#
# Mechanical properties :
#
#
# Convention : Reuss Voigt Hill
#
# Bulk Modulus (GPa) = 110.61290 111.83358 111.22324
# Shear Modulus (GPa) = 50.62525 54.29047 52.45786
#
# Velocity S-wave (km/s) = 4.28719 4.43967 4.36410
# Velocity P-wave (km/s) = 8.04150 8.17822 8.11015
#
# Compressibility (1/GPa) = 0.00904054
#
# Stress axis : x y z
#
# Youngs Moduli (GPa) = 112.55391 174.92631 156.34858
#
# Poissons Ratio (x) = 0.35804 0.47029
# Poissons Ratio (y) = 0.23037 0.14441
# Poissons Ratio (z) = 0.33856 0.16157
#
# Static dielectric constant tensor:
#      x y z
#    x 2.193370 0.000000 0.028870 
#    y 0.000000 2.194930 0.000000 
#    z 0.028870 0.000000 2.225370 
# 
# From -- ./inp_files/167372.got.cif
#   From: 2010.05.17/outbox.cif.g08.bks.cpg/sg15_84_cif.got.tgz:167372.got - 2010.06.03 18:47:42.
