data_PCOD9293078
_publ_section_title
;
Structure prediction by ZEFSAII (Michael W. Deem and Ramdas Pophale) SiO2 
 PCOD9293078
Probable space group: C 2/C
;
_chemical_formula_sum "Si O2"
_cell_formula_units_Z 44
_cell_length_a 16.155433
_cell_length_b 7.293693
_cell_length_c 18.479622
_cell_angle_alpha 90.000000
_cell_angle_beta 117.147665
_cell_angle_gamma 90.000000
_cell_volume 1937.616967
_symmetry_space_group_name_H-M "C 2/C"
_symmetry_group_IT_number 15
_symmetry_cell_setting 'monoclinic'
loop_
_space_group_symop_operation_xyz
x,y,z
-x,y,1/2-z
-x,-y,-z
x,-y,1/2+z
1/2+x,1/2+y,z
1/2-x,1/2+y,1/2-z
1/2-x,1/2-y,-z
1/2+x,1/2-y,1/2+z
loop_
_atom_site_type_symbol
_atom_site_label
_atom_site_fract_x
_atom_site_fract_y
_atom_site_fract_z
Si Si1 0.000000 0.569166 0.250000
Si Si2 0.131951 0.639001 0.493046
Si Si3 0.543703 0.175200 0.887498
Si Si4 0.840804 0.030332 0.594816
Si Si5 0.649792 0.328948 0.242780
Si Si6 0.148099 0.167734 0.152960
O O1 0.065243 0.438747 0.323977
O O2 0.066096 0.690458 0.225222
O O3 0.062146 0.469586 0.458565
O O4 0.233092 0.542333 0.529524
O O5 0.134613 0.765092 0.565355
O O6 0.118735 0.781955 0.422410
O O7 0.605993 0.355969 0.915009
O O8 0.436474 0.232523 0.840507
O O9 0.848755 0.041182 0.684910
O O10 0.749272 0.228523 0.281447
O O11 0.637502 0.453682 0.167283
#
# Coordination Sequence:
#
# PCOD9293078 Si02
#       6
#     4   8   8   8   8   8
#     4  12  24  42  74  92 138 180 236 272 326 408
#     4  10  23  45  67 102 138 175 224 280 332 401
#     4  12  23  42  68 105 130 184 221 279 335 403
#     4  10  22  44  72  96 134 181 228 270 331 409
#     4  11  23  47  65 100 133 182 225 282 332 406
#     4  11  25  42  69 100 141 170 224 281 346 386
#
# _framework density 22.708307000000001
#
# number of rings (size 3 to 8) (size 9 to 14) (size 15 to 20)
#    0.000    1.091    1.818    4.364    0.000    0.727 
#    9.818    0.000    0.000    0.000    0.000    0.000 
#    0.000    0.000    0.000    0.000    0.000    0.000 
#
# Total GULP energy -123016.420399 kJ/mol
# GULP energy per Si atom -5591.655473 kJ/mol
# Density = 2.265662 g / cm^3
# Si number density = 22.708307 Si / 1000 Ang^3
#
#
#
# Elastic Constant Matrix: (Units=GPa)
#
#
# Indices 1 2 3 4 5 6 
#
# 1 102.2972 65.1367 33.2286 0.0000 3.2409 0.0000
# 2 65.1367 105.3763 34.6836 0.0000 12.2003 0.0000
# 3 33.2286 34.6836 58.6161 0.0000 9.3830 0.0000
# 4 0.0000 0.0000 0.0000 34.0675 0.0000 -10.9671
# 5 3.2409 12.2003 9.3830 0.0000 22.8062 0.0000
# 6 0.0000 0.0000 0.0000 -10.9671 0.0000 19.5071
#
#
#
# Elastic Compliance Matrix: (Units=1/GPa)
#
#
# Indices 1 2 3 4 5 6 
#
# 1 0.017374 -0.009680 -0.004876 0.000000 0.004716 0.000000
# 2 -0.009680 0.017474 -0.003828 0.000000 -0.006397 0.000000
# 3 -0.004876 -0.003828 0.023177 0.000000 -0.006795 0.000000
# 4 0.000000 0.000000 0.000000 0.035840 0.000000 0.020150
# 5 0.004716 -0.006397 -0.006795 0.000000 0.049395 0.000000
# 6 0.000000 0.000000 0.000000 0.020150 0.000000 0.062592
#
#
# Mechanical properties :
#
#
# Convention : Reuss Voigt Hill
#
# Bulk Modulus (GPa) = 47.04420 59.15416 53.09918
# Shear Modulus (GPa) = 20.02356 24.15888 22.09122
#
# Velocity S-wave (km/s) = 2.97269 3.26525 3.12240
# Velocity P-wave (km/s) = 5.70475 6.34996 6.03598
#
# Compressibility (1/GPa) = 0.02125660
#
# Stress axis : x y z
#
# Youngs Moduli (GPa) = 57.55807 57.22716 43.14649
#
# Poissons Ratio (x) = 0.55399 0.21037
# Poissons Ratio (y) = 0.55719 0.16516
# Poissons Ratio (z) = 0.28064 0.21906
#
# Static dielectric constant tensor:
#      x y z
#    x 1.836130 0.000000 -0.022210 
#    y 0.000000 1.808740 0.000000 
#    z -0.022210 0.000000 1.876720 
# 
# From -- ./inp_files/246421.got.cif
#   From: 2010.05.17/outbox.cif.g08.bks.cpg/sg15_124_cif.got.tgz:246421.got - 2010.06.03 18:47:42.
