data_PCOD9293725
_publ_section_title
;
Structure prediction by ZEFSAII (Michael W. Deem and Ramdas Pophale) SiO2 
 PCOD9293725
Probable space group: C 2/C
;
_chemical_formula_sum "Si O2"
_cell_formula_units_Z 60
_cell_length_a 8.754931
_cell_length_b 25.802034
_cell_length_c 12.127590
_cell_angle_alpha 90.000000
_cell_angle_beta 115.039541
_cell_angle_gamma 90.000000
_cell_volume 2482.087017
_symmetry_space_group_name_H-M "C 2/C"
_symmetry_group_IT_number 15
_symmetry_cell_setting 'monoclinic'
loop_
_space_group_symop_operation_xyz
x,y,z
-x,y,1/2-z
-x,-y,-z
x,-y,1/2+z
1/2+x,1/2+y,z
1/2-x,1/2+y,1/2-z
1/2-x,1/2-y,-z
1/2+x,1/2-y,1/2+z
loop_
_atom_site_type_symbol
_atom_site_label
_atom_site_fract_x
_atom_site_fract_y
_atom_site_fract_z
Si Si1 0.425065 0.057009 0.508718
Si Si2 0.137280 0.961229 0.102151
Si Si3 0.332973 0.843718 0.436538
Si Si4 0.824218 0.946088 0.756406
Si Si5 0.316299 0.307886 0.651976
Si Si6 0.103144 0.692297 0.883836
Si Si7 0.500000 0.385968 0.250000
Si Si8 0.316023 0.141076 0.180265
O O1 0.288100 0.055340 0.566440
O O2 0.567447 0.101519 0.557239
O O3 0.308284 0.073593 0.371418
O O4 0.500000 0.000000 0.500000
O O5 0.043132 0.920349 0.153583
O O6 0.231171 0.998959 0.216408
O O7 0.000000 0.000000 0.000000
O O8 0.451807 0.799551 0.424144
O O9 0.304489 0.835736 0.556452
O O10 0.159135 0.850378 0.322031
O O11 0.823372 0.903846 0.851897
O O12 0.000000 0.952360 0.750000
O O13 0.500000 0.327011 0.750000
O O14 0.249067 0.328520 0.512248
O O15 0.329632 0.246245 0.641469
O O16 0.201953 0.320823 0.722107
O O17 0.000000 0.665427 0.750000
O O18 0.500000 0.115872 0.250000
#
# Coordination Sequence:
#
# PCOD9293725 Si02
#       8
#     8   8   8   8   8   8   4   8
#     4  12  25  40  64  97 138 197 244 296 361 433
#     4  12  23  43  65  97 148 197 253 303 366 443
#     4  12  27  46  70 108 147 195 249 306 386 450
#     4  12  23  39  63  97 133 185 242 297 353 421
#     4  10  22  46  77 107 141 189 242 301 381 460
#     4  10  23  45  76 106 146 188 236 303 382 468
#     4  12  28  46  66 106 152 202 252 320 382 442
#     4  12  23  43  72 104 139 184 245 306 363 451
#
# _framework density 24.173207999999999
#
# number of rings (size 3 to 8) (size 9 to 14) (size 15 to 20)
#    0.000    0.533    4.667    3.600    1.867    2.133 
#    0.000    2.667    5.867    0.000    0.000    0.000 
#    0.000    0.000    0.000    0.000    0.000    0.000 
#
# Total GULP energy -167543.236689 kJ/mol
# GULP energy per Si atom -5584.774556 kJ/mol
# Density = 2.411819 g / cm^3
# Si number density = 24.173208 Si / 1000 Ang^3
#
#
#
# Elastic Constant Matrix: (Units=GPa)
#
#
# Indices 1 2 3 4 5 6 
#
# 1 127.7873 30.2073 48.9234 0.0000 -19.1208 0.0000
# 2 30.2073 71.7217 11.3760 0.0000 -18.7297 0.0000
# 3 48.9234 11.3760 145.7628 0.0000 5.3000 0.0000
# 4 0.0000 0.0000 0.0000 31.9541 0.0000 -7.6204
# 5 -19.1208 -18.7297 5.3000 0.0000 62.1914 0.0000
# 6 0.0000 0.0000 0.0000 -7.6204 0.0000 39.8228
#
#
#
# Elastic Compliance Matrix: (Units=1/GPa)
#
#
# Indices 1 2 3 4 5 6 
#
# 1 0.010183 -0.003127 -0.003264 0.000000 0.002467 0.000000
# 2 -0.003127 0.016363 -0.000373 0.000000 0.003998 0.000000
# 3 -0.003264 -0.000373 0.008050 0.000000 -0.001802 0.000000
# 4 0.000000 0.000000 0.000000 0.032791 0.000000 0.006275
# 5 0.002467 0.003998 -0.001802 0.000000 0.018196 0.000000
# 6 0.000000 0.000000 0.000000 0.006275 0.000000 0.026312
#
#
# Mechanical properties :
#
#
# Convention : Reuss Voigt Hill
#
# Bulk Modulus (GPa) = 47.46097 58.47613 52.96855
# Shear Modulus (GPa) = 37.75122 43.77799 40.76461
#
# Velocity S-wave (km/s) = 3.95612 4.26022 4.11098
# Velocity P-wave (km/s) = 6.36743 6.96005 6.67032
#
# Compressibility (1/GPa) = 0.02106994
#
# Stress axis : x y z
#
# Youngs Moduli (GPa) = 98.19984 61.11318 124.21668
#
# Poissons Ratio (x) = 0.19110 0.40539
# Poissons Ratio (y) = 0.30707 0.04632
# Poissons Ratio (z) = 0.32048 0.02279
#
# Static dielectric constant tensor:
#      x y z
#    x 1.956420 0.000000 0.019830 
#    y 0.000000 1.962210 0.000000 
#    z 0.019830 0.000000 2.047670 
# 
# From -- ./inp_files/82633.got.cif
#   From: 2010.05.17/outbox.cif.g08.bks.cpg/sg15_42_cif.got.tgz:82633.got - 2010.06.03 18:47:42.
