data_PCOD9293795
_publ_section_title
;
Structure prediction by ZEFSAII (Michael W. Deem and Ramdas Pophale) SiO2 
 PCOD9293795
Probable space group: C 2/C
;
_chemical_formula_sum "Si O2"
_cell_formula_units_Z 40
_cell_length_a 21.763974
_cell_length_b 9.518452
_cell_length_c 13.043633
_cell_angle_alpha 90.000000
_cell_angle_beta 138.826819
_cell_angle_gamma 90.000000
_cell_volume 1778.899807
_symmetry_space_group_name_H-M "C 2/C"
_symmetry_group_IT_number 15
_symmetry_cell_setting 'monoclinic'
loop_
_space_group_symop_operation_xyz
x,y,z
-x,y,1/2-z
-x,-y,-z
x,-y,1/2+z
1/2+x,1/2+y,z
1/2-x,1/2+y,1/2-z
1/2-x,1/2-y,-z
1/2+x,1/2-y,1/2+z
loop_
_atom_site_type_symbol
_atom_site_label
_atom_site_fract_x
_atom_site_fract_y
_atom_site_fract_z
Si Si1 0.202053 0.961915 0.104764
Si Si2 0.649417 0.366778 0.815006
Si Si3 0.302702 0.826068 0.840068
Si Si4 0.495594 0.611513 0.626880
Si Si5 0.504713 0.157375 0.550163
O O1 0.223817 0.835649 0.209546
O O2 0.281235 0.078724 0.214539
O O3 0.189103 0.888158 0.978803
O O4 0.104852 0.037273 0.008812
O O5 0.733847 0.381010 0.841472
O O6 0.573105 0.491166 0.708072
O O7 0.594228 0.220849 0.722520
O O8 0.411746 0.828022 0.001940
O O9 0.500000 0.662454 0.750000
O O10 0.505371 0.735494 0.558217
O O11 0.500000 0.000000 0.500000
#
# Coordination Sequence:
#
# PCOD9293795 Si02
#       5
#     8   8   8   8   8
#     4  11  24  45  72 105 142 194 236 300 365 438
#     4  11  23  47  74  99 146 194 242 288 374 443
#     4  12  24  42  71 104 142 186 245 298 359 430
#     4  10  22  47  73  96 138 200 239 281 372 445
#     4  12  25  44  69 107 148 183 241 312 360 423
#
# _framework density 22.485807999999999
#
# number of rings (size 3 to 8) (size 9 to 14) (size 15 to 20)
#    0.000    0.800    4.000    3.600    0.000    0.000 
#    7.200    3.000    0.000    0.000    0.000    0.000 
#    0.000    0.000    0.000    0.000    0.000    0.000 
#
# Total GULP energy -111859.609976 kJ/mol
# GULP energy per Si atom -5592.980499 kJ/mol
# Density = 2.243463 g / cm^3
# Si number density = 22.485808 Si / 1000 Ang^3
#
#
#
# Elastic Constant Matrix: (Units=GPa)
#
#
# Indices 1 2 3 4 5 6 
#
# 1 123.5823 21.8884 41.4115 0.0000 17.5022 0.0000
# 2 21.8884 154.2851 52.2356 0.0000 -16.6695 0.0000
# 3 41.4115 52.2356 98.1576 0.0000 -7.0346 0.0000
# 4 0.0000 0.0000 0.0000 39.8188 0.0000 -0.5195
# 5 17.5022 -16.6695 -7.0346 0.0000 32.9135 0.0000
# 6 0.0000 0.0000 0.0000 -0.5195 0.0000 25.9457
#
#
#
# Elastic Compliance Matrix: (Units=1/GPa)
#
#
# Indices 1 2 3 4 5 6 
#
# 1 0.010793 -0.000713 -0.004683 0.000000 -0.007101 0.000000
# 2 -0.000713 0.008289 -0.003841 0.000000 0.003756 0.000000
# 3 -0.004683 -0.003841 0.014468 0.000000 0.003637 0.000000
# 4 0.000000 0.000000 0.000000 0.025120 0.000000 0.000503
# 5 -0.007101 0.003756 0.003637 0.000000 0.036839 0.000000
# 6 0.000000 0.000000 0.000000 0.000503 0.000000 0.038552
#
#
# Mechanical properties :
#
#
# Convention : Reuss Voigt Hill
#
# Bulk Modulus (GPa) = 66.33020 67.45510 66.89265
# Shear Modulus (GPa) = 31.73388 37.10158 34.41773
#
# Velocity S-wave (km/s) = 3.76078 4.06643 3.91659
# Velocity P-wave (km/s) = 6.95850 7.21885 7.08987
#
# Compressibility (1/GPa) = 0.01507609
#
# Stress axis : x y z
#
# Youngs Moduli (GPa) = 92.65286 120.64268 69.11766
#
# Poissons Ratio (x) = 0.08601 0.32367
# Poissons Ratio (y) = 0.06606 0.26548
# Poissons Ratio (z) = 0.43389 0.46340
#
# Static dielectric constant tensor:
#      x y z
#    x 1.861650 0.000000 -0.026970 
#    y 0.000000 1.842090 0.000000 
#    z -0.026970 0.000000 1.892580 
# 
# From -- ./inp_files/172131.got.cif
#   From: 2010.05.17/outbox.cif.g08.bks.cpg/sg15_87_cif.got.tgz:172131.got - 2010.06.03 18:47:42.
