data_PCOD9293253
_publ_section_title
;
Structure prediction by ZEFSAII (Michael W. Deem and Ramdas Pophale) SiO2 
 PCOD9293253
Probable space group: C 2/C
;
_chemical_formula_sum "Si O2"
_cell_formula_units_Z 48
_cell_length_a 16.203645
_cell_length_b 26.242948
_cell_length_c 9.439104
_cell_angle_alpha 90.000000
_cell_angle_beta 146.567180
_cell_angle_gamma 90.000000
_cell_volume 2211.440638
_symmetry_space_group_name_H-M "C 2/C"
_symmetry_group_IT_number 15
_symmetry_cell_setting 'monoclinic'
loop_
_space_group_symop_operation_xyz
x,y,z
-x,y,1/2-z
-x,-y,-z
x,-y,1/2+z
1/2+x,1/2+y,z
1/2-x,1/2+y,1/2-z
1/2-x,1/2-y,-z
1/2+x,1/2-y,1/2+z
loop_
_atom_site_type_symbol
_atom_site_label
_atom_site_fract_x
_atom_site_fract_y
_atom_site_fract_z
Si Si1 0.015821 0.053234 0.604581
Si Si2 0.705376 0.198892 0.589775
Si Si3 0.000000 0.506335 0.250000
Si Si4 0.759494 0.581997 0.463788
Si Si5 0.000000 0.331366 0.250000
Si Si6 0.792845 0.585380 0.828560
Si Si7 0.466843 0.237443 0.428330
O O1 0.878519 0.084372 0.340857
O O2 0.000000 0.048315 0.750000
O O3 0.176701 0.074349 0.788256
O O4 0.000000 0.000000 0.500000
O O5 0.661684 0.143814 0.585313
O O6 0.627795 0.239830 0.583649
O O7 0.635463 0.208628 0.335532
O O8 0.881635 0.209815 0.835860
O O9 0.137262 0.468385 0.411830
O O10 0.068875 0.545780 0.463943
O O11 0.714341 0.579890 0.564007
O O12 0.862761 0.630927 0.586312
O O13 0.025136 0.295672 0.420342
#
# Coordination Sequence:
#
# PCOD9293253 Si02
#       7
#     8   8   4   8   4   8   8
#     4  12  27  46  67  97 142 185 232 287 346 413
#     4  10  23  44  71  97 139 180 239 285 362 418
#     4  11  24  38  76 100 144 180 236 279 344 398
#     4  11  25  44  66 106 140 185 232 290 342 421
#     4  11  24  42  74  98 144 170 244 287 358 418
#     4  12  24  44  72 100 140 188 234 283 346 423
#     4  10  22  45  67 101 136 180 227 302 350 424
#
# _framework density 21.705309
#
# number of rings (size 3 to 8) (size 9 to 14) (size 15 to 20)
#    0.000    1.000    3.333    3.000    2.333    3.333 
#    6.000    0.000    0.000    0.000    0.000    0.000 
#    0.000    0.000    0.000    0.000    0.000    0.000 
#
# Total GULP energy -134126.081900 kJ/mol
# GULP energy per Si atom -5588.586746 kJ/mol
# Density = 2.165591 g / cm^3
# Si number density = 21.705309 Si / 1000 Ang^3
#
#
#
# Elastic Constant Matrix: (Units=GPa)
#
#
# Indices 1 2 3 4 5 6 
#
# 1 107.0082 2.5782 32.5334 0.0000 -24.0841 0.0000
# 2 2.5782 54.0778 14.7909 0.0000 -8.5423 0.0000
# 3 32.5334 14.7909 83.6329 0.0000 -18.6252 0.0000
# 4 0.0000 0.0000 0.0000 25.9606 0.0000 -2.9167
# 5 -24.0841 -8.5423 -18.6252 0.0000 47.0269 0.0000
# 6 0.0000 0.0000 0.0000 -2.9167 0.0000 16.6448
#
#
#
# Elastic Compliance Matrix: (Units=1/GPa)
#
#
# Indices 1 2 3 4 5 6 
#
# 1 0.011468 0.001182 -0.003635 0.000000 0.004648 0.000000
# 2 0.001182 0.019799 -0.003318 0.000000 0.002887 0.000000
# 3 -0.003635 -0.003318 0.014706 0.000000 0.003360 0.000000
# 4 0.000000 0.000000 0.000000 0.039293 0.000000 0.006885
# 5 0.004648 0.002887 0.003360 0.000000 0.025500 0.000000
# 6 0.000000 0.000000 0.000000 0.006885 0.000000 0.061285
#
#
# Mechanical properties :
#
#
# Convention : Reuss Voigt Hill
#
# Bulk Modulus (GPa) = 29.04411 38.28043 33.66227
# Shear Modulus (GPa) = 25.63160 30.91424 28.27292
#
# Velocity S-wave (km/s) = 3.44014 3.77805 3.61304
# Velocity P-wave (km/s) = 5.40274 6.05857 5.74003
#
# Compressibility (1/GPa) = 0.03443039
#
# Stress axis : x y z
#
# Youngs Moduli (GPa) = 87.20031 50.50706 67.99878
#
# Poissons Ratio (x) = -0.05968 0.24717
# Poissons Ratio (y) = -0.10304 0.22564
# Poissons Ratio (z) = 0.31696 0.16759
#
# Static dielectric constant tensor:
#      x y z
#    x 1.806080 0.000000 0.053720 
#    y 0.000000 1.794670 0.000000 
#    z 0.053720 0.000000 1.808050 
# 
# From -- ./inp_files/43985.got.cif
#   From: 2010.05.17/outbox.cif.g08.bks.cpg/sg15_22_cif.got.tgz:43985.got - 2010.06.03 18:47:42.
