data_PCOD9293172
_publ_section_title
;
Structure prediction by ZEFSAII (Michael W. Deem and Ramdas Pophale) SiO2 
 PCOD9293172
Probable space group: C 2/C
;
_chemical_formula_sum "Si O2"
_cell_formula_units_Z 20
_cell_length_a 6.920579
_cell_length_b 17.074185
_cell_length_c 6.851888
_cell_angle_alpha 90.000000
_cell_angle_beta 120.442429
_cell_angle_gamma 90.000000
_cell_volume 698.023124
_symmetry_space_group_name_H-M "C 2/C"
_symmetry_group_IT_number 15
_symmetry_cell_setting 'monoclinic'
loop_
_space_group_symop_operation_xyz
x,y,z
-x,y,1/2-z
-x,-y,-z
x,-y,1/2+z
1/2+x,1/2+y,z
1/2-x,1/2+y,1/2-z
1/2-x,1/2-y,-z
1/2+x,1/2-y,1/2+z
loop_
_atom_site_type_symbol
_atom_site_label
_atom_site_fract_x
_atom_site_fract_y
_atom_site_fract_z
Si Si1 0.000000 0.223935 0.750000
Si Si2 0.002529 0.374082 0.481345
Si Si3 0.120937 0.918418 0.549928
O O1 0.932045 0.291015 0.548312
O O2 0.970815 0.154690 0.901023
O O3 0.246874 0.393171 0.689263
O O4 0.000000 0.373371 0.250000
O O5 0.822541 0.429918 0.493849
O O6 0.000000 0.000000 0.500000
#
# Coordination Sequence:
#
# PCOD9293172 Si02
#       3
#     4   8   8
#     4  10  22  44  76 110 162 210 260 318 396 482
#     4  10  22  46  78 117 156 207 267 325 390 477
#     4  10  23  46  75 114 164 207 260 328 399 473
#
# _framework density 28.652343999999999
#
# number of rings (size 3 to 8) (size 9 to 14) (size 15 to 20)
#    0.000    2.400    0.000    4.800    0.000    8.000 
#   10.800    8.000    0.000    0.000    0.000    0.000 
#    0.000   12.800    0.000    0.000    0.000    0.000 
#
# Total GULP energy -55806.547129 kJ/mol
# GULP energy per Si atom -5580.654713 kJ/mol
# Density = 2.858713 g / cm^3
# Si number density = 28.652344 Si / 1000 Ang^3
#
#
#
# Elastic Constant Matrix: (Units=GPa)
#
#
# Indices 1 2 3 4 5 6 
#
# 1 155.2045 91.4268 82.1711 0.0000 -13.7295 0.0000
# 2 91.4268 254.2297 89.8117 0.0000 -4.3631 0.0000
# 3 82.1711 89.8117 354.2975 0.0000 -34.4921 0.0000
# 4 0.0000 0.0000 0.0000 54.1378 0.0000 12.0051
# 5 -13.7295 -4.3631 -34.4921 0.0000 36.9584 0.0000
# 6 0.0000 0.0000 0.0000 12.0051 0.0000 81.9070
#
#
#
# Elastic Compliance Matrix: (Units=1/GPa)
#
#
# Indices 1 2 3 4 5 6 
#
# 1 0.008840 -0.002731 -0.001176 0.000000 0.001864 0.000000
# 2 -0.002731 0.005175 -0.000789 0.000000 -0.001140 0.000000
# 3 -0.001176 -0.000789 0.003568 0.000000 0.002800 0.000000
# 4 0.000000 0.000000 0.000000 0.019092 0.000000 -0.002798
# 5 0.001864 -0.001140 0.002800 0.000000 0.030228 0.000000
# 6 0.000000 0.000000 0.000000 -0.002798 0.000000 0.012619
#
#
# Mechanical properties :
#
#
# Convention : Reuss Voigt Hill
#
# Bulk Modulus (GPa) = 122.12300 143.39455 132.75878
# Shear Modulus (GPa) = 54.55801 67.95544 61.25672
#
# Velocity S-wave (km/s) = 4.36838 4.87532 4.62879
# Velocity P-wave (km/s) = 8.25582 9.04691 8.66040
#
# Compressibility (1/GPa) = 0.00818847
#
# Stress axis : x y z
#
# Youngs Moduli (GPa) = 113.12491 193.23598 280.27103
#
# Poissons Ratio (x) = 0.52781 0.32970
# Poissons Ratio (y) = 0.30899 0.22124
# Poissons Ratio (z) = 0.13308 0.15253
#
# Static dielectric constant tensor:
#      x y z
#    x 3.043940 0.000000 0.339420 
#    y 0.000000 2.151640 0.000000 
#    z 0.339420 0.000000 2.425810 
# 
# From -- ./inp_files/19006.got.cif
#   From: 2010.05.17/outbox.cif.g08.bks.cpg/sg15_10_cif.got.tgz:19006.got - 2010.06.03 18:47:42.
