data_PCOD9293661
_publ_section_title
;
Structure prediction by ZEFSAII (Michael W. Deem and Ramdas Pophale) SiO2 
 PCOD9293661
Probable space group: C 2/C
;
_chemical_formula_sum "Si O2"
_cell_formula_units_Z 48
_cell_length_a 24.116693
_cell_length_b 9.444379
_cell_length_c 14.222916
_cell_angle_alpha 90.000000
_cell_angle_beta 142.059378
_cell_angle_gamma 90.000000
_cell_volume 1991.797106
_symmetry_space_group_name_H-M "C 2/C"
_symmetry_group_IT_number 15
_symmetry_cell_setting 'monoclinic'
loop_
_space_group_symop_operation_xyz
x,y,z
-x,y,1/2-z
-x,-y,-z
x,-y,1/2+z
1/2+x,1/2+y,z
1/2-x,1/2+y,1/2-z
1/2-x,1/2-y,-z
1/2+x,1/2-y,1/2+z
loop_
_atom_site_type_symbol
_atom_site_label
_atom_site_fract_x
_atom_site_fract_y
_atom_site_fract_z
Si Si1 0.544885 0.890483 0.487669
Si Si2 0.614491 0.588718 0.614997
Si Si3 0.185695 0.028428 0.404237
Si Si4 0.681482 0.883110 0.173068
Si Si5 0.588938 0.641405 0.929531
Si Si6 0.634920 0.842938 0.330349
O O1 0.559048 0.733739 0.546592
O O2 0.469599 0.881587 0.306622
O O3 0.500000 0.000000 0.500000
O O4 0.641322 0.961117 0.598128
O O5 0.635019 0.519532 0.742785
O O6 0.713191 0.623577 0.705610
O O7 0.570769 0.478909 0.483655
O O8 0.292458 0.049313 0.529460
O O9 0.150760 0.184208 0.387483
O O10 0.163651 0.919697 0.457484
O O11 0.661961 0.843071 0.255382
O O12 0.627787 0.775467 0.035336
O O13 0.500000 0.670605 0.750000
#
# Coordination Sequence:
#
# PCOD9293661 Si02
#       6
#     8   8   8   8   8   8
#     4  10  25  43  73 105 146 191 236 304 373 425
#     4  12  25  47  78 103 147 195 244 302 362 443
#     4  11  25  43  77 106 142 198 245 301 367 440
#     4  11  24  47  70 104 147 189 235 305 365 435
#     4  12  27  44  72 108 140 187 253 296 360 442
#     4  10  22  46  72 106 149 187 244 298 370 436
#
# _framework density 24.098839999999999
#
# number of rings (size 3 to 8) (size 9 to 14) (size 15 to 20)
#    0.000    1.000    3.333    2.000    7.000    3.333 
#    0.000    2.500    0.000    0.000    0.000    0.000 
#    0.000    0.000    0.000    0.000    0.000    0.000 
#
# Total GULP energy -134494.991452 kJ/mol
# GULP energy per Si atom -5603.957977 kJ/mol
# Density = 2.404399 g / cm^3
# Si number density = 24.098840 Si / 1000 Ang^3
#
#
#
# Elastic Constant Matrix: (Units=GPa)
#
#
# Indices 1 2 3 4 5 6 
#
# 1 55.7115 30.9336 41.5946 0.0000 -22.4392 0.0000
# 2 30.9336 34.4846 12.2285 0.0000 10.5784 0.0000
# 3 41.5946 12.2285 139.2502 0.0000 8.6132 0.0000
# 4 0.0000 0.0000 0.0000 -5.2936 0.0000 13.9693
# 5 -22.4392 10.5784 8.6132 0.0000 41.9836 0.0000
# 6 0.0000 0.0000 0.0000 13.9693 0.0000 26.4518
#
#
#
# Elastic Compliance Matrix: (Units=1/GPa)
#
#
# Indices 1 2 3 4 5 6 
#
# 1 -0.137311 0.146695 0.035408 0.000000 -0.117616 0.000000
# 2 0.146695 -0.124549 -0.040182 0.000000 0.118031 0.000000
# 3 0.035408 -0.040182 -0.001685 0.000000 0.029395 0.000000
# 4 0.000000 0.000000 0.000000 -0.078921 0.000000 0.041679
# 5 -0.117616 0.118031 0.029395 0.000000 -0.074814 0.000000
# 6 0.000000 0.000000 0.000000 0.041679 0.000000 0.015794
#
#
# Mechanical properties :
#
#
# Convention : Reuss Voigt Hill
#
# Bulk Modulus (GPa) = 49.26500 44.32885 46.79692
# Shear Modulus (GPa) = -7.36853 22.27432 7.45290
#
# Velocity S-wave (km/s) = -1.75050 3.04351 1.76050
# Velocity P-wave (km/s) = 4.04989 5.54844 4.85730
#
# Compressibility (1/GPa) = 0.02029839
#
# Stress axis : x y z
#
# Youngs Moduli (GPa) = -7.28276 -8.02899 -593.55307
#
# Poissons Ratio (x) = 1.17781 21.01652
# Poissons Ratio (y) = 1.06834 -23.84988
# Poissons Ratio (z) = 0.25787 -0.32262
#
# Static dielectric constant tensor:
#      x y z
#    x 2.052760 0.000000 -0.038390 
#    y 0.000000 1.875560 0.000000 
#    z -0.038390 0.000000 1.975110 
# 
# From -- ./inp_files/177014.got.cif
#   From: 2010.05.17/outbox.cif.g08.bks.cpg/sg15_89_cif.got.tgz:177014.got - 2010.06.03 18:47:42.
