data_PCOD9293674
_publ_section_title
;
Structure prediction by ZEFSAII (Michael W. Deem and Ramdas Pophale) SiO2 
 PCOD9293674
Probable space group: C 2/C
;
_chemical_formula_sum "Si O2"
_cell_formula_units_Z 44
_cell_length_a 17.612294
_cell_length_b 9.303626
_cell_length_c 14.768986
_cell_angle_alpha 90.000000
_cell_angle_beta 50.323653
_cell_angle_gamma 90.000000
_cell_volume 1862.599851
_symmetry_space_group_name_H-M "C 2/C"
_symmetry_group_IT_number 15
_symmetry_cell_setting 'monoclinic'
loop_
_space_group_symop_operation_xyz
x,y,z
-x,y,1/2-z
-x,-y,-z
x,-y,1/2+z
1/2+x,1/2+y,z
1/2-x,1/2+y,1/2-z
1/2-x,1/2-y,-z
1/2+x,1/2-y,1/2+z
loop_
_atom_site_type_symbol
_atom_site_label
_atom_site_fract_x
_atom_site_fract_y
_atom_site_fract_z
Si Si1 0.861745 0.109180 0.852286
Si Si2 0.635974 0.707749 0.846791
Si Si3 0.000000 0.858820 0.750000
Si Si4 0.639175 0.914938 0.569652
Si Si5 0.798232 0.503653 0.274805
Si Si6 0.509692 0.144277 0.904479
O O1 0.897018 0.142310 0.723747
O O2 0.887084 0.247759 0.893987
O O3 0.744254 0.087833 0.939709
O O4 0.911732 0.963545 0.845627
O O5 0.698700 0.586656 0.849775
O O6 0.708537 0.839785 0.764842
O O7 0.548129 0.775222 0.971879
O O8 0.972146 0.758611 0.688276
O O9 0.661897 0.974628 0.653523
O O10 0.558680 0.015914 0.584161
O O11 0.884210 0.421612 0.154425
#
# Coordination Sequence:
#
# PCOD9293674 Si02
#       6
#     8   8   4   8   8   8
#     4  10  25  44  67 100 131 178 227 278 333 396
#     4  11  26  43  67  97 142 172 223 283 334 404
#     4  12  26  40  70 100 132 174 228 280 324 410
#     4  10  22  46  72  91 133 182 228 273 328 406
#     4  11  24  44  66 101 131 182 222 274 342 398
#     4  12  25  43  70 100 133 183 221 280 337 405
#
# _framework density 23.622893000000001
#
# number of rings (size 3 to 8) (size 9 to 14) (size 15 to 20)
#    0.000    1.091    1.818    2.727   10.182    2.182 
#    6.545    0.000    0.000    0.000    0.000    0.000 
#    0.000    0.000    0.000    0.000    0.000    0.000 
#
# Total GULP energy -123292.661340 kJ/mol
# GULP energy per Si atom -5604.211879 kJ/mol
# Density = 2.356913 g / cm^3
# Si number density = 23.622893 Si / 1000 Ang^3
#
#
#
# Elastic Constant Matrix: (Units=GPa)
#
#
# Indices 1 2 3 4 5 6 
#
# 1 37.2438 12.4417 -3.4266 0.0000 -18.8886 0.0000
# 2 12.4417 101.8499 -7.9918 0.0000 -7.9010 0.0000
# 3 -3.4266 -7.9918 71.3850 0.0000 -5.1560 0.0000
# 4 0.0000 0.0000 0.0000 35.9997 0.0000 -6.8427
# 5 -18.8886 -7.9010 -5.1560 0.0000 24.6911 0.0000
# 6 0.0000 0.0000 0.0000 -6.8427 0.0000 28.4340
#
#
#
# Elastic Compliance Matrix: (Units=1/GPa)
#
#
# Indices 1 2 3 4 5 6 
#
# 1 0.046029 -0.002530 0.004479 0.000000 0.035338 0.000000
# 2 -0.002530 0.010343 0.001153 0.000000 0.001615 0.000000
# 3 0.004479 0.001153 0.014851 0.000000 0.006896 0.000000
# 4 0.000000 0.000000 0.000000 0.029110 0.000000 0.007005
# 5 0.035338 0.001615 0.006896 0.000000 0.069491 0.000000
# 6 0.000000 0.000000 0.000000 0.007005 0.000000 0.036855
#
#
# Mechanical properties :
#
#
# Convention : Reuss Voigt Hill
#
# Bulk Modulus (GPa) = 12.91541 23.61391 18.26466
# Shear Modulus (GPa) = 22.09611 31.78865 26.94238
#
# Velocity S-wave (km/s) = 3.06170 3.67232 3.38082
# Velocity P-wave (km/s) = 4.24003 5.29142 4.79463
#
# Compressibility (1/GPa) = 0.07742688
#
# Stress axis : x y z
#
# Youngs Moduli (GPa) = 21.72526 96.68177 67.33673
#
# Poissons Ratio (x) = 0.24461 -0.30158
# Poissons Ratio (y) = 0.05497 -0.07765
# Poissons Ratio (z) = -0.09730 -0.11149
#
# Static dielectric constant tensor:
#      x y z
#    x 1.872990 0.000000 0.006700 
#    y 0.000000 1.856650 0.000000 
#    z 0.006700 0.000000 1.910620 
# 
# From -- ./inp_files/159660.got.cif
#   From: 2010.05.17/outbox.cif.g08.bks.cpg/sg15_80_cif.got.tgz:159660.got - 2010.06.03 18:47:42.
