data_PCOD9293246
_publ_section_title
;
Structure prediction by ZEFSAII (Michael W. Deem and Ramdas Pophale) SiO2 
 PCOD9293246
Probable space group: C 2/C
;
_chemical_formula_sum "Si O2"
_cell_formula_units_Z 48
_cell_length_a 11.699920
_cell_length_b 13.425819
_cell_length_c 14.109697
_cell_angle_alpha 90.000000
_cell_angle_beta 63.423481
_cell_angle_gamma 90.000000
_cell_volume 1982.179079
_symmetry_space_group_name_H-M "C 2/C"
_symmetry_group_IT_number 15
_symmetry_cell_setting 'monoclinic'
loop_
_space_group_symop_operation_xyz
x,y,z
-x,y,1/2-z
-x,-y,-z
x,-y,1/2+z
1/2+x,1/2+y,z
1/2-x,1/2+y,1/2-z
1/2-x,1/2-y,-z
1/2+x,1/2-y,1/2+z
loop_
_atom_site_type_symbol
_atom_site_label
_atom_site_fract_x
_atom_site_fract_y
_atom_site_fract_z
Si Si1 0.082390 0.136015 0.379540
Si Si2 0.220634 0.122988 0.656910
Si Si3 0.856383 0.668361 0.342257
Si Si4 0.997496 0.344394 0.141223
Si Si5 0.777033 0.477093 0.485855
Si Si6 0.920446 0.086099 0.605381
O O1 0.235448 0.148089 0.315974
O O2 0.006235 0.224443 0.358702
O O3 0.035582 0.137747 0.507086
O O4 0.048526 0.023689 0.366989
O O5 0.178424 0.219637 0.613484
O O6 0.366404 0.126723 0.638475
O O7 0.209512 0.019536 0.604723
O O8 0.137604 0.138257 0.782766
O O9 0.842666 0.578211 0.421478
O O10 0.000000 0.664383 0.250000
O O11 0.115057 0.393520 0.042289
O O12 0.000000 0.378913 0.250000
O O13 0.685020 0.434322 0.437658
#
# Coordination Sequence:
#
# PCOD9293246 Si02
#       6
#     8   8   8   8   8   8
#     4   9  23  43  66  99 141 182 233 298 353 420
#     4  11  24  42  67 103 136 189 240 294 357 422
#     4  10  23  42  70  98 133 184 240 294 352 423
#     4  11  22  43  67 104 146 185 239 299 358 431
#     4  11  23  42  70 100 143 185 240 295 356 431
#     4  10  22  45  66  96 144 187 236 295 356 427
#
# _framework density 24.215774
#
# number of rings (size 3 to 8) (size 9 to 14) (size 15 to 20)
#    0.000    1.667    1.667    1.500    2.333    8.667 
#    9.000    0.000    0.000    0.000    0.000    0.000 
#    0.000    0.000    0.000    0.000    0.000    0.000 
#
# Total GULP energy -134077.363533 kJ/mol
# GULP energy per Si atom -5586.556814 kJ/mol
# Density = 2.416066 g / cm^3
# Si number density = 24.215774 Si / 1000 Ang^3
#
#
#
# Elastic Constant Matrix: (Units=GPa)
#
#
# Indices 1 2 3 4 5 6 
#
# 1 131.5853 48.3941 43.4857 0.0000 -22.7492 0.0000
# 2 48.3941 51.9250 13.0299 0.0000 -0.8304 0.0000
# 3 43.4857 13.0299 108.7789 0.0000 -14.0256 0.0000
# 4 0.0000 0.0000 0.0000 33.2761 0.0000 -5.4343
# 5 -22.7492 -0.8304 -14.0256 0.0000 37.8638 0.0000
# 6 0.0000 0.0000 0.0000 -5.4343 0.0000 31.4443
#
#
#
# Elastic Compliance Matrix: (Units=1/GPa)
#
#
# Indices 1 2 3 4 5 6 
#
# 1 0.014639 -0.012675 -0.003398 0.000000 0.007259 0.000000
# 2 -0.012675 0.030837 0.000502 0.000000 -0.006753 0.000000
# 3 -0.003398 0.000502 0.010742 0.000000 0.001949 0.000000
# 4 0.000000 0.000000 0.000000 0.030924 0.000000 0.005344
# 5 0.007259 -0.006753 0.001949 0.000000 0.031345 0.000000
# 6 0.000000 0.000000 0.000000 0.005344 0.000000 0.032726
#
#
# Mechanical properties :
#
#
# Convention : Reuss Voigt Hill
#
# Bulk Modulus (GPa) = 39.87546 55.78984 47.83265
# Shear Modulus (GPa) = 26.21720 33.00880 29.61300
#
# Velocity S-wave (km/s) = 3.29393 3.69604 3.50076
# Velocity P-wave (km/s) = 5.56499 6.42674 6.01133
#
# Compressibility (1/GPa) = 0.02507808
#
# Stress axis : x y z
#
# Youngs Moduli (GPa) = 68.31071 32.42820 93.08896
#
# Poissons Ratio (x) = 0.41102 0.31631
# Poissons Ratio (y) = 0.86582 -0.04677
# Poissons Ratio (z) = 0.23212 -0.01629
#
# Static dielectric constant tensor:
#      x y z
#    x 1.969540 0.000000 -0.004880 
#    y 0.000000 1.926960 0.000000 
#    z -0.004880 0.000000 1.990250 
# 
# From -- ./inp_files/144048.got.cif
#   From: 2010.05.17/outbox.cif.g08.bks.cpg/sg15_73_cif.got.tgz:144048.got - 2010.06.03 18:47:42.
