data_PCOD9293820
_publ_section_title
;
Structure prediction by ZEFSAII (Michael W. Deem and Ramdas Pophale) SiO2 
 PCOD9293820
Probable space group: C 2/C
;
_chemical_formula_sum "Si O2"
_cell_formula_units_Z 56
_cell_length_a 16.475254
_cell_length_b 25.914114
_cell_length_c 8.298273
_cell_angle_alpha 90.000000
_cell_angle_beta 138.876355
_cell_angle_gamma 90.000000
_cell_volume 2330.101897
_symmetry_space_group_name_H-M "C 2/C"
_symmetry_group_IT_number 15
_symmetry_cell_setting 'monoclinic'
loop_
_space_group_symop_operation_xyz
x,y,z
-x,y,1/2-z
-x,-y,-z
x,-y,1/2+z
1/2+x,1/2+y,z
1/2-x,1/2+y,1/2-z
1/2-x,1/2-y,-z
1/2+x,1/2-y,1/2+z
loop_
_atom_site_type_symbol
_atom_site_label
_atom_site_fract_x
_atom_site_fract_y
_atom_site_fract_z
Si Si1 0.500000 0.556056 0.750000
Si Si2 0.209439 0.385357 0.486353
Si Si3 0.858940 0.425471 0.590540
Si Si4 0.068317 0.741300 0.511902
Si Si5 0.762966 0.480344 0.758594
Si Si6 0.748261 0.662203 0.772418
Si Si7 0.515285 0.355280 0.520679
Si Si8 0.000000 0.310720 0.250000
O O1 0.379508 0.524845 0.513678
O O2 0.529886 0.595930 0.651604
O O3 0.204522 0.443443 0.540833
O O4 0.181482 0.369697 0.262058
O O5 0.118181 0.348375 0.449559
O O6 0.353231 0.371992 0.716457
O O7 0.842767 0.455309 0.734940
O O8 0.790535 0.462688 0.359536
O O9 0.795640 0.368884 0.499625
O O10 0.000000 0.421399 0.750000
O O11 0.206689 0.720334 0.689127
O O12 0.049794 0.802264 0.483176
O O13 0.023335 0.721557 0.620472
O O14 0.000000 0.719983 0.250000
O O15 0.601885 0.658418 0.546317
#
# Coordination Sequence:
#
# PCOD9293820 Si02
#       8
#     4   8   8   8   8   8   8   4
#     4  10  22  48  66 109 137 186 236 294 364 426
#     4  10  25  43  68  99 140 183 231 297 355 425
#     4  12  26  44  72 103 141 187 238 292 362 431
#     4  11  26  42  71 102 139 189 241 295 362 431
#     4  11  25  45  72 101 143 184 236 299 355 440
#     4  11  25  45  68 102 140 186 238 297 357 431
#     4  11  23  44  70 101 141 186 238 292 360 428
#     4  10  26  42  68 101 145 184 240 296 358 430
#
# _framework density 24.033284999999999
#
# number of rings (size 3 to 8) (size 9 to 14) (size 15 to 20)
#    0.000    1.143    2.143    2.143   11.000    2.286 
#    2.571    0.000    0.000    0.000    0.000    0.000 
#    0.000    0.000    0.000    0.000    0.000    0.000 
#
# Total GULP energy -156427.905255 kJ/mol
# GULP energy per Si atom -5586.710902 kJ/mol
# Density = 2.397858 g / cm^3
# Si number density = 24.033285 Si / 1000 Ang^3
#
#
#
# Elastic Constant Matrix: (Units=GPa)
#
#
# Indices 1 2 3 4 5 6 
#
# 1 74.6600 5.6506 15.4833 0.0000 18.4202 0.0000
# 2 5.6506 100.9938 16.4329 0.0000 6.2960 0.0000
# 3 15.4833 16.4329 59.4898 0.0000 5.2052 0.0000
# 4 0.0000 0.0000 0.0000 312.3557 0.0000 -90.9370
# 5 18.4202 6.2960 5.2052 0.0000 41.2112 0.0000
# 6 0.0000 0.0000 0.0000 -90.9370 0.0000 55.1091
#
#
#
# Elastic Compliance Matrix: (Units=1/GPa)
#
#
# Indices 1 2 3 4 5 6 
#
# 1 0.015753 0.000109 -0.003552 0.000000 -0.006609 0.000000
# 2 0.000109 0.010431 -0.002797 0.000000 -0.001289 0.000000
# 3 -0.003552 -0.002797 0.018535 0.000000 -0.000326 0.000000
# 4 0.000000 0.000000 0.000000 0.006162 0.000000 0.010167
# 5 -0.006609 -0.001289 -0.000326 0.000000 0.027457 0.000000
# 6 0.000000 0.000000 0.000000 0.010167 0.000000 0.034923
#
#
# Mechanical properties :
#
#
# Convention : Reuss Voigt Hill
#
# Bulk Modulus (GPa) = 31.01822 34.47523 32.74673
# Shear Modulus (GPa) = 36.63340 94.90699 65.77020
#
# Velocity S-wave (km/s) = 3.90844 6.29091 5.23696
# Velocity P-wave (km/s) = 5.77081 8.19410 7.08680
#
# Compressibility (1/GPa) = 0.03223911
#
# Stress axis : x y z
#
# Youngs Moduli (GPa) = 63.47991 95.86860 53.95163
#
# Poissons Ratio (x) = -0.01041 0.19162
# Poissons Ratio (y) = -0.00689 0.15089
# Poissons Ratio (z) = 0.22546 0.26813
#
# Static dielectric constant tensor:
#      x y z
#    x 1.828620 0.000000 -0.125740 
#    y 0.000000 1.951500 0.000000 
#    z -0.125740 0.000000 1.941020 
# 
# From -- ./inp_files/52410.got.cif
#   From: 2010.05.17/outbox.cif.g08.bks.cpg/sg15_27_cif.got.tgz:52410.got - 2010.06.03 18:47:42.
