data_PCOD9293272
_publ_section_title
;
Structure prediction by ZEFSAII (Michael W. Deem and Ramdas Pophale) SiO2 
 PCOD9293272
Probable space group: C 2/C
;
_chemical_formula_sum "Si O2"
_cell_formula_units_Z 56
_cell_length_a 24.328445
_cell_length_b 11.367123
_cell_length_c 8.751479
_cell_angle_alpha 90.000000
_cell_angle_beta 74.301225
_cell_angle_gamma 90.000000
_cell_volume 2329.894326
_symmetry_space_group_name_H-M "C 2/C"
_symmetry_group_IT_number 15
_symmetry_cell_setting 'monoclinic'
loop_
_space_group_symop_operation_xyz
x,y,z
-x,y,1/2-z
-x,-y,-z
x,-y,1/2+z
1/2+x,1/2+y,z
1/2-x,1/2+y,1/2-z
1/2-x,1/2-y,-z
1/2+x,1/2-y,1/2+z
loop_
_atom_site_type_symbol
_atom_site_label
_atom_site_fract_x
_atom_site_fract_y
_atom_site_fract_z
Si Si1 0.427118 0.876582 0.078027
Si Si2 0.230928 0.513999 0.600891
Si Si3 0.500000 0.500000 0.000000
Si Si4 0.687309 0.568599 0.713336
Si Si5 0.914832 0.806943 0.082616
Si Si6 0.102440 0.870721 0.753794
Si Si7 0.348081 0.919327 0.592969
Si Si8 0.000000 0.460758 0.750000
O O1 0.407159 0.754584 0.162912
O O2 0.457699 0.952474 0.188996
O O3 0.372577 0.949936 0.065999
O O4 0.467883 0.881917 0.899582
O O5 0.270580 0.593210 0.678848
O O6 0.273390 0.439943 0.462842
O O7 0.193768 0.425346 0.731440
O O8 0.189737 0.595165 0.529363
O O9 0.476643 0.362846 0.059431
O O10 0.450695 0.551591 0.148958
O O11 0.632311 0.651937 0.758701
O O12 0.659568 0.438899 0.757072
O O13 0.900794 0.669991 0.069963
O O14 0.899406 0.865021 0.928755
#
# Coordination Sequence:
#
# PCOD9293272 Si02
#       8
#     8   8   4   8   8   8   8   4
#     4  11  24  45  66 103 137 184 238 294 353 425
#     4  10  22  46  66 103 139 181 236 294 348 413
#     4  10  26  42  68 102 132 180 236 282 354 424
#     4  10  22  45  68 100 140 180 238 285 359 418
#     4  11  23  44  72 100 138 187 232 291 351 434
#     4  11  23  45  70  97 141 191 227 291 356 441
#     4  11  24  44  71 101 140 179 237 288 353 417
#     4  10  24  42  70  98 140 184 238 302 354 410
#
# _framework density 24.035423999999999
#
# number of rings (size 3 to 8) (size 9 to 14) (size 15 to 20)
#    0.000    1.429    1.429    3.000    6.000    1.143 
#   20.571    0.000    0.000    0.000    0.000    0.000 
#    0.000    0.000    0.000    0.000    0.000    0.000 
#
# Total GULP energy -156122.939979 kJ/mol
# GULP energy per Si atom -5575.819285 kJ/mol
# Density = 2.398072 g / cm^3
# Si number density = 24.035424 Si / 1000 Ang^3
#
#
#
# Elastic Constant Matrix: (Units=GPa)
#
#
# Indices 1 2 3 4 5 6 
#
# 1 69.8204 9.3906 25.1187 0.0000 -14.6447 0.0000
# 2 9.3906 78.6406 11.4064 0.0000 -4.6951 0.0000
# 3 25.1187 11.4064 103.3662 0.0000 -21.5829 0.0000
# 4 0.0000 0.0000 0.0000 16.7632 0.0000 -7.1741
# 5 -14.6447 -4.6951 -21.5829 0.0000 32.9142 0.0000
# 6 0.0000 0.0000 0.0000 -7.1741 0.0000 21.1624
#
#
#
# Elastic Compliance Matrix: (Units=1/GPa)
#
#
# Indices 1 2 3 4 5 6 
#
# 1 0.016622 -0.001260 -0.002773 0.000000 0.005397 0.000000
# 2 -0.001260 0.013050 -0.000999 0.000000 0.000646 0.000000
# 3 -0.002773 -0.000999 0.011785 0.000000 0.006351 0.000000
# 4 0.000000 0.000000 0.000000 0.069778 0.000000 0.023655
# 5 0.005397 0.000646 0.006351 0.000000 0.037040 0.000000
# 6 0.000000 0.000000 0.000000 0.023655 0.000000 0.055273
#
#
# Mechanical properties :
#
#
# Convention : Reuss Voigt Hill
#
# Bulk Modulus (GPa) = 31.85581 38.18428 35.02004
# Shear Modulus (GPa) = 22.31387 27.89540 25.10463
#
# Velocity S-wave (km/s) = 3.05023 3.41045 3.23535
# Velocity P-wave (km/s) = 5.06830 5.60619 5.34402
#
# Compressibility (1/GPa) = 0.03139144
#
# Stress axis : x y z
#
# Youngs Moduli (GPa) = 60.16220 76.62820 84.85659
#
# Poissons Ratio (x) = 0.09658 0.23532
# Poissons Ratio (y) = 0.07583 0.08477
# Poissons Ratio (z) = 0.16684 0.07655
#
# Static dielectric constant tensor:
#      x y z
#    x 1.996350 0.000000 0.048420 
#    y 0.000000 1.894700 0.000000 
#    z 0.048420 0.000000 1.921560 
# 
# From -- ./inp_files/65488.got.cif
#   From: 2010.05.17/outbox.cif.g08.bks.cpg/sg15_33_cif.got.tgz:65488.got - 2010.06.03 18:47:42.
