data_PCOD9293102
_publ_section_title
;
Structure prediction by ZEFSAII (Michael W. Deem and Ramdas Pophale) SiO2 
 PCOD9293102
Probable space group: C 2/C
;
_chemical_formula_sum "Si O2"
_cell_formula_units_Z 44
_cell_length_a 9.585951
_cell_length_b 15.970588
_cell_length_c 16.642960
_cell_angle_alpha 90.000000
_cell_angle_beta 47.615955
_cell_angle_gamma 90.000000
_cell_volume 1882.007352
_symmetry_space_group_name_H-M "C 2/C"
_symmetry_group_IT_number 15
_symmetry_cell_setting 'monoclinic'
loop_
_space_group_symop_operation_xyz
x,y,z
-x,y,1/2-z
-x,-y,-z
x,-y,1/2+z
1/2+x,1/2+y,z
1/2-x,1/2+y,1/2-z
1/2-x,1/2-y,-z
1/2+x,1/2-y,1/2+z
loop_
_atom_site_type_symbol
_atom_site_label
_atom_site_fract_x
_atom_site_fract_y
_atom_site_fract_z
Si Si1 0.711643 0.848351 0.927732
Si Si2 0.888454 0.329562 0.938400
Si Si3 0.000000 0.969441 0.750000
Si Si4 0.125279 0.800393 0.277949
Si Si5 0.954820 0.942638 0.440605
Si Si6 0.945777 0.675992 0.854835
O O1 0.501521 0.841684 0.976011
O O2 0.831668 0.762239 0.881417
O O3 0.816735 0.911852 0.829236
O O4 0.683520 0.873351 0.031728
O O5 0.052777 0.294332 0.817457
O O6 0.750000 0.250000 0.000000
O O7 0.759818 0.408537 0.968528
O O8 0.004020 0.012893 0.661093
O O9 0.350083 0.802577 0.185556
O O10 0.000000 0.831232 0.250000
O O11 0.072944 0.856572 0.376994
O O12 0.000000 0.000000 0.500000
O O13 0.000000 0.633419 0.750000
#
# Coordination Sequence:
#
# PCOD9293102 Si02
#       6
#     8   8   4   8   8   8
#     4  11  24  42  72 107 144 191 242 309 379 443
#     4  10  22  44  73 102 136 187 249 311 367 435
#     4  12  26  48  68 100 154 194 244 298 380 462
#     4  11  22  45  76 108 143 189 249 314 374 436
#     4  11  27  46  69 104 151 200 245 300 378 462
#     4  11  22  41  70 110 144 184 253 314 367 442
#
# _framework density 23.379292
#
# number of rings (size 3 to 8) (size 9 to 14) (size 15 to 20)
#    0.000    1.091    3.636    2.182    2.545    5.091 
#    0.000    0.000    0.000    0.000    0.000    0.000 
#    0.000    0.000    0.000    0.000    0.000    0.000 
#
# Total GULP energy -122659.216578 kJ/mol
# GULP energy per Si atom -5575.418935 kJ/mol
# Density = 2.332608 g / cm^3
# Si number density = 23.379292 Si / 1000 Ang^3
#
#
#
# Elastic Constant Matrix: (Units=GPa)
#
#
# Indices 1 2 3 4 5 6 
#
# 1 150.9658 62.4380 58.6240 -0.0002 -3.6885 -0.0001
# 2 62.4380 88.1548 58.9952 -0.0001 8.7627 -0.0001
# 3 58.6240 58.9952 131.7373 -0.0003 19.1263 -0.0001
# 4 -0.0002 -0.0001 -0.0003 25.1163 0.0001 -17.6750
# 5 -3.6885 8.7627 19.1263 0.0001 52.5590 0.0000
# 6 -0.0001 -0.0001 -0.0001 -17.6750 0.0000 -3.6499
#
#
#
# Elastic Compliance Matrix: (Units=1/GPa)
#
#
# Indices 1 2 3 4 5 6 
#
# 1 0.009938 -0.005833 -0.002167 0.000000 0.002459 0.000000
# 2 -0.005833 0.019622 -0.005973 0.000000 -0.001507 0.000000
# 3 -0.002167 -0.005973 0.011727 0.000000 -0.003424 0.000000
# 4 0.000000 0.000000 0.000000 0.009033 0.000000 -0.043742
# 5 0.002459 -0.001507 -0.003424 0.000000 0.020696 0.000000
# 6 0.000000 0.000000 0.000000 -0.043742 0.000000 -0.062157
#
#
# Mechanical properties :
#
#
# Convention : Reuss Voigt Hill
#
# Bulk Modulus (GPa) = 74.95510 81.21915 78.08712
# Shear Modulus (GPa) = 121.20719 27.52511 74.36615
#
# Velocity S-wave (km/s) = 7.20808 3.43494 5.64603
# Velocity P-wave (km/s) = 10.07002 7.10964 8.71643
#
# Compressibility (1/GPa) = 0.01334132
#
# Stress axis : x y z
#
# Youngs Moduli (GPa) = 100.62207 50.96361 85.27216
#
# Poissons Ratio (x) = 0.29727 0.18482
# Poissons Ratio (y) = 0.58692 0.50930
# Poissons Ratio (z) = 0.21809 0.30439
#
# Static dielectric constant tensor:
#      x y z
#    x 2.099510 0.000000 0.015990 
#    y 0.000000 1.990220 0.000000 
#    z 0.015990 0.000000 1.951900 
# 
# From -- ./inp_files/190804.got.cif
#   From: 2010.05.17/outbox.cif.g08.bks.cpg/sg15_96_cif.got.tgz:190804.got - 2010.06.03 18:47:42.
