data_PCOD9293530
_publ_section_title
;
Structure prediction by ZEFSAII (Michael W. Deem and Ramdas Pophale) SiO2 
 PCOD9293530
Probable space group: C 2/C
;
_chemical_formula_sum "Si O2"
_cell_formula_units_Z 40
_cell_length_a 11.421373
_cell_length_b 17.859018
_cell_length_c 9.209863
_cell_angle_alpha 90.000000
_cell_angle_beta 86.763964
_cell_angle_gamma 90.000000
_cell_volume 1875.581785
_symmetry_space_group_name_H-M "C 2/C"
_symmetry_group_IT_number 15
_symmetry_cell_setting 'monoclinic'
loop_
_space_group_symop_operation_xyz
x,y,z
-x,y,1/2-z
-x,-y,-z
x,-y,1/2+z
1/2+x,1/2+y,z
1/2-x,1/2+y,1/2-z
1/2-x,1/2-y,-z
1/2+x,1/2-y,1/2+z
loop_
_atom_site_type_symbol
_atom_site_label
_atom_site_fract_x
_atom_site_fract_y
_atom_site_fract_z
Si Si1 0.737892 0.547233 0.325900
Si Si2 0.630224 0.841593 0.165800
Si Si3 0.118058 0.833239 0.650663
Si Si4 0.627448 0.023287 0.449279
Si Si5 0.381150 0.604043 0.675396
O O1 0.706341 0.625338 0.255224
O O2 0.779274 0.534065 0.485840
O O3 0.636686 0.485614 0.309449
O O4 0.849367 0.522506 0.221873
O O5 0.500000 0.852491 0.250000
O O6 0.639745 0.754442 0.125355
O O7 0.639573 0.895902 0.025524
O O8 0.755368 0.860790 0.235632
O O9 0.107619 0.873828 0.495759
O O10 0.000000 0.838846 0.750000
O O11 0.500000 0.000000 0.500000
O O12 0.500000 0.626968 0.750000
#
# Coordination Sequence:
#
# PCOD9293530 Si02
#       5
#     8   8   8   8   8
#     4  11  22  39  65  94 130 170 217 271 327 390
#     4  10  22  46  67  92 138 173 212 272 337 387
#     4  11  24  43  66  93 131 180 214 266 338 393
#     4  11  22  40  67  97 129 175 223 271 323 392
#     4  11  24  42  67  96 133 166 220 279 321 383
#
# _framework density 21.326716999999999
#
# number of rings (size 3 to 8) (size 9 to 14) (size 15 to 20)
#    0.000    1.200    4.000    4.200    2.800    1.600 
#    3.600    2.000    0.000    0.000    0.000    0.000 
#    0.000    0.000    0.000    0.000    0.000    0.000 
#
# Total GULP energy -111474.163414 kJ/mol
# GULP energy per Si atom -5573.708171 kJ/mol
# Density = 2.127818 g / cm^3
# Si number density = 21.326717 Si / 1000 Ang^3
#
#
#
# Elastic Constant Matrix: (Units=GPa)
#
#
# Indices 1 2 3 4 5 6 
#
# 1 133.7287 19.7676 18.0567 0.0000 -0.4396 0.0000
# 2 19.7676 112.1926 36.1280 0.0000 1.9558 0.0000
# 3 18.0567 36.1280 78.5344 0.0000 -11.4474 0.0000
# 4 0.0000 0.0000 0.0000 15.2995 0.0000 -3.7849
# 5 -0.4396 1.9558 -11.4474 0.0000 31.3646 0.0000
# 6 0.0000 0.0000 0.0000 -3.7849 0.0000 25.4588
#
#
#
# Elastic Compliance Matrix: (Units=1/GPa)
#
#
# Indices 1 2 3 4 5 6 
#
# 1 0.007804 -0.000909 -0.001428 0.000000 -0.000355 0.000000
# 2 -0.000909 0.010765 -0.005115 0.000000 -0.002551 0.000000
# 3 -0.001428 -0.005115 0.016327 0.000000 0.006258 0.000000
# 4 0.000000 0.000000 0.000000 0.067857 0.000000 0.010088
# 5 -0.000355 -0.002551 0.006258 0.000000 0.034321 0.000000
# 6 0.000000 0.000000 0.000000 0.010088 0.000000 0.040779
#
#
# Mechanical properties :
#
#
# Convention : Reuss Voigt Hill
#
# Bulk Modulus (GPa) = 50.02038 52.48448 51.25243
# Shear Modulus (GPa) = 25.07259 31.12478 28.09869
#
# Velocity S-wave (km/s) = 3.43248 3.82439 3.63372
# Velocity P-wave (km/s) = 6.26215 6.64563 6.45674
#
# Compressibility (1/GPa) = 0.01999185
#
# Stress axis : x y z
#
# Youngs Moduli (GPa) = 128.14229 92.89364 61.24904
#
# Poissons Ratio (x) = 0.08444 0.08746
# Poissons Ratio (y) = 0.11648 0.31329
# Poissons Ratio (z) = 0.18297 0.47515
#
# Static dielectric constant tensor:
#      x y z
#    x 1.854480 0.000000 -0.002320 
#    y 0.000000 1.828740 0.000000 
#    z -0.002320 0.000000 1.741510 
# 
# From -- ./inp_files/29071.got.cif
#   From: 2010.05.17/outbox.cif.g08.bks.cpg/sg15_15_cif.got.tgz:29071.got - 2010.06.03 18:47:42.
