data_PCOD9293028
_publ_section_title
;
Structure prediction by ZEFSAII (Michael W. Deem and Ramdas Pophale) SiO2 
 PCOD9293028
Probable space group: C 2/C
;
_chemical_formula_sum "Si O2"
_cell_formula_units_Z 44
_cell_length_a 5.329155
_cell_length_b 23.119510
_cell_length_c 15.916430
_cell_angle_alpha 90.000000
_cell_angle_beta 108.485937
_cell_angle_gamma 90.000000
_cell_volume 1859.836971
_symmetry_space_group_name_H-M "C 2/C"
_symmetry_group_IT_number 15
_symmetry_cell_setting 'monoclinic'
loop_
_space_group_symop_operation_xyz
x,y,z
-x,y,1/2-z
-x,-y,-z
x,-y,1/2+z
1/2+x,1/2+y,z
1/2-x,1/2+y,1/2-z
1/2-x,1/2-y,-z
1/2+x,1/2-y,1/2+z
loop_
_atom_site_type_symbol
_atom_site_label
_atom_site_fract_x
_atom_site_fract_y
_atom_site_fract_z
Si Si1 0.488441 0.992548 0.898680
Si Si2 0.500000 0.500286 0.250000
Si Si3 0.385079 0.604169 0.447842
Si Si4 0.785185 0.913882 0.360043
Si Si5 0.589453 0.820079 0.533255
Si Si6 0.849471 0.714316 0.649115
O O1 0.723762 0.949940 0.891572
O O2 0.218664 0.968004 0.830056
O O3 0.523315 0.058911 0.873020
O O4 0.500000 0.000000 0.000000
O O5 0.347018 0.456633 0.293335
O O6 0.499142 0.578027 0.545455
O O7 0.640523 0.640129 0.440262
O O8 0.153622 0.648029 0.449333
O O9 0.772285 0.847116 0.336169
O O10 0.653204 0.763638 0.595326
O O11 0.520342 0.802945 0.428605
O O12 0.000000 0.734585 0.750000
#
# Coordination Sequence:
#
# PCOD9293028 Si02
#       6
#     8   4   8   8   8   8
#     4  12  24  45  70 103 141 189 230 295 358 426
#     4  12  26  40  68 110 142 176 250 286 370 422
#     4  11  24  46  75  94 146 186 233 282 359 420
#     4  11  25  42  70 106 137 181 237 301 356 417
#     4  10  25  46  68 106 131 190 235 288 348 432
#     4  10  22  44  71  97 142 176 238 293 354 410
#
# _framework density 23.657986999999999
#
# number of rings (size 3 to 8) (size 9 to 14) (size 15 to 20)
#    0.000    1.091    1.818    4.364    5.091    6.545 
#    1.636    0.000    0.000    0.000    0.000    0.000 
#    0.000    0.000    0.000    0.000    0.000    0.000 
#
# Total GULP energy -122749.506773 kJ/mol
# GULP energy per Si atom -5579.523035 kJ/mol
# Density = 2.360414 g / cm^3
# Si number density = 23.657987 Si / 1000 Ang^3
#
#
#
# Elastic Constant Matrix: (Units=GPa)
#
#
# Indices 1 2 3 4 5 6 
#
# 1 94.5063 26.1120 32.6419 0.0000 13.9955 0.0000
# 2 26.1120 90.7464 43.8355 0.0000 0.0096 0.0000
# 3 32.6419 43.8355 134.9426 0.0000 21.1354 0.0000
# 4 0.0000 0.0000 0.0000 -11.4233 0.0000 17.6267
# 5 13.9955 0.0096 21.1354 0.0000 35.9766 0.0000
# 6 0.0000 0.0000 0.0000 17.6267 0.0000 26.0709
#
#
#
# Elastic Compliance Matrix: (Units=1/GPa)
#
#
# Indices 1 2 3 4 5 6 
#
# 1 0.012473 -0.002887 -0.001453 0.000000 -0.003998 0.000000
# 2 -0.002887 0.013989 -0.004429 0.000000 0.003721 0.000000
# 3 -0.001453 -0.004429 0.010035 0.000000 -0.005329 0.000000
# 4 0.000000 0.000000 0.000000 -0.042843 0.000000 0.028967
# 5 -0.003998 0.003721 -0.005329 0.000000 0.032481 0.000000
# 6 0.000000 0.000000 0.000000 0.028967 0.000000 0.018772
#
#
# Mechanical properties :
#
#
# Convention : Reuss Voigt Hill
#
# Bulk Modulus (GPa) = 52.74252 58.37491 55.55871
# Shear Modulus (GPa) = 72.71139 24.63190 48.67164
#
# Velocity S-wave (km/s) = 5.54988 3.23021 4.54067
# Velocity P-wave (km/s) = 7.96306 6.21614 7.14320
#
# Compressibility (1/GPa) = 0.01896004
#
# Stress axis : x y z
#
# Youngs Moduli (GPa) = 80.17434 71.48301 99.64640
#
# Poissons Ratio (x) = 0.20634 0.14482
# Poissons Ratio (y) = 0.23143 0.44133
# Poissons Ratio (z) = 0.11652 0.31659
#
# Static dielectric constant tensor:
#      x y z
#    x 1.995010 0.000000 0.032400 
#    y 0.000000 1.924340 0.000000 
#    z 0.032400 0.000000 1.912310 
# 
# From -- ./inp_files/185597.got.cif
#   From: 2010.05.17/outbox.cif.g08.bks.cpg/sg15_93_cif.got.tgz:185597.got - 2010.06.03 18:47:42.
