data_PCOD9293657
_publ_section_title
;
Structure prediction by ZEFSAII (Michael W. Deem and Ramdas Pophale) SiO2 
 PCOD9293657
Probable space group: C 2/C
;
_chemical_formula_sum "Si O2"
_cell_formula_units_Z 28
_cell_length_a 11.085721
_cell_length_b 10.905256
_cell_length_c 11.401117
_cell_angle_alpha 90.000000
_cell_angle_beta 128.147132
_cell_angle_gamma 90.000000
_cell_volume 1083.941203
_symmetry_space_group_name_H-M "C 2/C"
_symmetry_group_IT_number 15
_symmetry_cell_setting 'monoclinic'
loop_
_space_group_symop_operation_xyz
x,y,z
-x,y,1/2-z
-x,-y,-z
x,-y,1/2+z
1/2+x,1/2+y,z
1/2-x,1/2+y,1/2-z
1/2-x,1/2-y,-z
1/2+x,1/2-y,1/2+z
loop_
_atom_site_type_symbol
_atom_site_label
_atom_site_fract_x
_atom_site_fract_y
_atom_site_fract_z
Si Si1 0.834889 0.765946 0.711095
Si Si2 0.500000 0.114608 0.250000
Si Si3 0.095990 0.796492 0.475599
Si Si4 0.209730 0.953939 0.006605
O O1 0.786966 0.892985 0.619434
O O2 0.715063 0.661145 0.598695
O O3 0.000000 0.736350 0.750000
O O4 0.872277 0.776058 0.869414
O O5 0.472205 0.206007 0.342896
O O6 0.361543 0.027527 0.132177
O O7 0.250000 0.750000 0.500000
O O8 0.080707 0.941177 0.439362
#
# Coordination Sequence:
#
# PCOD9293657 Si02
#       4
#     8   4   8   8
#     4  11  25  45  74 105 140 192 232 294 354 419
#     4  10  22  46  72 104 140 186 232 296 352 416
#     4  10  25  44  71 104 140 184 237 287 358 415
#     4  10  24  45  71 104 142 184 240 289 354 425
#
# _framework density 25.831659999999999
#
# number of rings (size 3 to 8) (size 9 to 14) (size 15 to 20)
#    0.000    1.714    1.429    0.000   10.000   11.429 
#    0.000    0.000    0.000    0.000    0.000    0.000 
#    0.000    0.000    0.000    0.000    0.000    0.000 
#
# Total GULP energy -78388.197047 kJ/mol
# GULP energy per Si atom -5599.156932 kJ/mol
# Density = 2.577287 g / cm^3
# Si number density = 25.831660 Si / 1000 Ang^3
#
#
#
# Elastic Constant Matrix: (Units=GPa)
#
#
# Indices 1 2 3 4 5 6 
#
# 1 70.4049 37.7953 52.0694 0.0000 -26.2430 0.0000
# 2 37.7953 189.4818 101.1253 0.0000 -22.4814 0.0000
# 3 52.0694 101.1253 238.2373 0.0000 -47.0087 0.0000
# 4 0.0000 0.0000 0.0000 64.7849 0.0000 0.6704
# 5 -26.2430 -22.4814 -47.0087 0.0000 70.3060 0.0000
# 6 0.0000 0.0000 0.0000 0.6704 0.0000 19.9124
#
#
#
# Elastic Compliance Matrix: (Units=1/GPa)
#
#
# Indices 1 2 3 4 5 6 
#
# 1 0.018761 -0.001926 -0.002330 0.000000 0.004829 0.000000
# 2 -0.001926 0.007026 -0.002603 0.000000 -0.000213 0.000000
# 3 -0.002330 -0.002603 0.006308 0.000000 0.002516 0.000000
# 4 0.000000 0.000000 0.000000 0.015441 0.000000 -0.000520
# 5 0.004829 -0.000213 0.002516 0.000000 0.017640 0.000000
# 6 0.000000 0.000000 0.000000 -0.000520 0.000000 0.050237
#
#
# Mechanical properties :
#
#
# Convention : Reuss Voigt Hill
#
# Bulk Modulus (GPa) = 54.41778 97.78933 76.10355
# Shear Modulus (GPa) = 36.96674 51.47628 44.22151
#
# Velocity S-wave (km/s) = 3.78704 4.46888 4.14201
# Velocity P-wave (km/s) = 6.34305 8.03532 7.23881
#
# Compressibility (1/GPa) = 0.01837635
#
# Stress axis : x y z
#
# Youngs Moduli (GPa) = 53.30343 142.33231 158.52311
#
# Poissons Ratio (x) = 0.27407 0.36938
# Poissons Ratio (y) = 0.10264 0.41270
# Poissons Ratio (z) = 0.12420 0.37055
#
# Static dielectric constant tensor:
#      x y z
#    x 2.302410 0.000000 0.106450 
#    y 0.000000 2.035170 0.000000 
#    z 0.106450 0.000000 2.008800 
# 
# From -- ./inp_files/36682.got.cif
#   From: 2010.05.17/outbox.cif.g08.bks.cpg/sg15_19_cif.got.tgz:36682.got - 2010.06.03 18:47:42.
