data_PCOD9293254
_publ_section_title
;
Structure prediction by ZEFSAII (Michael W. Deem and Ramdas Pophale) SiO2 
 PCOD9293254
Probable space group: C 2/C
;
_chemical_formula_sum "Si O2"
_cell_formula_units_Z 52
_cell_length_a 11.522000
_cell_length_b 13.905336
_cell_length_c 15.167110
_cell_angle_alpha 90.000000
_cell_angle_beta 61.585029
_cell_angle_gamma 90.000000
_cell_volume 2137.273104
_symmetry_space_group_name_H-M "C 2/C"
_symmetry_group_IT_number 15
_symmetry_cell_setting 'monoclinic'
loop_
_space_group_symop_operation_xyz
x,y,z
-x,y,1/2-z
-x,-y,-z
x,-y,1/2+z
1/2+x,1/2+y,z
1/2-x,1/2+y,1/2-z
1/2-x,1/2-y,-z
1/2+x,1/2-y,1/2+z
loop_
_atom_site_type_symbol
_atom_site_label
_atom_site_fract_x
_atom_site_fract_y
_atom_site_fract_z
Si Si1 0.297050 0.534249 0.543095
Si Si2 0.436538 0.348557 0.527546
Si Si3 0.238538 0.054141 0.736725
Si Si4 0.000000 0.605005 0.250000
Si Si5 0.614180 0.739140 0.826213
Si Si6 0.859304 0.158341 0.254488
Si Si7 0.527367 0.957190 0.084599
O O1 0.340710 0.423362 0.510271
O O2 0.432241 0.593449 0.489348
O O3 0.261224 0.535658 0.659094
O O4 0.176249 0.582254 0.533959
O O5 0.493055 0.270553 0.438241
O O6 0.377170 0.320400 0.643110
O O7 0.135141 0.140203 0.766008
O O8 0.192497 0.952121 0.713354
O O9 0.385985 0.088926 0.658920
O O10 0.099154 0.676367 0.261792
O O11 0.042617 0.539003 0.153821
O O12 0.748758 0.767178 0.828031
O O13 0.000000 0.169695 0.250000
O O14 0.500000 0.000000 0.000000
#
# Coordination Sequence:
#
# PCOD9293254 Si02
#       7
#     8   8   8   4   8   8   8
#     4   9  18  40  68  97 135 185 236 302 334 441
#     4   9  21  40  68  97 136 187 242 276 376 416
#     4  10  22  45  67 101 143 190 238 286 376 412
#     4  12  24  48  66 104 152 174 236 312 338 422
#     4  11  25  43  72 101 138 193 230 304 358 421
#     4  11  24  43  69 100 146 184 235 306 344 436
#     4  12  24  40  74 102 144 194 236 286 365 426
#
# _framework density 24.330068000000001
#
# number of rings (size 3 to 8) (size 9 to 14) (size 15 to 20)
#    0.000    1.538    3.077    1.846    3.231    5.538 
#    0.000    2.308    0.000    0.000    0.000    0.000 
#    0.000    0.000    0.000    0.000    0.000    0.000 
#
# Total GULP energy -145148.573186 kJ/mol
# GULP energy per Si atom -5582.637430 kJ/mol
# Density = 2.427469 g / cm^3
# Si number density = 24.330068 Si / 1000 Ang^3
#
#
#
# Elastic Constant Matrix: (Units=GPa)
#
#
# Indices 1 2 3 4 5 6 
#
# 1 91.4371 -11.7820 7.8861 0.0000 -15.4340 0.0000
# 2 -11.7820 68.0062 11.9455 0.0000 5.5845 0.0000
# 3 7.8861 11.9455 90.4583 0.0000 -13.0855 0.0000
# 4 0.0000 0.0000 0.0000 20.3519 0.0000 -5.3052
# 5 -15.4340 5.5845 -13.0855 0.0000 27.0211 0.0000
# 6 0.0000 0.0000 0.0000 -5.3052 0.0000 20.7652
#
#
#
# Elastic Compliance Matrix: (Units=1/GPa)
#
#
# Indices 1 2 3 4 5 6 
#
# 1 0.012277 0.001654 -0.000348 0.000000 0.006502 0.000000
# 2 0.001654 0.015775 -0.002755 0.000000 -0.003650 0.000000
# 3 -0.000348 -0.002755 0.012369 0.000000 0.006361 0.000000
# 4 0.000000 0.000000 0.000000 0.052641 0.000000 0.013449
# 5 0.006502 -0.003650 0.006361 0.000000 0.044556 0.000000
# 6 0.000000 0.000000 0.000000 0.013449 0.000000 0.051594
#
#
# Mechanical properties :
#
#
# Convention : Reuss Voigt Hill
#
# Bulk Modulus (GPa) = 26.65065 29.55565 28.10315
# Shear Modulus (GPa) = 24.43572 29.75109 27.09341
#
# Velocity S-wave (km/s) = 3.17257 3.50067 3.34065
# Velocity P-wave (km/s) = 4.93942 5.33982 5.14352
#
# Compressibility (1/GPa) = 0.03752253
#
# Stress axis : x y z
#
# Youngs Moduli (GPa) = 81.45206 63.39218 80.84637
#
# Poissons Ratio (x) = -0.10487 0.02815
# Poissons Ratio (y) = -0.13474 0.22276
# Poissons Ratio (z) = 0.02836 0.17467
#
# Static dielectric constant tensor:
#      x y z
#    x 2.066490 0.000000 -0.089460 
#    y 0.000000 2.100460 0.000000 
#    z -0.089460 0.000000 1.975480 
# 
# From -- ./inp_files/144142.got.cif
#   From: 2010.05.17/outbox.cif.g08.bks.cpg/sg15_73_cif.got.tgz:144142.got - 2010.06.03 18:47:42.
