data_PCOD9293873
_publ_section_title
;
Structure prediction by ZEFSAII (Michael W. Deem and Ramdas Pophale) SiO2 
 PCOD9293873
Probable space group: C 2/C
;
_chemical_formula_sum "Si O2"
_cell_formula_units_Z 44
_cell_length_a 15.892096
_cell_length_b 9.300845
_cell_length_c 14.280935
_cell_angle_alpha 90.000000
_cell_angle_beta 82.820619
_cell_angle_gamma 90.000000
_cell_volume 2094.314163
_symmetry_space_group_name_H-M "C 2/C"
_symmetry_group_IT_number 15
_symmetry_cell_setting 'monoclinic'
loop_
_space_group_symop_operation_xyz
x,y,z
-x,y,1/2-z
-x,-y,-z
x,-y,1/2+z
1/2+x,1/2+y,z
1/2-x,1/2+y,1/2-z
1/2-x,1/2-y,-z
1/2+x,1/2-y,1/2+z
loop_
_atom_site_type_symbol
_atom_site_label
_atom_site_fract_x
_atom_site_fract_y
_atom_site_fract_z
Si Si1 0.000000 0.574982 0.250000
Si Si2 0.316140 0.320627 0.922338
Si Si3 0.459660 0.682727 0.890664
Si Si4 0.225881 0.149925 0.591418
Si Si5 0.487072 0.638507 0.099884
Si Si6 0.864112 0.332584 0.233393
O O1 0.006104 0.680205 0.339755
O O2 0.917083 0.471355 0.261250
O O3 0.293104 0.486766 0.932745
O O4 0.416495 0.309179 0.928934
O O5 0.311688 0.245916 0.822040
O O6 0.250000 0.250000 0.000000
O O7 0.366553 0.695836 0.857572
O O8 0.506409 0.529016 0.870264
O O9 0.445702 0.672796 0.004706
O O10 0.250000 0.250000 0.500000
O O11 0.299318 0.142989 0.657837
O O12 0.434822 0.723945 0.183664
#
# Coordination Sequence:
#
# PCOD9293873 Si02
#       6
#     4   8   8   8   8   8
#     4  12  28  42  72 108 142 184 242 294 348 428
#     4  11  27  44  69 102 145 184 230 290 361 415
#     4  10  25  44  73 101 135 187 236 293 353 419
#     4  11  26  45  70 103 138 185 235 294 349 419
#     4  10  22  49  73  96 138 188 238 285 353 425
#     4  12  26  46  71 105 143 185 235 295 350 424
#
# _framework density 21.009264999999999
#
# number of rings (size 3 to 8) (size 9 to 14) (size 15 to 20)
#    0.000    1.091    3.636    0.000   12.727    0.727 
#    0.000    0.000    0.000    0.000    0.000    0.000 
#    0.000    0.000    0.000    0.000    0.000    0.000 
#
# Total GULP energy -122783.383292 kJ/mol
# GULP energy per Si atom -5581.062877 kJ/mol
# Density = 2.096145 g / cm^3
# Si number density = 21.009265 Si / 1000 Ang^3
#
#
#
# Elastic Constant Matrix: (Units=GPa)
#
#
# Indices 1 2 3 4 5 6 
#
# 1 102.5721 30.4447 40.9476 0.0000 -2.1870 0.0000
# 2 30.4447 105.1609 49.1853 0.0000 -33.3454 0.0000
# 3 40.9476 49.1853 98.7975 0.0000 -17.8591 0.0000
# 4 0.0000 0.0000 0.0000 28.8158 0.0000 -18.9971
# 5 -2.1870 -33.3454 -17.8591 0.0000 46.7893 0.0000
# 6 0.0000 0.0000 0.0000 -18.9971 0.0000 7.6634
#
#
#
# Elastic Compliance Matrix: (Units=1/GPa)
#
#
# Indices 1 2 3 4 5 6 
#
# 1 0.012127 -0.002353 -0.004356 0.000000 -0.002773 0.000000
# 2 -0.002353 0.015394 -0.005076 0.000000 0.008923 0.000000
# 3 -0.004356 -0.005076 0.014783 0.000000 0.001822 0.000000
# 4 0.000000 0.000000 0.000000 -0.054715 0.000000 -0.135635
# 5 -0.002773 0.008923 0.001822 0.000000 0.028298 0.000000
# 6 0.000000 0.000000 0.000000 -0.135635 0.000000 -0.205738
#
#
# Mechanical properties :
#
#
# Convention : Reuss Voigt Hill
#
# Bulk Modulus (GPa) = 53.37395 60.85397 57.11396
# Shear Modulus (GPa) = -31.24284 29.05055 -1.09615
#
# Velocity S-wave (km/s) = -3.86047 3.72257 -0.72310
# Velocity P-wave (km/s) = 2.36413 6.89238 5.15238
#
# Compressibility (1/GPa) = 0.01873573
#
# Stress axis : x y z
#
# Youngs Moduli (GPa) = 82.45731 64.96133 67.64366
#
# Poissons Ratio (x) = 0.15283 0.29468
# Poissons Ratio (y) = 0.19399 0.34333
# Poissons Ratio (z) = 0.35921 0.32971
#
# Static dielectric constant tensor:
#      x y z
#    x 1.624680 0.000000 0.138420 
#    y 0.000000 1.989920 0.000000 
#    z 0.138420 0.000000 1.781030 
# 
# From -- ./inp_files/159359.got.cif
#   From: 2010.05.17/outbox.cif.g08.bks.cpg/sg15_80_cif.got.tgz:159359.got - 2010.06.03 18:47:42.
