data_PCOD9293704
_publ_section_title
;
Structure prediction by ZEFSAII (Michael W. Deem and Ramdas Pophale) SiO2 
 PCOD9293704
Probable space group: C 2/C
;
_chemical_formula_sum "Si O2"
_cell_formula_units_Z 44
_cell_length_a 10.701644
_cell_length_b 26.218982
_cell_length_c 9.817404
_cell_angle_alpha 90.000000
_cell_angle_beta 143.674693
_cell_angle_gamma 90.000000
_cell_volume 1631.756602
_symmetry_space_group_name_H-M "C 2/C"
_symmetry_group_IT_number 15
_symmetry_cell_setting 'monoclinic'
loop_
_space_group_symop_operation_xyz
x,y,z
-x,y,1/2-z
-x,-y,-z
x,-y,1/2+z
1/2+x,1/2+y,z
1/2-x,1/2+y,1/2-z
1/2-x,1/2-y,-z
1/2+x,1/2-y,1/2+z
loop_
_atom_site_type_symbol
_atom_site_label
_atom_site_fract_x
_atom_site_fract_y
_atom_site_fract_z
Si Si1 0.838409 0.660847 0.488205
Si Si2 0.699619 0.010383 0.819281
Si Si3 0.603965 0.712160 0.049755
Si Si4 0.477718 0.916322 0.556318
Si Si5 0.500000 0.573202 0.250000
Si Si6 0.191290 0.323447 0.051044
O O1 0.681552 0.698285 0.270243
O O2 0.979672 0.635246 0.492923
O O3 0.696519 0.611839 0.406328
O O4 0.000000 0.676501 0.750000
O O5 0.500000 0.018919 0.750000
O O6 0.677441 0.950437 0.770282
O O7 0.650187 0.042968 0.642684
O O8 0.913973 0.033460 0.063221
O O9 0.753349 0.697874 0.053813
O O10 0.569472 0.772523 0.005479
O O11 0.395141 0.679998 0.830355
O O12 0.328627 0.883248 0.519267
#
# Coordination Sequence:
#
# PCOD9293704 Si02
#       6
#     8   8   8   8   4   8
#     4  12  25  45  73 108 148 199 242 300 373 440
#     4  11  24  45  68 101 140 191 243 306 370 432
#     4  10  23  43  76 110 148 194 242 299 374 441
#     4  11  23  44  71  98 144 189 239 307 366 433
#     4  12  22  48  70 100 154 186 250 308 366 432
#     4  10  22  46  74 110 148 188 243 311 367 437
#
# _framework density 26.964808000000001
#
# number of rings (size 3 to 8) (size 9 to 14) (size 15 to 20)
#    0.000    1.091    3.636    2.182    2.545    2.182 
#    3.273    3.636    4.000    0.000    0.000    0.000 
#    0.000    0.000    0.000    0.000    0.000    0.000 
#
# Total GULP energy -122637.981751 kJ/mol
# GULP energy per Si atom -5574.453716 kJ/mol
# Density = 2.690343 g / cm^3
# Si number density = 26.964808 Si / 1000 Ang^3
#
#
#
# Elastic Constant Matrix: (Units=GPa)
#
#
# Indices 1 2 3 4 5 6 
#
# 1 -68.3845 25.9436 -13.8434 0.0000 -51.5623 0.0000
# 2 25.9436 250.0538 72.3256 0.0000 -27.1797 0.0000
# 3 -13.8434 72.3256 197.3613 0.0000 -48.2859 0.0000
# 4 0.0000 0.0000 0.0000 53.2002 0.0000 -6.4578
# 5 -51.5623 -27.1797 -48.2859 0.0000 17.5964 0.0000
# 6 0.0000 0.0000 0.0000 -6.4578 0.0000 33.5504
#
#
#
# Elastic Compliance Matrix: (Units=1/GPa)
#
#
# Indices 1 2 3 4 5 6 
#
# 1 -0.001644 -0.000467 -0.003953 0.000000 -0.016387 0.000000
# 2 -0.000467 0.004675 -0.000956 0.000000 0.003229 0.000000
# 3 -0.003953 -0.000956 0.005916 0.000000 0.003174 0.000000
# 4 0.000000 0.000000 0.000000 0.019247 0.000000 0.003705
# 5 -0.016387 0.003229 0.003174 0.000000 0.022506 0.000000
# 6 0.000000 0.000000 0.000000 0.003705 0.000000 0.030519
#
#
# Mechanical properties :
#
#
# Convention : Reuss Voigt Hill
#
# Bulk Modulus (GPa) = -553.74414 60.87580 -246.43417
# Shear Modulus (GPa) = 54.72225 40.50975 47.61600
#
# Velocity S-wave (km/s) = 4.50977 3.88018 4.20677
# Velocity P-wave (km/s) = 13.36737 6.53448 8.24582
#
# Compressibility (1/GPa) = -0.00180589
#
# Stress axis : x y z
#
# Youngs Moduli (GPa) = -608.27482 213.89971 169.02183
#
# Poissons Ratio (x) = 0.09993 0.66821
# Poissons Ratio (y) = -0.28417 0.16161
# Poissons Ratio (z) = -2.40475 0.20451
#
# Static dielectric constant tensor:
#      x y z
#    x 2.884280 0.000000 -0.197970 
#    y 0.000000 2.191900 0.000000 
#    z -0.197970 0.000000 2.099930 
# 
# From -- ./inp_files/164440.got.cif
#   From: 2010.05.17/outbox.cif.g08.bks.cpg/sg15_83_cif.got.tgz:164440.got - 2010.06.03 18:47:42.
