data_PCOD9293838
_publ_section_title
;
Structure prediction by ZEFSAII (Michael W. Deem and Ramdas Pophale) SiO2 
 PCOD9293838
Probable space group: C 2/C
;
_chemical_formula_sum "Si O2"
_cell_formula_units_Z 40
_cell_length_a 12.198018
_cell_length_b 19.061420
_cell_length_c 7.764353
_cell_angle_alpha 90.000000
_cell_angle_beta 111.732652
_cell_angle_gamma 90.000000
_cell_volume 1676.983944
_symmetry_space_group_name_H-M "C 2/C"
_symmetry_group_IT_number 15
_symmetry_cell_setting 'monoclinic'
loop_
_space_group_symop_operation_xyz
x,y,z
-x,y,1/2-z
-x,-y,-z
x,-y,1/2+z
1/2+x,1/2+y,z
1/2-x,1/2+y,1/2-z
1/2-x,1/2-y,-z
1/2+x,1/2-y,1/2+z
loop_
_atom_site_type_symbol
_atom_site_label
_atom_site_fract_x
_atom_site_fract_y
_atom_site_fract_z
Si Si1 0.173799 0.598409 0.022266
Si Si2 0.438979 0.845061 0.530109
Si Si3 0.250000 0.250000 0.500000
Si Si4 0.000000 0.905307 0.250000
Si Si5 0.744556 0.049654 0.684401
Si Si6 0.499179 0.299892 0.945680
O O1 0.239837 0.671673 0.085279
O O2 0.207792 0.577487 0.849012
O O3 0.205322 0.530369 0.148719
O O4 0.036336 0.614394 0.973365
O O5 0.500000 0.830879 0.750000
O O6 0.326567 0.895715 0.479534
O O7 0.418914 0.770880 0.419520
O O8 0.365857 0.275110 0.453306
O O9 0.116510 0.947465 0.268561
O O10 0.031551 0.856021 0.430122
O O11 0.500000 0.324759 0.750000
#
# Coordination Sequence:
#
# PCOD9293838 Si02
#       6
#     8   8   4   4   8   8
#     4  11  24  45  75 104 148 192 250 319 374 445
#     4  11  23  44  77 112 145 194 258 323 381 439
#     4  10  22  48  72 102 142 192 248 304 372 446
#     4  12  28  48  70 110 162 204 252 300 384 474
#     4  12  26  47  71 110 149 196 253 316 385 459
#     4  11  24  44  73 108 148 200 251 313 372 444
#
# _framework density 23.852343999999999
#
# number of rings (size 3 to 8) (size 9 to 14) (size 15 to 20)
#    0.000    0.800    3.000    4.800    0.000    6.400 
#    1.800    0.000    0.000    0.000    0.000    0.000 
#    0.000    0.000    0.000    0.000    0.000    0.000 
#
# Total GULP energy -111432.878863 kJ/mol
# GULP energy per Si atom -5571.643943 kJ/mol
# Density = 2.379806 g / cm^3
# Si number density = 23.852344 Si / 1000 Ang^3
#
#
#
# Elastic Constant Matrix: (Units=GPa)
#
#
# Indices 1 2 3 4 5 6 
#
# 1 94.4168 -3.6931 -7.0949 0.0000 5.9949 0.0000
# 2 -3.6931 81.8142 -1.9063 0.0000 12.4089 0.0000
# 3 -7.0949 -1.9063 91.4189 0.0000 -23.4776 0.0000
# 4 0.0000 0.0000 0.0000 11.4673 0.0000 -8.1476
# 5 5.9949 12.4089 -23.4776 0.0000 17.9831 0.0000
# 6 0.0000 0.0000 0.0000 -8.1476 0.0000 66.6629
#
#
#
# Elastic Compliance Matrix: (Units=1/GPa)
#
#
# Indices 1 2 3 4 5 6 
#
# 1 0.010930 0.001251 -0.000426 0.000000 -0.005063 0.000000
# 2 0.001251 0.014452 -0.003414 0.000000 -0.014847 0.000000
# 3 -0.000426 -0.003414 0.017264 0.000000 0.025037 0.000000
# 4 0.000000 0.000000 0.000000 0.095498 0.000000 0.011672
# 5 -0.005063 -0.014847 0.025037 0.000000 0.100227 0.000000
# 6 0.000000 0.000000 0.000000 0.011672 0.000000 0.016427
#
#
# Mechanical properties :
#
#
# Convention : Reuss Voigt Hill
#
# Bulk Modulus (GPa) = 26.68963 26.91791 26.80377
# Shear Modulus (GPa) = 18.35095 37.91226 28.13161
#
# Velocity S-wave (km/s) = 2.77674 3.99112 3.43797
# Velocity P-wave (km/s) = 4.63618 5.70513 5.19820
#
# Compressibility (1/GPa) = 0.03746773
#
# Stress axis : x y z
#
# Youngs Moduli (GPa) = 91.49336 69.19653 57.92297
#
# Poissons Ratio (x) = -0.08659 0.02467
# Poissons Ratio (y) = -0.11449 0.19777
# Poissons Ratio (z) = 0.03897 0.23626
#
# Static dielectric constant tensor:
#      x y z
#    x 1.958070 0.000000 0.148100 
#    y 0.000000 2.026030 0.000000 
#    z 0.148100 0.000000 2.111240 
# 
# From -- ./inp_files/29285.got.cif
#   From: 2010.05.17/outbox.cif.g08.bks.cpg/sg15_15_cif.got.tgz:29285.got - 2010.06.03 18:47:42.
