data_PCOD9293660
_publ_section_title
;
Structure prediction by ZEFSAII (Michael W. Deem and Ramdas Pophale) SiO2 
 PCOD9293660
Probable space group: C 2/C
;
_chemical_formula_sum "Si O2"
_cell_formula_units_Z 40
_cell_length_a 8.440695
_cell_length_b 9.933147
_cell_length_c 21.556408
_cell_angle_alpha 90.000000
_cell_angle_beta 66.132601
_cell_angle_gamma 90.000000
_cell_volume 1652.790217
_symmetry_space_group_name_H-M "C 2/C"
_symmetry_group_IT_number 15
_symmetry_cell_setting 'monoclinic'
loop_
_space_group_symop_operation_xyz
x,y,z
-x,y,1/2-z
-x,-y,-z
x,-y,1/2+z
1/2+x,1/2+y,z
1/2-x,1/2+y,1/2-z
1/2-x,1/2-y,-z
1/2+x,1/2-y,1/2+z
loop_
_atom_site_type_symbol
_atom_site_label
_atom_site_fract_x
_atom_site_fract_y
_atom_site_fract_z
Si Si1 0.618477 0.002898 0.682299
Si Si2 0.706098 0.475776 0.965347
Si Si3 0.056342 0.268032 0.613709
Si Si4 0.987548 0.973188 0.678469
Si Si5 0.276213 0.842213 0.556264
O O1 0.500000 0.082456 0.750000
O O2 0.696439 0.059237 0.605320
O O3 0.508290 0.875747 0.675054
O O4 0.790304 0.954685 0.689475
O O5 0.755040 0.324554 0.936609
O O6 0.500000 0.500000 0.000000
O O7 0.790351 0.514659 0.017304
O O8 0.041532 0.120119 0.643024
O O9 0.931811 0.296725 0.575394
O O10 0.000000 0.971333 0.750000
O O11 0.109799 0.864714 0.626185
O O12 0.250000 0.750000 0.500000
#
# Coordination Sequence:
#
# PCOD9293660 Si02
#       5
#     8   8   8   8   8
#     4  10  22  46  72 105 152 195 254 315 379 459
#     4  10  22  48  75 107 155 197 251 312 382 456
#     4  10  25  46  77 105 155 195 259 311 391 449
#     4  12  26  49  79 109 152 202 258 319 391 456
#     4  12  25  47  76 115 150 203 253 312 387 463
#
# _framework density 24.201497
#
# number of rings (size 3 to 8) (size 9 to 14) (size 15 to 20)
#    1.200    0.000    2.000    3.600    0.000    0.800 
#   10.800   12.000    0.000    0.000    0.000    0.000 
#    0.000    0.000    0.000    0.000    0.000    0.000 
#
# Total GULP energy -111640.887094 kJ/mol
# GULP energy per Si atom -5582.044355 kJ/mol
# Density = 2.414641 g / cm^3
# Si number density = 24.201497 Si / 1000 Ang^3
#
#
#
# Elastic Constant Matrix: (Units=GPa)
#
#
# Indices 1 2 3 4 5 6 
#
# 1 134.5833 31.1213 91.8589 0.0000 13.9386 0.0000
# 2 31.1213 89.9140 55.3602 0.0000 -1.3020 0.0000
# 3 91.8589 55.3602 234.2427 0.0000 3.7564 0.0000
# 4 0.0000 0.0000 0.0000 43.4183 0.0000 8.1460
# 5 13.9386 -1.3020 3.7564 0.0000 64.4603 0.0000
# 6 0.0000 0.0000 0.0000 8.1460 0.0000 21.8716
#
#
#
# Elastic Compliance Matrix: (Units=1/GPa)
#
#
# Indices 1 2 3 4 5 6 
#
# 1 0.010539 -0.001350 -0.003780 0.000000 -0.002086 0.000000
# 2 -0.001350 0.013201 -0.002602 0.000000 0.000710 0.000000
# 3 -0.003780 -0.002602 0.006360 0.000000 0.000394 0.000000
# 4 0.000000 0.000000 0.000000 0.024762 0.000000 -0.009223
# 5 -0.002086 0.000710 0.000394 0.000000 0.015956 0.000000
# 6 0.000000 0.000000 0.000000 -0.009223 0.000000 0.049156
#
#
# Mechanical properties :
#
#
# Convention : Reuss Voigt Hill
#
# Bulk Modulus (GPa) = 68.32764 90.60232 79.46498
# Shear Modulus (GPa) = 35.63340 44.64335 40.13837
#
# Velocity S-wave (km/s) = 3.84130 4.29960 4.07690
# Velocity P-wave (km/s) = 6.92591 7.88459 7.42075
#
# Compressibility (1/GPa) = 0.01463537
#
# Stress axis : x y z
#
# Youngs Moduli (GPa) = 94.88740 75.74974 157.23099
#
# Poissons Ratio (x) = 0.10230 0.59437
# Poissons Ratio (y) = 0.12814 0.40908
# Poissons Ratio (z) = 0.35869 0.19708
#
# Static dielectric constant tensor:
#      x y z
#    x 1.868190 0.000000 -0.005010 
#    y 0.000000 2.078320 0.000000 
#    z -0.005010 0.000000 2.034850 
# 
# From -- ./inp_files/187899.got.cif
#   From: 2010.05.17/outbox.cif.g08.bks.cpg/sg15_94_cif.got.tgz:187899.got - 2010.06.03 18:47:42.
