data_PCOD9293804
_publ_section_title
;
Structure prediction by ZEFSAII (Michael W. Deem and Ramdas Pophale) SiO2 
 PCOD9293804
Probable space group: C 2/C
;
_chemical_formula_sum "Si O2"
_cell_formula_units_Z 32
_cell_length_a 5.342245
_cell_length_b 14.324492
_cell_length_c 17.308329
_cell_angle_alpha 90.000000
_cell_angle_beta 76.312814
_cell_angle_gamma 90.000000
_cell_volume 1286.905334
_symmetry_space_group_name_H-M "C 2/C"
_symmetry_group_IT_number 15
_symmetry_cell_setting 'monoclinic'
loop_
_space_group_symop_operation_xyz
x,y,z
-x,y,1/2-z
-x,-y,-z
x,-y,1/2+z
1/2+x,1/2+y,z
1/2-x,1/2+y,1/2-z
1/2-x,1/2-y,-z
1/2+x,1/2-y,1/2+z
loop_
_atom_site_type_symbol
_atom_site_label
_atom_site_fract_x
_atom_site_fract_y
_atom_site_fract_z
Si Si1 0.871654 0.399657 0.495081
Si Si2 0.534039 0.812614 0.858956
Si Si3 0.532650 0.583321 0.356411
Si Si4 0.767894 0.382467 0.326882
O O1 0.883089 0.375868 0.405137
O O2 0.580061 0.409695 0.547828
O O3 0.000000 0.500000 0.500000
O O4 0.993197 0.325168 0.545726
O O5 0.289173 0.376795 0.827039
O O6 0.592202 0.708121 0.831318
O O7 0.285855 0.854226 0.836675
O O8 0.500000 0.883166 0.250000
O O9 0.607162 0.477723 0.333255
#
# Coordination Sequence:
#
# PCOD9293804 Si02
#       4
#     8   8   8   8
#     4  10  22  47  75 101 138 193 241 283 349 430
#     4  10  25  44  75  97 140 185 243 279 352 423
#     4  10  24  46  73  98 140 187 240 285 346 428
#     4  12  25  44  71 108 143 183 236 302 360 411
#
# _framework density 24.865856000000001
#
# number of rings (size 3 to 8) (size 9 to 14) (size 15 to 20)
#    1.500    0.000    2.500    1.500    0.000    7.000 
#    0.000    6.250    0.000    0.000    0.000    0.000 
#    0.000    0.000    0.000    0.000    0.000    0.000 
#
# Total GULP energy -89682.951807 kJ/mol
# GULP energy per Si atom -5605.184488 kJ/mol
# Density = 2.480926 g / cm^3
# Si number density = 24.865856 Si / 1000 Ang^3
#
#
#
# Elastic Constant Matrix: (Units=GPa)
#
#
# Indices 1 2 3 4 5 6 
#
# 1 165.3837 67.5670 64.3557 0.0000 -11.2494 0.0000
# 2 67.5670 174.2354 47.0424 0.0000 -16.0552 0.0000
# 3 64.3557 47.0424 192.4058 0.0000 -3.9005 0.0000
# 4 0.0000 0.0000 0.0000 7.1586 0.0000 -7.1847
# 5 -11.2494 -16.0552 -3.9005 0.0000 36.8686 0.0000
# 6 0.0000 0.0000 0.0000 -7.1847 0.0000 -35.3319
#
#
#
# Elastic Compliance Matrix: (Units=1/GPa)
#
#
# Indices 1 2 3 4 5 6 
#
# 1 0.007899 -0.002409 -0.002030 0.000000 0.001146 0.000000
# 2 -0.002409 0.007123 -0.000890 0.000000 0.002273 0.000000
# 3 -0.002030 -0.000890 0.006086 0.000000 -0.000363 0.000000
# 4 0.000000 0.000000 0.000000 0.116015 0.000000 -0.023591
# 5 0.001146 0.002273 -0.000363 0.000000 0.028424 0.000000
# 6 0.000000 0.000000 0.000000 -0.023591 0.000000 -0.023506
#
#
# Mechanical properties :
#
#
# Convention : Reuss Voigt Hill
#
# Bulk Modulus (GPa) = 95.68476 98.88389 97.28432
# Shear Modulus (GPa) = 32.01382 25.27640 28.64511
#
# Velocity S-wave (km/s) = 3.59201 3.19173 3.39777
# Velocity P-wave (km/s) = 7.46775 7.31000 7.38930
#
# Compressibility (1/GPa) = 0.01045099
#
# Stress axis : x y z
#
# Youngs Moduli (GPa) = 126.60395 140.38356 164.30159
#
# Poissons Ratio (x) = 0.33825 0.33347
# Poissons Ratio (y) = 0.30504 0.14617
# Poissons Ratio (z) = 0.25696 0.12489
#
# Static dielectric constant tensor:
#      x y z
#    x 1.926140 0.000000 0.005080 
#    y 0.000000 1.890690 0.000000 
#    z 0.005080 0.000000 2.138390 
# 
# From -- ./inp_files/259714.got.cif
#   From: 2010.05.17/outbox.cif.g08.bks.cpg/sg15_130_cif.got.tgz:259714.got - 2010.06.03 18:47:42.
