data_PCOD9293485
_publ_section_title
;
Structure prediction by ZEFSAII (Michael W. Deem and Ramdas Pophale) SiO2 
 PCOD9293485
Probable space group: C 2/C
;
_chemical_formula_sum "Si O2"
_cell_formula_units_Z 60
_cell_length_a 22.144869
_cell_length_b 22.222272
_cell_length_c 9.028898
_cell_angle_alpha 90.000000
_cell_angle_beta 36.037091
_cell_angle_gamma 90.000000
_cell_volume 2613.976664
_symmetry_space_group_name_H-M "C 2/C"
_symmetry_group_IT_number 15
_symmetry_cell_setting 'monoclinic'
loop_
_space_group_symop_operation_xyz
x,y,z
-x,y,1/2-z
-x,-y,-z
x,-y,1/2+z
1/2+x,1/2+y,z
1/2-x,1/2+y,1/2-z
1/2-x,1/2-y,-z
1/2+x,1/2-y,1/2+z
loop_
_atom_site_type_symbol
_atom_site_label
_atom_site_fract_x
_atom_site_fract_y
_atom_site_fract_z
Si Si1 0.530895 0.744668 0.532252
Si Si2 0.000000 0.346473 0.250000
Si Si3 0.114310 0.508441 0.473366
Si Si4 0.344177 0.250920 0.195014
Si Si5 0.398351 0.876934 0.154926
Si Si6 0.323082 0.326734 0.945634
Si Si7 0.256353 0.523149 0.950496
Si Si8 0.890404 0.053695 0.418292
O O1 0.500000 0.718799 0.750000
O O2 0.441763 0.726909 0.595333
O O3 0.545962 0.816643 0.517385
O O4 0.634208 0.717905 0.261466
O O5 0.901990 0.306744 0.503321
O O6 0.954115 0.381019 0.201196
O O7 0.106674 0.438692 0.428451
O O8 0.190753 0.514519 0.460727
O O9 0.166177 0.546944 0.237869
O O10 0.000000 0.518822 0.750000
O O11 0.250000 0.250000 0.500000
O O12 0.310194 0.291942 0.125620
O O13 0.280789 0.857302 0.400463
O O14 0.401315 0.381438 0.821721
O O15 0.323706 0.561779 0.702022
O O16 0.330752 0.487851 0.916858
O O17 0.000000 0.028167 0.250000
#
# Coordination Sequence:
#
# PCOD9293485 Si02
#       8
#     8   4   8   8   8   8   8   8
#     4  11  23  39  66 104 144 182 227 274 334 410
#     4  10  24  44  60 106 148 178 224 280 332 408
#     4  11  23  45  73  99 133 181 224 287 348 415
#     4  11  22  40  65  98 143 191 223 274 331 394
#     4  11  22  43  69 100 139 182 225 275 345 412
#     4  12  22  44  71 100 141 184 232 277 340 415
#     4  10  22  46  64 102 135 165 239 283 355 398
#     4  11  23  44  76  99 133 182 227 291 348 411
#
# _framework density 22.953533
#
# number of rings (size 3 to 8) (size 9 to 14) (size 15 to 20)
#    0.000    1.067    5.333    3.200    1.867    1.067 
#    6.000    6.000    0.000    0.000    0.000    0.000 
#    0.000    0.000    0.000    0.000    0.000    0.000 
#
# Total GULP energy -167399.706128 kJ/mol
# GULP energy per Si atom -5579.990204 kJ/mol
# Density = 2.290129 g / cm^3
# Si number density = 22.953533 Si / 1000 Ang^3
#
#
#
# Elastic Constant Matrix: (Units=GPa)
#
#
# Indices 1 2 3 4 5 6 
#
# 1 147.5475 49.6856 41.4679 0.0000 1.5520 0.0000
# 2 49.6856 93.3240 43.3168 0.0000 0.5981 0.0000
# 3 41.4679 43.3168 141.2005 0.0000 9.5305 0.0000
# 4 0.0000 0.0000 0.0000 11.9019 0.0000 -0.2407
# 5 1.5520 0.5981 9.5305 0.0000 45.2599 0.0000
# 6 0.0000 0.0000 0.0000 -0.2407 0.0000 22.6800
#
#
#
# Elastic Compliance Matrix: (Units=1/GPa)
#
#
# Indices 1 2 3 4 5 6 
#
# 1 0.008453 -0.003903 -0.001287 0.000000 0.000033 0.000000
# 2 -0.003903 0.014316 -0.003288 0.000000 0.000637 0.000000
# 3 -0.001287 -0.003288 0.008585 0.000000 -0.001720 0.000000
# 4 0.000000 0.000000 0.000000 0.084038 0.000000 0.000892
# 5 0.000033 0.000637 -0.001720 0.000000 0.022447 0.000000
# 6 0.000000 0.000000 0.000000 0.000892 0.000000 0.044101
#
#
# Mechanical properties :
#
#
# Convention : Reuss Voigt Hill
#
# Bulk Modulus (GPa) = 69.46313 72.33473 70.89893
# Shear Modulus (GPa) = 24.54625 32.47515 28.51070
#
# Velocity S-wave (km/s) = 3.27370 3.76549 3.52817
# Velocity P-wave (km/s) = 6.67965 7.10543 6.89583
#
# Compressibility (1/GPa) = 0.01439613
#
# Stress axis : x y z
#
# Youngs Moduli (GPa) = 118.29666 69.85357 116.48066
#
# Poissons Ratio (x) = 0.27265 0.14996
# Poissons Ratio (y) = 0.46174 0.38303
# Poissons Ratio (z) = 0.15229 0.22971
#
# Static dielectric constant tensor:
#      x y z
#    x 1.769770 0.000000 -0.006140 
#    y 0.000000 1.893700 0.000000 
#    z -0.006140 0.000000 1.933310 
# 
# From -- ./inp_files/58724.got.cif
#   From: 2010.05.17/outbox.cif.g08.bks.cpg/sg15_30_cif.got.tgz:58724.got - 2010.06.03 18:47:42.
