data_PCOD9293394
_publ_section_title
;
Structure prediction by ZEFSAII (Michael W. Deem and Ramdas Pophale) SiO2 
 PCOD9293394
Probable space group: C 2/C
;
_chemical_formula_sum "Si O2"
_cell_formula_units_Z 48
_cell_length_a 14.202062
_cell_length_b 11.881090
_cell_length_c 21.634896
_cell_angle_alpha 90.000000
_cell_angle_beta 143.721438
_cell_angle_gamma 90.000000
_cell_volume 2160.093632
_symmetry_space_group_name_H-M "C 2/C"
_symmetry_group_IT_number 15
_symmetry_cell_setting 'monoclinic'
loop_
_space_group_symop_operation_xyz
x,y,z
-x,y,1/2-z
-x,-y,-z
x,-y,1/2+z
1/2+x,1/2+y,z
1/2-x,1/2+y,1/2-z
1/2-x,1/2-y,-z
1/2+x,1/2-y,1/2+z
loop_
_atom_site_type_symbol
_atom_site_label
_atom_site_fract_x
_atom_site_fract_y
_atom_site_fract_z
Si Si1 0.702942 0.604791 0.630829
Si Si2 0.321120 0.739543 0.672476
Si Si3 0.160583 0.416477 0.712188
Si Si4 0.678723 0.356280 0.822141
Si Si5 0.640203 0.577192 0.996512
Si Si6 0.822610 0.453795 0.469383
O O1 0.814532 0.521438 0.729114
O O2 0.777789 0.725485 0.659071
O O3 0.538381 0.614653 0.581897
O O4 0.665485 0.539887 0.546885
O O5 0.500000 0.708329 0.750000
O O6 0.323275 0.803491 0.738610
O O7 0.256211 0.831288 0.589221
O O8 0.211585 0.631158 0.605225
O O9 0.295230 0.409993 0.731428
O O10 0.991566 0.427557 0.589227
O O11 0.500000 0.372667 0.750000
O O12 0.798490 0.421226 0.931287
O O13 0.690297 0.567389 0.952288
#
# Coordination Sequence:
#
# PCOD9293394 Si02
#       6
#     8   8   8   8   8   8
#     4  10  25  46  70 100 148 198 239 289 372 433
#     4  11  23  41  75 107 138 188 237 303 368 422
#     4  11  26  47  73 103 149 192 245 301 363 437
#     4  12  28  46  70 107 147 196 240 302 365 440
#     4  10  22  45  72 106 142 189 244 301 359 433
#     4  12  25  44  75 109 145 186 251 306 364 432
#
# _framework density 22.221259
#
# number of rings (size 3 to 8) (size 9 to 14) (size 15 to 20)
#    0.000    1.000    1.667    3.500    7.000    0.667 
#    6.000    0.000    0.000    0.000    0.000    0.000 
#    0.000    0.000    0.000    0.000    0.000    0.000 
#
# Total GULP energy -134440.107822 kJ/mol
# GULP energy per Si atom -5601.671159 kJ/mol
# Density = 2.217068 g / cm^3
# Si number density = 22.221259 Si / 1000 Ang^3
#
#
#
# Elastic Constant Matrix: (Units=GPa)
#
#
# Indices 1 2 3 4 5 6 
#
# 1 114.6138 34.9924 42.6184 0.0000 -3.4228 0.0000
# 2 34.9924 128.9162 60.7007 0.0000 -8.4528 0.0000
# 3 42.6184 60.7007 127.0547 0.0001 8.0511 0.0001
# 4 0.0000 0.0000 0.0001 155.2073 0.0000 98.2481
# 5 -3.4228 -8.4528 8.0511 0.0000 24.5412 0.0000
# 6 0.0000 0.0000 0.0001 98.2481 0.0000 100.4956
#
#
#
# Elastic Compliance Matrix: (Units=1/GPa)
#
#
# Indices 1 2 3 4 5 6 
#
# 1 0.010273 -0.001262 -0.002968 0.000000 0.001972 0.000000
# 2 -0.001262 0.010836 -0.005085 0.000000 0.005225 0.000000
# 3 -0.002968 -0.005085 0.011675 0.000000 -0.005996 0.000000
# 4 0.000000 0.000000 0.000000 0.016904 0.000000 -0.016526
# 5 0.001972 0.005225 -0.005996 0.000000 0.044789 0.000000
# 6 0.000000 0.000000 0.000000 -0.016526 0.000000 0.026107
#
#
# Mechanical properties :
#
#
# Convention : Reuss Voigt Hill
#
# Bulk Modulus (GPa) = 70.64488 71.91196 71.27842
# Shear Modulus (GPa) = 34.73846 71.53372 53.13609
#
# Velocity S-wave (km/s) = 3.95815 5.67992 4.89532
# Velocity P-wave (km/s) = 7.26291 8.68604 8.00616
#
# Compressibility (1/GPa) = 0.01415531
#
# Stress axis : x y z
#
# Youngs Moduli (GPa) = 97.34593 92.28299 85.64964
#
# Poissons Ratio (x) = 0.11642 0.25421
# Poissons Ratio (y) = 0.12281 0.43552
# Poissons Ratio (z) = 0.28893 0.46925
#
# Static dielectric constant tensor:
#      x y z
#    x 1.800560 0.000000 -0.006310 
#    y 0.000000 1.808210 0.000000 
#    z -0.006310 0.000000 1.798950 
# 
# From -- ./inp_files/243975.got.cif
#   From: 2010.05.17/outbox.cif.g08.bks.cpg/sg15_122_cif.got.tgz:243975.got - 2010.06.03 18:47:42.
