data_PCOD9293783
_publ_section_title
;
Structure prediction by ZEFSAII (Michael W. Deem and Ramdas Pophale) SiO2 
 PCOD9293783
Probable space group: C 2/C
;
_chemical_formula_sum "Si O2"
_cell_formula_units_Z 40
_cell_length_a 21.632569
_cell_length_b 8.056477
_cell_length_c 13.459737
_cell_angle_alpha 90.000000
_cell_angle_beta 134.764496
_cell_angle_gamma 90.000000
_cell_volume 1665.530605
_symmetry_space_group_name_H-M "C 2/C"
_symmetry_group_IT_number 15
_symmetry_cell_setting 'monoclinic'
loop_
_space_group_symop_operation_xyz
x,y,z
-x,y,1/2-z
-x,-y,-z
x,-y,1/2+z
1/2+x,1/2+y,z
1/2-x,1/2+y,1/2-z
1/2-x,1/2-y,-z
1/2+x,1/2-y,1/2+z
loop_
_atom_site_type_symbol
_atom_site_label
_atom_site_fract_x
_atom_site_fract_y
_atom_site_fract_z
Si Si1 0.049417 0.393642 0.474514
Si Si2 0.834596 0.617337 0.028610
Si Si3 0.297934 0.515082 0.477593
Si Si4 0.335449 0.612397 0.804472
Si Si5 0.434580 0.599136 0.259049
O O1 0.090258 0.514425 0.438062
O O2 0.125097 0.285847 0.613511
O O3 0.000000 0.500000 0.500000
O O4 0.982685 0.261610 0.352515
O O5 0.848207 0.812664 0.060456
O O6 0.751069 0.619271 0.859799
O O7 0.798817 0.538959 0.090089
O O8 0.309731 0.482280 0.375982
O O9 0.346025 0.374072 0.596432
O O10 0.407739 0.514676 0.821811
O O11 0.500000 0.527037 0.250000
#
# Coordination Sequence:
#
# PCOD9293783 Si02
#       5
#     8   8   8   8   8
#     4  12  26  44  70 110 141 181 237 297 349 409
#     4  10  24  45  71 105 137 186 237 292 337 420
#     4  10  22  47  71  98 141 189 235 278 355 417
#     4  11  23  46  73  99 145 193 228 283 356 419
#     4  11  24  45  70 104 141 191 227 284 362 412
#
# _framework density 24.016369999999998
#
# number of rings (size 3 to 8) (size 9 to 14) (size 15 to 20)
#    0.000    1.200    2.000    3.000    2.800    2.400 
#   18.000    0.000    0.000    0.000    0.000    0.000 
#    0.000    0.000    0.000    0.000    0.000    0.000 
#
# Total GULP energy -112008.872474 kJ/mol
# GULP energy per Si atom -5600.443624 kJ/mol
# Density = 2.396171 g / cm^3
# Si number density = 24.016370 Si / 1000 Ang^3
#
#
#
# Elastic Constant Matrix: (Units=GPa)
#
#
# Indices 1 2 3 4 5 6 
#
# 1 215.1637 78.0762 26.4853 0.0000 -31.2230 0.0000
# 2 78.0762 98.2756 27.3246 0.0000 5.9750 0.0000
# 3 26.4853 27.3246 84.6895 0.0000 -11.8253 0.0000
# 4 0.0000 0.0000 0.0000 30.2288 0.0000 9.1303
# 5 -31.2230 5.9750 -11.8253 0.0000 37.5275 0.0000
# 6 0.0000 0.0000 0.0000 9.1303 0.0000 42.6613
#
#
#
# Elastic Compliance Matrix: (Units=1/GPa)
#
#
# Indices 1 2 3 4 5 6 
#
# 1 0.008520 -0.007563 0.000977 0.000000 0.008600 0.000000
# 2 -0.007563 0.018236 -0.005024 0.000000 -0.010779 0.000000
# 3 0.000977 -0.005024 0.013963 0.000000 0.006012 0.000000
# 4 0.000000 0.000000 0.000000 0.035367 0.000000 -0.007569
# 5 0.008600 -0.010779 0.006012 0.000000 0.037413 0.000000
# 6 0.000000 0.000000 0.000000 -0.007569 0.000000 0.025060
#
#
# Mechanical properties :
#
#
# Convention : Reuss Voigt Hill
#
# Bulk Modulus (GPa) = 57.14764 73.54457 65.34611
# Shear Modulus (GPa) = 29.83060 39.83304 34.83182
#
# Velocity S-wave (km/s) = 3.52816 4.07698 3.81246
# Velocity P-wave (km/s) = 6.35957 7.26991 6.82992
#
# Compressibility (1/GPa) = 0.01749853
#
# Stress axis : x y z
#
# Youngs Moduli (GPa) = 117.37244 54.83581 71.61911
#
# Poissons Ratio (x) = 0.41473 -0.06995
# Poissons Ratio (y) = 0.88771 0.35979
# Poissons Ratio (z) = -0.11463 0.27548
#
# Static dielectric constant tensor:
#      x y z
#    x 1.897460 0.000000 0.013840 
#    y 0.000000 1.916650 0.000000 
#    z 0.013840 0.000000 1.973400 
# 
# From -- ./inp_files/166511.got.cif
#   From: 2010.05.17/outbox.cif.g08.bks.cpg/sg15_84_cif.got.tgz:166511.got - 2010.06.03 18:47:42.
