data_PCOD9293204
_publ_section_title
;
Structure prediction by ZEFSAII (Michael W. Deem and Ramdas Pophale) SiO2 
 PCOD9293204
Probable space group: C 2/C
;
_chemical_formula_sum "Si O2"
_cell_formula_units_Z 44
_cell_length_a 23.483791
_cell_length_b 8.916807
_cell_length_c 12.246697
_cell_angle_alpha 90.000000
_cell_angle_beta 51.649925
_cell_angle_gamma 90.000000
_cell_volume 2011.140607
_symmetry_space_group_name_H-M "C 2/C"
_symmetry_group_IT_number 15
_symmetry_cell_setting 'monoclinic'
loop_
_space_group_symop_operation_xyz
x,y,z
-x,y,1/2-z
-x,-y,-z
x,-y,1/2+z
1/2+x,1/2+y,z
1/2-x,1/2+y,1/2-z
1/2-x,1/2-y,-z
1/2+x,1/2-y,1/2+z
loop_
_atom_site_type_symbol
_atom_site_label
_atom_site_fract_x
_atom_site_fract_y
_atom_site_fract_z
Si Si1 0.907589 0.320350 0.766275
Si Si2 0.500000 0.428185 0.250000
Si Si3 0.294013 0.170625 0.209487
Si Si4 0.954589 0.354256 0.152359
Si Si5 0.406477 0.699596 0.429821
Si Si6 0.152257 0.658356 0.917958
O O1 0.959175 0.176608 0.712247
O O2 0.840862 0.303148 0.763179
O O3 0.951170 0.469261 0.680621
O O4 0.877638 0.342507 0.924246
O O5 0.440191 0.535074 0.377227
O O6 0.211474 0.212453 0.329560
O O7 0.308983 0.001063 0.153118
O O8 0.328752 0.278917 0.075768
O O9 0.912853 0.273238 0.302465
O O10 0.911969 0.323227 0.092795
O O11 0.036260 0.293289 0.063877
#
# Coordination Sequence:
#
# PCOD9293204 Si02
#       6
#     8   4   8   8   8   8
#     4  11  23  42  65  98 125 165 215 266 311 376
#     4  10  24  38  68  96 128 162 206 276 312 366
#     4  11  26  43  66  92 134 166 214 260 315 380
#     4   9  21  43  67  89 126 166 215 253 323 376
#     4  10  22  45  62  99 124 167 209 264 318 377
#     4  11  25  42  65  94 126 178 205 262 314 382
#
# _framework density 21.878131
#
# number of rings (size 3 to 8) (size 9 to 14) (size 15 to 20)
#    0.000    1.818    1.818    1.636    5.091    5.818 
#    0.000    0.000    0.000    0.000    0.000    0.000 
#    0.000    0.000    0.000    0.000    0.000    0.000 
#
# Total GULP energy -123220.144854 kJ/mol
# GULP energy per Si atom -5600.915675 kJ/mol
# Density = 2.182834 g / cm^3
# Si number density = 21.878131 Si / 1000 Ang^3
#
#
#
# Elastic Constant Matrix: (Units=GPa)
#
#
# Indices 1 2 3 4 5 6 
#
# 1 52.1957 23.2987 49.0186 0.0000 6.5759 0.0000
# 2 23.2987 97.6338 16.6821 0.0000 3.4265 0.0000
# 3 49.0186 16.6821 88.6361 0.0000 12.7861 0.0000
# 4 0.0000 0.0000 0.0000 22.5647 0.0000 -1.7017
# 5 6.5759 3.4265 12.7861 0.0000 30.2256 0.0000
# 6 0.0000 0.0000 0.0000 -1.7017 0.0000 21.6258
#
#
#
# Elastic Compliance Matrix: (Units=1/GPa)
#
#
# Indices 1 2 3 4 5 6 
#
# 1 0.043523 -0.006493 -0.022991 0.000000 0.000993 0.000000
# 2 -0.006493 0.011555 0.001492 0.000000 -0.000529 0.000000
# 3 -0.022991 0.001492 0.024515 0.000000 -0.005538 0.000000
# 4 0.000000 0.000000 0.000000 0.044582 0.000000 0.003508
# 5 0.000993 -0.000529 -0.005538 0.000000 0.035271 0.000000
# 6 0.000000 0.000000 0.000000 0.003508 0.000000 0.046517
#
#
# Mechanical properties :
#
#
# Convention : Reuss Voigt Hill
#
# Bulk Modulus (GPa) = 42.35436 46.27382 44.31409
# Shear Modulus (GPa) = 18.53112 24.84763 21.68938
#
# Velocity S-wave (km/s) = 2.91351 3.37371 3.15202
# Velocity P-wave (km/s) = 5.54250 6.03097 5.79189
#
# Compressibility (1/GPa) = 0.02361032
#
# Stress axis : x y z
#
# Youngs Moduli (GPa) = 22.97619 86.54018 40.79163
#
# Poissons Ratio (x) = 0.56187 0.93784
# Poissons Ratio (y) = 0.14918 -0.06086
# Poissons Ratio (z) = 0.52825 -0.12912
#
# Static dielectric constant tensor:
#      x y z
#    x 1.752470 0.000000 0.002680 
#    y 0.000000 1.804730 0.000000 
#    z 0.002680 0.000000 1.801840 
# 
# From -- ./inp_files/116688.got.cif
#   From: 2010.05.17/outbox.cif.g08.bks.cpg/sg15_59_cif.got.tgz:116688.got - 2010.06.03 18:47:42.
