data_PCOD9293874
_publ_section_title
;
Structure prediction by ZEFSAII (Michael W. Deem and Ramdas Pophale) SiO2 
 PCOD9293874
Probable space group: C 2/C
;
_chemical_formula_sum "Si O2"
_cell_formula_units_Z 36
_cell_length_a 4.929971
_cell_length_b 16.288787
_cell_length_c 22.748576
_cell_angle_alpha 90.000000
_cell_angle_beta 127.220323
_cell_angle_gamma 90.000000
_cell_volume 1454.696680
_symmetry_space_group_name_H-M "C 2/C"
_symmetry_group_IT_number 15
_symmetry_cell_setting 'monoclinic'
loop_
_space_group_symop_operation_xyz
x,y,z
-x,y,1/2-z
-x,-y,-z
x,-y,1/2+z
1/2+x,1/2+y,z
1/2-x,1/2+y,1/2-z
1/2-x,1/2-y,-z
1/2+x,1/2-y,1/2+z
loop_
_atom_site_type_symbol
_atom_site_label
_atom_site_fract_x
_atom_site_fract_y
_atom_site_fract_z
Si Si1 0.858565 0.590642 0.474367
Si Si2 0.006135 0.316808 0.112391
Si Si3 0.500000 0.433371 0.250000
Si Si4 0.008674 0.699403 0.111148
Si Si5 0.873794 0.087899 0.309935
O O1 0.085033 0.645239 0.458705
O O2 0.491307 0.582325 0.393751
O O3 0.000000 0.500000 0.500000
O O4 0.868523 0.635390 0.537707
O O5 0.224729 0.376009 0.182528
O O6 0.232247 0.240980 0.116712
O O7 0.710896 0.277180 0.111804
O O8 0.372965 0.496942 0.282877
O O9 0.308563 0.639798 0.174746
O O10 0.500000 0.123461 0.250000
#
# Coordination Sequence:
#
# PCOD9293874 Si02
#       5
#     8   8   4   8   8
#     4  10  22  49  76 107 149 196 252 298 378 441
#     4  12  25  49  71 119 137 207 233 328 355 457
#     4  12  28  42  74 104 158 184 266 288 390 430
#     4  10  27  46  80 102 157 183 260 296 386 426
#     4  10  26  47  71 107 148 201 244 312 365 454
#
# _framework density 24.747429
#
# number of rings (size 3 to 8) (size 9 to 14) (size 15 to 20)
#    1.333    0.000    2.222    1.333    7.778    0.000 
#    4.000    3.333    0.000    0.000    0.000    0.000 
#    0.000    0.000    0.000    0.000    0.000    0.000 
#
# Total GULP energy -100689.446577 kJ/mol
# GULP energy per Si atom -5593.858143 kJ/mol
# Density = 2.469110 g / cm^3
# Si number density = 24.747429 Si / 1000 Ang^3
#
#
#
# Elastic Constant Matrix: (Units=GPa)
#
#
# Indices 1 2 3 4 5 6 
#
# 1 49.8844 10.1151 27.9964 0.0000 15.2426 0.0000
# 2 10.1151 142.0600 71.3800 0.0000 0.1406 0.0000
# 3 27.9964 71.3800 203.0464 0.0000 6.8405 0.0000
# 4 0.0000 0.0000 0.0000 77.9038 0.0000 17.0394
# 5 15.2426 0.1406 6.8405 0.0000 35.9603 0.0000
# 6 0.0000 0.0000 0.0000 17.0394 0.0000 39.6398
#
#
#
# Elastic Compliance Matrix: (Units=1/GPa)
#
#
# Indices 1 2 3 4 5 6 
#
# 1 0.024820 -0.000251 -0.002999 0.000000 -0.009949 0.000000
# 2 -0.000251 0.008562 -0.002997 0.000000 0.000643 0.000000
# 3 -0.002999 -0.002997 0.006390 0.000000 0.000067 0.000000
# 4 0.000000 0.000000 0.000000 0.014168 0.000000 -0.006090
# 5 -0.009949 0.000643 0.000067 0.000000 0.032010 0.000000
# 6 0.000000 0.000000 0.000000 -0.006090 0.000000 0.027845
#
#
# Mechanical properties :
#
#
# Convention : Reuss Voigt Hill
#
# Bulk Modulus (GPa) = 36.65801 68.21932 52.43867
# Shear Modulus (GPa) = 36.93221 49.73408 43.33314
#
# Velocity S-wave (km/s) = 3.86731 4.48779 4.18905
# Velocity P-wave (km/s) = 5.89800 7.38104 6.68080
#
# Compressibility (1/GPa) = 0.02727917
#
# Stress axis : x y z
#
# Youngs Moduli (GPa) = 40.28953 116.78869 156.49757
#
# Poissons Ratio (x) = 0.02926 0.46934
# Poissons Ratio (y) = 0.01009 0.46906
# Poissons Ratio (z) = 0.12083 0.35004
#
# Static dielectric constant tensor:
#      x y z
#    x 2.013590 0.000000 -0.015320 
#    y 0.000000 1.893720 0.000000 
#    z -0.015320 0.000000 2.031510 
# 
# From -- ./inp_files/285520.got.cif
#   From: 2010.05.17/outbox.cif.g08.bks.cpg/sg15_143_cif.got.tgz:285520.got - 2010.06.03 18:47:42.
