data_PCOD9293601
_publ_section_title
;
Structure prediction by ZEFSAII (Michael W. Deem and Ramdas Pophale) SiO2 
 PCOD9293601
Probable space group: C 2/C
;
_chemical_formula_sum "Si O2"
_cell_formula_units_Z 36
_cell_length_a 27.773686
_cell_length_b 5.570320
_cell_length_c 9.745181
_cell_angle_alpha 90.000000
_cell_angle_beta 58.888583
_cell_angle_gamma 90.000000
_cell_volume 1290.804914
_symmetry_space_group_name_H-M "C 2/C"
_symmetry_group_IT_number 15
_symmetry_cell_setting 'monoclinic'
loop_
_space_group_symop_operation_xyz
x,y,z
-x,y,1/2-z
-x,-y,-z
x,-y,1/2+z
1/2+x,1/2+y,z
1/2-x,1/2+y,1/2-z
1/2-x,1/2-y,-z
1/2+x,1/2-y,1/2+z
loop_
_atom_site_type_symbol
_atom_site_label
_atom_site_fract_x
_atom_site_fract_y
_atom_site_fract_z
Si Si1 0.250019 0.551547 0.617048
Si Si2 0.000000 0.741857 0.750000
Si Si3 0.413683 0.980956 0.552580
Si Si4 0.819052 0.338610 0.010389
Si Si5 0.064787 0.986433 0.850056
O O1 0.250000 0.750000 0.500000
O O2 0.203564 0.387159 0.608534
O O3 0.227543 0.602567 0.801423
O O4 0.313395 0.448798 0.529540
O O5 0.024274 0.562213 0.600996
O O6 0.051401 0.918564 0.712501
O O7 0.406838 0.738999 0.654647
O O8 0.372020 0.016154 0.484815
O O9 0.408458 0.240514 0.632260
O O10 0.000000 0.000000 0.000000
#
# Coordination Sequence:
#
# PCOD9293601 Si02
#       5
#     8   4   8   8   8
#     4  11  24  49  74 104 150 195 242 319 376 446
#     4  10  22  46  70 104 150 194 240 314 368 448
#     4  11  26  43  72 106 140 195 244 303 367 449
#     4  11  26  46  75 109 147 194 253 305 382 451
#     4  10  23  44  65  98 143 185 242 297 367 429
#
# _framework density 27.889576000000002
#
# number of rings (size 3 to 8) (size 9 to 14) (size 15 to 20)
#    0.000    1.333    2.222    2.667    6.222    8.000 
#    0.000    0.000    0.000    0.000    0.000    0.000 
#    0.000    0.000    0.000    0.000    0.000    0.000 
#
# Total GULP energy -100483.457960 kJ/mol
# GULP energy per Si atom -5582.414331 kJ/mol
# Density = 2.782610 g / cm^3
# Si number density = 27.889576 Si / 1000 Ang^3
#
#
#
# Elastic Constant Matrix: (Units=GPa)
#
#
# Indices 1 2 3 4 5 6 
#
# 1 146.5077 83.6208 35.0339 0.0000 29.1174 0.0000
# 2 83.6208 186.3835 36.2255 0.0000 13.4953 0.0000
# 3 35.0339 36.2255 71.5152 0.0000 22.7056 0.0000
# 4 0.0000 0.0000 0.0000 39.9300 0.0000 16.0075
# 5 29.1174 13.4953 22.7056 0.0000 53.6215 0.0000
# 6 0.0000 0.0000 0.0000 16.0075 0.0000 66.9530
#
#
#
# Elastic Compliance Matrix: (Units=1/GPa)
#
#
# Indices 1 2 3 4 5 6 
#
# 1 0.010295 -0.003991 -0.001809 0.000000 -0.003820 0.000000
# 2 -0.003991 0.007501 -0.002234 0.000000 0.001225 0.000000
# 3 -0.001809 -0.002234 0.017919 0.000000 -0.006043 0.000000
# 4 0.000000 0.000000 0.000000 0.027699 0.000000 -0.006622
# 5 -0.003820 0.001225 -0.006043 0.000000 0.022974 0.000000
# 6 0.000000 0.000000 0.000000 -0.006622 0.000000 0.016519
#
#
# Mechanical properties :
#
#
# Convention : Reuss Voigt Hill
#
# Bulk Modulus (GPa) = 50.89340 79.35186 65.12263
# Shear Modulus (GPa) = 39.83298 48.73597 44.28447
#
# Velocity S-wave (km/s) = 3.78330 4.18480 3.98911
# Velocity P-wave (km/s) = 6.11329 7.20167 6.67968
#
# Compressibility (1/GPa) = 0.01964891
#
# Stress axis : x y z
#
# Youngs Moduli (GPa) = 97.13352 133.31332 55.80538
#
# Poissons Ratio (x) = 0.53201 0.10096
# Poissons Ratio (y) = 0.38763 0.12465
# Poissons Ratio (z) = 0.17572 0.29777
#
# Static dielectric constant tensor:
#      x y z
#    x 2.279910 0.000000 0.092230 
#    y 0.000000 2.976010 0.000000 
#    z 0.092230 0.000000 2.424640 
# 
# From -- ./inp_files/120654.got.cif
#   From: 2010.05.17/outbox.cif.g08.bks.cpg/sg15_61_cif.got.tgz:120654.got - 2010.06.03 18:47:42.
