data_PCOD9293159
_publ_section_title
;
Structure prediction by ZEFSAII (Michael W. Deem and Ramdas Pophale) SiO2 
 PCOD9293159
Probable space group: C 2/C
;
_chemical_formula_sum "Si O2"
_cell_formula_units_Z 48
_cell_length_a 6.924674
_cell_length_b 23.096151
_cell_length_c 12.416409
_cell_angle_alpha 90.000000
_cell_angle_beta 111.094813
_cell_angle_gamma 90.000000
_cell_volume 1852.721478
_symmetry_space_group_name_H-M "C 2/C"
_symmetry_group_IT_number 15
_symmetry_cell_setting 'monoclinic'
loop_
_space_group_symop_operation_xyz
x,y,z
-x,y,1/2-z
-x,-y,-z
x,-y,1/2+z
1/2+x,1/2+y,z
1/2-x,1/2+y,1/2-z
1/2-x,1/2-y,-z
1/2+x,1/2-y,1/2+z
loop_
_atom_site_type_symbol
_atom_site_label
_atom_site_fract_x
_atom_site_fract_y
_atom_site_fract_z
Si Si1 0.969945 0.293266 0.543447
Si Si2 0.920091 0.421982 0.925377
Si Si3 0.500000 0.604474 0.250000
Si Si4 0.500000 0.291592 0.250000
Si Si5 0.670272 0.990502 0.374414
Si Si6 0.247980 0.621060 0.810536
Si Si7 0.021279 0.182154 0.043778
O O1 0.013047 0.251532 0.450335
O O2 0.735676 0.312880 0.520446
O O3 0.086166 0.353195 0.567974
O O4 0.025860 0.252902 0.656717
O O5 0.705297 0.433475 0.816779
O O6 0.138864 0.445422 0.920007
O O7 0.894621 0.451544 0.035994
O O8 0.545498 0.645454 0.156542
O O9 0.682751 0.339109 0.275754
O O10 0.500000 0.996331 0.250000
O O11 0.826670 0.946016 0.345122
O O12 0.000000 0.619951 0.750000
O O13 0.352304 0.653078 0.932819
#
# Coordination Sequence:
#
# PCOD9293159 Si02
#       7
#     8   8   4   4   8   8   8
#     4  10  23  46  69 110 154 203 242 326 383 467
#     4  11  25  48  76 106 153 199 263 310 387 453
#     4  12  24  44  71 118 145 192 250 328 376 476
#     4  10  22  44  75 116 153 204 250 316 396 454
#     4  10  24  47  74 103 139 205 251 314 375 442
#     4  10  22  47  74 109 152 197 254 314 375 456
#     4  10  23  43  69 112 146 193 250 301 398 448
#
# _framework density 25.907831000000002
#
# number of rings (size 3 to 8) (size 9 to 14) (size 15 to 20)
#    0.000    1.667    1.667    1.000    3.500    8.667 
#   18.000   11.667    0.000    0.000    0.000    0.000 
#    0.000    0.000    0.000    0.000    0.000    0.000 
#
# Total GULP energy -133660.063627 kJ/mol
# GULP energy per Si atom -5569.169318 kJ/mol
# Density = 2.584886 g / cm^3
# Si number density = 25.907831 Si / 1000 Ang^3
#
#
#
# Elastic Constant Matrix: (Units=GPa)
#
#
# Indices 1 2 3 4 5 6 
#
# 1 79.1878 18.9988 3.9852 0.0000 7.7223 0.0000
# 2 18.9988 156.2770 22.8601 0.0000 -21.0742 0.0000
# 3 3.9852 22.8601 111.9379 0.0000 -10.3433 0.0000
# 4 0.0000 0.0000 0.0000 73.5076 0.0000 52.0104
# 5 7.7223 -21.0742 -10.3433 0.0000 28.6368 0.0000
# 6 0.0000 0.0000 0.0000 52.0104 0.0000 118.4863
#
#
#
# Elastic Compliance Matrix: (Units=1/GPa)
#
#
# Indices 1 2 3 4 5 6 
#
# 1 0.013770 -0.002357 -0.000530 0.000000 -0.005639 0.000000
# 2 -0.002357 0.007617 -0.000926 0.000000 0.005907 0.000000
# 3 -0.000530 -0.000926 0.009406 0.000000 0.002859 0.000000
# 4 0.000000 0.000000 0.000000 0.019733 0.000000 -0.008662
# 5 -0.005639 0.005907 0.002859 0.000000 0.041820 0.000000
# 6 0.000000 0.000000 0.000000 -0.008662 0.000000 0.012242
#
#
# Mechanical properties :
#
#
# Convention : Reuss Voigt Hill
#
# Bulk Modulus (GPa) = 43.16378 48.78787 45.97582
# Shear Modulus (GPa) = 41.68859 64.23003 52.95931
#
# Velocity S-wave (km/s) = 4.01573 4.98453 4.52612
# Velocity P-wave (km/s) = 6.18046 7.21108 6.71557
#
# Compressibility (1/GPa) = 0.02316757
#
# Stress axis : x y z
#
# Youngs Moduli (GPa) = 72.61992 131.27755 106.31918
#
# Poissons Ratio (x) = 0.30942 0.05635
# Poissons Ratio (y) = 0.17117 0.09844
# Poissons Ratio (z) = 0.03849 0.12155
#
# Static dielectric constant tensor:
#      x y z
#    x 2.628830 0.000000 -0.483330 
#    y 0.000000 2.130890 0.000000 
#    z -0.483330 0.000000 2.664140 
# 
# From -- ./inp_files/136980.got.cif
#   From: 2010.05.17/outbox.cif.g08.bks.cpg/sg15_69_cif.got.tgz:136980.got - 2010.06.03 18:47:42.
