data_PCOD9293557
_publ_section_title
;
Structure prediction by ZEFSAII (Michael W. Deem and Ramdas Pophale) SiO2 
 PCOD9293557
Probable space group: C 2/C
;
_chemical_formula_sum "Si O2"
_cell_formula_units_Z 28
_cell_length_a 14.108364
_cell_length_b 5.147389
_cell_length_c 19.478322
_cell_angle_alpha 90.000000
_cell_angle_beta 41.500565
_cell_angle_gamma 90.000000
_cell_volume 937.312912
_symmetry_space_group_name_H-M "C 2/C"
_symmetry_group_IT_number 15
_symmetry_cell_setting 'monoclinic'
loop_
_space_group_symop_operation_xyz
x,y,z
-x,y,1/2-z
-x,-y,-z
x,-y,1/2+z
1/2+x,1/2+y,z
1/2-x,1/2+y,1/2-z
1/2-x,1/2-y,-z
1/2+x,1/2-y,1/2+z
loop_
_atom_site_type_symbol
_atom_site_label
_atom_site_fract_x
_atom_site_fract_y
_atom_site_fract_z
Si Si1 0.585041 0.286453 0.065821
Si Si2 0.500000 0.173600 0.250000
Si Si3 0.734737 0.698179 0.926290
Si Si4 0.313936 0.988702 0.178620
O O1 0.508425 0.356289 0.179145
O O2 0.633097 0.976034 0.172531
O O3 0.750000 0.250000 0.000000
O O4 0.599010 0.505899 0.001621
O O5 0.482179 0.051724 0.099095
O O6 0.718738 0.938411 0.882971
O O7 0.750000 0.750000 0.000000
O O8 0.230651 0.208716 0.268973
#
# Coordination Sequence:
#
# PCOD9293557 Si02
#       4
#     8   4   8   8
#     4  10  24  47  78 113 162 209 272 328 413 478
#     4  10  22  46  68 118 156 210 262 338 402 478
#     4  11  26  44  78 118 158 213 269 335 407 482
#     4  12  28  51  81 119 164 213 270 338 409 482
#
# _framework density 29.872627000000001
#
# number of rings (size 3 to 8) (size 9 to 14) (size 15 to 20)
#    0.000    1.143    2.857    0.857    8.000    2.286 
#    0.000    8.571    0.000    0.000    0.000    0.000 
#    0.000    0.000    0.000    0.000    0.000    0.000 
#
# Total GULP energy -78451.044466 kJ/mol
# GULP energy per Si atom -5603.646033 kJ/mol
# Density = 2.980464 g / cm^3
# Si number density = 29.872627 Si / 1000 Ang^3
#
#
#
# Elastic Constant Matrix: (Units=GPa)
#
#
# Indices 1 2 3 4 5 6 
#
# 1 192.6166 24.7405 72.2176 0.0022 19.1500 0.0114
# 2 24.7405 140.7893 45.5083 0.0006 -11.4430 0.0271
# 3 72.2176 45.5083 225.9388 0.0005 -5.9414 0.0018
# 4 0.0022 0.0006 0.0005 78.2563 -0.0002 -3.2245
# 5 19.1500 -11.4430 -5.9414 -0.0002 58.2636 0.0023
# 6 0.0114 0.0271 0.0018 -3.2245 0.0023 38.2743
#
#
#
# Elastic Compliance Matrix: (Units=1/GPa)
#
#
# Indices 1 2 3 4 5 6 
#
# 1 0.006234 -0.000668 -0.001920 0.000000 -0.002376 -0.000001
# 2 -0.000668 0.007775 -0.001310 0.000000 0.001613 -0.000005
# 3 -0.001920 -0.001310 0.005328 0.000000 0.000917 0.000001
# 4 0.000000 0.000000 0.000000 0.012823 0.000000 0.001080
# 5 -0.002376 0.001613 0.000917 0.000000 0.018355 -0.000002
# 6 -0.000001 -0.000005 0.000001 0.001080 -0.000002 0.026218
#
#
# Mechanical properties :
#
#
# Convention : Reuss Voigt Hill
#
# Bulk Modulus (GPa) = 86.65874 93.80863 90.23369
# Shear Modulus (GPa) = 56.57692 62.75073 59.66383
#
# Velocity S-wave (km/s) = 4.35666 4.58821 4.47394
# Velocity P-wave (km/s) = 7.37426 7.71622 7.54718
#
# Compressibility (1/GPa) = 0.01153952
#
# Stress axis : x y z
#
# Youngs Moduli (GPa) = 160.41886 128.62185 187.69383
#
# Poissons Ratio (x) = 0.08589 0.36046
# Poissons Ratio (y) = 0.10712 0.24590
# Poissons Ratio (z) = 0.30808 0.16851
#
# Static dielectric constant tensor:
#      x y z
#    x 2.419290 0.000000 0.029050 
#    y 0.000000 2.668170 0.000000 
#    z 0.029050 0.000000 2.305120 
# 
# From -- ./inp_files/201590.got.cif
#   From: 2010.05.17/outbox.cif.g08.bks.cpg/sg15_101_cif.got.tgz:201590.got - 2010.06.03 18:47:42.
