data_PCOD9293297
_publ_section_title
;
Structure prediction by ZEFSAII (Michael W. Deem and Ramdas Pophale) SiO2 
 PCOD9293297
Probable space group: C 2/C
;
_chemical_formula_sum "Si O2"
_cell_formula_units_Z 44
_cell_length_a 7.870653
_cell_length_b 12.224820
_cell_length_c 20.542578
_cell_angle_alpha 90.000000
_cell_angle_beta 87.260272
_cell_angle_gamma 90.000000
_cell_volume 1974.292469
_symmetry_space_group_name_H-M "C 2/C"
_symmetry_group_IT_number 15
_symmetry_cell_setting 'monoclinic'
loop_
_space_group_symop_operation_xyz
x,y,z
-x,y,1/2-z
-x,-y,-z
x,-y,1/2+z
1/2+x,1/2+y,z
1/2-x,1/2+y,1/2-z
1/2-x,1/2-y,-z
1/2+x,1/2-y,1/2+z
loop_
_atom_site_type_symbol
_atom_site_label
_atom_site_fract_x
_atom_site_fract_y
_atom_site_fract_z
Si Si1 0.655108 0.377293 0.789423
Si Si2 0.407994 0.533678 0.078276
Si Si3 0.589226 0.884377 0.509183
Si Si4 0.000000 0.724191 0.250000
Si Si5 0.961344 0.248929 0.392067
Si Si6 0.067330 0.204619 0.890785
O O1 0.500000 0.423224 0.750000
O O2 0.687551 0.455669 0.849949
O O3 0.827898 0.347923 0.750523
O O4 0.572382 0.269107 0.825096
O O5 0.274623 0.580825 0.029801
O O6 0.555423 0.623890 0.081396
O O7 0.468946 0.410605 0.073731
O O8 0.566230 0.818317 0.442462
O O9 0.506150 0.805527 0.565753
O O10 0.500000 0.000000 0.500000
O O11 0.997103 0.788765 0.318404
O O12 0.772618 0.290623 0.385199
#
# Coordination Sequence:
#
# PCOD9293297 Si02
#       6
#     8   8   8   4   8   8
#     4  10  22  45  69 101 141 182 233 290 348 426
#     4  10  24  43  66  98 137 177 232 281 352 408
#     4  12  24  45  69 101 141 183 235 284 354 413
#     4  12  22  44  74 100 144 178 238 288 354 418
#     4  10  23  43  68  98 140 178 233 285 345 417
#     4  12  24  44  69 104 137 184 232 292 343 423
#
# _framework density 22.286465
#
# number of rings (size 3 to 8) (size 9 to 14) (size 15 to 20)
#    1.091    0.000    5.455    1.091    1.273    0.727 
#    6.545    1.818    2.000    0.000    0.000    0.000 
#    0.000    0.000    0.000    0.000    0.000    0.000 
#
# Total GULP energy -122811.009865 kJ/mol
# GULP energy per Si atom -5582.318630 kJ/mol
# Density = 2.223574 g / cm^3
# Si number density = 22.286465 Si / 1000 Ang^3
#
#
#
# Elastic Constant Matrix: (Units=GPa)
#
#
# Indices 1 2 3 4 5 6 
#
# 1 105.3481 28.6293 32.5757 0.0000 8.2019 0.0000
# 2 28.6293 138.2289 15.9316 0.0000 2.7575 0.0000
# 3 32.5757 15.9316 75.5525 0.0000 6.9536 0.0000
# 4 0.0000 0.0000 0.0000 24.3533 0.0000 9.6725
# 5 8.2019 2.7575 6.9536 0.0000 38.2677 0.0000
# 6 0.0000 0.0000 0.0000 9.6725 0.0000 15.7742
#
#
#
# Elastic Compliance Matrix: (Units=1/GPa)
#
#
# Indices 1 2 3 4 5 6 
#
# 1 0.011477 -0.001837 -0.004421 0.000000 -0.001524 0.000000
# 2 -0.001837 0.007711 -0.000833 0.000000 -0.000011 0.000000
# 3 -0.004421 -0.000833 0.015484 0.000000 -0.001806 0.000000
# 4 0.000000 0.000000 0.000000 0.054282 0.000000 -0.033285
# 5 -0.001524 -0.000011 -0.001806 0.000000 0.026787 0.000000
# 6 0.000000 0.000000 0.000000 -0.033285 0.000000 0.083804
#
#
# Mechanical properties :
#
#
# Convention : Reuss Voigt Hill
#
# Bulk Modulus (GPa) = 48.80391 52.60028 50.70210
# Shear Modulus (GPa) = 22.66974 31.81190 27.24082
#
# Velocity S-wave (km/s) = 3.19281 3.78221 3.49994
# Velocity P-wave (km/s) = 5.96138 6.53656 6.25558
#
# Compressibility (1/GPa) = 0.02049016
#
# Stress axis : x y z
#
# Youngs Moduli (GPa) = 87.12830 129.68333 64.58347
#
# Poissons Ratio (x) = 0.23825 0.28552
# Poissons Ratio (y) = 0.16007 0.05379
# Poissons Ratio (z) = 0.38519 0.10802
#
# Static dielectric constant tensor:
#      x y z
#    x 1.822720 0.000000 0.001200 
#    y 0.000000 1.809650 0.000000 
#    z 0.001200 0.000000 1.870390 
# 
# From -- ./inp_files/230245.got.cif
#   From: 2010.05.17/outbox.cif.g08.bks.cpg/sg15_116_cif.got.tgz:230245.got - 2010.06.03 18:47:42.
