data_PCOD9293932
_publ_section_title
;
Structure prediction by ZEFSAII (Michael W. Deem and Ramdas Pophale) SiO2 
 PCOD9293932
Probable space group: C 2/C
;
_chemical_formula_sum "Si O2"
_cell_formula_units_Z 32
_cell_length_a 10.147593
_cell_length_b 9.563239
_cell_length_c 19.185635
_cell_angle_alpha 90.000000
_cell_angle_beta 41.684004
_cell_angle_gamma 90.000000
_cell_volume 1238.169672
_symmetry_space_group_name_H-M "C 2/C"
_symmetry_group_IT_number 15
_symmetry_cell_setting 'monoclinic'
loop_
_space_group_symop_operation_xyz
x,y,z
-x,y,1/2-z
-x,-y,-z
x,-y,1/2+z
1/2+x,1/2+y,z
1/2-x,1/2+y,1/2-z
1/2-x,1/2-y,-z
1/2+x,1/2-y,1/2+z
loop_
_atom_site_type_symbol
_atom_site_label
_atom_site_fract_x
_atom_site_fract_y
_atom_site_fract_z
Si Si1 0.575354 0.833435 0.825201
Si Si2 0.792267 0.439419 0.431721
Si Si3 0.329817 0.844008 0.565476
Si Si4 0.526065 0.510680 0.836908
O O1 0.410793 0.930636 0.855610
O O2 0.520659 0.848189 0.929970
O O3 0.576148 0.672104 0.805174
O O4 0.786837 0.908259 0.735661
O O5 0.765437 0.309511 0.391938
O O6 0.899825 0.368290 0.458203
O O7 0.584112 0.491472 0.544826
O O8 0.153885 0.956861 0.641119
#
# Coordination Sequence:
#
# PCOD9293932 Si02
#       4
#     8   8   8   8
#     4  12  21  40  62  82 124 159 184 249 296 328
#     4   9  21  42  59  90 117 148 204 240 280 363
#     4   9  21  41  60  84 120 149 194 243 293 338
#     4  10  23  36  60  91 115 152 205 231 283 364
#
# _framework density 25.844598999999999
#
# number of rings (size 3 to 8) (size 9 to 14) (size 15 to 20)
#    1.500    0.500    0.000    3.750    0.000    1.000 
#    0.000    5.000    0.000    0.000    0.000    0.000 
#    0.000    0.000    0.000    0.000    0.000    0.000 
#
# Total GULP energy -89439.289324 kJ/mol
# GULP energy per Si atom -5589.955583 kJ/mol
# Density = 2.578578 g / cm^3
# Si number density = 25.844599 Si / 1000 Ang^3
#
#
#
# Elastic Constant Matrix: (Units=GPa)
#
#
# Indices 1 2 3 4 5 6 
#
# 1 46.3884 38.8917 8.6492 0.0000 10.0122 0.0000
# 2 38.8917 275.1100 35.2340 0.0000 -35.1144 0.0000
# 3 8.6492 35.2340 73.0831 0.0000 -6.9015 0.0000
# 4 0.0000 0.0000 0.0000 35.3410 0.0000 -17.5711
# 5 10.0122 -35.1144 -6.9015 0.0000 24.5012 0.0000
# 6 0.0000 0.0000 0.0000 -17.5711 0.0000 33.0895
#
#
#
# Elastic Compliance Matrix: (Units=1/GPa)
#
#
# Indices 1 2 3 4 5 6 
#
# 1 0.034189 -0.007789 -0.002737 0.000000 -0.025905 0.000000
# 2 -0.007789 0.006409 -0.001028 0.000000 0.012079 0.000000
# 3 -0.002737 -0.001028 0.014864 0.000000 0.003833 0.000000
# 4 0.000000 0.000000 0.000000 0.038446 0.000000 0.020416
# 5 -0.025905 0.012079 0.003833 0.000000 0.069792 0.000000
# 6 0.000000 0.000000 0.000000 0.020416 0.000000 0.041062
#
#
# Mechanical properties :
#
#
# Convention : Reuss Voigt Hill
#
# Bulk Modulus (GPa) = 30.90720 62.23682 46.57201
# Shear Modulus (GPa) = 20.95065 39.37343 30.16204
#
# Velocity S-wave (km/s) = 2.85026 3.90740 3.41992
# Velocity P-wave (km/s) = 4.77669 6.67012 5.80118
#
# Compressibility (1/GPa) = 0.03235492
#
# Stress axis : x y z
#
# Youngs Moduli (GPa) = 29.24902 156.02022 67.27506
#
# Poissons Ratio (x) = 1.21527 0.18415
# Poissons Ratio (y) = 0.22783 0.06913
# Poissons Ratio (z) = 0.08006 0.16031
#
# Static dielectric constant tensor:
#      x y z
#    x 2.113190 0.000000 0.096970 
#    y 0.000000 1.979950 0.000000 
#    z 0.096970 0.000000 2.068640 
# 
# From -- ./inp_files/140520.got.cif
#   From: 2010.05.17/outbox.cif.g08.bks.cpg/sg15_71_cif.got.tgz:140520.got - 2010.06.03 18:47:42.
