data_PCOD9293243
_publ_section_title
;
Structure prediction by ZEFSAII (Michael W. Deem and Ramdas Pophale) SiO2 
 PCOD9293243
Probable space group: C 2/C
;
_chemical_formula_sum "Si O2"
_cell_formula_units_Z 44
_cell_length_a 26.472944
_cell_length_b 11.786237
_cell_length_c 12.180544
_cell_angle_alpha 90.000000
_cell_angle_beta 146.948475
_cell_angle_gamma 90.000000
_cell_volume 2072.782184
_symmetry_space_group_name_H-M "C 2/C"
_symmetry_group_IT_number 15
_symmetry_cell_setting 'monoclinic'
loop_
_space_group_symop_operation_xyz
x,y,z
-x,y,1/2-z
-x,-y,-z
x,-y,1/2+z
1/2+x,1/2+y,z
1/2-x,1/2+y,1/2-z
1/2-x,1/2-y,-z
1/2+x,1/2-y,1/2+z
loop_
_atom_site_type_symbol
_atom_site_label
_atom_site_fract_x
_atom_site_fract_y
_atom_site_fract_z
Si Si1 0.165091 0.825741 0.490177
Si Si2 0.427123 0.789288 0.249234
Si Si3 0.000000 0.518817 0.750000
Si Si4 0.874194 0.352440 0.394627
Si Si5 0.634871 0.271162 0.184650
Si Si6 0.165617 0.079767 0.547839
O O1 0.126013 0.747323 0.515584
O O2 0.276838 0.805477 0.688589
O O3 0.132745 0.786570 0.311122
O O4 0.136893 0.954536 0.461577
O O5 0.422430 0.901839 0.165937
O O6 0.383864 0.807154 0.289383
O O7 0.536790 0.775114 0.467370
O O8 0.385347 0.679639 0.112880
O O9 0.953727 0.440409 0.573272
O O10 0.774428 0.410296 0.223502
O O11 0.649539 0.389321 0.146161
#
# Coordination Sequence:
#
# PCOD9293243 Si02
#       6
#     8   8   4   8   8   8
#     4  10  24  44  68  98 134 180 227 272 342 394
#     4  12  24  45  68 100 133 177 227 278 338 394
#     4  12  24  46  70  98 134 176 228 278 338 396
#     4  11  26  42  70 100 132 176 230 277 328 408
#     4  10  22  45  66  95 137 180 222 274 336 400
#     4  11  24  42  68  99 134 181 217 284 334 401
#
# _framework density 21.227508
#
# number of rings (size 3 to 8) (size 9 to 14) (size 15 to 20)
#    0.000    1.091    1.818    3.273    5.091    5.091 
#    6.545    0.000    0.000    0.000    0.000    0.000 
#    0.000    0.000    0.000    0.000    0.000    0.000 
#
# Total GULP energy -123068.210761 kJ/mol
# GULP energy per Si atom -5594.009580 kJ/mol
# Density = 2.117919 g / cm^3
# Si number density = 21.227508 Si / 1000 Ang^3
#
#
#
# Elastic Constant Matrix: (Units=GPa)
#
#
# Indices 1 2 3 4 5 6 
#
# 1 116.8667 34.0283 -11.9568 0.0000 -37.5748 0.0000
# 2 34.0283 134.4975 16.8603 0.0000 -24.7490 0.0000
# 3 -11.9568 16.8603 68.9462 0.0000 -11.6077 0.0000
# 4 0.0000 0.0000 0.0000 16.9619 0.0000 -3.2655
# 5 -37.5748 -24.7490 -11.6077 0.0000 31.9510 0.0000
# 6 0.0000 0.0000 0.0000 -3.2655 0.0000 8.1316
#
#
#
# Elastic Compliance Matrix: (Units=1/GPa)
#
#
# Indices 1 2 3 4 5 6 
#
# 1 0.016133 -0.001134 0.006520 0.000000 0.020464 0.000000
# 2 -0.001134 0.008823 -0.001521 0.000000 0.004949 0.000000
# 3 0.006520 -0.001521 0.018213 0.000000 0.013107 0.000000
# 4 0.000000 0.000000 0.000000 0.063896 0.000000 0.025659
# 5 0.020464 0.004949 0.013107 0.000000 0.063959 0.000000
# 6 0.000000 0.000000 0.000000 0.025659 0.000000 0.133282
#
#
# Mechanical properties :
#
#
# Convention : Reuss Voigt Hill
#
# Bulk Modulus (GPa) = 19.64582 44.24156 31.94369
# Shear Modulus (GPa) = 15.94685 30.16747 23.05716
#
# Velocity S-wave (km/s) = 2.74384 3.77390 3.29932
# Velocity P-wave (km/s) = 4.39468 6.31480 5.44012
#
# Compressibility (1/GPa) = 0.05090142
#
# Stress axis : x y z
#
# Youngs Moduli (GPa) = 61.98295 113.33796 54.90454
#
# Poissons Ratio (x) = 0.12848 -0.35800
# Poissons Ratio (y) = 0.07026 0.08352
# Poissons Ratio (z) = -0.40415 0.17240
#
# Static dielectric constant tensor:
#      x y z
#    x 1.752230 0.000000 0.006980 
#    y 0.000000 1.758090 0.000000 
#    z 0.006980 0.000000 1.764550 
# 
# From -- ./inp_files/118128.got.cif
#   From: 2010.05.17/outbox.cif.g08.bks.cpg/sg15_60_cif.got.tgz:118128.got - 2010.06.03 18:47:42.
