data_PCOD9293274
_publ_section_title
;
Structure prediction by ZEFSAII (Michael W. Deem and Ramdas Pophale) SiO2 
 PCOD9293274
Probable space group: C 2/C
;
_chemical_formula_sum "Si O2"
_cell_formula_units_Z 48
_cell_length_a 17.248286
_cell_length_b 16.311391
_cell_length_c 17.891557
_cell_angle_alpha 90.000000
_cell_angle_beta 29.499226
_cell_angle_gamma 90.000000
_cell_volume 2478.640453
_symmetry_space_group_name_H-M "C 2/C"
_symmetry_group_IT_number 15
_symmetry_cell_setting 'monoclinic'
loop_
_space_group_symop_operation_xyz
x,y,z
-x,y,1/2-z
-x,-y,-z
x,-y,1/2+z
1/2+x,1/2+y,z
1/2-x,1/2+y,1/2-z
1/2-x,1/2-y,-z
1/2+x,1/2-y,1/2+z
loop_
_atom_site_type_symbol
_atom_site_label
_atom_site_fract_x
_atom_site_fract_y
_atom_site_fract_z
Si Si1 0.000000 0.778068 0.250000
Si Si2 0.668626 0.040733 0.872023
Si Si3 0.842129 0.353201 0.984758
Si Si4 0.930840 0.070785 0.227344
Si Si5 0.261116 0.583726 0.629539
Si Si6 0.344444 0.244628 0.844437
Si Si7 0.500000 0.010293 0.250000
O O1 0.158856 0.829484 0.128938
O O2 0.952439 0.719499 0.359881
O O3 0.637829 0.122411 0.946075
O O4 0.748494 0.056639 0.725359
O O5 0.784328 0.982916 0.823225
O O6 0.500000 0.000000 0.000000
O O7 0.894842 0.431296 0.891358
O O8 0.879125 0.165983 0.281696
O O9 0.000000 0.044856 0.250000
O O10 0.073140 0.064805 0.048974
O O11 0.233422 0.681289 0.646244
O O12 0.121300 0.540399 0.699547
O O13 0.500000 0.206853 0.750000
O O14 0.250000 0.250000 0.000000
#
# Coordination Sequence:
#
# PCOD9293274 Si02
#       7
#     4   8   8   8   8   8   4
#     4   9  22  46  74  95 128 170 244 263 338 404
#     4  12  27  44  66 104 141 173 221 286 344 397
#     4  10  22  45  68 101 125 181 220 285 328 405
#     4  11  25  45  70  97 135 184 231 274 336 408
#     4  12  24  42  65 103 140 177 225 278 339 404
#     4  11  22  41  69 101 133 177 231 277 333 404
#     4  11  22  38  74  95 132 180 228 271 332 398
#
# _framework density 19.365455000000001
#
# number of rings (size 3 to 8) (size 9 to 14) (size 15 to 20)
#    0.000    1.000    5.833    1.500    5.833    0.000 
#    6.000    0.000    0.000    0.000    0.000    0.000 
#    0.000    0.000    0.000    0.000    0.000    0.000 
#
# Total GULP energy -133977.028425 kJ/mol
# GULP energy per Si atom -5582.376184 kJ/mol
# Density = 1.932138 g / cm^3
# Si number density = 19.365455 Si / 1000 Ang^3
#
#
#
# Elastic Constant Matrix: (Units=GPa)
#
#
# Indices 1 2 3 4 5 6 
#
# 1 106.1412 48.0832 61.7897 -0.0016 5.2567 0.0029
# 2 48.0832 79.9707 51.7861 -0.0008 -2.0842 0.0035
# 3 61.7897 51.7861 175.2275 0.0016 4.1528 0.0025
# 4 -0.0016 -0.0008 0.0016 24.8566 -0.0010 -8.6774
# 5 5.2567 -2.0842 4.1528 -0.0010 40.9806 -0.0006
# 6 0.0029 0.0035 0.0025 -8.6774 -0.0006 21.0690
#
#
#
# Elastic Compliance Matrix: (Units=1/GPa)
#
#
# Indices 1 2 3 4 5 6 
#
# 1 0.014305 -0.006693 -0.003022 0.000001 -0.001869 0.000000
# 2 -0.006693 0.018660 -0.003205 0.000000 0.002132 -0.000002
# 3 -0.003022 -0.003205 0.007733 -0.000001 -0.000559 0.000000
# 4 0.000001 0.000000 -0.000001 0.046986 0.000001 0.019352
# 5 -0.001869 0.002132 -0.000559 0.000001 0.024807 0.000001
# 6 0.000000 -0.000002 0.000000 0.019352 0.000001 0.055433
#
#
# Mechanical properties :
#
#
# Convention : Reuss Voigt Hill
#
# Bulk Modulus (GPa) = 67.30431 76.07304 71.68868
# Shear Modulus (GPa) = 25.16138 30.69326 27.92732
#
# Velocity S-wave (km/s) = 3.60848 3.98546 3.80165
# Velocity P-wave (km/s) = 7.22439 7.78117 7.50794
#
# Compressibility (1/GPa) = 0.01485789
#
# Stress axis : x y z
#
# Youngs Moduli (GPa) = 69.90447 53.59105 129.31563
#
# Poissons Ratio (x) = 0.35868 0.39081
# Poissons Ratio (y) = 0.46786 0.41447
# Poissons Ratio (z) = 0.21126 0.17177
#
# Static dielectric constant tensor:
#      x y z
#    x 1.658700 0.000000 -0.007850 
#    y 0.000000 1.693910 0.000000 
#    z -0.007850 0.000000 1.659720 
# 
# From -- ./inp_files/47982.got.cif
#   From: 2010.05.17/outbox.cif.g08.bks.cpg/sg15_24_cif.got.tgz:47982.got - 2010.06.03 18:47:42.
