data_PCOD9293991
_publ_section_title
;
Structure prediction by ZEFSAII (Michael W. Deem and Ramdas Pophale) SiO2 
 PCOD9293991
Probable space group: C 2/C
;
_chemical_formula_sum "Si O2"
_cell_formula_units_Z 48
_cell_length_a 15.714809
_cell_length_b 5.076363
_cell_length_c 27.428389
_cell_angle_alpha 90.000000
_cell_angle_beta 112.690150
_cell_angle_gamma 90.000000
_cell_volume 2018.727073
_symmetry_space_group_name_H-M "C 2/C"
_symmetry_group_IT_number 15
_symmetry_cell_setting 'monoclinic'
loop_
_space_group_symop_operation_xyz
x,y,z
-x,y,1/2-z
-x,-y,-z
x,-y,1/2+z
1/2+x,1/2+y,z
1/2-x,1/2+y,1/2-z
1/2-x,1/2-y,-z
1/2+x,1/2-y,1/2+z
loop_
_atom_site_type_symbol
_atom_site_label
_atom_site_fract_x
_atom_site_fract_y
_atom_site_fract_z
Si Si1 0.954062 0.594319 0.687384
Si Si2 0.828936 0.109960 0.655798
Si Si3 0.729581 0.432875 0.720565
Si Si4 0.472823 0.694701 0.537789
Si Si5 0.556741 0.398226 0.632179
Si Si6 0.357844 0.091583 0.934929
O O1 0.892353 0.354909 0.654747
O O2 0.000000 0.530118 0.750000
O O3 0.024485 0.662474 0.659354
O O4 0.894310 0.861562 0.679942
O O5 0.780084 0.245316 0.692156
O O6 0.746818 0.022947 0.600990
O O7 0.784854 0.700395 0.743040
O O8 0.630440 0.546517 0.681919
O O9 0.500000 0.500000 0.500000
O O10 0.470608 0.541588 0.588061
O O11 0.381646 0.832750 0.496052
O O12 0.560641 0.887494 0.560107
O O13 0.617796 0.318420 0.598803
#
# Coordination Sequence:
#
# PCOD9293991 Si02
#       6
#     8   8   8   8   8   8
#     4  12  26  44  61  94 138 180 210 262 328 392
#     4  11  25  41  65  92 132 170 217 269 326 382
#     4  11  23  39  63  93 121 165 224 274 311 377
#     4   9  19  39  68  96 123 159 218 274 333 374
#     4  10  23  37  67  88 128 171 218 259 328 389
#     4   9  21  40  69  94 123 163 221 276 321 386
#
# _framework density 23.777360999999999
#
# number of rings (size 3 to 8) (size 9 to 14) (size 15 to 20)
#    0.000    1.667    0.000    3.500   14.000    0.000 
#    0.000    1.667    0.000    0.000    0.000    0.000 
#    0.000    0.000    0.000    0.000    0.000    0.000 
#
# Total GULP energy -133823.629741 kJ/mol
# GULP energy per Si atom -5575.984573 kJ/mol
# Density = 2.372324 g / cm^3
# Si number density = 23.777361 Si / 1000 Ang^3
#
#
#
# Elastic Constant Matrix: (Units=GPa)
#
#
# Indices 1 2 3 4 5 6 
#
# 1 34.0594 -3.0212 7.9238 0.0000 11.3828 0.0000
# 2 -3.0212 65.1999 32.3276 0.0002 -5.3589 0.0000
# 3 7.9238 32.3276 100.3114 0.0000 23.3708 -0.0001
# 4 0.0000 0.0002 0.0000 22.4428 0.0000 -0.9633
# 5 11.3828 -5.3589 23.3708 0.0000 25.9784 0.0000
# 6 0.0000 0.0000 -0.0001 -0.9633 0.0000 27.0956
#
#
#
# Elastic Compliance Matrix: (Units=1/GPa)
#
#
# Indices 1 2 3 4 5 6 
#
# 1 0.034482 -0.000304 0.001150 0.000000 -0.016206 0.000000
# 2 -0.000304 0.021421 -0.010045 0.000000 0.013589 0.000000
# 3 0.001150 -0.010045 0.017353 0.000000 -0.018187 0.000000
# 4 0.000000 0.000000 0.000000 0.044626 0.000000 0.001587
# 5 -0.016206 0.013589 -0.018187 0.000000 0.064759 0.000000
# 6 0.000000 0.000000 0.000000 0.001587 0.000000 0.036963
#
#
# Mechanical properties :
#
#
# Convention : Reuss Voigt Hill
#
# Bulk Modulus (GPa) = 18.22946 30.44789 24.33868
# Shear Modulus (GPa) = 19.50925 25.92607 22.71766
#
# Velocity S-wave (km/s) = 2.86754 3.30565 3.09436
# Velocity P-wave (km/s) = 4.31823 5.23479 4.79844
#
# Compressibility (1/GPa) = 0.05485625
#
# Stress axis : x y z
#
# Youngs Moduli (GPa) = 29.00060 46.68309 57.62778
#
# Poissons Ratio (x) = 0.01421 -0.06628
# Poissons Ratio (y) = 0.00883 0.57890
# Poissons Ratio (z) = -0.03335 0.46895
#
# Static dielectric constant tensor:
#      x y z
#    x 1.990030 0.000000 -0.014840 
#    y 0.000000 1.968860 0.000000 
#    z -0.014840 0.000000 2.057840 
# 
# From -- ./inp_files/275659.got.cif
#   From: 2010.05.17/outbox.cif.g08.bks.cpg/sg15_138_cif.got.tgz:275659.got - 2010.06.03 18:47:42.
