data_PCOD9293887
_publ_section_title
;
Structure prediction by ZEFSAII (Michael W. Deem and Ramdas Pophale) SiO2 
 PCOD9293887
Probable space group: C 2/C
;
_chemical_formula_sum "Si O2"
_cell_formula_units_Z 40
_cell_length_a 14.871162
_cell_length_b 22.620686
_cell_length_c 12.029924
_cell_angle_alpha 90.000000
_cell_angle_beta 154.916181
_cell_angle_gamma 90.000000
_cell_volume 1715.622397
_symmetry_space_group_name_H-M "C 2/C"
_symmetry_group_IT_number 15
_symmetry_cell_setting 'monoclinic'
loop_
_space_group_symop_operation_xyz
x,y,z
-x,y,1/2-z
-x,-y,-z
x,-y,1/2+z
1/2+x,1/2+y,z
1/2-x,1/2+y,1/2-z
1/2-x,1/2-y,-z
1/2+x,1/2-y,1/2+z
loop_
_atom_site_type_symbol
_atom_site_label
_atom_site_fract_x
_atom_site_fract_y
_atom_site_fract_z
Si Si1 0.335120 0.738627 0.991241
Si Si2 0.406096 0.585769 0.799535
Si Si3 0.500000 0.479760 0.750000
Si Si4 0.500000 0.150136 0.250000
Si Si5 0.182044 0.334616 0.720426
Si Si6 0.288158 0.896070 0.184883
O O1 0.296917 0.779155 0.837521
O O2 0.307063 0.668876 0.939489
O O3 0.100435 0.753474 0.790060
O O4 0.478350 0.524653 0.827704
O O5 0.204469 0.610661 0.506629
O O6 0.322704 0.578586 0.830206
O O7 0.594738 0.633695 0.007757
O O8 0.292754 0.438151 0.504013
O O9 0.434686 0.181553 0.293274
O O10 0.032638 0.382414 0.487395
#
# Coordination Sequence:
#
# PCOD9293887 Si02
#       6
#     8   8   4   4   8   8
#     4  12  23  45  73 109 148 182 236 298 365 437
#     4  11  24  48  71 104 144 188 248 296 360 426
#     4  12  24  48  71 102 149 190 242 298 348 444
#     4  10  22  50  73 102 143 190 248 294 362 428
#     4  11  24  44  77 106 144 189 239 302 360 432
#     4  11  26  44  71 108 143 190 237 296 369 424
#
# _framework density 23.315152999999999
#
# number of rings (size 3 to 8) (size 9 to 14) (size 15 to 20)
#    0.000    0.800    5.000    1.800    0.000    0.800 
#    3.600    5.000    0.000    0.000    0.000    0.000 
#    0.000    0.000    0.000    0.000    0.000    0.000 
#
# Total GULP energy -111807.019478 kJ/mol
# GULP energy per Si atom -5590.350974 kJ/mol
# Density = 2.326209 g / cm^3
# Si number density = 23.315153 Si / 1000 Ang^3
#
#
#
# Elastic Constant Matrix: (Units=GPa)
#
#
# Indices 1 2 3 4 5 6 
#
# 1 99.2735 59.8535 30.0137 0.0000 -9.6334 0.0000
# 2 59.8535 142.4758 62.0789 0.0000 -15.4887 0.0000
# 3 30.0137 62.0789 200.1938 -0.0001 2.5951 0.0002
# 4 0.0000 0.0000 -0.0001 31.0593 0.0000 -40.3139
# 5 -9.6334 -15.4887 2.5951 0.0000 32.6631 0.0000
# 6 0.0000 0.0000 0.0002 -40.3139 0.0000 19.3959
#
#
#
# Elastic Compliance Matrix: (Units=1/GPa)
#
#
# Indices 1 2 3 4 5 6 
#
# 1 0.013573 -0.005371 -0.000389 0.000000 0.001487 0.000000
# 2 -0.005371 0.010814 -0.002597 0.000000 0.003750 0.000000
# 3 -0.000389 -0.002597 0.005882 0.000000 -0.001813 0.000000
# 4 0.000000 0.000000 0.000000 -0.018964 0.000000 -0.039416
# 5 0.001487 0.003750 -0.001813 0.000000 0.032977 0.000000
# 6 0.000000 0.000000 0.000000 -0.039416 0.000000 -0.030367
#
#
# Mechanical properties :
#
#
# Convention : Reuss Voigt Hill
#
# Bulk Modulus (GPa) = 73.76460 82.87058 78.31759
# Shear Modulus (GPa) = 142.25777 35.95678 89.10728
#
# Velocity S-wave (km/s) = 7.81969 3.93135 6.18883
# Velocity P-wave (km/s) = 10.64128 7.49855 9.20503
#
# Compressibility (1/GPa) = 0.01355664
#
# Stress axis : x y z
#
# Youngs Moduli (GPa) = 73.67396 92.47044 170.00457
#
# Poissons Ratio (x) = 0.49666 0.06608
# Poissons Ratio (y) = 0.39571 0.44147
# Poissons Ratio (z) = 0.02864 0.24013
#
# Static dielectric constant tensor:
#      x y z
#    x 2.380380 0.000000 0.075350 
#    y 0.000000 1.768150 0.000000 
#    z 0.075350 0.000000 1.936130 
# 
# From -- ./inp_files/163879.got.cif
#   From: 2010.05.17/outbox.cif.g08.bks.cpg/sg15_82_cif.got.tgz:163879.got - 2010.06.03 18:47:42.
