data_PCOD9293205
_publ_section_title
;
Structure prediction by ZEFSAII (Michael W. Deem and Ramdas Pophale) SiO2 
 PCOD9293205
Probable space group: C 2/C
;
_chemical_formula_sum "Si O2"
_cell_formula_units_Z 44
_cell_length_a 16.262657
_cell_length_b 4.904286
_cell_length_c 22.276574
_cell_angle_alpha 90.000000
_cell_angle_beta 107.179373
_cell_angle_gamma 90.000000
_cell_volume 1697.438308
_symmetry_space_group_name_H-M "C 2/C"
_symmetry_group_IT_number 15
_symmetry_cell_setting 'monoclinic'
loop_
_space_group_symop_operation_xyz
x,y,z
-x,y,1/2-z
-x,-y,-z
x,-y,1/2+z
1/2+x,1/2+y,z
1/2-x,1/2+y,1/2-z
1/2-x,1/2-y,-z
1/2+x,1/2-y,1/2+z
loop_
_atom_site_type_symbol
_atom_site_label
_atom_site_fract_x
_atom_site_fract_y
_atom_site_fract_z
Si Si1 0.157411 0.127510 0.461896
Si Si2 0.000000 0.836304 0.250000
Si Si3 0.356137 0.669195 0.273759
Si Si4 0.060338 0.295821 0.549531
Si Si5 0.581062 0.152729 0.383991
Si Si6 0.805054 0.666667 0.332458
O O1 0.250000 0.250000 0.500000
O O2 0.098353 0.083556 0.509294
O O3 0.107780 0.354489 0.411743
O O4 0.156592 0.853444 0.422953
O O5 0.058166 0.667727 0.309157
O O6 0.054009 0.042959 0.221255
O O7 0.294264 0.618326 0.203363
O O8 0.319072 0.484772 0.320360
O O9 0.352689 0.980164 0.292956
O O10 0.149442 0.411602 0.596387
O O11 0.000000 0.500000 0.500000
O O12 0.002662 0.242556 0.596020
#
# Coordination Sequence:
#
# PCOD9293205 Si02
#       6
#     8   4   8   8   8   8
#     4  11  26  48  71 102 138 180 234 289 340 408
#     4  12  26  44  72 102 146 172 230 294 340 410
#     4  10  24  41  68  92 138 173 224 277 338 398
#     4  10  23  44  72  95 138 178 227 274 339 412
#     4  11  26  45  69 103 137 186 227 278 356 405
#     4  10  22  45  62  99 127 181 225 270 338 409
#
# _framework density 25.921416000000001
#
# number of rings (size 3 to 8) (size 9 to 14) (size 15 to 20)
#    0.000    1.455    1.818    1.091    7.636    5.818 
#    6.545    0.000    0.000    0.000    0.000    0.000 
#    0.000    0.000    0.000    0.000    0.000    0.000 
#
# Total GULP energy -123075.290792 kJ/mol
# GULP energy per Si atom -5594.331400 kJ/mol
# Density = 2.586242 g / cm^3
# Si number density = 25.921416 Si / 1000 Ang^3
#
#
#
# Elastic Constant Matrix: (Units=GPa)
#
#
# Indices 1 2 3 4 5 6 
#
# 1 44.9443 -1.4960 11.1416 0.0000 -5.1147 0.0000
# 2 -1.4960 84.5235 27.1199 0.0000 1.1181 0.0000
# 3 11.1416 27.1199 172.1661 0.0000 14.8454 0.0000
# 4 0.0000 0.0000 0.0000 33.0906 0.0000 7.2282
# 5 -5.1147 1.1181 14.8454 0.0000 42.6009 0.0000
# 6 0.0000 0.0000 0.0000 7.2282 0.0000 23.5379
#
#
#
# Elastic Compliance Matrix: (Units=1/GPa)
#
#
# Indices 1 2 3 4 5 6 
#
# 1 0.023157 0.000990 -0.001951 0.000000 0.003434 0.000000
# 2 0.000990 0.012509 -0.002079 0.000000 0.000515 0.000000
# 3 -0.001951 -0.002079 0.006472 0.000000 -0.002435 0.000000
# 4 0.000000 0.000000 0.000000 0.032393 0.000000 -0.009948
# 5 0.003434 0.000515 -0.002435 0.000000 0.024721 0.000000
# 6 0.000000 0.000000 0.000000 -0.009948 0.000000 0.045539
#
#
# Mechanical properties :
#
#
# Convention : Reuss Voigt Hill
#
# Bulk Modulus (GPa) = 27.73208 41.68502 34.70855
# Shear Modulus (GPa) = 30.69562 37.50377 34.09970
#
# Velocity S-wave (km/s) = 3.44492 3.80784 3.63092
# Velocity P-wave (km/s) = 5.15219 5.95392 5.56750
#
# Compressibility (1/GPa) = 0.03605933
#
# Stress axis : x y z
#
# Youngs Moduli (GPa) = 43.18326 79.94394 154.51137
#
# Poissons Ratio (x) = -0.07917 0.30141
# Poissons Ratio (y) = -0.04277 0.32121
# Poissons Ratio (z) = 0.08424 0.16620
#
# Static dielectric constant tensor:
#      x y z
#    x 2.110680 0.000000 -0.026550 
#    y 0.000000 1.971180 0.000000 
#    z -0.026550 0.000000 2.031000 
# 
# From -- ./inp_files/275920.got.cif
#   From: 2010.05.17/outbox.cif.g08.bks.cpg/sg15_138_cif.got.tgz:275920.got - 2010.06.03 18:47:42.
