data_PCOD9293817
_publ_section_title
;
Structure prediction by ZEFSAII (Michael W. Deem and Ramdas Pophale) SiO2 
 PCOD9293817
Probable space group: C 2/C
;
_chemical_formula_sum "Si O2"
_cell_formula_units_Z 36
_cell_length_a 7.264862
_cell_length_b 22.391277
_cell_length_c 8.793091
_cell_angle_alpha 90.000000
_cell_angle_beta 85.874994
_cell_angle_gamma 90.000000
_cell_volume 1426.662654
_symmetry_space_group_name_H-M "C 2/C"
_symmetry_group_IT_number 15
_symmetry_cell_setting 'monoclinic'
loop_
_space_group_symop_operation_xyz
x,y,z
-x,y,1/2-z
-x,-y,-z
x,-y,1/2+z
1/2+x,1/2+y,z
1/2-x,1/2+y,1/2-z
1/2-x,1/2-y,-z
1/2+x,1/2-y,1/2+z
loop_
_atom_site_type_symbol
_atom_site_label
_atom_site_fract_x
_atom_site_fract_y
_atom_site_fract_z
Si Si1 0.398901 0.814754 0.908203
Si Si2 0.159423 0.924774 0.867014
Si Si3 0.500000 0.301549 0.250000
Si Si4 0.659879 0.871961 0.129597
Si Si5 0.201574 0.483420 0.928962
O O1 0.500000 0.839137 0.750000
O O2 0.227256 0.859801 0.918872
O O3 0.396069 0.744440 0.872359
O O4 0.537956 0.826004 0.037635
O O5 0.286055 0.966682 0.748527
O O6 0.000000 0.915873 0.750000
O O7 0.162367 0.964030 0.022098
O O8 0.333776 0.339800 0.193229
O O9 0.500000 0.897356 0.250000
O O10 0.741013 0.922352 0.016491
O O11 0.000000 0.500000 0.000000
#
# Coordination Sequence:
#
# PCOD9293817 Si02
#       5
#     8   8   4   8   8
#     4  10  22  48  65  93 139 188 218 283 359 402
#     4  12  25  41  70 104 137 182 238 286 345 427
#     4  10  26  46  74  98 140 182 242 292 340 424
#     4  12  25  43  73 104 138 184 235 288 353 417
#     4  12  23  45  67  96 145 184 223 284 360 410
#
# _framework density 25.233716999999999
#
# number of rings (size 3 to 8) (size 9 to 14) (size 15 to 20)
#    0.667    0.000    4.444    3.333    1.556    3.556 
#    0.000    0.000    0.000    0.000    0.000    0.000 
#    0.000    0.000    0.000    0.000    0.000    0.000 
#
# Total GULP energy -100528.112974 kJ/mol
# GULP energy per Si atom -5584.895165 kJ/mol
# Density = 2.517628 g / cm^3
# Si number density = 25.233717 Si / 1000 Ang^3
#
#
#
# Elastic Constant Matrix: (Units=GPa)
#
#
# Indices 1 2 3 4 5 6 
#
# 1 121.6414 29.5891 24.8844 0.0000 50.6194 0.0000
# 2 29.5891 137.0804 39.0938 0.0000 32.4884 0.0000
# 3 24.8844 39.0938 105.8252 0.0000 23.5502 0.0000
# 4 0.0000 0.0000 0.0000 56.3491 0.0000 3.4956
# 5 50.6194 32.4884 23.5502 0.0000 59.8036 0.0000
# 6 0.0000 0.0000 0.0000 3.4956 0.0000 17.5398
#
#
#
# Elastic Compliance Matrix: (Units=1/GPa)
#
#
# Indices 1 2 3 4 5 6 
#
# 1 0.012733 -0.000084 -0.000630 0.000000 -0.010484 0.000000
# 2 -0.000084 0.008908 -0.002422 0.000000 -0.003814 0.000000
# 3 -0.000630 -0.002422 0.011049 0.000000 -0.002502 0.000000
# 4 0.000000 0.000000 0.000000 0.017969 0.000000 -0.003581
# 5 -0.010484 -0.003814 -0.002502 0.000000 0.028652 0.000000
# 6 0.000000 0.000000 0.000000 -0.003581 0.000000 0.057727
#
#
# Mechanical properties :
#
#
# Convention : Reuss Voigt Hill
#
# Bulk Modulus (GPa) = 37.85367 61.29795 49.57581
# Shear Modulus (GPa) = 32.86959 44.80381 38.83670
#
# Velocity S-wave (km/s) = 3.61308 4.21830 3.92737
# Velocity P-wave (km/s) = 5.69558 6.93327 6.34468
#
# Compressibility (1/GPa) = 0.02641752
#
# Stress axis : x y z
#
# Youngs Moduli (GPa) = 78.53704 112.26001 90.50364
#
# Poissons Ratio (x) = 0.00944 0.05702
# Poissons Ratio (y) = 0.00660 0.21921
# Poissons Ratio (z) = 0.04948 0.27191
#
# Static dielectric constant tensor:
#      x y z
#    x 2.168620 0.000000 -0.095510 
#    y 0.000000 1.948920 0.000000 
#    z -0.095510 0.000000 2.024930 
# 
# From -- ./inp_files/24135.got.cif
#   From: 2010.05.17/outbox.cif.g08.bks.cpg/sg15_13_cif.got.tgz:24135.got - 2010.06.03 18:47:42.
