data_PCOD9293624
_publ_section_title
;
Structure prediction by ZEFSAII (Michael W. Deem and Ramdas Pophale) SiO2 
 PCOD9293624
Probable space group: C 2/C
;
_chemical_formula_sum "Si O2"
_cell_formula_units_Z 44
_cell_length_a 28.002435
_cell_length_b 8.442208
_cell_length_c 21.332180
_cell_angle_alpha 90.000000
_cell_angle_beta 157.934203
_cell_angle_gamma 90.000000
_cell_volume 1894.501146
_symmetry_space_group_name_H-M "C 2/C"
_symmetry_group_IT_number 15
_symmetry_cell_setting 'monoclinic'
loop_
_space_group_symop_operation_xyz
x,y,z
-x,y,1/2-z
-x,-y,-z
x,-y,1/2+z
1/2+x,1/2+y,z
1/2-x,1/2+y,1/2-z
1/2-x,1/2-y,-z
1/2+x,1/2-y,1/2+z
loop_
_atom_site_type_symbol
_atom_site_label
_atom_site_fract_x
_atom_site_fract_y
_atom_site_fract_z
Si Si1 0.750571 0.939296 0.001822
Si Si2 0.631595 0.947051 0.236694
Si Si3 0.527282 0.349514 0.671897
Si Si4 0.121912 0.030683 0.106112
Si Si5 0.000000 0.390874 0.250000
Si Si6 0.370561 0.899568 0.410312
O O1 0.738003 0.997153 0.914297
O O2 0.625672 0.007473 0.886061
O O3 0.750000 0.750000 0.000000
O O4 0.876135 0.019009 0.184005
O O5 0.603829 0.763111 0.216540
O O6 0.642302 0.972502 0.175664
O O7 0.503375 0.043140 0.099162
O O8 0.409350 0.425571 0.492901
O O9 0.481861 0.228867 0.669924
O O10 0.133697 0.212159 0.101134
O O11 0.246750 0.967692 0.293039
O O12 0.000000 0.000000 0.000000
#
# Coordination Sequence:
#
# PCOD9293624 Si02
#       6
#     8   8   8   8   4   8
#     4  11  25  46  69 107 142 180 238 296 349 425
#     4  10  22  46  70  99 139 185 237 282 357 417
#     4  11  24  44  72 104 139 184 235 285 358 422
#     4  12  26  44  70 103 140 183 235 291 354 424
#     4  10  24  44  74 100 140 192 226 292 358 420
#     4  11  25  44  69 100 141 188 233 293 347 422
#
# _framework density 23.225110999999998
#
# number of rings (size 3 to 8) (size 9 to 14) (size 15 to 20)
#    0.000    1.091    1.818    4.364    7.636    3.636 
#    6.545    0.000    0.000    0.000    0.000    0.000 
#    0.000    0.000    0.000    0.000    0.000    0.000 
#
# Total GULP energy -123169.305947 kJ/mol
# GULP energy per Si atom -5598.604816 kJ/mol
# Density = 2.317225 g / cm^3
# Si number density = 23.225111 Si / 1000 Ang^3
#
#
#
# Elastic Constant Matrix: (Units=GPa)
#
#
# Indices 1 2 3 4 5 6 
#
# 1 55.9708 -9.9390 -9.6400 0.0000 8.7069 0.0000
# 2 -9.9390 149.0706 21.8998 0.0000 12.3098 0.0000
# 3 -9.6400 21.8998 74.6036 0.0000 4.4780 0.0000
# 4 0.0000 0.0000 0.0000 50.3254 0.0000 -4.8146
# 5 8.7069 12.3098 4.4780 0.0000 32.1810 0.0000
# 6 0.0000 0.0000 0.0000 -4.8146 0.0000 20.0588
#
#
#
# Elastic Compliance Matrix: (Units=1/GPa)
#
#
# Indices 1 2 3 4 5 6 
#
# 1 0.019509 0.001448 0.002466 0.000000 -0.006176 0.000000
# 2 0.001448 0.007309 -0.001782 0.000000 -0.002940 0.000000
# 3 0.002466 -0.001782 0.014365 0.000000 -0.001985 0.000000
# 4 0.000000 0.000000 0.000000 0.020338 0.000000 0.004882
# 5 -0.006176 -0.002940 -0.001985 0.000000 0.034146 0.000000
# 6 0.000000 0.000000 0.000000 0.004882 0.000000 0.051025
#
#
# Mechanical properties :
#
#
# Convention : Reuss Voigt Hill
#
# Bulk Modulus (GPa) = 22.00264 31.58741 26.79503
# Shear Modulus (GPa) = 31.73065 39.00132 35.36598
#
# Velocity S-wave (km/s) = 3.70025 4.10234 3.90647
# Velocity P-wave (km/s) = 5.26783 6.00575 5.64885
#
# Compressibility (1/GPa) = 0.04544908
#
# Stress axis : x y z
#
# Youngs Moduli (GPa) = 51.25805 136.81093 69.61307
#
# Poissons Ratio (x) = -0.19815 -0.17170
# Poissons Ratio (y) = -0.07424 0.12405
# Poissons Ratio (z) = -0.12642 0.24380
#
# Static dielectric constant tensor:
#      x y z
#    x 2.020750 0.000000 0.055090 
#    y 0.000000 1.812560 0.000000 
#    z 0.055090 0.000000 1.843500 
# 
# From -- ./inp_files/284474.got.cif
#   From: 2010.05.17/outbox.cif.g08.bks.cpg/sg15_143_cif.got.tgz:284474.got - 2010.06.03 18:47:42.
