data_PCOD9293036
_publ_section_title
;
Structure prediction by ZEFSAII (Michael W. Deem and Ramdas Pophale) SiO2 
 PCOD9293036
Probable space group: C 2/C
;
_chemical_formula_sum "Si O2"
_cell_formula_units_Z 48
_cell_length_a 17.339636
_cell_length_b 8.958928
_cell_length_c 13.276370
_cell_angle_alpha 90.000000
_cell_angle_beta 85.468095
_cell_angle_gamma 90.000000
_cell_volume 2055.963577
_symmetry_space_group_name_H-M "C 2/C"
_symmetry_group_IT_number 15
_symmetry_cell_setting 'monoclinic'
loop_
_space_group_symop_operation_xyz
x,y,z
-x,y,1/2-z
-x,-y,-z
x,-y,1/2+z
1/2+x,1/2+y,z
1/2-x,1/2+y,1/2-z
1/2-x,1/2-y,-z
1/2+x,1/2-y,1/2+z
loop_
_atom_site_type_symbol
_atom_site_label
_atom_site_fract_x
_atom_site_fract_y
_atom_site_fract_z
Si Si1 0.813534 0.010084 0.474056
Si Si2 0.466051 0.592243 0.359837
Si Si3 0.808203 0.562972 0.855432
Si Si4 0.710248 0.715745 0.695446
Si Si5 0.051088 0.635851 0.528613
Si Si6 0.089018 0.135014 0.869703
O O1 0.873956 0.090953 0.391429
O O2 0.867802 0.007486 0.568335
O O3 0.740424 0.086185 0.535480
O O4 0.785516 0.869711 0.411881
O O5 0.500000 0.636454 0.250000
O O6 0.496655 0.720520 0.430171
O O7 0.502903 0.429185 0.371751
O O8 0.777010 0.666118 0.767744
O O9 0.793817 0.392125 0.822590
O O10 0.895139 0.587015 0.883886
O O11 0.632814 0.659194 0.761075
O O12 0.095143 0.709450 0.428886
O O13 0.000000 0.500000 0.500000
#
# Coordination Sequence:
#
# PCOD9293036 Si02
#       6
#     8   8   8   8   8   8
#     4  10  22  44  71  99 135 183 233 293 349 421
#     4  11  23  44  75 100 137 192 248 282 352 433
#     4  11  28  44  72 107 143 187 239 296 364 426
#     4  11  25  45  72 103 139 186 236 298 357 428
#     4  11  27  45  69 103 149 187 232 302 360 416
#     4  10  24  43  74  99 139 187 245 288 349 432
#
# _framework density 23.346719
#
# number of rings (size 3 to 8) (size 9 to 14) (size 15 to 20)
#    0.000    1.333    1.667    2.500   11.667    4.667 
#    0.000    0.000    0.000    0.000    0.000    0.000 
#    0.000    0.000    0.000    0.000    0.000    0.000 
#
# Total GULP energy -133812.794922 kJ/mol
# GULP energy per Si atom -5575.533122 kJ/mol
# Density = 2.329358 g / cm^3
# Si number density = 23.346719 Si / 1000 Ang^3
#
#
#
# Elastic Constant Matrix: (Units=GPa)
#
#
# Indices 1 2 3 4 5 6 
#
# 1 86.7675 41.7587 32.3613 0.0000 19.7174 0.0000
# 2 41.7587 128.3606 53.5206 0.0000 30.5305 0.0000
# 3 32.3613 53.5206 128.1430 0.0000 -6.6785 0.0000
# 4 0.0000 0.0000 0.0000 42.4232 0.0000 12.9621
# 5 19.7174 30.5305 -6.6785 0.0000 43.1545 0.0000
# 6 0.0000 0.0000 0.0000 12.9621 0.0000 26.8216
#
#
#
# Elastic Compliance Matrix: (Units=1/GPa)
#
#
# Indices 1 2 3 4 5 6 
#
# 1 0.015102 -0.002184 -0.003206 0.000000 -0.005851 0.000000
# 2 -0.002184 0.012805 -0.005259 0.000000 -0.008875 0.000000
# 3 -0.003206 -0.005259 0.011170 0.000000 0.006914 0.000000
# 4 0.000000 0.000000 0.000000 0.027656 0.000000 -0.013365
# 5 -0.005851 -0.008875 0.006914 0.000000 0.033195 0.000000
# 6 0.000000 0.000000 0.000000 -0.013365 0.000000 0.043742
#
#
# Mechanical properties :
#
#
# Convention : Reuss Voigt Hill
#
# Bulk Modulus (GPa) = 56.25121 66.50580 61.37851
# Shear Modulus (GPa) = 29.25775 36.85522 33.05649
#
# Velocity S-wave (km/s) = 3.54388 3.97748 3.76692
# Velocity P-wave (km/s) = 6.39465 7.04569 6.72805
#
# Compressibility (1/GPa) = 0.01777740
#
# Stress axis : x y z
#
# Youngs Moduli (GPa) = 66.21727 78.09560 89.52261
#
# Poissons Ratio (x) = 0.17059 0.28704
# Poissons Ratio (y) = 0.14465 0.47080
# Poissons Ratio (z) = 0.21232 0.41070
#
# Static dielectric constant tensor:
#      x y z
#    x 1.944470 0.000000 -0.014840 
#    y 0.000000 1.870470 0.000000 
#    z -0.014840 0.000000 2.007960 
# 
# From -- ./inp_files/159750.got.cif
#   From: 2010.05.17/outbox.cif.g08.bks.cpg/sg15_80_cif.got.tgz:159750.got - 2010.06.03 18:47:42.
