data_PCOD9293265
_publ_section_title
;
Structure prediction by ZEFSAII (Michael W. Deem and Ramdas Pophale) SiO2 
 PCOD9293265
Probable space group: C 2/C
;
_chemical_formula_sum "Si O2"
_cell_formula_units_Z 52
_cell_length_a 9.233620
_cell_length_b 18.134658
_cell_length_c 13.891107
_cell_angle_alpha 90.000000
_cell_angle_beta 85.159818
_cell_angle_gamma 90.000000
_cell_volume 2317.750756
_symmetry_space_group_name_H-M "C 2/C"
_symmetry_group_IT_number 15
_symmetry_cell_setting 'monoclinic'
loop_
_space_group_symop_operation_xyz
x,y,z
-x,y,1/2-z
-x,-y,-z
x,-y,1/2+z
1/2+x,1/2+y,z
1/2-x,1/2+y,1/2-z
1/2-x,1/2-y,-z
1/2+x,1/2-y,1/2+z
loop_
_atom_site_type_symbol
_atom_site_label
_atom_site_fract_x
_atom_site_fract_y
_atom_site_fract_z
Si Si1 0.625052 0.679357 0.580357
Si Si2 0.205151 0.913710 0.893386
Si Si3 0.404107 0.555134 0.667171
Si Si4 0.724154 0.714876 0.106042
Si Si5 0.000000 0.144010 0.250000
Si Si6 0.673235 0.157800 0.755618
Si Si7 0.510376 0.839409 0.635874
O O1 0.658218 0.644569 0.476017
O O2 0.500177 0.624750 0.628528
O O3 0.767164 0.673108 0.640766
O O4 0.571858 0.763518 0.585694
O O5 0.134566 0.994206 0.910183
O O6 0.141409 0.890851 0.792985
O O7 0.378988 0.906433 0.884583
O O8 0.500000 0.523288 0.750000
O O9 0.250765 0.583207 0.716921
O O10 0.570739 0.684377 0.152574
O O11 0.743412 0.778935 0.184467
O O12 0.847899 0.652767 0.106523
O O13 0.750000 0.750000 0.000000
O O14 0.500000 0.157473 0.750000
O O15 0.500000 0.825194 0.750000
#
# Coordination Sequence:
#
# PCOD9293265 Si02
#       7
#     8   8   8   8   4   8   8
#     4  11  22  43  69  94 128 185 232 277 343 432
#     4  12  25  40  68 100 133 173 231 285 356 413
#     4  10  22  45  67  93 139 182 228 283 350 420
#     4  12  25  42  69  99 137 180 228 291 353 414
#     4  12  24  42  64 100 136 172 222 292 346 418
#     4  11  23  42  67  94 131 177 238 283 336 418
#     4  12  22  42  63  95 135 171 220 285 351 400
#
# _framework density 22.435545999999999
#
# number of rings (size 3 to 8) (size 9 to 14) (size 15 to 20)
#    0.000    0.615    6.154    2.308    2.154    0.615 
#    0.000    0.769    0.000    0.000    0.000    0.000 
#    0.000    0.000    0.000    0.000    0.000    0.000 
#
# Total GULP energy -145056.316471 kJ/mol
# GULP energy per Si atom -5579.089095 kJ/mol
# Density = 2.238448 g / cm^3
# Si number density = 22.435546 Si / 1000 Ang^3
#
#
#
# Elastic Constant Matrix: (Units=GPa)
#
#
# Indices 1 2 3 4 5 6 
#
# 1 162.3238 33.6232 28.0356 0.0000 -7.1225 0.0000
# 2 33.6232 44.6038 2.7475 0.0000 0.3153 0.0000
# 3 28.0356 2.7475 71.2577 0.0000 2.7113 0.0000
# 4 0.0000 0.0000 0.0000 4.5411 0.0000 5.0549
# 5 -7.1225 0.3153 2.7113 0.0000 29.3039 0.0000
# 6 0.0000 0.0000 0.0000 5.0549 0.0000 -0.0680
#
#
#
# Elastic Compliance Matrix: (Units=1/GPa)
#
#
# Indices 1 2 3 4 5 6 
#
# 1 0.007993 -0.005856 -0.003006 0.000000 0.002284 0.000000
# 2 -0.005856 0.026764 0.001342 0.000000 -0.001836 0.000000
# 3 -0.003006 0.001342 0.015246 0.000000 -0.002156 0.000000
# 4 0.000000 0.000000 0.000000 0.002629 0.000000 0.195464
# 5 0.002284 -0.001836 -0.002156 0.000000 0.034899 0.000000
# 6 0.000000 0.000000 0.000000 0.195464 0.000000 -0.175595
#
#
# Mechanical properties :
#
#
# Convention : Reuss Voigt Hill
#
# Bulk Modulus (GPa) = 28.60116 45.22199 36.91157
# Shear Modulus (GPa) = -81.47561 21.00734 -30.23413
#
# Velocity S-wave (km/s) = -6.03276 3.06329 -3.67495
# Velocity P-wave (km/s) = 5.97912 5.71942 1.23248
#
# Compressibility (1/GPa) = 0.03496362
#
# Stress axis : x y z
#
# Youngs Moduli (GPa) = 125.11064 37.36300 65.58897
#
# Poissons Ratio (x) = 0.21881 0.19715
# Poissons Ratio (y) = 0.73267 -0.08802
# Poissons Ratio (z) = 0.37606 -0.05014
#
# Static dielectric constant tensor:
#      x y z
#    x 1.917220 0.000000 -0.018840 
#    y 0.000000 1.910450 0.000000 
#    z -0.018840 0.000000 1.827920 
# 
# From -- ./inp_files/136005.got.cif
#   From: 2010.05.17/outbox.cif.g08.bks.cpg/sg15_69_cif.got.tgz:136005.got - 2010.06.03 18:47:42.
