data_PCOD9293033
_publ_section_title
;
Structure prediction by ZEFSAII (Michael W. Deem and Ramdas Pophale) SiO2 
 PCOD9293033
Probable space group: C 2/C
;
_chemical_formula_sum "Si O2"
_cell_formula_units_Z 60
_cell_length_a 30.075042
_cell_length_b 8.532493
_cell_length_c 23.669939
_cell_angle_alpha 90.000000
_cell_angle_beta 151.945609
_cell_angle_gamma 90.000000
_cell_volume 2856.689941
_symmetry_space_group_name_H-M "C 2/C"
_symmetry_group_IT_number 15
_symmetry_cell_setting 'monoclinic'
loop_
_space_group_symop_operation_xyz
x,y,z
-x,y,1/2-z
-x,-y,-z
x,-y,1/2+z
1/2+x,1/2+y,z
1/2-x,1/2+y,1/2-z
1/2-x,1/2-y,-z
1/2+x,1/2-y,1/2+z
loop_
_atom_site_type_symbol
_atom_site_label
_atom_site_fract_x
_atom_site_fract_y
_atom_site_fract_z
Si Si1 0.555294 0.135358 0.421378
Si Si2 0.380881 0.422384 0.322889
Si Si3 0.403555 0.432712 0.964627
Si Si4 0.227178 0.442593 0.570917
Si Si5 0.256578 0.587914 0.874333
Si Si6 0.713327 0.422633 0.476258
Si Si7 0.500000 0.337013 0.250000
Si Si8 0.079629 0.436147 0.631068
O O1 0.608001 0.259045 0.522438
O O2 0.519822 0.232219 0.327535
O O3 0.469040 0.072503 0.361858
O O4 0.625805 0.003431 0.478186
O O5 0.484374 0.461141 0.414204
O O6 0.364106 0.533712 0.357947
O O7 0.303094 0.449079 0.188422
O O8 0.388325 0.240117 0.348887
O O9 0.353095 0.550334 0.950266
O O10 0.245353 0.265167 0.608195
O O11 0.243389 0.465880 0.522829
O O12 0.170287 0.545902 0.736513
O O13 0.252390 0.473006 0.923576
O O14 0.750000 0.250000 0.500000
O O15 0.598573 0.426966 0.349077
O O16 0.000000 0.500000 0.500000
#
# Coordination Sequence:
#
# PCOD9293033 Si02
#       8
#     8   8   8   8   8   8   4   8
#     4  11  24  45  72 104 130 189 232 284 350 416
#     4  10  24  43  73 100 136 186 229 289 341 426
#     4  10  22  44  71  98 137 176 239 275 349 409
#     4  12  27  42  72 100 144 179 229 289 349 418
#     4  12  27  43  69 104 141 181 230 288 354 420
#     4  12  23  48  73 100 137 183 233 291 349 421
#     4  12  22  44  80  98 132 184 240 282 344 420
#     4  11  27  46  70 101 143 183 235 290 352 416
#
# _framework density 21.003328
#
# number of rings (size 3 to 8) (size 9 to 14) (size 15 to 20)
#    0.000    0.800    2.667    4.400    9.333    0.000 
#    0.000    0.000    0.000    0.000    0.000    0.000 
#    0.000    0.000    0.000    0.000    0.000    0.000 
#
# Total GULP energy -167851.641707 kJ/mol
# GULP energy per Si atom -5595.054724 kJ/mol
# Density = 2.095552 g / cm^3
# Si number density = 21.003328 Si / 1000 Ang^3
#
#
#
# Elastic Constant Matrix: (Units=GPa)
#
#
# Indices 1 2 3 4 5 6 
#
# 1 94.7188 29.6426 4.2368 0.0000 -4.8293 0.0000
# 2 29.6426 87.2032 22.6384 0.0000 8.7521 0.0000
# 3 4.2368 22.6384 57.0570 0.0000 -6.1665 0.0000
# 4 0.0000 0.0000 0.0000 26.2172 0.0000 4.1759
# 5 -4.8293 8.7521 -6.1665 0.0000 30.0533 0.0000
# 6 0.0000 0.0000 0.0000 4.1759 0.0000 12.2235
#
#
#
# Elastic Compliance Matrix: (Units=1/GPa)
#
#
# Indices 1 2 3 4 5 6 
#
# 1 0.012212 -0.004893 0.001432 0.000000 0.003681 0.000000
# 2 -0.004893 0.015482 -0.006496 0.000000 -0.006628 0.000000
# 3 0.001432 -0.006496 0.020685 0.000000 0.006366 0.000000
# 4 0.000000 0.000000 0.000000 0.040338 0.000000 -0.013781
# 5 0.003681 -0.006628 0.006366 0.000000 0.037102 0.000000
# 6 0.000000 0.000000 0.000000 -0.013781 0.000000 0.086518
#
#
# Mechanical properties :
#
#
# Convention : Reuss Voigt Hill
#
# Bulk Modulus (GPa) = 35.12776 39.11272 37.12024
# Shear Modulus (GPa) = 20.68345 25.86287 23.27316
#
# Velocity S-wave (km/s) = 3.14151 3.51290 3.33238
# Velocity P-wave (km/s) = 5.46991 5.92592 5.70247
#
# Compressibility (1/GPa) = 0.02846751
#
# Stress axis : x y z
#
# Youngs Moduli (GPa) = 81.88453 64.59080 48.34339
#
# Poissons Ratio (x) = 0.31601 -0.06924
# Poissons Ratio (y) = 0.40062 0.31403
# Poissons Ratio (z) = -0.11728 0.41957
#
# Static dielectric constant tensor:
#      x y z
#    x 1.744690 0.000000 0.004950 
#    y 0.000000 1.743540 0.000000 
#    z 0.004950 0.000000 1.742370 
# 
# From -- ./inp_files/284337.got.cif
#   From: 2010.05.17/outbox.cif.g08.bks.cpg/sg15_143_cif.got.tgz:284337.got - 2010.06.03 18:47:42.
