data_PCOD9293219
_publ_section_title
;
Structure prediction by ZEFSAII (Michael W. Deem and Ramdas Pophale) SiO2 
 PCOD9293219
Probable space group: C 2/C
;
_chemical_formula_sum "Si O2"
_cell_formula_units_Z 64
_cell_length_a 17.850369
_cell_length_b 13.927749
_cell_length_c 18.049801
_cell_angle_alpha 90.000000
_cell_angle_beta 134.279948
_cell_angle_gamma 90.000000
_cell_volume 3212.738859
_symmetry_space_group_name_H-M "C 2/C"
_symmetry_group_IT_number 15
_symmetry_cell_setting 'monoclinic'
loop_
_space_group_symop_operation_xyz
x,y,z
-x,y,1/2-z
-x,-y,-z
x,-y,1/2+z
1/2+x,1/2+y,z
1/2-x,1/2+y,1/2-z
1/2-x,1/2-y,-z
1/2+x,1/2-y,1/2+z
loop_
_atom_site_type_symbol
_atom_site_label
_atom_site_fract_x
_atom_site_fract_y
_atom_site_fract_z
Si Si1 0.109904 0.502767 0.310575
Si Si2 0.300354 0.887093 0.497655
Si Si3 0.639715 0.323602 0.504914
Si Si4 0.115980 0.820295 0.842892
Si Si5 0.706977 0.483929 0.813927
Si Si6 0.892627 0.159853 0.845755
Si Si7 0.714545 0.341957 0.069116
Si Si8 0.197175 0.368693 0.754675
O O1 0.122900 0.581964 0.383669
O O2 0.207595 0.431938 0.384096
O O3 0.117120 0.557561 0.237907
O O4 0.000000 0.452699 0.250000
O O5 0.339092 0.790091 0.486513
O O6 0.190887 0.866579 0.465119
O O7 0.285718 0.970621 0.428236
O O8 0.517852 0.344123 0.428551
O O9 0.706014 0.361391 0.620697
O O10 0.207862 0.749654 0.878108
O O11 0.000000 0.781068 0.750000
O O12 0.126589 0.918542 0.804214
O O13 0.140695 0.836527 0.946436
O O14 0.654878 0.573256 0.735345
O O15 0.763638 0.415385 0.794063
O O16 0.850460 0.151002 0.900462
O O17 0.852006 0.263417 0.788943
#
# Coordination Sequence:
#
# PCOD9293219 Si02
#       8
#     8   8   8   8   8   8   8   8
#     4  11  22  42  71  94 127 173 217 267 331 385
#     4  10  22  45  64  98 129 169 219 273 318 392
#     4  10  24  43  68  92 135 171 215 273 329 386
#     4  11  26  44  67  94 130 181 221 266 326 388
#     4  12  24  42  67  94 136 165 214 276 319 386
#     4  12  25  42  67  98 130 176 210 269 342 376
#     4  11  24  45  64  95 138 168 224 271 314 400
#     4  11  24  44  63  99 132 164 220 275 317 390
#
# _framework density 19.920698000000002
#
# number of rings (size 3 to 8) (size 9 to 14) (size 15 to 20)
#    0.000    1.000    5.000    1.125    3.500    0.500 
#    0.000    5.000    0.000    0.000    0.000    0.000 
#    0.000    0.000    0.000    0.000    0.000    0.000 
#
# Total GULP energy -178870.537910 kJ/mol
# GULP energy per Si atom -5589.704310 kJ/mol
# Density = 1.987536 g / cm^3
# Si number density = 19.920698 Si / 1000 Ang^3
#
#
#
# Elastic Constant Matrix: (Units=GPa)
#
#
# Indices 1 2 3 4 5 6 
#
# 1 77.4749 10.8625 53.8764 0.0000 -0.5135 0.0000
# 2 10.8625 76.7678 12.7699 0.0000 -6.8991 0.0000
# 3 53.8764 12.7699 62.9761 0.0000 4.0965 0.0000
# 4 0.0000 0.0000 0.0000 23.6133 0.0000 -18.3533
# 5 -0.5135 -6.8991 4.0965 0.0000 35.9687 0.0000
# 6 0.0000 0.0000 0.0000 -18.3533 0.0000 29.2350
#
#
#
# Elastic Compliance Matrix: (Units=1/GPa)
#
#
# Indices 1 2 3 4 5 6 
#
# 1 0.032342 0.000416 -0.027996 0.000000 0.003730 0.000000
# 2 0.000416 0.013798 -0.003351 0.000000 0.003034 0.000000
# 3 -0.027996 -0.003351 0.040880 0.000000 -0.005698 0.000000
# 4 0.000000 0.000000 0.000000 0.082704 0.000000 0.051921
# 5 0.003730 0.003034 -0.005698 0.000000 0.029086 0.000000
# 6 0.000000 0.000000 0.000000 0.051921 0.000000 0.066801
#
#
# Mechanical properties :
#
#
# Convention : Reuss Voigt Hill
#
# Bulk Modulus (GPa) = 39.74930 41.35958 40.55444
# Shear Modulus (GPa) = 14.88724 27.07740 20.98232
#
# Velocity S-wave (km/s) = 2.73669 3.69081 3.24897
# Velocity P-wave (km/s) = 5.47568 6.24260 5.87167
#
# Compressibility (1/GPa) = 0.02515767
#
# Stress axis : x y z
#
# Youngs Moduli (GPa) = 30.91927 72.47672 24.46198
#
# Poissons Ratio (x) = -0.03014 0.68484
# Poissons Ratio (y) = -0.01286 0.08197
# Poissons Ratio (z) = 0.86561 0.24286
#
# Static dielectric constant tensor:
#      x y z
#    x 1.680190 0.000000 0.008040 
#    y 0.000000 1.711480 0.000000 
#    z 0.008040 0.000000 1.681700 
# 
# From -- ./inp_files/211415.got.cif
#   From: 2010.05.17/outbox.cif.g08.bks.cpg/sg15_106_cif.got.tgz:211415.got - 2010.06.03 18:47:42.
