data_PCOD9293549
_publ_section_title
;
Structure prediction by ZEFSAII (Michael W. Deem and Ramdas Pophale) SiO2 
 PCOD9293549
Probable space group: C 2/C
;
_chemical_formula_sum "Si O2"
_cell_formula_units_Z 48
_cell_length_a 22.851127
_cell_length_b 15.569955
_cell_length_c 5.424355
_cell_angle_alpha 90.000000
_cell_angle_beta 82.256003
_cell_angle_gamma 90.000000
_cell_volume 1912.335809
_symmetry_space_group_name_H-M "C 2/C"
_symmetry_group_IT_number 15
_symmetry_cell_setting 'monoclinic'
loop_
_space_group_symop_operation_xyz
x,y,z
-x,y,1/2-z
-x,-y,-z
x,-y,1/2+z
1/2+x,1/2+y,z
1/2-x,1/2+y,1/2-z
1/2-x,1/2-y,-z
1/2+x,1/2-y,1/2+z
loop_
_atom_site_type_symbol
_atom_site_label
_atom_site_fract_x
_atom_site_fract_y
_atom_site_fract_z
Si Si1 0.311217 0.216284 0.357719
Si Si2 0.000000 0.500000 0.500000
Si Si3 0.135926 0.954821 0.772994
Si Si4 0.917566 0.657729 0.630116
Si Si5 0.399758 0.698997 0.490805
Si Si6 0.500000 0.720794 0.750000
Si Si7 0.721875 0.954369 0.851852
O O1 0.250000 0.250000 0.500000
O O2 0.354626 0.169901 0.529645
O O3 0.296587 0.143738 0.165690
O O4 0.344934 0.294739 0.207492
O O5 0.946916 0.564335 0.655663
O O6 0.000000 0.444468 0.750000
O O7 0.115886 0.858097 0.733191
O O8 0.207139 0.957348 0.712897
O O9 0.115967 0.008167 0.544097
O O10 0.913121 0.703992 0.897441
O O11 0.959921 0.719914 0.447809
O O12 0.456842 0.667243 0.601179
O O13 0.700835 0.005935 0.620975
#
# Coordination Sequence:
#
# PCOD9293549 Si02
#       7
#     8   4   8   8   8   4   8
#     4  11  27  44  72 110 149 205 262 325 393 484
#     4  12  26  46  76 110 156 206 266 328 392 472
#     4  10  24  44  72 104 140 191 240 312 387 461
#     4  11  25  45  72 106 150 206 255 323 391 471
#     4  11  25  45  76 102 150 199 259 322 401 483
#     4  10  22  46  68 104 136 192 246 306 380 456
#     4  10  24  44  65  98 148 193 245 307 379 461
#
# _framework density 25.100192
#
# number of rings (size 3 to 8) (size 9 to 14) (size 15 to 20)
#    0.000    1.333    0.833    2.500   16.333    2.667 
#    0.000    0.833    0.000    0.000    0.000    0.000 
#    0.000    0.000    0.000    0.000    0.000    0.000 
#
# Total GULP energy -133992.661401 kJ/mol
# GULP energy per Si atom -5583.027558 kJ/mol
# Density = 2.504306 g / cm^3
# Si number density = 25.100192 Si / 1000 Ang^3
#
#
#
# Elastic Constant Matrix: (Units=GPa)
#
#
# Indices 1 2 3 4 5 6 
#
# 1 108.7067 39.8303 43.4010 0.0000 -3.6680 0.0000
# 2 39.8303 95.4893 25.3047 0.0000 5.5975 0.0000
# 3 43.4010 25.3047 96.9941 0.0000 4.9703 0.0000
# 4 0.0000 0.0000 0.0000 24.3121 0.0000 -33.3269
# 5 -3.6680 5.5975 4.9703 0.0000 31.1184 0.0000
# 6 0.0000 0.0000 0.0000 -33.3269 0.0000 -14.4843
#
#
#
# Elastic Compliance Matrix: (Units=1/GPa)
#
#
# Indices 1 2 3 4 5 6 
#
# 1 0.012752 -0.004236 -0.004756 0.000000 0.003025 0.000000
# 2 -0.004236 0.012734 -0.001294 0.000000 -0.002583 0.000000
# 3 -0.004756 -0.001294 0.012898 0.000000 -0.002388 0.000000
# 4 0.000000 0.000000 0.000000 0.009902 0.000000 -0.022783
# 5 0.003025 -0.002583 -0.002388 0.000000 0.033338 0.000000
# 6 0.000000 0.000000 0.000000 -0.022783 0.000000 -0.016620
#
#
# Mechanical properties :
#
#
# Convention : Reuss Voigt Hill
#
# Bulk Modulus (GPa) = 56.14408 57.58469 56.86439
# Shear Modulus (GPa) = 54.63725 21.03286 37.83506
#
# Velocity S-wave (km/s) = 4.67064 2.89789 3.88669
# Velocity P-wave (km/s) = 7.17657 5.84711 6.54568
#
# Compressibility (1/GPa) = 0.01781132
#
# Stress axis : x y z
#
# Youngs Moduli (GPa) = 78.41909 78.53165 77.53155
#
# Poissons Ratio (x) = 0.33267 0.36873
# Poissons Ratio (y) = 0.33219 0.10034
# Poissons Ratio (z) = 0.37295 0.10164
#
# Static dielectric constant tensor:
#      x y z
#    x 4.485260 0.000000 3.406390 
#    y 0.000000 1.793990 0.000000 
#    z 3.406390 0.000000 6.639060 
# 
# From -- ./inp_files/15309.got.cif
#   From: 2010.05.17/outbox.cif.g08.bks.cpg/sg15_8_cif.got.tgz:15309.got - 2010.06.03 18:47:42.
