data_PCOD9293788
_publ_section_title
;
Structure prediction by ZEFSAII (Michael W. Deem and Ramdas Pophale) SiO2 
 PCOD9293788
Probable space group: C 2/C
;
_chemical_formula_sum "Si O2"
_cell_formula_units_Z 48
_cell_length_a 30.338880
_cell_length_b 7.350546
_cell_length_c 9.120083
_cell_angle_alpha 90.000000
_cell_angle_beta 58.300638
_cell_angle_gamma 90.000000
_cell_volume 1730.430150
_symmetry_space_group_name_H-M "C 2/C"
_symmetry_group_IT_number 15
_symmetry_cell_setting 'monoclinic'
loop_
_space_group_symop_operation_xyz
x,y,z
-x,y,1/2-z
-x,-y,-z
x,-y,1/2+z
1/2+x,1/2+y,z
1/2-x,1/2+y,1/2-z
1/2-x,1/2-y,-z
1/2+x,1/2-y,1/2+z
loop_
_atom_site_type_symbol
_atom_site_label
_atom_site_fract_x
_atom_site_fract_y
_atom_site_fract_z
Si Si1 0.057785 0.507288 0.960486
Si Si2 0.877113 0.184840 0.673975
Si Si3 0.719650 0.554149 0.550504
Si Si4 0.640295 0.066542 0.534436
Si Si5 0.538347 0.407427 0.047933
Si Si6 0.302530 0.189631 0.769673
O O1 0.079304 0.444505 0.085208
O O2 0.064711 0.722770 0.948662
O O3 0.090263 0.353694 0.816026
O O4 0.000000 0.500000 0.000000
O O5 0.841406 0.094333 0.857050
O O6 0.841305 0.279100 0.614913
O O7 0.915610 0.051509 0.521873
O O8 0.750000 0.750000 0.500000
O O9 0.831426 0.612457 0.576816
O O10 0.751569 0.429367 0.384468
O O11 0.661087 0.131052 0.654312
O O12 0.787024 0.099528 0.306538
O O13 0.500000 0.369651 0.250000
O O14 0.500000 0.500000 0.000000
#
# Coordination Sequence:
#
# PCOD9293788 Si02
#       6
#     8   8   8   8   8   8
#     4  10  22  47  72 105 148 197 258 321 392 468
#     4  10  24  46  71 111 148 196 260 319 387 471
#     4  11  23  48  79 113 158 206 262 328 401 481
#     4  10  24  47  73 110 153 203 255 324 390 479
#     4  12  26  47  74 105 146 199 253 322 397 468
#     4  11  25  48  75 115 158 206 260 322 402 486
#
# _framework density 27.738769000000001
#
# number of rings (size 3 to 8) (size 9 to 14) (size 15 to 20)
#    1.000    0.333    3.333    1.000    0.000    8.667 
#    6.000    0.000    0.000    0.000    0.000    0.000 
#    0.000    0.000    0.000    0.000    0.000    0.000 
#
# Total GULP energy -133942.330910 kJ/mol
# GULP energy per Si atom -5580.930455 kJ/mol
# Density = 2.767563 g / cm^3
# Si number density = 27.738769 Si / 1000 Ang^3
#
#
#
# Elastic Constant Matrix: (Units=GPa)
#
#
# Indices 1 2 3 4 5 6 
#
# 1 167.0210 60.6131 72.2782 0.0000 -3.7243 0.0000
# 2 60.6131 245.4578 51.3677 0.0000 -21.9402 0.0000
# 3 72.2782 51.3677 125.1056 0.0000 -25.9189 0.0000
# 4 0.0000 0.0000 0.0000 57.4753 0.0000 -23.6019
# 5 -3.7243 -21.9402 -25.9189 0.0000 59.2769 0.0000
# 6 0.0000 0.0000 0.0000 -23.6019 0.0000 64.9882
#
#
#
# Elastic Compliance Matrix: (Units=1/GPa)
#
#
# Indices 1 2 3 4 5 6 
#
# 1 0.008480 -0.001272 -0.004799 0.000000 -0.002036 0.000000
# 2 -0.001272 0.004695 -0.000934 0.000000 0.001249 0.000000
# 3 -0.004799 -0.000934 0.012113 0.000000 0.004649 0.000000
# 4 0.000000 0.000000 0.000000 0.020448 0.000000 0.007426
# 5 -0.002036 0.001249 0.004649 0.000000 0.019237 0.000000
# 6 0.000000 0.000000 0.000000 0.007426 0.000000 0.018084
#
#
# Mechanical properties :
#
#
# Convention : Reuss Voigt Hill
#
# Bulk Modulus (GPa) = 88.66862 100.67802 94.67332
# Shear Modulus (GPa) = 49.58974 59.90310 54.74642
#
# Velocity S-wave (km/s) = 4.23276 4.65213 4.44739
# Velocity P-wave (km/s) = 7.47819 8.07653 7.78311
#
# Compressibility (1/GPa) = 0.01127795
#
# Stress axis : x y z
#
# Youngs Moduli (GPa) = 117.92222 212.98036 82.55912
#
# Poissons Ratio (x) = 0.27087 0.39620
# Poissons Ratio (y) = 0.14997 0.07713
# Poissons Ratio (z) = 0.56591 0.19897
#
# Static dielectric constant tensor:
#      x y z
#    x 1.919530 0.000000 0.173140 
#    y 0.000000 2.261410 0.000000 
#    z 0.173140 0.000000 2.343270 
# 
# From -- ./inp_files/125266.got.cif
#   From: 2010.05.17/outbox.cif.g08.bks.cpg/sg15_63_cif.got.tgz:125266.got - 2010.06.03 18:47:42.
