data_PCOD9293038
_publ_section_title
;
Structure prediction by ZEFSAII (Michael W. Deem and Ramdas Pophale) SiO2 
 PCOD9293038
Probable space group: C 2/C
;
_chemical_formula_sum "Si O2"
_cell_formula_units_Z 32
_cell_length_a 12.095275
_cell_length_b 17.247851
_cell_length_c 5.752859
_cell_angle_alpha 90.000000
_cell_angle_beta 79.685328
_cell_angle_gamma 90.000000
_cell_volume 1180.751754
_symmetry_space_group_name_H-M "C 2/C"
_symmetry_group_IT_number 15
_symmetry_cell_setting 'monoclinic'
loop_
_space_group_symop_operation_xyz
x,y,z
-x,y,1/2-z
-x,-y,-z
x,-y,1/2+z
1/2+x,1/2+y,z
1/2-x,1/2+y,1/2-z
1/2-x,1/2-y,-z
1/2+x,1/2-y,1/2+z
loop_
_atom_site_type_symbol
_atom_site_label
_atom_site_fract_x
_atom_site_fract_y
_atom_site_fract_z
Si Si1 0.000000 0.206695 0.750000
Si Si2 0.656309 0.807020 0.941298
Si Si3 0.000000 0.954314 0.750000
Si Si4 0.310338 0.387930 0.561840
Si Si5 0.359510 0.021656 0.920853
O O1 0.040510 0.262470 0.942100
O O2 0.105938 0.152849 0.647875
O O3 0.705603 0.835019 0.672989
O O4 0.750000 0.750000 0.000000
O O5 0.649585 0.885638 0.090928
O O6 0.110299 0.901856 0.742509
O O7 0.000000 0.000000 0.500000
O O8 0.255302 0.469750 0.513604
O O9 0.407566 0.993185 0.659054
#
# Coordination Sequence:
#
# PCOD9293038 Si02
#       5
#     4   8   4   8   8
#     4  12  25  44  74 110 145 196 246 300 375 444
#     4  11  24  44  69 106 150 192 240 308 372 435
#     4  12  23  38  68 106 139 182 244 304 361 426
#     4  11  24  44  69 103 144 193 243 303 365 440
#     4  10  22  44  71  99 140 191 239 296 362 430
#
# _framework density 27.101378
#
# number of rings (size 3 to 8) (size 9 to 14) (size 15 to 20)
#    0.000    1.000    0.000    7.500    0.000    4.000 
#    0.000    5.000    0.000    0.000    0.000    0.000 
#    0.000    0.000    0.000    0.000    0.000    0.000 
#
# Total GULP energy -89571.478972 kJ/mol
# GULP energy per Si atom -5598.217436 kJ/mol
# Density = 2.703969 g / cm^3
# Si number density = 27.101378 Si / 1000 Ang^3
#
#
#
# Elastic Constant Matrix: (Units=GPa)
#
#
# Indices 1 2 3 4 5 6 
#
# 1 112.6383 40.4341 42.3656 0.0000 25.1187 0.0000
# 2 40.4341 178.2721 59.0610 0.0000 9.2827 0.0000
# 3 42.3656 59.0610 125.9847 0.0000 2.5356 0.0000
# 4 0.0000 0.0000 0.0000 53.0215 0.0000 25.2260
# 5 25.1187 9.2827 2.5356 0.0000 70.2514 0.0000
# 6 0.0000 0.0000 0.0000 25.2260 0.0000 24.5400
#
#
#
# Elastic Compliance Matrix: (Units=1/GPa)
#
#
# Indices 1 2 3 4 5 6 
#
# 1 0.011378 -0.001351 -0.003116 0.000000 -0.003777 0.000000
# 2 -0.001351 0.006843 -0.002747 0.000000 -0.000322 0.000000
# 3 -0.003116 -0.002747 0.010251 0.000000 0.001107 0.000000
# 4 0.000000 0.000000 0.000000 0.036914 0.000000 -0.037946
# 5 -0.003777 -0.000322 0.001107 0.000000 0.015588 0.000000
# 6 0.000000 0.000000 0.000000 -0.037946 0.000000 0.079756
#
#
# Mechanical properties :
#
#
# Convention : Reuss Voigt Hill
#
# Bulk Modulus (GPa) = 71.21671 77.84628 74.53150
# Shear Modulus (GPa) = 27.80272 47.89821 37.85047
#
# Velocity S-wave (km/s) = 3.20641 4.20857 3.74120
# Velocity P-wave (km/s) = 6.32796 7.23896 6.79873
#
# Compressibility (1/GPa) = 0.01404165
#
# Stress axis : x y z
#
# Youngs Moduli (GPa) = 87.89246 146.14078 97.55232
#
# Poissons Ratio (x) = 0.19750 0.30402
# Poissons Ratio (y) = 0.11878 0.26797
# Poissons Ratio (z) = 0.27391 0.40144
#
# Static dielectric constant tensor:
#      x y z
#    x 2.172080 0.000000 -0.046590 
#    y 0.000000 2.136900 0.000000 
#    z -0.046590 0.000000 2.138310 
# 
# From -- ./inp_files/6422.got.cif
#   From: 2010.05.17/outbox.cif.g08.bks.cpg/sg15_4_cif.got.tgz:6422.got - 2010.06.03 18:47:42.
