data_PCOD9293163
_publ_section_title
;
Structure prediction by ZEFSAII (Michael W. Deem and Ramdas Pophale) SiO2 
 PCOD9293163
Probable space group: C 2/C
;
_chemical_formula_sum "Si O2"
_cell_formula_units_Z 56
_cell_length_a 28.483433
_cell_length_b 5.401599
_cell_length_c 15.323445
_cell_angle_alpha 90.000000
_cell_angle_beta 103.829969
_cell_angle_gamma 90.000000
_cell_volume 2289.256792
_symmetry_space_group_name_H-M "C 2/C"
_symmetry_group_IT_number 15
_symmetry_cell_setting 'monoclinic'
loop_
_space_group_symop_operation_xyz
x,y,z
-x,y,1/2-z
-x,-y,-z
x,-y,1/2+z
1/2+x,1/2+y,z
1/2-x,1/2+y,1/2-z
1/2-x,1/2-y,-z
1/2+x,1/2-y,1/2+z
loop_
_atom_site_type_symbol
_atom_site_label
_atom_site_fract_x
_atom_site_fract_y
_atom_site_fract_z
Si Si1 0.844575 0.186594 0.480324
Si Si2 0.940729 0.524057 0.076694
Si Si3 0.231051 0.174102 0.710237
Si Si4 0.870151 0.794340 0.629504
Si Si5 0.869459 0.966247 0.314241
Si Si6 0.971965 0.200960 0.928650
Si Si7 0.222938 0.475486 0.440163
O O1 0.892414 0.322004 0.538124
O O2 0.852599 0.167695 0.379985
O O3 0.797092 0.319446 0.500358
O O4 0.852058 0.922081 0.531469
O O5 0.922868 0.320095 0.137112
O O6 0.988046 0.683389 0.118011
O O7 0.953034 0.399611 0.989944
O O8 0.256326 0.445953 0.716781
O O9 0.243436 0.011632 0.629923
O O10 0.174040 0.228616 0.692462
O O11 0.869689 0.963976 0.713439
O O12 0.828190 0.596910 0.627006
O O13 0.923834 0.897399 0.362657
O O14 0.000000 0.000000 0.000000
O O15 0.250000 0.250000 0.500000
#
# Coordination Sequence:
#
# PCOD9293163 Si02
#       7
#     8   8   8   8   8   8   8
#     4  11  24  46  72 105 150 200 254 322 388 468
#     4  10  22  44  75  99 149 186 250 317 390 469
#     4  12  28  50  72 114 161 201 264 330 388 481
#     4  11  23  47  67 112 146 198 257 316 382 482
#     4  12  25  44  81 104 153 207 259 322 403 464
#     4  11  22  46  73 107 140 191 248 319 389 474
#     4  11  26  42  72 105 156 205 255 320 396 461
#
# _framework density 24.462087
#
# number of rings (size 3 to 8) (size 9 to 14) (size 15 to 20)
#    0.000    0.857    4.286    1.714    4.000    1.143 
#    5.143    4.286    0.000    0.000    0.000    0.000 
#    0.000    0.000    0.000    0.000    0.000    0.000 
#
# Total GULP energy -156267.817751 kJ/mol
# GULP energy per Si atom -5580.993491 kJ/mol
# Density = 2.440641 g / cm^3
# Si number density = 24.462087 Si / 1000 Ang^3
#
#
#
# Elastic Constant Matrix: (Units=GPa)
#
#
# Indices 1 2 3 4 5 6 
#
# 1 194.6576 25.8225 16.9313 0.0000 4.6359 0.0000
# 2 25.8225 51.5044 1.4991 0.0000 2.5415 0.0000
# 3 16.9313 1.4991 52.4182 0.0000 -0.7789 0.0000
# 4 0.0000 0.0000 0.0000 23.5751 0.0000 -1.8356
# 5 4.6359 2.5415 -0.7789 0.0000 40.0897 0.0000
# 6 0.0000 0.0000 0.0000 -1.8356 0.0000 49.8254
#
#
#
# Elastic Compliance Matrix: (Units=1/GPa)
#
#
# Indices 1 2 3 4 5 6 
#
# 1 0.005669 -0.002766 -0.001760 0.000000 -0.000514 0.000000
# 2 -0.002766 0.020843 0.000282 0.000000 -0.000996 0.000000
# 3 -0.001760 0.000282 0.019646 0.000000 0.000567 0.000000
# 4 0.000000 0.000000 0.000000 0.042540 0.000000 0.001567
# 5 -0.000514 -0.000996 0.000567 0.000000 0.025078 0.000000
# 6 0.000000 0.000000 0.000000 0.001567 0.000000 0.020128
#
#
# Mechanical properties :
#
#
# Convention : Reuss Voigt Hill
#
# Bulk Modulus (GPa) = 26.54446 43.00959 34.77702
# Shear Modulus (GPa) = 32.26888 39.65320 35.96104
#
# Velocity S-wave (km/s) = 3.63593 4.03054 3.83831
# Velocity P-wave (km/s) = 5.33868 6.26743 5.82160
#
# Compressibility (1/GPa) = 0.03767264
#
# Stress axis : x y z
#
# Youngs Moduli (GPa) = 176.38384 47.97674 50.90069
#
# Poissons Ratio (x) = 0.13270 0.08958
# Poissons Ratio (y) = 0.48785 -0.01438
# Poissons Ratio (z) = 0.31040 -0.01355
#
# Static dielectric constant tensor:
#      x y z
#    x 1.979070 0.000000 0.217720 
#    y 0.000000 1.901130 0.000000 
#    z 0.217720 0.000000 1.967990 
# 
# From -- ./inp_files/221285.got.cif
#   From: 2010.05.17/outbox.cif.g08.bks.cpg/sg15_111_cif.got.tgz:221285.got - 2010.06.03 18:47:42.
