data_PCOD9293754
_publ_section_title
;
Structure prediction by ZEFSAII (Michael W. Deem and Ramdas Pophale) SiO2 
 PCOD9293754
Probable space group: C 2/C
;
_chemical_formula_sum "Si O2"
_cell_formula_units_Z 60
_cell_length_a 26.437244
_cell_length_b 8.713911
_cell_length_c 11.165957
_cell_angle_alpha 90.000000
_cell_angle_beta 71.074571
_cell_angle_gamma 90.000000
_cell_volume 2433.265685
_symmetry_space_group_name_H-M "C 2/C"
_symmetry_group_IT_number 15
_symmetry_cell_setting 'monoclinic'
loop_
_space_group_symop_operation_xyz
x,y,z
-x,y,1/2-z
-x,-y,-z
x,-y,1/2+z
1/2+x,1/2+y,z
1/2-x,1/2+y,1/2-z
1/2-x,1/2-y,-z
1/2+x,1/2-y,1/2+z
loop_
_atom_site_type_symbol
_atom_site_label
_atom_site_fract_x
_atom_site_fract_y
_atom_site_fract_z
Si Si1 0.676245 0.305587 0.259020
Si Si2 0.612994 0.037429 0.951931
Si Si3 0.053646 0.736309 0.432578
Si Si4 0.354077 0.138466 0.835825
Si Si5 0.225069 0.150346 0.227346
Si Si6 0.000000 0.837650 0.250000
Si Si7 0.155302 0.822674 0.007133
Si Si8 0.081481 0.084785 0.121037
O O1 0.614835 0.287800 0.348985
O O2 0.713175 0.191876 0.307375
O O3 0.703904 0.475443 0.236001
O O4 0.674564 0.267360 0.120418
O O5 0.635172 0.048160 0.797123
O O6 0.561350 0.932313 0.979471
O O7 0.608107 0.212919 0.996655
O O8 0.643994 0.959604 0.042900
O O9 0.012762 0.739932 0.356539
O O10 0.042460 0.854939 0.547252
O O11 0.300954 0.238637 0.852060
O O12 0.399338 0.270478 0.817451
O O13 0.200673 0.199453 0.374381
O O14 0.050475 0.951233 0.210601
O O15 0.134175 0.996226 0.031988
#
# Coordination Sequence:
#
# PCOD9293754 Si02
#       8
#     8   8   8   8   8   4   8   8
#     4  12  24  43  68 100 146 188 239 298 353 429
#     4  10  24  41  75 101 146 190 228 295 364 431
#     4  11  24  46  69 103 143 183 240 301 362 426
#     4  10  22  47  68 106 147 190 238 291 365 430
#     4  11  25  40  67 103 144 191 243 287 358 434
#     4  12  24  44  80  98 134 186 250 298 374 422
#     4  11  22  44  68  97 144 191 235 295 358 423
#     4  11  23  45  74 103 138 189 241 309 352 432
#
# _framework density 24.658218999999999
#
# number of rings (size 3 to 8) (size 9 to 14) (size 15 to 20)
#    0.000    1.067    4.000    1.600    7.467    0.000 
#    0.000    4.667    0.000    0.000    0.000    0.000 
#    0.000    0.000    0.000    0.000    0.000    0.000 
#
# Total GULP energy -167581.499133 kJ/mol
# GULP energy per Si atom -5586.049971 kJ/mol
# Density = 2.460210 g / cm^3
# Si number density = 24.658219 Si / 1000 Ang^3
#
#
#
# Elastic Constant Matrix: (Units=GPa)
#
#
# Indices 1 2 3 4 5 6 
#
# 1 83.4490 13.7713 29.3477 0.0000 18.7200 0.0000
# 2 13.7713 106.9413 38.8069 0.0000 14.7619 0.0000
# 3 29.3477 38.8069 122.9383 0.0000 32.1032 0.0000
# 4 0.0000 0.0000 0.0000 34.9399 0.0000 0.9026
# 5 18.7200 14.7619 32.1032 0.0000 40.7975 0.0000
# 6 0.0000 0.0000 0.0000 0.9026 0.0000 12.6608
#
#
#
# Elastic Compliance Matrix: (Units=1/GPa)
#
#
# Indices 1 2 3 4 5 6 
#
# 1 0.013778 -0.000429 -0.001942 0.000000 -0.004638 0.000000
# 2 -0.000429 0.010648 -0.002900 0.000000 -0.001374 0.000000
# 3 -0.001942 -0.002900 0.011336 0.000000 -0.006979 0.000000
# 4 0.000000 0.000000 0.000000 0.028673 0.000000 -0.002044
# 5 -0.004638 -0.001374 -0.006979 0.000000 0.032629 0.000000
# 6 0.000000 0.000000 0.000000 -0.002044 0.000000 0.079130
#
#
# Mechanical properties :
#
#
# Convention : Reuss Voigt Hill
#
# Bulk Modulus (GPa) = 39.65286 53.02003 46.33644
# Shear Modulus (GPa) = 25.62222 33.10650 29.36436
#
# Velocity S-wave (km/s) = 3.22700 3.66815 3.45462
# Velocity P-wave (km/s) = 5.47728 6.28403 5.89447
#
# Compressibility (1/GPa) = 0.02521886
#
# Stress axis : x y z
#
# Youngs Moduli (GPa) = 72.58068 93.91267 88.21588
#
# Poissons Ratio (x) = 0.04030 0.17135
# Poissons Ratio (y) = 0.03115 0.25582
# Poissons Ratio (z) = 0.14098 0.27235
#
# Static dielectric constant tensor:
#      x y z
#    x 1.973180 0.000000 -0.033670 
#    y 0.000000 1.967110 0.000000 
#    z -0.033670 0.000000 1.949280 
# 
# From -- ./inp_files/121979.got.cif
#   From: 2010.05.17/outbox.cif.g08.bks.cpg/sg15_61_cif.got.tgz:121979.got - 2010.06.03 18:47:42.
