data_PCOD9293594
_publ_section_title
;
Structure prediction by ZEFSAII (Michael W. Deem and Ramdas Pophale) SiO2 
 PCOD9293594
Probable space group: C 2/C
;
_chemical_formula_sum "Si O2"
_cell_formula_units_Z 60
_cell_length_a 11.331867
_cell_length_b 8.603673
_cell_length_c 28.350933
_cell_angle_alpha 90.000000
_cell_angle_beta 71.939618
_cell_angle_gamma 90.000000
_cell_volume 2627.907457
_symmetry_space_group_name_H-M "C 2/C"
_symmetry_group_IT_number 15
_symmetry_cell_setting 'monoclinic'
loop_
_space_group_symop_operation_xyz
x,y,z
-x,y,1/2-z
-x,-y,-z
x,-y,1/2+z
1/2+x,1/2+y,z
1/2-x,1/2+y,1/2-z
1/2-x,1/2-y,-z
1/2+x,1/2-y,1/2+z
loop_
_atom_site_type_symbol
_atom_site_label
_atom_site_fract_x
_atom_site_fract_y
_atom_site_fract_z
Si Si1 0.368937 0.823844 0.459572
Si Si2 0.488873 0.629439 0.854884
Si Si3 0.249019 0.396664 0.320109
Si Si4 0.500000 0.759622 0.250000
Si Si5 0.728051 0.239894 0.275457
Si Si6 0.151424 0.669678 0.062211
Si Si7 0.584487 0.648972 0.481505
Si Si8 0.507752 0.292911 0.859489
O O1 0.250000 0.750000 0.500000
O O2 0.490416 0.771301 0.472048
O O3 0.387527 0.769814 0.402667
O O4 0.367266 0.007547 0.460644
O O5 0.359623 0.592946 0.843892
O O6 0.609288 0.674329 0.810659
O O7 0.453347 0.783536 0.888096
O O8 0.523575 0.468456 0.876741
O O9 0.286875 0.260739 0.278585
O O10 0.239162 0.564412 0.294619
O O11 0.115912 0.334345 0.354442
O O12 0.360148 0.826931 0.269495
O O13 0.495517 0.685665 0.197493
O O14 0.290386 0.651028 0.064904
O O15 0.137246 0.806970 0.026218
O O16 0.500000 0.500000 0.500000
#
# Coordination Sequence:
#
# PCOD9293594 Si02
#       8
#     8   8   8   4   8   8   8   8
#     4  12  25  47  73 107 147 192 241 299 369 436
#     4  12  25  45  71 102 144 187 241 300 365 430
#     4  11  24  46  69 101 143 186 246 295 364 431
#     4  10  22  46  70 100 142 186 232 292 356 422
#     4  11  23  44  72  99 140 189 233 301 358 425
#     4  11  26  44  72 105 144 188 239 299 369 429
#     4  11  23  47  72 102 141 190 241 298 359 434
#     4  11  25  47  72 102 147 189 241 303 356 433
#
# _framework density 22.831855000000001
#
# number of rings (size 3 to 8) (size 9 to 14) (size 15 to 20)
#    0.000    0.800    2.667    4.800    1.867    1.067 
#   26.400    0.000    0.000    0.000    0.000    0.000 
#    0.000    0.000    0.000    0.000    0.000    0.000 
#
# Total GULP energy -167209.515344 kJ/mol
# GULP energy per Si atom -5573.650511 kJ/mol
# Density = 2.277989 g / cm^3
# Si number density = 22.831855 Si / 1000 Ang^3
#
#
#
# Elastic Constant Matrix: (Units=GPa)
#
#
# Indices 1 2 3 4 5 6 
#
# 1 110.6989 30.9263 14.6189 0.0000 -20.3715 0.0000
# 2 30.9263 110.2574 12.0657 0.0000 -7.6883 0.0000
# 3 14.6189 12.0657 85.7100 0.0000 -33.5938 0.0000
# 4 0.0000 0.0000 0.0000 29.3498 0.0000 3.3241
# 5 -20.3715 -7.6883 -33.5938 0.0000 43.1889 0.0000
# 6 0.0000 0.0000 0.0000 3.3241 0.0000 34.7359
#
#
#
# Elastic Compliance Matrix: (Units=1/GPa)
#
#
# Indices 1 2 3 4 5 6 
#
# 1 0.010625 -0.002691 0.000494 0.000000 0.004917 0.000000
# 2 -0.002691 0.009918 -0.001068 0.000000 -0.000335 0.000000
# 3 0.000494 -0.001068 0.016904 0.000000 0.013191 0.000000
# 4 0.000000 0.000000 0.000000 0.034445 0.000000 -0.003296
# 5 0.004917 -0.000335 0.013191 0.000000 0.035674 0.000000
# 6 0.000000 0.000000 0.000000 -0.003296 0.000000 0.029104
#
#
# Mechanical properties :
#
#
# Convention : Reuss Voigt Hill
#
# Bulk Modulus (GPa) = 32.34741 46.87643 39.61192
# Shear Modulus (GPa) = 32.57180 38.05861 35.31520
#
# Velocity S-wave (km/s) = 3.78113 4.08721 3.93714
# Velocity P-wave (km/s) = 5.76723 6.54595 6.16889
#
# Compressibility (1/GPa) = 0.03091438
#
# Stress axis : x y z
#
# Youngs Moduli (GPa) = 94.11764 100.82508 59.15903
#
# Poissons Ratio (x) = 0.27136 -0.02921
# Poissons Ratio (y) = 0.25331 0.06321
# Poissons Ratio (z) = -0.04646 0.10773
#
# Static dielectric constant tensor:
#      x y z
#    x 1.934500 0.000000 0.011190 
#    y 0.000000 1.863380 0.000000 
#    z 0.011190 0.000000 1.999230 
# 
# From -- ./inp_files/310284.got.cif
#   From: 2010.05.17/outbox.cif.g08.bks.cpg/sg15_156_cif.got.tgz:310284.got - 2010.06.03 18:47:42.
