data_PCOD9293413
_publ_section_title
;
Structure prediction by ZEFSAII (Michael W. Deem and Ramdas Pophale) SiO2 
 PCOD9293413
Probable space group: C 2/C
;
_chemical_formula_sum "Si O2"
_cell_formula_units_Z 40
_cell_length_a 9.553645
_cell_length_b 10.267000
_cell_length_c 23.057225
_cell_angle_alpha 90.000000
_cell_angle_beta 136.601766
_cell_angle_gamma 90.000000
_cell_volume 1553.880432
_symmetry_space_group_name_H-M "C 2/C"
_symmetry_group_IT_number 15
_symmetry_cell_setting 'monoclinic'
loop_
_space_group_symop_operation_xyz
x,y,z
-x,y,1/2-z
-x,-y,-z
x,-y,1/2+z
1/2+x,1/2+y,z
1/2-x,1/2+y,1/2-z
1/2-x,1/2-y,-z
1/2+x,1/2-y,1/2+z
loop_
_atom_site_type_symbol
_atom_site_label
_atom_site_fract_x
_atom_site_fract_y
_atom_site_fract_z
Si Si1 0.885845 0.633238 0.079741
Si Si2 0.054658 0.135976 0.700419
Si Si3 0.598998 0.234041 0.028178
Si Si4 0.494110 0.108810 0.814922
Si Si5 0.095340 0.052667 0.438639
O O1 0.907405 0.753635 0.129997
O O2 0.973907 0.681739 0.044979
O O3 0.012768 0.516210 0.146047
O O4 0.667714 0.565271 0.001780
O O5 0.032810 0.010845 0.651506
O O6 0.286178 0.185809 0.763891
O O7 0.000000 0.106116 0.750000
O O8 0.509189 0.328445 0.950769
O O9 0.695897 0.109677 0.025116
O O10 0.500000 0.067383 0.750000
O O11 0.700272 0.188355 0.888773
#
# Coordination Sequence:
#
# PCOD9293413 Si02
#       5
#     8   8   8   8   8
#     4  11  23  45  69 103 144 184 243 293 354 430
#     4  12  26  43  70 105 144 187 235 300 359 423
#     4  10  22  45  73 101 139 190 239 293 357 427
#     4  11  24  45  70 104 144 190 240 297 359 423
#     4  10  24  43  70 104 138 189 238 295 353 431
#
# _framework density 25.742007000000001
#
# number of rings (size 3 to 8) (size 9 to 14) (size 15 to 20)
#    0.000    1.200    2.000    3.000    2.800    4.800 
#    3.600    0.000    0.000    0.000    0.000    0.000 
#    0.000    0.000    0.000    0.000    0.000    0.000 
#
# Total GULP energy -112083.379527 kJ/mol
# GULP energy per Si atom -5604.168976 kJ/mol
# Density = 2.568342 g / cm^3
# Si number density = 25.742007 Si / 1000 Ang^3
#
#
#
# Elastic Constant Matrix: (Units=GPa)
#
#
# Indices 1 2 3 4 5 6 
#
# 1 124.8910 20.1595 42.9937 0.0000 -9.0830 0.0000
# 2 20.1595 116.2092 44.9041 0.0000 -2.6137 0.0000
# 3 42.9937 44.9041 135.2266 0.0000 -17.8880 0.0000
# 4 0.0000 0.0000 0.0000 39.4244 0.0000 -1.2481
# 5 -9.0830 -2.6137 -17.8880 0.0000 39.1574 0.0000
# 6 0.0000 0.0000 0.0000 -1.2481 0.0000 24.5408
#
#
#
# Elastic Compliance Matrix: (Units=1/GPa)
#
#
# Indices 1 2 3 4 5 6 
#
# 1 0.009047 -0.000554 -0.002575 0.000000 0.000885 0.000000
# 2 -0.000554 0.009935 -0.003248 0.000000 -0.000949 0.000000
# 3 -0.002575 -0.003248 0.009775 0.000000 0.003651 0.000000
# 4 0.000000 0.000000 0.000000 0.025406 0.000000 0.001292
# 5 0.000885 -0.000949 0.003651 0.000000 0.027348 0.000000
# 6 0.000000 0.000000 0.000000 0.001292 0.000000 0.040814
#
#
# Mechanical properties :
#
#
# Convention : Reuss Voigt Hill
#
# Bulk Modulus (GPa) = 62.49342 65.82682 64.16012
# Shear Modulus (GPa) = 35.60833 38.50915 37.05874
#
# Velocity S-wave (km/s) = 3.72328 3.87197 3.79835
# Velocity P-wave (km/s) = 6.54318 6.75402 6.64944
#
# Compressibility (1/GPa) = 0.01600169
#
# Stress axis : x y z
#
# Youngs Moduli (GPa) = 110.52888 100.65198 102.29657
#
# Poissons Ratio (x) = 0.05581 0.26344
# Poissons Ratio (y) = 0.06129 0.33230
# Poissons Ratio (z) = 0.28464 0.32696
#
# Static dielectric constant tensor:
#      x y z
#    x 2.051820 0.000000 0.059420 
#    y 0.000000 2.027060 0.000000 
#    z 0.059420 0.000000 2.062140 
# 
# From -- ./inp_files/263768.got.cif
#   From: 2010.05.17/outbox.cif.g08.bks.cpg/sg15_132_cif.got.tgz:263768.got - 2010.06.03 18:47:42.
