data_PCOD9293618
_publ_section_title
;
Structure prediction by ZEFSAII (Michael W. Deem and Ramdas Pophale) SiO2 
 PCOD9293618
Probable space group: C 2/C
;
_chemical_formula_sum "Si O2"
_cell_formula_units_Z 32
_cell_length_a 26.579821
_cell_length_b 10.096420
_cell_length_c 15.926208
_cell_angle_alpha 90.000000
_cell_angle_beta 160.712816
_cell_angle_gamma 90.000000
_cell_volume 1411.707500
_symmetry_space_group_name_H-M "C 2/C"
_symmetry_group_IT_number 15
_symmetry_cell_setting 'monoclinic'
loop_
_space_group_symop_operation_xyz
x,y,z
-x,y,1/2-z
-x,-y,-z
x,-y,1/2+z
1/2+x,1/2+y,z
1/2-x,1/2+y,1/2-z
1/2-x,1/2-y,-z
1/2+x,1/2-y,1/2+z
loop_
_atom_site_type_symbol
_atom_site_label
_atom_site_fract_x
_atom_site_fract_y
_atom_site_fract_z
Si Si1 0.126476 0.201813 0.368816
Si Si2 0.751395 0.085597 0.408998
Si Si3 0.805884 0.279426 0.848997
Si Si4 0.973482 0.335624 0.800065
O O1 0.250000 0.250000 0.500000
O O2 0.153811 0.300561 0.490502
O O3 0.165280 0.053698 0.457099
O O4 0.958053 0.198374 0.064356
O O5 0.700016 0.110050 0.232129
O O6 0.868213 0.205522 0.615089
O O7 0.616582 0.091086 0.266586
O O8 0.641847 0.209946 0.591713
O O9 0.000000 0.401700 0.750000
#
# Coordination Sequence:
#
# PCOD9293618 Si02
#       4
#     8   8   8   8
#     4  11  25  45  65 105 142 178 233 283 343 410
#     4  10  22  46  70  96 145 178 223 295 336 409
#     4  10  23  40  69 101 132 184 229 273 349 406
#     4   9  20  42  69 101 131 182 234 273 350 405
#
# _framework density 22.667584999999999
#
# number of rings (size 3 to 8) (size 9 to 14) (size 15 to 20)
#    0.000    2.000    0.000    1.500   10.500    4.000 
#   18.000   12.500    0.000    0.000    0.000    0.000 
#    0.000    0.000    0.000    0.000    0.000    0.000 
#
# Total GULP energy -89246.010001 kJ/mol
# GULP energy per Si atom -5577.875625 kJ/mol
# Density = 2.261599 g / cm^3
# Si number density = 22.667585 Si / 1000 Ang^3
#
#
#
# Elastic Constant Matrix: (Units=GPa)
#
#
# Indices 1 2 3 4 5 6 
#
# 1 109.4863 17.7070 35.9892 0.0000 31.1670 0.0000
# 2 17.7070 90.2831 19.6247 0.0000 0.6118 0.0000
# 3 35.9892 19.6247 120.6167 0.0000 30.7499 0.0000
# 4 0.0000 0.0000 0.0000 37.7068 0.0000 -10.8673
# 5 31.1670 0.6118 30.7499 0.0000 43.5678 0.0000
# 6 0.0000 0.0000 0.0000 -10.8673 0.0000 9.1575
#
#
#
# Elastic Compliance Matrix: (Units=1/GPa)
#
#
# Indices 1 2 3 4 5 6 
#
# 1 0.012083 -0.002032 -0.001315 0.000000 -0.007687 0.000000
# 2 -0.002032 0.011896 -0.002021 0.000000 0.002713 0.000000
# 3 -0.001315 -0.002021 0.010688 0.000000 -0.006574 0.000000
# 4 0.000000 0.000000 0.000000 0.040305 0.000000 0.047830
# 5 -0.007687 0.002713 -0.006574 0.000000 0.033054 0.000000
# 6 0.000000 0.000000 0.000000 0.047830 0.000000 0.165960
#
#
# Mechanical properties :
#
#
# Convention : Reuss Voigt Hill
#
# Bulk Modulus (GPa) = 41.78649 51.89197 46.83923
# Shear Modulus (GPa) = 17.08250 34.55745 25.81997
#
# Velocity S-wave (km/s) = 2.74817 3.90876 3.37867
# Velocity P-wave (km/s) = 5.34270 6.58130 5.99408
#
# Compressibility (1/GPa) = 0.02393118
#
# Stress axis : x y z
#
# Youngs Moduli (GPa) = 82.76372 84.06447 93.56349
#
# Poissons Ratio (x) = 0.17080 0.12302
# Poissons Ratio (y) = 0.16816 0.18907
# Poissons Ratio (z) = 0.10882 0.16988
#
# Static dielectric constant tensor:
#      x y z
#    x 1.917900 0.000000 0.027120 
#    y 0.000000 1.838590 0.000000 
#    z 0.027120 0.000000 1.910640 
# 
# From -- ./inp_files/177699.got.cif
#   From: 2010.05.17/outbox.cif.g08.bks.cpg/sg15_89_cif.got.tgz:177699.got - 2010.06.03 18:47:42.
