data_PCOD9293051
_publ_section_title
;
Structure prediction by ZEFSAII (Michael W. Deem and Ramdas Pophale) SiO2 
 PCOD9293051
Probable space group: C 2/C
;
_chemical_formula_sum "Si O2"
_cell_formula_units_Z 48
_cell_length_a 25.581902
_cell_length_b 5.361319
_cell_length_c 22.322945
_cell_angle_alpha 90.000000
_cell_angle_beta 36.672995
_cell_angle_gamma 90.000000
_cell_volume 1828.563635
_symmetry_space_group_name_H-M "C 2/C"
_symmetry_group_IT_number 15
_symmetry_cell_setting 'monoclinic'
loop_
_space_group_symop_operation_xyz
x,y,z
-x,y,1/2-z
-x,-y,-z
x,-y,1/2+z
1/2+x,1/2+y,z
1/2-x,1/2+y,1/2-z
1/2-x,1/2-y,-z
1/2+x,1/2-y,1/2+z
loop_
_atom_site_type_symbol
_atom_site_label
_atom_site_fract_x
_atom_site_fract_y
_atom_site_fract_z
Si Si1 0.743074 0.950908 0.953547
Si Si2 0.352863 0.166634 0.774687
Si Si3 0.898423 0.329358 0.840827
Si Si4 0.008598 0.190952 0.064781
Si Si5 0.706820 0.077495 0.283988
Si Si6 0.567430 0.805843 0.493255
O O1 0.762186 0.800801 0.875609
O O2 0.894425 0.556919 0.796844
O O3 0.750000 0.750000 0.000000
O O4 0.652172 0.089272 0.051324
O O5 0.416677 0.356843 0.681676
O O6 0.335578 0.951105 0.742374
O O7 0.327259 0.631241 0.881733
O O8 0.000000 0.247767 0.750000
O O9 0.997080 0.242047 0.003974
O O10 0.032224 0.467673 0.064833
O O11 0.072072 0.962262 0.019772
O O12 0.784846 0.869258 0.208737
O O13 0.650506 0.922911 0.384336
#
# Coordination Sequence:
#
# PCOD9293051 Si02
#       6
#     8   8   8   8   8   8
#     4   9  21  43  68 100 142 176 231 302 368 430
#     4  10  23  40  69  96 136 183 232 288 363 430
#     4  10  22  44  72 103 137 180 234 302 366 438
#     4   9  18  33  59  87 121 169 214 275 330 394
#     4  11  24  41  64  96 142 191 234 287 353 424
#     4   9  18  35  54  85 127 167 221 272 323 394
#
# _framework density 26.250114
#
# number of rings (size 3 to 8) (size 9 to 14) (size 15 to 20)
#    0.000    2.333    0.000    1.000    4.667    5.333 
#    6.000    0.000    0.000    0.000    0.000    0.000 
#    0.000    0.000    0.000    0.000    0.000    0.000 
#
# Total GULP energy -133954.736517 kJ/mol
# GULP energy per Si atom -5581.447355 kJ/mol
# Density = 2.619037 g / cm^3
# Si number density = 26.250114 Si / 1000 Ang^3
#
#
#
# Elastic Constant Matrix: (Units=GPa)
#
#
# Indices 1 2 3 4 5 6 
#
# 1 71.7981 15.4407 25.3189 -0.0519 -13.3477 -0.0361
# 2 15.4407 133.5531 44.7715 -0.1628 -5.2106 -0.1038
# 3 25.3189 44.7715 167.0214 -0.0180 5.1900 -0.0413
# 4 -0.0519 -0.1628 -0.0180 13.8071 -0.0017 -29.4084
# 5 -13.3477 -5.2106 5.1900 -0.0017 28.7518 0.0016
# 6 -0.0361 -0.1038 -0.0413 -29.4084 0.0016 9.0552
#
#
#
# Elastic Compliance Matrix: (Units=1/GPa)
#
#
# Indices 1 2 3 4 5 6 
#
# 1 0.016466 -0.000739 -0.002546 -0.000024 0.007970 -0.000035
# 2 -0.000739 0.008365 -0.002179 -0.000046 0.001566 -0.000065
# 3 -0.002546 -0.002179 0.007046 0.000005 -0.002848 0.000015
# 4 -0.000024 -0.000046 0.000005 -0.012239 -0.000019 -0.039750
# 5 0.007970 0.001566 -0.002848 -0.000019 0.039278 -0.000032
# 6 -0.000035 -0.000065 0.000015 -0.039750 -0.000032 -0.018662
#
#
# Mechanical properties :
#
#
# Convention : Reuss Voigt Hill
#
# Bulk Modulus (GPa) = 47.73541 60.38164 54.05852
# Shear Modulus (GPa) = 85.96356 29.44557 57.70457
#
# Velocity S-wave (km/s) = 5.72878 3.35286 4.69365
# Velocity P-wave (km/s) = 7.87292 6.16776 7.07192
#
# Compressibility (1/GPa) = 0.02094881
#
# Stress axis : x y z
#
# Youngs Moduli (GPa) = 60.73041 119.55231 141.93065
#
# Poissons Ratio (x) = 0.08841 0.36129
# Poissons Ratio (y) = 0.04491 0.30923
# Poissons Ratio (z) = 0.15459 0.26048
#
# Static dielectric constant tensor:
#      x y z
#    x 2.113650 -0.000100 -0.109650 
#    y -0.000100 2.255930 0.000090 
#    z -0.109650 0.000090 2.216150 
# 
# From -- ./inp_files/304011.got.cif
#   From: 2010.05.17/outbox.cif.g08.bks.cpg/sg15_153_cif.got.tgz:304011.got - 2010.06.03 18:47:42.
