data_PCOD9293153
_publ_section_title
;
Structure prediction by ZEFSAII (Michael W. Deem and Ramdas Pophale) SiO2 
 PCOD9293153
Probable space group: C 2/C
;
_chemical_formula_sum "Si O2"
_cell_formula_units_Z 60
_cell_length_a 8.125510
_cell_length_b 29.108298
_cell_length_c 12.387376
_cell_angle_alpha 90.000000
_cell_angle_beta 70.952590
_cell_angle_gamma 90.000000
_cell_volume 2769.446135
_symmetry_space_group_name_H-M "C 2/C"
_symmetry_group_IT_number 15
_symmetry_cell_setting 'monoclinic'
loop_
_space_group_symop_operation_xyz
x,y,z
-x,y,1/2-z
-x,-y,-z
x,-y,1/2+z
1/2+x,1/2+y,z
1/2-x,1/2+y,1/2-z
1/2-x,1/2-y,-z
1/2+x,1/2-y,1/2+z
loop_
_atom_site_type_symbol
_atom_site_label
_atom_site_fract_x
_atom_site_fract_y
_atom_site_fract_z
Si Si1 0.078107 0.296088 0.613079
Si Si2 0.541547 0.112123 0.363778
Si Si3 0.972167 0.795667 0.471374
Si Si4 0.124106 0.488189 0.875566
Si Si5 0.908647 0.044597 0.468242
Si Si6 0.915159 0.863302 0.878456
Si Si7 0.500000 0.642735 0.750000
Si Si8 0.806730 0.421190 0.279679
O O1 0.979495 0.256461 0.567645
O O2 0.284793 0.289337 0.568965
O O3 0.000000 0.290548 0.750000
O O4 0.065016 0.346479 0.559951
O O5 0.500000 0.124467 0.250000
O O6 0.525213 0.057833 0.361846
O O7 0.727965 0.120422 0.377578
O O8 0.961631 0.825031 0.362240
O O9 0.087010 0.825277 0.529018
O O10 0.155321 0.530798 0.790645
O O11 0.309749 0.474699 0.885294
O O12 0.000000 0.500000 0.000000
O O13 0.010438 0.090444 0.405826
O O14 0.776470 0.064949 0.586872
O O15 0.000000 0.000000 0.500000
O O16 0.000000 0.846029 0.750000
O O17 0.335448 0.610004 0.752349
O O18 0.000000 0.399412 0.250000
#
# Coordination Sequence:
#
# PCOD9293153 Si02
#       8
#     8   8   8   8   8   8   4   8
#     4  10  22  44  75 103 139 189 244 300 378 449
#     4  10  23  41  65  94 132 183 232 288 359 425
#     4  11  24  45  72 106 144 186 241 311 373 451
#     4  11  24  38  63  96 134 181 237 295 352 428
#     4  11  25  40  62  94 139 190 241 294 367 432
#     4  11  24  42  66 101 139 181 242 299 354 445
#     4  12  26  46  76 104 154 198 240 310 388 438
#     4  12  25  46  67 101 145 189 248 300 364 451
#
# _framework density 21.664981000000001
#
# number of rings (size 3 to 8) (size 9 to 14) (size 15 to 20)
#    0.000    1.067    3.333    2.800    5.600    0.533 
#    0.000    0.000    0.000    0.000    0.000    0.000 
#    0.000    0.000    0.000    0.000    0.000    0.000 
#
# Total GULP energy -167031.219811 kJ/mol
# GULP energy per Si atom -5567.707327 kJ/mol
# Density = 2.161567 g / cm^3
# Si number density = 21.664981 Si / 1000 Ang^3
#
#
#
# Elastic Constant Matrix: (Units=GPa)
#
#
# Indices 1 2 3 4 5 6 
#
# 1 49.9822 18.7194 17.4208 0.0000 8.6066 0.0000
# 2 18.7194 114.5515 29.2972 0.0000 15.0315 0.0000
# 3 17.4208 29.2972 115.3607 0.0000 2.4822 0.0000
# 4 0.0000 0.0000 0.0000 19.4375 0.0000 5.1759
# 5 8.6066 15.0315 2.4822 0.0000 30.3464 0.0000
# 6 0.0000 0.0000 0.0000 5.1759 0.0000 27.3606
#
#
#
# Elastic Compliance Matrix: (Units=1/GPa)
#
#
# Indices 1 2 3 4 5 6 
#
# 1 0.022707 -0.002351 -0.002723 0.000000 -0.005053 0.000000
# 2 -0.002351 0.010217 -0.002149 0.000000 -0.004218 0.000000
# 3 -0.002723 -0.002149 0.009603 0.000000 0.001051 0.000000
# 4 0.000000 0.000000 0.000000 0.054176 0.000000 -0.010249
# 5 -0.005053 -0.004218 0.001051 0.000000 0.036389 0.000000
# 6 0.000000 0.000000 0.000000 -0.010249 0.000000 0.038488
#
#
# Mechanical properties :
#
#
# Convention : Reuss Voigt Hill
#
# Bulk Modulus (GPa) = 35.61234 45.64103 40.62669
# Shear Modulus (GPa) = 25.59035 29.72603 27.65819
#
# Velocity S-wave (km/s) = 3.44057 3.70817 3.57687
# Velocity P-wave (km/s) = 5.67950 6.28065 5.98762
#
# Compressibility (1/GPa) = 0.02808015
#
# Stress axis : x y z
#
# Youngs Moduli (GPa) = 44.03964 97.87585 104.13613
#
# Poissons Ratio (x) = 0.23012 0.28358
# Poissons Ratio (y) = 0.10354 0.22378
# Poissons Ratio (z) = 0.11993 0.21033
#
# Static dielectric constant tensor:
#      x y z
#    x 1.877590 0.000000 -0.042400 
#    y 0.000000 1.925140 0.000000 
#    z -0.042400 0.000000 1.792490 
# 
# From -- ./inp_files/82202.got.cif
#   From: 2010.05.17/outbox.cif.g08.bks.cpg/sg15_42_cif.got.tgz:82202.got - 2010.06.03 18:47:42.
