data_PCOD9293439
_publ_section_title
;
Structure prediction by ZEFSAII (Michael W. Deem and Ramdas Pophale) SiO2 
 PCOD9293439
Probable space group: C 2/C
;
_chemical_formula_sum "Si O2"
_cell_formula_units_Z 32
_cell_length_a 7.428910
_cell_length_b 11.358998
_cell_length_c 20.573520
_cell_angle_alpha 90.000000
_cell_angle_beta 47.751472
_cell_angle_gamma 90.000000
_cell_volume 1285.119680
_symmetry_space_group_name_H-M "C 2/C"
_symmetry_group_IT_number 15
_symmetry_cell_setting 'monoclinic'
loop_
_space_group_symop_operation_xyz
x,y,z
-x,y,1/2-z
-x,-y,-z
x,-y,1/2+z
1/2+x,1/2+y,z
1/2-x,1/2+y,1/2-z
1/2-x,1/2-y,-z
1/2+x,1/2-y,1/2+z
loop_
_atom_site_type_symbol
_atom_site_label
_atom_site_fract_x
_atom_site_fract_y
_atom_site_fract_z
Si Si1 0.238542 0.125691 0.779458
Si Si2 0.500000 0.427811 0.750000
Si Si3 0.583543 0.787345 0.922051
Si Si4 0.662247 0.612320 0.446855
Si Si5 0.000000 0.679758 0.250000
O O1 0.500000 0.118186 0.750000
O O2 0.071837 0.170375 0.879138
O O3 0.186024 0.234315 0.743208
O O4 0.161331 0.012038 0.757191
O O5 0.328972 0.352216 0.840160
O O6 0.370659 0.872954 0.950760
O O7 0.509284 0.729565 0.008392
O O8 0.500000 0.500000 0.500000
O O9 0.825276 0.611363 0.342203
#
# Coordination Sequence:
#
# PCOD9293439 Si02
#       5
#     8   4   8   8   4
#     4  10  22  45  75 106 148 197 238 295 368 436
#     4  11  24  43  78 110 148 199 234 301 370 424
#     4  10  23  44  69 111 151 183 249 305 348 444
#     4  10  23  44  76 107 145 196 246 300 371 435
#     4   9  22  47  76 104 146 197 248 299 370 440
#
# _framework density 24.900403000000001
#
# number of rings (size 3 to 8) (size 9 to 14) (size 15 to 20)
#    0.000    2.000    1.250    0.000    3.500    5.000 
#    4.500   21.250    5.500    0.000    0.000    0.000 
#    0.000    0.000    0.000    0.000    0.000    0.000 
#
# Total GULP energy -89337.287333 kJ/mol
# GULP energy per Si atom -5583.580458 kJ/mol
# Density = 2.484373 g / cm^3
# Si number density = 24.900403 Si / 1000 Ang^3
#
#
#
# Elastic Constant Matrix: (Units=GPa)
#
#
# Indices 1 2 3 4 5 6 
#
# 1 159.8788 62.5932 63.6657 0.0000 -33.2548 0.0001
# 2 62.5932 148.6100 104.7743 0.0000 -22.3146 0.0001
# 3 63.6657 104.7743 213.7599 0.0003 -35.1892 0.0001
# 4 0.0000 0.0000 0.0003 14.0786 0.0000 6.1899
# 5 -33.2548 -22.3146 -35.1892 0.0000 39.5133 -0.0001
# 6 0.0001 0.0001 0.0001 6.1899 -0.0001 38.9173
#
#
#
# Elastic Compliance Matrix: (Units=1/GPa)
#
#
# Indices 1 2 3 4 5 6 
#
# 1 0.008516 -0.002468 -0.000441 0.000000 0.005381 0.000000
# 2 -0.002468 0.011079 -0.004695 0.000000 -0.000002 0.000000
# 3 -0.000441 -0.004695 0.007749 0.000000 0.003879 0.000000
# 4 0.000000 0.000000 0.000000 0.076370 0.000000 -0.012147
# 5 0.005381 -0.000002 0.003879 0.000000 0.033289 0.000000
# 6 0.000000 0.000000 0.000000 -0.012147 0.000000 0.027627
#
#
# Mechanical properties :
#
#
# Convention : Reuss Voigt Hill
#
# Bulk Modulus (GPa) = 82.40587 109.36835 95.88711
# Shear Modulus (GPa) = 27.19098 37.91621 32.55359
#
# Velocity S-wave (km/s) = 3.30811 3.90643 3.61966
# Velocity P-wave (km/s) = 6.91068 8.02276 7.48739
#
# Compressibility (1/GPa) = 0.01213506
#
# Stress axis : x y z
#
# Youngs Moduli (GPa) = 117.43056 90.26376 129.04144
#
# Poissons Ratio (x) = 0.22277 0.05689
# Poissons Ratio (y) = 0.28982 0.60591
# Poissons Ratio (z) = 0.05177 0.42383
#
# Static dielectric constant tensor:
#      x y z
#    x 2.114000 0.000000 0.047040 
#    y 0.000000 2.072370 0.000000 
#    z 0.047040 0.000000 2.015680 
# 
# From -- ./inp_files/262950.got.cif
#   From: 2010.05.17/outbox.cif.g08.bks.cpg/sg15_132_cif.got.tgz:262950.got - 2010.06.03 18:47:42.
