data_PCOD9293826
_publ_section_title
;
Structure prediction by ZEFSAII (Michael W. Deem and Ramdas Pophale) SiO2 
 PCOD9293826
Probable space group: C 2/C
;
_chemical_formula_sum "Si O2"
_cell_formula_units_Z 44
_cell_length_a 10.296837
_cell_length_b 25.661291
_cell_length_c 7.635299
_cell_angle_alpha 90.000000
_cell_angle_beta 112.916986
_cell_angle_gamma 90.000000
_cell_volume 1858.236677
_symmetry_space_group_name_H-M "C 2/C"
_symmetry_group_IT_number 15
_symmetry_cell_setting 'monoclinic'
loop_
_space_group_symop_operation_xyz
x,y,z
-x,y,1/2-z
-x,-y,-z
x,-y,1/2+z
1/2+x,1/2+y,z
1/2-x,1/2+y,1/2-z
1/2-x,1/2-y,-z
1/2+x,1/2-y,1/2+z
loop_
_atom_site_type_symbol
_atom_site_label
_atom_site_fract_x
_atom_site_fract_y
_atom_site_fract_z
Si Si1 0.651748 0.456296 0.757689
Si Si2 0.500000 0.110634 0.250000
Si Si3 0.217364 0.348540 0.588138
Si Si4 0.261655 0.436706 0.081848
Si Si5 0.500000 0.359780 0.250000
Si Si6 0.500000 0.197744 0.750000
Si Si7 0.865418 0.224737 0.426629
O O1 0.500000 0.470282 0.750000
O O2 0.702966 0.403629 0.878109
O O3 0.652256 0.443913 0.554035
O O4 0.746790 0.507438 0.831290
O O5 0.398787 0.142655 0.321630
O O6 0.607126 0.080563 0.436196
O O7 0.137765 0.335288 0.368525
O O8 0.306082 0.301447 0.716799
O O9 0.363644 0.394911 0.229143
O O10 0.553451 0.321320 0.430753
O O11 0.532131 0.231263 0.594230
O O12 0.750000 0.250000 0.500000
#
# Coordination Sequence:
#
# PCOD9293826 Si02
#       7
#     8   4   8   8   4   4   8
#     4  11  24  43  68 105 144 182 240 293 360 442
#     4  10  22  48  68 104 146 186 242 284 374 436
#     4  11  25  46  70 102 143 188 231 315 360 434
#     4  11  25  42  73 104 144 188 238 292 365 440
#     4  12  24  47  75 104 137 206 233 300 374 422
#     4  12  28  45  71 108 141 188 259 300 372 430
#     4  12  26  48  73 102 144 190 249 309 363 429
#
# _framework density 23.678360999999999
#
# number of rings (size 3 to 8) (size 9 to 14) (size 15 to 20)
#    0.000    0.727    4.545    3.273    1.273    6.545 
#    0.000    0.000    0.000    0.000    0.000    0.000 
#    0.000    0.000    0.000    0.000    0.000    0.000 
#
# Total GULP energy -123113.367967 kJ/mol
# GULP energy per Si atom -5596.062180 kJ/mol
# Density = 2.362447 g / cm^3
# Si number density = 23.678361 Si / 1000 Ang^3
#
#
#
# Elastic Constant Matrix: (Units=GPa)
#
#
# Indices 1 2 3 4 5 6 
#
# 1 50.0282 4.1571 1.1088 0.0000 6.4451 0.0000
# 2 4.1571 127.4035 52.8732 0.0000 25.4483 0.0000
# 3 1.1088 52.8732 100.0411 0.0000 29.6499 0.0000
# 4 0.0000 0.0000 0.0000 54.7061 0.0000 7.1674
# 5 6.4451 25.4483 29.6499 0.0000 42.7124 0.0000
# 6 0.0000 0.0000 0.0000 7.1674 0.0000 32.4409
#
#
#
# Elastic Compliance Matrix: (Units=1/GPa)
#
#
# Indices 1 2 3 4 5 6 
#
# 1 0.020459 -0.000383 0.001036 0.000000 -0.003578 0.000000
# 2 -0.000383 0.010355 -0.004604 0.000000 -0.002915 0.000000
# 3 0.001036 -0.004604 0.014669 0.000000 -0.007596 0.000000
# 4 0.000000 0.000000 0.000000 0.018824 0.000000 -0.004159
# 5 -0.003578 -0.002915 -0.007596 0.000000 0.030962 0.000000
# 6 0.000000 0.000000 0.000000 -0.004159 0.000000 0.031744
#
#
# Mechanical properties :
#
#
# Convention : Reuss Voigt Hill
#
# Bulk Modulus (GPa) = 26.60965 43.75009 35.17987
# Shear Modulus (GPa) = 33.91160 40.59414 37.25287
#
# Velocity S-wave (km/s) = 3.78852 4.14502 3.97077
# Velocity P-wave (km/s) = 5.51357 6.43624 5.99269
#
# Compressibility (1/GPa) = 0.03758036
#
# Stress axis : x y z
#
# Youngs Moduli (GPa) = 48.87933 96.57414 68.17026
#
# Poissons Ratio (x) = 0.03697 -0.07063
# Poissons Ratio (y) = 0.01871 0.31388
# Poissons Ratio (z) = -0.05064 0.44466
#
# Static dielectric constant tensor:
#      x y z
#    x 1.865670 0.000000 0.071500 
#    y 0.000000 1.924720 0.000000 
#    z 0.071500 0.000000 2.098430 
# 
# From -- ./inp_files/32773.got.cif
#   From: 2010.05.17/outbox.cif.g08.bks.cpg/sg15_17_cif.got.tgz:32773.got - 2010.06.03 18:47:42.
