data_PCOD9293859
_publ_section_title
;
Structure prediction by ZEFSAII (Michael W. Deem and Ramdas Pophale) SiO2 
 PCOD9293859
Probable space group: C 2/C
;
_chemical_formula_sum "Si O2"
_cell_formula_units_Z 36
_cell_length_a 7.989089
_cell_length_b 14.857050
_cell_length_c 13.074556
_cell_angle_alpha 90.000000
_cell_angle_beta 52.235969
_cell_angle_gamma 90.000000
_cell_volume 1226.818843
_symmetry_space_group_name_H-M "C 2/C"
_symmetry_group_IT_number 15
_symmetry_cell_setting 'monoclinic'
loop_
_space_group_symop_operation_xyz
x,y,z
-x,y,1/2-z
-x,-y,-z
x,-y,1/2+z
1/2+x,1/2+y,z
1/2-x,1/2+y,1/2-z
1/2-x,1/2-y,-z
1/2+x,1/2-y,1/2+z
loop_
_atom_site_type_symbol
_atom_site_label
_atom_site_fract_x
_atom_site_fract_y
_atom_site_fract_z
Si Si1 0.500000 0.500000 0.000000
Si Si2 0.879164 0.165805 0.560201
Si Si3 0.728692 0.499510 0.123101
Si Si4 0.553609 0.179298 0.899909
Si Si5 0.285127 0.849183 0.766099
O O1 0.358097 0.425644 0.126210
O O2 0.297144 0.500369 0.988937
O O3 0.842344 0.315672 0.411608
O O4 0.009517 0.258084 0.516704
O O5 0.077671 0.115142 0.411568
O O6 0.500000 0.475994 0.250000
O O7 0.883434 0.418980 0.094198
O O8 0.773559 0.593100 0.167345
O O9 0.727754 0.241847 0.775637
O O10 0.500000 0.858291 0.750000
#
# Coordination Sequence:
#
# PCOD9293859 Si02
#       5
#     4   8   8   8   8
#     4  12  26  48  74 112 162 220 260 316 416 470
#     4   9  22  48  72 114 155 201 271 323 398 489
#     4  12  25  47  78 115 160 209 266 333 397 486
#     4   9  22  46  81 109 152 214 258 331 407 472
#     4  10  22  48  76 115 155 199 268 341 394 474
#
# _framework density 29.344187000000002
#
# number of rings (size 3 to 8) (size 9 to 14) (size 15 to 20)
#    1.333    0.444    2.222    0.667    3.111    1.778 
#    0.000   16.667    0.000    0.000    0.000    0.000 
#    0.000    0.000    0.000    0.000    0.000    0.000 
#
# Total GULP energy -100261.825587 kJ/mol
# GULP energy per Si atom -5570.101422 kJ/mol
# Density = 2.927740 g / cm^3
# Si number density = 29.344187 Si / 1000 Ang^3
#
#
#
# Elastic Constant Matrix: (Units=GPa)
#
#
# Indices 1 2 3 4 5 6 
#
# 1 184.6671 52.6754 14.9386 0.0000 23.6127 0.0000
# 2 52.6754 142.6009 -1.8337 0.0000 65.3267 0.0000
# 3 14.9386 -1.8337 90.8991 0.0000 18.8786 0.0000
# 4 0.0000 0.0000 0.0000 9.2022 0.0000 -8.8516
# 5 23.6127 65.3267 18.8786 0.0000 52.3162 0.0000
# 6 0.0000 0.0000 0.0000 -8.8516 0.0000 68.7466
#
#
#
# Elastic Compliance Matrix: (Units=1/GPa)
#
#
# Indices 1 2 3 4 5 6 
#
# 1 0.006185 -0.002913 -0.001352 0.000000 0.001334 0.000000
# 2 -0.002913 0.020116 0.006301 0.000000 -0.026077 0.000000
# 3 -0.001352 0.006301 0.013899 0.000000 -0.012273 0.000000
# 4 0.000000 0.000000 0.000000 0.124032 0.000000 0.015970
# 5 0.001334 -0.026077 -0.012273 0.000000 0.055504 0.000000
# 6 0.000000 0.000000 0.000000 0.015970 0.000000 0.016602
#
#
# Mechanical properties :
#
#
# Convention : Reuss Voigt Hill
#
# Bulk Modulus (GPa) = 22.58852 61.08084 41.83468
# Shear Modulus (GPa) = 20.24086 49.54544 34.89315
#
# Velocity S-wave (km/s) = 2.62920 4.11350 3.45207
# Velocity P-wave (km/s) = 4.11478 6.58951 5.49332
#
# Compressibility (1/GPa) = 0.04427028
#
# Stress axis : x y z
#
# Youngs Moduli (GPa) = 161.68310 49.71173 71.94525
#
# Poissons Ratio (x) = 0.14482 0.09729
# Poissons Ratio (y) = 0.47102 -0.45329
# Poissons Ratio (z) = 0.21865 -0.31321
#
# Static dielectric constant tensor:
#      x y z
#    x 2.291560 0.000000 -0.012240 
#    y 0.000000 3.602790 0.000000 
#    z -0.012240 0.000000 3.229140 
# 
# From -- ./inp_files/133515.got.cif
#   From: 2010.05.17/outbox.cif.g08.bks.cpg/sg15_67_cif.got.tgz:133515.got - 2010.06.03 18:47:42.
