data_PCOD9293807
_publ_section_title
;
Structure prediction by ZEFSAII (Michael W. Deem and Ramdas Pophale) SiO2 
 PCOD9293807
Probable space group: C 2/C
;
_chemical_formula_sum "Si O2"
_cell_formula_units_Z 36
_cell_length_a 25.242829
_cell_length_b 10.678322
_cell_length_c 11.586226
_cell_angle_alpha 90.000000
_cell_angle_beta 153.398367
_cell_angle_gamma 90.000000
_cell_volume 1398.466798
_symmetry_space_group_name_H-M "C 2/C"
_symmetry_group_IT_number 15
_symmetry_cell_setting 'monoclinic'
loop_
_space_group_symop_operation_xyz
x,y,z
-x,y,1/2-z
-x,-y,-z
x,-y,1/2+z
1/2+x,1/2+y,z
1/2-x,1/2+y,1/2-z
1/2-x,1/2-y,-z
1/2+x,1/2-y,1/2+z
loop_
_atom_site_type_symbol
_atom_site_label
_atom_site_fract_x
_atom_site_fract_y
_atom_site_fract_z
Si Si1 0.000000 0.237854 0.750000
Si Si2 0.204053 0.950452 0.742509
Si Si3 0.502251 0.359729 0.882092
Si Si4 0.438959 0.133489 0.357391
Si Si5 0.261073 0.502270 0.943924
O O1 0.057089 0.326696 0.766128
O O2 0.891796 0.153344 0.487697
O O3 0.264625 0.917327 0.984797
O O4 0.124156 0.067113 0.627086
O O5 0.273377 0.998037 0.762288
O O6 0.500000 0.304861 0.750000
O O7 0.398145 0.460915 0.693831
O O8 0.494253 0.247465 0.952908
O O9 0.500000 0.000000 0.500000
O O10 0.307634 0.122222 0.152753
#
# Coordination Sequence:
#
# PCOD9293807 Si02
#       5
#     4   8   8   8   8
#     4  12  24  48  76 104 154 190 256 330 378 462
#     4  11  22  46  78 113 139 191 260 323 381 459
#     4  10  22  47  76 107 148 192 260 321 378 470
#     4  12  30  46  69 110 161 203 253 323 392 464
#     4  11  24  45  75 109 140 200 255 307 396 452
#
# _framework density 25.742477999999998
#
# number of rings (size 3 to 8) (size 9 to 14) (size 15 to 20)
#    0.000    0.889    5.556    2.000    4.667    4.444 
#    4.000    0.000    0.000    0.000    0.000    0.000 
#    0.000    0.000    0.000    0.000    0.000    0.000 
#
# Total GULP energy -100240.888682 kJ/mol
# GULP energy per Si atom -5568.938260 kJ/mol
# Density = 2.568389 g / cm^3
# Si number density = 25.742478 Si / 1000 Ang^3
#
#
#
# Elastic Constant Matrix: (Units=GPa)
#
#
# Indices 1 2 3 4 5 6 
#
# 1 234.3838 44.7389 47.0733 0.0000 -40.1071 0.0000
# 2 44.7389 119.4156 35.3715 0.0000 -2.3333 0.0000
# 3 47.0733 35.3715 76.2307 0.0000 3.8854 0.0000
# 4 0.0000 0.0000 0.0000 -2.3990 0.0000 3.8460
# 5 -40.1071 -2.3333 3.8854 0.0000 29.7352 0.0000
# 6 0.0000 0.0000 0.0000 3.8460 0.0000 36.7183
#
#
#
# Elastic Compliance Matrix: (Units=1/GPa)
#
#
# Indices 1 2 3 4 5 6 
#
# 1 0.007075 -0.001170 -0.004336 0.000000 0.010018 0.000000
# 2 -0.001170 0.009957 -0.003883 0.000000 -0.000290 0.000000
# 3 -0.004336 -0.003883 0.018031 0.000000 -0.008510 0.000000
# 4 0.000000 0.000000 0.000000 -0.356911 0.000000 0.037384
# 5 0.010018 -0.000290 -0.008510 0.000000 0.048231 0.000000
# 6 0.000000 0.000000 0.000000 0.037384 0.000000 0.023319
#
#
# Mechanical properties :
#
#
# Convention : Reuss Voigt Hill
#
# Bulk Modulus (GPa) = 61.40877 76.04419 68.72648
# Shear Modulus (GPa) = -22.11498 33.00065 5.44283
#
# Velocity S-wave (km/s) = -2.93420 3.58432 1.45565
# Velocity P-wave (km/s) = 3.52526 6.83625 5.43883
#
# Compressibility (1/GPa) = 0.01628432
#
# Stress axis : x y z
#
# Youngs Moduli (GPa) = 141.34197 100.43201 55.45959
#
# Poissons Ratio (x) = 0.11755 0.24050
# Poissons Ratio (y) = 0.16543 0.21533
# Poissons Ratio (z) = 0.61292 0.38993
#
# Static dielectric constant tensor:
#      x y z
#    x 2.165160 0.000000 -0.112730 
#    y 0.000000 1.977480 0.000000 
#    z -0.112730 0.000000 2.189500 
# 
# From -- ./inp_files/118166.got.cif
#   From: 2010.05.17/outbox.cif.g08.bks.cpg/sg15_60_cif.got.tgz:118166.got - 2010.06.03 18:47:42.
