data_PCOD9293998
_publ_section_title
;
Structure prediction by ZEFSAII (Michael W. Deem and Ramdas Pophale) SiO2 
 PCOD9293998
Probable space group: C 2/C
;
_chemical_formula_sum "Si O2"
_cell_formula_units_Z 56
_cell_length_a 20.733545
_cell_length_b 11.135100
_cell_length_c 12.580662
_cell_angle_alpha 90.000000
_cell_angle_beta 67.085225
_cell_angle_gamma 90.000000
_cell_volume 2675.290233
_symmetry_space_group_name_H-M "C 2/C"
_symmetry_group_IT_number 15
_symmetry_cell_setting 'monoclinic'
loop_
_space_group_symop_operation_xyz
x,y,z
-x,y,1/2-z
-x,-y,-z
x,-y,1/2+z
1/2+x,1/2+y,z
1/2-x,1/2+y,1/2-z
1/2-x,1/2-y,-z
1/2+x,1/2-y,1/2+z
loop_
_atom_site_type_symbol
_atom_site_label
_atom_site_fract_x
_atom_site_fract_y
_atom_site_fract_z
Si Si1 0.039927 0.091083 0.826885
Si Si2 0.815688 0.776639 0.765699
Si Si3 0.084348 0.885509 0.960092
Si Si4 0.922131 0.338332 0.749830
Si Si5 0.153309 0.684272 0.407197
Si Si6 0.161878 0.076582 0.033757
Si Si7 0.822914 0.460022 0.395630
O O1 0.090203 0.194142 0.747885
O O2 0.000000 0.041627 0.750000
O O3 0.067156 0.981719 0.878567
O O4 0.986812 0.162279 0.941495
O O5 0.859934 0.799405 0.631180
O O6 0.732285 0.802812 0.807358
O O7 0.831182 0.643072 0.799866
O O8 0.837988 0.865629 0.849068
O O9 0.115152 0.964651 0.035225
O O10 0.902957 0.365671 0.639448
O O11 0.866781 0.420574 0.847107
O O12 0.000000 0.356202 0.750000
O O13 0.141096 0.816149 0.465884
O O14 0.155335 0.597918 0.506827
O O15 0.239582 0.030222 0.957912
#
# Coordination Sequence:
#
# PCOD9293998 Si02
#       7
#     8   8   8   8   8   8   8
#     4  10  23  38  54  81 118 156 196 238 295 351
#     4   9  19  35  62  92 112 140 203 252 287 359
#     4  11  19  36  62  85 109 157 191 250 302 336
#     4  11  22  40  57  81 124 163 195 233 288 362
#     4   9  18  38  62  84 116 153 192 246 298 338
#     4   9  17  35  65  87 115 144 194 255 297 340
#     4   9  20  38  58  89 114 156 195 239 298 348
#
# _framework density 20.932309
#
# number of rings (size 3 to 8) (size 9 to 14) (size 15 to 20)
#    0.000    2.286    1.429    3.429    0.000    0.571 
#    7.714    0.000    0.000    8.571    0.000    0.000 
#    0.000    0.000    0.000    0.000    0.000    0.000 
#
# Total GULP energy -155983.566513 kJ/mol
# GULP energy per Si atom -5570.841661 kJ/mol
# Density = 2.088467 g / cm^3
# Si number density = 20.932309 Si / 1000 Ang^3
#
#
#
# Elastic Constant Matrix: (Units=GPa)
#
#
# Indices 1 2 3 4 5 6 
#
# 1 79.4070 29.8190 42.4721 0.0000 15.7369 0.0000
# 2 29.8190 56.6719 39.9585 0.0000 -6.5327 0.0000
# 3 42.4721 39.9585 87.6058 0.0000 -17.4973 0.0000
# 4 0.0000 0.0000 0.0000 15.5692 0.0000 -6.5230
# 5 15.7369 -6.5327 -17.4973 0.0000 27.1682 0.0000
# 6 0.0000 0.0000 0.0000 -6.5230 0.0000 24.2053
#
#
#
# Elastic Compliance Matrix: (Units=1/GPa)
#
#
# Indices 1 2 3 4 5 6 
#
# 1 0.031306 -0.007317 -0.018148 0.000000 -0.031581 0.000000
# 2 -0.007317 0.027781 -0.007968 0.000000 0.005787 0.000000
# 3 -0.018148 -0.007968 0.029338 0.000000 0.027491 0.000000
# 4 0.000000 0.000000 0.000000 0.072404 0.000000 0.019512
# 5 -0.031581 0.005787 0.027491 0.000000 0.074197 0.000000
# 6 0.000000 0.000000 0.000000 0.019512 0.000000 0.046571
#
#
# Mechanical properties :
#
#
# Convention : Reuss Voigt Hill
#
# Bulk Modulus (GPa) = 46.38416 49.79821 48.09118
# Shear Modulus (GPa) = 14.05875 20.81756 17.43816
#
# Velocity S-wave (km/s) = 2.59439 3.15702 2.88943
# Velocity P-wave (km/s) = 5.58406 6.09350 5.84434
#
# Compressibility (1/GPa) = 0.02155908
#
# Stress axis : x y z
#
# Youngs Moduli (GPa) = 31.94226 35.99624 34.08549
#
# Poissons Ratio (x) = 0.26339 0.61858
# Poissons Ratio (y) = 0.23373 0.27160
# Poissons Ratio (z) = 0.57968 0.28682
#
# Static dielectric constant tensor:
#      x y z
#    x 1.859140 0.000000 -0.009020 
#    y 0.000000 1.749820 0.000000 
#    z -0.009020 0.000000 1.775640 
# 
# From -- ./inp_files/111555.got.cif
#   From: 2010.05.17/outbox.cif.g08.bks.cpg/sg15_56_cif.got.tgz:111555.got - 2010.06.03 18:47:42.
