data_PCOD9293604
_publ_section_title
;
Structure prediction by ZEFSAII (Michael W. Deem and Ramdas Pophale) SiO2 
 PCOD9293604
Probable space group: C 2/C
;
_chemical_formula_sum "Si O2"
_cell_formula_units_Z 36
_cell_length_a 7.713390
_cell_length_b 10.770559
_cell_length_c 22.139093
_cell_angle_alpha 90.000000
_cell_angle_beta 122.289819
_cell_angle_gamma 90.000000
_cell_volume 1554.831728
_symmetry_space_group_name_H-M "C 2/C"
_symmetry_group_IT_number 15
_symmetry_cell_setting 'monoclinic'
loop_
_space_group_symop_operation_xyz
x,y,z
-x,y,1/2-z
-x,-y,-z
x,-y,1/2+z
1/2+x,1/2+y,z
1/2-x,1/2+y,1/2-z
1/2-x,1/2-y,-z
1/2+x,1/2-y,1/2+z
loop_
_atom_site_type_symbol
_atom_site_label
_atom_site_fract_x
_atom_site_fract_y
_atom_site_fract_z
Si Si1 0.000000 0.605995 0.750000
Si Si2 0.737987 0.903070 0.868947
Si Si3 0.804032 0.155113 0.066233
Si Si4 0.816416 0.103156 0.519883
Si Si5 0.618667 0.267229 0.153629
O O1 0.897224 0.515295 0.682424
O O2 0.806960 0.691877 0.730431
O O3 0.562950 0.798015 0.844032
O O4 0.948560 0.851783 0.879002
O O5 0.817851 0.934084 0.950774
O O6 0.705586 0.190657 0.112272
O O7 0.719830 0.019027 0.032436
O O8 0.750000 0.250000 0.000000
O O9 0.750000 0.250000 0.500000
O O10 0.012507 0.118651 0.599215
#
# Coordination Sequence:
#
# PCOD9293604 Si02
#       5
#     4   8   8   8   8
#     4  12  26  48  68  98 156 192 240 300 362 440
#     4  11  25  47  70 102 146 189 238 303 361 430
#     4  12  23  44  80 108 140 192 238 303 377 423
#     4  10  22  46  70 106 143 179 240 303 353 428
#     4  11  26  46  69 105 144 188 247 299 356 441
#
# _framework density 23.153631000000001
#
# number of rings (size 3 to 8) (size 9 to 14) (size 15 to 20)
#    0.000    0.889    4.444    2.000    3.111    3.556 
#    8.000    2.222    0.000    0.000    0.000    0.000 
#    0.000    0.000    0.000    0.000    0.000    0.000 
#
# Total GULP energy -100201.213718 kJ/mol
# GULP energy per Si atom -5566.734095 kJ/mol
# Density = 2.310093 g / cm^3
# Si number density = 23.153631 Si / 1000 Ang^3
#
#
#
# Elastic Constant Matrix: (Units=GPa)
#
#
# Indices 1 2 3 4 5 6 
#
# 1 126.8869 43.8141 23.7225 0.0000 33.9832 0.0000
# 2 43.8141 143.1844 43.7444 0.0000 12.0958 0.0000
# 3 23.7225 43.7444 102.8612 0.0000 38.9368 0.0000
# 4 0.0000 0.0000 0.0000 59.3760 0.0000 6.4631
# 5 33.9832 12.0958 38.9368 0.0000 49.6341 0.0000
# 6 0.0000 0.0000 0.0000 6.4631 0.0000 26.0398
#
#
#
# Elastic Compliance Matrix: (Units=1/GPa)
#
#
# Indices 1 2 3 4 5 6 
#
# 1 0.010810 -0.003219 0.001964 0.000000 -0.008157 0.000000
# 2 -0.003219 0.009022 -0.004404 0.000000 0.003460 0.000000
# 3 0.001964 -0.004404 0.015994 0.000000 -0.012818 0.000000
# 4 0.000000 0.000000 0.000000 0.017309 0.000000 -0.004296
# 5 -0.008157 0.003460 -0.012818 0.000000 0.034945 0.000000
# 6 0.000000 0.000000 0.000000 -0.004296 0.000000 0.039469
#
#
# Mechanical properties :
#
#
# Convention : Reuss Voigt Hill
#
# Bulk Modulus (GPa) = 40.80377 66.16605 53.48491
# Shear Modulus (GPa) = 34.00481 44.45341 39.22911
#
# Velocity S-wave (km/s) = 3.83647 4.38646 4.12065
# Velocity P-wave (km/s) = 6.10622 7.36842 6.76682
#
# Compressibility (1/GPa) = 0.02450754
#
# Stress axis : x y z
#
# Youngs Moduli (GPa) = 92.50649 110.83777 62.52251
#
# Poissons Ratio (x) = 0.35675 -0.12277
# Poissons Ratio (y) = 0.29775 0.27538
# Poissons Ratio (z) = -0.18165 0.48818
#
# Static dielectric constant tensor:
#      x y z
#    x 1.991000 0.000000 0.041020 
#    y 0.000000 1.752010 0.000000 
#    z 0.041020 0.000000 1.838760 
# 
# From -- ./inp_files/187592.got.cif
#   From: 2010.05.17/outbox.cif.g08.bks.cpg/sg15_94_cif.got.tgz:187592.got - 2010.06.03 18:47:42.
