data_PCOD9293890
_publ_section_title
;
Structure prediction by ZEFSAII (Michael W. Deem and Ramdas Pophale) SiO2 
 PCOD9293890
Probable space group: C 2/C
;
_chemical_formula_sum "Si O2"
_cell_formula_units_Z 36
_cell_length_a 17.887152
_cell_length_b 9.087440
_cell_length_c 10.453795
_cell_angle_alpha 90.000000
_cell_angle_beta 54.684039
_cell_angle_gamma 90.000000
_cell_volume 1386.546468
_symmetry_space_group_name_H-M "C 2/C"
_symmetry_group_IT_number 15
_symmetry_cell_setting 'monoclinic'
loop_
_space_group_symop_operation_xyz
x,y,z
-x,y,1/2-z
-x,-y,-z
x,-y,1/2+z
1/2+x,1/2+y,z
1/2-x,1/2+y,1/2-z
1/2-x,1/2-y,-z
1/2+x,1/2-y,1/2+z
loop_
_atom_site_type_symbol
_atom_site_label
_atom_site_fract_x
_atom_site_fract_y
_atom_site_fract_z
Si Si1 0.750000 0.250000 0.000000
Si Si2 0.000000 0.194414 0.750000
Si Si3 0.000000 0.690913 0.750000
Si Si4 0.357888 0.562959 0.442829
Si Si5 0.247025 0.486976 0.312586
Si Si6 0.094102 0.427438 0.797373
O O1 0.748227 0.180818 0.859047
O O2 0.829473 0.372401 0.879451
O O3 0.019080 0.299426 0.852057
O O4 0.086674 0.088444 0.643145
O O5 0.072625 0.803327 0.615509
O O6 0.051600 0.581564 0.795302
O O7 0.295347 0.580062 0.378035
O O8 0.306162 0.525011 0.624034
O O9 0.147626 0.547020 0.375022
#
# Coordination Sequence:
#
# PCOD9293890 Si02
#       6
#     4   4   4   8   8   8
#     4  12  26  52  78 118 154 208 256 328 380 464
#     4  10  22  50  78 118 160 206 246 328 398 452
#     4  10  28  46  72 128 156 196 266 328 380 458
#     4  11  26  51  79 113 159 206 254 321 393 460
#     4  12  26  50  83 107 155 211 261 311 387 469
#     4  11  24  50  79 114 156 204 263 318 383 460
#
# _framework density 25.963787
#
# number of rings (size 3 to 8) (size 9 to 14) (size 15 to 20)
#    0.000    0.889    4.444    0.000    3.111    6.222 
#    8.000    3.333    0.000    0.000    0.000    0.000 
#    0.000    0.000    0.000    0.000    0.000    0.000 
#
# Total GULP energy -100404.267332 kJ/mol
# GULP energy per Si atom -5578.014852 kJ/mol
# Density = 2.590469 g / cm^3
# Si number density = 25.963787 Si / 1000 Ang^3
#
#
#
# Elastic Constant Matrix: (Units=GPa)
#
#
# Indices 1 2 3 4 5 6 
#
# 1 156.3151 74.2251 55.3680 0.0000 23.8153 0.0000
# 2 74.2251 178.2376 37.0692 0.0000 -0.1861 0.0000
# 3 55.3680 37.0692 115.2588 0.0000 16.4037 0.0000
# 4 0.0000 0.0000 0.0000 -2.5945 0.0000 -19.1627
# 5 23.8153 -0.1861 16.4037 0.0000 25.8940 0.0000
# 6 0.0000 0.0000 0.0000 -19.1627 0.0000 46.9417
#
#
#
# Elastic Compliance Matrix: (Units=1/GPa)
#
#
# Indices 1 2 3 4 5 6 
#
# 1 0.010304 -0.003753 -0.002627 0.000000 -0.007840 0.000000
# 2 -0.003753 0.007426 -0.001192 0.000000 0.004260 0.000000
# 3 -0.002627 -0.001192 0.010968 0.000000 -0.004540 0.000000
# 4 0.000000 0.000000 0.000000 -0.095995 0.000000 -0.039188
# 5 -0.007840 0.004260 -0.004540 0.000000 0.048736 0.000000
# 6 0.000000 0.000000 0.000000 -0.039188 0.000000 0.005306
#
#
# Mechanical properties :
#
#
# Convention : Reuss Voigt Hill
#
# Bulk Modulus (GPa) = 73.77902 87.01511 80.39706
# Shear Modulus (GPa) = 780.51087 32.92486 406.71787
#
# Velocity S-wave (km/s) = 17.35707 3.56491 12.52949
# Velocity P-wave (km/s) = 20.74050 7.10856 15.50322
#
# Compressibility (1/GPa) = 0.01355399
#
# Stress axis : x y z
#
# Youngs Moduli (GPa) = 97.04567 134.66842 91.17754
#
# Poissons Ratio (x) = 0.50540 0.23955
# Poissons Ratio (y) = 0.36421 0.10865
# Poissons Ratio (z) = 0.25496 0.16048
#
# Static dielectric constant tensor:
#      x y z
#    x 2.321330 0.000000 -0.282320 
#    y 0.000000 2.232470 0.000000 
#    z -0.282320 0.000000 2.226020 
# 
# From -- ./inp_files/109529.got.cif
#   From: 2010.05.17/outbox.cif.g08.bks.cpg/sg15_55_cif.got.tgz:109529.got - 2010.06.03 18:47:42.
