data_PCOD9293946
_publ_section_title
;
Structure prediction by ZEFSAII (Michael W. Deem and Ramdas Pophale) SiO2 
 PCOD9293946
Probable space group: C 2/C
;
_chemical_formula_sum "Si O2"
_cell_formula_units_Z 48
_cell_length_a 20.091475
_cell_length_b 8.767713
_cell_length_c 22.016782
_cell_angle_alpha 90.000000
_cell_angle_beta 27.215351
_cell_angle_gamma 90.000000
_cell_volume 1773.730261
_symmetry_space_group_name_H-M "C 2/C"
_symmetry_group_IT_number 15
_symmetry_cell_setting 'monoclinic'
loop_
_space_group_symop_operation_xyz
x,y,z
-x,y,1/2-z
-x,-y,-z
x,-y,1/2+z
1/2+x,1/2+y,z
1/2-x,1/2+y,1/2-z
1/2-x,1/2-y,-z
1/2+x,1/2-y,1/2+z
loop_
_atom_site_type_symbol
_atom_site_label
_atom_site_fract_x
_atom_site_fract_y
_atom_site_fract_z
Si Si1 0.153773 0.653567 0.147125
Si Si2 0.101743 0.070834 0.264478
Si Si3 0.757692 0.205097 0.241339
Si Si4 0.264469 0.085429 0.022509
Si Si5 0.568000 0.903951 0.314543
Si Si6 0.562370 0.673535 0.525456
O O1 0.300385 0.741082 0.048464
O O2 0.197429 0.535700 0.059480
O O3 0.118704 0.544328 0.233283
O O4 0.000000 0.721744 0.250000
O O5 0.225395 0.089788 0.215898
O O6 0.072667 0.247718 0.272567
O O7 0.981159 0.976231 0.399523
O O8 0.139860 0.018472 0.166826
O O9 0.591019 0.237798 0.357920
O O10 0.132264 0.845108 0.901766
O O11 0.397186 0.089477 0.963352
O O12 0.250000 0.250000 0.000000
O O13 0.669388 0.858854 0.288531
#
# Coordination Sequence:
#
# PCOD9293946 Si02
#       6
#     8   8   8   8   8   8
#     4  10  23  40  69 101 140 183 225 288 358 415
#     4  10  23  36  72 103 137 185 219 289 368 415
#     4  10  25  42  70 102 136 184 238 284 348 415
#     4  11  18  37  62 105 148 169 229 285 353 431
#     4   9  21  34  63 109 135 172 219 282 359 417
#     4  12  25  48  70  98 144 188 234 292 346 418
#
# _framework density 27.061612
#
# number of rings (size 3 to 8) (size 9 to 14) (size 15 to 20)
#    1.000    0.667    1.667    2.500    4.667    2.000 
#    6.000    2.500    0.000    0.000    0.000    0.000 
#    0.000    0.000    0.000    0.000    0.000    0.000 
#
# Total GULP energy -133923.656000 kJ/mol
# GULP energy per Si atom -5580.152333 kJ/mol
# Density = 2.700002 g / cm^3
# Si number density = 27.061612 Si / 1000 Ang^3
#
#
#
# Elastic Constant Matrix: (Units=GPa)
#
#
# Indices 1 2 3 4 5 6 
#
# 1 201.1951 68.0270 113.1114 -0.0003 -44.2249 0.0008
# 2 68.0270 78.4730 54.3792 -0.0006 -3.1584 0.0015
# 3 113.1114 54.3792 192.9633 -0.0008 22.3574 0.0020
# 4 -0.0003 -0.0006 -0.0008 -54.1447 0.0002 146.4545
# 5 -44.2249 -3.1584 22.3574 0.0002 65.1413 -0.0007
# 6 0.0008 0.0015 0.0020 146.4545 -0.0007 -268.6216
#
#
#
# Elastic Compliance Matrix: (Units=1/GPa)
#
#
# Indices 1 2 3 4 5 6 
#
# 1 0.014264 -0.006351 -0.007975 0.000000 0.012113 0.000000
# 2 -0.006351 0.019031 -0.001299 0.000000 -0.002943 0.000000
# 3 -0.007975 -0.001299 0.011307 0.000000 -0.009358 0.000000
# 4 0.000000 0.000000 0.000000 0.038905 0.000000 0.021211
# 5 0.012113 -0.002943 -0.009358 0.000000 0.026644 0.000000
# 6 0.000000 0.000000 0.000000 0.021211 0.000000 0.007842
#
#
# Mechanical properties :
#
#
# Convention : Reuss Voigt Hill
#
# Bulk Modulus (GPa) = 74.89667 104.85183 89.87425
# Shear Modulus (GPa) = 32.53245 -35.71741 -1.59248
#
# Velocity S-wave (km/s) = 3.47098 -3.63692 -0.76795
# Velocity P-wave (km/s) = 6.61816 4.60363 5.70059
#
# Compressibility (1/GPa) = 0.01335173
#
# Stress axis : x y z
#
# Youngs Moduli (GPa) = 70.10894 52.54645 88.43924
#
# Poissons Ratio (x) = 0.33373 0.70527
# Poissons Ratio (y) = 0.44528 0.11489
# Poissons Ratio (z) = 0.55909 0.06826
#
# Static dielectric constant tensor:
#      x y z
#    x 2.143030 0.000000 -0.081910 
#    y 0.000000 2.221360 0.000000 
#    z -0.081910 0.000000 2.187860 
# 
# From -- ./inp_files/248459.got.cif
#   From: 2010.05.17/outbox.cif.g08.bks.cpg/sg15_125_cif.got.tgz:248459.got - 2010.06.03 18:47:42.
