data_PCOD9293599
_publ_section_title
;
Structure prediction by ZEFSAII (Michael W. Deem and Ramdas Pophale) SiO2 
 PCOD9293599
Probable space group: C 2/C
;
_chemical_formula_sum "Si O2"
_cell_formula_units_Z 48
_cell_length_a 28.960083
_cell_length_b 9.931775
_cell_length_c 23.442182
_cell_angle_alpha 90.000000
_cell_angle_beta 17.932945
_cell_angle_gamma 90.000000
_cell_volume 2076.058856
_symmetry_space_group_name_H-M "C 2/C"
_symmetry_group_IT_number 15
_symmetry_cell_setting 'monoclinic'
loop_
_space_group_symop_operation_xyz
x,y,z
-x,y,1/2-z
-x,-y,-z
x,-y,1/2+z
1/2+x,1/2+y,z
1/2-x,1/2+y,1/2-z
1/2-x,1/2-y,-z
1/2+x,1/2-y,1/2+z
loop_
_atom_site_type_symbol
_atom_site_label
_atom_site_fract_x
_atom_site_fract_y
_atom_site_fract_z
Si Si1 0.327777 0.500127 0.344434
Si Si2 0.033994 0.438278 0.083067
Si Si3 0.000000 0.956170 0.250000
Si Si4 0.768179 0.938364 0.614747
Si Si5 0.192198 0.150796 0.736346
Si Si6 0.000000 0.455806 0.250000
Si Si7 0.549319 0.349193 0.522044
O O1 0.405264 0.531590 0.313320
O O2 0.377629 0.377321 0.244623
O O3 0.157565 0.468800 0.561041
O O4 0.377916 0.622742 0.244233
O O5 0.883214 0.499953 0.233546
O O6 0.000929 0.387854 0.186891
O O7 0.084195 0.306132 0.991099
O O8 0.162532 0.552979 0.931313
O O9 0.876617 0.888128 0.435526
O O10 0.734935 0.806113 0.689684
O O11 0.850232 0.053006 0.555978
O O12 0.083560 0.120301 0.916387
#
# Coordination Sequence:
#
# PCOD9293599 Si02
#       7
#     8   8   4   8   8   4   8
#     4  10  23  44  74 102 137 186 230 300 350 418
#     4  11  26  46  72 104 141 188 230 299 352 413
#     4  10  22  46  70 104 140 180 238 290 356 422
#     4  11  26  46  72 104 141 188 230 299 352 413
#     4  11  26  46  70 103 140 186 240 285 349 421
#     4  10  22  46  70 104 140 180 238 290 356 422
#     4  11  26  46  70 103 140 186 240 285 349 421
#
# _framework density 23.120730999999999
#
# number of rings (size 3 to 8) (size 9 to 14) (size 15 to 20)
#    0.000    1.333    1.667    1.500    9.333    9.333 
#    0.000    0.000    0.000    0.000    0.000    0.000 
#    0.000    0.000    0.000    0.000    0.000    0.000 
#
# Total GULP energy -133791.281501 kJ/mol
# GULP energy per Si atom -5574.636729 kJ/mol
# Density = 2.306811 g / cm^3
# Si number density = 23.120731 Si / 1000 Ang^3
#
#
#
# Elastic Constant Matrix: (Units=GPa)
#
#
# Indices 1 2 3 4 5 6 
#
# 1 106.4597 41.6775 88.9743 0.0001 19.0965 0.0003
# 2 41.6775 123.0530 40.6954 -0.0001 -7.3096 0.0003
# 3 88.9743 40.6954 113.1804 -0.0009 25.6295 0.0006
# 4 0.0001 -0.0001 -0.0009 28.6264 0.0002 19.5454
# 5 19.0965 -7.3096 25.6295 0.0002 54.9973 -0.0004
# 6 0.0003 0.0003 0.0006 19.5454 -0.0004 25.8616
#
#
#
# Elastic Compliance Matrix: (Units=1/GPa)
#
#
# Indices 1 2 3 4 5 6 
#
# 1 0.028054 -0.002545 -0.021081 -0.000002 -0.000255 0.000002
# 2 -0.002545 0.009952 -0.002322 0.000000 0.003289 0.000000
# 3 -0.021081 -0.002322 0.027564 0.000003 -0.005834 -0.000002
# 4 -0.000002 0.000000 0.000003 0.072178 -0.000001 -0.054550
# 5 -0.000255 0.003289 -0.005834 -0.000001 0.021427 0.000001
# 6 0.000002 0.000000 -0.000002 -0.054550 0.000001 0.079894
#
#
# Mechanical properties :
#
#
# Convention : Reuss Voigt Hill
#
# Bulk Modulus (GPa) = 73.13698 76.15415 74.64556
# Shear Modulus (GPa) = 16.91907 33.32013 25.11960
#
# Velocity S-wave (km/s) = 2.70806 3.80035 3.29972
# Velocity P-wave (km/s) = 6.44045 7.22952 6.84636
#
# Compressibility (1/GPa) = 0.01367297
#
# Stress axis : x y z
#
# Youngs Moduli (GPa) = 35.64537 100.48273 36.27911
#
# Poissons Ratio (x) = 0.25574 0.76481
# Poissons Ratio (y) = 0.09072 0.08425
# Poissons Ratio (z) = 0.75145 0.23335
#
# Static dielectric constant tensor:
#      x y z
#    x 1.918830 0.000000 -0.080310 
#    y 0.000000 1.843100 0.000000 
#    z -0.080310 0.000000 1.907120 
# 
# From -- ./inp_files/257619.got.cif
#   From: 2010.05.17/outbox.cif.g08.bks.cpg/sg15_129_cif.got.tgz:257619.got - 2010.06.03 18:47:42.
