data_PCOD9293056
_publ_section_title
;
Structure prediction by ZEFSAII (Michael W. Deem and Ramdas Pophale) SiO2 
 PCOD9293056
Probable space group: C 2/C
;
_chemical_formula_sum "Si O2"
_cell_formula_units_Z 48
_cell_length_a 26.415064
_cell_length_b 12.606103
_cell_length_c 22.019799
_cell_angle_alpha 90.000000
_cell_angle_beta 17.135902
_cell_angle_gamma 90.000000
_cell_volume 2160.410895
_symmetry_space_group_name_H-M "C 2/C"
_symmetry_group_IT_number 15
_symmetry_cell_setting 'monoclinic'
loop_
_space_group_symop_operation_xyz
x,y,z
-x,y,1/2-z
-x,-y,-z
x,-y,1/2+z
1/2+x,1/2+y,z
1/2-x,1/2+y,1/2-z
1/2-x,1/2-y,-z
1/2+x,1/2-y,1/2+z
loop_
_atom_site_type_symbol
_atom_site_label
_atom_site_fract_x
_atom_site_fract_y
_atom_site_fract_z
Si Si1 0.648395 0.499970 0.203190
Si Si2 0.181389 0.377581 0.182481
Si Si3 0.789905 0.803164 0.286380
Si Si4 0.442487 0.696827 0.481193
Si Si5 0.409186 0.877567 0.726924
Si Si6 0.500000 0.064992 0.250000
Si Si7 0.000000 0.935091 0.750000
O O1 0.624680 0.396643 0.271636
O O2 0.582684 0.603337 0.313600
O O3 0.543476 0.498349 0.260261
O O4 0.849013 0.501561 0.954717
O O5 0.021808 0.299885 0.358281
O O6 0.127156 0.500003 0.245652
O O7 0.275901 0.343523 0.136079
O O8 0.329932 0.368727 0.961097
O O9 0.599917 0.843520 0.488075
O O10 0.782043 0.700106 0.337832
O O11 0.894160 0.781887 0.105821
O O12 0.412031 0.868660 0.796919
#
# Coordination Sequence:
#
# PCOD9293056 Si02
#       7
#     8   8   8   8   8   4   4
#     4  10  23  42  68 100 137 178 234 290 342 418
#     4  11  26  47  71 106 141 184 234 295 345 419
#     4  11  26  44  70 102 140 189 234 285 353 412
#     4  11  26  44  70 102 140 189 234 285 353 412
#     4  11  26  47  71 106 141 184 234 295 345 419
#     4  10  22  44  72 104 138 178 234 286 364 410
#     4  10  22  44  72 104 138 178 234 286 364 410
#
# _framework density 22.217994000000001
#
# number of rings (size 3 to 8) (size 9 to 14) (size 15 to 20)
#    0.000    1.333    1.667    1.500    9.333    9.333 
#    0.000    0.000    0.000    0.000    0.000    0.000 
#    0.000    0.000    0.000    0.000    0.000    0.000 
#
# Total GULP energy -134222.721758 kJ/mol
# GULP energy per Si atom -5592.613407 kJ/mol
# Density = 2.216743 g / cm^3
# Si number density = 22.217994 Si / 1000 Ang^3
#
#
#
# Elastic Constant Matrix: (Units=GPa)
#
#
# Indices 1 2 3 4 5 6 
#
# 1 102.1585 35.2087 26.4558 0.0015 3.5089 0.0000
# 2 35.2087 131.5665 35.4451 0.0037 1.2449 0.0057
# 3 26.4558 35.4451 102.9078 -0.0096 1.5411 -0.0038
# 4 0.0015 0.0037 -0.0096 37.5872 0.0031 3.3131
# 5 3.5089 1.2449 1.5411 0.0031 23.6280 0.0036
# 6 0.0000 0.0057 -0.0038 3.3131 0.0036 37.1436
#
#
#
# Elastic Compliance Matrix: (Units=1/GPa)
#
#
# Indices 1 2 3 4 5 6 
#
# 1 0.011201 -0.002441 -0.002018 -0.000001 -0.001403 0.000000
# 2 -0.002441 0.008911 -0.002443 -0.000001 0.000052 -0.000002
# 3 -0.002018 -0.002443 0.011082 0.000003 -0.000294 0.000001
# 4 -0.000001 -0.000001 0.000003 0.026816 -0.000003 -0.002392
# 5 -0.001403 0.000052 -0.000294 -0.000003 0.042548 -0.000004
# 6 0.000000 -0.000002 0.000001 -0.002392 -0.000004 0.027136
#
#
# Mechanical properties :
#
#
# Convention : Reuss Voigt Hill
#
# Bulk Modulus (GPa) = 57.49869 58.98356 58.24112
# Shear Modulus (GPa) = 33.94603 35.63997 34.79300
#
# Velocity S-wave (km/s) = 3.91303 4.00947 3.96154
# Velocity P-wave (km/s) = 6.80817 6.93107 6.86990
#
# Compressibility (1/GPa) = 0.01739170
#
# Stress axis : x y z
#
# Youngs Moduli (GPa) = 89.28100 112.21537 90.23656
#
# Poissons Ratio (x) = 0.27386 0.18209
# Poissons Ratio (y) = 0.21789 0.22043
# Poissons Ratio (z) = 0.18016 0.27412
#
# Static dielectric constant tensor:
#      x y z
#    x 1.845780 0.000000 -0.044370 
#    y 0.000000 1.785750 0.000000 
#    z -0.044370 0.000000 1.839730 
# 
# From -- ./inp_files/257624.got.cif
#   From: 2010.05.17/outbox.cif.g08.bks.cpg/sg15_129_cif.got.tgz:257624.got - 2010.06.03 18:47:42.
