data_PCOD9293031
_publ_section_title
;
Structure prediction by ZEFSAII (Michael W. Deem and Ramdas Pophale) SiO2 
 PCOD9293031
Probable space group: C 2/C
;
_chemical_formula_sum "Si O2"
_cell_formula_units_Z 48
_cell_length_a 6.841238
_cell_length_b 15.567533
_cell_length_c 23.578697
_cell_angle_alpha 90.000000
_cell_angle_beta 120.095154
_cell_angle_gamma 90.000000
_cell_volume 2172.639704
_symmetry_space_group_name_H-M "C 2/C"
_symmetry_group_IT_number 15
_symmetry_cell_setting 'monoclinic'
loop_
_space_group_symop_operation_xyz
x,y,z
-x,y,1/2-z
-x,-y,-z
x,-y,1/2+z
1/2+x,1/2+y,z
1/2-x,1/2+y,1/2-z
1/2-x,1/2-y,-z
1/2+x,1/2-y,1/2+z
loop_
_atom_site_type_symbol
_atom_site_label
_atom_site_fract_x
_atom_site_fract_y
_atom_site_fract_z
Si Si1 0.628111 0.116154 0.700681
Si Si2 0.686239 0.679542 0.652234
Si Si3 0.177939 0.992589 0.859933
Si Si4 0.438189 0.143645 0.100698
Si Si5 0.682051 0.052308 0.313453
Si Si6 0.881019 0.058970 0.530666
O O1 0.440442 0.189873 0.664007
O O2 0.231569 0.148978 0.724138
O O3 0.764458 0.078752 0.667409
O O4 0.463438 0.033078 0.690490
O O5 0.528884 0.762135 0.625149
O O6 0.566591 0.611281 0.593434
O O7 0.341491 0.917191 0.863843
O O8 0.913827 0.968920 0.815536
O O9 0.226338 0.004419 0.933801
O O10 0.271466 0.108921 0.125185
O O11 0.300839 0.122541 0.023786
O O12 0.500000 0.103411 0.250000
O O13 0.000000 0.000000 0.500000
#
# Coordination Sequence:
#
# PCOD9293031 Si02
#       6
#     8   8   8   8   8   8
#     4  10  22  44  71  98 134 188 234 292 350 430
#     4  11  23  46  66 103 150 177 228 305 366 415
#     4  11  23  46  73 100 127 192 247 285 342 436
#     4  11  26  42  67 104 146 175 228 301 361 416
#     4  11  21  43  68  99 131 180 243 288 340 420
#     4  12  22  45  74  96 139 193 240 284 347 438
#
# _framework density 22.092942000000001
#
# number of rings (size 3 to 8) (size 9 to 14) (size 15 to 20)
#    0.000    1.000    5.000    2.000    0.000    8.667 
#    6.000    1.667    0.000    0.000    0.000    0.000 
#    0.000    0.000    0.000    0.000    0.000    0.000 
#
# Total GULP energy -133823.168375 kJ/mol
# GULP energy per Si atom -5575.965349 kJ/mol
# Density = 2.204266 g / cm^3
# Si number density = 22.092942 Si / 1000 Ang^3
#
#
#
# Elastic Constant Matrix: (Units=GPa)
#
#
# Indices 1 2 3 4 5 6 
#
# 1 113.0263 22.0288 30.1569 0.0000 2.4835 0.0000
# 2 22.0288 85.5657 41.0553 0.0000 -2.7948 0.0000
# 3 30.1569 41.0553 128.5789 0.0000 15.6519 0.0000
# 4 0.0000 0.0000 0.0000 26.9601 0.0000 5.9412
# 5 2.4835 -2.7948 15.6519 0.0000 44.6792 0.0000
# 6 0.0000 0.0000 0.0000 5.9412 0.0000 23.0463
#
#
#
# Elastic Compliance Matrix: (Units=1/GPa)
#
#
# Indices 1 2 3 4 5 6 
#
# 1 0.009631 -0.001652 -0.001727 0.000000 -0.000034 0.000000
# 2 -0.001652 0.014360 -0.004511 0.000000 0.002570 0.000000
# 3 -0.001727 -0.004511 0.010075 0.000000 -0.003716 0.000000
# 4 0.000000 0.000000 0.000000 0.039326 0.000000 -0.010138
# 5 -0.000034 0.002570 -0.003716 0.000000 0.023846 0.000000
# 6 0.000000 0.000000 0.000000 -0.010138 0.000000 0.046004
#
#
# Mechanical properties :
#
#
# Convention : Reuss Voigt Hill
#
# Bulk Modulus (GPa) = 54.68453 57.07252 55.87852
# Shear Modulus (GPa) = 30.28131 34.53245 32.40688
#
# Velocity S-wave (km/s) = 3.70622 3.95784 3.83409
# Velocity P-wave (km/s) = 6.56662 6.83922 6.70431
#
# Compressibility (1/GPa) = 0.01828671
#
# Stress axis : x y z
#
# Youngs Moduli (GPa) = 103.83080 69.63573 99.25501
#
# Poissons Ratio (x) = 0.11502 0.17145
# Poissons Ratio (y) = 0.17151 0.44772
# Poissons Ratio (z) = 0.17935 0.31411
#
# Static dielectric constant tensor:
#      x y z
#    x 1.899370 0.000000 -0.013540 
#    y 0.000000 1.879760 0.000000 
#    z -0.013540 0.000000 1.868870 
# 
# From -- ./inp_files/285935.got.cif
#   From: 2010.05.17/outbox.cif.g08.bks.cpg/sg15_143_cif.got.tgz:285935.got - 2010.06.03 18:47:42.
