data_PCOD9293005
_publ_section_title
;
Structure prediction by ZEFSAII (Michael W. Deem and Ramdas Pophale) SiO2 
 PCOD9293005
Probable space group: C 2/C
;
_chemical_formula_sum "Si O2"
_cell_formula_units_Z 36
_cell_length_a 10.043242
_cell_length_b 16.585281
_cell_length_c 8.427411
_cell_angle_alpha 90.000000
_cell_angle_beta 106.904221
_cell_angle_gamma 90.000000
_cell_volume 1343.100611
_symmetry_space_group_name_H-M "C 2/C"
_symmetry_group_IT_number 15
_symmetry_cell_setting 'monoclinic'
loop_
_space_group_symop_operation_xyz
x,y,z
-x,y,1/2-z
-x,-y,-z
x,-y,1/2+z
1/2+x,1/2+y,z
1/2-x,1/2+y,1/2-z
1/2-x,1/2-y,-z
1/2+x,1/2-y,1/2+z
loop_
_atom_site_type_symbol
_atom_site_label
_atom_site_fract_x
_atom_site_fract_y
_atom_site_fract_z
Si Si1 0.299702 0.189745 0.233481
Si Si2 0.890167 0.413995 0.035654
Si Si3 0.198465 0.584554 0.562137
Si Si4 0.500000 0.653997 0.250000
Si Si5 0.859923 0.856772 0.384135
O O1 0.367418 0.112977 0.345482
O O2 0.384180 0.267746 0.322185
O O3 0.140535 0.197428 0.239484
O O4 0.297997 0.162351 0.049985
O O5 0.818860 0.500670 0.035057
O O6 0.793562 0.351145 0.090936
O O7 0.054685 0.414648 0.112675
O O8 0.332076 0.586990 0.722593
O O9 0.546143 0.614936 0.435704
#
# Coordination Sequence:
#
# PCOD9293005 Si02
#       5
#     8   8   8   4   8
#     4  11  24  42  66  99 139 176 232 277 338 417
#     4  10  22  44  71 100 141 171 221 284 358 394
#     4  11  23  42  72 108 130 172 230 295 337 399
#     4  10  24  44  62  92 136 188 224 264 350 400
#     4  11  24  42  68  96 139 184 226 281 340 416
#
# _framework density 26.803647999999999
#
# number of rings (size 3 to 8) (size 9 to 14) (size 15 to 20)
#    0.000    1.333    0.000    6.000    6.222    4.444 
#    4.000   17.778    0.000    0.000    0.000    0.000 
#    0.000    0.000    0.000    0.000    0.000    0.000 
#
# Total GULP energy -100533.385674 kJ/mol
# GULP energy per Si atom -5585.188093 kJ/mol
# Density = 2.674264 g / cm^3
# Si number density = 26.803648 Si / 1000 Ang^3
#
#
#
# Elastic Constant Matrix: (Units=GPa)
#
#
# Indices 1 2 3 4 5 6 
#
# 1 94.9679 27.2138 7.5157 0.0000 3.5001 0.0000
# 2 27.2138 116.8926 50.0209 0.0000 1.5386 0.0000
# 3 7.5157 50.0209 174.7468 0.0000 32.0136 0.0000
# 4 0.0000 0.0000 0.0000 36.5384 0.0000 -5.3642
# 5 3.5001 1.5386 32.0136 0.0000 55.7940 0.0000
# 6 0.0000 0.0000 0.0000 -5.3642 0.0000 3.6894
#
#
#
# Elastic Compliance Matrix: (Units=1/GPa)
#
#
# Indices 1 2 3 4 5 6 
#
# 1 0.011338 -0.002838 0.000493 0.000000 -0.000916 0.000000
# 2 -0.002838 0.010572 -0.003222 0.000000 0.001735 0.000000
# 3 0.000493 -0.003222 0.007390 0.000000 -0.004182 0.000000
# 4 0.000000 0.000000 0.000000 0.034796 0.000000 0.050591
# 5 -0.000916 0.001735 -0.004182 0.000000 0.020332 0.000000
# 6 0.000000 0.000000 0.000000 0.050591 0.000000 0.344603
#
#
# Mechanical properties :
#
#
# Convention : Reuss Voigt Hill
#
# Bulk Modulus (GPa) = 55.05387 61.78979 58.42183
# Shear Modulus (GPa) = 11.20523 39.32817 25.26670
#
# Velocity S-wave (km/s) = 2.04684 3.83465 3.07361
# Velocity P-wave (km/s) = 5.11570 6.53520 5.86853
#
# Compressibility (1/GPa) = 0.01816403
#
# Stress axis : x y z
#
# Youngs Moduli (GPa) = 88.19912 94.59372 135.32140
#
# Poissons Ratio (x) = 0.26849 -0.06666
# Poissons Ratio (y) = 0.25034 0.43599
# Poissons Ratio (z) = -0.04344 0.30477
#
# Static dielectric constant tensor:
#      x y z
#    x 2.060920 0.000000 -0.024070 
#    y 0.000000 1.997920 0.000000 
#    z -0.024070 0.000000 2.220530 
# 
# From -- ./inp_files/29433.got.cif
#   From: 2010.05.17/outbox.cif.g08.bks.cpg/sg15_15_cif.got.tgz:29433.got - 2010.06.03 18:47:42.
