data_PCOD9293127
_publ_section_title
;
Structure prediction by ZEFSAII (Michael W. Deem and Ramdas Pophale) SiO2 
 PCOD9293127
Probable space group: C 2/C
;
_chemical_formula_sum "Si O2"
_cell_formula_units_Z 36
_cell_length_a 20.608524
_cell_length_b 5.010870
_cell_length_c 16.418601
_cell_angle_alpha 90.000000
_cell_angle_beta 130.913804
_cell_angle_gamma 90.000000
_cell_volume 1281.277283
_symmetry_space_group_name_H-M "C 2/C"
_symmetry_group_IT_number 15
_symmetry_cell_setting 'monoclinic'
loop_
_space_group_symop_operation_xyz
x,y,z
-x,y,1/2-z
-x,-y,-z
x,-y,1/2+z
1/2+x,1/2+y,z
1/2-x,1/2+y,1/2-z
1/2-x,1/2-y,-z
1/2+x,1/2-y,1/2+z
loop_
_atom_site_type_symbol
_atom_site_label
_atom_site_fract_x
_atom_site_fract_y
_atom_site_fract_z
Si Si1 0.716054 0.269679 0.264684
Si Si2 0.500000 0.500000 0.000000
Si Si3 0.661983 0.496703 0.506852
Si Si4 0.377537 0.999863 0.107946
Si Si5 0.058805 0.458091 0.168711
O O1 0.753923 0.069142 0.226622
O O2 0.612490 0.217438 0.180461
O O3 0.763635 0.142567 0.380689
O O4 0.576862 0.498841 0.992572
O O5 0.547254 0.756955 0.085805
O O6 0.676982 0.796317 0.490301
O O7 0.649320 0.306582 0.418355
O O8 0.467915 0.016334 0.134267
O O9 0.390214 0.876444 0.207758
#
# Coordination Sequence:
#
# PCOD9293127 Si02
#       5
#     8   4   8   8   8
#     4  12  26  43  69 107 142 187 235 304 354 422
#     4  10  22  44  74 104 138 190 240 296 338 446
#     4  11  24  43  68 104 141 184 243 282 368 413
#     4  10  25  44  70 104 138 193 230 300 349 433
#     4  10  24  45  73 104 147 182 245 291 365 419
#
# _framework density 28.096965000000001
#
# number of rings (size 3 to 8) (size 9 to 14) (size 15 to 20)
#    0.000    1.333    2.222    1.333    3.111   12.444 
#    0.000    0.000    0.000    0.000    0.000    0.000 
#    0.000    0.000    0.000    0.000    0.000    0.000 
#
# Total GULP energy -100443.572887 kJ/mol
# GULP energy per Si atom -5580.198494 kJ/mol
# Density = 2.803301 g / cm^3
# Si number density = 28.096965 Si / 1000 Ang^3
#
#
#
# Elastic Constant Matrix: (Units=GPa)
#
#
# Indices 1 2 3 4 5 6 
#
# 1 198.1715 14.4629 -10.7239 -0.0001 29.3218 0.0004
# 2 14.4629 122.7900 35.2040 -0.0013 -21.0904 0.0034
# 3 -10.7239 35.2040 66.3485 -0.0002 -19.7591 0.0004
# 4 -0.0001 -0.0013 -0.0002 31.7966 0.0000 -11.9970
# 5 29.3218 -21.0904 -19.7591 0.0000 40.3445 -0.0009
# 6 0.0004 0.0034 0.0004 -11.9970 -0.0009 23.6603
#
#
#
# Elastic Compliance Matrix: (Units=1/GPa)
#
#
# Indices 1 2 3 4 5 6 
#
# 1 0.005926 -0.001657 0.000347 0.000000 -0.005003 0.000000
# 2 -0.001657 0.010379 -0.004449 0.000000 0.004451 -0.000001
# 3 0.000347 -0.004449 0.019576 0.000000 0.007010 0.000001
# 4 0.000000 0.000000 0.000000 0.038890 0.000000 0.019719
# 5 -0.005003 0.004451 0.007010 0.000000 0.034182 0.000001
# 6 0.000000 -0.000001 0.000001 0.019719 0.000001 0.052264
#
#
# Mechanical properties :
#
#
# Convention : Reuss Voigt Hill
#
# Bulk Modulus (GPa) = 41.04580 51.68845 46.36713
# Shear Modulus (GPa) = 27.64603 42.38475 35.01539
#
# Velocity S-wave (km/s) = 3.14020 3.88818 3.53403
# Velocity P-wave (km/s) = 5.27145 6.21238 5.76115
#
# Compressibility (1/GPa) = 0.02436303
#
# Stress axis : x y z
#
# Youngs Moduli (GPa) = 168.74468 96.34584 51.08207
#
# Poissons Ratio (x) = 0.15963 -0.01772
# Poissons Ratio (y) = 0.27958 0.22729
# Poissons Ratio (z) = -0.05855 0.42869
#
# Static dielectric constant tensor:
#      x y z
#    x 2.228470 0.000000 0.049540 
#    y 0.000000 2.404130 -0.000020 
#    z 0.049540 -0.000020 1.395160 
# 
# From -- ./inp_files/217659.got.cif
#   From: 2010.05.17/outbox.cif.g08.bks.cpg/sg15_109_cif.got.tgz:217659.got - 2010.06.03 18:47:42.
