data_PCOD9293348
_publ_section_title
;
Structure prediction by ZEFSAII (Michael W. Deem and Ramdas Pophale) SiO2 
 PCOD9293348
Probable space group: C 2/C
;
_chemical_formula_sum "Si O2"
_cell_formula_units_Z 40
_cell_length_a 24.694420
_cell_length_b 10.984249
_cell_length_c 10.478942
_cell_angle_alpha 90.000000
_cell_angle_beta 39.785509
_cell_angle_gamma 90.000000
_cell_volume 1818.901480
_symmetry_space_group_name_H-M "C 2/C"
_symmetry_group_IT_number 15
_symmetry_cell_setting 'monoclinic'
loop_
_space_group_symop_operation_xyz
x,y,z
-x,y,1/2-z
-x,-y,-z
x,-y,1/2+z
1/2+x,1/2+y,z
1/2-x,1/2+y,1/2-z
1/2-x,1/2-y,-z
1/2+x,1/2-y,1/2+z
loop_
_atom_site_type_symbol
_atom_site_label
_atom_site_fract_x
_atom_site_fract_y
_atom_site_fract_z
Si Si1 0.500000 0.359087 0.750000
Si Si2 0.140222 0.697506 0.125542
Si Si3 0.370387 0.848130 0.567714
Si Si4 0.000000 0.545219 0.250000
Si Si5 0.767518 0.013469 0.778090
Si Si6 0.373779 0.484324 0.337498
O O1 0.575756 0.270288 0.567914
O O2 0.539563 0.444563 0.788133
O O3 0.163751 0.669582 0.228671
O O4 0.054795 0.627515 0.244118
O O5 0.212310 0.633147 0.910494
O O6 0.377579 0.660262 0.854591
O O7 0.437684 0.958288 0.441706
O O8 0.295581 0.897113 0.612977
O O9 0.808508 0.027634 0.565287
O O10 0.836365 0.995441 0.764518
#
# Coordination Sequence:
#
# PCOD9293348 Si02
#       6
#     4   8   8   4   8   8
#     4  11  27  44  66 106 143 171 226 284 348 395
#     4  11  22  43  70  99 139 178 225 283 337 405
#     4  10  22  45  70  98 139 181 223 286 327 412
#     4   9  21  38  70 104 131 179 228 270 346 405
#     4  11  25  44  72 100 132 184 234 270 339 406
#     4  12  26  44  70 101 140 180 222 287 340 403
#
# _framework density 21.991295999999998
#
# number of rings (size 3 to 8) (size 9 to 14) (size 15 to 20)
#    0.000    1.200    2.000    3.000    2.800    5.600 
#    0.000    0.000    0.000    0.000    0.000    0.000 
#    0.000    0.000    0.000    0.000    0.000    0.000 
#
# Total GULP energy -111903.769995 kJ/mol
# GULP energy per Si atom -5595.188500 kJ/mol
# Density = 2.194124 g / cm^3
# Si number density = 21.991296 Si / 1000 Ang^3
#
#
#
# Elastic Constant Matrix: (Units=GPa)
#
#
# Indices 1 2 3 4 5 6 
#
# 1 103.5955 54.1388 -3.5735 0.0000 -26.4691 0.0000
# 2 54.1388 155.2811 26.2532 0.0000 -18.0658 0.0000
# 3 -3.5735 26.2532 47.4458 0.0000 1.3164 0.0000
# 4 0.0000 0.0000 0.0000 1.3546 0.0000 -16.3583
# 5 -26.4691 -18.0658 1.3164 0.0000 41.3961 0.0000
# 6 0.0000 0.0000 0.0000 -16.3583 0.0000 45.2444
#
#
#
# Elastic Compliance Matrix: (Units=1/GPa)
#
#
# Indices 1 2 3 4 5 6 
#
# 1 0.013931 -0.004650 0.003435 0.000000 0.006769 0.000000
# 2 -0.004650 0.009116 -0.005427 0.000000 0.001177 0.000000
# 3 0.003435 -0.005427 0.024365 0.000000 -0.000947 0.000000
# 4 0.000000 0.000000 0.000000 -0.219307 0.000000 -0.079291
# 5 0.006769 0.001177 -0.000947 0.000000 0.029029 0.000000
# 6 0.000000 0.000000 0.000000 -0.079291 0.000000 -0.006566
#
#
# Mechanical properties :
#
#
# Convention : Reuss Voigt Hill
#
# Bulk Modulus (GPa) = 29.30300 51.10660 40.20480
# Shear Modulus (GPa) = -40.07320 32.89927 -3.58697
#
# Velocity S-wave (km/s) = -4.27339 3.87203 -1.27852
# Velocity P-wave (km/s) = 3.31593 6.57876 4.01775
#
# Compressibility (1/GPa) = 0.03412619
#
# Stress axis : x y z
#
# Youngs Moduli (GPa) = 71.78167 109.70037 41.04328
#
# Poissons Ratio (x) = 0.51013 -0.14097
# Poissons Ratio (y) = 0.33380 0.22274
# Poissons Ratio (z) = -0.24654 0.59534
#
# Static dielectric constant tensor:
#      x y z
#    x 1.767760 0.000000 -0.030830 
#    y 0.000000 1.808880 0.000000 
#    z -0.030830 0.000000 1.853950 
# 
# From -- ./inp_files/104649.got.cif
#   From: 2010.05.17/outbox.cif.g08.bks.cpg/sg15_53_cif.got.tgz:104649.got - 2010.06.03 18:47:42.
