data_PCOD9293698
_publ_section_title
;
Structure prediction by ZEFSAII (Michael W. Deem and Ramdas Pophale) SiO2 
 PCOD9293698
Probable space group: C 2/C
;
_chemical_formula_sum "Si O2"
_cell_formula_units_Z 44
_cell_length_a 29.829175
_cell_length_b 5.716660
_cell_length_c 10.460767
_cell_angle_alpha 90.000000
_cell_angle_beta 86.480398
_cell_angle_gamma 90.000000
_cell_volume 1780.439488
_symmetry_space_group_name_H-M "C 2/C"
_symmetry_group_IT_number 15
_symmetry_cell_setting 'monoclinic'
loop_
_space_group_symop_operation_xyz
x,y,z
-x,y,1/2-z
-x,-y,-z
x,-y,1/2+z
1/2+x,1/2+y,z
1/2-x,1/2+y,1/2-z
1/2-x,1/2-y,-z
1/2+x,1/2-y,1/2+z
loop_
_atom_site_type_symbol
_atom_site_label
_atom_site_fract_x
_atom_site_fract_y
_atom_site_fract_z
Si Si1 0.616306 0.696857 0.856042
Si Si2 0.299178 0.168195 0.295752
Si Si3 0.952613 0.429430 0.069029
Si Si4 0.718424 0.325757 0.622796
Si Si5 0.000000 0.087550 0.250000
Si Si6 0.084403 0.911979 0.101335
O O1 0.665588 0.798623 0.826859
O O2 0.610304 0.550132 0.727667
O O3 0.574530 0.873425 0.852879
O O4 0.606598 0.568515 0.988714
O O5 0.299736 0.404851 0.383926
O O6 0.249285 0.154824 0.245408
O O7 0.310587 0.912952 0.352982
O O8 0.966262 0.236359 0.169384
O O9 0.918889 0.341391 0.964302
O O10 0.000000 0.500000 0.000000
O O11 0.750000 0.250000 0.500000
O O12 0.032103 0.959399 0.143622
#
# Coordination Sequence:
#
# PCOD9293698 Si02
#       6
#     8   8   8   8   4   8
#     4  12  28  44  70 106 141 188 237 307 361 432
#     4  10  25  43  71 108 140 183 240 287 365 433
#     4  12  24  44  68  97 138 187 240 291 364 429
#     4  10  22  46  74 102 142 188 229 290 361 441
#     4  12  22  46  66  96 138 190 244 298 362 442
#     4  12  26  45  68  98 142 183 241 302 365 426
#
# _framework density 24.712997999999999
#
# number of rings (size 3 to 8) (size 9 to 14) (size 15 to 20)
#    0.000    0.727    3.636    3.273    5.091    1.455 
#    0.000    0.000    0.000    0.000    0.000    0.000 
#    0.000    0.000    0.000    0.000    0.000    0.000 
#
# Total GULP energy -122828.316907 kJ/mol
# GULP energy per Si atom -5583.105314 kJ/mol
# Density = 2.465675 g / cm^3
# Si number density = 24.712998 Si / 1000 Ang^3
#
#
#
# Elastic Constant Matrix: (Units=GPa)
#
#
# Indices 1 2 3 4 5 6 
#
# 1 53.9519 7.5599 1.9051 0.0000 -15.7467 0.0000
# 2 7.5599 105.0262 28.2011 0.0000 -9.2683 0.0000
# 3 1.9051 28.2011 122.9546 0.0000 -12.6528 0.0000
# 4 0.0000 0.0000 0.0000 24.2269 0.0000 2.7723
# 5 -15.7467 -9.2683 -12.6528 0.0000 44.8907 0.0000
# 6 0.0000 0.0000 0.0000 2.7723 0.0000 12.3817
#
#
#
# Elastic Compliance Matrix: (Units=1/GPa)
#
#
# Indices 1 2 3 4 5 6 
#
# 1 0.020776 -0.001032 0.000662 0.000000 0.007261 0.000000
# 2 -0.001032 0.010294 -0.002228 0.000000 0.001135 0.000000
# 3 0.000662 -0.002228 0.008868 0.000000 0.002272 0.000000
# 4 0.000000 0.000000 0.000000 0.042362 0.000000 -0.009485
# 5 0.007261 0.001135 0.002272 0.000000 0.025698 0.000000
# 6 0.000000 0.000000 0.000000 -0.009485 0.000000 0.082888
#
#
# Mechanical properties :
#
#
# Convention : Reuss Voigt Hill
#
# Bulk Modulus (GPa) = 28.78505 39.69609 34.24057
# Shear Modulus (GPa) = 24.07753 32.58430 28.33091
#
# Velocity S-wave (km/s) = 3.12474 3.63507 3.38952
# Velocity P-wave (km/s) = 4.96907 5.80655 5.40406
#
# Compressibility (1/GPa) = 0.03474026
#
# Stress axis : x y z
#
# Youngs Moduli (GPa) = 48.13341 97.14154 112.76916
#
# Poissons Ratio (x) = 0.10029 -0.07467
# Poissons Ratio (y) = 0.04970 0.25128
# Poissons Ratio (z) = -0.03187 0.21646
#
# Static dielectric constant tensor:
#      x y z
#    x 2.066100 0.000000 0.004280 
#    y 0.000000 2.029510 0.000000 
#    z 0.004280 0.000000 1.998370 
# 
# From -- ./inp_files/124982.got.cif
#   From: 2010.05.17/outbox.cif.g08.bks.cpg/sg15_63_cif.got.tgz:124982.got - 2010.06.03 18:47:42.
