data_PCOD9293109
_publ_section_title
;
Structure prediction by ZEFSAII (Michael W. Deem and Ramdas Pophale) SiO2 
 PCOD9293109
Probable space group: C 2/C
;
_chemical_formula_sum "Si O2"
_cell_formula_units_Z 48
_cell_length_a 18.473701
_cell_length_b 8.784249
_cell_length_c 11.590015
_cell_angle_alpha 90.000000
_cell_angle_beta 94.773693
_cell_angle_gamma 90.000000
_cell_volume 1874.275531
_symmetry_space_group_name_H-M "C 2/C"
_symmetry_group_IT_number 15
_symmetry_cell_setting 'monoclinic'
loop_
_space_group_symop_operation_xyz
x,y,z
-x,y,1/2-z
-x,-y,-z
x,-y,1/2+z
1/2+x,1/2+y,z
1/2-x,1/2+y,1/2-z
1/2-x,1/2-y,-z
1/2+x,1/2-y,1/2+z
loop_
_atom_site_type_symbol
_atom_site_label
_atom_site_fract_x
_atom_site_fract_y
_atom_site_fract_z
Si Si1 0.585838 0.751042 0.760636
Si Si2 0.219589 0.959783 0.206721
Si Si3 0.549800 0.845496 0.999583
Si Si4 0.792745 0.096159 0.046083
Si Si5 0.877948 0.417431 0.268505
Si Si6 0.453506 0.676561 0.133994
O O1 0.500000 0.713184 0.750000
O O2 0.645703 0.633267 0.724218
O O3 0.601541 0.909660 0.699235
O O4 0.594964 0.811733 0.892075
O O5 0.298074 0.880401 0.216349
O O6 0.233896 0.051515 0.328920
O O7 0.214028 0.010147 0.070800
O O8 0.605881 0.835980 0.111033
O O9 0.497521 0.704641 0.023453
O O10 0.500000 0.000000 0.000000
O O11 0.878684 0.103876 0.084702
O O12 0.750000 0.250000 0.000000
O O13 0.930439 0.343193 0.180509
O O14 0.500000 0.613519 0.250000
#
# Coordination Sequence:
#
# PCOD9293109 Si02
#       6
#     8   8   8   8   8   8
#     4  12  24  45  74 109 151 200 266 331 393 478
#     4  12  30  46  78 111 158 215 263 322 414 473
#     4  11  21  38  71 108 146 198 268 328 389 462
#     4  12  27  53  75 109 165 212 262 332 406 484
#     4  11  23  41  68 111 149 197 259 324 399 465
#     4  10  22  44  73 108 148 205 259 330 396 474
#
# _framework density 25.609895000000002
#
# number of rings (size 3 to 8) (size 9 to 14) (size 15 to 20)
#    0.000    0.667    5.000    2.500    4.667    4.000 
#    0.000    2.500    0.000    0.000    0.000    0.000 
#    0.000    0.000    0.000    0.000    0.000    0.000 
#
# Total GULP energy -133750.617982 kJ/mol
# GULP energy per Si atom -5572.942416 kJ/mol
# Density = 2.555161 g / cm^3
# Si number density = 25.609895 Si / 1000 Ang^3
#
#
#
# Elastic Constant Matrix: (Units=GPa)
#
#
# Indices 1 2 3 4 5 6 
#
# 1 134.6716 3.4783 14.0902 0.0000 18.9939 0.0000
# 2 3.4783 53.6561 7.1185 0.0000 -15.7552 0.0000
# 3 14.0902 7.1185 169.1260 0.0000 4.0936 0.0000
# 4 0.0000 0.0000 0.0000 -8.3826 0.0000 12.5646
# 5 18.9939 -15.7552 4.0936 0.0000 24.3882 0.0000
# 6 0.0000 0.0000 0.0000 12.5646 0.0000 21.6705
#
#
#
# Elastic Compliance Matrix: (Units=1/GPa)
#
#
# Indices 1 2 3 4 5 6 
#
# 1 0.008784 -0.003094 -0.000389 0.000000 -0.008774 0.000000
# 2 -0.003094 0.024393 -0.001214 0.000000 0.018372 0.000000
# 3 -0.000389 -0.001214 0.006032 0.000000 -0.001493 0.000000
# 4 0.000000 0.000000 0.000000 -0.063826 0.000000 0.037006
# 5 -0.008774 0.018372 -0.001493 0.000000 0.059957 0.000000
# 6 0.000000 0.000000 0.000000 0.037006 0.000000 0.024689
#
#
# Mechanical properties :
#
#
# Convention : Reuss Voigt Hill
#
# Bulk Modulus (GPa) = 33.53963 45.20306 39.37134
# Shear Modulus (GPa) = 63.00237 29.71965 46.36101
#
# Velocity S-wave (km/s) = 4.96530 3.41027 4.25935
# Velocity P-wave (km/s) = 6.78211 5.76156 6.29256
#
# Compressibility (1/GPa) = 0.02981548
#
# Stress axis : x y z
#
# Youngs Moduli (GPa) = 113.84796 40.99455 165.77140
#
# Poissons Ratio (x) = 0.12685 0.06451
# Poissons Ratio (y) = 0.35227 0.20118
# Poissons Ratio (z) = 0.04431 0.04975
#
# Static dielectric constant tensor:
#      x y z
#    x 2.021930 0.000000 -0.024730 
#    y 0.000000 2.181340 0.000000 
#    z -0.024730 0.000000 2.055760 
# 
# From -- ./inp_files/103839.got.cif
#   From: 2010.05.17/outbox.cif.g08.bks.cpg/sg15_52_cif.got.tgz:103839.got - 2010.06.03 18:47:42.
