data_PCOD9293128
_publ_section_title
;
Structure prediction by ZEFSAII (Michael W. Deem and Ramdas Pophale) SiO2 
 PCOD9293128
Probable space group: C 2/C
;
_chemical_formula_sum "Si O2"
_cell_formula_units_Z 44
_cell_length_a 16.870961
_cell_length_b 9.987227
_cell_length_c 10.918044
_cell_angle_alpha 90.000000
_cell_angle_beta 100.599517
_cell_angle_gamma 90.000000
_cell_volume 1808.236460
_symmetry_space_group_name_H-M "C 2/C"
_symmetry_group_IT_number 15
_symmetry_cell_setting 'monoclinic'
loop_
_space_group_symop_operation_xyz
x,y,z
-x,y,1/2-z
-x,-y,-z
x,-y,1/2+z
1/2+x,1/2+y,z
1/2-x,1/2+y,1/2-z
1/2-x,1/2-y,-z
1/2+x,1/2-y,1/2+z
loop_
_atom_site_type_symbol
_atom_site_label
_atom_site_fract_x
_atom_site_fract_y
_atom_site_fract_z
Si Si1 0.000000 0.772335 0.750000
Si Si2 0.897179 0.957218 0.537949
Si Si3 0.083769 0.267752 0.922861
Si Si4 0.403201 0.765987 0.860464
Si Si5 0.248284 0.418648 0.669186
Si Si6 0.162185 0.324266 0.182331
O O1 0.958542 0.868800 0.637653
O O2 0.926430 0.684608 0.782237
O O3 0.896311 0.885673 0.406405
O O4 0.811148 0.950912 0.580580
O O5 0.920875 0.111173 0.542894
O O6 0.107413 0.274804 0.788105
O O7 0.353783 0.167117 0.967205
O O8 0.992611 0.320329 0.912191
O O9 0.332425 0.847780 0.904059
O O10 0.216903 0.549519 0.730715
O O11 0.292665 0.311421 0.768187
#
# Coordination Sequence:
#
# PCOD9293128 Si02
#       6
#     4   8   8   8   8   8
#     4  10  22  44  74 104 140 192 240 292 346 428
#     4  11  23  43  72 105 141 192 239 288 352 428
#     4  11  25  43  76 104 148 186 241 290 354 431
#     4  11  24  45  70 109 138 190 235 296 349 427
#     4  11  27  46  74 104 147 186 239 298 359 419
#     4  11  26  49  71 108 142 193 236 295 359 420
#
# _framework density 24.333102
#
# number of rings (size 3 to 8) (size 9 to 14) (size 15 to 20)
#    0.000    1.091    1.818    3.273    7.636    5.091 
#    6.545    0.000    0.000    0.000    0.000    0.000 
#    0.000    0.000    0.000    0.000    0.000    0.000 
#
# Total GULP energy -123308.019285 kJ/mol
# GULP energy per Si atom -5604.909967 kJ/mol
# Density = 2.427772 g / cm^3
# Si number density = 24.333102 Si / 1000 Ang^3
#
#
#
# Elastic Constant Matrix: (Units=GPa)
#
#
# Indices 1 2 3 4 5 6 
#
# 1 188.3464 51.0539 29.1793 0.0000 -19.6927 0.0000
# 2 51.0539 87.0611 15.5490 0.0000 -0.6438 0.0000
# 3 29.1793 15.5490 47.0611 0.0000 6.3490 0.0000
# 4 0.0000 0.0000 0.0000 38.2947 0.0000 -17.3446
# 5 -19.6927 -0.6438 6.3490 0.0000 23.4511 0.0000
# 6 0.0000 0.0000 0.0000 -17.3446 0.0000 56.9955
#
#
#
# Elastic Compliance Matrix: (Units=1/GPa)
#
#
# Indices 1 2 3 4 5 6 
#
# 1 0.007853 -0.003710 -0.004691 0.000000 0.007763 0.000000
# 2 -0.003710 0.014009 -0.002034 0.000000 -0.002180 0.000000
# 3 -0.004691 -0.002034 0.026330 0.000000 -0.011123 0.000000
# 4 0.000000 0.000000 0.000000 0.030288 0.000000 0.009217
# 5 0.007763 -0.002180 -0.011123 0.000000 0.052112 0.000000
# 6 0.000000 0.000000 0.000000 0.009217 0.000000 0.020350
#
#
# Mechanical properties :
#
#
# Convention : Reuss Voigt Hill
#
# Bulk Modulus (GPa) = 36.59981 57.11478 46.85730
# Shear Modulus (GPa) = 27.63640 38.86066 33.24853
#
# Velocity S-wave (km/s) = 3.37375 4.00062 3.70048
# Velocity P-wave (km/s) = 5.50001 6.69798 6.12834
#
# Compressibility (1/GPa) = 0.02732254
#
# Stress axis : x y z
#
# Youngs Moduli (GPa) = 127.33264 71.38240 37.97931
#
# Poissons Ratio (x) = 0.26484 0.17815
# Poissons Ratio (y) = 0.47243 0.07725
# Poissons Ratio (z) = 0.59729 0.14519
#
# Static dielectric constant tensor:
#      x y z
#    x 1.934620 0.000000 0.008290 
#    y 0.000000 1.907140 0.000000 
#    z 0.008290 0.000000 1.935360 
# 
# From -- ./inp_files/151387.got.cif
#   From: 2010.05.17/outbox.cif.g08.bks.cpg/sg15_76_cif.got.tgz:151387.got - 2010.06.03 18:47:42.
