data_PCOD9293310
_publ_section_title
;
Structure prediction by ZEFSAII (Michael W. Deem and Ramdas Pophale) SiO2 
 PCOD9293310
Probable space group: C 2/C
;
_chemical_formula_sum "Si O2"
_cell_formula_units_Z 48
_cell_length_a 19.499486
_cell_length_b 15.252669
_cell_length_c 10.758608
_cell_angle_alpha 90.000000
_cell_angle_beta 136.402710
_cell_angle_gamma 90.000000
_cell_volume 2206.546492
_symmetry_space_group_name_H-M "C 2/C"
_symmetry_group_IT_number 15
_symmetry_cell_setting 'monoclinic'
loop_
_space_group_symop_operation_xyz
x,y,z
-x,y,1/2-z
-x,-y,-z
x,-y,1/2+z
1/2+x,1/2+y,z
1/2-x,1/2+y,1/2-z
1/2-x,1/2-y,-z
1/2+x,1/2-y,1/2+z
loop_
_atom_site_type_symbol
_atom_site_label
_atom_site_fract_x
_atom_site_fract_y
_atom_site_fract_z
Si Si1 0.776867 0.541080 0.788802
Si Si2 0.439567 0.513795 0.549609
Si Si3 0.205079 0.788796 0.315446
Si Si4 0.082414 0.650994 0.685547
Si Si5 0.979474 0.210224 0.590280
Si Si6 0.352624 0.853925 0.958819
O O1 0.666992 0.531347 0.588344
O O2 0.765640 0.623619 0.865096
O O3 0.859853 0.569067 0.798112
O O4 0.802178 0.448914 0.884893
O O5 0.500000 0.483755 0.750000
O O6 0.500000 0.500000 0.500000
O O7 0.425404 0.618581 0.543428
O O8 0.250000 0.750000 0.500000
O O9 0.200919 0.716840 0.199682
O O10 0.088881 0.811536 0.181796
O O11 0.078330 0.729514 0.581265
O O12 0.966426 0.633069 0.561121
O O13 0.136304 0.676379 0.884425
O O14 0.000000 0.255540 0.750000
#
# Coordination Sequence:
#
# PCOD9293310 Si02
#       6
#     8   8   8   8   8   8
#     4  12  26  43  74 101 139 185 229 286 358 415
#     4  11  26  44  68 104 142 182 232 293 352 422
#     4  11  25  44  68 104 137 185 236 282 345 422
#     4  10  24  48  68 101 136 182 230 289 349 415
#     4  10  22  45  69  96 140 181 229 291 347 413
#     4  10  26  45  71 101 141 174 237 290 347 420
#
# _framework density 21.753450000000001
#
# number of rings (size 3 to 8) (size 9 to 14) (size 15 to 20)
#    0.000    1.333    1.667    1.500   11.667    2.000 
#    6.000    0.000    0.000    0.000    0.000    0.000 
#    0.000    0.000    0.000    0.000    0.000    0.000 
#
# Total GULP energy -134224.459076 kJ/mol
# GULP energy per Si atom -5592.685795 kJ/mol
# Density = 2.170394 g / cm^3
# Si number density = 21.753450 Si / 1000 Ang^3
#
#
#
# Elastic Constant Matrix: (Units=GPa)
#
#
# Indices 1 2 3 4 5 6 
#
# 1 70.2164 17.4709 35.8842 0.0000 -11.5600 0.0000
# 2 17.4709 97.7755 49.3131 0.0000 -23.6653 0.0000
# 3 35.8842 49.3131 133.7722 0.0000 -34.7235 0.0000
# 4 0.0000 0.0000 0.0000 38.3392 0.0000 7.2243
# 5 -11.5600 -23.6653 -34.7235 0.0000 47.1895 0.0000
# 6 0.0000 0.0000 0.0000 7.2243 0.0000 36.8395
#
#
#
# Elastic Compliance Matrix: (Units=1/GPa)
#
#
# Indices 1 2 3 4 5 6 
#
# 1 0.016587 -0.000781 -0.003966 0.000000 0.000753 0.000000
# 2 -0.000781 0.013108 -0.003666 0.000000 0.003685 0.000000
# 3 -0.003966 -0.003666 0.011324 0.000000 0.005523 0.000000
# 4 0.000000 0.000000 0.000000 0.027084 0.000000 -0.005311
# 5 0.000753 0.003685 0.005523 0.000000 0.027287 0.000000
# 6 0.000000 0.000000 0.000000 -0.005311 0.000000 0.028186
#
#
# Mechanical properties :
#
#
# Convention : Reuss Voigt Hill
#
# Bulk Modulus (GPa) = 41.33507 56.34450 48.83978
# Shear Modulus (GPa) = 33.67755 37.74669 35.71212
#
# Velocity S-wave (km/s) = 3.93892 4.17010 4.05616
# Velocity P-wave (km/s) = 6.30315 7.01027 6.66609
#
# Compressibility (1/GPa) = 0.02419253
#
# Stress axis : x y z
#
# Youngs Moduli (GPa) = 60.28867 76.28992 88.30650
#
# Poissons Ratio (x) = 0.05961 0.35021
# Poissons Ratio (y) = 0.04710 0.32374
# Poissons Ratio (z) = 0.23910 0.27968
#
# Static dielectric constant tensor:
#      x y z
#    x 1.847100 0.000000 -0.000610 
#    y 0.000000 1.785200 0.000000 
#    z -0.000610 0.000000 1.788050 
# 
# From -- ./inp_files/112986.got.cif
#   From: 2010.05.17/outbox.cif.g08.bks.cpg/sg15_57_cif.got.tgz:112986.got - 2010.06.03 18:47:42.
