data_PCOD9293481
_publ_section_title
;
Structure prediction by ZEFSAII (Michael W. Deem and Ramdas Pophale) SiO2 
 PCOD9293481
Probable space group: C 2/C
;
_chemical_formula_sum "Si O2"
_cell_formula_units_Z 56
_cell_length_a 11.544976
_cell_length_b 8.796251
_cell_length_c 25.573783
_cell_angle_alpha 90.000000
_cell_angle_beta 108.932414
_cell_angle_gamma 90.000000
_cell_volume 2456.584729
_symmetry_space_group_name_H-M "C 2/C"
_symmetry_group_IT_number 15
_symmetry_cell_setting 'monoclinic'
loop_
_space_group_symop_operation_xyz
x,y,z
-x,y,1/2-z
-x,-y,-z
x,-y,1/2+z
1/2+x,1/2+y,z
1/2-x,1/2+y,1/2-z
1/2-x,1/2-y,-z
1/2+x,1/2-y,1/2+z
loop_
_atom_site_type_symbol
_atom_site_label
_atom_site_fract_x
_atom_site_fract_y
_atom_site_fract_z
Si Si1 0.679189 0.253818 0.237283
Si Si2 0.939668 0.225620 0.892742
Si Si3 0.576022 0.382393 0.577273
Si Si4 0.628091 0.820430 0.506595
Si Si5 0.951602 0.251926 0.315962
Si Si6 0.500000 0.500883 0.250000
Si Si7 0.500000 0.995764 0.750000
Si Si8 0.815371 0.375127 0.546102
O O1 0.638200 0.262615 0.171233
O O2 0.822453 0.253683 0.266860
O O3 0.616455 0.396960 0.256147
O O4 0.616290 0.108399 0.254837
O O5 0.071031 0.304846 0.906219
O O6 0.966194 0.049805 0.911307
O O7 0.871874 0.310024 0.930833
O O8 0.484133 0.290712 0.526034
O O9 0.577555 0.273744 0.628224
O O10 0.706524 0.416178 0.569814
O O11 0.750000 0.750000 0.500000
O O12 0.629773 0.988741 0.481679
O O13 0.019097 0.400353 0.304252
O O14 0.021371 0.106654 0.303196
O O15 0.750000 0.250000 0.500000
#
# Coordination Sequence:
#
# PCOD9293481 Si02
#       8
#     8   8   8   8   8   4   4   8
#     4  11  25  44  70 100 142 183 240 292 350 421
#     4  12  26  48  73 106 145 194 243 298 361 428
#     4  12  27  47  72 108 146 191 243 299 362 431
#     4  12  26  48  76 108 148 187 239 303 362 426
#     4  11  25  44  71 100 143 187 234 291 357 422
#     4  10  22  46  62  98 134 186 232 288 348 418
#     4  10  26  42  68 102 140 182 244 286 352 424
#     4  12  27  48  74 104 149 188 240 294 358 435
#
# _framework density 22.795876
#
# number of rings (size 3 to 8) (size 9 to 14) (size 15 to 20)
#    0.000    0.571    4.286    2.571    6.000    2.286 
#    2.571    0.000    0.000    0.000    0.000    0.000 
#    0.000    0.000    0.000    0.000    0.000    0.000 
#
# Total GULP energy -156750.732223 kJ/mol
# GULP energy per Si atom -5598.240437 kJ/mol
# Density = 2.274399 g / cm^3
# Si number density = 22.795876 Si / 1000 Ang^3
#
#
#
# Elastic Constant Matrix: (Units=GPa)
#
#
# Indices 1 2 3 4 5 6 
#
# 1 114.5687 28.7019 43.0146 0.0000 -14.5495 0.0000
# 2 28.7019 123.6480 26.8726 0.0000 -9.5547 0.0000
# 3 43.0146 26.8726 121.8598 0.0000 -2.6810 0.0000
# 4 0.0000 0.0000 0.0000 25.8811 0.0000 -8.9592
# 5 -14.5495 -9.5547 -2.6810 0.0000 30.0204 0.0000
# 6 0.0000 0.0000 0.0000 -8.9592 0.0000 32.8387
#
#
#
# Elastic Compliance Matrix: (Units=1/GPa)
#
#
# Indices 1 2 3 4 5 6 
#
# 1 0.010963 -0.001443 -0.003452 0.000000 0.004546 0.000000
# 2 -0.001443 0.008883 -0.001405 0.000000 0.002002 0.000000
# 3 -0.003452 -0.001405 0.009707 0.000000 -0.001253 0.000000
# 4 0.000000 0.000000 0.000000 0.042668 0.000000 0.011641
# 5 0.004546 0.002002 -0.001253 0.000000 0.036039 0.000000
# 6 0.000000 0.000000 0.000000 0.011641 0.000000 0.033628
#
#
# Mechanical properties :
#
#
# Convention : Reuss Voigt Hill
#
# Bulk Modulus (GPa) = 58.98942 61.91718 60.45330
# Shear Modulus (GPa) = 31.22296 35.18052 33.20174
#
# Velocity S-wave (km/s) = 3.70493 3.93273 3.82053
# Velocity P-wave (km/s) = 6.65097 6.91682 6.78519
#
# Compressibility (1/GPa) = 0.01695219
#
# Stress axis : x y z
#
# Youngs Moduli (GPa) = 91.21478 112.57909 103.02059
#
# Poissons Ratio (x) = 0.16250 0.35558
# Poissons Ratio (y) = 0.13166 0.14477
# Poissons Ratio (z) = 0.31483 0.15820
#
# Static dielectric constant tensor:
#      x y z
#    x 1.812730 0.000000 -0.027360 
#    y 0.000000 1.901850 0.000000 
#    z -0.027360 0.000000 1.838950 
# 
# From -- ./inp_files/291546.got.cif
#   From: 2010.05.17/outbox.cif.g08.bks.cpg/sg15_146_cif.got.tgz:291546.got - 2010.06.03 18:47:42.
