data_PCOD9293381
_publ_section_title
;
Structure prediction by ZEFSAII (Michael W. Deem and Ramdas Pophale) SiO2 
 PCOD9293381
Probable space group: C 2/C
;
_chemical_formula_sum "Si O2"
_cell_formula_units_Z 40
_cell_length_a 14.777188
_cell_length_b 15.763244
_cell_length_c 17.420242
_cell_angle_alpha 90.000000
_cell_angle_beta 24.578545
_cell_angle_gamma 90.000000
_cell_volume 1687.806173
_symmetry_space_group_name_H-M "C 2/C"
_symmetry_group_IT_number 15
_symmetry_cell_setting 'monoclinic'
loop_
_space_group_symop_operation_xyz
x,y,z
-x,y,1/2-z
-x,-y,-z
x,-y,1/2+z
1/2+x,1/2+y,z
1/2-x,1/2+y,1/2-z
1/2-x,1/2-y,-z
1/2+x,1/2-y,1/2+z
loop_
_atom_site_type_symbol
_atom_site_label
_atom_site_fract_x
_atom_site_fract_y
_atom_site_fract_z
Si Si1 0.432249 0.683337 0.716611
Si Si2 0.190870 0.818541 0.431644
Si Si3 0.406892 0.965136 0.992983
Si Si4 0.174159 0.640304 0.505496
Si Si5 0.283864 0.644111 0.141696
O O1 0.500000 0.708364 0.750000
O O2 0.624240 0.647808 0.515598
O O3 0.337749 0.766776 0.749214
O O4 0.251548 0.612066 0.866497
O O5 0.201960 0.715499 0.421950
O O6 0.188225 0.839211 0.524417
O O7 0.418302 0.853430 0.224348
O O8 0.990929 0.856815 0.538727
O O9 0.610644 0.929914 0.787437
O O10 0.284291 0.044565 0.050671
O O11 0.500000 0.000000 0.000000
#
# Coordination Sequence:
#
# PCOD9293381 Si02
#       5
#     8   8   8   8   8
#     4  12  28  49  76 107 147 203 249 307 382 447
#     4  10  22  45  71  99 142 195 232 292 392 426
#     4  12  28  46  73 116 146 188 262 306 362 451
#     4  10  24  43  69 104 144 185 240 307 353 455
#     4  12  25  47  78 103 149 197 245 310 377 439
#
# _framework density 23.699404000000001
#
# number of rings (size 3 to 8) (size 9 to 14) (size 15 to 20)
#    0.000    0.800    2.000    4.200    2.800    8.000 
#    3.600    0.000    0.000    0.000    0.000    0.000 
#    0.000    0.000    0.000    0.000    0.000    0.000 
#
# Total GULP energy -112153.502825 kJ/mol
# GULP energy per Si atom -5607.675141 kJ/mol
# Density = 2.364546 g / cm^3
# Si number density = 23.699404 Si / 1000 Ang^3
#
#
#
# Elastic Constant Matrix: (Units=GPa)
#
#
# Indices 1 2 3 4 5 6 
#
# 1 76.2795 29.1844 16.6251 0.0076 0.8287 -0.0181
# 2 29.1844 104.2590 23.7692 -0.0202 -17.4071 0.0095
# 3 16.6251 23.7692 101.3337 -0.0358 10.1486 -0.0123
# 4 0.0076 -0.0202 -0.0358 26.8232 0.0042 0.6002
# 5 0.8287 -17.4071 10.1486 0.0042 31.5387 0.0123
# 6 -0.0181 0.0095 -0.0123 0.6002 0.0123 25.7649
#
#
#
# Elastic Compliance Matrix: (Units=1/GPa)
#
#
# Indices 1 2 3 4 5 6 
#
# 1 0.015061 -0.004340 -0.001212 -0.000009 -0.002401 0.000013
# 2 -0.004340 0.012898 -0.003139 0.000006 0.008243 -0.000013
# 3 -0.001212 -0.003139 0.011339 0.000014 -0.005349 0.000008
# 4 -0.000009 0.000006 0.000014 0.037301 -0.000006 -0.000869
# 5 -0.002401 0.008243 -0.005349 -0.000006 0.038041 -0.000025
# 6 0.000013 -0.000013 0.000008 -0.000869 -0.000025 0.038833
#
#
# Mechanical properties :
#
#
# Convention : Reuss Voigt Hill
#
# Bulk Modulus (GPa) = 45.63067 46.78107 46.20587
# Shear Modulus (GPa) = 28.06452 30.97826 29.52139
#
# Velocity S-wave (km/s) = 3.44493 3.61935 3.53322
# Velocity P-wave (km/s) = 5.92614 6.10315 6.01530
#
# Compressibility (1/GPa) = 0.02191509
#
# Stress axis : x y z
#
# Youngs Moduli (GPa) = 66.39846 77.52945 88.18872
#
# Poissons Ratio (x) = 0.33650 0.10691
# Poissons Ratio (y) = 0.28819 0.27682
# Poissons Ratio (z) = 0.08050 0.24336
#
# Static dielectric constant tensor:
#      x y z
#    x 2.220810 -0.001030 -0.072610 
#    y -0.001030 1.711160 0.000350 
#    z -0.072610 0.000350 1.915160 
# 
# From -- ./inp_files/249188.got.cif
#   From: 2010.05.17/outbox.cif.g08.bks.cpg/sg15_125_cif.got.tgz:249188.got - 2010.06.03 18:47:42.
