data_PCOD9293115
_publ_section_title
;
Structure prediction by ZEFSAII (Michael W. Deem and Ramdas Pophale) SiO2 
 PCOD9293115
Probable space group: C 2/C
;
_chemical_formula_sum "Si O2"
_cell_formula_units_Z 56
_cell_length_a 9.088611
_cell_length_b 30.747982
_cell_length_c 10.218423
_cell_angle_alpha 90.000000
_cell_angle_beta 68.952606
_cell_angle_gamma 90.000000
_cell_volume 2665.088764
_symmetry_space_group_name_H-M "C 2/C"
_symmetry_group_IT_number 15
_symmetry_cell_setting 'monoclinic'
loop_
_space_group_symop_operation_xyz
x,y,z
-x,y,1/2-z
-x,-y,-z
x,-y,1/2+z
1/2+x,1/2+y,z
1/2-x,1/2+y,1/2-z
1/2-x,1/2-y,-z
1/2+x,1/2-y,1/2+z
loop_
_atom_site_type_symbol
_atom_site_label
_atom_site_fract_x
_atom_site_fract_y
_atom_site_fract_z
Si Si1 0.609141 0.011526 0.590323
Si Si2 0.648118 0.574644 0.876732
Si Si3 0.034127 0.166992 0.958249
Si Si4 0.176726 0.663060 0.963604
Si Si5 0.216000 0.067073 0.558995
Si Si6 0.000000 0.704455 0.250000
Si Si7 0.000000 0.803647 0.750000
Si Si8 0.746152 0.766310 0.237875
O O1 0.500000 0.018614 0.750000
O O2 0.738485 0.050798 0.555180
O O3 0.500000 0.000000 0.500000
O O4 0.705854 0.967097 0.562082
O O5 0.691269 0.554959 0.720145
O O6 0.458949 0.570866 0.945568
O O7 0.649371 0.627358 0.879004
O O8 0.997168 0.166806 0.123034
O O9 0.864161 0.169140 0.941420
O O10 0.129964 0.210053 0.894352
O O11 0.180301 0.610711 0.956698
O O12 0.156059 0.696133 0.848205
O O13 0.041820 0.675467 0.111100
O O14 0.850253 0.736201 0.298765
O O15 0.857264 0.769602 0.800237
#
# Coordination Sequence:
#
# PCOD9293115 Si02
#       8
#     8   8   8   8   8   4   4   8
#     4  12  25  47  71 103 142 169 213 282 343 415
#     4  10  22  46  73  96 129 179 222 271 336 414
#     4  11  22  44  66  94 133 176 225 277 329 393
#     4  11  22  41  68  95 126 176 225 276 325 399
#     4  10  22  44  73  99 129 172 229 268 338 411
#     4  12  22  36  66  94 134 172 230 272 330 386
#     4  12  26  40  56 102 140 172 228 284 332 384
#     4  12  22  42  66  91 130 182 227 277 331 388
#
# _framework density 21.012432
#
# number of rings (size 3 to 8) (size 9 to 14) (size 15 to 20)
#    0.000    0.857    5.714    2.143    1.000    0.000 
#   11.571    0.000    0.000    0.000    0.000    0.000 
#    0.000    0.000    0.000    0.000    0.000    0.000 
#
# Total GULP energy -155876.680328 kJ/mol
# GULP energy per Si atom -5567.024297 kJ/mol
# Density = 2.096461 g / cm^3
# Si number density = 21.012432 Si / 1000 Ang^3
#
#
#
# Elastic Constant Matrix: (Units=GPa)
#
#
# Indices 1 2 3 4 5 6 
#
# 1 45.9400 19.8639 -13.8626 0.0000 12.3541 0.0000
# 2 19.8639 66.3771 -4.0701 0.0000 -7.5284 0.0000
# 3 -13.8626 -4.0701 42.7535 0.0000 -2.3752 0.0000
# 4 0.0000 0.0000 0.0000 641.4878 0.0000 315.9229
# 5 12.3541 -7.5284 -2.3752 0.0000 27.6803 0.0000
# 6 0.0000 0.0000 0.0000 315.9229 0.0000 173.2091
#
#
#
# Elastic Compliance Matrix: (Units=1/GPa)
#
#
# Indices 1 2 3 4 5 6 
#
# 1 0.034338 -0.011734 0.009031 0.000000 -0.017742 0.000000
# 2 -0.011734 0.019682 -0.001349 0.000000 0.010475 0.000000
# 3 0.009031 -0.001349 0.026070 0.000000 -0.002161 0.000000
# 4 0.000000 0.000000 0.000000 0.015322 0.000000 -0.027947
# 5 -0.017742 0.010475 -0.002161 0.000000 0.046709 0.000000
# 6 0.000000 0.000000 0.000000 -0.027947 0.000000 0.056748
#
#
# Mechanical properties :
#
#
# Convention : Reuss Voigt Hill
#
# Bulk Modulus (GPa) = 13.89182 17.65921 15.77551
# Shear Modulus (GPa) = 21.64800 178.68474 100.16637
#
# Velocity S-wave (km/s) = 3.21323 9.23159 6.91184
# Velocity P-wave (km/s) = 4.51575 11.04772 8.43932
#
# Compressibility (1/GPa) = 0.07198482
#
# Stress axis : x y z
#
# Youngs Moduli (GPa) = 29.12255 50.80702 38.35874
#
# Poissons Ratio (x) = 0.59619 -0.34642
# Poissons Ratio (y) = 0.34173 0.05175
# Poissons Ratio (z) = -0.26301 0.06854
#
# Static dielectric constant tensor:
#      x y z
#    x 1.955210 0.000000 -0.022740 
#    y 0.000000 1.838390 0.000000 
#    z -0.022740 0.000000 1.787840 
# 
# From -- ./inp_files/81315.got.cif
#   From: 2010.05.17/outbox.cif.g08.bks.cpg/sg15_41_cif.got.tgz:81315.got - 2010.06.03 18:47:42.
