data_PCOD9293466
_publ_section_title
;
Structure prediction by ZEFSAII (Michael W. Deem and Ramdas Pophale) SiO2 
 PCOD9293466
Probable space group: C 2/C
;
_chemical_formula_sum "Si O2"
_cell_formula_units_Z 24
_cell_length_a 12.819506
_cell_length_b 8.766096
_cell_length_c 10.002401
_cell_angle_alpha 90.000000
_cell_angle_beta 54.418113
_cell_angle_gamma 90.000000
_cell_volume 914.164604
_symmetry_space_group_name_H-M "C 2/C"
_symmetry_group_IT_number 15
_symmetry_cell_setting 'monoclinic'
loop_
_space_group_symop_operation_xyz
x,y,z
-x,y,1/2-z
-x,-y,-z
x,-y,1/2+z
1/2+x,1/2+y,z
1/2-x,1/2+y,1/2-z
1/2-x,1/2-y,-z
1/2+x,1/2-y,1/2+z
loop_
_atom_site_type_symbol
_atom_site_label
_atom_site_fract_x
_atom_site_fract_y
_atom_site_fract_z
Si Si1 0.979330 0.176302 0.982767
Si Si2 0.649930 0.126500 0.518560
Si Si3 0.189650 0.641138 0.191708
O O1 0.085333 0.228695 0.796834
O O2 0.018901 0.283942 0.078874
O O3 0.832308 0.197163 0.053168
O O4 0.000000 0.000000 0.000000
O O5 0.750000 0.250000 0.500000
O O6 0.698239 0.071179 0.336410
O O7 0.645189 0.986954 0.622413
#
# Coordination Sequence:
#
# PCOD9293466 Si02
#       3
#     8   8   8
#     4  10  22  46  86 126 173 231 297 359 444 532
#     4  10  22  45  86 125 175 225 299 352 451 524
#     4  10  22  47  88 124 176 233 291 370 443 529
#
# _framework density 26.253478000000001
#
# number of rings (size 3 to 8) (size 9 to 14) (size 15 to 20)
#    2.000    0.000    3.333    0.000    0.000    1.333 
#    0.000   13.333   14.667    4.000    0.000    0.000 
#    0.000    0.000    0.000    0.000    0.000    0.000 
#
# Total GULP energy -67285.664254 kJ/mol
# GULP energy per Si atom -5607.138688 kJ/mol
# Density = 2.619372 g / cm^3
# Si number density = 26.253478 Si / 1000 Ang^3
#
#
#
# Elastic Constant Matrix: (Units=GPa)
#
#
# Indices 1 2 3 4 5 6 
#
# 1 228.6816 108.4997 87.6001 0.0000 -38.2863 0.0000
# 2 108.4997 226.1836 108.7770 0.0000 -19.0435 0.0000
# 3 87.6001 108.7770 182.7414 0.0000 -11.2631 0.0000
# 4 0.0000 0.0000 0.0000 63.2381 0.0000 11.4079
# 5 -38.2863 -19.0435 -11.2631 0.0000 70.6700 0.0000
# 6 0.0000 0.0000 0.0000 11.4079 0.0000 64.9801
#
#
#
# Elastic Compliance Matrix: (Units=1/GPa)
#
#
# Indices 1 2 3 4 5 6 
#
# 1 0.006444 -0.002046 -0.001707 0.000000 0.002668 0.000000
# 2 -0.002046 0.006929 -0.003128 0.000000 0.000260 0.000000
# 3 -0.001707 -0.003128 0.008123 0.000000 -0.000473 0.000000
# 4 0.000000 0.000000 0.000000 0.016330 0.000000 -0.002867
# 5 0.002668 0.000260 -0.000473 0.000000 0.015590 0.000000
# 6 0.000000 0.000000 0.000000 -0.002867 0.000000 0.015893
#
#
# Mechanical properties :
#
#
# Convention : Reuss Voigt Hill
#
# Bulk Modulus (GPa) = 129.27846 138.59558 133.93702
# Shear Modulus (GPa) = 58.37876 61.95962 60.16919
#
# Velocity S-wave (km/s) = 4.72068 4.86331 4.79253
# Velocity P-wave (km/s) = 8.89171 9.18921 9.04168
#
# Compressibility (1/GPa) = 0.00773524
#
# Stress axis : x y z
#
# Youngs Moduli (GPa) = 155.18354 144.33138 123.10743
#
# Poissons Ratio (x) = 0.29525 0.21014
# Poissons Ratio (y) = 0.31745 0.38502
# Poissons Ratio (z) = 0.26489 0.45140
#
# Static dielectric constant tensor:
#      x y z
#    x 2.064850 0.000000 0.092420 
#    y 0.000000 1.996270 0.000000 
#    z 0.092420 0.000000 2.204980 
# 
# From -- ./inp_files/93105.got.cif
#   From: 2010.05.17/outbox.cif.g08.bks.cpg/sg15_47_cif.got.tgz:93105.got - 2010.06.03 18:47:42.
