data_PCOD9293842
_publ_section_title
;
Structure prediction by ZEFSAII (Michael W. Deem and Ramdas Pophale) SiO2 
 PCOD9293842
Probable space group: C 2/C
;
_chemical_formula_sum "Si O2"
_cell_formula_units_Z 52
_cell_length_a 14.824125
_cell_length_b 28.842362
_cell_length_c 8.796321
_cell_angle_alpha 90.000000
_cell_angle_beta 142.519649
_cell_angle_gamma 90.000000
_cell_volume 2288.515835
_symmetry_space_group_name_H-M "C 2/C"
_symmetry_group_IT_number 15
_symmetry_cell_setting 'monoclinic'
loop_
_space_group_symop_operation_xyz
x,y,z
-x,y,1/2-z
-x,-y,-z
x,-y,1/2+z
1/2+x,1/2+y,z
1/2-x,1/2+y,1/2-z
1/2-x,1/2-y,-z
1/2+x,1/2-y,1/2+z
loop_
_atom_site_type_symbol
_atom_site_label
_atom_site_fract_x
_atom_site_fract_y
_atom_site_fract_z
Si Si1 0.792315 0.365490 0.775718
Si Si2 0.333348 0.202483 0.586996
Si Si3 0.000000 0.579228 0.750000
Si Si4 0.702450 0.453594 0.997834
Si Si5 0.387889 0.540730 0.456695
Si Si6 0.853757 0.850165 0.456543
Si Si7 0.340967 0.701358 0.624133
O O1 0.684119 0.408771 0.627158
O O2 0.773860 0.335311 0.603543
O O3 0.753349 0.329028 0.854676
O O4 0.943354 0.388311 0.037195
O O5 0.500000 0.209501 0.750000
O O6 0.250000 0.250000 0.500000
O O7 0.299188 0.173568 0.691821
O O8 0.860363 0.551531 0.625418
O O9 0.708898 0.496412 0.121966
O O10 0.668139 0.405462 0.040894
O O11 0.591768 0.462650 0.702174
O O12 0.500000 0.542226 0.750000
O O13 0.880293 0.825079 0.332480
O O14 0.000000 0.838231 0.750000
O O15 0.500000 0.706623 0.750000
O O16 0.250000 0.750000 0.500000
#
# Coordination Sequence:
#
# PCOD9293842 Si02
#       7
#     8   8   4   8   8   8   8
#     4  11  23  45  75 102 152 194 245 322 369 456
#     4  12  24  46  74 107 144 196 252 308 378 452
#     4  10  22  48  72 106 152 198 260 298 392 446
#     4  11  25  44  75 113 150 208 250 317 378 466
#     4  11  24  43  74 110 153 195 258 314 382 454
#     4  12  26  47  76 112 153 202 256 308 387 459
#     4  12  30  51  75 114 153 197 256 323 388 460
#
# _framework density 22.722151
#
# number of rings (size 3 to 8) (size 9 to 14) (size 15 to 20)
#    0.000    0.615    3.846    3.692    4.308    7.385 
#    1.385    0.000    1.692    0.000    0.000    0.000 
#    0.000    0.000    0.000    0.000    0.000    0.000 
#
# Total GULP energy -144966.704113 kJ/mol
# GULP energy per Si atom -5575.642466 kJ/mol
# Density = 2.267043 g / cm^3
# Si number density = 22.722151 Si / 1000 Ang^3
#
#
#
# Elastic Constant Matrix: (Units=GPa)
#
#
# Indices 1 2 3 4 5 6 
#
# 1 140.1040 86.0274 54.1427 0.0000 10.4122 0.0000
# 2 86.0274 197.2439 52.1748 0.0000 -12.8382 0.0000
# 3 54.1427 52.1748 107.5788 0.0000 -10.8134 0.0000
# 4 0.0000 0.0000 0.0000 15.0162 0.0000 -0.6720
# 5 10.4122 -12.8382 -10.8134 0.0000 46.1992 0.0000
# 6 0.0000 0.0000 0.0000 -0.6720 0.0000 35.2532
#
#
#
# Elastic Compliance Matrix: (Units=1/GPa)
#
#
# Indices 1 2 3 4 5 6 
#
# 1 0.011843 -0.004333 -0.004351 0.000000 -0.004891 0.000000
# 2 -0.004333 0.007445 -0.001151 0.000000 0.002776 0.000000
# 3 -0.004351 -0.001151 0.012401 0.000000 0.003563 0.000000
# 4 0.000000 0.000000 0.000000 0.066652 0.000000 0.001270
# 5 -0.004891 0.002776 0.003563 0.000000 0.024353 0.000000
# 6 0.000000 0.000000 0.000000 0.001270 0.000000 0.028390
#
#
# Mechanical properties :
#
#
# Convention : Reuss Voigt Hill
#
# Bulk Modulus (GPa) = 83.19259 92.17958 87.68609
# Shear Modulus (GPa) = 28.61069 36.13250 32.37160
#
# Velocity S-wave (km/s) = 3.55231 3.99204 3.77858
# Velocity P-wave (km/s) = 7.31558 7.86796 7.59679
#
# Compressibility (1/GPa) = 0.01202030
#
# Stress axis : x y z
#
# Youngs Moduli (GPa) = 84.43988 134.32342 80.63549
#
# Poissons Ratio (x) = 0.58199 0.35081
# Poissons Ratio (y) = 0.36586 0.09281
# Poissons Ratio (z) = 0.36736 0.15461
#
# Static dielectric constant tensor:
#      x y z
#    x 1.761340 0.000000 0.138150 
#    y 0.000000 1.978080 0.000000 
#    z 0.138150 0.000000 1.774230 
# 
# From -- ./inp_files/44917.got.cif
#   From: 2010.05.17/outbox.cif.g08.bks.cpg/sg15_23_cif.got.tgz:44917.got - 2010.06.03 18:47:42.
