data_PCOD9293239
_publ_section_title
;
Structure prediction by ZEFSAII (Michael W. Deem and Ramdas Pophale) SiO2 
 PCOD9293239
Probable space group: C 2/C
;
_chemical_formula_sum "Si O2"
_cell_formula_units_Z 40
_cell_length_a 11.093616
_cell_length_b 10.018572
_cell_length_c 14.342509
_cell_angle_alpha 90.000000
_cell_angle_beta 79.393998
_cell_angle_gamma 90.000000
_cell_volume 1566.825103
_symmetry_space_group_name_H-M "C 2/C"
_symmetry_group_IT_number 15
_symmetry_cell_setting 'monoclinic'
loop_
_space_group_symop_operation_xyz
x,y,z
-x,y,1/2-z
-x,-y,-z
x,-y,1/2+z
1/2+x,1/2+y,z
1/2-x,1/2+y,1/2-z
1/2-x,1/2-y,-z
1/2+x,1/2-y,1/2+z
loop_
_atom_site_type_symbol
_atom_site_label
_atom_site_fract_x
_atom_site_fract_y
_atom_site_fract_z
Si Si1 0.083000 0.310142 0.097304
Si Si2 0.182588 0.366260 0.900863
Si Si3 0.398903 0.608969 0.042289
Si Si4 0.179474 0.470309 0.703034
Si Si5 0.459222 0.707350 0.848535
O O1 0.186764 0.195777 0.091801
O O2 0.105938 0.399877 0.183203
O O3 0.959111 0.233697 0.089244
O O4 0.120542 0.408609 0.006336
O O5 0.196451 0.463628 0.811651
O O6 0.085501 0.252405 0.880995
O O7 0.301866 0.542085 0.124350
O O8 0.500000 0.500000 0.000000
O O9 0.366963 0.654653 0.941232
O O10 0.105206 0.339081 0.682668
O O11 0.500000 0.625441 0.750000
#
# Coordination Sequence:
#
# PCOD9293239 Si02
#       5
#     8   8   8   8   8
#     4  10  22  45  66  93 139 171 220 283 333 400
#     4   9  20  42  64  91 129 175 208 270 341 390
#     4  11  23  42  65  96 133 176 221 273 336 402
#     4  11  22  42  67  99 126 173 225 272 338 401
#     4   9  20  41  64  92 128 170 217 270 335 401
#
# _framework density 25.529332
#
# number of rings (size 3 to 8) (size 9 to 14) (size 15 to 20)
#    0.000    2.000    0.000    4.200    0.000    4.000 
#   36.000    0.000    0.000    0.000    0.000    0.000 
#    0.000    0.000    0.000    0.000    0.000    0.000 
#
# Total GULP energy -111815.611568 kJ/mol
# GULP energy per Si atom -5590.780578 kJ/mol
# Density = 2.547123 g / cm^3
# Si number density = 25.529332 Si / 1000 Ang^3
#
#
#
# Elastic Constant Matrix: (Units=GPa)
#
#
# Indices 1 2 3 4 5 6 
#
# 1 85.6546 14.5292 64.1606 0.0000 -17.5537 0.0000
# 2 14.5292 61.4151 24.6605 0.0000 -2.7807 0.0000
# 3 64.1606 24.6605 113.8859 0.0000 -6.2004 0.0000
# 4 0.0000 0.0000 0.0000 30.2367 0.0000 -5.4531
# 5 -17.5537 -2.7807 -6.2004 0.0000 51.6145 0.0000
# 6 0.0000 0.0000 0.0000 -5.4531 0.0000 -23.6721
#
#
#
# Elastic Compliance Matrix: (Units=1/GPa)
#
#
# Indices 1 2 3 4 5 6 
#
# 1 0.021905 -0.000095 -0.011993 0.000000 0.006004 0.000000
# 2 -0.000095 0.017846 -0.003785 0.000000 0.000475 0.000000
# 3 -0.011993 -0.003785 0.016230 0.000000 -0.002333 0.000000
# 4 0.000000 0.000000 0.000000 0.031753 0.000000 -0.007315
# 5 0.006004 0.000475 -0.002333 0.000000 0.021162 0.000000
# 6 0.000000 0.000000 0.000000 -0.007315 0.000000 -0.040559
#
#
# Mechanical properties :
#
#
# Convention : Reuss Voigt Hill
#
# Bulk Modulus (GPa) = 41.26244 51.96179 46.61212
# Shear Modulus (GPa) = 46.22672 22.14285 34.18479
#
# Velocity S-wave (km/s) = 4.25988 2.94827 3.66326
# Velocity P-wave (km/s) = 6.35557 5.65577 6.01586
#
# Compressibility (1/GPa) = 0.02423512
#
# Stress axis : x y z
#
# Youngs Moduli (GPa) = 45.65152 56.03360 61.61366
#
# Poissons Ratio (x) = 0.00530 0.73896
# Poissons Ratio (y) = 0.00432 0.23323
# Poissons Ratio (z) = 0.54752 0.21210
#
# Static dielectric constant tensor:
#      x y z
#    x 2.039790 0.000000 -0.025880 
#    y 0.000000 2.053630 0.000000 
#    z -0.025880 0.000000 2.172100 
# 
# From -- ./inp_files/141752.got.cif
#   From: 2010.05.17/outbox.cif.g08.bks.cpg/sg15_71_cif.got.tgz:141752.got - 2010.06.03 18:47:42.
