data_PCOD9293283
_publ_section_title
;
Structure prediction by ZEFSAII (Michael W. Deem and Ramdas Pophale) SiO2 
 PCOD9293283
Probable space group: C 2/C
;
_chemical_formula_sum "Si O2"
_cell_formula_units_Z 44
_cell_length_a 8.636406
_cell_length_b 27.260780
_cell_length_c 10.895711
_cell_angle_alpha 90.000000
_cell_angle_beta 56.929244
_cell_angle_gamma 90.000000
_cell_volume 2149.658855
_symmetry_space_group_name_H-M "C 2/C"
_symmetry_group_IT_number 15
_symmetry_cell_setting 'monoclinic'
loop_
_space_group_symop_operation_xyz
x,y,z
-x,y,1/2-z
-x,-y,-z
x,-y,1/2+z
1/2+x,1/2+y,z
1/2-x,1/2+y,1/2-z
1/2-x,1/2-y,-z
1/2+x,1/2-y,1/2+z
loop_
_atom_site_type_symbol
_atom_site_label
_atom_site_fract_x
_atom_site_fract_y
_atom_site_fract_z
Si Si1 0.203989 0.675844 0.190995
Si Si2 0.527904 0.342012 0.377035
Si Si3 0.296192 0.241886 0.837889
Si Si4 0.500000 0.007725 0.750000
Si Si5 0.250837 0.066721 0.235469
Si Si6 0.146171 0.931741 0.499839
O O1 0.290214 0.707737 0.263501
O O2 0.195953 0.618854 0.230638
O O3 0.000000 0.694307 0.250000
O O4 0.335492 0.676836 0.016559
O O5 0.500000 0.359233 0.250000
O O6 0.663251 0.296088 0.328694
O O7 0.608035 0.384647 0.430519
O O8 0.500000 0.220474 0.750000
O O9 0.250000 0.250000 0.000000
O O10 0.584348 0.971789 0.817505
O O11 0.679322 0.038559 0.630069
O O12 0.063591 0.047508 0.385866
O O13 0.206678 0.077947 0.113516
#
# Coordination Sequence:
#
# PCOD9293283 Si02
#       6
#     8   8   8   4   8   8
#     4  11  24  43  68  94 131 181 224 265 333 403
#     4  11  26  46  65  99 138 179 223 279 334 394
#     4  12  25  42  69  99 134 173 225 274 335 398
#     4  12  22  42  68 108 124 176 220 282 338 396
#     4  10  22  45  68  94 134 176 221 273 334 407
#     4  10  24  43  67  96 136 172 221 276 339 393
#
# _framework density 20.468364000000001
#
# number of rings (size 3 to 8) (size 9 to 14) (size 15 to 20)
#    0.000    1.091    2.727    2.727    6.364    2.909 
#    9.818    0.000    0.000    0.000    0.000    0.000 
#    0.000    0.000    0.000    0.000    0.000    0.000 
#
# Total GULP energy -122803.950840 kJ/mol
# GULP energy per Si atom -5581.997765 kJ/mol
# Density = 2.042178 g / cm^3
# Si number density = 20.468364 Si / 1000 Ang^3
#
#
#
# Elastic Constant Matrix: (Units=GPa)
#
#
# Indices 1 2 3 4 5 6 
#
# 1 118.1478 39.6499 46.9440 0.0000 -8.1418 0.0000
# 2 39.6499 64.2404 39.1353 0.0000 -11.4191 0.0000
# 3 46.9440 39.1353 122.3549 0.0000 5.9944 0.0000
# 4 0.0000 0.0000 0.0000 19.9584 0.0000 3.1840
# 5 -8.1418 -11.4191 5.9944 0.0000 30.7408 0.0000
# 6 0.0000 0.0000 0.0000 3.1840 0.0000 41.8357
#
#
#
# Elastic Compliance Matrix: (Units=1/GPa)
#
#
# Indices 1 2 3 4 5 6 
#
# 1 0.011392 -0.004981 -0.002862 0.000000 0.001725 0.000000
# 2 -0.004981 0.023973 -0.006188 0.000000 0.008792 0.000000
# 3 -0.002862 -0.006188 0.011510 0.000000 -0.005301 0.000000
# 4 0.000000 0.000000 0.000000 0.050720 0.000000 -0.003860
# 5 0.001725 0.008792 -0.005301 0.000000 0.037287 0.000000
# 6 0.000000 0.000000 0.000000 -0.003860 0.000000 0.024197
#
#
# Mechanical properties :
#
#
# Convention : Reuss Voigt Hill
#
# Bulk Modulus (GPa) = 53.15282 61.80017 57.47650
# Shear Modulus (GPa) = 25.85181 30.44125 28.14653
#
# Velocity S-wave (km/s) = 3.55775 3.86065 3.71229
# Velocity P-wave (km/s) = 6.54992 7.08035 6.82029
#
# Compressibility (1/GPa) = 0.01881368
#
# Stress axis : x y z
#
# Youngs Moduli (GPa) = 87.78426 41.71332 86.88244
#
# Poissons Ratio (x) = 0.20777 0.24866
# Poissons Ratio (y) = 0.43724 0.53759
# Poissons Ratio (z) = 0.25124 0.25810
#
# Static dielectric constant tensor:
#      x y z
#    x 1.716310 0.000000 -0.022190 
#    y 0.000000 1.708660 0.000000 
#    z -0.022190 0.000000 1.677620 
# 
# From -- ./inp_files/25963.got.cif
#   From: 2010.05.17/outbox.cif.g08.bks.cpg/sg15_13_cif.got.tgz:25963.got - 2010.06.03 18:47:42.
