data_PCOD9293927
_publ_section_title
;
Structure prediction by ZEFSAII (Michael W. Deem and Ramdas Pophale) SiO2 
 PCOD9293927
Probable space group: C 2/C
;
_chemical_formula_sum "Si O2"
_cell_formula_units_Z 60
_cell_length_a 21.089154
_cell_length_b 17.042459
_cell_length_c 8.464459
_cell_angle_alpha 90.000000
_cell_angle_beta 78.383313
_cell_angle_gamma 90.000000
_cell_volume 2979.905161
_symmetry_space_group_name_H-M "C 2/C"
_symmetry_group_IT_number 15
_symmetry_cell_setting 'monoclinic'
loop_
_space_group_symop_operation_xyz
x,y,z
-x,y,1/2-z
-x,-y,-z
x,-y,1/2+z
1/2+x,1/2+y,z
1/2-x,1/2+y,1/2-z
1/2-x,1/2-y,-z
1/2+x,1/2-y,1/2+z
loop_
_atom_site_type_symbol
_atom_site_label
_atom_site_fract_x
_atom_site_fract_y
_atom_site_fract_z
Si Si1 0.000000 0.194223 0.750000
Si Si2 0.944631 0.067604 0.026172
Si Si3 0.722231 0.385065 0.312507
Si Si4 0.781100 0.349833 0.820212
Si Si5 0.676477 0.217799 0.865201
Si Si6 0.877702 0.251397 0.622123
Si Si7 0.301963 0.481013 0.485603
Si Si8 0.427539 0.295332 0.756602
O O1 0.943179 0.243045 0.691671
O O2 0.030428 0.135347 0.604529
O O3 0.875481 0.036037 0.002164
O O4 0.931250 0.113924 0.197516
O O5 0.000000 0.000000 0.000000
O O6 0.792992 0.348492 0.261588
O O7 0.672501 0.315793 0.296558
O O8 0.710477 0.427268 0.483404
O O9 0.708128 0.448772 0.184307
O O10 0.718752 0.296051 0.815064
O O11 0.837636 0.332168 0.665746
O O12 0.751160 0.433085 0.883457
O O13 0.811337 0.313171 0.965835
O O14 0.604824 0.243526 0.863198
O O15 0.890914 0.225353 0.436147
O O16 0.500000 0.270081 0.750000
#
# Coordination Sequence:
#
# PCOD9293927 Si02
#       8
#     4   8   8   8   8   8   8   8
#     4  12  22  40  54  78 122 164 200 230 290 376
#     4  12  26  37  56  82 128 169 196 235 286 366
#     4  10  23  36  59  83 115 155 203 245 301 350
#     4   9  19  38  64  79 111 159 205 250 299 348
#     4   9  19  40  58  83 113 152 202 253 290 355
#     4  11  23  38  58  86 115 164 203 248 302 351
#     4  11  22  38  57  90 117 160 200 249 296 356
#     4  12  25  38  56  89 119 154 203 250 298 354
#
# _framework density 20.134868999999998
#
# number of rings (size 3 to 8) (size 9 to 14) (size 15 to 20)
#    0.000    1.333    4.000    2.400    2.800    3.200 
#    0.000    0.000    0.000    0.000    1.733    2.800 
#    0.000    0.000    0.000    0.000    0.000    0.000 
#
# Total GULP energy -167527.789287 kJ/mol
# GULP energy per Si atom -5584.259643 kJ/mol
# Density = 2.008904 g / cm^3
# Si number density = 20.134869 Si / 1000 Ang^3
#
#
#
# Elastic Constant Matrix: (Units=GPa)
#
#
# Indices 1 2 3 4 5 6 
#
# 1 104.6352 44.4436 14.6711 0.0000 5.8123 0.0000
# 2 44.4436 37.2662 10.1413 0.0000 1.9205 0.0000
# 3 14.6711 10.1413 62.8451 0.0000 -11.5228 0.0000
# 4 0.0000 0.0000 0.0000 38.6352 0.0000 -11.7085
# 5 5.8123 1.9205 -11.5228 0.0000 27.3022 0.0000
# 6 0.0000 0.0000 0.0000 -11.7085 0.0000 28.3952
#
#
#
# Elastic Compliance Matrix: (Units=1/GPa)
#
#
# Indices 1 2 3 4 5 6 
#
# 1 0.019660 -0.022878 -0.001485 0.000000 -0.003203 0.000000
# 2 -0.022878 0.055142 -0.003659 0.000000 -0.000553 0.000000
# 3 -0.001485 -0.003659 0.018376 0.000000 0.008329 0.000000
# 4 0.000000 0.000000 0.000000 0.029579 0.000000 0.012197
# 5 -0.003203 -0.000553 0.008329 0.000000 0.040863 0.000000
# 6 0.000000 0.000000 0.000000 0.012197 0.000000 0.040246
#
#
# Mechanical properties :
#
#
# Convention : Reuss Voigt Hill
#
# Bulk Modulus (GPa) = 26.92848 38.13984 32.53416
# Shear Modulus (GPa) = 18.36278 27.89923 23.13101
#
# Velocity S-wave (km/s) = 3.02319 3.72643 3.39308
# Velocity P-wave (km/s) = 5.05859 6.12359 5.61639
#
# Compressibility (1/GPa) = 0.03713540
#
# Stress axis : x y z
#
# Youngs Moduli (GPa) = 50.86350 18.13498 54.41741
#
# Poissons Ratio (x) = 0.41489 0.08082
# Poissons Ratio (y) = 1.16364 0.19910
# Poissons Ratio (z) = 0.07554 0.06635
#
# Static dielectric constant tensor:
#      x y z
#    x 1.701440 0.000000 -0.023030 
#    y 0.000000 1.705990 0.000000 
#    z -0.023030 0.000000 1.817080 
# 
# From -- ./inp_files/56598.got.cif
#   From: 2010.05.17/outbox.cif.g08.bks.cpg/sg15_29_cif.got.tgz:56598.got - 2010.06.03 18:47:42.
