data_PCOD9293148
_publ_section_title
;
Structure prediction by ZEFSAII (Michael W. Deem and Ramdas Pophale) SiO2 
 PCOD9293148
Probable space group: C 2/C
;
_chemical_formula_sum "Si O2"
_cell_formula_units_Z 36
_cell_length_a 12.702396
_cell_length_b 7.127440
_cell_length_c 19.377121
_cell_angle_alpha 90.000000
_cell_angle_beta 47.925376
_cell_angle_gamma 90.000000
_cell_volume 1302.182801
_symmetry_space_group_name_H-M "C 2/C"
_symmetry_group_IT_number 15
_symmetry_cell_setting 'monoclinic'
loop_
_space_group_symop_operation_xyz
x,y,z
-x,y,1/2-z
-x,-y,-z
x,-y,1/2+z
1/2+x,1/2+y,z
1/2-x,1/2+y,1/2-z
1/2-x,1/2-y,-z
1/2+x,1/2-y,1/2+z
loop_
_atom_site_type_symbol
_atom_site_label
_atom_site_fract_x
_atom_site_fract_y
_atom_site_fract_z
Si Si1 0.891468 0.868387 0.145062
Si Si2 0.328407 0.638247 0.904679
Si Si3 0.400581 0.931021 0.155049
Si Si4 0.657966 0.223675 0.470919
Si Si5 0.000000 0.441445 0.750000
O O1 0.761415 0.897490 0.253818
O O2 0.925878 0.647761 0.127156
O O3 0.840771 0.887109 0.087647
O O4 0.031355 0.949647 0.119806
O O5 0.230065 0.475496 0.916048
O O6 0.379701 0.793247 0.827127
O O7 0.250000 0.750000 0.000000
O O8 0.472561 0.922074 0.198757
O O9 0.493228 0.807330 0.063245
O O10 0.750000 0.250000 0.500000
#
# Coordination Sequence:
#
# PCOD9293148 Si02
#       5
#     8   8   8   8   4
#     4  11  27  44  74 104 146 186 243 293 360 435
#     4  11  25  46  71 104 137 196 228 294 363 421
#     4  11  25  47  67 108 137 188 231 300 357 426
#     4  12  27  47  73 104 147 184 245 298 352 436
#     4  10  22  44  74  96 148 176 244 286 360 434
#
# _framework density 27.645887999999999
#
# number of rings (size 3 to 8) (size 9 to 14) (size 15 to 20)
#    0.000    0.889    4.444    2.000    9.333    0.889 
#    0.000    0.000    0.000    0.000    0.000    0.000 
#    0.000    0.000    0.000    0.000    0.000    0.000 
#
# Total GULP energy -100771.900832 kJ/mol
# GULP energy per Si atom -5598.438935 kJ/mol
# Density = 2.758296 g / cm^3
# Si number density = 27.645888 Si / 1000 Ang^3
#
#
#
# Elastic Constant Matrix: (Units=GPa)
#
#
# Indices 1 2 3 4 5 6 
#
# 1 141.7715 7.7049 32.2013 0.0000 -16.1224 0.0000
# 2 7.7049 70.9380 22.2912 0.0000 -12.4136 0.0001
# 3 32.2013 22.2912 184.9028 0.0000 -21.3862 0.0000
# 4 0.0000 0.0000 0.0000 47.7073 0.0000 1.0751
# 5 -16.1224 -12.4136 -21.3862 0.0000 55.1670 0.0000
# 6 0.0000 0.0001 0.0000 1.0751 0.0000 57.6664
#
#
#
# Elastic Compliance Matrix: (Units=1/GPa)
#
#
# Indices 1 2 3 4 5 6 
#
# 1 0.007507 -0.000171 -0.001086 0.000000 0.001734 0.000000
# 2 -0.000171 0.015061 -0.001465 0.000000 0.002771 0.000000
# 3 -0.001086 -0.001465 0.005967 0.000000 0.001666 0.000000
# 4 0.000000 0.000000 0.000000 0.020970 0.000000 -0.000391
# 5 0.001734 0.002771 0.001666 0.000000 0.019903 0.000000
# 6 0.000000 0.000000 0.000000 -0.000391 0.000000 0.017348
#
#
# Mechanical properties :
#
#
# Convention : Reuss Voigt Hill
#
# Bulk Modulus (GPa) = 43.30879 58.00077 50.65478
# Shear Modulus (GPa) = 50.05171 54.46913 52.26042
#
# Velocity S-wave (km/s) = 4.25956 4.44356 4.35253
# Velocity P-wave (km/s) = 6.31596 6.88131 6.60469
#
# Compressibility (1/GPa) = 0.02309000
#
# Stress axis : x y z
#
# Youngs Moduli (GPa) = 133.21226 66.39772 167.59519
#
# Poissons Ratio (x) = 0.01132 0.18204
# Poissons Ratio (y) = 0.02272 0.24561
# Poissons Ratio (z) = 0.14469 0.09730
#
# Static dielectric constant tensor:
#      x y z
#    x 2.424950 0.000000 0.099930 
#    y 0.000000 2.165420 0.000000 
#    z 0.099930 0.000000 2.173710 
# 
# From -- ./inp_files/150255.got.cif
#   From: 2010.05.17/outbox.cif.g08.bks.cpg/sg15_76_cif.got.tgz:150255.got - 2010.06.03 18:47:42.
