data_PCOD9293298
_publ_section_title
;
Structure prediction by ZEFSAII (Michael W. Deem and Ramdas Pophale) SiO2 
 PCOD9293298
Probable space group: C 2/C
;
_chemical_formula_sum "Si O2"
_cell_formula_units_Z 36
_cell_length_a 24.168577
_cell_length_b 5.015313
_cell_length_c 18.062120
_cell_angle_alpha 90.000000
_cell_angle_beta 37.308346
_cell_angle_gamma 90.000000
_cell_volume 1326.982475
_symmetry_space_group_name_H-M "C 2/C"
_symmetry_group_IT_number 15
_symmetry_cell_setting 'monoclinic'
loop_
_space_group_symop_operation_xyz
x,y,z
-x,y,1/2-z
-x,-y,-z
x,-y,1/2+z
1/2+x,1/2+y,z
1/2-x,1/2+y,1/2-z
1/2-x,1/2-y,-z
1/2+x,1/2-y,1/2+z
loop_
_atom_site_type_symbol
_atom_site_label
_atom_site_fract_x
_atom_site_fract_y
_atom_site_fract_z
Si Si1 0.810724 0.437770 0.180814
Si Si2 0.594443 0.646886 0.553790
Si Si3 0.837941 0.908513 0.880095
Si Si4 0.547791 0.355305 0.878024
Si Si5 0.000000 0.521056 0.750000
O O1 0.772946 0.735620 0.209351
O O2 0.896641 0.397079 0.145946
O O3 0.846641 0.300230 0.068348
O O4 0.651684 0.632921 0.568545
O O5 0.543111 0.383532 0.577293
O O6 0.512044 0.833006 0.666476
O O7 0.916540 0.705137 0.819886
O O8 0.868053 0.971940 0.763409
O O9 0.750000 0.750000 0.000000
O O10 0.500000 0.500000 0.000000
#
# Coordination Sequence:
#
# PCOD9293298 Si02
#       5
#     8   8   8   8   4
#     4  11  27  47  72 110 151 194 259 320 386 467
#     4  11  24  46  70 104 144 199 252 311 390 463
#     4  12  25  44  73 109 149 196 260 317 384 465
#     4  10  22  45  69 101 148 195 244 316 389 454
#     4  12  24  44  78 100 152 196 260 318 384 458
#
# _framework density 27.129221000000001
#
# number of rings (size 3 to 8) (size 9 to 14) (size 15 to 20)
#    0.000    0.889    4.444    1.333    6.222    4.444 
#    0.000    5.556    0.000    0.000    0.000    0.000 
#    0.000    0.000    0.000    0.000    0.000    0.000 
#
# Total GULP energy -100396.097339 kJ/mol
# GULP energy per Si atom -5577.560963 kJ/mol
# Density = 2.706747 g / cm^3
# Si number density = 27.129221 Si / 1000 Ang^3
#
#
#
# Elastic Constant Matrix: (Units=GPa)
#
#
# Indices 1 2 3 4 5 6 
#
# 1 82.6643 17.2634 40.1316 0.0240 3.3500 -0.0491
# 2 17.2634 73.4799 -6.6065 -0.0480 -2.2654 0.0847
# 3 40.1316 -6.6065 199.6096 0.0017 12.0065 -0.0147
# 4 0.0240 -0.0480 0.0017 24.8526 -0.0413 -7.3770
# 5 3.3500 -2.2654 12.0065 -0.0413 58.6368 -0.0150
# 6 -0.0491 0.0847 -0.0147 -7.3770 -0.0150 18.9225
#
#
#
# Elastic Compliance Matrix: (Units=1/GPa)
#
#
# Indices 1 2 3 4 5 6 
#
# 1 0.014318 -0.003642 -0.002978 -0.000007 -0.000349 0.000048
# 2 -0.003642 0.014588 0.001183 0.000012 0.000529 -0.000069
# 3 -0.002978 0.001183 0.005705 0.000000 -0.000952 -0.000009
# 4 -0.000007 0.000012 0.000000 0.045503 0.000037 0.017739
# 5 -0.000349 0.000529 -0.000952 0.000037 0.017290 0.000024
# 6 0.000048 -0.000069 -0.000009 0.017739 0.000024 0.059763
#
#
# Mechanical properties :
#
#
# Convention : Reuss Voigt Hill
#
# Bulk Modulus (GPa) = 42.13028 50.81450 46.47239
# Shear Modulus (GPa) = 28.41671 40.81342 34.61506
#
# Velocity S-wave (km/s) = 3.23996 3.88288 3.57590
# Velocity P-wave (km/s) = 5.43688 6.23486 5.84949
#
# Compressibility (1/GPa) = 0.02373590
#
# Stress axis : x y z
#
# Youngs Moduli (GPa) = 69.84316 68.55081 175.28534
#
# Poissons Ratio (x) = 0.24969 0.52203
# Poissons Ratio (y) = 0.25440 -0.20741
# Poissons Ratio (z) = 0.20800 -0.08111
#
# Static dielectric constant tensor:
#      x y z
#    x 2.209770 -0.000160 0.029120 
#    y -0.000160 2.278920 -0.000120 
#    z 0.029120 -0.000120 2.188860 
# 
# From -- ./inp_files/170416.got.cif
#   From: 2010.05.17/outbox.cif.g08.bks.cpg/sg15_86_cif.got.tgz:170416.got - 2010.06.03 18:47:42.
