data_PCOD9293984
_publ_section_title
;
Structure prediction by ZEFSAII (Michael W. Deem and Ramdas Pophale) SiO2 
 PCOD9293984
Probable space group: C 2/C
;
_chemical_formula_sum "Si O2"
_cell_formula_units_Z 48
_cell_length_a 18.795519
_cell_length_b 19.537489
_cell_length_c 13.149672
_cell_angle_alpha 90.000000
_cell_angle_beta 147.363291
_cell_angle_gamma 90.000000
_cell_volume 2604.214823
_symmetry_space_group_name_H-M "C 2/C"
_symmetry_group_IT_number 15
_symmetry_cell_setting 'monoclinic'
loop_
_space_group_symop_operation_xyz
x,y,z
-x,y,1/2-z
-x,-y,-z
x,-y,1/2+z
1/2+x,1/2+y,z
1/2-x,1/2+y,1/2-z
1/2-x,1/2-y,-z
1/2+x,1/2-y,1/2+z
loop_
_atom_site_type_symbol
_atom_site_label
_atom_site_fract_x
_atom_site_fract_y
_atom_site_fract_z
Si Si1 0.346489 0.413798 0.392237
Si Si2 0.207029 0.200312 0.813372
Si Si3 0.002265 0.690246 0.369120
Si Si4 0.953983 0.424621 0.411541
Si Si5 0.500000 0.966374 0.250000
Si Si6 0.500000 0.519273 0.250000
Si Si7 0.270623 0.552279 0.585254
O O1 0.362496 0.337791 0.365551
O O2 0.204272 0.418247 0.275100
O O3 0.458829 0.436269 0.603424
O O4 0.327654 0.460356 0.268291
O O5 0.113774 0.256352 0.749614
O O6 0.231603 0.135028 0.917624
O O7 0.351089 0.223900 0.949125
O O8 0.000000 0.665492 0.250000
O O9 0.996433 0.629846 0.445136
O O10 0.000000 0.500000 0.500000
O O11 0.001344 0.420085 0.352694
O O12 0.630638 0.014520 0.405720
O O13 0.626048 0.474273 0.372015
#
# Coordination Sequence:
#
# PCOD9293984 Si02
#       7
#     8   8   8   8   4   4   8
#     4   9  21  38  58  93 129 163 210 261 315 381
#     4   9  23  41  58  91 125 165 210 258 316 377
#     4  11  23  43  63  93 129 165 212 266 315 385
#     4  11  22  38  66  92 126 163 209 269 323 377
#     4  12  20  42  65  99 128 168 212 270 324 374
#     4  12  20  38  63  91 134 170 202 266 322 376
#     4  10  23  37  63  93 129 160 214 257 319 377
#
# _framework density 18.431660000000001
#
# number of rings (size 3 to 8) (size 9 to 14) (size 15 to 20)
#    1.000    0.667    3.333    1.000    5.833    0.000 
#    6.000    0.833    0.000    4.000    0.000    0.000 
#    0.000    0.000    0.000    0.000    0.000    0.000 
#
# Total GULP energy -133697.870735 kJ/mol
# GULP energy per Si atom -5570.744614 kJ/mol
# Density = 1.838971 g / cm^3
# Si number density = 18.431660 Si / 1000 Ang^3
#
#
#
# Elastic Constant Matrix: (Units=GPa)
#
#
# Indices 1 2 3 4 5 6 
#
# 1 134.2518 60.7089 40.6559 0.0000 -4.3481 0.0000
# 2 60.7089 87.2508 49.2481 0.0000 3.1210 0.0000
# 3 40.6559 49.2481 86.8811 0.0000 -4.2986 0.0000
# 4 0.0000 0.0000 0.0000 22.1419 0.0000 0.8996
# 5 -4.3481 3.1210 -4.2986 0.0000 33.0464 0.0000
# 6 0.0000 0.0000 0.0000 0.8996 0.0000 22.1888
#
#
#
# Elastic Compliance Matrix: (Units=1/GPa)
#
#
# Indices 1 2 3 4 5 6 
#
# 1 0.011080 -0.007221 -0.000992 0.000000 0.002011 0.000000
# 2 -0.007221 0.021832 -0.009204 0.000000 -0.004209 0.000000
# 3 -0.000992 -0.009204 0.017340 0.000000 0.002994 0.000000
# 4 0.000000 0.000000 0.000000 0.045238 0.000000 -0.001834
# 5 0.002011 -0.004209 0.002994 0.000000 0.031312 0.000000
# 6 0.000000 0.000000 0.000000 -0.001834 0.000000 0.045142
#
#
# Mechanical properties :
#
#
# Convention : Reuss Voigt Hill
#
# Bulk Modulus (GPa) = 64.86696 67.73439 66.30068
# Shear Modulus (GPa) = 23.59423 25.99348 24.79386
#
# Velocity S-wave (km/s) = 3.58172 3.75942 3.67165
# Velocity P-wave (km/s) = 7.23703 7.46144 7.35009
#
# Compressibility (1/GPa) = 0.01541617
#
# Stress axis : x y z
#
# Youngs Moduli (GPa) = 90.25547 45.80520 57.67133
#
# Poissons Ratio (x) = 0.33077 0.05720
# Poissons Ratio (y) = 0.65176 0.53082
# Poissons Ratio (z) = 0.08952 0.42160
#
# Static dielectric constant tensor:
#      x y z
#    x 1.662410 0.000000 -0.025890 
#    y 0.000000 1.622910 0.000000 
#    z -0.025890 0.000000 1.684070 
# 
# From -- ./inp_files/168925.got.cif
#   From: 2010.05.17/outbox.cif.g08.bks.cpg/sg15_85_cif.got.tgz:168925.got - 2010.06.03 18:47:42.
