data_PCOD9293076
_publ_section_title
;
Structure prediction by ZEFSAII (Michael W. Deem and Ramdas Pophale) SiO2 
 PCOD9293076
Probable space group: C 2/C
;
_chemical_formula_sum "Si O2"
_cell_formula_units_Z 52
_cell_length_a 19.999216
_cell_length_b 16.280033
_cell_length_c 8.901443
_cell_angle_alpha 90.000000
_cell_angle_beta 117.366994
_cell_angle_gamma 90.000000
_cell_volume 2573.836314
_symmetry_space_group_name_H-M "C 2/C"
_symmetry_group_IT_number 15
_symmetry_cell_setting 'monoclinic'
loop_
_space_group_symop_operation_xyz
x,y,z
-x,y,1/2-z
-x,-y,-z
x,-y,1/2+z
1/2+x,1/2+y,z
1/2-x,1/2+y,1/2-z
1/2-x,1/2-y,-z
1/2+x,1/2-y,1/2+z
loop_
_atom_site_type_symbol
_atom_site_label
_atom_site_fract_x
_atom_site_fract_y
_atom_site_fract_z
Si Si1 0.842864 0.575380 0.137675
Si Si2 0.000000 0.657537 0.250000
Si Si3 0.714324 0.760613 0.800181
Si Si4 0.170587 0.157395 0.262144
Si Si5 0.620267 0.631405 0.540653
Si Si6 0.980156 0.175296 0.565396
Si Si7 0.248838 0.013379 0.767828
O O1 0.927768 0.597295 0.178254
O O2 0.825290 0.652484 0.224988
O O3 0.815054 0.500399 0.213511
O O4 0.786979 0.567997 0.937419
O O5 0.992448 0.725422 0.105415
O O6 0.775187 0.768150 0.730847
O O7 0.654291 0.693146 0.698928
O O8 0.750000 0.750000 0.000000
O O9 0.134302 0.164243 0.388111
O O10 0.218151 0.073068 0.301249
O O11 0.104942 0.158441 0.070156
O O12 0.533350 0.631940 0.497203
O O13 0.674028 0.552963 0.617929
O O14 0.000000 0.139731 0.750000
#
# Coordination Sequence:
#
# PCOD9293076 Si02
#       7
#     8   4   8   8   8   8   8
#     4  11  22  43  65  95 134 171 229 267 335 400
#     4  10  22  44  72  96 126 174 232 270 318 406
#     4  11  20  38  68  90 125 179 227 278 316 405
#     4  11  24  40  61  99 138 170 220 280 340 398
#     4  12  22  40  63  99 133 171 226 282 335 391
#     4  10  23  40  66 100 124 177 223 276 339 388
#     4  11  25  39  66  97 135 180 215 272 338 407
#
# _framework density 20.203303999999999
#
# number of rings (size 3 to 8) (size 9 to 14) (size 15 to 20)
#    0.462    0.615    4.615    2.769    2.154    1.231 
#    0.000    0.000    0.000    0.000    0.000    0.000 
#    0.000    0.000    0.000    0.000    0.000    0.000 
#
# Total GULP energy -144806.054460 kJ/mol
# GULP energy per Si atom -5569.463633 kJ/mol
# Density = 2.015732 g / cm^3
# Si number density = 20.203304 Si / 1000 Ang^3
#
#
#
# Elastic Constant Matrix: (Units=GPa)
#
#
# Indices 1 2 3 4 5 6 
#
# 1 108.3241 5.4322 0.5512 0.0000 1.9676 0.0000
# 2 5.4322 37.5723 -9.4426 0.0000 6.0469 0.0000
# 3 0.5512 -9.4426 54.2972 0.0000 -0.3818 0.0000
# 4 0.0000 0.0000 0.0000 21.7878 0.0000 5.5460
# 5 1.9676 6.0469 -0.3818 0.0000 37.1783 0.0000
# 6 0.0000 0.0000 0.0000 5.5460 0.0000 25.9172
#
#
#
# Elastic Compliance Matrix: (Units=1/GPa)
#
#
# Indices 1 2 3 4 5 6 
#
# 1 0.009308 -0.001387 -0.000338 0.000000 -0.000270 0.000000
# 2 -0.001387 0.028804 0.004991 0.000000 -0.004560 0.000000
# 3 -0.000338 0.004991 0.019284 0.000000 -0.000596 0.000000
# 4 0.000000 0.000000 0.000000 0.048541 0.000000 -0.010387
# 5 -0.000270 -0.004560 -0.000596 0.000000 0.027647 0.000000
# 6 0.000000 0.000000 0.000000 -0.010387 0.000000 0.040807
#
#
# Mechanical properties :
#
#
# Convention : Reuss Voigt Hill
#
# Bulk Modulus (GPa) = 15.64222 21.47502 18.55862
# Shear Modulus (GPa) = 26.43143 30.55352 28.49248
#
# Velocity S-wave (km/s) = 3.62093 3.89305 3.75945
# Velocity P-wave (km/s) = 5.02401 5.55521 5.29628
#
# Compressibility (1/GPa) = 0.06392952
#
# Stress axis : x y z
#
# Youngs Moduli (GPa) = 107.43748 34.71718 51.85541
#
# Poissons Ratio (x) = 0.04815 0.01751
# Poissons Ratio (y) = 0.14902 -0.25882
# Poissons Ratio (z) = 0.03627 -0.17328
#
# Static dielectric constant tensor:
#      x y z
#    x 1.787350 0.000000 -0.023830 
#    y 0.000000 1.772030 0.000000 
#    z -0.023830 0.000000 1.704280 
# 
# From -- ./inp_files/48465.got.cif
#   From: 2010.05.17/outbox.cif.g08.bks.cpg/sg15_25_cif.got.tgz:48465.got - 2010.06.03 18:47:42.
