data_PCOD9293724
_publ_section_title
;
Structure prediction by ZEFSAII (Michael W. Deem and Ramdas Pophale) SiO2 
 PCOD9293724
Probable space group: C 2/C
;
_chemical_formula_sum "Si O2"
_cell_formula_units_Z 40
_cell_length_a 14.132948
_cell_length_b 4.876067
_cell_length_c 22.343334
_cell_angle_alpha 90.000000
_cell_angle_beta 74.214642
_cell_angle_gamma 90.000000
_cell_volume 1481.682895
_symmetry_space_group_name_H-M "C 2/C"
_symmetry_group_IT_number 15
_symmetry_cell_setting 'monoclinic'
loop_
_space_group_symop_operation_xyz
x,y,z
-x,y,1/2-z
-x,-y,-z
x,-y,1/2+z
1/2+x,1/2+y,z
1/2-x,1/2+y,1/2-z
1/2-x,1/2-y,-z
1/2+x,1/2-y,1/2+z
loop_
_atom_site_type_symbol
_atom_site_label
_atom_site_fract_x
_atom_site_fract_y
_atom_site_fract_z
Si Si1 0.616939 0.531812 0.258686
Si Si2 0.016476 0.888894 0.117687
Si Si3 0.937123 0.395965 0.067205
Si Si4 0.228174 0.132282 0.069266
Si Si5 0.701782 0.025255 0.183412
O O1 0.515820 0.470464 0.309752
O O2 0.664422 0.330448 0.201272
O O3 0.694790 0.499168 0.300350
O O4 0.626103 0.837882 0.233658
O O5 0.958214 0.083504 0.080580
O O6 0.129537 0.950874 0.083767
O O7 0.981132 0.579940 0.113315
O O8 0.823448 0.464466 0.075515
O O9 0.000000 0.500000 0.000000
O O10 0.209687 0.385261 0.117758
O O11 0.250000 0.250000 0.000000
#
# Coordination Sequence:
#
# PCOD9293724 Si02
#       5
#     8   8   8   8   8
#     4  10  22  46  77 104 146 204 252 312 385 441
#     4  12  27  49  80 114 154 206 260 322 393 460
#     4  12  27  49  76 114 163 204 256 317 390 471
#     4  12  28  50  80 120 157 206 261 320 397 475
#     4  10  23  44  77 107 146 201 253 312 378 460
#
# _framework density 26.996333
#
# number of rings (size 3 to 8) (size 9 to 14) (size 15 to 20)
#    0.000    0.800    4.000    1.800    5.600    4.800 
#    0.000    2.000    0.000    0.000    0.000    0.000 
#    0.000    0.000    0.000    0.000    0.000    0.000 
#
# Total GULP energy -112391.963206 kJ/mol
# GULP energy per Si atom -5619.598160 kJ/mol
# Density = 2.693489 g / cm^3
# Si number density = 26.996333 Si / 1000 Ang^3
#
#
#
# Elastic Constant Matrix: (Units=GPa)
#
#
# Indices 1 2 3 4 5 6 
#
# 1 208.4964 19.0104 18.3347 -0.0001 -29.0566 -0.0002
# 2 19.0104 70.0910 -9.6843 -0.0005 6.8176 0.0001
# 3 18.3347 -9.6843 150.3854 0.0000 -7.8650 0.0002
# 4 -0.0001 -0.0005 0.0000 39.8878 0.0002 -0.2788
# 5 -29.0566 6.8176 -7.8650 0.0002 47.1681 0.0001
# 6 -0.0002 0.0001 0.0002 -0.2788 0.0001 16.0424
#
#
#
# Elastic Compliance Matrix: (Units=1/GPa)
#
#
# Indices 1 2 3 4 5 6 
#
# 1 0.005525 -0.001931 -0.000611 0.000000 0.003581 0.000000
# 2 -0.001931 0.015249 0.001049 0.000000 -0.003219 0.000000
# 3 -0.000611 0.001049 0.006823 0.000000 0.000610 0.000000
# 4 0.000000 0.000000 0.000000 0.025073 0.000000 0.000436
# 5 0.003581 -0.003219 0.000610 0.000000 0.023974 0.000000
# 6 0.000000 0.000000 0.000000 0.000436 0.000000 0.062342
#
#
# Mechanical properties :
#
#
# Convention : Reuss Voigt Hill
#
# Bulk Modulus (GPa) = 40.63070 53.81050 47.22060
# Shear Modulus (GPa) = 33.29417 47.37379 40.33398
#
# Velocity S-wave (km/s) = 3.51563 4.19361 3.86949
# Velocity P-wave (km/s) = 5.61806 6.58971 6.12319
#
# Compressibility (1/GPa) = 0.02461193
#
# Stress axis : x y z
#
# Youngs Moduli (GPa) = 180.99298 65.57804 146.55249
#
# Poissons Ratio (x) = 0.12665 0.08950
# Poissons Ratio (y) = 0.34954 -0.15375
# Poissons Ratio (z) = 0.11053 -0.06880
#
# Static dielectric constant tensor:
#      x y z
#    x 2.171720 0.000000 0.078430 
#    y 0.000000 2.014120 0.000000 
#    z 0.078430 0.000000 2.128340 
# 
# From -- ./inp_files/271826.got.cif
#   From: 2010.05.17/outbox.cif.g08.bks.cpg/sg15_136_cif.got.tgz:271826.got - 2010.06.03 18:47:42.
