data_PCOD9293308
_publ_section_title
;
Structure prediction by ZEFSAII (Michael W. Deem and Ramdas Pophale) SiO2 
 PCOD9293308
Probable space group: C 2/C
;
_chemical_formula_sum "Si O2"
_cell_formula_units_Z 48
_cell_length_a 11.603266
_cell_length_b 10.599224
_cell_length_c 17.980418
_cell_angle_alpha 90.000000
_cell_angle_beta 64.465409
_cell_angle_gamma 90.000000
_cell_volume 1995.341307
_symmetry_space_group_name_H-M "C 2/C"
_symmetry_group_IT_number 15
_symmetry_cell_setting 'monoclinic'
loop_
_space_group_symop_operation_xyz
x,y,z
-x,y,1/2-z
-x,-y,-z
x,-y,1/2+z
1/2+x,1/2+y,z
1/2-x,1/2+y,1/2-z
1/2-x,1/2-y,-z
1/2+x,1/2-y,1/2+z
loop_
_atom_site_type_symbol
_atom_site_label
_atom_site_fract_x
_atom_site_fract_y
_atom_site_fract_z
Si Si1 0.100792 0.154281 0.098695
Si Si2 0.843845 0.361798 0.903639
Si Si3 0.167060 0.787661 0.410026
Si Si4 0.664726 0.546012 0.339188
Si Si5 0.748707 0.394681 0.092010
Si Si6 0.394692 0.041380 0.162452
O O1 0.181170 0.261720 0.119095
O O2 0.954205 0.125456 0.156918
O O3 0.174090 0.024269 0.098042
O O4 0.113662 0.181626 0.006922
O O5 0.710231 0.410277 0.907821
O O6 0.849884 0.219946 0.870663
O O7 0.960937 0.451518 0.849827
O O8 0.828693 0.363128 0.996218
O O9 0.111276 0.658636 0.393251
O O10 0.137647 0.898690 0.360284
O O11 0.787204 0.564514 0.253578
O O12 0.847123 0.418237 0.131615
#
# Coordination Sequence:
#
# PCOD9293308 Si02
#       6
#     8   8   8   8   8   8
#     4  10  22  45  69  96 123 176 232 267 329 399
#     4  11  24  42  66  99 131 176 221 269 333 398
#     4  10  23  43  69  93 129 172 224 277 321 404
#     4  12  25  42  68  99 133 173 216 281 338 390
#     4  10  23  43  70  93 129 178 223 272 322 403
#     4  11  26  44  63 100 137 173 217 277 342 392
#
# _framework density 24.056035000000001
#
# number of rings (size 3 to 8) (size 9 to 14) (size 15 to 20)
#    0.000    1.333    1.667    2.500    7.000    4.000 
#    6.000    0.000    0.000    0.000    0.000    0.000 
#    0.000    0.000    0.000    0.000    0.000    0.000 
#
# Total GULP energy -134262.526099 kJ/mol
# GULP energy per Si atom -5594.271921 kJ/mol
# Density = 2.400128 g / cm^3
# Si number density = 24.056035 Si / 1000 Ang^3
#
#
#
# Elastic Constant Matrix: (Units=GPa)
#
#
# Indices 1 2 3 4 5 6 
#
# 1 110.8909 21.0032 22.8381 0.0000 -20.2077 0.0000
# 2 21.0032 62.0362 3.7567 0.0000 -0.7064 0.0000
# 3 22.8381 3.7567 34.0267 0.0000 -12.3626 0.0000
# 4 0.0000 0.0000 0.0000 9.1852 0.0000 4.3695
# 5 -20.2077 -0.7064 -12.3626 0.0000 28.5954 0.0000
# 6 0.0000 0.0000 0.0000 4.3695 0.0000 22.9031
#
#
#
# Elastic Compliance Matrix: (Units=1/GPa)
#
#
# Indices 1 2 3 4 5 6 
#
# 1 0.011914 -0.003637 -0.005420 0.000000 0.005986 0.000000
# 2 -0.003637 0.017343 -0.000299 0.000000 -0.002271 0.000000
# 3 -0.005420 -0.000299 0.037566 0.000000 0.012403 0.000000
# 4 0.000000 0.000000 0.000000 0.119738 0.000000 -0.022844
# 5 0.005986 -0.002271 0.012403 0.000000 0.044507 0.000000
# 6 0.000000 0.000000 0.000000 -0.022844 0.000000 0.048020
#
#
# Mechanical properties :
#
#
# Convention : Reuss Voigt Hill
#
# Bulk Modulus (GPa) = 20.78512 33.57220 27.17866
# Shear Modulus (GPa) = 15.93183 22.76046 19.34614
#
# Velocity S-wave (km/s) = 2.57627 3.07928 2.83894
# Velocity P-wave (km/s) = 4.18433 5.16031 4.69773
#
# Compressibility (1/GPa) = 0.04811135
#
# Stress axis : x y z
#
# Youngs Moduli (GPa) = 83.93569 57.65924 26.62004
#
# Poissons Ratio (x) = 0.20972 0.14428
# Poissons Ratio (y) = 0.30529 0.00795
# Poissons Ratio (z) = 0.45492 0.01722
#
# Static dielectric constant tensor:
#      x y z
#    x 1.965150 0.000000 0.013890 
#    y 0.000000 1.987290 0.000000 
#    z 0.013890 0.000000 1.896060 
# 
# From -- ./inp_files/236827.got.cif
#   From: 2010.05.17/outbox.cif.g08.bks.cpg/sg15_119_cif.got.tgz:236827.got - 2010.06.03 18:47:42.
