data_PCOD9293765
_publ_section_title
;
Structure prediction by ZEFSAII (Michael W. Deem and Ramdas Pophale) SiO2 
 PCOD9293765
Probable space group: C 2/C
;
_chemical_formula_sum "Si O2"
_cell_formula_units_Z 56
_cell_length_a 11.844600
_cell_length_b 27.823526
_cell_length_c 9.099897
_cell_angle_alpha 90.000000
_cell_angle_beta 62.209495
_cell_angle_gamma 90.000000
_cell_volume 2653.044745
_symmetry_space_group_name_H-M "C 2/C"
_symmetry_group_IT_number 15
_symmetry_cell_setting 'monoclinic'
loop_
_space_group_symop_operation_xyz
x,y,z
-x,y,1/2-z
-x,-y,-z
x,-y,1/2+z
1/2+x,1/2+y,z
1/2-x,1/2+y,1/2-z
1/2-x,1/2-y,-z
1/2+x,1/2-y,1/2+z
loop_
_atom_site_type_symbol
_atom_site_label
_atom_site_fract_x
_atom_site_fract_y
_atom_site_fract_z
Si Si1 0.524413 0.552735 0.409414
Si Si2 0.589160 0.211384 0.482477
Si Si3 0.968868 0.612435 0.098186
Si Si4 0.101137 0.130216 0.804551
Si Si5 0.201039 0.715796 0.744094
Si Si6 0.698919 0.061252 0.885856
Si Si7 0.695777 0.030049 0.207287
O O1 0.500000 0.548925 0.250000
O O2 0.500000 0.500000 0.500000
O O3 0.455981 0.599279 0.523929
O O4 0.674184 0.557824 0.341528
O O5 0.605171 0.156483 0.423220
O O6 0.687820 0.242944 0.324434
O O7 0.641014 0.215761 0.616899
O O8 0.432356 0.221125 0.577938
O O9 0.903012 0.560826 0.140090
O O10 0.000000 0.623640 0.250000
O O11 0.096124 0.602864 0.929955
O O12 0.209140 0.168884 0.782814
O O13 0.167486 0.087112 0.673979
O O14 0.000000 0.151834 0.750000
O O15 0.703711 0.024402 0.751498
O O16 0.666486 0.033207 0.053817
#
# Coordination Sequence:
#
# PCOD9293765 Si02
#       7
#     8   8   8   8   8   8   8
#     4  12  24  38  59  91 131 178 222 270 328 387
#     4  10  22  47  70 101 130 170 219 279 341 414
#     4  10  23  41  64  93 130 170 217 276 331 396
#     4  12  24  43  65  98 136 177 226 276 331 405
#     4  10  24  44  73  98 132 171 219 279 342 408
#     4  11  22  41  61  92 133 173 227 266 328 384
#     4  11  23  38  61  91 130 179 219 275 316 392
#
# _framework density 21.107824000000001
#
# number of rings (size 3 to 8) (size 9 to 14) (size 15 to 20)
#    0.000    1.143    4.286    1.714    2.000    1.714 
#    2.571    1.429    0.000    0.000    0.000    0.000 
#    0.000    0.000    0.000    0.000    0.000    0.000 
#
# Total GULP energy -155949.584047 kJ/mol
# GULP energy per Si atom -5569.628002 kJ/mol
# Density = 2.105978 g / cm^3
# Si number density = 21.107824 Si / 1000 Ang^3
#
#
#
# Elastic Constant Matrix: (Units=GPa)
#
#
# Indices 1 2 3 4 5 6 
#
# 1 110.0376 39.9122 34.4763 0.0000 -22.2390 0.0000
# 2 39.9122 61.4528 20.5103 0.0000 3.5962 0.0000
# 3 34.4763 20.5103 44.8818 0.0000 -10.1156 0.0000
# 4 0.0000 0.0000 0.0000 24.1722 0.0000 -6.8574
# 5 -22.2390 3.5962 -10.1156 0.0000 23.5210 0.0000
# 6 0.0000 0.0000 0.0000 -6.8574 0.0000 46.6150
#
#
#
# Elastic Compliance Matrix: (Units=1/GPa)
#
#
# Indices 1 2 3 4 5 6 
#
# 1 0.017988 -0.010946 -0.005099 0.000000 0.016488 0.000000
# 2 -0.010946 0.027110 -0.008026 0.000000 -0.017946 0.000000
# 3 -0.005099 -0.008026 0.032174 0.000000 0.010243 0.000000
# 4 0.000000 0.000000 0.000000 0.043172 0.000000 0.006351
# 5 0.016488 -0.017946 0.010243 0.000000 0.065253 0.000000
# 6 0.000000 0.000000 0.000000 0.006351 0.000000 0.022387
#
#
# Mechanical properties :
#
#
# Convention : Reuss Voigt Hill
#
# Bulk Modulus (GPa) = 34.32797 45.12998 39.72897
# Shear Modulus (GPa) = 18.80150 26.95986 22.88068
#
# Velocity S-wave (km/s) = 2.98776 3.57773 3.29597
# Velocity P-wave (km/s) = 5.31043 6.20435 5.77472
#
# Compressibility (1/GPa) = 0.02913077
#
# Stress axis : x y z
#
# Youngs Moduli (GPa) = 55.59268 36.88613 31.08090
#
# Poissons Ratio (x) = 0.40374 0.15850
# Poissons Ratio (y) = 0.60850 0.24945
# Poissons Ratio (z) = 0.28349 0.29604
#
# Static dielectric constant tensor:
#      x y z
#    x 1.989370 0.000000 -0.063310 
#    y 0.000000 1.751190 0.000000 
#    z -0.063310 0.000000 2.299640 
# 
# From -- ./inp_files/34174.got.cif
#   From: 2010.05.17/outbox.cif.g08.bks.cpg/sg15_18_cif.got.tgz:34174.got - 2010.06.03 18:47:42.
