data_PCOD9293492
_publ_section_title
;
Structure prediction by ZEFSAII (Michael W. Deem and Ramdas Pophale) SiO2 
 PCOD9293492
Probable space group: C 2/C
;
_chemical_formula_sum "Si O2"
_cell_formula_units_Z 52
_cell_length_a 19.168588
_cell_length_b 18.343839
_cell_length_c 9.080307
_cell_angle_alpha 90.000000
_cell_angle_beta 132.962233
_cell_angle_gamma 90.000000
_cell_volume 2336.550235
_symmetry_space_group_name_H-M "C 2/C"
_symmetry_group_IT_number 15
_symmetry_cell_setting 'monoclinic'
loop_
_space_group_symop_operation_xyz
x,y,z
-x,y,1/2-z
-x,-y,-z
x,-y,1/2+z
1/2+x,1/2+y,z
1/2-x,1/2+y,1/2-z
1/2-x,1/2-y,-z
1/2+x,1/2-y,1/2+z
loop_
_atom_site_type_symbol
_atom_site_label
_atom_site_fract_x
_atom_site_fract_y
_atom_site_fract_z
Si Si1 0.600384 0.415677 0.902295
Si Si2 0.828509 0.715029 0.958340
Si Si3 0.609735 0.045485 0.949804
Si Si4 0.896507 0.065564 0.433098
Si Si5 0.715449 0.851962 0.800051
Si Si6 0.500000 0.319569 0.250000
Si Si7 0.186123 0.408880 0.243770
O O1 0.500000 0.372376 0.750000
O O2 0.622894 0.436902 0.766566
O O3 0.578493 0.487105 0.967972
O O4 0.701680 0.388775 0.108610
O O5 0.797739 0.661160 0.045574
O O6 0.909853 0.767683 0.139440
O O7 0.746781 0.771562 0.790830
O O8 0.865887 0.665086 0.880549
O O9 0.500000 0.033362 0.750000
O O10 0.661797 0.066451 0.873104
O O11 0.626719 0.111258 0.090387
O O12 0.654493 0.974176 0.090835
O O13 0.803508 0.094821 0.386533
O O14 0.977632 0.125242 0.584676
#
# Coordination Sequence:
#
# PCOD9293492 Si02
#       7
#     8   8   8   8   8   4   8
#     4  12  24  39  69 105 136 176 219 283 350 405
#     4  10  25  42  72  92 134 190 224 276 345 403
#     4  12  26  43  72 100 137 178 229 287 341 402
#     4  11  23  42  67 101 140 171 224 284 344 408
#     4  10  22  46  64  95 135 182 225 278 337 402
#     4  10  24  44  68  96 136 180 238 270 338 422
#     4  12  25  45  68 102 141 173 231 287 336 410
#
# _framework density 22.255030000000001
#
# number of rings (size 3 to 8) (size 9 to 14) (size 15 to 20)
#    0.000    0.923    3.846    1.846    5.385    3.077 
#    0.000    0.769    0.000    0.000    0.000    0.000 
#    0.000    0.000    0.000    0.000    0.000    0.000 
#
# Total GULP energy -145232.559407 kJ/mol
# GULP energy per Si atom -5585.867669 kJ/mol
# Density = 2.220438 g / cm^3
# Si number density = 22.255030 Si / 1000 Ang^3
#
#
#
# Elastic Constant Matrix: (Units=GPa)
#
#
# Indices 1 2 3 4 5 6 
#
# 1 42.4598 0.9181 8.5146 0.0000 19.9147 0.0000
# 2 0.9181 73.6402 35.9574 0.0000 -3.1226 0.0000
# 3 8.5146 35.9574 103.1662 0.0000 15.2481 0.0000
# 4 0.0000 0.0000 0.0000 21.9125 0.0000 3.2544
# 5 19.9147 -3.1226 15.2481 0.0000 38.1463 0.0000
# 6 0.0000 0.0000 0.0000 3.2544 0.0000 22.0037
#
#
#
# Elastic Compliance Matrix: (Units=1/GPa)
#
#
# Indices 1 2 3 4 5 6 
#
# 1 0.031282 -0.001236 0.000295 0.000000 -0.016550 0.000000
# 2 -0.001236 0.016962 -0.006494 0.000000 0.004630 0.000000
# 3 0.000295 -0.006494 0.012789 0.000000 -0.005798 0.000000
# 4 0.000000 0.000000 0.000000 0.046661 0.000000 -0.006901
# 5 -0.016550 0.004630 -0.005798 0.000000 0.037551 0.000000
# 6 0.000000 0.000000 0.000000 -0.006901 0.000000 0.046468
#
#
# Mechanical properties :
#
#
# Convention : Reuss Voigt Hill
#
# Bulk Modulus (GPa) = 21.66243 34.44961 28.05602
# Shear Modulus (GPa) = 22.52547 28.00424 25.26485
#
# Velocity S-wave (km/s) = 3.18488 3.55115 3.37299
# Velocity P-wave (km/s) = 4.82488 5.68571 5.27289
#
# Compressibility (1/GPa) = 0.04616287
#
# Stress axis : x y z
#
# Youngs Moduli (GPa) = 31.96776 58.95417 78.19109
#
# Poissons Ratio (x) = 0.07286 -0.02307
# Poissons Ratio (y) = 0.03951 0.50780
# Poissons Ratio (z) = -0.00943 0.38287
#
# Static dielectric constant tensor:
#      x y z
#    x 1.867570 0.000000 0.072980 
#    y 0.000000 1.796710 0.000000 
#    z 0.072980 0.000000 1.839970 
# 
# From -- ./inp_files/57066.got.cif
#   From: 2010.05.17/outbox.cif.g08.bks.cpg/sg15_29_cif.got.tgz:57066.got - 2010.06.03 18:47:42.
