data_PCOD9293162
_publ_section_title
;
Structure prediction by ZEFSAII (Michael W. Deem and Ramdas Pophale) SiO2 
 PCOD9293162
Probable space group: C 2/C
;
_chemical_formula_sum "Si O2"
_cell_formula_units_Z 48
_cell_length_a 28.474515
_cell_length_b 5.442419
_cell_length_c 13.342946
_cell_angle_alpha 90.000000
_cell_angle_beta 83.498038
_cell_angle_gamma 90.000000
_cell_volume 2054.459690
_symmetry_space_group_name_H-M "C 2/C"
_symmetry_group_IT_number 15
_symmetry_cell_setting 'monoclinic'
loop_
_space_group_symop_operation_xyz
x,y,z
-x,y,1/2-z
-x,-y,-z
x,-y,1/2+z
1/2+x,1/2+y,z
1/2-x,1/2+y,1/2-z
1/2-x,1/2-y,-z
1/2+x,1/2-y,1/2+z
loop_
_atom_site_type_symbol
_atom_site_label
_atom_site_fract_x
_atom_site_fract_y
_atom_site_fract_z
Si Si1 0.051499 0.329565 0.705307
Si Si2 0.394532 0.792882 0.379834
Si Si3 0.619157 0.492435 0.305152
Si Si4 0.195628 0.436058 0.547716
Si Si5 0.291062 0.437548 0.079862
Si Si6 0.055966 0.945909 0.995240
O O1 0.057949 0.617017 0.686089
O O2 0.059761 0.221908 0.592448
O O3 0.000000 0.253975 0.750000
O O4 0.088315 0.242904 0.780082
O O5 0.371627 0.614525 0.304608
O O6 0.411797 0.678703 0.479106
O O7 0.356572 0.006134 0.402740
O O8 0.669028 0.453893 0.346030
O O9 0.583631 0.639801 0.389214
O O10 0.236933 0.490162 0.618748
O O11 0.205665 0.661126 0.466239
O O12 0.198137 0.161338 0.502079
O O13 0.000000 0.000000 0.000000
#
# Coordination Sequence:
#
# PCOD9293162 Si02
#       6
#     8   8   8   8   8   8
#     4  11  25  41  63  98 131 171 234 288 347 417
#     4  11  26  40  66  99 138 177 235 294 343 424
#     4  11  24  43  66  96 131 183 226 291 343 423
#     4  10  22  45  71 105 134 184 227 290 344 421
#     4  10  22  44  75  99 140 179 233 280 357 413
#     4  11  23  43  65  90 135 180 227 287 350 420
#
# _framework density 23.363807000000001
#
# number of rings (size 3 to 8) (size 9 to 14) (size 15 to 20)
#    0.000    1.333    3.333    1.000    7.000    2.000 
#    3.000    0.000    0.000    0.000    0.000    0.000 
#    0.000    0.000    0.000    0.000    0.000    0.000 
#
# Total GULP energy -133848.684983 kJ/mol
# GULP energy per Si atom -5577.028541 kJ/mol
# Density = 2.331063 g / cm^3
# Si number density = 23.363807 Si / 1000 Ang^3
#
#
#
# Elastic Constant Matrix: (Units=GPa)
#
#
# Indices 1 2 3 4 5 6 
#
# 1 161.0315 11.4810 34.3659 0.0000 33.2505 0.0000
# 2 11.4810 59.2787 9.9323 0.0000 3.1297 0.0000
# 3 34.3659 9.9323 75.7710 0.0000 18.3689 0.0000
# 4 0.0000 0.0000 0.0000 8.3261 0.0000 -9.6375
# 5 33.2505 3.1297 18.3689 0.0000 47.2838 0.0000
# 6 0.0000 0.0000 0.0000 -9.6375 0.0000 25.9291
#
#
#
# Elastic Compliance Matrix: (Units=1/GPa)
#
#
# Indices 1 2 3 4 5 6 
#
# 1 0.007680 -0.000869 -0.002290 0.000000 -0.004454 0.000000
# 2 -0.000869 0.017350 -0.001932 0.000000 0.000213 0.000000
# 3 -0.002290 -0.001932 0.015531 0.000000 -0.004295 0.000000
# 4 0.000000 0.000000 0.000000 0.210794 0.000000 0.078349
# 5 -0.004454 0.000213 -0.004295 0.000000 0.025935 0.000000
# 6 0.000000 0.000000 0.000000 0.078349 0.000000 0.067688
#
#
# Mechanical properties :
#
#
# Convention : Reuss Voigt Hill
#
# Bulk Modulus (GPa) = 32.91609 45.29328 39.10469
# Shear Modulus (GPa) = 13.68790 32.32793 23.00792
#
# Velocity S-wave (km/s) = 2.42308 3.72381 3.14150
# Velocity P-wave (km/s) = 4.68482 6.15770 5.47105
#
# Compressibility (1/GPa) = 0.03038028
#
# Stress axis : x y z
#
# Youngs Moduli (GPa) = 130.20510 57.63636 64.38840
#
# Poissons Ratio (x) = 0.05007 0.14743
# Poissons Ratio (y) = 0.11311 0.12440
# Poissons Ratio (z) = 0.29814 0.11135
#
# Static dielectric constant tensor:
#      x y z
#    x 1.914000 0.000000 -0.025540 
#    y 0.000000 2.012860 0.000000 
#    z -0.025540 0.000000 1.883620 
# 
# From -- ./inp_files/175716.got.cif
#   From: 2010.05.17/outbox.cif.g08.bks.cpg/sg15_88_cif.got.tgz:175716.got - 2010.06.03 18:47:42.
