data_PCOD9293344
_publ_section_title
;
Structure prediction by ZEFSAII (Michael W. Deem and Ramdas Pophale) SiO2 
 PCOD9293344
Probable space group: C 2/C
;
_chemical_formula_sum "Si O2"
_cell_formula_units_Z 48
_cell_length_a 26.285383
_cell_length_b 10.740890
_cell_length_c 21.411092
_cell_angle_alpha 90.000000
_cell_angle_beta 20.680040
_cell_angle_gamma 90.000000
_cell_volume 2134.771065
_symmetry_space_group_name_H-M "C 2/C"
_symmetry_group_IT_number 15
_symmetry_cell_setting 'monoclinic'
loop_
_space_group_symop_operation_xyz
x,y,z
-x,y,1/2-z
-x,-y,-z
x,-y,1/2+z
1/2+x,1/2+y,z
1/2-x,1/2+y,1/2-z
1/2-x,1/2-y,-z
1/2+x,1/2-y,1/2+z
loop_
_atom_site_type_symbol
_atom_site_label
_atom_site_fract_x
_atom_site_fract_y
_atom_site_fract_z
Si Si1 0.949907 0.768879 0.629940
Si Si2 0.705392 0.111856 0.341409
Si Si3 0.010873 0.962593 0.811379
Si Si4 0.284763 0.872772 0.998510
Si Si5 0.492641 0.059491 0.354484
Si Si6 0.695366 0.001391 0.720704
O O1 0.865404 0.856322 0.678781
O O2 0.952690 0.836937 0.693113
O O3 0.861888 0.639422 0.730091
O O4 0.114456 0.733888 0.426205
O O5 0.615053 0.052291 0.502641
O O6 0.694511 0.021644 0.295107
O O7 0.000000 0.943904 0.750000
O O8 0.137016 0.058964 0.682539
O O9 0.856531 0.011590 0.011400
O O10 0.381899 0.960283 0.841094
O O11 0.384533 0.845833 0.944140
O O12 0.250000 0.750000 0.000000
O O13 0.582939 0.088292 0.313245
#
# Coordination Sequence:
#
# PCOD9293344 Si02
#       6
#     8   8   8   8   8   8
#     4  11  23  48  72 105 141 187 239 299 359 423
#     4  11  24  49  71 105 143 185 243 291 366 427
#     4  12  25  47  69 107 142 184 248 297 352 439
#     4  11  25  45  69 101 145 185 236 294 359 425
#     4  10  22  45  70  96 143 187 228 294 351 429
#     4  11  25  48  70 104 147 184 240 298 357 437
#
# _framework density 22.484846000000001
#
# number of rings (size 3 to 8) (size 9 to 14) (size 15 to 20)
#    0.000    1.000    5.000    2.000    2.333    1.333 
#   24.000    0.000    0.000    0.000    0.000    0.000 
#    0.000    0.000    0.000    0.000    0.000    0.000 
#
# Total GULP energy -134048.289745 kJ/mol
# GULP energy per Si atom -5585.345406 kJ/mol
# Density = 2.243367 g / cm^3
# Si number density = 22.484846 Si / 1000 Ang^3
#
#
#
# Elastic Constant Matrix: (Units=GPa)
#
#
# Indices 1 2 3 4 5 6 
#
# 1 119.2165 35.1458 61.7128 0.0000 -28.4823 -0.0001
# 2 35.1458 65.6426 31.6821 0.0001 -3.5102 -0.0001
# 3 61.7128 31.6821 82.0322 0.0000 -13.5519 0.0000
# 4 0.0000 0.0001 0.0000 16.3224 0.0001 6.5832
# 5 -28.4823 -3.5102 -13.5519 0.0001 35.6288 0.0000
# 6 -0.0001 -0.0001 0.0000 6.5832 0.0000 30.5400
#
#
#
# Elastic Compliance Matrix: (Units=1/GPa)
#
#
# Indices 1 2 3 4 5 6 
#
# 1 0.016679 -0.003834 -0.009525 0.000000 0.009333 0.000000
# 2 -0.003834 0.019637 -0.005214 0.000000 -0.003113 0.000000
# 3 -0.009525 -0.005214 0.021370 0.000000 0.000000 0.000000
# 4 0.000000 0.000000 0.000000 0.067099 0.000000 -0.014464
# 5 0.009333 -0.003113 0.000000 0.000000 0.035221 0.000000
# 6 0.000000 0.000000 0.000000 -0.014464 0.000000 0.035862
#
#
# Mechanical properties :
#
#
# Convention : Reuss Voigt Hill
#
# Bulk Modulus (GPa) = 48.68694 58.21918 53.45306
# Shear Modulus (GPa) = 20.84554 25.72160 23.28357
#
# Velocity S-wave (km/s) = 3.04812 3.38591 3.22144
# Velocity P-wave (km/s) = 5.83852 6.42142 6.13689
#
# Compressibility (1/GPa) = 0.02053939
#
# Stress axis : x y z
#
# Youngs Moduli (GPa) = 59.95734 50.92492 46.79510
#
# Poissons Ratio (x) = 0.19523 0.44572
# Poissons Ratio (y) = 0.22986 0.24400
# Poissons Ratio (z) = 0.57109 0.26554
#
# Static dielectric constant tensor:
#      x y z
#    x 1.871540 0.000000 -0.006590 
#    y 0.000000 1.863670 0.000000 
#    z -0.006590 0.000000 1.823000 
# 
# From -- ./inp_files/257595.got.cif
#   From: 2010.05.17/outbox.cif.g08.bks.cpg/sg15_129_cif.got.tgz:257595.got - 2010.06.03 18:47:42.
