data_PCOD9293317
_publ_section_title
;
Structure prediction by ZEFSAII (Michael W. Deem and Ramdas Pophale) SiO2 
 PCOD9293317
Probable space group: C 2/C
;
_chemical_formula_sum "Si O2"
_cell_formula_units_Z 40
_cell_length_a 13.873351
_cell_length_b 11.007079
_cell_length_c 11.432704
_cell_angle_alpha 90.000000
_cell_angle_beta 68.858460
_cell_angle_gamma 90.000000
_cell_volume 1628.323922
_symmetry_space_group_name_H-M "C 2/C"
_symmetry_group_IT_number 15
_symmetry_cell_setting 'monoclinic'
loop_
_space_group_symop_operation_xyz
x,y,z
-x,y,1/2-z
-x,-y,-z
x,-y,1/2+z
1/2+x,1/2+y,z
1/2-x,1/2+y,1/2-z
1/2-x,1/2-y,-z
1/2+x,1/2-y,1/2+z
loop_
_atom_site_type_symbol
_atom_site_label
_atom_site_fract_x
_atom_site_fract_y
_atom_site_fract_z
Si Si1 0.000000 0.450704 0.750000
Si Si2 0.593969 0.478569 0.045721
Si Si3 0.421990 0.832199 0.424243
Si Si4 0.220645 0.167955 0.859832
Si Si5 0.000000 0.145349 0.250000
Si Si6 0.660960 0.256860 0.136047
O O1 0.023072 0.539601 0.628014
O O2 0.099810 0.362738 0.703436
O O3 0.589746 0.557707 0.166996
O O4 0.583677 0.344331 0.099626
O O5 0.500000 0.500000 0.000000
O O6 0.686421 0.538614 0.931493
O O7 0.335310 0.817043 0.359846
O O8 0.355194 0.777163 0.559768
O O9 0.509220 0.732005 0.357755
O O10 0.209019 0.175872 0.727008
O O11 0.750000 0.250000 0.000000
#
# Coordination Sequence:
#
# PCOD9293317 Si02
#       6
#     4   8   8   8   4   8
#     4  11  23  48  66 110 145 183 238 294 368 427
#     4  11  22  40  66  93 131 185 223 287 349 423
#     4   9  21  43  70  98 134 192 226 288 356 427
#     4  10  22  45  69  98 139 183 243 288 352 434
#     4   9  19  36  66  92 119 171 240 260 334 425
#     4  12  27  45  68 110 143 181 239 306 362 422
#
# _framework density 24.565138000000001
#
# number of rings (size 3 to 8) (size 9 to 14) (size 15 to 20)
#    0.000    1.600    0.000    4.200    2.800    0.800 
#   25.200    0.000    0.000    0.000    0.000    0.000 
#    0.000    0.000    0.000    0.000    0.000    0.000 
#
# Total GULP energy -111363.975458 kJ/mol
# GULP energy per Si atom -5568.198773 kJ/mol
# Density = 2.450923 g / cm^3
# Si number density = 24.565138 Si / 1000 Ang^3
#
#
#
# Elastic Constant Matrix: (Units=GPa)
#
#
# Indices 1 2 3 4 5 6 
#
# 1 58.9511 14.3256 48.1886 0.0000 4.1732 0.0000
# 2 14.3256 114.8404 27.8551 0.0000 -2.7307 0.0000
# 3 48.1886 27.8551 157.7720 0.0000 1.6359 0.0000
# 4 0.0000 0.0000 0.0000 -3.1145 0.0000 -8.2089
# 5 4.1732 -2.7307 1.6359 0.0000 43.4551 0.0000
# 6 0.0000 0.0000 0.0000 -8.2089 0.0000 25.8740
#
#
#
# Elastic Compliance Matrix: (Units=1/GPa)
#
#
# Indices 1 2 3 4 5 6 
#
# 1 0.022943 -0.001270 -0.006762 0.000000 -0.002029 0.000000
# 2 -0.001270 0.009185 -0.001241 0.000000 0.000746 0.000000
# 3 -0.006762 -0.001241 0.008620 0.000000 0.000247 0.000000
# 4 0.000000 0.000000 0.000000 -0.174858 0.000000 -0.055476
# 5 -0.002029 0.000746 0.000247 0.000000 0.023245 0.000000
# 6 0.000000 0.000000 0.000000 -0.055476 0.000000 0.021048
#
#
# Mechanical properties :
#
#
# Convention : Reuss Voigt Hill
#
# Bulk Modulus (GPa) = 45.04319 56.92246 50.98283
# Shear Modulus (GPa) = -78.28542 29.32253 -24.48144
#
# Velocity S-wave (km/s) = -5.65134 3.45869 -3.16031
# Velocity P-wave (km/s) = 4.92012 6.25879 2.73540
#
# Compressibility (1/GPa) = 0.02220091
#
# Stress axis : x y z
#
# Youngs Moduli (GPa) = 43.58589 108.87288 116.00503
#
# Poissons Ratio (x) = 0.13827 0.78446
# Poissons Ratio (y) = 0.05535 0.14402
# Poissons Ratio (z) = 0.29474 0.13516
#
# Static dielectric constant tensor:
#      x y z
#    x 2.301760 0.000000 -0.244710 
#    y 0.000000 2.205020 0.000000 
#    z -0.244710 0.000000 2.073030 
# 
# From -- ./inp_files/103598.got.cif
#   From: 2010.05.17/outbox.cif.g08.bks.cpg/sg15_52_cif.got.tgz:103598.got - 2010.06.03 18:47:42.
