data_PCOD9293703
_publ_section_title
;
Structure prediction by ZEFSAII (Michael W. Deem and Ramdas Pophale) SiO2 
 PCOD9293703
Probable space group: C 2/C
;
_chemical_formula_sum "Si O2"
_cell_formula_units_Z 60
_cell_length_a 20.525945
_cell_length_b 5.128936
_cell_length_c 27.937759
_cell_angle_alpha 90.000000
_cell_angle_beta 124.028812
_cell_angle_gamma 90.000000
_cell_volume 2437.523629
_symmetry_space_group_name_H-M "C 2/C"
_symmetry_group_IT_number 15
_symmetry_cell_setting 'monoclinic'
loop_
_space_group_symop_operation_xyz
x,y,z
-x,y,1/2-z
-x,-y,-z
x,-y,1/2+z
1/2+x,1/2+y,z
1/2-x,1/2+y,1/2-z
1/2-x,1/2-y,-z
1/2+x,1/2-y,1/2+z
loop_
_atom_site_type_symbol
_atom_site_label
_atom_site_fract_x
_atom_site_fract_y
_atom_site_fract_z
Si Si1 0.719918 0.817017 0.862424
Si Si2 0.128816 0.806226 0.843718
Si Si3 0.584418 0.814626 0.420775
Si Si4 0.988787 0.041414 0.551685
Si Si5 0.682149 0.180308 0.510304
Si Si6 0.500000 0.087612 0.250000
Si Si7 0.786893 0.474006 0.246138
Si Si8 0.459016 0.817289 0.834027
O O1 0.659625 0.573719 0.834230
O O2 0.787765 0.698909 0.923405
O O3 0.734009 0.919952 0.815120
O O4 0.694632 0.082343 0.879643
O O5 0.100603 0.886952 0.885270
O O6 0.069323 0.624281 0.789245
O O7 0.517414 0.748612 0.430817
O O8 0.657628 0.895305 0.482013
O O9 0.541927 0.036129 0.373220
O O10 0.900991 0.162359 0.523939
O O11 0.044584 0.166582 0.616148
O O12 0.000000 0.000000 0.500000
O O13 0.750000 0.250000 0.500000
O O14 0.527046 0.267382 0.216104
O O15 0.762256 0.173486 0.240684
O O16 0.878616 0.517774 0.296213
#
# Coordination Sequence:
#
# PCOD9293703 Si02
#       8
#     8   8   8   8   8   4   8   8
#     4  12  26  44  71 106 149 187 245 304 378 436
#     4  11  24  42  71 109 143 186 243 311 379 442
#     4  10  24  43  72 105 142 196 239 314 376 451
#     4  11  27  45  73 106 150 206 259 309 387 462
#     4  11  24  44  71 107 147 188 248 314 374 453
#     4  10  22  46  74 108 144 192 250 318 394 448
#     4  12  29  48  73 104 148 198 248 303 372 448
#     4  10  25  46  73 103 148 188 259 312 381 458
#
# _framework density 24.615148000000001
#
# number of rings (size 3 to 8) (size 9 to 14) (size 15 to 20)
#    0.000    1.067    2.667    1.600    9.333    5.867 
#    0.000    0.000    0.000    0.000    0.000    0.000 
#    0.000    0.000    0.000    0.000    0.000    0.000 
#
# Total GULP energy -167035.421629 kJ/mol
# GULP energy per Si atom -5567.847388 kJ/mol
# Density = 2.455912 g / cm^3
# Si number density = 24.615148 Si / 1000 Ang^3
#
#
#
# Elastic Constant Matrix: (Units=GPa)
#
#
# Indices 1 2 3 4 5 6 
#
# 1 62.9357 8.1782 27.0976 -0.0004 -21.9530 -0.0006
# 2 8.1782 69.7350 11.6689 -0.0019 -9.3476 0.0001
# 3 27.0976 11.6689 155.4531 -0.0001 -16.8999 0.0001
# 4 -0.0004 -0.0019 -0.0001 33.4335 0.0001 -2.3871
# 5 -21.9530 -9.3476 -16.8999 0.0001 52.0427 -0.0003
# 6 -0.0006 0.0001 0.0001 -2.3871 -0.0003 33.7040
#
#
#
# Elastic Compliance Matrix: (Units=1/GPa)
#
#
# Indices 1 2 3 4 5 6 
#
# 1 0.019656 -0.000898 -0.002566 0.000000 0.007297 0.000000
# 2 -0.000898 0.014843 -0.000735 0.000001 0.002049 0.000000
# 3 -0.002566 -0.000735 0.007052 0.000000 0.001076 0.000000
# 4 0.000000 0.000001 0.000000 0.030062 0.000000 0.002129
# 5 0.007297 0.002049 0.001076 0.000000 0.023010 0.000000
# 6 0.000000 0.000000 0.000000 0.002129 0.000000 0.029821
#
#
# Mechanical properties :
#
#
# Convention : Reuss Voigt Hill
#
# Bulk Modulus (GPa) = 30.16203 42.44592 36.30398
# Shear Modulus (GPa) = 34.74823 39.91466 37.33145
#
# Velocity S-wave (km/s) = 3.76128 4.03121 3.89859
# Velocity P-wave (km/s) = 5.58060 6.24090 5.91996
#
# Compressibility (1/GPa) = 0.03315427
#
# Stress axis : x y z
#
# Youngs Moduli (GPa) = 50.87546 67.37244 141.80060
#
# Poissons Ratio (x) = 0.06048 0.36381
# Poissons Ratio (y) = 0.04567 0.10422
# Poissons Ratio (z) = 0.13053 0.04952
#
# Static dielectric constant tensor:
#      x y z
#    x 2.109330 0.000000 -0.034700 
#    y 0.000000 2.125220 0.000000 
#    z -0.034700 0.000000 2.076370 
# 
# From -- ./inp_files/300130.got.cif
#   From: 2010.05.17/outbox.cif.g08.bks.cpg/sg15_151_cif.got.tgz:300130.got - 2010.06.03 18:47:42.
