data_PCOD9293708
_publ_section_title
;
Structure prediction by ZEFSAII (Michael W. Deem and Ramdas Pophale) SiO2 
 PCOD9293708
Probable space group: C 2/C
;
_chemical_formula_sum "Si O2"
_cell_formula_units_Z 60
_cell_length_a 23.704646
_cell_length_b 7.558112
_cell_length_c 13.996254
_cell_angle_alpha 90.000000
_cell_angle_beta 96.023157
_cell_angle_gamma 90.000000
_cell_volume 2493.758981
_symmetry_space_group_name_H-M "C 2/C"
_symmetry_group_IT_number 15
_symmetry_cell_setting 'monoclinic'
loop_
_space_group_symop_operation_xyz
x,y,z
-x,y,1/2-z
-x,-y,-z
x,-y,1/2+z
1/2+x,1/2+y,z
1/2-x,1/2+y,1/2-z
1/2-x,1/2-y,-z
1/2+x,1/2-y,1/2+z
loop_
_atom_site_type_symbol
_atom_site_label
_atom_site_fract_x
_atom_site_fract_y
_atom_site_fract_z
Si Si1 0.728089 0.378804 0.415834
Si Si2 0.773419 0.239513 0.131574
Si Si3 0.855678 0.823596 0.374211
Si Si4 0.000000 0.952299 0.250000
Si Si5 0.896094 0.248553 0.668484
Si Si6 0.879229 0.617829 0.572228
Si Si7 0.941463 0.284787 0.260267
Si Si8 0.833102 0.219675 0.330992
O O1 0.750000 0.250000 0.500000
O O2 0.727504 0.582965 0.445335
O O3 0.663867 0.330990 0.377276
O O4 0.781543 0.345796 0.354348
O O5 0.710924 0.284409 0.150259
O O6 0.815194 0.389948 0.102934
O O7 0.806617 0.150987 0.226632
O O8 0.886453 0.755775 0.282823
O O9 0.877527 0.708326 0.468668
O O10 0.853154 0.039780 0.387697
O O11 0.043148 0.847645 0.324296
O O12 0.037579 0.094906 0.198284
O O13 0.902252 0.425099 0.604953
O O14 0.913915 0.742326 0.651201
O O15 0.889153 0.336190 0.317917
O O16 0.000000 0.389790 0.250000
#
# Coordination Sequence:
#
# PCOD9293708 Si02
#       8
#     8   8   8   4   8   8   8   8
#     4  12  24  40  65 102 138 177 229 287 351 417
#     4  11  21  38  61  97 138 170 213 279 343 411
#     4  12  22  41  65  96 137 177 228 280 351 412
#     4  10  22  46  74  96 132 194 224 290 356 400
#     4  12  24  44  67  96 141 180 234 290 346 410
#     4  11  25  40  67  99 131 182 227 284 346 422
#     4   9  21  44  68  95 131 176 227 282 349 405
#     4  11  20  39  67  96 129 181 220 278 350 407
#
# _framework density 24.060063
#
# number of rings (size 3 to 8) (size 9 to 14) (size 15 to 20)
#    0.400    0.533    4.000    3.600    4.667    0.000 
#    0.000    4.667    0.000    0.000    0.000    0.000 
#    0.000    0.000    0.000    0.000    0.000    0.000 
#
# Total GULP energy -167095.668567 kJ/mol
# GULP energy per Si atom -5569.855619 kJ/mol
# Density = 2.400530 g / cm^3
# Si number density = 24.060063 Si / 1000 Ang^3
#
#
#
# Elastic Constant Matrix: (Units=GPa)
#
#
# Indices 1 2 3 4 5 6 
#
# 1 133.3277 23.7244 34.9008 0.0000 36.4270 0.0000
# 2 23.7244 85.2237 -9.3918 0.0000 15.9486 0.0000
# 3 34.9008 -9.3918 64.4268 0.0000 12.6544 0.0000
# 4 0.0000 0.0000 0.0000 28.6229 0.0000 3.2971
# 5 36.4270 15.9486 12.6544 0.0000 27.8520 0.0000
# 6 0.0000 0.0000 0.0000 3.2971 0.0000 29.1663
#
#
#
# Elastic Compliance Matrix: (Units=1/GPa)
#
#
# Indices 1 2 3 4 5 6 
#
# 1 0.012653 -0.001430 -0.004362 0.000000 -0.013747 0.000000
# 2 -0.001430 0.014173 0.004466 0.000000 -0.008274 0.000000
# 3 -0.004362 0.004466 0.019673 0.000000 -0.005790 0.000000
# 4 0.000000 0.000000 0.000000 0.035398 0.000000 -0.004002
# 5 -0.013747 -0.008274 -0.005790 0.000000 0.061252 0.000000
# 6 0.000000 0.000000 0.000000 -0.004002 0.000000 0.034738
#
#
# Mechanical properties :
#
#
# Convention : Reuss Voigt Hill
#
# Bulk Modulus (GPa) = 22.80795 42.38276 32.59536
# Shear Modulus (GPa) = 25.62063 32.71123 29.16593
#
# Velocity S-wave (km/s) = 3.26676 3.69123 3.48546
# Velocity P-wave (km/s) = 4.87126 5.98503 5.45663
#
# Compressibility (1/GPa) = 0.04384435
#
# Stress axis : x y z
#
# Youngs Moduli (GPa) = 79.03463 70.55908 50.83113
#
# Poissons Ratio (x) = 0.10093 0.22175
# Poissons Ratio (y) = 0.11305 -0.22701
# Poissons Ratio (z) = 0.34479 -0.31511
#
# Static dielectric constant tensor:
#      x y z
#    x 2.160070 0.000000 -0.226540 
#    y 0.000000 2.298820 0.000000 
#    z -0.226540 0.000000 2.209010 
# 
# From -- ./inp_files/172448.got.cif
#   From: 2010.05.17/outbox.cif.g08.bks.cpg/sg15_87_cif.got.tgz:172448.got - 2010.06.03 18:47:42.
