data_PCOD9293440
_publ_section_title
;
Structure prediction by ZEFSAII (Michael W. Deem and Ramdas Pophale) SiO2 
 PCOD9293440
Probable space group: C 2/C
;
_chemical_formula_sum "Si O2"
_cell_formula_units_Z 24
_cell_length_a 20.642399
_cell_length_b 9.448489
_cell_length_c 10.511606
_cell_angle_alpha 90.000000
_cell_angle_beta 29.270243
_cell_angle_gamma 90.000000
_cell_volume 1002.392524
_symmetry_space_group_name_H-M "C 2/C"
_symmetry_group_IT_number 15
_symmetry_cell_setting 'monoclinic'
loop_
_space_group_symop_operation_xyz
x,y,z
-x,y,1/2-z
-x,-y,-z
x,-y,1/2+z
1/2+x,1/2+y,z
1/2-x,1/2+y,1/2-z
1/2-x,1/2-y,-z
1/2+x,1/2-y,1/2+z
loop_
_atom_site_type_symbol
_atom_site_label
_atom_site_fract_x
_atom_site_fract_y
_atom_site_fract_z
Si Si1 0.630506 0.418525 0.738948
Si Si2 0.143759 0.450535 0.799931
Si Si3 0.222430 0.791165 0.335792
O O1 0.750030 0.523080 0.493926
O O2 0.672140 0.314982 0.780308
O O3 0.622064 0.326020 0.623852
O O4 0.500000 0.500000 0.000000
O O5 0.157249 0.293605 0.832635
O O6 0.197534 0.561985 0.815045
O O7 0.000000 0.500000 0.000000
#
# Coordination Sequence:
#
# PCOD9293440 Si02
#       3
#     8   8   8
#     4   9  21  46  74 104 144 197 252 307 376 437
#     4  10  22  45  75 106 151 196 251 313 367 458
#     4   9  22  45  73 109 146 198 252 300 378 458
#
# _framework density 23.942715
#
# number of rings (size 3 to 8) (size 9 to 14) (size 15 to 20)
#    2.000    0.667    0.000    0.000    0.000    5.333 
#   12.000   10.000    0.000    0.000    0.000    0.000 
#    0.000    0.000    0.000    0.000    0.000    0.000 
#
# Total GULP energy -66978.846407 kJ/mol
# GULP energy per Si atom -5581.570534 kJ/mol
# Density = 2.388822 g / cm^3
# Si number density = 23.942715 Si / 1000 Ang^3
#
#
#
# Elastic Constant Matrix: (Units=GPa)
#
#
# Indices 1 2 3 4 5 6 
#
# 1 90.3757 46.2366 23.3624 0.0000 -11.4220 0.0000
# 2 46.2366 131.1189 46.1519 0.0000 -11.6145 0.0000
# 3 23.3624 46.1519 145.1988 0.0000 -34.7443 0.0000
# 4 0.0000 0.0000 0.0000 49.9420 0.0000 4.5213
# 5 -11.4220 -11.6145 -34.7443 0.0000 25.0386 0.0000
# 6 0.0000 0.0000 0.0000 4.5213 0.0000 73.6760
#
#
#
# Elastic Compliance Matrix: (Units=1/GPa)
#
#
# Indices 1 2 3 4 5 6 
#
# 1 0.013932 -0.004620 0.000352 0.000000 0.004700 0.000000
# 2 -0.004620 0.010121 -0.002776 0.000000 -0.001266 0.000000
# 3 0.000352 -0.002776 0.011143 0.000000 0.014335 0.000000
# 4 0.000000 0.000000 0.000000 0.020135 0.000000 -0.001236
# 5 0.004700 -0.001266 0.014335 0.000000 0.061387 0.000000
# 6 0.000000 0.000000 0.000000 -0.001236 0.000000 0.013649
#
#
# Mechanical properties :
#
#
# Convention : Reuss Voigt Hill
#
# Bulk Modulus (GPa) = 47.37986 66.46615 56.92300
# Shear Modulus (GPa) = 33.00490 46.46082 39.73286
#
# Velocity S-wave (km/s) = 3.71684 4.40989 4.07811
# Velocity P-wave (km/s) = 6.18479 7.33146 6.78240
#
# Compressibility (1/GPa) = 0.02110602
#
# Stress axis : x y z
#
# Youngs Moduli (GPa) = 71.77848 98.80391 89.74016
#
# Poissons Ratio (x) = 0.45649 -0.03155
# Poissons Ratio (y) = 0.33163 0.24916
# Poissons Ratio (z) = -0.02524 0.27432
#
# Static dielectric constant tensor:
#      x y z
#    x 2.003010 0.000000 -0.009930 
#    y 0.000000 2.023920 0.000000 
#    z -0.009930 0.000000 1.864690 
# 
# From -- ./inp_files/74775.got.cif
#   From: 2010.05.17/outbox.cif.g08.bks.cpg/sg15_38_cif.got.tgz:74775.got - 2010.06.03 18:47:42.
