data_PCOD9293821
_publ_section_title
;
Structure prediction by ZEFSAII (Michael W. Deem and Ramdas Pophale) SiO2 
 PCOD9293821
Probable space group: C 2/C
;
_chemical_formula_sum "Si O2"
_cell_formula_units_Z 36
_cell_length_a 13.017475
_cell_length_b 12.518978
_cell_length_c 14.901343
_cell_angle_alpha 90.000000
_cell_angle_beta 142.378447
_cell_angle_gamma 90.000000
_cell_volume 1482.402947
_symmetry_space_group_name_H-M "C 2/C"
_symmetry_group_IT_number 15
_symmetry_cell_setting 'monoclinic'
loop_
_space_group_symop_operation_xyz
x,y,z
-x,y,1/2-z
-x,-y,-z
x,-y,1/2+z
1/2+x,1/2+y,z
1/2-x,1/2+y,1/2-z
1/2-x,1/2-y,-z
1/2+x,1/2-y,1/2+z
loop_
_atom_site_type_symbol
_atom_site_label
_atom_site_fract_x
_atom_site_fract_y
_atom_site_fract_z
Si Si1 0.174770 0.734469 0.324548
Si Si2 0.791303 0.431460 0.499084
Si Si3 0.033962 0.379433 0.168968
Si Si4 0.711034 0.223569 0.145888
Si Si5 0.500000 0.590256 0.250000
O O1 0.226502 0.634909 0.421692
O O2 0.283470 0.840899 0.416718
O O3 0.161492 0.699805 0.213337
O O4 0.000000 0.766832 0.250000
O O5 0.959074 0.502386 0.604124
O O6 0.637338 0.513994 0.390738
O O7 0.000000 0.357691 0.250000
O O8 0.229678 0.347178 0.302514
O O9 0.925906 0.307291 0.023827
O O10 0.880100 0.159553 0.232638
#
# Coordination Sequence:
#
# PCOD9293821 Si02
#       5
#     8   8   8   8   4
#     4  11  25  49  67 106 146 193 236 293 352 431
#     4  10  24  44  73  98 152 186 242 289 352 426
#     4  11  24  48  71 111 139 186 237 298 353 424
#     4  11  26  43  78 102 144 185 236 297 358 411
#     4  10  22  48  66 110 136 192 236 300 352 420
#
# _framework density 24.284896
#
# number of rings (size 3 to 8) (size 9 to 14) (size 15 to 20)
#    0.000    1.333    2.222    1.333    9.333    1.778 
#   12.000    0.000    0.000    0.000    0.000    0.000 
#    0.000    0.000    0.000    0.000    0.000    0.000 
#
# Total GULP energy -100508.884774 kJ/mol
# GULP energy per Si atom -5583.826932 kJ/mol
# Density = 2.422962 g / cm^3
# Si number density = 24.284896 Si / 1000 Ang^3
#
#
#
# Elastic Constant Matrix: (Units=GPa)
#
#
# Indices 1 2 3 4 5 6 
#
# 1 102.1582 43.3313 63.6991 0.0000 -22.3858 0.0000
# 2 43.3313 133.7776 78.2929 0.0000 -4.1893 0.0000
# 3 63.6991 78.2929 149.8972 0.0001 -40.5470 0.0001
# 4 0.0000 0.0000 0.0001 50.7372 0.0000 17.4525
# 5 -22.3858 -4.1893 -40.5470 0.0000 44.4802 0.0000
# 6 0.0000 0.0000 0.0001 17.4525 0.0000 4.3311
#
#
#
# Elastic Compliance Matrix: (Units=1/GPa)
#
#
# Indices 1 2 3 4 5 6 
#
# 1 0.013814 -0.002078 -0.003925 0.000000 0.003178 0.000000
# 2 -0.002078 0.012179 -0.007235 0.000000 -0.006494 0.000000
# 3 -0.003925 -0.007235 0.015130 0.000000 0.011135 0.000000
# 4 0.000000 0.000000 0.000000 -0.051048 0.000000 0.205703
# 5 0.003178 -0.006494 0.011135 0.000000 0.033621 0.000001
# 6 0.000000 0.000000 0.000000 0.205703 0.000001 -0.598013
#
#
# Mechanical properties :
#
#
# Convention : Reuss Voigt Hill
#
# Bulk Modulus (GPa) = 68.27068 84.05329 76.16198
# Shear Modulus (GPa) = -9.20880 33.27701 12.03411
#
# Velocity S-wave (km/s) = -1.94941 3.70574 2.22848
# Velocity P-wave (km/s) = 4.80692 7.27987 6.16859
#
# Compressibility (1/GPa) = 0.01464758
#
# Stress axis : x y z
#
# Youngs Moduli (GPa) = 72.38999 82.10995 66.09264
#
# Poissons Ratio (x) = 0.17059 0.25944
# Poissons Ratio (y) = 0.15039 0.47816
# Poissons Ratio (z) = 0.28416 0.59405
#
# Static dielectric constant tensor:
#      x y z
#    x 2.075800 0.000000 0.069190 
#    y 0.000000 2.087670 0.000000 
#    z 0.069190 0.000000 1.992430 
# 
# From -- ./inp_files/152824.got.cif
#   From: 2010.05.17/outbox.cif.g08.bks.cpg/sg15_77_cif.got.tgz:152824.got - 2010.06.03 18:47:42.
