data_PCOD9293515
_publ_section_title
;
Structure prediction by ZEFSAII (Michael W. Deem and Ramdas Pophale) SiO2 
 PCOD9293515
Probable space group: C 2/C
;
_chemical_formula_sum "Si O2"
_cell_formula_units_Z 56
_cell_length_a 27.420651
_cell_length_b 9.237112
_cell_length_c 13.594600
_cell_angle_alpha 90.000000
_cell_angle_beta 128.148799
_cell_angle_gamma 90.000000
_cell_volume 2707.877370
_symmetry_space_group_name_H-M "C 2/C"
_symmetry_group_IT_number 15
_symmetry_cell_setting 'monoclinic'
loop_
_space_group_symop_operation_xyz
x,y,z
-x,y,1/2-z
-x,-y,-z
x,-y,1/2+z
1/2+x,1/2+y,z
1/2-x,1/2+y,1/2-z
1/2-x,1/2-y,-z
1/2+x,1/2-y,1/2+z
loop_
_atom_site_type_symbol
_atom_site_label
_atom_site_fract_x
_atom_site_fract_y
_atom_site_fract_z
Si Si1 0.667167 0.432981 0.509595
Si Si2 0.364674 0.682122 0.881897
Si Si3 0.402055 0.128883 0.603238
Si Si4 0.775152 0.588336 0.531673
Si Si5 0.500000 0.883060 0.750000
Si Si6 0.059704 0.122529 0.712695
Si Si7 0.500000 0.380541 0.750000
Si Si8 0.256592 0.183692 0.897233
O O1 0.640795 0.540103 0.557400
O O2 0.732490 0.510037 0.560058
O O3 0.619133 0.413909 0.358578
O O4 0.684694 0.272803 0.568971
O O5 0.417179 0.647277 0.867914
O O6 0.302632 0.709437 0.742488
O O7 0.374165 0.819007 0.964813
O O8 0.349657 0.098764 0.620528
O O9 0.442711 0.270078 0.680585
O O10 0.445834 0.990257 0.646942
O O11 0.750000 0.750000 0.500000
O O12 0.763168 0.487240 0.421417
O O13 0.528976 0.772735 0.707843
O O14 0.011849 0.991959 0.674898
O O15 0.250000 0.250000 0.000000
#
# Coordination Sequence:
#
# PCOD9293515 Si02
#       8
#     8   8   8   8   4   8   4   8
#     4  11  23  43  67 105 138 182 222 282 352 422
#     4  12  24  39  73 103 136 179 238 277 345 431
#     4  11  24  42  67 102 134 181 230 282 348 416
#     4  11  20  40  70  95 138 175 216 281 348 412
#     4  10  26  46  72  90 142 190 228 300 356 388
#     4  11  22  46  74  93 131 187 232 292 342 407
#     4  10  22  46  66  88 134 182 232 284 336 402
#     4  10  23  40  63  97 141 174 216 278 347 409
#
# _framework density 20.680406000000001
#
# number of rings (size 3 to 8) (size 9 to 14) (size 15 to 20)
#    0.000    1.143    5.714    0.857    4.000    1.143 
#    0.000    0.000    3.143    0.000    0.000    0.000 
#    0.000    0.000    0.000    0.000    0.000    0.000 
#
# Total GULP energy -156088.159958 kJ/mol
# GULP energy per Si atom -5574.577141 kJ/mol
# Density = 2.063334 g / cm^3
# Si number density = 20.680406 Si / 1000 Ang^3
#
#
#
# Elastic Constant Matrix: (Units=GPa)
#
#
# Indices 1 2 3 4 5 6 
#
# 1 145.0180 61.7593 24.0253 0.0000 -2.2122 0.0000
# 2 61.7593 157.6388 41.1648 0.0000 1.4922 0.0000
# 3 24.0253 41.1648 56.2932 0.0000 9.2151 0.0000
# 4 0.0000 0.0000 0.0000 21.2875 0.0000 14.7218
# 5 -2.2122 1.4922 9.2151 0.0000 29.4405 0.0000
# 6 0.0000 0.0000 0.0000 14.7218 0.0000 41.6812
#
#
#
# Elastic Compliance Matrix: (Units=1/GPa)
#
#
# Indices 1 2 3 4 5 6 
#
# 1 0.008419 -0.002863 -0.001715 0.000000 0.001314 0.000000
# 2 -0.002863 0.008876 -0.005438 0.000000 0.001037 0.000000
# 3 -0.001715 -0.005438 0.023661 0.000000 -0.007259 0.000000
# 4 0.000000 0.000000 0.000000 0.062159 0.000000 -0.021955
# 5 0.001314 0.001037 -0.007259 0.000000 0.036285 0.000000
# 6 0.000000 0.000000 0.000000 -0.021955 0.000000 0.031746
#
#
# Mechanical properties :
#
#
# Convention : Reuss Voigt Hill
#
# Bulk Modulus (GPa) = 47.79264 68.09434 57.94349
# Shear Modulus (GPa) = 25.23306 33.94855 29.59081
#
# Velocity S-wave (km/s) = 3.49684 4.05604 3.78678
# Velocity P-wave (km/s) = 6.28205 7.41173 6.87015
#
# Compressibility (1/GPa) = 0.02092372
#
# Stress axis : x y z
#
# Youngs Moduli (GPa) = 118.77692 112.66849 42.26368
#
# Poissons Ratio (x) = 0.32258 0.07247
# Poissons Ratio (y) = 0.34007 0.22984
# Poissons Ratio (z) = 0.20367 0.61271
#
# Static dielectric constant tensor:
#      x y z
#    x 1.805880 0.000000 0.042330 
#    y 0.000000 1.789360 0.000000 
#    z 0.042330 0.000000 1.767780 
# 
# From -- ./inp_files/180875.got.cif
#   From: 2010.05.17/outbox.cif.g08.bks.cpg/sg15_91_cif.got.tgz:180875.got - 2010.06.03 18:47:42.
