data_PCOD9293776
_publ_section_title
;
Structure prediction by ZEFSAII (Michael W. Deem and Ramdas Pophale) SiO2 
 PCOD9293776
Probable space group: C 2/C
;
_chemical_formula_sum "Si O2"
_cell_formula_units_Z 44
_cell_length_a 27.317400
_cell_length_b 8.815932
_cell_length_c 26.084814
_cell_angle_alpha 90.000000
_cell_angle_beta 19.747685
_cell_angle_gamma 90.000000
_cell_volume 2122.541253
_symmetry_space_group_name_H-M "C 2/C"
_symmetry_group_IT_number 15
_symmetry_cell_setting 'monoclinic'
loop_
_space_group_symop_operation_xyz
x,y,z
-x,y,1/2-z
-x,-y,-z
x,-y,1/2+z
1/2+x,1/2+y,z
1/2-x,1/2+y,1/2-z
1/2-x,1/2-y,-z
1/2+x,1/2-y,1/2+z
loop_
_atom_site_type_symbol
_atom_site_label
_atom_site_fract_x
_atom_site_fract_y
_atom_site_fract_z
Si Si1 0.720362 0.274237 0.469861
Si Si2 0.821014 0.801072 0.277635
Si Si3 0.527464 0.081942 0.025981
Si Si4 0.500000 0.823400 0.750000
Si Si5 0.520967 0.938049 0.318998
Si Si6 0.099629 0.892261 0.067149
O O1 0.750000 0.250000 0.500000
O O2 0.638105 0.126249 0.532530
O O3 0.872729 0.298550 0.292996
O O4 0.637286 0.433167 0.541228
O O5 0.697411 0.896066 0.370359
O O6 0.927682 0.731290 0.129310
O O7 0.717134 0.684824 0.412730
O O8 0.938380 0.874280 0.201230
O O9 0.468734 0.996613 0.134153
O O10 0.500000 0.000000 0.000000
O O11 0.399515 0.709294 0.881890
O O12 0.446632 0.938422 0.757609
#
# Coordination Sequence:
#
# PCOD9293776 Si02
#       6
#     8   8   8   4   8   8
#     4  12  26  42  62 102 147 184 220 279 353 414
#     4  10  22  47  71 104 129 180 242 285 336 416
#     4  11  25  49  72  97 139 175 236 295 338 410
#     4  12  22  40  72 102 134 184 224 286 334 412
#     4  12  26  44  64 102 143 177 234 281 343 414
#     4  11  24  41  71  99 145 180 234 279 346 413
#
# _framework density 20.729868
#
# number of rings (size 3 to 8) (size 9 to 14) (size 15 to 20)
#    0.000    0.727    7.273    0.000    5.091    4.364 
#    0.000    1.818    0.000    0.000    0.000    0.000 
#    0.000    0.000    0.000    0.000    0.000    0.000 
#
# Total GULP energy -122721.761893 kJ/mol
# GULP energy per Si atom -5578.261904 kJ/mol
# Density = 2.068269 g / cm^3
# Si number density = 20.729868 Si / 1000 Ang^3
#
#
#
# Elastic Constant Matrix: (Units=GPa)
#
#
# Indices 1 2 3 4 5 6 
#
# 1 98.2515 -107.6112 -124.1464 0.0162 51.3802 -0.0030
# 2 -107.6112 -320.9001 -414.9567 0.0503 135.0320 -0.0090
# 3 -124.1464 -414.9567 -390.4641 0.0499 144.7007 -0.0092
# 4 0.0162 0.0503 0.0499 43.3080 -0.0160 -6.5275
# 5 51.3802 135.0320 144.7007 -0.0160 -24.8135 0.0030
# 6 -0.0030 -0.0090 -0.0092 -6.5275 0.0030 44.1872
#
#
#
# Elastic Compliance Matrix: (Units=1/GPa)
#
#
# Indices 1 2 3 4 5 6 
#
# 1 0.007719 -0.001990 -0.001353 0.000000 -0.002735 0.000000
# 2 -0.001990 0.009782 -0.007267 0.000000 0.006736 0.000000
# 3 -0.001353 -0.007267 0.008700 0.000002 0.008387 0.000000
# 4 0.000000 0.000000 0.000002 0.023616 -0.000002 0.003489
# 5 -0.002735 0.006736 0.008387 -0.000002 0.039602 0.000000
# 6 0.000000 0.000000 0.000000 0.003489 0.000000 0.023146
#
#
# Mechanical properties :
#
#
# Convention : Reuss Voigt Hill
#
# Bulk Modulus (GPa) = 200.73000 -211.83792 -5.55396
# Shear Modulus (GPa) = 36.91544 14.77645 25.84595
#
# Velocity S-wave (km/s) = 4.22451 2.67275 3.53483
# Velocity P-wave (km/s) = 10.99258 9.63778 3.73832
#
# Compressibility (1/GPa) = 0.00498182
#
# Stress axis : x y z
#
# Youngs Moduli (GPa) = 129.54829 102.22885 114.94891
#
# Poissons Ratio (x) = 0.20347 0.15547
# Poissons Ratio (y) = 0.25784 0.83528
# Poissons Ratio (z) = 0.17521 0.74285
#
# Static dielectric constant tensor:
#      x y z
#    x 1.704540 0.000000 -0.047030 
#    y 0.000000 1.806310 0.000000 
#    z -0.047030 0.000000 1.792100 
# 
# From -- ./inp_files/68415.got.cif
#   From: 2010.05.17/outbox.cif.g08.bks.cpg/sg15_35_cif.got.tgz:68415.got - 2010.06.03 18:47:42.
