data_PCOD9293689
_publ_section_title
;
Structure prediction by ZEFSAII (Michael W. Deem and Ramdas Pophale) SiO2 
 PCOD9293689
Probable space group: C 2/C
;
_chemical_formula_sum "Si O2"
_cell_formula_units_Z 40
_cell_length_a 8.885699
_cell_length_b 23.514466
_cell_length_c 17.012788
_cell_angle_alpha 90.000000
_cell_angle_beta 150.152897
_cell_angle_gamma 90.000000
_cell_volume 1769.125599
_symmetry_space_group_name_H-M "C 2/C"
_symmetry_group_IT_number 15
_symmetry_cell_setting 'monoclinic'
loop_
_space_group_symop_operation_xyz
x,y,z
-x,y,1/2-z
-x,-y,-z
x,-y,1/2+z
1/2+x,1/2+y,z
1/2-x,1/2+y,1/2-z
1/2-x,1/2-y,-z
1/2+x,1/2-y,1/2+z
loop_
_atom_site_type_symbol
_atom_site_label
_atom_site_fract_x
_atom_site_fract_y
_atom_site_fract_z
Si Si1 0.113205 0.250360 0.660098
Si Si2 0.163085 0.425692 0.461322
Si Si3 0.052646 0.628337 0.076728
Si Si4 0.176611 0.527674 0.248142
Si Si5 0.000000 0.186441 0.750000
Si Si6 0.000000 0.338539 0.250000
O O1 0.205652 0.313744 0.678145
O O2 0.232580 0.203591 0.654272
O O3 0.750000 0.250000 0.500000
O O4 0.204138 0.226970 0.787299
O O5 0.190306 0.398047 0.559603
O O6 0.469864 0.459644 0.580832
O O7 0.891462 0.471080 0.332660
O O8 0.098499 0.377897 0.367083
O O9 0.051984 0.581513 0.143729
O O10 0.714867 0.647045 0.899002
O O11 0.000000 0.521607 0.250000
#
# Coordination Sequence:
#
# PCOD9293689 Si02
#       6
#     8   8   8   8   4   4
#     4  10  25  44  71 109 146 195 242 307 379 444
#     4  12  28  50  75 111 150 201 254 317 372 454
#     4  11  26  45  75 107 148 197 250 304 380 441
#     4  12  29  46  76 107 152 196 256 308 379 443
#     4  10  22  46  73 105 150 190 244 310 374 448
#     4  12  26  48  81 109 156 196 260 312 382 450
#
# _framework density 22.610040999999999
#
# number of rings (size 3 to 8) (size 9 to 14) (size 15 to 20)
#    0.000    0.800    3.000    1.800   12.600    2.400 
#    0.000    0.000    0.000    0.000    0.000    0.000 
#    0.000    0.000    0.000    0.000    0.000    0.000 
#
# Total GULP energy -111940.071967 kJ/mol
# GULP energy per Si atom -5597.003598 kJ/mol
# Density = 2.255858 g / cm^3
# Si number density = 22.610041 Si / 1000 Ang^3
#
#
#
# Elastic Constant Matrix: (Units=GPa)
#
#
# Indices 1 2 3 4 5 6 
#
# 1 62.9037 41.7984 20.4850 0.0152 0.2932 -0.0060
# 2 41.7984 164.7491 39.0649 0.0291 -7.4867 -0.0044
# 3 20.4850 39.0649 75.6165 0.0474 0.4772 -0.0042
# 4 0.0152 0.0291 0.0474 34.4455 -0.0052 -1.3095
# 5 0.2932 -7.4867 0.4772 -0.0052 40.1210 -0.0005
# 6 -0.0060 -0.0044 -0.0042 -1.3095 -0.0005 44.8647
#
#
#
# Elastic Compliance Matrix: (Units=1/GPa)
#
#
# Indices 1 2 3 4 5 6 
#
# 1 0.019790 -0.004322 -0.003123 -0.000001 -0.000914 0.000002
# 2 -0.004322 0.007933 -0.002937 -0.000001 0.001547 0.000000
# 3 -0.003123 -0.002937 0.015593 -0.000018 -0.000711 0.000000
# 4 -0.000001 -0.000001 -0.000018 0.029064 0.000004 0.000848
# 5 -0.000914 0.001547 -0.000711 0.000004 0.025228 0.000000
# 6 0.000002 0.000000 0.000000 0.000848 0.000000 0.022314
#
#
# Mechanical properties :
#
#
# Convention : Reuss Voigt Hill
#
# Bulk Modulus (GPa) = 44.34208 56.21843 50.28026
# Shear Modulus (GPa) = 33.73733 37.34764 35.54248
#
# Velocity S-wave (km/s) = 3.86701 4.06866 3.96912
# Velocity P-wave (km/s) = 6.29227 6.85495 6.57963
#
# Compressibility (1/GPa) = 0.02255194
#
# Stress axis : x y z
#
# Youngs Moduli (GPa) = 50.52940 126.05285 64.13320
#
# Poissons Ratio (x) = 0.54481 0.20027
# Poissons Ratio (y) = 0.21839 0.18838
# Poissons Ratio (z) = 0.15779 0.37026
#
# Static dielectric constant tensor:
#      x y z
#    x 1.883020 0.000000 -0.000820 
#    y 0.000000 1.816460 -0.000020 
#    z -0.000820 -0.000020 1.891350 
# 
# From -- ./inp_files/193467.got.cif
#   From: 2010.05.17/outbox.cif.g08.bks.cpg/sg15_97_cif.got.tgz:193467.got - 2010.06.03 18:47:42.
