data_PCOD9293694
_publ_section_title
;
Structure prediction by ZEFSAII (Michael W. Deem and Ramdas Pophale) SiO2 
 PCOD9293694
Probable space group: C 2/C
;
_chemical_formula_sum "Si O2"
_cell_formula_units_Z 32
_cell_length_a 23.775393
_cell_length_b 7.160711
_cell_length_c 19.416040
_cell_angle_alpha 90.000000
_cell_angle_beta 159.769159
_cell_angle_gamma 90.000000
_cell_volume 1143.072206
_symmetry_space_group_name_H-M "C 2/C"
_symmetry_group_IT_number 15
_symmetry_cell_setting 'monoclinic'
loop_
_space_group_symop_operation_xyz
x,y,z
-x,y,1/2-z
-x,-y,-z
x,-y,1/2+z
1/2+x,1/2+y,z
1/2-x,1/2+y,1/2-z
1/2-x,1/2-y,-z
1/2+x,1/2-y,1/2+z
loop_
_atom_site_type_symbol
_atom_site_label
_atom_site_fract_x
_atom_site_fract_y
_atom_site_fract_z
Si Si1 0.765206 0.349906 0.346336
Si Si2 0.697405 0.044321 0.464742
Si Si3 0.318512 0.562156 0.959240
Si Si4 0.474740 0.810936 0.039363
O O1 0.725910 0.460332 0.371309
O O2 0.614780 0.301952 0.124125
O O3 0.891898 0.487509 0.455707
O O4 0.838284 0.150729 0.455546
O O5 0.500000 0.029961 0.250000
O O6 0.750000 0.250000 0.500000
O O7 0.774857 0.930795 0.489882
O O8 0.454991 0.697259 0.087702
O O9 0.160685 0.646723 0.740396
#
# Coordination Sequence:
#
# PCOD9293694 Si02
#       4
#     8   8   8   8
#     4  11  24  44  75 105 145 190 239 301 362 428
#     4  10  22  46  73  99 142 193 237 290 363 430
#     4  11  26  47  71 109 147 193 241 298 366 435
#     4  12  25  44  76 109 147 185 247 301 362 432
#
# _framework density 27.994731000000002
#
# number of rings (size 3 to 8) (size 9 to 14) (size 15 to 20)
#    0.000    1.000    5.000    0.750    0.000    4.000 
#    4.500    0.000    0.000    0.000    0.000    0.000 
#    0.000    0.000    0.000    0.000    0.000    0.000 
#
# Total GULP energy -89728.759068 kJ/mol
# GULP energy per Si atom -5608.047442 kJ/mol
# Density = 2.793101 g / cm^3
# Si number density = 27.994731 Si / 1000 Ang^3
#
#
#
# Elastic Constant Matrix: (Units=GPa)
#
#
# Indices 1 2 3 4 5 6 
#
# 1 174.8625 52.4055 52.8225 0.0000 -14.3664 0.0000
# 2 52.4055 153.7497 50.2136 0.0001 11.8958 0.0001
# 3 52.8225 50.2136 96.2913 0.0002 7.4091 0.0001
# 4 0.0000 0.0001 0.0002 45.3392 0.0002 -5.3188
# 5 -14.3664 11.8958 7.4091 0.0002 51.3449 0.0001
# 6 0.0000 0.0001 0.0001 -5.3188 0.0001 67.9310
#
#
#
# Elastic Compliance Matrix: (Units=1/GPa)
#
#
# Indices 1 2 3 4 5 6 
#
# 1 0.007514 -0.001653 -0.003490 0.000000 0.002989 0.000000
# 2 -0.001653 0.008281 -0.003265 0.000000 -0.001910 0.000000
# 3 -0.003490 -0.003265 0.014177 0.000000 -0.002266 0.000000
# 4 0.000000 0.000000 0.000000 0.022260 0.000000 0.001743
# 5 0.002989 -0.001910 -0.002266 0.000000 0.021082 0.000000
# 6 0.000000 0.000000 0.000000 0.001743 0.000000 0.014857
#
#
# Mechanical properties :
#
#
# Convention : Reuss Voigt Hill
#
# Bulk Modulus (GPa) = 76.00741 81.75407 78.88074
# Shear Modulus (GPa) = 45.71525 50.88717 48.30121
#
# Velocity S-wave (km/s) = 4.04542 4.26812 4.15826
# Velocity P-wave (km/s) = 7.00215 7.31819 7.16191
#
# Compressibility (1/GPa) = 0.01315661
#
# Stress axis : x y z
#
# Youngs Moduli (GPa) = 133.08698 120.75159 70.53804
#
# Poissons Ratio (x) = 0.19954 0.24619
# Poissons Ratio (y) = 0.21993 0.23031
# Poissons Ratio (z) = 0.46449 0.39427
#
# Static dielectric constant tensor:
#      x y z
#    x 2.228320 0.000000 -0.039500 
#    y 0.000000 2.421480 0.000000 
#    z -0.039500 0.000000 2.164900 
# 
# From -- ./inp_files/102238.got.cif
#   From: 2010.05.17/outbox.cif.g08.bks.cpg/sg15_52_cif.got.tgz:102238.got - 2010.06.03 18:47:42.
