data_PCOD9293448
_publ_section_title
;
Structure prediction by ZEFSAII (Michael W. Deem and Ramdas Pophale) SiO2 
 PCOD9293448
Probable space group: C 2/C
;
_chemical_formula_sum "Si O2"
_cell_formula_units_Z 64
_cell_length_a 18.350265
_cell_length_b 24.252090
_cell_length_c 15.988932
_cell_angle_alpha 90.000000
_cell_angle_beta 21.961941
_cell_angle_gamma 90.000000
_cell_volume 2661.164260
_symmetry_space_group_name_H-M "C 2/C"
_symmetry_group_IT_number 15
_symmetry_cell_setting 'monoclinic'
loop_
_space_group_symop_operation_xyz
x,y,z
-x,y,1/2-z
-x,-y,-z
x,-y,1/2+z
1/2+x,1/2+y,z
1/2-x,1/2+y,1/2-z
1/2-x,1/2-y,-z
1/2+x,1/2-y,1/2+z
loop_
_atom_site_type_symbol
_atom_site_label
_atom_site_fract_x
_atom_site_fract_y
_atom_site_fract_z
Si Si1 0.285787 0.314452 0.947072
Si Si2 0.157369 0.106146 0.811875
Si Si3 0.728636 0.235775 0.119608
Si Si4 0.025473 0.372245 0.822562
Si Si5 0.123158 0.391586 0.258716
Si Si6 0.204297 0.511553 0.117892
Si Si7 0.135941 0.001209 0.233309
Si Si8 0.715042 0.622926 0.221401
O O1 0.150418 0.350797 0.152113
O O2 0.500000 0.329003 0.750000
O O3 0.250000 0.250000 0.000000
O O4 0.283643 0.331323 0.852721
O O5 0.313053 0.136708 0.589288
O O6 0.204046 0.113261 0.859850
O O7 0.166983 0.042407 0.774194
O O8 0.940070 0.128153 0.040978
O O9 0.457603 0.253112 0.415440
O O10 0.684031 0.172139 0.179851
O O11 0.750000 0.250000 0.000000
O O12 0.097910 0.434367 0.763593
O O13 0.000000 0.368118 0.750000
O O14 0.105832 0.453579 0.244277
O O15 0.936787 0.378455 0.513065
O O16 0.235984 0.514165 0.984282
O O17 0.416157 0.506579 0.934801
O O18 0.174910 0.063396 0.220330
#
# Coordination Sequence:
#
# PCOD9293448 Si02
#       8
#     8   8   8   8   8   8   8   8
#     4  12  24  48  81 110 144 198 261 309 366 456
#     4  12  27  45  67 107 153 187 245 310 380 453
#     4  10  22  45  77 102 135 188 246 310 369 445
#     4  12  25  44  70 108 142 192 250 305 374 462
#     4  12  26  46  73 103 150 201 239 307 385 448
#     4  11  24  41  69 106 148 191 255 301 370 470
#     4  11  23  41  67 103 148 203 237 308 376 466
#     4  12  25  45  69 105 146 194 250 300 381 449
#
# _framework density 24.049624999999999
#
# number of rings (size 3 to 8) (size 9 to 14) (size 15 to 20)
#    0.000    0.500    6.250    2.250    1.750    4.000 
#    0.000    1.250    0.000    0.000    0.000    0.000 
#    0.000    0.000    0.000    0.000    0.000    0.000 
#
# Total GULP energy -178399.840815 kJ/mol
# GULP energy per Si atom -5574.995025 kJ/mol
# Density = 2.399489 g / cm^3
# Si number density = 24.049625 Si / 1000 Ang^3
#
#
#
# Elastic Constant Matrix: (Units=GPa)
#
#
# Indices 1 2 3 4 5 6 
#
# 1 64.6647 27.1841 12.8949 -0.0667 -0.7428 0.0551
# 2 27.1841 135.4564 53.6218 -0.2816 11.0002 0.1170
# 3 12.8949 53.6218 167.3427 -0.2408 14.5307 0.1314
# 4 -0.0667 -0.2816 -0.2408 26.4775 0.0327 -1.1750
# 5 -0.7428 11.0002 14.5307 0.0327 37.1465 -0.0741
# 6 0.0551 0.1170 0.1314 -1.1750 -0.0741 20.1353
#
#
#
# Elastic Compliance Matrix: (Units=1/GPa)
#
#
# Indices 1 2 3 4 5 6 
#
# 1 0.016976 -0.003388 -0.000351 0.000001 0.001480 -0.000019
# 2 -0.003388 0.009212 -0.002534 0.000067 -0.001805 -0.000030
# 3 -0.000351 -0.002534 0.006988 0.000037 -0.001990 -0.000035
# 4 0.000001 0.000067 0.000037 0.037867 -0.000063 0.002209
# 5 0.001480 -0.001805 -0.001990 -0.000063 0.028263 0.000120
# 6 -0.000019 -0.000030 -0.000035 0.002209 0.000120 0.049794
#
#
# Mechanical properties :
#
#
# Convention : Reuss Voigt Hill
#
# Bulk Modulus (GPa) = 48.47401 61.65172 55.06287
# Shear Modulus (GPa) = 29.66972 35.00273 32.33623
#
# Velocity S-wave (km/s) = 3.51620 3.81916 3.67081
# Velocity P-wave (km/s) = 6.05677 6.71854 6.39622
#
# Compressibility (1/GPa) = 0.02062961
#
# Stress axis : x y z
#
# Youngs Moduli (GPa) = 58.90786 108.55178 143.10942
#
# Poissons Ratio (x) = 0.36777 0.05023
# Poissons Ratio (y) = 0.19958 0.36264
# Poissons Ratio (z) = 0.02067 0.27507
#
# Static dielectric constant tensor:
#      x y z
#    x 1.964480 -0.000790 -0.099360 
#    y -0.000790 1.957630 -0.000270 
#    z -0.099360 -0.000270 2.275120 
# 
# From -- ./inp_files/216954.got.cif
#   From: 2010.05.17/outbox.cif.g08.bks.cpg/sg15_109_cif.got.tgz:216954.got - 2010.06.03 18:47:42.
