data_PCOD9293339
_publ_section_title
;
Structure prediction by ZEFSAII (Michael W. Deem and Ramdas Pophale) SiO2 
 PCOD9293339
Probable space group: C 2/C
;
_chemical_formula_sum "Si O2"
_cell_formula_units_Z 48
_cell_length_a 16.336486
_cell_length_b 16.441452
_cell_length_c 16.517535
_cell_angle_alpha 90.000000
_cell_angle_beta 34.954802
_cell_angle_gamma 90.000000
_cell_volume 2541.825098
_symmetry_space_group_name_H-M "C 2/C"
_symmetry_group_IT_number 15
_symmetry_cell_setting 'monoclinic'
loop_
_space_group_symop_operation_xyz
x,y,z
-x,y,1/2-z
-x,-y,-z
x,-y,1/2+z
1/2+x,1/2+y,z
1/2-x,1/2+y,1/2-z
1/2-x,1/2-y,-z
1/2+x,1/2-y,1/2+z
loop_
_atom_site_type_symbol
_atom_site_label
_atom_site_fract_x
_atom_site_fract_y
_atom_site_fract_z
Si Si1 0.582527 0.687620 0.061615
Si Si2 0.092071 0.922406 0.398503
Si Si3 0.618013 0.865140 0.590429
Si Si4 0.654940 0.989412 0.413665
Si Si5 0.222003 0.841291 0.619624
Si Si6 0.427723 0.679846 0.895868
O O1 0.413003 0.689544 0.217601
O O2 0.658344 0.651608 0.080471
O O3 0.614475 0.631497 0.959491
O O4 0.652024 0.775229 0.988249
O O5 0.237046 0.952327 0.239540
O O6 0.007459 0.868993 0.400800
O O7 0.000000 0.000000 0.500000
O O8 0.500000 0.893629 0.750000
O O9 0.643427 0.928415 0.498689
O O10 0.569489 0.777303 0.594437
O O11 0.764279 0.847793 0.519896
O O12 0.500000 0.000000 0.500000
O O13 0.719866 0.074579 0.392322
O O14 0.500000 0.663987 0.750000
#
# Coordination Sequence:
#
# PCOD9293339 Si02
#       6
#     8   8   8   8   8   8
#     4  10  24  45  72  97 130 180 227 273 334 397
#     4  12  26  42  71  98 131 180 228 270 332 405
#     4  10  24  43  68  99 131 175 214 277 339 398
#     4  12  28  43  64 105 137 171 224 287 331 390
#     4  10  24  47  69  96 134 177 226 276 335 393
#     4  10  22  45  70  95 132 178 225 264 337 404
#
# _framework density 18.884069
#
# number of rings (size 3 to 8) (size 9 to 14) (size 15 to 20)
#    0.000    1.333    3.333    0.000    9.333    0.000 
#    3.000    0.000    0.000    0.000    0.000    0.000 
#    0.000    0.000    0.000    0.000    0.000    0.000 
#
# Total GULP energy -134173.577073 kJ/mol
# GULP energy per Si atom -5590.565711 kJ/mol
# Density = 1.884109 g / cm^3
# Si number density = 18.884069 Si / 1000 Ang^3
#
#
#
# Elastic Constant Matrix: (Units=GPa)
#
#
# Indices 1 2 3 4 5 6 
#
# 1 80.3943 82.0908 71.4517 -0.0002 8.0744 0.0001
# 2 82.0908 107.1363 76.9315 -0.0002 11.6597 0.0002
# 3 71.4517 76.9315 185.4677 -0.0005 8.1658 0.0003
# 4 -0.0002 -0.0002 -0.0005 28.3881 0.0002 7.8758
# 5 8.0744 11.6597 8.1658 0.0002 29.8122 -0.0001
# 6 0.0001 0.0002 0.0003 7.8758 -0.0001 22.7514
#
#
#
# Elastic Compliance Matrix: (Units=1/GPa)
#
#
# Indices 1 2 3 4 5 6 
#
# 1 0.061468 -0.043059 -0.005899 0.000000 0.001808 0.000000
# 2 -0.043059 0.043881 -0.001388 0.000000 -0.005120 0.000000
# 3 -0.005899 -0.001388 0.008245 0.000000 -0.000118 0.000000
# 4 0.000000 0.000000 0.000000 0.038968 0.000000 -0.013490
# 5 0.001808 -0.005120 -0.000118 0.000000 0.035088 0.000000
# 6 0.000000 0.000000 0.000000 -0.013490 0.000000 0.048623
#
#
# Mechanical properties :
#
#
# Convention : Reuss Voigt Hill
#
# Bulk Modulus (GPa) = 77.50950 92.66069 85.08510
# Shear Modulus (GPa) = 14.65130 25.69198 20.17164
#
# Velocity S-wave (km/s) = 2.78844 3.69251 3.27185
# Velocity P-wave (km/s) = 7.17643 8.20696 7.70894
#
# Compressibility (1/GPa) = 0.01290164
#
# Stress axis : x y z
#
# Youngs Moduli (GPa) = 16.26858 22.78913 121.28141
#
# Poissons Ratio (x) = 0.98128 0.71550
# Poissons Ratio (y) = 0.70051 0.16828
# Poissons Ratio (z) = 0.09598 0.03162
#
# Static dielectric constant tensor:
#      x y z
#    x 1.613230 0.000000 -0.012220 
#    y 0.000000 1.638730 0.000000 
#    z -0.012220 0.000000 1.646700 
# 
# From -- ./inp_files/211318.got.cif
#   From: 2010.05.17/outbox.cif.g08.bks.cpg/sg15_106_cif.got.tgz:211318.got - 2010.06.03 18:47:42.
