data_PCOD9293388
_publ_section_title
;
Structure prediction by ZEFSAII (Michael W. Deem and Ramdas Pophale) SiO2 
 PCOD9293388
Probable space group: C 2/C
;
_chemical_formula_sum "Si O2"
_cell_formula_units_Z 52
_cell_length_a 11.278798
_cell_length_b 19.152590
_cell_length_c 13.909668
_cell_angle_alpha 90.000000
_cell_angle_beta 139.293944
_cell_angle_gamma 90.000000
_cell_volume 1959.627810
_symmetry_space_group_name_H-M "C 2/C"
_symmetry_group_IT_number 15
_symmetry_cell_setting 'monoclinic'
loop_
_space_group_symop_operation_xyz
x,y,z
-x,y,1/2-z
-x,-y,-z
x,-y,1/2+z
1/2+x,1/2+y,z
1/2-x,1/2+y,1/2-z
1/2-x,1/2-y,-z
1/2+x,1/2-y,1/2+z
loop_
_atom_site_type_symbol
_atom_site_label
_atom_site_fract_x
_atom_site_fract_y
_atom_site_fract_z
Si Si1 0.685053 0.100688 0.798824
Si Si2 0.309558 0.829820 0.857963
Si Si3 0.178861 0.445507 0.793140
Si Si4 0.750000 0.750000 0.000000
Si Si5 0.159719 0.728884 0.644023
Si Si6 0.332971 0.414129 0.072772
Si Si7 0.682362 0.430229 0.924371
O O1 0.500000 0.110549 0.750000
O O2 0.709134 0.157541 0.730046
O O3 0.682227 0.023305 0.753439
O O4 0.833789 0.091796 0.974946
O O5 0.336476 0.890357 0.799158
O O6 0.142091 0.783982 0.719417
O O7 0.300839 0.869024 0.952096
O O8 0.477494 0.777189 0.969160
O O9 0.000000 0.440111 0.750000
O O10 0.349550 0.429952 0.968637
O O11 0.706677 0.759165 0.855137
O O12 0.748443 0.663866 0.979920
O O13 0.500000 0.409888 0.250000
O O14 0.244393 0.490500 0.043994
O O15 0.500000 0.428176 0.750000
#
# Coordination Sequence:
#
# PCOD9293388 Si02
#       7
#     8   8   8   4   8   8   8
#     4  10  22  48  73 106 140 188 249 308 364 429
#     4  12  27  46  70 109 143 196 244 301 377 438
#     4  10  22  45  72 102 145 189 245 305 356 440
#     4  12  26  44  68 106 154 194 234 288 368 442
#     4  12  29  43  71 107 147 196 238 305 368 443
#     4  10  23  45  71 101 144 192 240 301 360 432
#     4  10  24  48  76 106 141 189 249 313 367 434
#
# _framework density 26.535651000000001
#
# number of rings (size 3 to 8) (size 9 to 14) (size 15 to 20)
#    0.000    1.231    3.077    0.923    6.462    2.462 
#    0.000    2.308    0.000    0.000    0.000    0.000 
#    0.000    0.000    0.000    0.000    0.000    0.000 
#
# Total GULP energy -144736.026846 kJ/mol
# GULP energy per Si atom -5566.770263 kJ/mol
# Density = 2.647526 g / cm^3
# Si number density = 26.535651 Si / 1000 Ang^3
#
#
#
# Elastic Constant Matrix: (Units=GPa)
#
#
# Indices 1 2 3 4 5 6 
#
# 1 48.0507 15.2381 32.2789 0.0001 -11.8928 -0.0002
# 2 15.2381 146.4890 54.8578 0.0000 -11.9827 0.0000
# 3 32.2789 54.8578 182.0113 0.0001 -24.0206 -0.0003
# 4 0.0001 0.0000 0.0001 62.1591 0.0001 -21.3626
# 5 -11.8928 -11.9827 -24.0206 0.0001 34.4552 -0.0002
# 6 -0.0002 0.0000 -0.0003 -21.3626 -0.0002 -34.0722
#
#
#
# Elastic Compliance Matrix: (Units=1/GPa)
#
#
# Indices 1 2 3 4 5 6 
#
# 1 0.024803 -0.000835 -0.003365 0.000000 0.005925 0.000000
# 2 -0.000835 0.007766 -0.002064 0.000000 0.000974 0.000000
# 3 -0.003365 -0.002064 0.007120 0.000000 0.003084 0.000000
# 4 0.000000 0.000000 0.000000 0.013236 0.000000 -0.008299
# 5 0.005925 0.000974 0.003084 0.000000 0.033557 0.000000
# 6 0.000000 0.000000 0.000000 -0.008299 0.000000 -0.024146
#
#
# Mechanical properties :
#
#
# Convention : Reuss Voigt Hill
#
# Bulk Modulus (GPa) = 36.81823 64.58896 50.70359
# Shear Modulus (GPa) = 59.58210 30.78684 45.18447
#
# Velocity S-wave (km/s) = 4.74366 3.40988 4.13096
# Velocity P-wave (km/s) = 6.62633 6.31635 6.47320
#
# Compressibility (1/GPa) = 0.02716046
#
# Stress axis : x y z
#
# Youngs Moduli (GPa) = 40.31745 128.76777 140.44736
#
# Poissons Ratio (x) = 0.10756 0.47262
# Poissons Ratio (y) = 0.03368 0.28989
# Poissons Ratio (z) = 0.13567 0.26578
#
# Static dielectric constant tensor:
#      x y z
#    x 2.368400 0.000000 0.163840 
#    y 0.000000 2.040790 0.000000 
#    z 0.163840 0.000000 2.153690 
# 
# From -- ./inp_files/155558.got.cif
#   From: 2010.05.17/outbox.cif.g08.bks.cpg/sg15_78_cif.got.tgz:155558.got - 2010.06.03 18:47:42.
