data_PCOD9293780
_publ_section_title
;
Structure prediction by ZEFSAII (Michael W. Deem and Ramdas Pophale) SiO2 
 PCOD9293780
Probable space group: C 2/C
;
_chemical_formula_sum "Si O2"
_cell_formula_units_Z 52
_cell_length_a 24.189869
_cell_length_b 9.155000
_cell_length_c 29.075646
_cell_angle_alpha 90.000000
_cell_angle_beta 17.900635
_cell_angle_gamma 90.000000
_cell_volume 1979.149987
_symmetry_space_group_name_H-M "C 2/C"
_symmetry_group_IT_number 15
_symmetry_cell_setting 'monoclinic'
loop_
_space_group_symop_operation_xyz
x,y,z
-x,y,1/2-z
-x,-y,-z
x,-y,1/2+z
1/2+x,1/2+y,z
1/2-x,1/2+y,1/2-z
1/2-x,1/2-y,-z
1/2+x,1/2-y,1/2+z
loop_
_atom_site_type_symbol
_atom_site_label
_atom_site_fract_x
_atom_site_fract_y
_atom_site_fract_z
Si Si1 0.500000 0.045856 0.250000
Si Si2 0.547822 0.855952 0.402051
Si Si3 0.714571 0.207478 0.950823
Si Si4 0.754537 0.930410 0.326561
Si Si5 0.000000 0.040125 0.250000
Si Si6 0.250000 0.750000 0.500000
Si Si7 0.094079 0.090743 0.032641
Si Si8 0.423525 0.982491 0.717020
O O1 0.668595 0.155890 0.123360
O O2 0.772357 0.992758 0.107647
O O3 0.700994 0.878210 0.318266
O O4 0.526594 0.689999 0.404786
O O5 0.366061 0.925972 0.567060
O O6 0.572887 0.938081 0.333931
O O7 0.692831 0.189418 0.913188
O O8 0.840934 0.066937 0.860152
O O9 0.529749 0.168660 0.123562
O O10 0.961450 0.977848 0.162462
O O11 0.795463 0.198016 0.520759
O O12 0.410997 0.643186 0.357421
O O13 0.035059 0.542317 0.674472
#
# Coordination Sequence:
#
# PCOD9293780 Si02
#       8
#     4   8   8   8   4   4   8   8
#     4  11  26  43  72  98 148 201 239 300 352 450
#     4  10  24  45  71 100 142 189 245 305 366 434
#     4  10  23  48  67 101 144 192 246 289 369 428
#     4  10  22  47  71  96 141 193 244 299 362 443
#     4  11  24  37  66 102 148 187 233 294 352 442
#     4  12  26  38  68 108 148 184 224 302 372 432
#     4  12  26  42  69 109 143 183 238 307 374 434
#     4  11  26  43  69 107 140 185 249 296 364 444
#
# _framework density 26.273907000000001
#
# number of rings (size 3 to 8) (size 9 to 14) (size 15 to 20)
#    0.000    1.231    1.538    3.231    8.615    3.077 
#    0.000    4.615    0.000    0.000    0.000    0.000 
#    0.000    0.000    0.000    0.000    0.000    0.000 
#
# Total GULP energy -145119.002871 kJ/mol
# GULP energy per Si atom -5581.500110 kJ/mol
# Density = 2.621411 g / cm^3
# Si number density = 26.273907 Si / 1000 Ang^3
#
#
#
# Elastic Constant Matrix: (Units=GPa)
#
#
# Indices 1 2 3 4 5 6 
#
# 1 166.6337 47.1172 40.3811 -0.0064 24.7624 -0.0071
# 2 47.1172 97.4924 14.7895 -0.0704 10.9124 0.0183
# 3 40.3811 14.7895 147.5812 -0.0772 12.5054 0.0252
# 4 -0.0064 -0.0704 -0.0772 15.6637 0.0372 1.3657
# 5 24.7624 10.9124 12.5054 0.0372 40.0978 -0.0078
# 6 -0.0071 0.0183 0.0252 1.3657 -0.0078 43.1116
#
#
#
# Elastic Compliance Matrix: (Units=1/GPa)
#
#
# Indices 1 2 3 4 5 6 
#
# 1 0.007772 -0.003137 -0.001518 -0.000010 -0.003472 0.000003
# 2 -0.003137 0.011948 -0.000234 0.000055 -0.001241 -0.000007
# 3 -0.001518 -0.000234 0.007323 0.000038 -0.001283 -0.000006
# 4 -0.000010 0.000055 0.000038 0.064020 -0.000080 -0.002028
# 5 -0.003472 -0.001241 -0.001283 -0.000080 0.027821 0.000008
# 6 0.000003 -0.000007 -0.000006 -0.002028 0.000008 0.023260
#
#
# Mechanical properties :
#
#
# Convention : Reuss Voigt Hill
#
# Bulk Modulus (GPa) = 57.91881 68.47589 63.19735
# Shear Modulus (GPa) = 31.71031 40.40257 36.05644
#
# Velocity S-wave (km/s) = 3.47783 3.92566 3.70851
# Velocity P-wave (km/s) = 6.18217 6.83130 6.51482
#
# Compressibility (1/GPa) = 0.01726555
#
# Stress axis : x y z
#
# Youngs Moduli (GPa) = 128.66429 83.69703 136.54792
#
# Poissons Ratio (x) = 0.26258 0.20728
# Poissons Ratio (y) = 0.40365 0.03191
# Poissons Ratio (z) = 0.19531 0.01956
#
# Static dielectric constant tensor:
#      x y z
#    x 2.085910 0.000020 0.062330 
#    y 0.000020 2.353830 -0.000080 
#    z 0.062330 -0.000080 1.958880 
# 
# From -- ./inp_files/166941.got.cif
#   From: 2010.05.17/outbox.cif.g08.bks.cpg/sg15_84_cif.got.tgz:166941.got - 2010.06.03 18:47:42.
