data_PCOD9293464
_publ_section_title
;
Structure prediction by ZEFSAII (Michael W. Deem and Ramdas Pophale) SiO2 
 PCOD9293464
Probable space group: C 2/C
;
_chemical_formula_sum "Si O2"
_cell_formula_units_Z 28
_cell_length_a 13.896891
_cell_length_b 15.230385
_cell_length_c 8.043199
_cell_angle_alpha 90.000000
_cell_angle_beta 141.073520
_cell_angle_gamma 90.000000
_cell_volume 1069.646005
_symmetry_space_group_name_H-M "C 2/C"
_symmetry_group_IT_number 15
_symmetry_cell_setting 'monoclinic'
loop_
_space_group_symop_operation_xyz
x,y,z
-x,y,1/2-z
-x,-y,-z
x,-y,1/2+z
1/2+x,1/2+y,z
1/2-x,1/2+y,1/2-z
1/2-x,1/2-y,-z
1/2+x,1/2-y,1/2+z
loop_
_atom_site_type_symbol
_atom_site_label
_atom_site_fract_x
_atom_site_fract_y
_atom_site_fract_z
Si Si1 0.212849 0.547826 0.188760
Si Si2 0.925767 0.638291 0.977645
Si Si3 0.000000 0.106155 0.750000
Si Si4 0.589372 0.315204 0.699135
O O1 0.348193 0.552153 0.506246
O O2 0.285787 0.607094 0.141537
O O3 0.062864 0.599767 0.048020
O O4 0.171043 0.447577 0.105125
O O5 0.000000 0.669580 0.250000
O O6 0.849714 0.720982 0.783190
O O7 0.021411 0.158514 0.606125
O O8 0.500000 0.310125 0.750000
#
# Coordination Sequence:
#
# PCOD9293464 Si02
#       4
#     8   8   4   8
#     4   9  23  46  77 115 161 205 262 327 400 465
#     4  11  22  44  81 110 161 210 259 325 399 474
#     4   8  20  48  78 110 160 206 252 338 380 474
#     4  10  22  45  83 118 152 209 264 326 395 473
#
# _framework density 26.176884999999999
#
# number of rings (size 3 to 8) (size 9 to 14) (size 15 to 20)
#    1.714    0.571    1.429    0.000    0.000   10.286 
#    0.000   10.000    6.286    3.429    0.000    0.000 
#    0.000    0.000    0.000    0.000    0.000    0.000 
#
# Total GULP energy -78359.348850 kJ/mol
# GULP energy per Si atom -5597.096346 kJ/mol
# Density = 2.611731 g / cm^3
# Si number density = 26.176885 Si / 1000 Ang^3
#
#
#
# Elastic Constant Matrix: (Units=GPa)
#
#
# Indices 1 2 3 4 5 6 
#
# 1 173.9571 114.1875 35.8977 0.0000 -26.7023 0.0000
# 2 114.1875 215.9921 50.8421 0.0000 -1.7450 0.0000
# 3 35.8977 50.8421 87.2144 0.0000 -6.7040 0.0000
# 4 0.0000 0.0000 0.0000 67.8925 0.0000 11.0494
# 5 -26.7023 -1.7450 -6.7040 0.0000 47.2773 0.0000
# 6 0.0000 0.0000 0.0000 11.0494 0.0000 48.3085
#
#
#
# Elastic Compliance Matrix: (Units=1/GPa)
#
#
# Indices 1 2 3 4 5 6 
#
# 1 0.010090 -0.005112 -0.000758 0.000000 0.005403 0.000000
# 2 -0.005112 0.007959 -0.002765 0.000000 -0.002986 0.000000
# 3 -0.000758 -0.002765 0.013496 0.000000 0.001384 0.000000
# 4 0.000000 0.000000 0.000000 0.015299 0.000000 -0.003499
# 5 0.005403 -0.002986 0.001384 0.000000 0.024289 0.000000
# 6 0.000000 0.000000 0.000000 -0.003499 0.000000 0.021501
#
#
# Mechanical properties :
#
#
# Convention : Reuss Voigt Hill
#
# Bulk Modulus (GPa) = 70.05057 97.66868 83.85963
# Shear Modulus (GPa) = 43.60638 51.11143 47.35890
#
# Velocity S-wave (km/s) = 4.08589 4.42355 4.25807
# Velocity P-wave (km/s) = 7.00556 7.96759 7.50201
#
# Compressibility (1/GPa) = 0.01427540
#
# Stress axis : x y z
#
# Youngs Moduli (GPa) = 99.10914 125.64056 74.09525
#
# Poissons Ratio (x) = 0.64230 0.05613
# Poissons Ratio (y) = 0.50667 0.20489
# Poissons Ratio (z) = 0.07508 0.34742
#
# Static dielectric constant tensor:
#      x y z
#    x 1.995410 0.000000 -0.020300 
#    y 0.000000 2.013600 0.000000 
#    z -0.020300 0.000000 2.136100 
# 
# From -- ./inp_files/39503.got.cif
#   From: 2010.05.17/outbox.cif.g08.bks.cpg/sg15_20_cif.got.tgz:39503.got - 2010.06.03 18:47:42.
