data_PCOD9293469
_publ_section_title
;
Structure prediction by ZEFSAII (Michael W. Deem and Ramdas Pophale) SiO2 
 PCOD9293469
Probable space group: C 2/C
;
_chemical_formula_sum "Si O2"
_cell_formula_units_Z 52
_cell_length_a 29.614514
_cell_length_b 12.576184
_cell_length_c 11.109989
_cell_angle_alpha 90.000000
_cell_angle_beta 142.482704
_cell_angle_gamma 90.000000
_cell_volume 2519.910121
_symmetry_space_group_name_H-M "C 2/C"
_symmetry_group_IT_number 15
_symmetry_cell_setting 'monoclinic'
loop_
_space_group_symop_operation_xyz
x,y,z
-x,y,1/2-z
-x,-y,-z
x,-y,1/2+z
1/2+x,1/2+y,z
1/2-x,1/2+y,1/2-z
1/2-x,1/2-y,-z
1/2+x,1/2-y,1/2+z
loop_
_atom_site_type_symbol
_atom_site_label
_atom_site_fract_x
_atom_site_fract_y
_atom_site_fract_z
Si Si1 0.657719 0.950278 0.057754
Si Si2 0.185706 0.755760 0.460977
Si Si3 0.556977 0.436647 0.767791
Si Si4 0.710133 0.378833 0.007118
Si Si5 0.472369 0.672453 0.882283
Si Si6 0.751918 0.643352 0.337960
Si Si7 0.500000 0.144035 0.250000
O O1 0.675174 0.860586 0.995091
O O2 0.711413 0.926169 0.283955
O O3 0.683391 0.062283 0.059883
O O4 0.572626 0.928956 0.909597
O O5 0.250000 0.750000 0.500000
O O6 0.109169 0.796674 0.241730
O O7 0.206233 0.828201 0.620665
O O8 0.500000 0.402099 0.750000
O O9 0.540397 0.561203 0.713480
O O10 0.533068 0.361418 0.606722
O O11 0.645476 0.424821 0.955351
O O12 0.713759 0.253588 0.042023
O O13 0.703205 0.397961 0.848820
O O14 0.496523 0.772825 0.853691
#
# Coordination Sequence:
#
# PCOD9293469 Si02
#       7
#     8   8   8   8   8   8   4
#     4  10  23  41  69  88 124 172 215 253 325 383
#     4  10  23  40  63  94 124 162 214 266 310 382
#     4  11  24  38  63  94 124 166 205 266 327 374
#     4  10  24  42  67  95 128 165 214 267 322 379
#     4  10  23  38  62  87 130 160 206 263 320 378
#     4  10  23  42  65  95 125 168 213 266 318 385
#     4  10  22  46  60  94 126 170 212 258 322 386
#
# _framework density 20.635656999999998
#
# number of rings (size 3 to 8) (size 9 to 14) (size 15 to 20)
#    0.000    1.846    0.769    0.923   17.231    1.231 
#    1.385    0.769    0.000    0.000    0.000    0.000 
#    0.000    0.000    0.000    0.000    0.000    0.000 
#
# Total GULP energy -145096.947617 kJ/mol
# GULP energy per Si atom -5580.651831 kJ/mol
# Density = 2.058869 g / cm^3
# Si number density = 20.635657 Si / 1000 Ang^3
#
#
#
# Elastic Constant Matrix: (Units=GPa)
#
#
# Indices 1 2 3 4 5 6 
#
# 1 115.5230 22.0540 34.9465 0.0000 23.0689 0.0000
# 2 22.0540 76.5376 24.8193 0.0000 5.7899 0.0000
# 3 34.9465 24.8193 74.2520 0.0000 21.5712 0.0000
# 4 0.0000 0.0000 0.0000 23.8003 0.0000 20.6433
# 5 23.0689 5.7899 21.5712 0.0000 25.6510 0.0000
# 6 0.0000 0.0000 0.0000 20.6433 0.0000 28.6832
#
#
#
# Elastic Compliance Matrix: (Units=1/GPa)
#
#
# Indices 1 2 3 4 5 6 
#
# 1 0.011288 -0.001875 -0.002461 0.000000 -0.007659 0.000000
# 2 -0.001875 0.014988 -0.004809 0.000000 0.002348 0.000000
# 3 -0.002461 -0.004809 0.020213 0.000000 -0.013700 0.000000
# 4 0.000000 0.000000 0.000000 0.111815 0.000000 -0.080473
# 5 -0.007659 0.002348 -0.013700 0.000000 0.056864 0.000000
# 6 0.000000 0.000000 0.000000 -0.080473 0.000000 0.092780
#
#
# Mechanical properties :
#
#
# Convention : Reuss Voigt Hill
#
# Bulk Modulus (GPa) = 35.46282 47.77246 41.61764
# Shear Modulus (GPa) = 14.89700 27.92642 21.41171
#
# Velocity S-wave (km/s) = 2.68975 3.68273 3.22469
# Velocity P-wave (km/s) = 5.18352 6.42526 5.83750
#
# Compressibility (1/GPa) = 0.02819854
#
# Stress axis : x y z
#
# Youngs Moduli (GPa) = 88.58841 66.72121 49.47227
#
# Poissons Ratio (x) = 0.12512 0.12174
# Poissons Ratio (y) = 0.16612 0.23793
# Poissons Ratio (z) = 0.21800 0.32088
#
# Static dielectric constant tensor:
#      x y z
#    x 1.857900 0.000000 0.092070 
#    y 0.000000 1.720650 0.000000 
#    z 0.092070 0.000000 1.893460 
# 
# From -- ./inp_files/126493.got.cif
#   From: 2010.05.17/outbox.cif.g08.bks.cpg/sg15_64_cif.got.tgz:126493.got - 2010.06.03 18:47:42.
