data_PCOD9293654
_publ_section_title
;
Structure prediction by ZEFSAII (Michael W. Deem and Ramdas Pophale) SiO2 
 PCOD9293654
Probable space group: C 2/C
;
_chemical_formula_sum "Si O2"
_cell_formula_units_Z 40
_cell_length_a 18.492864
_cell_length_b 7.373027
_cell_length_c 11.975688
_cell_angle_alpha 90.000000
_cell_angle_beta 87.992270
_cell_angle_gamma 90.000000
_cell_volume 1631.863324
_symmetry_space_group_name_H-M "C 2/C"
_symmetry_group_IT_number 15
_symmetry_cell_setting 'monoclinic'
loop_
_space_group_symop_operation_xyz
x,y,z
-x,y,1/2-z
-x,-y,-z
x,-y,1/2+z
1/2+x,1/2+y,z
1/2-x,1/2+y,1/2-z
1/2-x,1/2-y,-z
1/2+x,1/2-y,1/2+z
loop_
_atom_site_type_symbol
_atom_site_label
_atom_site_fract_x
_atom_site_fract_y
_atom_site_fract_z
Si Si1 0.327528 0.211852 0.555145
Si Si2 0.833688 0.710107 0.006459
Si Si3 0.411792 0.170653 0.773204
Si Si4 0.086067 0.743414 0.295342
Si Si5 0.042722 0.874872 0.083597
O O1 0.250000 0.250000 0.500000
O O2 0.354720 0.240868 0.681756
O O3 0.385927 0.319360 0.481986
O O4 0.341931 0.000549 0.534091
O O5 0.883402 0.740925 0.894998
O O6 0.750000 0.750000 0.000000
O O7 0.855223 0.807214 0.120121
O O8 0.500000 0.201349 0.750000
O O9 0.400531 0.949331 0.764659
O O10 0.070790 0.904441 0.208810
O O11 0.016120 0.720173 0.379874
O O12 0.000000 0.000000 0.000000
#
# Coordination Sequence:
#
# PCOD9293654 Si02
#       5
#     8   8   8   8   8
#     4  11  26  44  68 107 154 197 253 321 395 470
#     4  11  25  43  73 111 148 203 249 318 400 475
#     4  11  21  45  78 103 145 202 263 316 396 477
#     4  10  22  46  72 103 148 194 260 322 378 474
#     4  11  23  45  72 102 146 204 256 321 385 455
#
# _framework density 24.511856000000002
#
# number of rings (size 3 to 8) (size 9 to 14) (size 15 to 20)
#    0.000    1.200    4.000    1.200    5.600    3.200 
#   10.800    0.000    0.000    0.000    0.000    0.000 
#    0.000    0.000    0.000    0.000    0.000    0.000 
#
# Total GULP energy -111492.521206 kJ/mol
# GULP energy per Si atom -5574.626060 kJ/mol
# Density = 2.445607 g / cm^3
# Si number density = 24.511856 Si / 1000 Ang^3
#
#
#
# Elastic Constant Matrix: (Units=GPa)
#
#
# Indices 1 2 3 4 5 6 
#
# 1 160.0955 33.4176 95.8501 0.0000 39.3490 0.0000
# 2 33.4176 69.7265 53.6812 0.0000 4.3130 0.0000
# 3 95.8501 53.6812 223.4398 0.0000 46.0704 0.0000
# 4 0.0000 0.0000 0.0000 44.7326 0.0000 7.3715
# 5 39.3490 4.3130 46.0704 0.0000 55.9801 0.0000
# 6 0.0000 0.0000 0.0000 7.3715 0.0000 44.7023
#
#
#
# Elastic Compliance Matrix: (Units=1/GPa)
#
#
# Indices 1 2 3 4 5 6 
#
# 1 0.009295 -0.002203 -0.002584 0.000000 -0.004237 0.000000
# 2 -0.002203 0.018428 -0.004226 0.000000 0.003607 0.000000
# 3 -0.002584 -0.004226 0.007416 0.000000 -0.003961 0.000000
# 4 0.000000 0.000000 0.000000 0.022979 0.000000 -0.003789
# 5 -0.004237 0.003607 -0.003961 0.000000 0.023824 0.000000
# 6 0.000000 0.000000 0.000000 -0.003789 0.000000 0.022995
#
#
# Mechanical properties :
#
#
# Convention : Reuss Voigt Hill
#
# Bulk Modulus (GPa) = 58.43745 91.01773 74.72759
# Shear Modulus (GPa) = 38.85987 47.10387 42.98187
#
# Velocity S-wave (km/s) = 3.98597 4.38845 4.19204
# Velocity P-wave (km/s) = 6.71388 7.93037 7.34734
#
# Compressibility (1/GPa) = 0.01711231
#
# Stress axis : x y z
#
# Youngs Moduli (GPa) = 107.58808 54.26552 134.84137
#
# Poissons Ratio (x) = 0.11954 0.34848
# Poissons Ratio (y) = 0.23701 0.56983
# Poissons Ratio (z) = 0.27805 0.22932
#
# Static dielectric constant tensor:
#      x y z
#    x 2.022980 0.000000 0.126030 
#    y 0.000000 1.991280 0.000000 
#    z 0.126030 0.000000 2.127940 
# 
# From -- ./inp_files/102786.got.cif
#   From: 2010.05.17/outbox.cif.g08.bks.cpg/sg15_52_cif.got.tgz:102786.got - 2010.06.03 18:47:42.
