data_PCOD9293732
_publ_section_title
;
Structure prediction by ZEFSAII (Michael W. Deem and Ramdas Pophale) SiO2 
 PCOD9293732
Probable space group: C 2/C
;
_chemical_formula_sum "Si O2"
_cell_formula_units_Z 40
_cell_length_a 12.327296
_cell_length_b 13.281362
_cell_length_c 10.058851
_cell_angle_alpha 90.000000
_cell_angle_beta 66.590630
_cell_angle_gamma 90.000000
_cell_volume 1511.313821
_symmetry_space_group_name_H-M "C 2/C"
_symmetry_group_IT_number 15
_symmetry_cell_setting 'monoclinic'
loop_
_space_group_symop_operation_xyz
x,y,z
-x,y,1/2-z
-x,-y,-z
x,-y,1/2+z
1/2+x,1/2+y,z
1/2-x,1/2+y,1/2-z
1/2-x,1/2-y,-z
1/2+x,1/2-y,1/2+z
loop_
_atom_site_type_symbol
_atom_site_label
_atom_site_fract_x
_atom_site_fract_y
_atom_site_fract_z
Si Si1 0.849456 0.701314 0.359256
Si Si2 0.834023 0.693852 0.845583
Si Si3 0.640196 0.603377 0.328955
Si Si4 0.592660 0.624931 0.876507
Si Si5 0.983104 0.384908 0.036521
O O1 0.750000 0.750000 0.500000
O O2 0.773265 0.614883 0.322212
O O3 0.888054 0.791982 0.245627
O O4 0.617757 0.868055 0.304950
O O5 0.946336 0.340850 0.912514
O O6 0.859807 0.807671 0.780725
O O7 0.799670 0.845174 0.077575
O O8 0.905415 0.663502 0.942258
O O9 0.533908 0.627377 0.486624
O O10 0.613799 0.487324 0.307541
O O11 0.000000 0.500000 0.000000
#
# Coordination Sequence:
#
# PCOD9293732 Si02
#       5
#     8   8   8   8   8
#     4  11  22  47  77 111 156 200 265 320 384 468
#     4  10  23  49  75 109 154 197 256 324 383 467
#     4  10  22  46  79 112 154 202 262 313 396 460
#     4  10  22  46  79 112 152 211 251 321 388 469
#     4  11  23  47  77 108 152 200 255 320 392 461
#
# _framework density 26.467037999999999
#
# number of rings (size 3 to 8) (size 9 to 14) (size 15 to 20)
#    0.000    1.600    4.000    1.200    0.000    0.800 
#   14.400   15.000    0.000    0.000    0.000    0.000 
#    0.000    0.000    0.000    0.000    0.000    0.000 
#
# Total GULP energy -112108.370669 kJ/mol
# GULP energy per Si atom -5605.418533 kJ/mol
# Density = 2.640680 g / cm^3
# Si number density = 26.467038 Si / 1000 Ang^3
#
#
#
# Elastic Constant Matrix: (Units=GPa)
#
#
# Indices 1 2 3 4 5 6 
#
# 1 215.4308 96.4163 63.6445 0.0000 32.2170 0.0000
# 2 96.4163 258.2125 101.9538 0.0000 6.3868 0.0000
# 3 63.6445 101.9538 150.4402 0.0000 11.1770 0.0000
# 4 0.0000 0.0000 0.0000 19.7453 0.0000 -22.4104
# 5 32.2170 6.3868 11.1770 0.0000 53.4118 0.0000
# 6 0.0000 0.0000 0.0000 -22.4104 0.0000 18.3358
#
#
#
# Elastic Compliance Matrix: (Units=1/GPa)
#
#
# Indices 1 2 3 4 5 6 
#
# 1 0.006298 -0.001796 -0.001200 0.000000 -0.003333 0.000000
# 2 -0.001796 0.005800 -0.003251 0.000000 0.001070 0.000000
# 3 -0.001200 -0.003251 0.009422 0.000000 -0.000859 0.000000
# 4 0.000000 0.000000 0.000000 -0.130803 0.000000 -0.159869
# 5 -0.003333 0.001070 -0.000859 0.000000 0.020785 0.000000
# 6 0.000000 0.000000 0.000000 -0.159869 0.000000 -0.140857
#
#
# Mechanical properties :
#
#
# Convention : Reuss Voigt Hill
#
# Bulk Modulus (GPa) = 110.76993 127.56808 119.16900
# Shear Modulus (GPa) = -23.38061 42.43652 9.52795
#
# Velocity S-wave (km/s) = -2.97541 4.00856 1.89941
# Velocity P-wave (km/s) = 5.48989 8.35034 7.06637
#
# Compressibility (1/GPa) = 0.00902772
#
# Stress axis : x y z
#
# Youngs Moduli (GPa) = 158.76815 172.40443 106.13753
#
# Poissons Ratio (x) = 0.30956 0.12738
# Poissons Ratio (y) = 0.28508 0.34503
# Poissons Ratio (z) = 0.19054 0.56044
#
# Static dielectric constant tensor:
#      x y z
#    x 2.232800 0.000000 -0.025520 
#    y 0.000000 2.049130 0.000000 
#    z -0.025520 0.000000 2.116430 
# 
# From -- ./inp_files/159918.got.cif
#   From: 2010.05.17/outbox.cif.g08.bks.cpg/sg15_80_cif.got.tgz:159918.got - 2010.06.03 18:47:42.
