data_PCOD9293495
_publ_section_title
;
Structure prediction by ZEFSAII (Michael W. Deem and Ramdas Pophale) SiO2 
 PCOD9293495
Probable space group: C 2/C
;
_chemical_formula_sum "Si O2"
_cell_formula_units_Z 28
_cell_length_a 18.685061
_cell_length_b 11.706121
_cell_length_c 10.456821
_cell_angle_alpha 90.000000
_cell_angle_beta 35.093154
_cell_angle_gamma 90.000000
_cell_volume 1314.937680
_symmetry_space_group_name_H-M "C 2/C"
_symmetry_group_IT_number 15
_symmetry_cell_setting 'monoclinic'
loop_
_space_group_symop_operation_xyz
x,y,z
-x,y,1/2-z
-x,-y,-z
x,-y,1/2+z
1/2+x,1/2+y,z
1/2-x,1/2+y,1/2-z
1/2-x,1/2-y,-z
1/2+x,1/2-y,1/2+z
loop_
_atom_site_type_symbol
_atom_site_label
_atom_site_fract_x
_atom_site_fract_y
_atom_site_fract_z
Si Si1 0.000000 0.654939 0.250000
Si Si2 0.697078 0.726673 0.278377
Si Si3 0.134872 0.904691 0.614989
Si Si4 0.713747 0.127550 0.112724
O O1 0.091807 0.588809 0.212712
O O2 0.914353 0.730988 0.468331
O O3 0.642598 0.654171 0.241745
O O4 0.791549 0.652664 0.228164
O O5 0.769362 0.835100 0.115123
O O6 0.000000 0.898516 0.750000
O O7 0.180516 0.034022 0.561003
O O8 0.750000 0.250000 0.000000
#
# Coordination Sequence:
#
# PCOD9293495 Si02
#       4
#     4   8   8   8
#     4  10  22  46  64  98 140 168 222 272 334 400
#     4  10  24  45  68 103 130 176 222 278 338 389
#     4  11  25  45  72  99 133 176 227 276 329 401
#     4  10  24  41  68 100 131 178 221 275 336 387
#
# _framework density 21.293786000000001
#
# number of rings (size 3 to 8) (size 9 to 14) (size 15 to 20)
#    0.000    1.714    0.000    1.714   16.000    2.286 
#   10.286    0.000    0.000    0.000    0.000    0.000 
#    0.000    0.000    0.000    0.000    0.000    0.000 
#
# Total GULP energy -78219.529762 kJ/mol
# GULP energy per Si atom -5587.109269 kJ/mol
# Density = 2.124532 g / cm^3
# Si number density = 21.293786 Si / 1000 Ang^3
#
#
#
# Elastic Constant Matrix: (Units=GPa)
#
#
# Indices 1 2 3 4 5 6 
#
# 1 209.4368 54.6433 68.6969 0.0000 -15.8159 0.0000
# 2 54.6433 107.1150 40.1613 0.0000 -3.0037 0.0000
# 3 68.6969 40.1613 96.4375 0.0000 17.1558 0.0000
# 4 0.0000 0.0000 0.0000 14.2722 0.0000 -4.5514
# 5 -15.8159 -3.0037 17.1558 0.0000 31.2013 0.0000
# 6 0.0000 0.0000 0.0000 -4.5514 0.0000 54.0238
#
#
#
# Elastic Compliance Matrix: (Units=1/GPa)
#
#
# Indices 1 2 3 4 5 6 
#
# 1 0.007713 -0.001416 -0.006180 0.000000 0.007172 0.000000
# 2 -0.001416 0.011790 -0.004406 0.000000 0.002840 0.000000
# 3 -0.006180 -0.004406 0.019109 0.000000 -0.014064 0.000000
# 4 0.000000 0.000000 0.000000 0.072001 0.000000 0.006066
# 5 0.007172 0.002840 -0.014064 0.000000 0.043691 0.000000
# 6 0.000000 0.000000 0.000000 0.006066 0.000000 0.019021
#
#
# Mechanical properties :
#
#
# Convention : Reuss Voigt Hill
#
# Bulk Modulus (GPa) = 68.46454 82.22135 75.34295
# Shear Modulus (GPa) = 24.72806 36.53197 30.63002
#
# Velocity S-wave (km/s) = 3.41145 4.14649 3.79680
# Velocity P-wave (km/s) = 6.90938 7.84992 7.39462
#
# Compressibility (1/GPa) = 0.01460610
#
# Stress axis : x y z
#
# Youngs Moduli (GPa) = 129.65136 84.81797 52.33215
#
# Poissons Ratio (x) = 0.12013 0.32343
# Poissons Ratio (y) = 0.18363 0.23058
# Poissons Ratio (z) = 0.80128 0.37372
#
# Static dielectric constant tensor:
#      x y z
#    x 1.834040 0.000000 -0.018390 
#    y 0.000000 1.752670 0.000000 
#    z -0.018390 0.000000 1.762650 
# 
# From -- ./inp_files/83499.got.cif
#   From: 2010.05.17/outbox.cif.g08.bks.cpg/sg15_42_cif.got.tgz:83499.got - 2010.06.03 18:47:42.
