data_PCOD9293423
_publ_section_title
;
Structure prediction by ZEFSAII (Michael W. Deem and Ramdas Pophale) SiO2 
 PCOD9293423
Probable space group: C 2/C
;
_chemical_formula_sum "Si O2"
_cell_formula_units_Z 32
_cell_length_a 10.017722
_cell_length_b 12.669364
_cell_length_c 10.712086
_cell_angle_alpha 90.000000
_cell_angle_beta 111.014871
_cell_angle_gamma 90.000000
_cell_volume 1269.130531
_symmetry_space_group_name_H-M "C 2/C"
_symmetry_group_IT_number 15
_symmetry_cell_setting 'monoclinic'
loop_
_space_group_symop_operation_xyz
x,y,z
-x,y,1/2-z
-x,-y,-z
x,-y,1/2+z
1/2+x,1/2+y,z
1/2-x,1/2+y,1/2-z
1/2-x,1/2-y,-z
1/2+x,1/2-y,1/2+z
loop_
_atom_site_type_symbol
_atom_site_label
_atom_site_fract_x
_atom_site_fract_y
_atom_site_fract_z
Si Si1 0.870732 0.032385 0.303897
Si Si2 0.898876 0.604733 0.443247
Si Si3 0.115379 0.773672 0.540830
Si Si4 0.158327 0.364602 0.300931
O O1 0.727431 0.080271 0.192770
O O2 0.904072 0.102950 0.437041
O O3 0.000000 0.033091 0.250000
O O4 0.805229 0.918983 0.310823
O O5 0.826522 0.645551 0.546559
O O6 0.000000 0.500000 0.500000
O O7 0.993598 0.703868 0.435729
O O8 0.250000 0.750000 0.500000
O O9 0.129411 0.723753 0.686251
O O10 0.000000 0.422632 0.250000
#
# Coordination Sequence:
#
# PCOD9293423 Si02
#       4
#     8   8   8   8
#     4  12  26  43  71 109 140 177 239 297 345 412
#     4  11  22  47  75  96 140 192 229 284 358 420
#     4  11  25  43  70 105 136 185 240 283 351 419
#     4  10  22  45  73  98 139 189 229 281 357 423
#
# _framework density 25.214112
#
# number of rings (size 3 to 8) (size 9 to 14) (size 15 to 20)
#    0.000    1.000    5.000    3.750    0.000    5.000 
#    4.500    0.000    0.000    0.000    0.000    0.000 
#    0.000    0.000    0.000    0.000    0.000    0.000 
#
# Total GULP energy -89332.006844 kJ/mol
# GULP energy per Si atom -5583.250428 kJ/mol
# Density = 2.515672 g / cm^3
# Si number density = 25.214112 Si / 1000 Ang^3
#
#
#
# Elastic Constant Matrix: (Units=GPa)
#
#
# Indices 1 2 3 4 5 6 
#
# 1 130.7089 34.7103 -4.3379 0.0000 1.8195 0.0000
# 2 34.7103 89.0322 -8.1989 0.0000 22.4326 0.0000
# 3 -4.3379 -8.1989 41.1813 0.0000 10.1123 0.0000
# 4 0.0000 0.0000 0.0000 32.0576 0.0000 7.2895
# 5 1.8195 22.4326 10.1123 0.0000 53.9234 0.0000
# 6 0.0000 0.0000 0.0000 7.2895 0.0000 53.1672
#
#
#
# Elastic Compliance Matrix: (Units=1/GPa)
#
#
# Indices 1 2 3 4 5 6 
#
# 1 0.008608 -0.003689 -0.000140 0.000000 0.001270 0.000000
# 2 -0.003689 0.014776 0.004227 0.000000 -0.006815 0.000000
# 3 -0.000140 0.004227 0.026773 0.000000 -0.006775 0.000000
# 4 0.000000 0.000000 0.000000 0.032198 0.000000 -0.004414
# 5 0.001270 -0.006815 -0.006775 0.000000 0.022608 0.000000
# 6 0.000000 0.000000 0.000000 -0.004414 0.000000 0.019414
#
#
# Mechanical properties :
#
#
# Convention : Reuss Voigt Hill
#
# Bulk Modulus (GPa) = 19.62540 33.91883 26.77212
# Shear Modulus (GPa) = 35.57082 43.74620 39.65851
#
# Velocity S-wave (km/s) = 3.76007 4.16984 3.97024
# Velocity P-wave (km/s) = 5.16248 6.05516 5.62655
#
# Compressibility (1/GPa) = 0.05095438
#
# Stress axis : x y z
#
# Youngs Moduli (GPa) = 116.17297 67.67520 37.35076
#
# Poissons Ratio (x) = 0.24964 0.00522
# Poissons Ratio (y) = 0.42854 -0.15788
# Poissons Ratio (z) = 0.01622 -0.28605
#
# Static dielectric constant tensor:
#      x y z
#    x 1.968770 0.000000 0.035050 
#    y 0.000000 2.187350 0.000000 
#    z 0.035050 0.000000 2.043310 
# 
# From -- ./inp_files/75591.got.cif
#   From: 2010.05.17/outbox.cif.g08.bks.cpg/sg15_38_cif.got.tgz:75591.got - 2010.06.03 18:47:42.
