data_PCOD9293449
_publ_section_title
;
Structure prediction by ZEFSAII (Michael W. Deem and Ramdas Pophale) SiO2 
 PCOD9293449
Probable space group: C 2/C
;
_chemical_formula_sum "Si O2"
_cell_formula_units_Z 40
_cell_length_a 5.269029
_cell_length_b 13.484074
_cell_length_c 23.491893
_cell_angle_alpha 90.000000
_cell_angle_beta 77.712622
_cell_angle_gamma 90.000000
_cell_volume 1630.817643
_symmetry_space_group_name_H-M "C 2/C"
_symmetry_group_IT_number 15
_symmetry_cell_setting 'monoclinic'
loop_
_space_group_symop_operation_xyz
x,y,z
-x,y,1/2-z
-x,-y,-z
x,-y,1/2+z
1/2+x,1/2+y,z
1/2-x,1/2+y,1/2-z
1/2-x,1/2-y,-z
1/2+x,1/2-y,1/2+z
loop_
_atom_site_type_symbol
_atom_site_label
_atom_site_fract_x
_atom_site_fract_y
_atom_site_fract_z
Si Si1 0.730009 0.868203 0.000007
Si Si2 0.836240 0.157453 0.853659
Si Si3 0.473085 0.847742 0.903331
Si Si4 0.630842 0.752316 0.188317
Si Si5 0.111603 0.999894 0.408717
O O1 0.494756 0.885472 0.966982
O O2 0.750000 0.750000 0.000000
O O3 0.740180 0.914109 0.062258
O O4 0.964459 0.925017 0.957835
O O5 0.257791 0.323421 0.864139
O O6 0.585227 0.175350 0.827907
O O7 0.104809 0.188809 0.809456
O O8 0.902495 0.053489 0.879074
O O9 0.327293 0.742380 0.903769
O O10 0.329999 0.929263 0.871905
O O11 0.500000 0.705522 0.250000
#
# Coordination Sequence:
#
# PCOD9293449 Si02
#       5
#     8   8   8   8   8
#     4  11  22  43  65 106 148 194 235 288 358 436
#     4  10  23  43  73 104 142 184 241 294 364 430
#     4  10  23  40  70 103 145 186 239 294 356 425
#     4  10  22  45  77 102 138 190 243 308 374 424
#     4  11  24  41  70 106 146 191 240 290 358 436
#
# _framework density 24.527573
#
# number of rings (size 3 to 8) (size 9 to 14) (size 15 to 20)
#    1.200    0.400    2.000    2.400    2.800    0.800 
#    7.200    0.000    8.800    0.000    0.000    0.000 
#    0.000    0.000    0.000    0.000    0.000    0.000 
#
# Total GULP energy -111678.204069 kJ/mol
# GULP energy per Si atom -5583.910203 kJ/mol
# Density = 2.447175 g / cm^3
# Si number density = 24.527573 Si / 1000 Ang^3
#
#
#
# Elastic Constant Matrix: (Units=GPa)
#
#
# Indices 1 2 3 4 5 6 
#
# 1 127.7936 37.1375 26.5226 0.0000 19.5796 0.0000
# 2 37.1375 134.1956 8.4101 0.0000 7.6747 0.0000
# 3 26.5226 8.4101 55.6477 0.0000 3.1394 0.0000
# 4 0.0000 0.0000 0.0000 10.8573 0.0000 8.8382
# 5 19.5796 7.6747 3.1394 0.0000 39.3450 0.0000
# 6 0.0000 0.0000 0.0000 8.8382 0.0000 50.5602
#
#
#
# Elastic Compliance Matrix: (Units=1/GPa)
#
#
# Indices 1 2 3 4 5 6 
#
# 1 0.009995 -0.002264 -0.004185 0.000000 -0.004198 0.000000
# 2 -0.002264 0.008111 -0.000122 0.000000 -0.000446 0.000000
# 3 -0.004185 -0.000122 0.019954 0.000000 0.000514 0.000000
# 4 0.000000 0.000000 0.000000 0.107385 0.000000 -0.018771
# 5 -0.004198 -0.000446 0.000514 0.000000 0.027551 0.000000
# 6 0.000000 0.000000 0.000000 -0.018771 0.000000 0.023060
#
#
# Mechanical properties :
#
#
# Convention : Reuss Voigt Hill
#
# Bulk Modulus (GPa) = 40.12856 51.30860 45.71858
# Shear Modulus (GPa) = 22.98821 36.52361 29.75591
#
# Velocity S-wave (km/s) = 3.06476 3.86305 3.48683
# Velocity P-wave (km/s) = 5.37771 6.39232 5.90684
#
# Compressibility (1/GPa) = 0.02491991
#
# Stress axis : x y z
#
# Youngs Moduli (GPa) = 100.05350 123.28354 50.11504
#
# Poissons Ratio (x) = 0.27906 0.20971
# Poissons Ratio (y) = 0.22648 0.00611
# Poissons Ratio (z) = 0.41869 0.01502
#
# Static dielectric constant tensor:
#      x y z
#    x 2.044970 0.000000 -0.018190 
#    y 0.000000 1.962750 0.000000 
#    z -0.018190 0.000000 2.050280 
# 
# From -- ./inp_files/285244.got.cif
#   From: 2010.05.17/outbox.cif.g08.bks.cpg/sg15_143_cif.got.tgz:285244.got - 2010.06.03 18:47:42.
