data_PCOD9293791
_publ_section_title
;
Structure prediction by ZEFSAII (Michael W. Deem and Ramdas Pophale) SiO2 
 PCOD9293791
Probable space group: C 2/C
;
_chemical_formula_sum "Si O2"
_cell_formula_units_Z 56
_cell_length_a 8.761643
_cell_length_b 26.069569
_cell_length_c 11.072995
_cell_angle_alpha 90.000000
_cell_angle_beta 72.698089
_cell_angle_gamma 90.000000
_cell_volume 2414.763352
_symmetry_space_group_name_H-M "C 2/C"
_symmetry_group_IT_number 15
_symmetry_cell_setting 'monoclinic'
loop_
_space_group_symop_operation_xyz
x,y,z
-x,y,1/2-z
-x,-y,-z
x,-y,1/2+z
1/2+x,1/2+y,z
1/2-x,1/2+y,1/2-z
1/2-x,1/2-y,-z
1/2+x,1/2-y,1/2+z
loop_
_atom_site_type_symbol
_atom_site_label
_atom_site_fract_x
_atom_site_fract_y
_atom_site_fract_z
Si Si1 0.870077 0.272398 0.072370
Si Si2 0.747663 0.442370 0.749246
Si Si3 0.856136 0.799614 0.948397
Si Si4 0.556210 0.448197 0.551116
Si Si5 0.164089 0.157346 0.780270
Si Si6 0.910343 0.340863 0.649068
Si Si7 0.315754 0.940683 0.291364
O O1 0.783196 0.300094 0.202245
O O2 0.750000 0.250000 0.000000
O O3 0.969730 0.224827 0.101338
O O4 0.979516 0.316178 0.981650
O O5 0.641830 0.454835 0.657706
O O6 0.615904 0.421208 0.878477
O O7 0.882137 0.401416 0.680390
O O8 0.811462 0.498500 0.769911
O O9 0.855581 0.832527 0.072197
O O10 0.750000 0.750000 0.000000
O O11 0.768744 0.826134 0.855975
O O12 0.500000 0.500000 0.500000
O O13 0.706428 0.431863 0.434400
O O14 0.227882 0.100823 0.727184
O O15 0.000000 0.165687 0.750000
O O16 0.000000 0.321211 0.750000
O O17 0.500000 0.924685 0.250000
#
# Coordination Sequence:
#
# PCOD9293791 Si02
#       7
#     8   8   8   8   8   8   8
#     4  11  26  50  77 109 149 193 248 330 389 457
#     4  10  22  47  73 104 150 202 251 313 370 451
#     4  10  25  47  77 105 147 193 247 320 386 452
#     4   9  21  42  69  99 147 194 251 302 377 436
#     4  12  27  47  75 110 148 194 254 305 394 472
#     4  11  26  48  74 112 149 195 260 304 383 458
#     4  11  26  43  71 110 150 198 248 310 371 450
#
# _framework density 23.190678999999999
#
# number of rings (size 3 to 8) (size 9 to 14) (size 15 to 20)
#    0.000    1.429    1.429    1.286   14.000    1.714 
#    7.714    0.000    0.000    0.000    0.000    0.000 
#    0.000    0.000    0.000    0.000    0.000    0.000 
#
# Total GULP energy -156021.030821 kJ/mol
# GULP energy per Si atom -5572.179672 kJ/mol
# Density = 2.313790 g / cm^3
# Si number density = 23.190679 Si / 1000 Ang^3
#
#
#
# Elastic Constant Matrix: (Units=GPa)
#
#
# Indices 1 2 3 4 5 6 
#
# 1 132.7168 49.2986 48.1825 0.0000 6.2484 0.0000
# 2 49.2986 115.7509 72.1566 0.0000 -11.1476 0.0000
# 3 48.1825 72.1566 72.2528 0.0000 -8.3930 0.0000
# 4 0.0000 0.0000 0.0000 -0.4564 0.0000 39.4660
# 5 6.2484 -11.1476 -8.3930 0.0000 42.3575 0.0000
# 6 0.0000 0.0000 0.0000 39.4660 0.0000 -68.6687
#
#
#
# Elastic Compliance Matrix: (Units=1/GPa)
#
#
# Indices 1 2 3 4 5 6 
#
# 1 0.010298 -0.000467 -0.006747 0.000000 -0.002979 0.000000
# 2 -0.000467 0.023007 -0.022471 0.000000 0.001671 0.000000
# 3 -0.006747 -0.022471 0.041156 0.000000 0.003236 0.000000
# 4 0.000000 0.000000 0.000000 0.044993 0.000000 0.025859
# 5 -0.002979 0.001671 0.003236 0.000000 0.025129 0.000000
# 6 0.000000 0.000000 0.000000 0.025859 0.000000 0.000299
#
#
# Mechanical properties :
#
#
# Convention : Reuss Voigt Hill
#
# Bulk Modulus (GPa) = 66.26088 73.33287 69.79687
# Shear Modulus (GPa) = 23.89121 4.71866 14.30493
#
# Velocity S-wave (km/s) = 3.21317 1.42798 2.48632
# Velocity P-wave (km/s) = 6.51154 5.86594 6.19715
#
# Compressibility (1/GPa) = 0.01509186
#
# Stress axis : x y z
#
# Youngs Moduli (GPa) = 97.10580 43.46554 24.29752
#
# Poissons Ratio (x) = 0.02029 0.16394
# Poissons Ratio (y) = 0.04533 0.54598
# Poissons Ratio (z) = 0.65520 0.97670
#
# Static dielectric constant tensor:
#      x y z
#    x 1.908710 0.000000 -0.063750 
#    y 0.000000 1.955570 0.000000 
#    z -0.063750 0.000000 1.919360 
# 
# From -- ./inp_files/81270.got.cif
#   From: 2010.05.17/outbox.cif.g08.bks.cpg/sg15_41_cif.got.tgz:81270.got - 2010.06.03 18:47:42.
