data_PCOD9293958
_publ_section_title
;
Structure prediction by ZEFSAII (Michael W. Deem and Ramdas Pophale) SiO2 
 PCOD9293958
Probable space group: C 2/C
;
_chemical_formula_sum "Si O2"
_cell_formula_units_Z 52
_cell_length_a 29.111982
_cell_length_b 21.549376
_cell_length_c 8.798714
_cell_angle_alpha 90.000000
_cell_angle_beta 148.680507
_cell_angle_gamma 90.000000
_cell_volume 2869.261449
_symmetry_space_group_name_H-M "C 2/C"
_symmetry_group_IT_number 15
_symmetry_cell_setting 'monoclinic'
loop_
_space_group_symop_operation_xyz
x,y,z
-x,y,1/2-z
-x,-y,-z
x,-y,1/2+z
1/2+x,1/2+y,z
1/2-x,1/2+y,1/2-z
1/2-x,1/2-y,-z
1/2+x,1/2-y,1/2+z
loop_
_atom_site_type_symbol
_atom_site_label
_atom_site_fract_x
_atom_site_fract_y
_atom_site_fract_z
Si Si1 0.814932 0.999049 0.127637
Si Si2 0.270256 0.590491 0.263763
Si Si3 0.674032 0.289323 0.200737
Si Si4 0.823914 0.285100 0.103731
Si Si5 0.884814 0.086776 0.061502
Si Si6 0.557106 0.663047 0.642498
Si Si7 0.500000 0.245477 0.250000
O O1 0.886509 0.958190 0.421319
O O2 0.770028 0.042912 0.123979
O O3 0.858323 0.043784 0.126614
O O4 0.751947 0.950713 0.861365
O O5 0.367875 0.618713 0.572901
O O6 0.212155 0.649442 0.057403
O O7 0.750000 0.250000 0.500000
O O8 0.599513 0.300383 0.119278
O O9 0.655127 0.253960 0.989974
O O10 0.688488 0.360426 0.185568
O O11 0.913353 0.291251 0.452791
O O12 0.750000 0.250000 0.000000
O O13 0.973203 0.123486 0.352011
O O14 0.528402 0.710639 0.690997
#
# Coordination Sequence:
#
# PCOD9293958 Si02
#       7
#     8   8   8   8   8   8   4
#     4  10  23  37  58  80 126 168 202 245 299 364
#     4  11  22  39  57  88 119 164 206 247 304 370
#     4  12  22  39  61  83 122 163 205 255 305 357
#     4  12  23  41  64  91 126 163 207 258 313 370
#     4  11  22  37  54  88 120 165 203 245 294 372
#     4  12  23  37  58  91 126 165 201 247 304 373
#     4  12  24  38  64  92 128 166 196 258 316 366
#
# _framework density 18.123128999999999
#
# number of rings (size 3 to 8) (size 9 to 14) (size 15 to 20)
#    0.000    0.615    6.154    2.308    0.000    3.692 
#    0.000    0.000    0.000    0.923    0.000    0.000 
#    0.000    0.000    0.000    0.000    0.000    0.000 
#
# Total GULP energy -145090.601854 kJ/mol
# GULP energy per Si atom -5580.407764 kJ/mol
# Density = 1.808188 g / cm^3
# Si number density = 18.123129 Si / 1000 Ang^3
#
#
#
# Elastic Constant Matrix: (Units=GPa)
#
#
# Indices 1 2 3 4 5 6 
#
# 1 91.1024 54.2118 39.9164 0.0000 -32.2026 0.0000
# 2 54.2118 137.3426 65.2545 0.0000 -14.1078 0.0000
# 3 39.9164 65.2545 111.2508 0.0000 -18.5488 0.0000
# 4 0.0000 0.0000 0.0000 42.3016 0.0000 -8.8885
# 5 -32.2026 -14.1078 -18.5488 0.0000 25.0985 0.0000
# 6 0.0000 0.0000 0.0000 -8.8885 0.0000 38.5189
#
#
#
# Elastic Compliance Matrix: (Units=1/GPa)
#
#
# Indices 1 2 3 4 5 6 
#
# 1 0.025189 -0.006911 -0.000277 0.000000 0.028229 0.000000
# 2 -0.006911 0.012039 -0.005625 0.000000 -0.006257 0.000000
# 3 -0.000277 -0.005625 0.013460 0.000000 0.006429 0.000000
# 4 0.000000 0.000000 0.000000 0.024844 0.000000 0.005733
# 5 0.028229 -0.006257 0.006429 0.000000 0.077297 0.000000
# 6 0.000000 0.000000 0.000000 0.005733 0.000000 0.027284
#
#
# Mechanical properties :
#
#
# Convention : Reuss Voigt Hill
#
# Bulk Modulus (GPa) = 39.90359 73.16232 56.53295
# Shear Modulus (GPa) = 23.35433 33.20469 28.27951
#
# Velocity S-wave (km/s) = 3.59367 4.28503 3.95449
# Velocity P-wave (km/s) = 6.26778 8.05849 7.21888
#
# Compressibility (1/GPa) = 0.02506040
#
# Stress axis : x y z
#
# Youngs Moduli (GPa) = 39.69976 83.06457 74.29655
#
# Poissons Ratio (x) = 0.57407 0.02061
# Poissons Ratio (y) = 0.27437 0.41792
# Poissons Ratio (z) = 0.01101 0.46724
#
# Static dielectric constant tensor:
#      x y z
#    x 1.649800 0.000000 -0.024590 
#    y 0.000000 1.637900 0.000000 
#    z -0.024590 0.000000 1.647840 
# 
# From -- ./inp_files/50571.got.cif
#   From: 2010.05.17/outbox.cif.g08.bks.cpg/sg15_26_cif.got.tgz:50571.got - 2010.06.03 18:47:42.
