data_PCOD9293106
_publ_section_title
;
Structure prediction by ZEFSAII (Michael W. Deem and Ramdas Pophale) SiO2 
 PCOD9293106
Probable space group: C 2/C
;
_chemical_formula_sum "Si O2"
_cell_formula_units_Z 64
_cell_length_a 21.356428
_cell_length_b 11.143163
_cell_length_c 22.692460
_cell_angle_alpha 90.000000
_cell_angle_beta 30.589185
_cell_angle_gamma 90.000000
_cell_volume 2748.103921
_symmetry_space_group_name_H-M "C 2/C"
_symmetry_group_IT_number 15
_symmetry_cell_setting 'monoclinic'
loop_
_space_group_symop_operation_xyz
x,y,z
-x,y,1/2-z
-x,-y,-z
x,-y,1/2+z
1/2+x,1/2+y,z
1/2-x,1/2+y,1/2-z
1/2-x,1/2-y,-z
1/2+x,1/2-y,1/2+z
loop_
_atom_site_type_symbol
_atom_site_label
_atom_site_fract_x
_atom_site_fract_y
_atom_site_fract_z
Si Si1 0.554276 0.729859 0.643673
Si Si2 0.547000 0.406720 0.908361
Si Si3 0.608718 0.988453 0.119443
Si Si4 0.184431 0.974149 0.972529
Si Si5 0.259834 0.797881 0.678773
Si Si6 0.953015 0.525184 0.962175
Si Si7 0.270455 0.036147 0.790889
Si Si8 0.032178 0.739961 0.413508
O O1 0.500000 0.684494 0.750000
O O2 0.595072 0.866129 0.623385
O O3 0.657047 0.642935 0.533444
O O4 0.469413 0.724217 0.653826
O O5 0.437740 0.474789 0.961484
O O6 0.620031 0.333951 0.799891
O O7 0.344172 0.504162 0.156618
O O8 0.513564 0.323315 0.993313
O O9 0.500000 0.948101 0.250000
O O10 0.583763 0.946442 0.074489
O O11 0.736960 0.949469 0.044712
O O12 0.275228 0.948639 0.843581
O O13 0.354581 0.893601 0.575687
O O14 0.259103 0.664237 0.654555
O O15 0.324036 0.781342 0.690246
O O16 0.099943 0.550390 0.846783
O O17 0.952112 0.383437 0.978918
#
# Coordination Sequence:
#
# PCOD9293106 Si02
#       8
#     8   8   8   8   8   8   8   8
#     4  10  23  41  70 109 147 191 242 307 377 442
#     4  12  26  43  74 113 151 195 239 313 389 442
#     4  10  22  44  73 103 143 200 251 301 368 446
#     4  12  23  44  69 104 152 188 239 300 372 446
#     4  12  26  43  72 109 145 194 252 306 375 447
#     4  11  25  47  75 106 145 199 253 312 365 448
#     4  12  24  44  73 104 149 191 247 306 375 447
#     4  11  22  46  71 109 147 188 247 306 382 445
#
# _framework density 23.288784
#
# number of rings (size 3 to 8) (size 9 to 14) (size 15 to 20)
#    0.000    0.750    5.000    2.625    1.750    1.000 
#    4.500    0.625    2.750    0.000    0.000    0.000 
#    0.000    0.000    0.000    0.000    0.000    0.000 
#
# Total GULP energy -178224.359338 kJ/mol
# GULP energy per Si atom -5569.511229 kJ/mol
# Density = 2.323578 g / cm^3
# Si number density = 23.288784 Si / 1000 Ang^3
#
#
#
# Elastic Constant Matrix: (Units=GPa)
#
#
# Indices 1 2 3 4 5 6 
#
# 1 148.2419 -3.1999 31.9916 0.0000 2.1333 0.0000
# 2 -3.1999 60.4990 27.4732 -0.0001 11.6308 0.0000
# 3 31.9916 27.4732 86.1686 -0.0001 16.3505 0.0000
# 4 0.0000 -0.0001 -0.0001 23.7990 0.0000 3.0803
# 5 2.1333 11.6308 16.3505 0.0000 42.8860 0.0000
# 6 0.0000 0.0000 0.0000 3.0803 0.0000 26.7476
#
#
#
# Elastic Compliance Matrix: (Units=1/GPa)
#
#
# Indices 1 2 3 4 5 6 
#
# 1 0.007532 0.001896 -0.003484 0.000000 0.000440 0.000000
# 2 0.001896 0.020200 -0.006562 0.000000 -0.003071 0.000000
# 3 -0.003484 -0.006562 0.015760 0.000000 -0.004056 0.000000
# 4 0.000000 0.000000 0.000000 0.042654 0.000000 -0.004912
# 5 0.000440 -0.003071 -0.004056 0.000000 0.025675 0.000000
# 6 0.000000 0.000000 0.000000 -0.004912 0.000000 0.037952
#
#
# Mechanical properties :
#
#
# Convention : Reuss Voigt Hill
#
# Bulk Modulus (GPa) = 36.77455 45.27103 41.02279
# Shear Modulus (GPa) = 28.54899 34.59617 31.57258
#
# Velocity S-wave (km/s) = 3.50504 3.85844 3.68598
# Velocity P-wave (km/s) = 5.67498 6.27146 5.98066
#
# Compressibility (1/GPa) = 0.02719272
#
# Stress axis : x y z
#
# Youngs Moduli (GPa) = 132.76139 49.50617 63.44993
#
# Poissons Ratio (x) = -0.09387 0.22109
# Poissons Ratio (y) = -0.25175 0.41633
# Poissons Ratio (z) = 0.46260 0.32484
#
# Static dielectric constant tensor:
#      x y z
#    x 1.945980 0.000000 -0.006660 
#    y 0.000000 2.062270 0.000000 
#    z -0.006660 0.000000 1.936410 
# 
# From -- ./inp_files/281940.got.cif
#   From: 2010.05.17/outbox.cif.g08.bks.cpg/sg15_141_cif.got.tgz:281940.got - 2010.06.03 18:47:42.
