data_PCOD9293628
_publ_section_title
;
Structure prediction by ZEFSAII (Michael W. Deem and Ramdas Pophale) SiO2 
 PCOD9293628
Probable space group: C 2/C
;
_chemical_formula_sum "Si O2"
_cell_formula_units_Z 64
_cell_length_a 29.678845
_cell_length_b 8.398332
_cell_length_c 10.144315
_cell_angle_alpha 90.000000
_cell_angle_beta 91.158735
_cell_angle_gamma 90.000000
_cell_volume 2527.981794
_symmetry_space_group_name_H-M "C 2/C"
_symmetry_group_IT_number 15
_symmetry_cell_setting 'monoclinic'
loop_
_space_group_symop_operation_xyz
x,y,z
-x,y,1/2-z
-x,-y,-z
x,-y,1/2+z
1/2+x,1/2+y,z
1/2-x,1/2+y,1/2-z
1/2-x,1/2-y,-z
1/2+x,1/2-y,1/2+z
loop_
_atom_site_type_symbol
_atom_site_label
_atom_site_fract_x
_atom_site_fract_y
_atom_site_fract_z
Si Si1 0.414916 0.102259 0.157512
Si Si2 0.969303 0.155016 0.522881
Si Si3 0.100208 0.081925 0.198795
Si Si4 0.716966 0.106121 0.143985
Si Si5 0.052402 0.730419 0.895494
Si Si6 0.632311 0.744352 0.611139
Si Si7 0.217154 0.160167 0.898075
Si Si8 0.651263 0.819994 0.076211
O O1 0.380926 0.132522 0.274206
O O2 0.439380 0.935290 0.177429
O O3 0.450154 0.250229 0.148144
O O4 0.386496 0.096867 0.018626
O O5 0.925166 0.108750 0.439854
O O6 0.002818 0.278801 0.453291
O O7 0.000000 0.000000 0.500000
O O8 0.061600 0.115391 0.303526
O O9 0.133370 0.230882 0.203960
O O10 0.128494 0.922783 0.188808
O O11 0.681813 0.216013 0.056069
O O12 0.718632 0.222868 0.270560
O O13 0.765631 0.021412 0.122891
O O14 0.688198 0.943009 0.130643
O O15 0.091331 0.749749 0.006952
O O16 0.250000 0.250000 0.000000
O O17 0.170929 0.185410 0.976287
#
# Coordination Sequence:
#
# PCOD9293628 Si02
#       8
#     8   8   8   8   8   8   8   8
#     4  11  24  42  72 103 145 194 243 300 357 431
#     4  11  23  46  69 101 151 193 252 303 358 417
#     4  11  26  43  70 103 143 199 243 300 356 427
#     4  11  23  45  73 102 139 181 228 292 361 440
#     4  12  25  44  70 107 144 196 249 299 366 421
#     4  12  25  44  73 102 145 192 241 295 369 440
#     4  10  24  45  73 104 142 178 231 299 365 430
#     4  10  22  46  71 100 145 184 236 297 355 432
#
# _framework density 25.31664
#
# number of rings (size 3 to 8) (size 9 to 14) (size 15 to 20)
#    0.000    1.000    3.750    2.250    3.500    2.500 
#    2.250    6.875    0.000    0.000    0.000    0.000 
#    0.000    0.000    0.000    0.000    0.000    0.000 
#
# Total GULP energy -178355.587375 kJ/mol
# GULP energy per Si atom -5573.612105 kJ/mol
# Density = 2.525902 g / cm^3
# Si number density = 25.316640 Si / 1000 Ang^3
#
#
#
# Elastic Constant Matrix: (Units=GPa)
#
#
# Indices 1 2 3 4 5 6 
#
# 1 85.6375 46.2027 10.0917 0.0000 -13.5165 0.0000
# 2 46.2027 111.5138 14.5318 0.0000 -22.3265 0.0000
# 3 10.0917 14.5318 43.2287 0.0000 -9.3811 0.0000
# 4 0.0000 0.0000 0.0000 30.0158 0.0000 -9.5810
# 5 -13.5165 -22.3265 -9.3811 0.0000 44.4230 0.0000
# 6 0.0000 0.0000 0.0000 -9.5810 0.0000 57.5277
#
#
#
# Elastic Compliance Matrix: (Units=1/GPa)
#
#
# Indices 1 2 3 4 5 6 
#
# 1 0.015208 -0.005851 -0.001276 0.000000 0.001417 0.000000
# 2 -0.005851 0.012460 -0.001939 0.000000 0.004072 0.000000
# 3 -0.001276 -0.001939 0.024929 0.000000 0.003902 0.000000
# 4 0.000000 0.000000 0.000000 0.035186 0.000000 0.005860
# 5 0.001417 0.004072 0.003902 0.000000 0.025813 0.000000
# 6 0.000000 0.000000 0.000000 0.005860 0.000000 0.018359
#
#
# Mechanical properties :
#
#
# Convention : Reuss Voigt Hill
#
# Bulk Modulus (GPa) = 29.01457 42.44804 35.73130
# Shear Modulus (GPa) = 30.94550 37.69689 34.32119
#
# Velocity S-wave (km/s) = 3.49999 3.86296 3.68595
# Velocity P-wave (km/s) = 5.27435 6.05804 5.67973
#
# Compressibility (1/GPa) = 0.03446545
#
# Stress axis : x y z
#
# Youngs Moduli (GPa) = 65.75560 80.25887 40.11371
#
# Poissons Ratio (x) = 0.46959 0.05118
# Poissons Ratio (y) = 0.38473 0.07777
# Poissons Ratio (z) = 0.08389 0.15561
#
# Static dielectric constant tensor:
#      x y z
#    x 2.241140 0.000000 -0.050880 
#    y 0.000000 2.115310 0.000000 
#    z -0.050880 0.000000 2.000740 
# 
# From -- ./inp_files/125930.got.cif
#   From: 2010.05.17/outbox.cif.g08.bks.cpg/sg15_63_cif.got.tgz:125930.got - 2010.06.03 18:47:42.
