data_PCOD9293338
_publ_section_title
;
Structure prediction by ZEFSAII (Michael W. Deem and Ramdas Pophale) SiO2 
 PCOD9293338
Probable space group: C 2/C
;
_chemical_formula_sum "Si O2"
_cell_formula_units_Z 32
_cell_length_a 14.779067
_cell_length_b 11.606089
_cell_length_c 14.358176
_cell_angle_alpha 90.000000
_cell_angle_beta 28.413685
_cell_angle_gamma 90.000000
_cell_volume 1171.892918
_symmetry_space_group_name_H-M "C 2/C"
_symmetry_group_IT_number 15
_symmetry_cell_setting 'monoclinic'
loop_
_space_group_symop_operation_xyz
x,y,z
-x,y,1/2-z
-x,-y,-z
x,-y,1/2+z
1/2+x,1/2+y,z
1/2-x,1/2+y,1/2-z
1/2-x,1/2-y,-z
1/2+x,1/2-y,1/2+z
loop_
_atom_site_type_symbol
_atom_site_label
_atom_site_fract_x
_atom_site_fract_y
_atom_site_fract_z
Si Si1 0.834630 0.669044 0.842811
Si Si2 0.226172 0.596466 0.933250
Si Si3 0.209067 0.643907 0.166934
Si Si4 0.944066 0.109140 0.133906
O O1 0.668424 0.597126 0.947880
O O2 0.909023 0.759851 0.700639
O O3 0.000000 0.604809 0.750000
O O4 0.750000 0.750000 0.000000
O O5 0.305496 0.716156 0.819529
O O6 0.328119 0.483324 0.800478
O O7 0.254039 0.611108 0.019258
O O8 0.999961 0.596548 0.117581
O O9 0.364896 0.609560 0.101981
#
# Coordination Sequence:
#
# PCOD9293338 Si02
#       4
#     8   8   8   8
#     4   9  21  44  69 109 146 180 244 317 365 451
#     4  10  23  45  70 107 155 200 242 311 368 438
#     4  10  22  45  70 111 151 190 260 300 360 466
#     4  11  21  44  77 106 148 200 242 305 387 436
#
# _framework density 27.306249999999999
#
# number of rings (size 3 to 8) (size 9 to 14) (size 15 to 20)
#    0.000    2.000    0.000    2.250    0.000    0.000 
#   45.000    2.500    0.000    1.500    0.000    0.000 
#    0.000    0.000    0.000    0.000    0.000    0.000 
#
# Total GULP energy -89870.784896 kJ/mol
# GULP energy per Si atom -5616.924056 kJ/mol
# Density = 2.724410 g / cm^3
# Si number density = 27.306250 Si / 1000 Ang^3
#
#
#
# Elastic Constant Matrix: (Units=GPa)
#
#
# Indices 1 2 3 4 5 6 
#
# 1 308.0937 98.0267 96.6371 0.0000 -37.9262 0.0000
# 2 98.0267 173.4290 54.5515 -0.0001 -14.8434 0.0000
# 3 96.6371 54.5515 106.4998 -0.0002 -29.8863 0.0000
# 4 0.0000 -0.0001 -0.0002 64.5044 0.0001 11.5971
# 5 -37.9262 -14.8434 -29.8863 0.0001 47.2065 0.0000
# 6 0.0000 0.0000 0.0000 11.5971 0.0000 34.8290
#
#
#
# Elastic Compliance Matrix: (Units=1/GPa)
#
#
# Indices 1 2 3 4 5 6 
#
# 1 0.004972 -0.001663 -0.003266 0.000000 0.001404 0.000000
# 2 -0.001663 0.007430 -0.002452 0.000000 -0.000552 0.000000
# 3 -0.003266 -0.002452 0.015391 0.000000 0.006349 0.000000
# 4 0.000000 0.000000 0.000000 0.016490 0.000000 -0.005491
# 5 0.001404 -0.000552 0.006349 0.000000 0.026158 0.000000
# 6 0.000000 0.000000 0.000000 -0.005491 0.000000 0.030540
#
#
# Mechanical properties :
#
#
# Convention : Reuss Voigt Hill
#
# Bulk Modulus (GPa) = 76.73622 120.71702 98.72662
# Shear Modulus (GPa) = 41.63717 51.89511 46.76614
#
# Velocity S-wave (km/s) = 3.90913 4.36418 4.14291
# Velocity P-wave (km/s) = 6.96693 8.34861 7.68887
#
# Compressibility (1/GPa) = 0.01303166
#
# Stress axis : x y z
#
# Youngs Moduli (GPa) = 201.12369 134.59090 64.97485
#
# Poissons Ratio (x) = 0.22381 0.21219
# Poissons Ratio (y) = 0.33445 0.15930
# Poissons Ratio (z) = 0.65683 0.32998
#
# Static dielectric constant tensor:
#      x y z
#    x 2.048370 0.000000 -0.048540 
#    y 0.000000 1.515500 0.000000 
#    z -0.048540 0.000000 2.179300 
# 
# From -- ./inp_files/161210.got.cif
#   From: 2010.05.17/outbox.cif.g08.bks.cpg/sg15_81_cif.got.tgz:161210.got - 2010.06.03 18:47:42.
