data_PCOD9293353
_publ_section_title
;
Structure prediction by ZEFSAII (Michael W. Deem and Ramdas Pophale) SiO2 
 PCOD9293353
Probable space group: C 2/C
;
_chemical_formula_sum "Si O2"
_cell_formula_units_Z 44
_cell_length_a 12.093350
_cell_length_b 11.456997
_cell_length_c 14.445978
_cell_angle_alpha 90.000000
_cell_angle_beta 79.338383
_cell_angle_gamma 90.000000
_cell_volume 1966.987766
_symmetry_space_group_name_H-M "C 2/C"
_symmetry_group_IT_number 15
_symmetry_cell_setting 'monoclinic'
loop_
_space_group_symop_operation_xyz
x,y,z
-x,y,1/2-z
-x,-y,-z
x,-y,1/2+z
1/2+x,1/2+y,z
1/2-x,1/2+y,1/2-z
1/2-x,1/2-y,-z
1/2+x,1/2-y,1/2+z
loop_
_atom_site_type_symbol
_atom_site_label
_atom_site_fract_x
_atom_site_fract_y
_atom_site_fract_z
Si Si1 0.918796 0.237631 0.102973
Si Si2 0.192584 0.005982 0.922916
Si Si3 0.564638 0.086328 0.057653
Si Si4 0.000000 0.310637 0.750000
Si Si5 0.168783 0.178267 0.081918
Si Si6 0.771193 0.789865 0.231505
O O1 0.832984 0.305943 0.182987
O O2 0.048235 0.239177 0.115051
O O3 0.876315 0.105076 0.101224
O O4 0.915762 0.295617 0.002624
O O5 0.201897 0.103372 0.841398
O O6 0.317926 0.965648 0.928024
O O7 0.146940 0.061386 0.026225
O O8 0.493658 0.113177 0.159213
O O9 0.500000 0.000000 0.000000
O O10 0.115533 0.238367 0.730275
O O11 0.232379 0.182733 0.169901
O O12 0.250000 0.250000 0.000000
#
# Coordination Sequence:
#
# PCOD9293353 Si02
#       6
#     8   8   8   4   8   8
#     4  12  25  47  72 108 142 186 247 299 368 440
#     4  11  24  45  71 106 143 191 240 308 367 429
#     4  12  26  45  75 104 146 194 240 304 361 443
#     4  12  26  48  70 104 148 188 244 292 370 436
#     4  10  22  45  71 100 143 188 238 298 364 433
#     4  11  25  46  70 105 143 192 241 296 367 442
#
# _framework density 22.369229000000001
#
# number of rings (size 3 to 8) (size 9 to 14) (size 15 to 20)
#    0.000    0.727    1.818    7.091    2.545    1.455 
#    3.273    0.000    0.000    0.000    0.000    0.000 
#    0.000    0.000    0.000    0.000    0.000    0.000 
#
# Total GULP energy -123089.330409 kJ/mol
# GULP energy per Si atom -5594.969564 kJ/mol
# Density = 2.231832 g / cm^3
# Si number density = 22.369229 Si / 1000 Ang^3
#
#
#
# Elastic Constant Matrix: (Units=GPa)
#
#
# Indices 1 2 3 4 5 6 
#
# 1 160.7796 15.1554 20.7110 0.0000 -4.0097 0.0000
# 2 15.1554 81.2723 31.7903 0.0000 3.2116 0.0000
# 3 20.7110 31.7903 112.6832 0.0000 -8.0499 0.0000
# 4 0.0000 0.0000 0.0000 28.8203 0.0000 7.4537
# 5 -4.0097 3.2116 -8.0499 0.0000 37.4164 0.0000
# 6 0.0000 0.0000 0.0000 7.4537 0.0000 30.1133
#
#
#
# Elastic Compliance Matrix: (Units=1/GPa)
#
#
# Indices 1 2 3 4 5 6 
#
# 1 0.006431 -0.000872 -0.000895 0.000000 0.000571 0.000000
# 2 -0.000872 0.014107 -0.003974 0.000000 -0.002159 0.000000
# 3 -0.000895 -0.003974 0.010336 0.000000 0.002469 0.000000
# 4 0.000000 0.000000 0.000000 0.037071 0.000000 -0.009176
# 5 0.000571 -0.002159 0.002469 0.000000 0.027504 0.000000
# 6 0.000000 0.000000 0.000000 -0.009176 0.000000 0.035479
#
#
# Mechanical properties :
#
#
# Convention : Reuss Voigt Hill
#
# Bulk Modulus (GPa) = 51.56541 54.44983 53.00762
# Shear Modulus (GPa) = 33.58537 38.40857 35.99697
#
# Velocity S-wave (km/s) = 3.87901 4.14820 4.01586
# Velocity P-wave (km/s) = 6.56995 6.88023 6.72688
#
# Compressibility (1/GPa) = 0.01939285
#
# Stress axis : x y z
#
# Youngs Moduli (GPa) = 155.48599 70.88902 96.74480
#
# Poissons Ratio (x) = 0.06179 0.08662
# Poissons Ratio (y) = 0.13553 0.38444
# Poissons Ratio (z) = 0.13922 0.28170
#
# Static dielectric constant tensor:
#      x y z
#    x 1.828090 0.000000 -0.011430 
#    y 0.000000 1.876900 0.000000 
#    z -0.011430 0.000000 1.851010 
# 
# From -- ./inp_files/142235.got.cif
#   From: 2010.05.17/outbox.cif.g08.bks.cpg/sg15_72_cif.got.tgz:142235.got - 2010.06.03 18:47:42.
