data_PCOD9293702
_publ_section_title
;
Structure prediction by ZEFSAII (Michael W. Deem and Ramdas Pophale) SiO2 
 PCOD9293702
Probable space group: C 2/C
;
_chemical_formula_sum "Si O2"
_cell_formula_units_Z 48
_cell_length_a 9.732767
_cell_length_b 23.036044
_cell_length_c 10.991945
_cell_angle_alpha 90.000000
_cell_angle_beta 124.379543
_cell_angle_gamma 90.000000
_cell_volume 2033.942151
_symmetry_space_group_name_H-M "C 2/C"
_symmetry_group_IT_number 15
_symmetry_cell_setting 'monoclinic'
loop_
_space_group_symop_operation_xyz
x,y,z
-x,y,1/2-z
-x,-y,-z
x,-y,1/2+z
1/2+x,1/2+y,z
1/2-x,1/2+y,1/2-z
1/2-x,1/2-y,-z
1/2+x,1/2-y,1/2+z
loop_
_atom_site_type_symbol
_atom_site_label
_atom_site_fract_x
_atom_site_fract_y
_atom_site_fract_z
Si Si1 0.685201 0.482167 0.295972
Si Si2 0.182897 0.808653 0.612551
Si Si3 0.759297 0.384070 0.864411
Si Si4 0.598484 0.095395 0.417225
Si Si5 0.803976 0.602880 0.663383
Si Si6 0.616428 0.301930 0.206708
O O1 0.500000 0.471789 0.250000
O O2 0.715415 0.550488 0.304204
O O3 0.810615 0.452562 0.455922
O O4 0.717209 0.452249 0.182204
O O5 0.160675 0.839203 0.731789
O O6 0.275760 0.856437 0.573921
O O7 0.303977 0.754405 0.692924
O O8 0.010911 0.789321 0.466363
O O9 0.953698 0.375699 0.926208
O O10 0.736712 0.381922 0.996721
O O11 0.500000 0.070897 0.250000
O O12 0.757964 0.655751 0.729059
O O13 0.000000 0.592912 0.750000
O O14 0.500000 0.331555 0.250000
#
# Coordination Sequence:
#
# PCOD9293702 Si02
#       6
#     8   8   8   8   8   8
#     4  12  27  47  77 110 153 198 255 305 373 456
#     4  11  27  49  81 110 151 203 254 309 373 452
#     4  11  27  45  74 111 157 197 247 310 384 437
#     4  10  22  46  74 107 149 198 248 299 373 450
#     4  12  28  45  75 114 153 196 252 312 381 443
#     4  12  27  50  81 109 151 198 259 309 372 449
#
# _framework density 23.599491
#
# number of rings (size 3 to 8) (size 9 to 14) (size 15 to 20)
#    0.000    0.667    1.667    5.000    9.333    1.333 
#    0.000    0.000    0.000    0.000    0.000    0.000 
#    0.000    0.000    0.000    0.000    0.000    0.000 
#
# Total GULP energy -134569.097951 kJ/mol
# GULP energy per Si atom -5607.045748 kJ/mol
# Density = 2.354578 g / cm^3
# Si number density = 23.599491 Si / 1000 Ang^3
#
#
#
# Elastic Constant Matrix: (Units=GPa)
#
#
# Indices 1 2 3 4 5 6 
#
# 1 128.3635 13.0287 24.6343 0.0000 -11.5852 0.0000
# 2 13.0287 55.5842 -7.0279 0.0000 -5.4492 0.0000
# 3 24.6343 -7.0279 101.8896 0.0000 -0.6120 0.0000
# 4 0.0000 0.0000 0.0000 12.0957 0.0000 -14.3031
# 5 -11.5852 -5.4492 -0.6120 0.0000 52.9051 0.0000
# 6 0.0000 0.0000 0.0000 -14.3031 0.0000 25.9628
#
#
#
# Elastic Compliance Matrix: (Units=1/GPa)
#
#
# Indices 1 2 3 4 5 6 
#
# 1 0.008578 -0.002130 -0.002211 0.000000 0.001634 0.000000
# 2 -0.002130 0.018868 0.001825 0.000000 0.001498 0.000000
# 3 -0.002211 0.001825 0.010474 0.000000 -0.000175 0.000000
# 4 0.000000 0.000000 0.000000 0.237189 0.000000 0.130669
# 5 0.001634 0.001498 -0.000175 0.000000 0.019412 0.000000
# 6 0.000000 0.000000 0.000000 0.130669 0.000000 0.110503
#
#
# Mechanical properties :
#
#
# Convention : Reuss Voigt Hill
#
# Bulk Modulus (GPa) = 30.40597 38.56752 34.48674
# Shear Modulus (GPa) = 11.87595 35.20619 23.54107
#
# Velocity S-wave (km/s) = 2.24571 3.86660 3.16179
# Velocity P-wave (km/s) = 4.43130 6.02595 5.28907
#
# Compressibility (1/GPa) = 0.03288828
#
# Stress axis : x y z
#
# Youngs Moduli (GPa) = 116.57243 53.00065 95.47451
#
# Poissons Ratio (x) = 0.11290 0.21111
# Poissons Ratio (y) = 0.24832 -0.17428
# Poissons Ratio (z) = 0.25776 -0.09675
#
# Static dielectric constant tensor:
#      x y z
#    x 1.890860 0.000000 0.003890 
#    y 0.000000 1.858160 0.000000 
#    z 0.003890 0.000000 1.930410 
# 
# From -- ./inp_files/89801.got.cif
#   From: 2010.05.17/outbox.cif.g08.bks.cpg/sg15_45_cif.got.tgz:89801.got - 2010.06.03 18:47:42.
