data_PCOD9293658
_publ_section_title
;
Structure prediction by ZEFSAII (Michael W. Deem and Ramdas Pophale) SiO2 
 PCOD9293658
Probable space group: C 2/C
;
_chemical_formula_sum "Si O2"
_cell_formula_units_Z 48
_cell_length_a 25.697039
_cell_length_b 7.672693
_cell_length_c 11.561471
_cell_angle_alpha 90.000000
_cell_angle_beta 82.037549
_cell_angle_gamma 90.000000
_cell_volume 2257.546372
_symmetry_space_group_name_H-M "C 2/C"
_symmetry_group_IT_number 15
_symmetry_cell_setting 'monoclinic'
loop_
_space_group_symop_operation_xyz
x,y,z
-x,y,1/2-z
-x,-y,-z
x,-y,1/2+z
1/2+x,1/2+y,z
1/2-x,1/2+y,1/2-z
1/2-x,1/2-y,-z
1/2+x,1/2-y,1/2+z
loop_
_atom_site_type_symbol
_atom_site_label
_atom_site_fract_x
_atom_site_fract_y
_atom_site_fract_z
Si Si1 0.390833 0.161017 0.331151
Si Si2 0.000000 0.816260 0.250000
Si Si3 0.803644 0.424798 0.666791
Si Si4 0.391407 0.445074 0.521201
Si Si5 0.811778 0.182873 0.220113
Si Si6 0.000000 0.000000 0.500000
Si Si7 0.367025 0.797317 0.437991
O O1 0.446853 0.203353 0.257937
O O2 0.346189 0.134006 0.248994
O O3 0.376151 0.321904 0.419331
O O4 0.393802 0.981479 0.402868
O O5 0.005112 0.926728 0.131691
O O6 0.807742 0.633110 0.655180
O O7 0.745761 0.381470 0.729121
O O8 0.819912 0.336562 0.541759
O O9 0.345245 0.443594 0.628609
O O10 0.446919 0.384056 0.553021
O O11 0.403249 0.645244 0.480255
O O12 0.843338 0.220935 0.327675
#
# Coordination Sequence:
#
# PCOD9293658 Si02
#       7
#     8   4   8   8   8   4   8
#     4  10  24  46  65  99 136 176 230 280 342 408
#     4  10  22  46  72 104 144 180 236 290 352 410
#     4  11  23  43  65  98 140 177 228 281 338 410
#     4  11  24  45  68  96 137 179 226 286 347 399
#     4  11  25  41  67  99 136 179 229 277 343 411
#     4  10  24  42  74 104 134 184 232 288 340 422
#     4  11  24  43  66  99 133 179 229 275 344 413
#
# _framework density 21.262022000000002
#
# number of rings (size 3 to 8) (size 9 to 14) (size 15 to 20)
#    0.000    1.333    1.667    2.500    9.333    2.000 
#    6.000    2.500    0.000    0.000    0.000    0.000 
#    0.000    0.000    0.000    0.000    0.000    0.000 
#
# Total GULP energy -133664.426189 kJ/mol
# GULP energy per Si atom -5569.351091 kJ/mol
# Density = 2.121363 g / cm^3
# Si number density = 21.262022 Si / 1000 Ang^3
#
#
#
# Elastic Constant Matrix: (Units=GPa)
#
#
# Indices 1 2 3 4 5 6 
#
# 1 34.2330 -10.1717 20.8499 0.0000 -18.2732 0.0000
# 2 -10.1717 85.3481 34.7111 0.0000 3.3153 0.0000
# 3 20.8499 34.7111 91.1712 0.0000 -23.8446 0.0000
# 4 0.0000 0.0000 0.0000 26.9395 0.0000 10.0325
# 5 -18.2732 3.3153 -23.8446 0.0000 29.3404 0.0000
# 6 0.0000 0.0000 0.0000 10.0325 0.0000 71.4727
#
#
#
# Elastic Compliance Matrix: (Units=1/GPa)
#
#
# Indices 1 2 3 4 5 6 
#
# 1 0.048961 0.008399 -0.008467 0.000000 0.022663 0.000000
# 2 0.008399 0.016711 -0.009409 0.000000 -0.004304 0.000000
# 3 -0.008467 -0.009409 0.019539 0.000000 0.011669 0.000000
# 4 0.000000 0.000000 0.000000 0.039168 0.000000 -0.005498
# 5 0.022663 -0.004304 0.011669 0.000000 0.058166 0.000000
# 6 0.000000 0.000000 0.000000 -0.005498 0.000000 0.014763
#
#
# Mechanical properties :
#
#
# Convention : Reuss Voigt Hill
#
# Bulk Modulus (GPa) = 15.09290 33.50341 24.29816
# Shear Modulus (GPa) = 20.97766 36.57473 28.77619
#
# Velocity S-wave (km/s) = 3.14447 4.15202 3.68286
# Velocity P-wave (km/s) = 4.50528 6.22714 5.43483
#
# Compressibility (1/GPa) = 0.06625631
#
# Stress axis : x y z
#
# Youngs Moduli (GPa) = 20.42429 59.83946 51.18065
#
# Poissons Ratio (x) = -0.50256 0.43336
# Poissons Ratio (y) = -0.17153 0.48155
# Poissons Ratio (z) = 0.17294 0.56301
#
# Static dielectric constant tensor:
#      x y z
#    x 1.863450 0.000000 -0.009520 
#    y 0.000000 1.892710 0.000000 
#    z -0.009520 0.000000 1.754520 
# 
# From -- ./inp_files/116756.got.cif
#   From: 2010.05.17/outbox.cif.g08.bks.cpg/sg15_59_cif.got.tgz:116756.got - 2010.06.03 18:47:42.
