data_PCOD9293988
_publ_section_title
;
Structure prediction by ZEFSAII (Michael W. Deem and Ramdas Pophale) SiO2 
 PCOD9293988
Probable space group: C 2/C
;
_chemical_formula_sum "Si O2"
_cell_formula_units_Z 64
_cell_length_a 27.242940
_cell_length_b 9.609994
_cell_length_c 14.813838
_cell_angle_alpha 90.000000
_cell_angle_beta 54.263442
_cell_angle_gamma 90.000000
_cell_volume 3148.082667
_symmetry_space_group_name_H-M "C 2/C"
_symmetry_group_IT_number 15
_symmetry_cell_setting 'monoclinic'
loop_
_space_group_symop_operation_xyz
x,y,z
-x,y,1/2-z
-x,-y,-z
x,-y,1/2+z
1/2+x,1/2+y,z
1/2-x,1/2+y,1/2-z
1/2-x,1/2-y,-z
1/2+x,1/2-y,1/2+z
loop_
_atom_site_type_symbol
_atom_site_label
_atom_site_fract_x
_atom_site_fract_y
_atom_site_fract_z
Si Si1 0.966282 0.649868 0.027674
Si Si2 0.447902 0.670547 0.732737
Si Si3 0.257464 0.860502 0.857531
Si Si4 0.188622 0.887970 0.112465
Si Si5 0.037050 0.900883 0.893106
Si Si6 0.160548 0.537038 0.384895
Si Si7 0.235419 0.831705 0.606317
Si Si8 0.156454 0.229768 0.348214
O O1 0.958478 0.729466 0.133408
O O2 0.900732 0.622237 0.056956
O O3 0.000000 0.500000 0.000000
O O4 0.000621 0.756892 0.924464
O O5 0.500000 0.702661 0.750000
O O6 0.376966 0.678268 0.839447
O O7 0.453953 0.507001 0.698861
O O8 0.283470 0.703618 0.836675
O O9 0.305703 0.942264 0.747347
O O10 0.194532 0.868053 0.872874
O O11 0.239026 0.893341 0.979258
O O12 0.186349 0.047396 0.142534
O O13 0.097969 0.848376 0.875696
O O14 0.000000 0.000000 0.000000
O O15 0.205580 0.596570 0.412494
O O16 0.144133 0.374785 0.411544
O O17 0.250000 0.750000 0.500000
O O18 0.203268 0.739478 0.716674
#
# Coordination Sequence:
#
# PCOD9293988 Si02
#       8
#     8   8   8   8   8   8   8   8
#     4  11  23  43  69  95 127 176 225 274 330 397
#     4  11  25  44  66  96 131 174 223 275 330 395
#     4  10  23  37  64  96 126 168 211 267 325 395
#     4  11  21  41  62  93 129 162 215 264 328 391
#     4  10  23  41  65  92 126 171 225 267 320 393
#     4  11  22  41  66  94 130 168 223 265 333 394
#     4  11  24  41  62  98 132 168 208 275 336 388
#     4  11  21  41  68  92 128 173 217 268 327 399
#
# _framework density 20.329834999999999
#
# number of rings (size 3 to 8) (size 9 to 14) (size 15 to 20)
#    0.000    1.250    5.000    0.750    3.500    1.000 
#    4.500    0.625    0.000    0.000    0.000    0.000 
#    0.000    0.000    0.000    0.000    0.000    0.000 
#
# Total GULP energy -178360.549435 kJ/mol
# GULP energy per Si atom -5573.767170 kJ/mol
# Density = 2.028356 g / cm^3
# Si number density = 20.329835 Si / 1000 Ang^3
#
#
#
# Elastic Constant Matrix: (Units=GPa)
#
#
# Indices 1 2 3 4 5 6 
#
# 1 116.8635 19.0208 12.8303 0.0000 -20.7047 0.0000
# 2 19.0208 101.3228 13.6354 0.0000 -6.4863 -0.0001
# 3 12.8303 13.6354 42.0190 0.0000 -4.5450 0.0000
# 4 0.0000 0.0000 0.0000 23.2710 0.0000 -3.3630
# 5 -20.7047 -6.4863 -4.5450 0.0000 28.0823 0.0000
# 6 0.0000 -0.0001 0.0000 -3.3630 0.0000 17.9003
#
#
#
# Elastic Compliance Matrix: (Units=1/GPa)
#
#
# Indices 1 2 3 4 5 6 
#
# 1 0.010196 -0.001205 -0.001974 0.000000 0.006919 0.000000
# 2 -0.001205 0.010561 -0.002943 0.000000 0.001074 0.000000
# 3 -0.001974 -0.002943 0.025573 0.000000 0.002004 0.000000
# 4 0.000000 0.000000 0.000000 0.044171 0.000000 0.008298
# 5 0.006919 0.001074 0.002004 0.000000 0.041284 0.000000
# 6 0.000000 0.000000 0.000000 0.008298 0.000000 0.057424
#
#
# Mechanical properties :
#
#
# Convention : Reuss Voigt Hill
#
# Bulk Modulus (GPa) = 29.33764 39.01979 34.17872
# Shear Modulus (GPa) = 23.49474 28.16531 25.83003
#
# Velocity S-wave (km/s) = 3.40321 3.72616 3.56834
# Velocity P-wave (km/s) = 5.46851 6.14389 5.81601
#
# Compressibility (1/GPa) = 0.03408590
#
# Stress axis : x y z
#
# Youngs Moduli (GPa) = 98.07990 94.69230 39.10357
#
# Poissons Ratio (x) = 0.11415 0.07718
# Poissons Ratio (y) = 0.11823 0.11507
# Poissons Ratio (z) = 0.19357 0.27865
#
# Static dielectric constant tensor:
#      x y z
#    x 1.702010 0.000000 0.007730 
#    y 0.000000 1.762980 0.000000 
#    z 0.007730 0.000000 1.827990 
# 
# From -- ./inp_files/181134.got.cif
#   From: 2010.05.17/outbox.cif.g08.bks.cpg/sg15_91_cif.got.tgz:181134.got - 2010.06.03 18:47:42.
