data_PCOD9293116
_publ_section_title
;
Structure prediction by ZEFSAII (Michael W. Deem and Ramdas Pophale) SiO2 
 PCOD9293116
Probable space group: C 2/C
;
_chemical_formula_sum "Si O2"
_cell_formula_units_Z 48
_cell_length_a 9.444934
_cell_length_b 24.114331
_cell_length_c 16.507965
_cell_angle_alpha 90.000000
_cell_angle_beta 36.370903
_cell_angle_gamma 90.000000
_cell_volume 2229.614301
_symmetry_space_group_name_H-M "C 2/C"
_symmetry_group_IT_number 15
_symmetry_cell_setting 'monoclinic'
loop_
_space_group_symop_operation_xyz
x,y,z
-x,y,1/2-z
-x,-y,-z
x,-y,1/2+z
1/2+x,1/2+y,z
1/2-x,1/2+y,1/2-z
1/2-x,1/2-y,-z
1/2+x,1/2-y,1/2+z
loop_
_atom_site_type_symbol
_atom_site_label
_atom_site_fract_x
_atom_site_fract_y
_atom_site_fract_z
Si Si1 0.251367 0.527703 0.135551
Si Si2 0.671541 0.912350 0.386062
Si Si3 0.707349 0.828009 0.222296
Si Si4 0.998605 0.268148 0.655779
Si Si5 0.268815 0.539157 0.308829
Si Si6 0.772616 0.872496 0.508362
O O1 0.280249 0.554380 0.210051
O O2 0.000000 0.493633 0.250000
O O3 0.500000 0.500000 0.000000
O O4 0.219294 0.571901 0.079975
O O5 0.633809 0.868024 0.331622
O O6 0.442685 0.934118 0.542187
O O7 0.816022 0.883901 0.393423
O O8 0.764375 0.971346 0.309495
O O9 0.500000 0.828720 0.250000
O O10 0.778622 0.765467 0.218544
O O11 0.973231 0.849983 0.074106
O O12 0.250000 0.250000 0.500000
O O13 0.040495 0.333507 0.625898
O O14 0.000000 0.254915 0.750000
O O15 0.500000 0.556689 0.250000
#
# Coordination Sequence:
#
# PCOD9293116 Si02
#       6
#     8   8   8   8   8   8
#     4  12  25  42  69 103 145 196 250 296 361 441
#     4  11  23  44  67  97 144 194 240 280 371 445
#     4  11  24  42  72 104 136 182 243 313 366 426
#     4  10  22  44  73  99 133 183 240 295 367 448
#     4  11  25  40  64 101 146 192 239 297 356 439
#     4  11  23  45  70  98 141 193 240 290 366 452
#
# _framework density 21.528386999999999
#
# number of rings (size 3 to 8) (size 9 to 14) (size 15 to 20)
#    0.000    1.000    1.667    6.000    4.667    1.333 
#    0.000    8.333    0.000    0.000    0.000    0.000 
#    0.000    0.000    0.000    0.000    0.000    0.000 
#
# Total GULP energy -133855.711133 kJ/mol
# GULP energy per Si atom -5577.321297 kJ/mol
# Density = 2.147939 g / cm^3
# Si number density = 21.528387 Si / 1000 Ang^3
#
#
#
# Elastic Constant Matrix: (Units=GPa)
#
#
# Indices 1 2 3 4 5 6 
#
# 1 178.4679 46.8839 65.3212 -0.0001 0.0878 0.0001
# 2 46.8839 102.9424 40.1742 0.0000 -7.6591 0.0000
# 3 65.3212 40.1742 113.7706 -0.0003 5.7243 0.0002
# 4 -0.0001 0.0000 -0.0003 20.3732 0.0001 -6.4422
# 5 0.0878 -7.6591 5.7243 0.0001 42.2768 -0.0001
# 6 0.0001 0.0000 0.0002 -6.4422 -0.0001 30.1561
#
#
#
# Elastic Compliance Matrix: (Units=1/GPa)
#
#
# Indices 1 2 3 4 5 6 
#
# 1 0.007431 -0.001982 -0.003572 0.000000 0.000109 0.000000
# 2 -0.001982 0.012086 -0.003262 0.000000 0.002635 0.000000
# 3 -0.003572 -0.003262 0.012104 0.000000 -0.002223 0.000000
# 4 0.000000 0.000000 0.000000 0.052640 0.000000 0.011245
# 5 0.000109 0.002635 -0.002223 0.000000 0.024432 0.000000
# 6 0.000000 0.000000 0.000000 0.011245 0.000000 0.035563
#
#
# Mechanical properties :
#
#
# Convention : Reuss Voigt Hill
#
# Bulk Modulus (GPa) = 71.48813 77.77106 74.62959
# Shear Modulus (GPa) = 30.02039 34.74799 32.38419
#
# Velocity S-wave (km/s) = 3.73829 4.02189 3.88268
# Velocity P-wave (km/s) = 7.20497 7.60071 7.40548
#
# Compressibility (1/GPa) = 0.01398834
#
# Stress axis : x y z
#
# Youngs Moduli (GPa) = 134.56339 82.73889 82.61454
#
# Poissons Ratio (x) = 0.16402 0.29512
# Poissons Ratio (y) = 0.26675 0.26951
# Poissons Ratio (z) = 0.48069 0.26992
#
# Static dielectric constant tensor:
#      x y z
#    x 1.763360 0.000000 -0.047850 
#    y 0.000000 1.922330 0.000000 
#    z -0.047850 0.000000 1.796810 
# 
# From -- ./inp_files/138927.got.cif
#   From: 2010.05.17/outbox.cif.g08.bks.cpg/sg15_70_cif.got.tgz:138927.got - 2010.06.03 18:47:42.
