data_PCOD9293436
_publ_section_title
;
Structure prediction by ZEFSAII (Michael W. Deem and Ramdas Pophale) SiO2 
 PCOD9293436
Probable space group: C 2/C
;
_chemical_formula_sum "Si O2"
_cell_formula_units_Z 56
_cell_length_a 28.753534
_cell_length_b 10.606108
_cell_length_c 10.342045
_cell_angle_alpha 90.000000
_cell_angle_beta 132.229813
_cell_angle_gamma 90.000000
_cell_volume 2335.352026
_symmetry_space_group_name_H-M "C 2/C"
_symmetry_group_IT_number 15
_symmetry_cell_setting 'monoclinic'
loop_
_space_group_symop_operation_xyz
x,y,z
-x,y,1/2-z
-x,-y,-z
x,-y,1/2+z
1/2+x,1/2+y,z
1/2-x,1/2+y,1/2-z
1/2-x,1/2-y,-z
1/2+x,1/2-y,1/2+z
loop_
_atom_site_type_symbol
_atom_site_label
_atom_site_fract_x
_atom_site_fract_y
_atom_site_fract_z
Si Si1 0.234894 0.839214 0.588973
Si Si2 0.823630 0.291668 0.276937
Si Si3 0.406904 0.276593 0.571360
Si Si4 0.873365 0.551087 0.354140
Si Si5 0.492617 0.644815 0.023131
Si Si6 0.306416 0.396494 0.544275
Si Si7 0.972347 0.600747 0.342599
O O1 0.250000 0.750000 0.500000
O O2 0.203430 0.754973 0.639527
O O3 0.301903 0.903354 0.747456
O O4 0.189924 0.955179 0.466357
O O5 0.875045 0.400751 0.377339
O O6 0.766955 0.358720 0.091056
O O7 0.839292 0.164183 0.230062
O O8 0.409517 0.131876 0.530990
O O9 0.454325 0.309566 0.775448
O O10 0.428375 0.348749 0.484238
O O11 0.339206 0.323906 0.488157
O O12 0.899282 0.586285 0.258651
O O13 0.500000 0.500000 0.000000
O O14 0.489252 0.753857 0.909385
O O15 0.000000 0.578341 0.250000
O O16 0.000000 0.500000 0.500000
#
# Coordination Sequence:
#
# PCOD9293436 Si02
#       7
#     8   8   8   8   8   8   8
#     4  11  25  42  68 102 144 187 244 304 366 447
#     4  10  23  42  68 101 137 188 241 297 367 448
#     4  10  22  45  75 100 146 193 237 306 374 440
#     4  10  24  45  74 101 148 192 243 313 375 441
#     4  10  25  46  75 110 146 190 245 308 371 452
#     4  10  23  40  68  99 139 187 238 293 370 436
#     4  11  28  48  75 111 150 192 257 310 380 458
#
# _framework density 23.979254000000001
#
# number of rings (size 3 to 8) (size 9 to 14) (size 15 to 20)
#    0.000    1.714    1.429    0.000   12.000    5.714 
#    0.000    0.000    0.000    0.000    0.000    0.000 
#    0.000    0.000    0.000    0.000    0.000    0.000 
#
# Total GULP energy -156371.505535 kJ/mol
# GULP energy per Si atom -5584.696626 kJ/mol
# Density = 2.392468 g / cm^3
# Si number density = 23.979254 Si / 1000 Ang^3
#
#
#
# Elastic Constant Matrix: (Units=GPa)
#
#
# Indices 1 2 3 4 5 6 
#
# 1 141.2681 60.6887 38.9480 0.0000 -34.7448 0.0000
# 2 60.6887 190.6955 66.9164 0.0000 -29.8543 0.0000
# 3 38.9480 66.9164 62.1896 0.0000 -19.3368 0.0000
# 4 0.0000 0.0000 0.0000 27.2859 0.0000 4.8984
# 5 -34.7448 -29.8543 -19.3368 0.0000 41.8716 0.0000
# 6 0.0000 0.0000 0.0000 4.8984 0.0000 41.0063
#
#
#
# Elastic Compliance Matrix: (Units=1/GPa)
#
#
# Indices 1 2 3 4 5 6 
#
# 1 0.009889 -0.001110 -0.003145 0.000000 0.005962 0.000000
# 2 -0.001110 0.008715 -0.008216 0.000000 0.001498 0.000000
# 3 -0.003145 -0.008216 0.028324 0.000000 0.004613 0.000000
# 4 0.000000 0.000000 0.000000 0.037452 0.000000 -0.004474
# 5 0.005962 0.001498 0.004613 0.000000 0.032028 0.000000
# 6 0.000000 0.000000 0.000000 -0.004474 0.000000 0.024921
#
#
# Mechanical properties :
#
#
# Convention : Reuss Voigt Hill
#
# Bulk Modulus (GPa) = 45.48415 80.80660 63.14538
# Shear Modulus (GPa) = 28.80168 37.20608 33.00388
#
# Velocity S-wave (km/s) = 3.46946 3.94330 3.71395
# Velocity P-wave (km/s) = 5.92105 7.38272 6.69191
#
# Compressibility (1/GPa) = 0.02198568
#
# Stress axis : x y z
#
# Youngs Moduli (GPa) = 101.12137 114.74523 35.30529
#
# Poissons Ratio (x) = 0.12740 0.11103
# Poissons Ratio (y) = 0.11227 0.29008
# Poissons Ratio (z) = 0.31802 0.94277
#
# Static dielectric constant tensor:
#      x y z
#    x 1.967050 0.000000 0.132120 
#    y 0.000000 1.930840 0.000000 
#    z 0.132120 0.000000 2.026640 
# 
# From -- ./inp_files/125977.got.cif
#   From: 2010.05.17/outbox.cif.g08.bks.cpg/sg15_63_cif.got.tgz:125977.got - 2010.06.03 18:47:42.
