data_PCOD9293262
_publ_section_title
;
Structure prediction by ZEFSAII (Michael W. Deem and Ramdas Pophale) SiO2 
 PCOD9293262
Probable space group: C 2/C
;
_chemical_formula_sum "Si O2"
_cell_formula_units_Z 36
_cell_length_a 17.172400
_cell_length_b 7.689375
_cell_length_c 28.800624
_cell_angle_alpha 90.000000
_cell_angle_beta 155.457373
_cell_angle_gamma 90.000000
_cell_volume 1579.643879
_symmetry_space_group_name_H-M "C 2/C"
_symmetry_group_IT_number 15
_symmetry_cell_setting 'monoclinic'
loop_
_space_group_symop_operation_xyz
x,y,z
-x,y,1/2-z
-x,-y,-z
x,-y,1/2+z
1/2+x,1/2+y,z
1/2-x,1/2+y,1/2-z
1/2-x,1/2-y,-z
1/2+x,1/2-y,1/2+z
loop_
_atom_site_type_symbol
_atom_site_label
_atom_site_fract_x
_atom_site_fract_y
_atom_site_fract_z
Si Si1 0.702618 0.101244 0.651215
Si Si2 0.554706 0.402390 0.983726
Si Si3 0.604611 0.816318 0.382045
Si Si4 0.500000 0.465385 0.750000
Si Si5 0.695364 0.075521 0.236166
O O1 0.504768 0.201348 0.539195
O O2 0.672185 0.936732 0.668375
O O3 0.823855 0.240327 0.748060
O O4 0.817102 0.072020 0.666500
O O5 0.412441 0.462416 0.866450
O O6 0.500000 0.500000 0.000000
O O7 0.766672 0.425133 0.083744
O O8 0.750000 0.750000 0.500000
O O9 0.535022 0.655526 0.313719
O O10 0.442085 0.931970 0.316294
#
# Coordination Sequence:
#
# PCOD9293262 Si02
#       5
#     8   8   8   4   8
#     4  10  23  43  64  96 133 177 215 282 330 385
#     4  10  23  39  68  97 131 172 227 271 339 386
#     4  12  23  46  70  98 133 186 219 274 346 398
#     4  12  26  40  70 102 136 174 230 278 328 408
#     4  10  22  45  67  92 140 169 226 276 330 396
#
# _framework density 22.789944999999999
#
# number of rings (size 3 to 8) (size 9 to 14) (size 15 to 20)
#    1.333    0.000    2.222    4.000    3.111    0.889 
#    4.000    2.222    0.000    0.000    0.000    0.000 
#    0.000    0.000    0.000    0.000    0.000    0.000 
#
# Total GULP energy -100455.358077 kJ/mol
# GULP energy per Si atom -5580.853226 kJ/mol
# Density = 2.273807 g / cm^3
# Si number density = 22.789945 Si / 1000 Ang^3
#
#
#
# Elastic Constant Matrix: (Units=GPa)
#
#
# Indices 1 2 3 4 5 6 
#
# 1 108.3012 18.0611 3.9034 -0.0001 32.9497 -0.0002
# 2 18.0611 50.8595 12.7467 0.0000 7.8150 -0.0006
# 3 3.9034 12.7467 47.2490 0.0003 20.2572 -0.0002
# 4 -0.0001 0.0000 0.0003 31.6601 -0.0003 3.5789
# 5 32.9497 7.8150 20.2572 -0.0003 51.3918 0.0000
# 6 -0.0002 -0.0006 -0.0002 3.5789 0.0000 47.0405
#
#
#
# Elastic Compliance Matrix: (Units=1/GPa)
#
#
# Indices 1 2 3 4 5 6 
#
# 1 0.012479 -0.004034 0.003880 0.000000 -0.008917 0.000000
# 2 -0.004034 0.022449 -0.006460 0.000000 0.001719 0.000000
# 3 0.003880 -0.006460 0.027957 0.000000 -0.012525 0.000000
# 4 0.000000 0.000000 0.000000 0.031859 0.000000 -0.002424
# 5 -0.008917 0.001719 -0.012525 0.000000 0.029851 0.000000
# 6 0.000000 0.000000 0.000000 -0.002424 0.000000 0.021443
#
#
# Mechanical properties :
#
#
# Convention : Reuss Voigt Hill
#
# Bulk Modulus (GPa) = 20.13763 30.64801 25.39282
# Shear Modulus (GPa) = 28.43836 37.46506 32.95171
#
# Velocity S-wave (km/s) = 3.53632 4.05894 3.80661
# Velocity P-wave (km/s) = 5.05267 5.95348 5.52147
#
# Compressibility (1/GPa) = 0.04965828
#
# Stress axis : x y z
#
# Youngs Moduli (GPa) = 80.13221 44.54452 35.76969
#
# Poissons Ratio (x) = 0.17969 -0.13880
# Poissons Ratio (y) = 0.32325 0.23107
# Poissons Ratio (z) = -0.31095 0.28776
#
# Static dielectric constant tensor:
#      x y z
#    x 1.933510 0.000000 -0.163410 
#    y 0.000000 1.937620 0.000000 
#    z -0.163410 0.000000 2.147270 
# 
# From -- ./inp_files/150163.got.cif
#   From: 2010.05.17/outbox.cif.g08.bks.cpg/sg15_76_cif.got.tgz:150163.got - 2010.06.03 18:47:42.
