data_PCOD9293119
_publ_section_title
;
Structure prediction by ZEFSAII (Michael W. Deem and Ramdas Pophale) SiO2 
 PCOD9293119
Probable space group: C 2/C
;
_chemical_formula_sum "Si O2"
_cell_formula_units_Z 60
_cell_length_a 21.545420
_cell_length_b 8.938034
_cell_length_c 26.827941
_cell_angle_alpha 90.000000
_cell_angle_beta 149.559012
_cell_angle_gamma 90.000000
_cell_volume 2617.537538
_symmetry_space_group_name_H-M "C 2/C"
_symmetry_group_IT_number 15
_symmetry_cell_setting 'monoclinic'
loop_
_space_group_symop_operation_xyz
x,y,z
-x,y,1/2-z
-x,-y,-z
x,-y,1/2+z
1/2+x,1/2+y,z
1/2-x,1/2+y,1/2-z
1/2-x,1/2-y,-z
1/2+x,1/2-y,1/2+z
loop_
_atom_site_type_symbol
_atom_site_label
_atom_site_fract_x
_atom_site_fract_y
_atom_site_fract_z
Si Si1 0.136475 0.306111 0.764929
Si Si2 0.615007 0.142209 0.560374
Si Si3 0.963128 0.998114 0.780010
Si Si4 0.790757 0.650618 0.423127
Si Si5 0.147167 0.568031 0.698778
Si Si6 0.000000 0.512384 0.750000
Si Si7 0.925951 0.714480 0.608516
Si Si8 0.094954 0.863598 0.074631
O O1 0.274372 0.256899 0.872885
O O2 0.130912 0.404616 0.711542
O O3 0.083521 0.406868 0.773120
O O4 0.065767 0.149185 0.710923
O O5 0.629797 0.092918 0.628249
O O6 0.489698 0.228258 0.465773
O O7 0.631574 0.995782 0.538688
O O8 0.843157 0.893860 0.688838
O O9 0.060796 0.889851 0.872279
O O10 0.000000 0.044944 0.750000
O O11 0.842301 0.798434 0.432131
O O12 0.810563 0.672273 0.495055
O O13 0.046829 0.668057 0.659053
O O14 0.289122 0.603979 0.810185
O O15 0.068266 0.620930 0.836381
O O16 0.000000 0.000000 0.000000
#
# Coordination Sequence:
#
# PCOD9293119 Si02
#       8
#     8   8   8   8   8   4   8   8
#     4  10  23  43  74 103 143 191 235 299 356 429
#     4  11  25  44  70 105 148 188 239 291 372 437
#     4  11  23  46  72 101 137 186 247 299 359 429
#     4  11  26  45  68 104 144 187 239 304 364 432
#     4  11  24  42  72 104 147 193 229 301 369 422
#     4  10  22  44  74 100 142 190 244 292 362 418
#     4  11  23  44  74  99 138 191 240 301 360 426
#     4  12  24  41  66 105 144 184 239 289 359 452
#
# _framework density 22.922305999999999
#
# number of rings (size 3 to 8) (size 9 to 14) (size 15 to 20)
#    0.000    1.067    5.333    0.400    1.867    3.733 
#    0.000    2.667    5.867    0.000    0.000    0.000 
#    0.000    0.000    0.000    0.000    0.000    0.000 
#
# Total GULP energy -167969.351074 kJ/mol
# GULP energy per Si atom -5598.978369 kJ/mol
# Density = 2.287013 g / cm^3
# Si number density = 22.922306 Si / 1000 Ang^3
#
#
#
# Elastic Constant Matrix: (Units=GPa)
#
#
# Indices 1 2 3 4 5 6 
#
# 1 93.1989 57.3406 45.6571 0.0000 -6.5817 0.0000
# 2 57.3406 123.1225 53.3484 0.0000 -10.6805 0.0000
# 3 45.6571 53.3484 99.0915 -0.0001 -7.8483 0.0000
# 4 0.0000 0.0000 -0.0001 28.2225 0.0000 12.9798
# 5 -6.5817 -10.6805 -7.8483 0.0000 43.1928 0.0000
# 6 0.0000 0.0000 0.0000 12.9798 0.0000 40.8273
#
#
#
# Elastic Compliance Matrix: (Units=1/GPa)
#
#
# Indices 1 2 3 4 5 6 
#
# 1 0.016453 -0.005690 -0.004495 0.000000 0.000283 0.000000
# 2 -0.005690 0.012672 -0.004080 0.000000 0.001525 0.000000
# 3 -0.004495 -0.004080 0.014433 0.000000 0.000929 0.000000
# 4 0.000000 0.000000 0.000000 0.041501 0.000000 -0.013194
# 5 0.000283 0.001525 0.000929 0.000000 0.023741 0.000000
# 6 0.000000 0.000000 0.000000 -0.013194 0.000000 0.028688
#
#
# Mechanical properties :
#
#
# Convention : Reuss Voigt Hill
#
# Bulk Modulus (GPa) = 66.54268 69.78948 68.16608
# Shear Modulus (GPa) = 29.23540 33.05299 31.14419
#
# Velocity S-wave (km/s) = 3.57517 3.80143 3.69003
# Velocity P-wave (km/s) = 6.79228 7.05550 6.92514
#
# Compressibility (1/GPa) = 0.01502795
#
# Stress axis : x y z
#
# Youngs Moduli (GPa) = 60.78090 78.91394 69.28723
#
# Poissons Ratio (x) = 0.44903 0.31143
# Poissons Ratio (y) = 0.34585 0.28267
# Poissons Ratio (z) = 0.27320 0.32195
#
# Static dielectric constant tensor:
#      x y z
#    x 1.879050 0.000000 0.048330 
#    y 0.000000 1.836720 0.000000 
#    z 0.048330 0.000000 1.854860 
# 
# From -- ./inp_files/302081.got.cif
#   From: 2010.05.17/outbox.cif.g08.bks.cpg/sg15_152_cif.got.tgz:302081.got - 2010.06.03 18:47:42.
