data_PCOD9293967
_publ_section_title
;
Structure prediction by ZEFSAII (Michael W. Deem and Ramdas Pophale) SiO2 
 PCOD9293967
Probable space group: C 2/C
;
_chemical_formula_sum "Si O2"
_cell_formula_units_Z 60
_cell_length_a 25.826506
_cell_length_b 8.890260
_cell_length_c 14.147175
_cell_angle_alpha 90.000000
_cell_angle_beta 66.815675
_cell_angle_gamma 90.000000
_cell_volume 2985.934060
_symmetry_space_group_name_H-M "C 2/C"
_symmetry_group_IT_number 15
_symmetry_cell_setting 'monoclinic'
loop_
_space_group_symop_operation_xyz
x,y,z
-x,y,1/2-z
-x,-y,-z
x,-y,1/2+z
1/2+x,1/2+y,z
1/2-x,1/2+y,1/2-z
1/2-x,1/2-y,-z
1/2+x,1/2-y,1/2+z
loop_
_atom_site_type_symbol
_atom_site_label
_atom_site_fract_x
_atom_site_fract_y
_atom_site_fract_z
Si Si1 0.500000 0.943463 0.250000
Si Si2 0.444871 0.436773 0.228645
Si Si3 0.046705 0.172885 0.442357
Si Si4 0.889356 0.631237 0.273796
Si Si5 0.133329 0.568551 0.876897
Si Si6 0.311026 0.759265 0.001683
Si Si7 0.886181 0.986890 0.955779
Si Si8 0.562549 0.812496 0.026373
O O1 0.528089 0.844986 0.147362
O O2 0.447654 0.043141 0.251391
O O3 0.500000 0.392052 0.250000
O O4 0.460002 0.549927 0.134481
O O5 0.409239 0.293005 0.220880
O O6 0.404997 0.519035 0.333763
O O7 0.093649 0.292168 0.377082
O O8 0.988288 0.256744 0.503643
O O9 0.070005 0.090836 0.517804
O O10 0.854043 0.532457 0.224141
O O11 0.854602 0.668542 0.393819
O O12 0.181493 0.640326 0.908885
O O13 0.093523 0.460177 0.968443
O O14 0.330443 0.586795 0.005836
O O15 0.250000 0.750000 0.000000
O O16 0.892468 0.820443 0.991887
#
# Coordination Sequence:
#
# PCOD9293967 Si02
#       8
#     4   8   8   8   8   8   8   8
#     4  12  22  34  62  98 142 166 200 260 340 408
#     4  11  21  34  54  86 132 166 201 241 307 392
#     4  11  22  35  54  89 136 170 199 250 313 404
#     4  11  23  39  64  97 127 170 214 264 333 405
#     4  11  24  38  64  94 125 171 221 270 334 389
#     4  10  24  50  68  87 126 174 228 288 327 371
#     4  10  23  37  60  89 120 171 212 248 324 386
#     4  12  21  35  58  95 137 167 205 254 325 408
#
# _framework density 20.094215999999999
#
# number of rings (size 3 to 8) (size 9 to 14) (size 15 to 20)
#    0.000    1.067    4.667    2.400    1.867    0.000 
#    0.000    7.333    0.000    0.000    0.000    0.000 
#    0.000    0.000    0.000    0.000    0.000    0.000 
#
# Total GULP energy -167591.287606 kJ/mol
# GULP energy per Si atom -5586.376254 kJ/mol
# Density = 2.004848 g / cm^3
# Si number density = 20.094216 Si / 1000 Ang^3
#
#
#
# Elastic Constant Matrix: (Units=GPa)
#
#
# Indices 1 2 3 4 5 6 
#
# 1 107.8898 40.5446 -0.1906 0.0000 13.4235 0.0000
# 2 40.5446 84.9347 2.9590 0.0000 0.2402 0.0000
# 3 -0.1906 2.9590 39.4263 0.0000 9.9839 0.0000
# 4 0.0000 0.0000 0.0000 19.8439 0.0000 0.8410
# 5 13.4235 0.2402 9.9839 0.0000 12.2069 0.0000
# 6 0.0000 0.0000 0.0000 0.8410 0.0000 18.9947
#
#
#
# Elastic Compliance Matrix: (Units=1/GPa)
#
#
# Indices 1 2 3 4 5 6 
#
# 1 0.014487 -0.007059 0.005800 0.000000 -0.020536 0.000000
# 2 -0.007059 0.015248 -0.003870 0.000000 0.010628 0.000000
# 3 0.005800 -0.003870 0.034404 0.000000 -0.034440 0.000000
# 4 0.000000 0.000000 0.000000 0.050488 0.000000 -0.002236
# 5 -0.020536 0.010628 -0.034440 0.000000 0.132462 0.000000
# 6 0.000000 0.000000 0.000000 -0.002236 0.000000 0.052745
#
#
# Mechanical properties :
#
#
# Convention : Reuss Voigt Hill
#
# Bulk Modulus (GPa) = 18.55968 35.43075 26.99521
# Shear Modulus (GPa) = 15.24144 22.80495 19.02320
#
# Velocity S-wave (km/s) = 2.75707 3.37248 3.08019
# Velocity P-wave (km/s) = 4.40360 5.73022 5.11014
#
# Compressibility (1/GPa) = 0.05388025
#
# Stress axis : x y z
#
# Youngs Moduli (GPa) = 69.02796 65.58049 29.06677
#
# Poissons Ratio (x) = 0.46296 -0.16859
# Poissons Ratio (y) = 0.48730 0.11249
# Poissons Ratio (z) = -0.40037 0.25379
#
# Static dielectric constant tensor:
#      x y z
#    x 1.714650 0.000000 0.034080 
#    y 0.000000 1.726950 0.000000 
#    z 0.034080 0.000000 1.749560 
# 
# From -- ./inp_files/172344.got.cif
#   From: 2010.05.17/outbox.cif.g08.bks.cpg/sg15_87_cif.got.tgz:172344.got - 2010.06.03 18:47:42.
