data_PCOD9293940
_publ_section_title
;
Structure prediction by ZEFSAII (Michael W. Deem and Ramdas Pophale) SiO2 
 PCOD9293940
Probable space group: C 2/C
;
_chemical_formula_sum "Si O2"
_cell_formula_units_Z 40
_cell_length_a 12.113369
_cell_length_b 14.398715
_cell_length_c 14.310652
_cell_angle_alpha 90.000000
_cell_angle_beta 129.433289
_cell_angle_gamma 90.000000
_cell_volume 1927.837835
_symmetry_space_group_name_H-M "C 2/C"
_symmetry_group_IT_number 15
_symmetry_cell_setting 'monoclinic'
loop_
_space_group_symop_operation_xyz
x,y,z
-x,y,1/2-z
-x,-y,-z
x,-y,1/2+z
1/2+x,1/2+y,z
1/2-x,1/2+y,1/2-z
1/2-x,1/2-y,-z
1/2+x,1/2-y,1/2+z
loop_
_atom_site_type_symbol
_atom_site_label
_atom_site_fract_x
_atom_site_fract_y
_atom_site_fract_z
Si Si1 0.680169 0.416068 0.657690
Si Si2 0.490207 0.917059 0.856901
Si Si3 0.367064 0.396565 0.481017
Si Si4 0.950979 0.250696 0.488926
Si Si5 0.568250 0.876761 0.390165
O O1 0.822163 0.415242 0.794360
O O2 0.519623 0.414463 0.614168
O O3 0.681701 0.507992 0.594200
O O4 0.677606 0.321146 0.595880
O O5 0.500000 0.911596 0.750000
O O6 0.563993 0.828558 0.942016
O O7 0.549321 0.017701 0.915265
O O8 0.414543 0.320629 0.428770
O O9 0.237240 0.360188 0.471985
O O10 0.987695 0.306214 0.414003
O O11 0.500000 0.871430 0.250000
#
# Coordination Sequence:
#
# PCOD9293940 Si02
#       5
#     8   8   8   8   8
#     4   9  20  38  60  82 121 155 183 242 294 332
#     4  11  22  39  59  86 119 157 190 236 293 338
#     4   9  19  40  58  83 118 152 185 243 295 329
#     4  10  23  36  64  87 111 150 207 231 277 354
#     4  11  21  38  62  86 117 153 189 241 293 338
#
# _framework density 20.748633000000002
#
# number of rings (size 3 to 8) (size 9 to 14) (size 15 to 20)
#    1.200    0.800    4.000    1.200    2.800    0.800 
#    0.000    1.000    0.000    2.400    0.000    0.000 
#    0.000    0.000    0.000    0.000    0.000    0.000 
#
# Total GULP energy -111380.671818 kJ/mol
# GULP energy per Si atom -5569.033591 kJ/mol
# Density = 2.070141 g / cm^3
# Si number density = 20.748633 Si / 1000 Ang^3
#
#
#
# Elastic Constant Matrix: (Units=GPa)
#
#
# Indices 1 2 3 4 5 6 
#
# 1 59.4815 6.0939 16.8479 0.0000 10.0392 0.0000
# 2 6.0939 150.3477 12.8906 0.0000 -15.0207 0.0000
# 3 16.8479 12.8906 25.1708 0.0000 3.2734 0.0000
# 4 0.0000 0.0000 0.0000 14.3541 0.0000 -8.0962
# 5 10.0392 -15.0207 3.2734 0.0000 32.2832 0.0000
# 6 0.0000 0.0000 0.0000 -8.0962 0.0000 3.8599
#
#
#
# Elastic Compliance Matrix: (Units=1/GPa)
#
#
# Indices 1 2 3 4 5 6 
#
# 1 0.021620 -0.000253 -0.013632 0.000000 -0.005459 0.000000
# 2 -0.000253 0.007411 -0.004139 0.000000 0.003946 0.000000
# 3 -0.013632 -0.004139 0.051349 0.000000 -0.002893 0.000000
# 4 0.000000 0.000000 0.000000 -0.380554 0.000000 -0.798217
# 5 -0.005459 0.003946 -0.002893 0.000000 0.034803 0.000000
# 6 0.000000 0.000000 0.000000 -0.798217 0.000000 -1.415195
#
#
# Mechanical properties :
#
#
# Convention : Reuss Voigt Hill
#
# Bulk Modulus (GPa) = 22.55705 34.07386 28.31546
# Shear Modulus (GPa) = -3.06797 23.37729 10.15466
#
# Velocity S-wave (km/s) = -1.21731 3.36026 2.21467
# Velocity P-wave (km/s) = 2.98653 5.61365 4.49624
#
# Compressibility (1/GPa) = 0.04433203
#
# Stress axis : x y z
#
# Youngs Moduli (GPa) = 46.25265 134.94094 19.47456
#
# Poissons Ratio (x) = 0.03413 0.26548
# Poissons Ratio (y) = 0.01170 0.08061
# Poissons Ratio (z) = 0.63052 0.55853
#
# Static dielectric constant tensor:
#      x y z
#    x 1.767160 0.000000 0.004090 
#    y 0.000000 1.750090 0.000000 
#    z 0.004090 0.000000 1.736210 
# 
# From -- ./inp_files/143119.got.cif
#   From: 2010.05.17/outbox.cif.g08.bks.cpg/sg15_72_cif.got.tgz:143119.got - 2010.06.03 18:47:42.
