data_PCOD9293399
_publ_section_title
;
Structure prediction by ZEFSAII (Michael W. Deem and Ramdas Pophale) SiO2 
 PCOD9293399
Probable space group: C 2/C
;
_chemical_formula_sum "Si O2"
_cell_formula_units_Z 60
_cell_length_a 25.871654
_cell_length_b 15.904636
_cell_length_c 7.822500
_cell_angle_alpha 90.000000
_cell_angle_beta 130.831269
_cell_angle_gamma 90.000000
_cell_volume 2435.464730
_symmetry_space_group_name_H-M "C 2/C"
_symmetry_group_IT_number 15
_symmetry_cell_setting 'monoclinic'
loop_
_space_group_symop_operation_xyz
x,y,z
-x,y,1/2-z
-x,-y,-z
x,-y,1/2+z
1/2+x,1/2+y,z
1/2-x,1/2+y,1/2-z
1/2-x,1/2-y,-z
1/2+x,1/2-y,1/2+z
loop_
_atom_site_type_symbol
_atom_site_label
_atom_site_fract_x
_atom_site_fract_y
_atom_site_fract_z
Si Si1 0.409260 0.462419 0.301947
Si Si2 0.500000 0.633265 0.250000
Si Si3 0.645567 0.683339 0.645209
Si Si4 0.220176 0.668065 0.183305
Si Si5 0.657696 0.838406 0.890802
Si Si6 0.367857 0.375704 0.868171
Si Si7 0.987890 0.404756 0.023886
Si Si8 0.616132 0.818780 0.168155
O O1 0.521836 0.569986 0.451809
O O2 0.352646 0.412582 0.295410
O O3 0.384280 0.558124 0.253315
O O4 0.406571 0.420023 0.110688
O O5 0.568736 0.690503 0.398336
O O6 0.705913 0.729751 0.671760
O O7 0.646691 0.739317 0.821266
O O8 0.156964 0.648730 0.922643
O O9 0.212009 0.637183 0.361219
O O10 0.288507 0.635530 0.246041
O O11 0.588940 0.882130 0.682872
O O12 0.658005 0.850559 0.092966
O O13 0.389013 0.281694 0.866101
O O14 0.000000 0.390826 0.250000
O O15 0.040084 0.351674 0.022976
O O16 0.000000 0.500000 0.000000
#
# Coordination Sequence:
#
# PCOD9293399 Si02
#       8
#     8   4   8   8   8   8   8   8
#     4  10  24  44  70 104 157 194 258 330 380 453
#     4   8  18  42  68 104 132 202 252 308 396 434
#     4   8  19  42  71  99 142 198 245 320 376 441
#     4  10  24  45  74 104 152 197 264 307 377 474
#     4  10  22  45  72 111 148 202 247 324 381 454
#     4  12  26  50  67 119 150 212 263 312 396 462
#     4  12  25  48  75 113 158 188 253 322 389 461
#     4  12  24  46  78 109 147 210 261 315 387 466
#
# _framework density 24.635954000000002
#
# number of rings (size 3 to 8) (size 9 to 14) (size 15 to 20)
#    1.600    0.000    2.667    1.600    4.667    2.667 
#    9.600    0.000    0.000    0.000    0.000    0.000 
#    0.000    0.000    0.000    0.000    0.000    0.000 
#
# Total GULP energy -167468.176244 kJ/mol
# GULP energy per Si atom -5582.272541 kJ/mol
# Density = 2.457988 g / cm^3
# Si number density = 24.635954 Si / 1000 Ang^3
#
#
#
# Elastic Constant Matrix: (Units=GPa)
#
#
# Indices 1 2 3 4 5 6 
#
# 1 143.0232 42.0790 26.6597 0.0000 6.5538 0.0000
# 2 42.0790 61.8558 2.1534 0.0000 20.0217 0.0000
# 3 26.6597 2.1534 87.8727 0.0000 -12.7216 0.0000
# 4 0.0000 0.0000 0.0000 8.0806 0.0000 -10.4950
# 5 6.5538 20.0217 -12.7216 0.0000 54.2467 0.0000
# 6 0.0000 0.0000 0.0000 -10.4950 0.0000 31.8728
#
#
#
# Elastic Compliance Matrix: (Units=1/GPa)
#
#
# Indices 1 2 3 4 5 6 
#
# 1 0.009351 -0.006484 -0.002583 0.000000 0.000658 0.000000
# 2 -0.006484 0.023045 0.000295 0.000000 -0.007653 0.000000
# 3 -0.002583 0.000295 0.012614 0.000000 0.003162 0.000000
# 4 0.000000 0.000000 0.000000 0.216224 0.000000 0.071197
# 5 0.000658 -0.007653 0.003162 0.000000 0.021921 0.000000
# 6 0.000000 0.000000 0.000000 0.071197 0.000000 0.054818
#
#
# Mechanical properties :
#
#
# Convention : Reuss Voigt Hill
#
# Bulk Modulus (GPa) = 36.41035 48.28176 42.34606
# Shear Modulus (GPa) = 13.71094 33.63065 23.67080
#
# Velocity S-wave (km/s) = 2.36167 3.69874 3.10308
# Velocity P-wave (km/s) = 4.71679 6.15480 5.48314
#
# Compressibility (1/GPa) = 0.02746472
#
# Stress axis : x y z
#
# Youngs Moduli (GPa) = 106.94175 43.39424 79.27579
#
# Poissons Ratio (x) = 0.28138 0.20476
# Poissons Ratio (y) = 0.69343 -0.02335
# Poissons Ratio (z) = 0.27621 -0.01278
#
# Static dielectric constant tensor:
#      x y z
#    x 1.991250 0.000000 -0.025210 
#    y 0.000000 1.928100 0.000000 
#    z -0.025210 0.000000 2.018580 
# 
# From -- ./inp_files/67036.got.cif
#   From: 2010.05.17/outbox.cif.g08.bks.cpg/sg15_34_cif.got.tgz:67036.got - 2010.06.03 18:47:42.
