data_PCOD9293879
_publ_section_title
;
Structure prediction by ZEFSAII (Michael W. Deem and Ramdas Pophale) SiO2 
 PCOD9293879
Probable space group: C 2/C
;
_chemical_formula_sum "Si O2"
_cell_formula_units_Z 56
_cell_length_a 8.506870
_cell_length_b 11.265829
_cell_length_c 29.065407
_cell_angle_alpha 90.000000
_cell_angle_beta 107.148100
_cell_angle_gamma 90.000000
_cell_volume 2661.710890
_symmetry_space_group_name_H-M "C 2/C"
_symmetry_group_IT_number 15
_symmetry_cell_setting 'monoclinic'
loop_
_space_group_symop_operation_xyz
x,y,z
-x,y,1/2-z
-x,-y,-z
x,-y,1/2+z
1/2+x,1/2+y,z
1/2-x,1/2+y,1/2-z
1/2-x,1/2-y,-z
1/2+x,1/2-y,1/2+z
loop_
_atom_site_type_symbol
_atom_site_label
_atom_site_fract_x
_atom_site_fract_y
_atom_site_fract_z
Si Si1 0.837022 0.851205 0.316802
Si Si2 0.172228 0.494089 0.042501
Si Si3 0.927605 0.733900 0.911263
Si Si4 0.500000 0.789159 0.750000
Si Si5 0.107186 0.848016 0.497277
Si Si6 0.296400 0.254283 0.414689
Si Si7 0.000000 0.264794 0.250000
Si Si8 0.164329 0.876383 0.684776
O O1 0.829036 0.780989 0.364103
O O2 0.658513 0.840949 0.277140
O O3 0.877389 0.988120 0.329702
O O4 0.958501 0.791980 0.290494
O O5 0.159598 0.383792 0.076690
O O6 0.313070 0.465962 0.017035
O O7 0.199262 0.615319 0.072022
O O8 0.000000 0.500000 0.000000
O O9 0.115270 0.702342 0.913957
O O10 0.841977 0.793604 0.860423
O O11 0.925131 0.831167 0.951747
O O12 0.342132 0.866641 0.723731
O O13 0.250000 0.750000 0.500000
O O14 0.942129 0.814404 0.456189
O O15 0.960209 0.180731 0.289588
#
# Coordination Sequence:
#
# PCOD9293879 Si02
#       8
#     8   8   8   4   8   8   4   8
#     4  11  25  44  71 100 134 174 226 277 343 408
#     4  11  25  46  68  95 144 184 222 287 335 399
#     4  11  25  44  68 103 135 181 232 280 338 406
#     4  10  26  44  74  98 130 182 222 272 350 410
#     4  10  23  43  65  97 137 179 228 273 335 408
#     4  12  25  44  69 102 136 181 230 279 343 401
#     4  10  22  50  64  98 136 168 224 284 344 400
#     4  11  24  46  68 101 135 172 224 282 340 400
#
# _framework density 21.039099
#
# number of rings (size 3 to 8) (size 9 to 14) (size 15 to 20)
#    0.000    1.143    4.286    1.286    6.000    2.857 
#   10.286    0.000    0.000    0.000    0.000    0.000 
#    0.000    0.000    0.000    0.000    0.000    0.000 
#
# Total GULP energy -156627.435809 kJ/mol
# GULP energy per Si atom -5593.836993 kJ/mol
# Density = 2.099121 g / cm^3
# Si number density = 21.039099 Si / 1000 Ang^3
#
#
#
# Elastic Constant Matrix: (Units=GPa)
#
#
# Indices 1 2 3 4 5 6 
#
# 1 72.9198 8.4426 14.6771 0.0000 -15.4077 0.0000
# 2 8.4426 97.4747 28.0504 0.0000 -12.9094 0.0000
# 3 14.6771 28.0504 113.1305 0.0000 -28.0377 0.0000
# 4 0.0000 0.0000 0.0000 -1.7750 0.0000 25.1350
# 5 -15.4077 -12.9094 -28.0377 0.0000 42.5478 0.0000
# 6 0.0000 0.0000 0.0000 25.1350 0.0000 -3.5825
#
#
#
# Elastic Compliance Matrix: (Units=1/GPa)
#
#
# Indices 1 2 3 4 5 6 
#
# 1 0.014918 -0.000472 -0.000615 0.000000 0.004853 0.000000
# 2 -0.000472 0.011185 -0.002287 0.000000 0.001716 0.000000
# 3 -0.000615 -0.002287 0.011066 0.000000 0.006376 0.000000
# 4 0.000000 0.000000 0.000000 0.005728 0.000000 0.040190
# 5 0.004853 0.001716 0.006376 0.000000 0.029982 0.000000
# 6 0.000000 0.000000 0.000000 0.040190 0.000000 0.002838
#
#
# Mechanical properties :
#
#
# Convention : Reuss Voigt Hill
#
# Bulk Modulus (GPa) = 32.87285 42.87392 37.87339
# Shear Modulus (GPa) = 53.99145 22.92839 38.45992
#
# Velocity S-wave (km/s) = 5.07131 3.30479 4.28017
# Velocity P-wave (km/s) = 7.06749 5.91478 6.51667
#
# Compressibility (1/GPa) = 0.03042024
#
# Stress axis : x y z
#
# Youngs Moduli (GPa) = 67.03432 89.40305 90.36412
#
# Poissons Ratio (x) = 0.04222 0.05562
# Poissons Ratio (y) = 0.03165 0.20665
# Poissons Ratio (z) = 0.04126 0.20445
#
# Static dielectric constant tensor:
#      x y z
#    x 1.774980 0.000000 0.005730 
#    y 0.000000 1.750320 0.000000 
#    z 0.005730 0.000000 1.726640 
# 
# From -- ./inp_files/288105.got.cif
#   From: 2010.05.17/outbox.cif.g08.bks.cpg/sg15_145_cif.got.tgz:288105.got - 2010.06.03 18:47:42.
