data_PCOD9293412
_publ_section_title
;
Structure prediction by ZEFSAII (Michael W. Deem and Ramdas Pophale) SiO2 
 PCOD9293412
Probable space group: C 2/C
;
_chemical_formula_sum "Si O2"
_cell_formula_units_Z 36
_cell_length_a 19.646343
_cell_length_b 14.343690
_cell_length_c 14.414791
_cell_angle_alpha 90.000000
_cell_angle_beta 19.421092
_cell_angle_gamma 90.000000
_cell_volume 1350.683194
_symmetry_space_group_name_H-M "C 2/C"
_symmetry_group_IT_number 15
_symmetry_cell_setting 'monoclinic'
loop_
_space_group_symop_operation_xyz
x,y,z
-x,y,1/2-z
-x,-y,-z
x,-y,1/2+z
1/2+x,1/2+y,z
1/2-x,1/2+y,1/2-z
1/2-x,1/2-y,-z
1/2+x,1/2-y,1/2+z
loop_
_atom_site_type_symbol
_atom_site_label
_atom_site_fract_x
_atom_site_fract_y
_atom_site_fract_z
Si Si1 0.435761 0.684942 0.665360
Si Si2 0.500000 0.891993 0.750000
Si Si3 0.746837 0.156857 0.718992
Si Si4 0.500000 0.572362 0.750000
Si Si5 0.628586 0.045370 0.706327
Si Si6 0.500000 0.784075 0.250000
O O1 0.550574 0.782591 0.504529
O O2 0.405058 0.643717 0.600918
O O3 0.570102 0.633962 0.572213
O O4 0.201041 0.671763 0.002694
O O5 0.470965 0.967253 0.871337
O O6 0.660926 0.070295 0.771614
O O7 0.865625 0.221248 0.491126
O O8 0.662375 0.505284 0.588261
O O9 0.609979 0.142039 0.676283
#
# Coordination Sequence:
#
# PCOD9293412 Si02
#       6
#     8   4   8   4   8   4
#     4  11  27  47  75 106 144 198 247 294 369 435
#     4   9  24  51  69 102 153 196 234 309 358 429
#     4  12  25  44  75 114 142 193 245 300 361 444
#     4  10  25  49  73 105 150 192 238 310 363 429
#     4  10  22  45  73 100 151 191 233 301 368 420
#     4  11  23  46  70 109 153 180 236 311 357 426
#
# _framework density 26.653178
#
# number of rings (size 3 to 8) (size 9 to 14) (size 15 to 20)
#    0.000    1.333    2.222    1.333    3.111    8.000 
#    8.000    0.000    0.000    0.000    0.000    0.000 
#    0.000    0.000    0.000    0.000    0.000    0.000 
#
# Total GULP energy -100615.310287 kJ/mol
# GULP energy per Si atom -5589.739460 kJ/mol
# Density = 2.659251 g / cm^3
# Si number density = 26.653178 Si / 1000 Ang^3
#
#
#
# Elastic Constant Matrix: (Units=GPa)
#
#
# Indices 1 2 3 4 5 6 
#
# 1 204.7889 49.7923 2.4242 0.0028 12.0539 -0.0057
# 2 49.7923 124.5889 32.7905 -0.0013 3.4184 -0.0044
# 3 2.4242 32.7905 86.9392 0.0038 14.3984 -0.0072
# 4 0.0028 -0.0013 0.0038 37.1560 -0.0039 -0.7589
# 5 12.0539 3.4184 14.3984 -0.0039 46.2390 0.0030
# 6 -0.0057 -0.0044 -0.0072 -0.7589 0.0030 63.3805
#
#
#
# Elastic Compliance Matrix: (Units=1/GPa)
#
#
# Indices 1 2 3 4 5 6 
#
# 1 0.005560 -0.002450 0.001032 -0.000001 -0.001590 0.000001
# 2 -0.002450 0.009998 -0.003886 0.000001 0.001110 0.000000
# 3 0.001032 -0.003886 0.013640 -0.000002 -0.004229 0.000002
# 4 -0.000001 0.000001 -0.000002 0.026920 0.000003 0.000322
# 5 -0.001590 0.001110 -0.004229 0.000003 0.023276 -0.000002
# 6 0.000001 0.000000 0.000002 0.000322 -0.000002 0.015782
#
#
# Mechanical properties :
#
#
# Convention : Reuss Voigt Hill
#
# Bulk Modulus (GPa) = 53.79385 65.14790 59.47087
# Shear Modulus (GPa) = 44.65053 51.44242 48.04647
#
# Velocity S-wave (km/s) = 4.09741 4.39802 4.25037
# Velocity P-wave (km/s) = 6.52777 7.09126 6.81534
#
# Compressibility (1/GPa) = 0.01858949
#
# Stress axis : x y z
#
# Youngs Moduli (GPa) = 179.85017 100.01948 73.31520
#
# Poissons Ratio (x) = 0.24507 -0.07569
# Poissons Ratio (y) = 0.44068 0.28493
# Poissons Ratio (z) = -0.18568 0.38872
#
# Static dielectric constant tensor:
#      x y z
#    x 2.276680 -0.000010 -0.003220 
#    y -0.000010 2.034600 0.000000 
#    z -0.003220 0.000000 2.165440 
# 
# From -- ./inp_files/46893.got.cif
#   From: 2010.05.17/outbox.cif.g08.bks.cpg/sg15_24_cif.got.tgz:46893.got - 2010.06.03 18:47:42.
