data_PCOD9293904
_publ_section_title
;
Structure prediction by ZEFSAII (Michael W. Deem and Ramdas Pophale) SiO2 
 PCOD9293904
Probable space group: C 2/C
;
_chemical_formula_sum "Si O2"
_cell_formula_units_Z 56
_cell_length_a 22.455658
_cell_length_b 14.293633
_cell_length_c 25.550223
_cell_angle_alpha 90.000000
_cell_angle_beta 159.970492
_cell_angle_gamma 90.000000
_cell_volume 2808.851760
_symmetry_space_group_name_H-M "C 2/C"
_symmetry_group_IT_number 15
_symmetry_cell_setting 'monoclinic'
loop_
_space_group_symop_operation_xyz
x,y,z
-x,y,1/2-z
-x,-y,-z
x,-y,1/2+z
1/2+x,1/2+y,z
1/2-x,1/2+y,1/2-z
1/2-x,1/2-y,-z
1/2+x,1/2-y,1/2+z
loop_
_atom_site_type_symbol
_atom_site_label
_atom_site_fract_x
_atom_site_fract_y
_atom_site_fract_z
Si Si1 0.016831 0.870932 0.406035
Si Si2 0.525080 0.160334 0.593010
Si Si3 0.107312 0.957941 0.637123
Si Si4 0.656395 0.010355 0.339426
Si Si5 0.964650 0.550495 0.379091
Si Si6 0.801959 0.827765 0.415432
Si Si7 0.673147 0.788646 0.100527
O O1 0.176454 0.924324 0.509971
O O2 0.103438 0.811390 0.524240
O O3 0.881422 0.798640 0.268959
O O4 0.893453 0.955113 0.323988
O O5 0.681676 0.170347 0.764375
O O6 0.359476 0.222061 0.473977
O O7 0.598861 0.191091 0.597342
O O8 0.474552 0.051387 0.551094
O O9 0.294494 0.927379 0.773162
O O10 0.989156 0.875632 0.560781
O O11 0.000000 0.000000 0.500000
O O12 0.500000 0.023253 0.250000
O O13 0.593972 0.037597 0.229317
O O14 0.711800 0.900488 0.381028
O O15 0.098416 0.632123 0.500370
#
# Coordination Sequence:
#
# PCOD9293904 Si02
#       7
#     8   8   8   8   8   8   8
#     4  11  23  36  59  88 120 155 195 238 299 354
#     4  11  21  34  54  92 125 157 181 234 301 365
#     4  11  17  35  54  84 122 157 189 240 295 352
#     4  10  23  46  65  79 110 162 210 252 287 335
#     4  11  23  36  58  88 125 155 205 236 290 359
#     4  10  23  34  59  87 123 155 199 233 293 356
#     4  12  23  35  57  96 128 154 183 242 303 365
#
# _framework density 19.936972999999998
#
# number of rings (size 3 to 8) (size 9 to 14) (size 15 to 20)
#    0.000    1.143    5.714    3.000    4.000    1.143 
#    0.000    6.429    0.000    0.000    0.000    0.000 
#    0.000    0.000    0.000    0.000    0.000    0.000 
#
# Total GULP energy -156347.948935 kJ/mol
# GULP energy per Si atom -5583.855319 kJ/mol
# Density = 1.989160 g / cm^3
# Si number density = 19.936973 Si / 1000 Ang^3
#
#
#
# Elastic Constant Matrix: (Units=GPa)
#
#
# Indices 1 2 3 4 5 6 
#
# 1 61.3288 11.2373 32.3975 0.0103 28.3908 -0.0033
# 2 11.2373 82.8267 37.6083 0.0202 1.5275 0.0005
# 3 32.3975 37.6083 89.1836 0.0217 12.9587 -0.0016
# 4 0.0103 0.0202 0.0217 45.7939 -0.0042 2.0183
# 5 28.3908 1.5275 12.9587 -0.0042 20.5081 0.0000
# 6 -0.0033 0.0005 -0.0016 2.0183 0.0000 11.8538
#
#
#
# Elastic Compliance Matrix: (Units=1/GPa)
#
#
# Indices 1 2 3 4 5 6 
#
# 1 0.051696 -0.002018 -0.008315 -0.000014 -0.066162 0.000016
# 2 -0.002018 0.015199 -0.006516 -0.000003 0.005779 -0.000002
# 3 -0.008315 -0.006516 0.016779 -0.000003 0.001394 0.000001
# 4 -0.000014 -0.000003 -0.000003 0.022002 0.000025 -0.003746
# 5 -0.066162 0.005779 0.001394 0.000025 0.139043 -0.000023
# 6 0.000016 -0.000002 0.000001 -0.003746 -0.000023 0.084999
#
#
# Mechanical properties :
#
#
# Convention : Reuss Voigt Hill
#
# Bulk Modulus (GPa) = 20.00962 43.98058 31.99510
# Shear Modulus (GPa) = 13.15529 25.77090 19.46310
#
# Velocity S-wave (km/s) = 2.57153 3.59920 3.12786
# Velocity P-wave (km/s) = 4.34457 6.27535 5.39700
#
# Compressibility (1/GPa) = 0.04997596
#
# Stress axis : x y z
#
# Youngs Moduli (GPa) = 19.34376 65.79239 59.59979
#
# Poissons Ratio (x) = 0.13278 0.49556
# Poissons Ratio (y) = 0.03904 0.38836
# Poissons Ratio (z) = 0.16084 0.42871
#
# Static dielectric constant tensor:
#      x y z
#    x 1.681940 0.000000 -0.018230 
#    y 0.000000 1.819370 -0.000010 
#    z -0.018230 -0.000010 1.725850 
# 
# From -- ./inp_files/302317.got.cif
#   From: 2010.05.17/outbox.cif.g08.bks.cpg/sg15_152_cif.got.tgz:302317.got - 2010.06.03 18:47:42.
