data_PCOD9293554
_publ_section_title
;
Structure prediction by ZEFSAII (Michael W. Deem and Ramdas Pophale) SiO2 
 PCOD9293554
Probable space group: C 2/C
;
_chemical_formula_sum "Si O2"
_cell_formula_units_Z 36
_cell_length_a 11.476419
_cell_length_b 14.528750
_cell_length_c 13.619130
_cell_angle_alpha 90.000000
_cell_angle_beta 137.467435
_cell_angle_gamma 90.000000
_cell_volume 1535.099681
_symmetry_space_group_name_H-M "C 2/C"
_symmetry_group_IT_number 15
_symmetry_cell_setting 'monoclinic'
loop_
_space_group_symop_operation_xyz
x,y,z
-x,y,1/2-z
-x,-y,-z
x,-y,1/2+z
1/2+x,1/2+y,z
1/2-x,1/2+y,1/2-z
1/2-x,1/2-y,-z
1/2+x,1/2-y,1/2+z
loop_
_atom_site_type_symbol
_atom_site_label
_atom_site_fract_x
_atom_site_fract_y
_atom_site_fract_z
Si Si1 0.772089 0.420301 0.304367
Si Si2 0.767121 0.279096 0.735424
Si Si3 0.333555 0.049861 0.513423
Si Si4 0.500000 0.903903 0.750000
Si Si5 0.113459 0.154481 0.525339
O O1 0.740738 0.318287 0.328694
O O2 0.750943 0.503227 0.366318
O O3 0.649161 0.421110 0.133233
O O4 0.971036 0.420302 0.391662
O O5 0.909327 0.343080 0.776158
O O6 0.813016 0.245034 0.873215
O O7 0.584131 0.327785 0.618624
O O8 0.362918 0.968119 0.610132
O O9 0.221913 0.125973 0.498324
#
# Coordination Sequence:
#
# PCOD9293554 Si02
#       5
#     8   8   8   4   8
#     4   9  22  43  67 103 136 188 225 285 347 424
#     4  10  24  41  72 101 142 173 245 278 364 398
#     4  11  21  44  72  93 149 185 230 283 359 401
#     4  12  22  42  72  96 136 194 220 308 328 428
#     4  10  22  46  68 108 135 184 231 292 337 434
#
# _framework density 23.451246000000001
#
# number of rings (size 3 to 8) (size 9 to 14) (size 15 to 20)
#    1.333    0.444    2.222    1.333    0.000    5.333 
#    0.000    0.000   14.667    0.000    0.000    0.000 
#    0.000    0.000    0.000    0.000    0.000    0.000 
#
# Total GULP energy -100682.787198 kJ/mol
# GULP energy per Si atom -5593.488178 kJ/mol
# Density = 2.339787 g / cm^3
# Si number density = 23.451246 Si / 1000 Ang^3
#
#
#
# Elastic Constant Matrix: (Units=GPa)
#
#
# Indices 1 2 3 4 5 6 
#
# 1 123.1073 62.8370 70.2359 0.0001 -4.5262 0.0000
# 2 62.8370 85.0224 49.9537 0.0001 3.2750 0.0000
# 3 70.2359 49.9537 87.7702 0.0001 -0.4609 0.0001
# 4 0.0001 0.0001 0.0001 39.7561 0.0001 -11.4615
# 5 -4.5262 3.2750 -0.4609 0.0001 25.6700 0.0001
# 6 0.0000 0.0000 0.0001 -11.4615 0.0001 62.8448
#
#
#
# Elastic Compliance Matrix: (Units=1/GPa)
#
#
# Indices 1 2 3 4 5 6 
#
# 1 0.017718 -0.007401 -0.009946 0.000000 0.003890 0.000000
# 2 -0.007401 0.020916 -0.006003 0.000000 -0.004081 0.000000
# 3 -0.009946 -0.006003 0.022766 0.000000 -0.000579 0.000000
# 4 0.000000 0.000000 0.000000 0.026549 0.000000 0.004842
# 5 0.003890 -0.004081 -0.000579 0.000000 0.040152 0.000000
# 6 0.000000 0.000000 0.000000 0.004842 0.000000 0.016795
#
#
# Mechanical properties :
#
#
# Convention : Reuss Voigt Hill
#
# Bulk Modulus (GPa) = 68.02741 73.55034 70.78887
# Shear Modulus (GPa) = 25.44596 33.17907 29.31252
#
# Velocity S-wave (km/s) = 3.29760 3.76548 3.53928
# Velocity P-wave (km/s) = 6.60075 7.09481 6.85223
#
# Compressibility (1/GPa) = 0.01469996
#
# Stress axis : x y z
#
# Youngs Moduli (GPa) = 56.43983 47.81132 43.92607
#
# Poissons Ratio (x) = 0.35386 0.43687
# Poissons Ratio (y) = 0.41772 0.26368
# Poissons Ratio (z) = 0.56133 0.28700
#
# Static dielectric constant tensor:
#      x y z
#    x 1.839280 0.000000 -0.043720 
#    y 0.000000 1.940660 0.000000 
#    z -0.043720 0.000000 1.875990 
# 
# From -- ./inp_files/144451.got.cif
#   From: 2010.05.17/outbox.cif.g08.bks.cpg/sg15_73_cif.got.tgz:144451.got - 2010.06.03 18:47:42.
