data_PCOD9293881
_publ_section_title
;
Structure prediction by ZEFSAII (Michael W. Deem and Ramdas Pophale) SiO2 
 PCOD9293881
Probable space group: C 2/C
;
_chemical_formula_sum "Si O2"
_cell_formula_units_Z 48
_cell_length_a 8.966045
_cell_length_b 11.749414
_cell_length_c 24.028473
_cell_angle_alpha 90.000000
_cell_angle_beta 60.848803
_cell_angle_gamma 90.000000
_cell_volume 2210.677066
_symmetry_space_group_name_H-M "C 2/C"
_symmetry_group_IT_number 15
_symmetry_cell_setting 'monoclinic'
loop_
_space_group_symop_operation_xyz
x,y,z
-x,y,1/2-z
-x,-y,-z
x,-y,1/2+z
1/2+x,1/2+y,z
1/2-x,1/2+y,1/2-z
1/2-x,1/2-y,-z
1/2+x,1/2-y,1/2+z
loop_
_atom_site_type_symbol
_atom_site_label
_atom_site_fract_x
_atom_site_fract_y
_atom_site_fract_z
Si Si1 0.995440 0.149040 0.422842
Si Si2 0.553805 0.713918 0.538637
Si Si3 0.859416 0.626822 0.656752
Si Si4 0.500000 0.099199 0.750000
Si Si5 0.625535 0.441455 0.343280
Si Si6 0.500000 0.390118 0.250000
Si Si7 0.643206 0.940167 0.936314
O O1 0.006448 0.161549 0.487157
O O2 0.025437 0.272732 0.389671
O O3 0.813417 0.096927 0.437985
O O4 0.137276 0.061806 0.372880
O O5 0.750000 0.750000 0.500000
O O6 0.509759 0.629328 0.596244
O O7 0.441086 0.824715 0.569467
O O8 0.671679 0.678149 0.704476
O O9 0.826486 0.528464 0.618404
O O10 0.938651 0.570364 0.697708
O O11 0.697083 0.127688 0.694471
O O12 0.554241 0.461531 0.294233
O O13 0.500000 0.000000 0.000000
#
# Coordination Sequence:
#
# PCOD9293881 Si02
#       7
#     8   8   8   4   8   4   8
#     4  12  25  45  75 101 143 185 240 302 369 441
#     4  12  26  44  71 111 142 186 234 311 374 432
#     4  11  24  47  71 103 138 188 244 297 366 431
#     4  10  26  44  66 100 140 186 242 296 348 438
#     4  11  24  45  68 102 142 185 241 293 363 434
#     4  10  22  50  66  96 144 190 242 290 356 442
#     4  12  25  45  73  99 142 184 239 294 365 440
#
# _framework density 21.712806
#
# number of rings (size 3 to 8) (size 9 to 14) (size 15 to 20)
#    0.000    0.667    3.333    4.000    4.667    1.333 
#   12.000    0.000    0.000    0.000    0.000    0.000 
#    0.000    0.000    0.000    0.000    0.000    0.000 
#
# Total GULP energy -133698.711209 kJ/mol
# GULP energy per Si atom -5570.779634 kJ/mol
# Density = 2.166339 g / cm^3
# Si number density = 21.712806 Si / 1000 Ang^3
#
#
#
# Elastic Constant Matrix: (Units=GPa)
#
#
# Indices 1 2 3 4 5 6 
#
# 1 153.7235 27.4434 67.8042 0.0000 -2.8134 0.0000
# 2 27.4434 91.6306 41.2677 0.0000 8.8675 0.0000
# 3 67.8042 41.2677 139.9103 0.0000 11.5728 0.0000
# 4 0.0000 0.0000 0.0000 1.5725 0.0000 -0.5145
# 5 -2.8134 8.8675 11.5728 0.0000 41.9564 0.0000
# 6 0.0000 0.0000 0.0000 -0.5145 0.0000 32.1824
#
#
#
# Elastic Compliance Matrix: (Units=1/GPa)
#
#
# Indices 1 2 3 4 5 6 
#
# 1 0.008460 -0.000920 -0.003982 0.000000 0.001860 0.000000
# 2 -0.000920 0.012801 -0.003173 0.000000 -0.001892 0.000000
# 3 -0.003982 -0.003173 0.010213 0.000000 -0.002413 0.000000
# 4 0.000000 0.000000 0.000000 0.639286 0.000000 0.010220
# 5 0.001860 -0.001892 -0.002413 0.000000 0.025025 0.000000
# 6 0.000000 0.000000 0.000000 0.010220 0.000000 0.031236
#
#
# Mechanical properties :
#
#
# Convention : Reuss Voigt Hill
#
# Bulk Modulus (GPa) = 65.26415 73.14387 69.20401
# Shear Modulus (GPa) = 6.68199 31.72553 19.20376
#
# Velocity S-wave (km/s) = 1.75617 3.82664 2.97719
# Velocity P-wave (km/s) = 5.85110 7.29961 6.61512
#
# Compressibility (1/GPa) = 0.01532235
#
# Stress axis : x y z
#
# Youngs Moduli (GPa) = 118.20216 78.11713 97.91390
#
# Poissons Ratio (x) = 0.07189 0.38993
# Poissons Ratio (y) = 0.10878 0.31072
# Poissons Ratio (z) = 0.47073 0.24789
#
# Static dielectric constant tensor:
#      x y z
#    x 1.939890 0.000000 -0.048810 
#    y 0.000000 1.877500 0.000000 
#    z -0.048810 0.000000 1.802250 
# 
# From -- ./inp_files/263512.got.cif
#   From: 2010.05.17/outbox.cif.g08.bks.cpg/sg15_132_cif.got.tgz:263512.got - 2010.06.03 18:47:42.
