data_PCOD9293699
_publ_section_title
;
Structure prediction by ZEFSAII (Michael W. Deem and Ramdas Pophale) SiO2 
 PCOD9293699
Probable space group: C 2/C
;
_chemical_formula_sum "Si O2"
_cell_formula_units_Z 40
_cell_length_a 29.386062
_cell_length_b 5.675267
_cell_length_c 10.345764
_cell_angle_alpha 90.000000
_cell_angle_beta 116.083023
_cell_angle_gamma 90.000000
_cell_volume 1549.683278
_symmetry_space_group_name_H-M "C 2/C"
_symmetry_group_IT_number 15
_symmetry_cell_setting 'monoclinic'
loop_
_space_group_symop_operation_xyz
x,y,z
-x,y,1/2-z
-x,-y,-z
x,-y,1/2+z
1/2+x,1/2+y,z
1/2-x,1/2+y,1/2-z
1/2-x,1/2-y,-z
1/2+x,1/2-y,1/2+z
loop_
_atom_site_type_symbol
_atom_site_label
_atom_site_fract_x
_atom_site_fract_y
_atom_site_fract_z
Si Si1 0.330221 0.944322 0.366425
Si Si2 0.058128 0.998358 0.869898
Si Si3 0.273031 0.586609 0.140516
Si Si4 0.644015 0.251745 0.335260
Si Si5 0.535672 0.989825 0.921527
O O1 0.273303 0.039050 0.321304
O O2 0.359473 0.100654 0.298697
O O3 0.318358 0.697659 0.282014
O O4 0.352933 0.919367 0.537119
O O5 0.099208 0.063791 0.810670
O O6 0.061941 0.231789 0.964699
O O7 0.000000 0.993720 0.750000
O O8 0.064106 0.740088 0.938071
O O9 0.301182 0.373725 0.104730
O O10 0.250000 0.750000 0.000000
O O11 0.500000 0.973876 0.750000
O O12 0.500000 0.000000 0.000000
#
# Coordination Sequence:
#
# PCOD9293699 Si02
#       5
#     8   8   8   8   8
#     4  12  25  46  73 110 151 199 255 330 397 474
#     4  10  25  49  76 110 153 206 259 323 382 462
#     4  12  24  46  73 107 153 195 256 321 399 473
#     4  12  28  45  76 113 152 204 260 322 397 478
#     4  10  22  46  74 104 143 196 254 317 381 449
#
# _framework density 25.811724999999999
#
# number of rings (size 3 to 8) (size 9 to 14) (size 15 to 20)
#    0.000    0.800    4.000    2.400    2.800    3.200 
#   10.800    0.000    0.000    0.000    0.000    0.000 
#    0.000    0.000    0.000    0.000    0.000    0.000 
#
# Total GULP energy -111885.574915 kJ/mol
# GULP energy per Si atom -5594.278746 kJ/mol
# Density = 2.575298 g / cm^3
# Si number density = 25.811725 Si / 1000 Ang^3
#
#
#
# Elastic Constant Matrix: (Units=GPa)
#
#
# Indices 1 2 3 4 5 6 
#
# 1 162.8028 64.2946 72.3933 0.0000 -22.0271 0.0000
# 2 64.2946 185.0989 55.2359 0.0000 -19.4228 0.0000
# 3 72.3933 55.2359 144.1550 0.0000 -26.0407 0.0000
# 4 0.0000 0.0000 0.0000 37.4194 0.0000 -1.7246
# 5 -22.0271 -19.4228 -26.0407 0.0000 47.5883 0.0000
# 6 0.0000 0.0000 0.0000 -1.7246 0.0000 74.7304
#
#
#
# Elastic Compliance Matrix: (Units=1/GPa)
#
#
# Indices 1 2 3 4 5 6 
#
# 1 0.008533 -0.001823 -0.003337 0.000000 0.001379 0.000000
# 2 -0.001823 0.006568 -0.001408 0.000000 0.001066 0.000000
# 3 -0.003337 -0.001408 0.009732 0.000000 0.003206 0.000000
# 4 0.000000 0.000000 0.000000 0.026753 0.000000 0.000617
# 5 0.001379 0.001066 0.003206 0.000000 0.023841 0.000000
# 6 0.000000 0.000000 0.000000 0.000617 0.000000 0.013396
#
#
# Mechanical properties :
#
#
# Convention : Reuss Voigt Hill
#
# Bulk Modulus (GPa) = 85.51060 97.32270 91.41665
# Shear Modulus (GPa) = 47.23262 51.95649 49.59456
#
# Velocity S-wave (km/s) = 4.28236 4.49141 4.38813
# Velocity P-wave (km/s) = 7.59289 8.04262 7.82099
#
# Compressibility (1/GPa) = 0.01169446
#
# Stress axis : x y z
#
# Youngs Moduli (GPa) = 117.18984 152.25302 102.75613
#
# Poissons Ratio (x) = 0.27761 0.34295
# Poissons Ratio (y) = 0.21368 0.14473
# Poissons Ratio (z) = 0.39112 0.21444
#
# Static dielectric constant tensor:
#      x y z
#    x 2.079290 0.000000 0.064980 
#    y 0.000000 2.106970 0.000000 
#    z 0.064980 0.000000 2.014970 
# 
# From -- ./inp_files/125094.got.cif
#   From: 2010.05.17/outbox.cif.g08.bks.cpg/sg15_63_cif.got.tgz:125094.got - 2010.06.03 18:47:42.
