data_PCOD9293244
_publ_section_title
;
Structure prediction by ZEFSAII (Michael W. Deem and Ramdas Pophale) SiO2 
 PCOD9293244
Probable space group: C 2/C
;
_chemical_formula_sum "Si O2"
_cell_formula_units_Z 60
_cell_length_a 16.646580
_cell_length_b 11.763656
_cell_length_c 21.264274
_cell_angle_alpha 90.000000
_cell_angle_beta 138.537616
_cell_angle_gamma 90.000000
_cell_volume 2757.147384
_symmetry_space_group_name_H-M "C 2/C"
_symmetry_group_IT_number 15
_symmetry_cell_setting 'monoclinic'
loop_
_space_group_symop_operation_xyz
x,y,z
-x,y,1/2-z
-x,-y,-z
x,-y,1/2+z
1/2+x,1/2+y,z
1/2-x,1/2+y,1/2-z
1/2-x,1/2-y,-z
1/2+x,1/2-y,1/2+z
loop_
_atom_site_type_symbol
_atom_site_label
_atom_site_fract_x
_atom_site_fract_y
_atom_site_fract_z
Si Si1 0.590080 0.121328 0.592528
Si Si2 0.175573 0.377516 0.892809
Si Si3 0.000000 0.997814 0.250000
Si Si4 0.366579 0.865482 0.888648
Si Si5 0.184072 0.180395 0.373969
Si Si6 0.828619 0.732010 0.244230
Si Si7 0.895560 0.387528 0.092063
Si Si8 0.424327 0.335857 0.094257
O O1 0.502797 0.169397 0.486666
O O2 0.704146 0.200693 0.668857
O O3 0.506008 0.111915 0.606275
O O4 0.634153 0.998563 0.593511
O O5 0.144120 0.321960 0.807372
O O6 0.115980 0.497931 0.874344
O O7 0.125929 0.286991 0.914157
O O8 0.322412 0.383699 0.987414
O O9 0.895904 0.086215 0.208371
O O10 0.935832 0.920159 0.160601
O O11 0.279123 0.782911 0.876520
O O12 0.327135 0.866740 0.794084
O O13 0.108268 0.278420 0.363978
O O14 0.271656 0.124880 0.478264
O O15 0.933590 0.813559 0.334093
#
# Coordination Sequence:
#
# PCOD9293244 Si02
#       8
#     8   8   4   8   8   8   8   8
#     4  10  23  43  68  91 132 176 214 270 325 396
#     4  11  23  41  69  97 135 172 216 285 326 375
#     4  12  20  40  64  94 122 174 212 268 308 408
#     4  10  23  42  64  92 128 176 219 257 326 405
#     4  10  23  40  68  90 127 172 224 265 318 396
#     4  12  23  40  62 102 132 167 214 274 334 384
#     4  10  22  45  66  96 128 170 222 272 329 380
#     4  11  23  39  66 100 131 171 224 268 328 393
#
# _framework density 21.761621999999999
#
# number of rings (size 3 to 8) (size 9 to 14) (size 15 to 20)
#    0.000    1.333    2.667    2.400    1.867    3.200 
#    2.400    0.000    0.000    5.600    0.000    0.000 
#    0.000    0.000    0.000    0.000    0.000    0.000 
#
# Total GULP energy -167382.410202 kJ/mol
# GULP energy per Si atom -5579.413673 kJ/mol
# Density = 2.171209 g / cm^3
# Si number density = 21.761622 Si / 1000 Ang^3
#
#
#
# Elastic Constant Matrix: (Units=GPa)
#
#
# Indices 1 2 3 4 5 6 
#
# 1 85.0161 33.9896 28.7067 0.0000 2.1117 0.0000
# 2 33.9896 79.7109 15.2683 0.0000 9.9912 0.0000
# 3 28.7067 15.2683 93.9230 0.0000 17.7044 0.0000
# 4 0.0000 0.0000 0.0000 22.0853 0.0000 4.3562
# 5 2.1117 9.9912 17.7044 0.0000 31.5440 0.0000
# 6 0.0000 0.0000 0.0000 4.3562 0.0000 24.0740
#
#
#
# Elastic Compliance Matrix: (Units=1/GPa)
#
#
# Indices 1 2 3 4 5 6 
#
# 1 0.015674 -0.006265 -0.004415 0.000000 0.003413 0.000000
# 2 -0.006265 0.015761 0.000240 0.000000 -0.004707 0.000000
# 3 -0.004415 0.000240 0.013326 0.000000 -0.007260 0.000000
# 4 0.000000 0.000000 0.000000 0.046955 0.000000 -0.008497
# 5 0.003413 -0.004707 -0.007260 0.000000 0.037039 0.000000
# 6 0.000000 0.000000 0.000000 -0.008497 0.000000 0.043076
#
#
# Mechanical properties :
#
#
# Convention : Reuss Voigt Hill
#
# Bulk Modulus (GPa) = 41.87737 46.06436 43.97086
# Shear Modulus (GPa) = 24.91635 27.58635 26.25135
#
# Velocity S-wave (km/s) = 3.38741 3.56428 3.47697
# Velocity P-wave (km/s) = 5.88089 6.17677 6.03064
#
# Compressibility (1/GPa) = 0.02387924
#
# Stress axis : x y z
#
# Youngs Moduli (GPa) = 63.80173 63.44755 75.04156
#
# Poissons Ratio (x) = 0.39753 0.33134
# Poissons Ratio (y) = 0.39975 -0.01802
# Poissons Ratio (z) = 0.28171 -0.01524
#
# Static dielectric constant tensor:
#      x y z
#    x 1.875760 0.000000 -0.002750 
#    y 0.000000 1.789480 0.000000 
#    z -0.002750 0.000000 1.860130 
# 
# From -- ./inp_files/248796.got.cif
#   From: 2010.05.17/outbox.cif.g08.bks.cpg/sg15_125_cif.got.tgz:248796.got - 2010.06.03 18:47:42.
