data_PCOD9293617
_publ_section_title
;
Structure prediction by ZEFSAII (Michael W. Deem and Ramdas Pophale) SiO2 
 PCOD9293617
Probable space group: C 2/C
;
_chemical_formula_sum "Si O2"
_cell_formula_units_Z 36
_cell_length_a 26.324309
_cell_length_b 5.562899
_cell_length_c 25.965384
_cell_angle_alpha 90.000000
_cell_angle_beta 157.698840
_cell_angle_gamma 90.000000
_cell_volume 1442.899057
_symmetry_space_group_name_H-M "C 2/C"
_symmetry_group_IT_number 15
_symmetry_cell_setting 'monoclinic'
loop_
_space_group_symop_operation_xyz
x,y,z
-x,y,1/2-z
-x,-y,-z
x,-y,1/2+z
1/2+x,1/2+y,z
1/2-x,1/2+y,1/2-z
1/2-x,1/2-y,-z
1/2+x,1/2-y,1/2+z
loop_
_atom_site_type_symbol
_atom_site_label
_atom_site_fract_x
_atom_site_fract_y
_atom_site_fract_z
Si Si1 0.630028 0.604809 0.593333
Si Si2 0.000000 0.681772 0.250000
Si Si3 0.777495 0.385852 0.336445
Si Si4 0.401307 0.498058 0.743533
Si Si5 0.160660 0.304787 0.465505
O O1 0.500000 0.500000 0.500000
O O2 0.744427 0.631624 0.744804
O O3 0.625796 0.878442 0.567510
O O4 0.668524 0.373936 0.594954
O O5 0.922952 0.531884 0.133979
O O6 0.898218 0.830952 0.190266
O O7 0.638688 0.409381 0.237988
O O8 0.274034 0.327202 0.614536
O O9 0.545451 0.378600 0.873846
O O10 0.250000 0.250000 0.500000
#
# Coordination Sequence:
#
# PCOD9293617 Si02
#       5
#     8   4   8   8   8
#     4  10  22  46  70  96 141 173 229 289 354 412
#     4  12  24  44  70  96 142 180 238 284 354 412
#     4  10  25  42  68 105 131 181 231 285 352 419
#     4  12  27  42  71 102 138 188 235 289 354 424
#     4  12  24  46  65  96 143 182 234 292 349 415
#
# _framework density 24.949770000000001
#
# number of rings (size 3 to 8) (size 9 to 14) (size 15 to 20)
#    0.000    0.889    4.444    1.333    6.222    1.778 
#    0.000    0.000    0.000    0.000    0.000    0.000 
#    0.000    0.000    0.000    0.000    0.000    0.000 
#
# Total GULP energy -100361.831732 kJ/mol
# GULP energy per Si atom -5575.657318 kJ/mol
# Density = 2.489298 g / cm^3
# Si number density = 24.949770 Si / 1000 Ang^3
#
#
#
# Elastic Constant Matrix: (Units=GPa)
#
#
# Indices 1 2 3 4 5 6 
#
# 1 91.1732 26.1064 2.7735 0.0004 25.4437 -0.0005
# 2 26.1064 131.0552 9.2605 -0.0025 13.8432 -0.0039
# 3 2.7735 9.2605 82.1354 -0.0031 20.2779 -0.0011
# 4 0.0004 -0.0025 -0.0031 13.0750 0.0005 -14.0296
# 5 25.4437 13.8432 20.2779 0.0005 37.8224 -0.0008
# 6 -0.0005 -0.0039 -0.0011 -14.0296 -0.0008 -7.3605
#
#
#
# Elastic Compliance Matrix: (Units=1/GPa)
#
#
# Indices 1 2 3 4 5 6 
#
# 1 0.014268 -0.001934 0.002226 0.000000 -0.010084 0.000000
# 2 -0.001934 0.008202 -0.000507 -0.000001 -0.001429 -0.000002
# 3 0.002226 -0.000507 0.014385 0.000001 -0.009024 -0.000003
# 4 0.000000 -0.000001 0.000001 0.025115 -0.000002 -0.047872
# 5 -0.010084 -0.001429 -0.009024 -0.000002 0.038584 0.000002
# 6 0.000000 -0.000002 -0.000003 -0.047872 0.000002 -0.044614
#
#
# Mechanical properties :
#
#
# Convention : Reuss Voigt Hill
#
# Bulk Modulus (GPa) = 27.45336 42.29385 34.87361
# Shear Modulus (GPa) = 72.97839 26.45561 49.71700
#
# Velocity S-wave (km/s) = 5.41421 3.25984 4.46879
# Velocity P-wave (km/s) = 7.07900 5.58186 6.37453
#
# Compressibility (1/GPa) = 0.03642541
#
# Stress axis : x y z
#
# Youngs Moduli (GPa) = 70.08471 121.91440 69.51733
#
# Poissons Ratio (x) = 0.23583 -0.15474
# Poissons Ratio (y) = 0.13557 0.03522
# Poissons Ratio (z) = -0.15600 0.06177
#
# Static dielectric constant tensor:
#      x y z
#    x 1.971390 0.000000 0.045230 
#    y 0.000000 2.284030 -0.000020 
#    z 0.045230 -0.000020 1.744040 
# 
# From -- ./inp_files/115667.got.cif
#   From: 2010.05.17/outbox.cif.g08.bks.cpg/sg15_58_cif.got.tgz:115667.got - 2010.06.03 18:47:42.
