data_PCOD9293052
_publ_section_title
;
Structure prediction by ZEFSAII (Michael W. Deem and Ramdas Pophale) SiO2 
 PCOD9293052
Probable space group: C 2/C
;
_chemical_formula_sum "Si O2"
_cell_formula_units_Z 44
_cell_length_a 24.619728
_cell_length_b 5.184182
_cell_length_c 15.349048
_cell_angle_alpha 90.000000
_cell_angle_beta 120.346087
_cell_angle_gamma 90.000000
_cell_volume 1690.637190
_symmetry_space_group_name_H-M "C 2/C"
_symmetry_group_IT_number 15
_symmetry_cell_setting 'monoclinic'
loop_
_space_group_symop_operation_xyz
x,y,z
-x,y,1/2-z
-x,-y,-z
x,-y,1/2+z
1/2+x,1/2+y,z
1/2-x,1/2+y,1/2-z
1/2-x,1/2-y,-z
1/2+x,1/2-y,1/2+z
loop_
_atom_site_type_symbol
_atom_site_label
_atom_site_fract_x
_atom_site_fract_y
_atom_site_fract_z
Si Si1 0.946746 0.282762 0.043854
Si Si2 0.913677 0.761531 0.919039
Si Si3 0.736636 0.859603 0.788250
Si Si4 0.621768 0.577800 0.768646
Si Si5 0.000000 0.939010 0.750000
Si Si6 0.788204 0.998938 0.504013
O O1 0.903676 0.517301 0.974748
O O2 0.958090 0.245615 0.155177
O O3 0.921607 0.016420 0.983719
O O4 0.018057 0.304208 0.066516
O O5 0.874519 0.857091 0.802949
O O6 0.666003 0.807263 0.767877
O O7 0.738432 0.074590 0.715117
O O8 0.784900 0.979632 0.897763
O O9 0.547346 0.609474 0.728557
O O10 0.651665 0.506656 0.885682
O O11 0.750000 0.250000 0.500000
O O12 0.750000 0.750000 0.500000
#
# Coordination Sequence:
#
# PCOD9293052 Si02
#       6
#     8   8   8   8   4   8
#     4   9  19  37  59  92 132 178 226 274 347 425
#     4   9  19  37  62  90 130 176 226 282 341 423
#     4  11  24  45  74 106 146 196 249 303 359 429
#     4  10  23  44  73 106 145 189 242 300 369 437
#     4  10  22  44  72 106 148 192 236 304 374 442
#     4  10  22  44  72 103 140 185 243 305 359 420
#
# _framework density 26.025689
#
# number of rings (size 3 to 8) (size 9 to 14) (size 15 to 20)
#    0.000    2.182    0.000    2.182    0.000    6.545 
#    0.000   16.364    0.000    1.091    0.000    0.000 
#    0.000    0.000    0.000    0.000    0.000    0.000 
#
# Total GULP energy -123006.868221 kJ/mol
# GULP energy per Si atom -5591.221283 kJ/mol
# Density = 2.596645 g / cm^3
# Si number density = 26.025689 Si / 1000 Ang^3
#
#
#
# Elastic Constant Matrix: (Units=GPa)
#
#
# Indices 1 2 3 4 5 6 
#
# 1 97.3702 -0.5158 15.4254 0.0000 5.1510 0.0000
# 2 -0.5158 69.7488 33.4944 0.0001 -11.8432 0.0000
# 3 15.4254 33.4944 178.5669 0.0000 -7.0803 0.0000
# 4 0.0000 0.0001 0.0000 22.5785 0.0000 1.1579
# 5 5.1510 -11.8432 -7.0803 0.0000 30.7697 0.0000
# 6 0.0000 0.0000 0.0000 1.1579 0.0000 21.5273
#
#
#
# Elastic Compliance Matrix: (Units=1/GPa)
#
#
# Indices 1 2 3 4 5 6 
#
# 1 0.010536 0.000250 -0.001033 0.000000 -0.001905 0.000000
# 2 0.000250 0.016717 -0.002931 0.000000 0.005718 0.000000
# 3 -0.001033 -0.002931 0.006258 0.000000 0.000485 0.000000
# 4 0.000000 0.000000 0.000000 0.044412 0.000000 -0.002389
# 5 -0.001905 0.005718 0.000485 0.000000 0.035131 0.000000
# 6 0.000000 0.000000 0.000000 -0.002389 0.000000 0.046581
#
#
# Mechanical properties :
#
#
# Convention : Reuss Voigt Hill
#
# Bulk Modulus (GPa) = 38.33542 49.16598 43.75070
# Shear Modulus (GPa) = 28.44841 34.79390 31.62116
#
# Velocity S-wave (km/s) = 3.30978 3.66034 3.48946
# Velocity P-wave (km/s) = 5.41922 6.06601 5.75171
#
# Compressibility (1/GPa) = 0.02608553
#
# Stress axis : x y z
#
# Youngs Moduli (GPa) = 94.91472 59.81832 159.78833
#
# Poissons Ratio (x) = -0.01497 0.16500
# Poissons Ratio (y) = -0.02376 0.46828
# Poissons Ratio (z) = 0.09801 0.17530
#
# Static dielectric constant tensor:
#      x y z
#    x 2.185170 0.000000 0.023180 
#    y 0.000000 1.905520 0.000000 
#    z 0.023180 0.000000 2.153350 
# 
# From -- ./inp_files/217860.got.cif
#   From: 2010.05.17/outbox.cif.g08.bks.cpg/sg15_109_cif.got.tgz:217860.got - 2010.06.03 18:47:42.
