data_PCOD9293475
_publ_section_title
;
Structure prediction by ZEFSAII (Michael W. Deem and Ramdas Pophale) SiO2 
 PCOD9293475
Probable space group: C 2/C
;
_chemical_formula_sum "Si O2"
_cell_formula_units_Z 48
_cell_length_a 20.656889
_cell_length_b 8.705272
_cell_length_c 27.920885
_cell_angle_alpha 90.000000
_cell_angle_beta 29.873614
_cell_angle_gamma 90.000000
_cell_volume 2500.822812
_symmetry_space_group_name_H-M "C 2/C"
_symmetry_group_IT_number 15
_symmetry_cell_setting 'monoclinic'
loop_
_space_group_symop_operation_xyz
x,y,z
-x,y,1/2-z
-x,-y,-z
x,-y,1/2+z
1/2+x,1/2+y,z
1/2-x,1/2+y,1/2-z
1/2-x,1/2-y,-z
1/2+x,1/2-y,1/2+z
loop_
_atom_site_type_symbol
_atom_site_label
_atom_site_fract_x
_atom_site_fract_y
_atom_site_fract_z
Si Si1 0.000000 0.494322 0.750000
Si Si2 0.044946 0.177463 0.971903
Si Si3 0.087480 0.316447 0.843321
Si Si4 0.352083 0.241136 0.783788
Si Si5 0.500000 0.488708 0.750000
Si Si6 0.366977 0.822870 0.167538
Si Si7 0.387737 0.247256 0.386694
O O1 0.068449 0.599595 0.745277
O O2 0.104897 0.385086 0.657926
O O3 0.024965 0.248985 0.931992
O O4 0.198875 0.202090 0.883235
O O5 0.963336 0.265635 0.064690
O O6 0.000000 0.000000 0.000000
O O7 0.220398 0.224054 0.748330
O O8 0.120175 0.495258 0.831549
O O9 0.993902 0.293365 0.858652
O O10 0.396971 0.384195 0.787217
O O11 0.390967 0.259799 0.703303
O O12 0.574081 0.596205 0.664584
O O13 0.250000 0.250000 0.500000
#
# Coordination Sequence:
#
# PCOD9293475 Si02
#       7
#     4   8   8   8   4   8   8
#     4  10  22  46  62  92 130 172 212 272 316 392
#     4  11  26  40  69 100 128 173 223 279 327 397
#     4  11  25  43  68  98 131 172 223 273 340 386
#     4  10  23  43  67  95 131 170 223 263 333 381
#     4  10  26  42  68  98 134 180 214 272 320 408
#     4  11  23  44  68  95 134 172 217 282 330 388
#     4  11  26  42  69  96 133 174 219 267 332 392
#
# _framework density 19.193683
#
# number of rings (size 3 to 8) (size 9 to 14) (size 15 to 20)
#    0.000    1.333    1.667    2.500   11.667    1.333 
#    0.000    3.333    0.000    0.000    0.000    0.000 
#    0.000    0.000    0.000    0.000    0.000    0.000 
#
# Total GULP energy -134151.731806 kJ/mol
# GULP energy per Si atom -5589.655492 kJ/mol
# Density = 1.915000 g / cm^3
# Si number density = 19.193683 Si / 1000 Ang^3
#
#
#
# Elastic Constant Matrix: (Units=GPa)
#
#
# Indices 1 2 3 4 5 6 
#
# 1 43.3075 17.9588 4.8029 0.0000 0.5383 0.0000
# 2 17.9588 127.5732 37.3560 0.0000 -0.1197 -0.0001
# 3 4.8029 37.3560 118.1781 -0.0001 18.8184 0.0000
# 4 0.0000 0.0000 -0.0001 15.7529 0.0000 5.7926
# 5 0.5383 -0.1197 18.8184 0.0000 20.3778 0.0001
# 6 0.0000 -0.0001 0.0000 5.7926 0.0001 28.4455
#
#
#
# Elastic Compliance Matrix: (Units=1/GPa)
#
#
# Indices 1 2 3 4 5 6 
#
# 1 0.024538 -0.003533 0.000265 0.000000 -0.000914 0.000000
# 2 -0.003533 0.009308 -0.003309 0.000000 0.003204 0.000000
# 3 0.000265 -0.003309 0.011139 0.000000 -0.010313 0.000000
# 4 0.000000 0.000000 0.000000 0.068619 0.000000 -0.013974
# 5 -0.000914 0.003204 -0.010313 0.000000 0.058640 0.000000
# 6 0.000000 0.000000 0.000000 -0.013974 0.000000 0.038001
#
#
# Mechanical properties :
#
#
# Convention : Reuss Voigt Hill
#
# Bulk Modulus (GPa) = 31.41530 45.47714 38.44622
# Shear Modulus (GPa) = 21.36686 28.17798 24.77242
#
# Velocity S-wave (km/s) = 3.34012 3.83572 3.59647
# Velocity P-wave (km/s) = 5.59270 6.58500 6.10903
#
# Compressibility (1/GPa) = 0.03183162
#
# Stress axis : x y z
#
# Youngs Moduli (GPa) = 40.75375 107.43668 89.77327
#
# Poissons Ratio (x) = 0.37954 -0.02378
# Poissons Ratio (y) = 0.14397 0.29704
# Poissons Ratio (z) = -0.01080 0.35548
#
# Static dielectric constant tensor:
#      x y z
#    x 1.654590 0.000000 0.012160 
#    y 0.000000 1.668680 0.000000 
#    z 0.012160 0.000000 1.626450 
# 
# From -- ./inp_files/165749.got.cif
#   From: 2010.05.17/outbox.cif.g08.bks.cpg/sg15_83_cif.got.tgz:165749.got - 2010.06.03 18:47:42.
