data_PCOD9293830
_publ_section_title
;
Structure prediction by ZEFSAII (Michael W. Deem and Ramdas Pophale) SiO2 
 PCOD9293830
Probable space group: C 2/C
;
_chemical_formula_sum "Si O2"
_cell_formula_units_Z 40
_cell_length_a 17.525186
_cell_length_b 21.676269
_cell_length_c 5.812445
_cell_angle_alpha 90.000000
_cell_angle_beta 131.763058
_cell_angle_gamma 90.000000
_cell_volume 1646.985936
_symmetry_space_group_name_H-M "C 2/C"
_symmetry_group_IT_number 15
_symmetry_cell_setting 'monoclinic'
loop_
_space_group_symop_operation_xyz
x,y,z
-x,y,1/2-z
-x,-y,-z
x,-y,1/2+z
1/2+x,1/2+y,z
1/2-x,1/2+y,1/2-z
1/2-x,1/2-y,-z
1/2+x,1/2-y,1/2+z
loop_
_atom_site_type_symbol
_atom_site_label
_atom_site_fract_x
_atom_site_fract_y
_atom_site_fract_z
Si Si1 0.156208 0.989097 0.658661
Si Si2 0.500000 0.660709 0.250000
Si Si3 0.115046 0.469479 0.841247
Si Si4 0.864516 0.244359 0.315597
Si Si5 0.112491 0.870777 0.373587
Si Si6 0.500000 0.145491 0.250000
O O1 0.182348 0.916688 0.659190
O O2 0.106431 0.005760 0.311399
O O3 0.261720 0.026627 0.896913
O O4 0.436287 0.704510 0.291380
O O5 0.587020 0.621464 0.555066
O O6 0.088375 0.504267 0.546750
O O7 0.068934 0.400846 0.736469
O O8 0.860613 0.200525 0.533146
O O9 0.920608 0.308964 0.466366
O O10 0.750000 0.250000 0.000000
O O11 0.000000 0.883779 0.250000
#
# Coordination Sequence:
#
# PCOD9293830 Si02
#       6
#     8   4   8   8   8   4
#     4  10  24  42  68 104 140 189 244 303 378 445
#     4  10  22  48  69 105 146 194 248 310 376 450
#     4  10  24  45  70 105 144 190 239 304 377 448
#     4  11  26  45  73 109 146 198 250 312 381 441
#     4  10  23  45  68 100 147 187 252 311 369 451
#     4  12  24  48  71 107 146 190 252 310 372 460
#
# _framework density 24.286787
#
# number of rings (size 3 to 8) (size 9 to 14) (size 15 to 20)
#    0.000    1.600    3.000    0.600   11.200    4.800 
#    3.600    0.000    0.000    0.000    0.000    0.000 
#    0.000    0.000    0.000    0.000    0.000    0.000 
#
# Total GULP energy -111544.073683 kJ/mol
# GULP energy per Si atom -5577.203684 kJ/mol
# Density = 2.423151 g / cm^3
# Si number density = 24.286787 Si / 1000 Ang^3
#
#
#
# Elastic Constant Matrix: (Units=GPa)
#
#
# Indices 1 2 3 4 5 6 
#
# 1 85.6949 39.2077 57.5070 0.0000 -5.8198 0.0000
# 2 39.2077 133.3796 65.3046 0.0000 0.9650 0.0000
# 3 57.5070 65.3046 190.3527 0.0000 -3.1692 0.0000
# 4 0.0000 0.0000 0.0000 40.7927 0.0000 -0.6602
# 5 -5.8198 0.9650 -3.1692 0.0000 59.3063 0.0000
# 6 0.0000 0.0000 0.0000 -0.6602 0.0000 35.6083
#
#
#
# Elastic Compliance Matrix: (Units=1/GPa)
#
#
# Indices 1 2 3 4 5 6 
#
# 1 0.015518 -0.002749 -0.003722 0.000000 0.001369 0.000000
# 2 -0.002749 0.009504 -0.002439 0.000000 -0.000555 0.000000
# 3 -0.003722 -0.002439 0.007216 0.000000 0.000060 0.000000
# 4 0.000000 0.000000 0.000000 0.024522 0.000000 0.000455
# 5 0.001369 -0.000555 0.000060 0.000000 0.017008 0.000000
# 6 0.000000 0.000000 0.000000 0.000455 0.000000 0.028092
#
#
# Mechanical properties :
#
#
# Convention : Reuss Voigt Hill
#
# Bulk Modulus (GPa) = 69.36482 81.49619 75.43050
# Shear Modulus (GPa) = 40.16545 43.63532 41.90038
#
# Velocity S-wave (km/s) = 4.07110 4.24331 4.15810
# Velocity P-wave (km/s) = 7.12188 7.59185 7.36062
#
# Compressibility (1/GPa) = 0.01441653
#
# Stress axis : x y z
#
# Youngs Moduli (GPa) = 64.44199 105.22134 138.58636
#
# Poissons Ratio (x) = 0.28926 0.51584
# Poissons Ratio (y) = 0.17715 0.33804
# Poissons Ratio (z) = 0.23986 0.25666
#
# Static dielectric constant tensor:
#      x y z
#    x 2.036840 0.000000 -0.041700 
#    y 0.000000 2.008630 0.000000 
#    z -0.041700 0.000000 2.029990 
# 
# From -- ./inp_files/13433.got.cif
#   From: 2010.05.17/outbox.cif.g08.bks.cpg/sg15_7_cif.got.tgz:13433.got - 2010.06.03 18:47:42.
