data_PCOD9293120
_publ_section_title
;
Structure prediction by ZEFSAII (Michael W. Deem and Ramdas Pophale) SiO2 
 PCOD9293120
Probable space group: C 2/C
;
_chemical_formula_sum "Si O2"
_cell_formula_units_Z 40
_cell_length_a 8.228780
_cell_length_b 23.186257
_cell_length_c 9.374381
_cell_angle_alpha 90.000000
_cell_angle_beta 90.845511
_cell_angle_gamma 90.000000
_cell_volume 1788.386603
_symmetry_space_group_name_H-M "C 2/C"
_symmetry_group_IT_number 15
_symmetry_cell_setting 'monoclinic'
loop_
_space_group_symop_operation_xyz
x,y,z
-x,y,1/2-z
-x,-y,-z
x,-y,1/2+z
1/2+x,1/2+y,z
1/2-x,1/2+y,1/2-z
1/2-x,1/2-y,-z
1/2+x,1/2-y,1/2+z
loop_
_atom_site_type_symbol
_atom_site_label
_atom_site_fract_x
_atom_site_fract_y
_atom_site_fract_z
Si Si1 0.250000 0.750000 0.500000
Si Si2 0.170606 0.042410 0.174479
Si Si3 0.323012 0.883056 0.450307
Si Si4 0.661948 0.880665 0.596050
Si Si5 0.000000 0.275957 0.750000
Si Si6 0.667011 0.405535 0.170138
O O1 0.287069 0.818629 0.501065
O O2 0.109191 0.758169 0.366281
O O3 0.297982 0.072539 0.282871
O O4 0.000000 0.053635 0.250000
O O5 0.184575 0.974407 0.153066
O O6 0.196282 0.073428 0.023631
O O7 0.501383 0.899060 0.508107
O O8 0.304887 0.885664 0.281726
O O9 0.622812 0.819416 0.667664
O O10 0.805888 0.877037 0.482708
O O11 0.500000 0.393263 0.250000
#
# Coordination Sequence:
#
# PCOD9293120 Si02
#       6
#     4   8   8   8   4   8
#     4  10  22  44  74 100 144 178 236 292 350 418
#     4  11  22  41  65  97 139 183 233 289 351 419
#     4  11  23  42  66 100 135 181 234 291 351 418
#     4  11  21  43  66  96 136 174 235 287 346 417
#     4  10  22  46  74 104 134 182 236 298 344 430
#     4  11  25  40  65 100 139 183 231 288 353 424
#
# _framework density 22.366527999999999
#
# number of rings (size 3 to 8) (size 9 to 14) (size 15 to 20)
#    0.000    1.200    4.000    3.000    1.400    8.000 
#    0.000    5.000    0.000    0.000    0.000    0.000 
#    0.000    0.000    0.000    0.000    0.000    0.000 
#
# Total GULP energy -111348.371780 kJ/mol
# GULP energy per Si atom -5567.418589 kJ/mol
# Density = 2.231562 g / cm^3
# Si number density = 22.366528 Si / 1000 Ang^3
#
#
#
# Elastic Constant Matrix: (Units=GPa)
#
#
# Indices 1 2 3 4 5 6 
#
# 1 82.5141 21.8337 22.9596 0.0000 15.4394 0.0000
# 2 21.8337 72.9095 10.9623 0.0000 -9.2278 0.0000
# 3 22.9596 10.9623 114.4089 0.0000 0.8887 0.0000
# 4 0.0000 0.0000 0.0000 19.4381 0.0000 11.6033
# 5 15.4394 -9.2278 0.8887 0.0000 50.4312 0.0000
# 6 0.0000 0.0000 0.0000 11.6033 0.0000 0.3845
#
#
#
# Elastic Compliance Matrix: (Units=1/GPa)
#
#
# Indices 1 2 3 4 5 6 
#
# 1 0.015128 -0.004843 -0.002529 0.000000 -0.005473 0.000000
# 2 -0.004843 0.015808 -0.000577 0.000000 0.004385 0.000000
# 3 -0.002529 -0.000577 0.009300 0.000000 0.000505 0.000000
# 4 0.000000 0.000000 0.000000 -0.003023 0.000000 0.091247
# 5 -0.005473 0.004385 0.000505 0.000000 0.022298 0.000000
# 6 0.000000 0.000000 0.000000 0.091247 0.000000 -0.152860
#
#
# Mechanical properties :
#
#
# Convention : Reuss Voigt Hill
#
# Bulk Modulus (GPa) = 41.08898 42.37154 41.73026
# Shear Modulus (GPa) = -72.10996 28.32255 -21.89371
#
# Velocity S-wave (km/s) = -5.68420 3.56236 -3.13207
# Velocity P-wave (km/s) = 4.96684 5.99215 2.37027
#
# Compressibility (1/GPa) = 0.02433743
#
# Stress axis : x y z
#
# Youngs Moduli (GPa) = 66.10045 63.26052 107.53223
#
# Poissons Ratio (x) = 0.30636 0.27200
# Poissons Ratio (y) = 0.32011 0.06203
# Poissons Ratio (z) = 0.16720 0.03649
#
# Static dielectric constant tensor:
#      x y z
#    x 1.899190 0.000000 0.011910 
#    y 0.000000 1.753430 0.000000 
#    z 0.011910 0.000000 1.860650 
# 
# From -- ./inp_files/23534.got.cif
#   From: 2010.05.17/outbox.cif.g08.bks.cpg/sg15_12_cif.got.tgz:23534.got - 2010.06.03 18:47:42.
