data_PCOD9293715
_publ_section_title
;
Structure prediction by ZEFSAII (Michael W. Deem and Ramdas Pophale) SiO2 
 PCOD9293715
Probable space group: C 2/C
;
_chemical_formula_sum "Si O2"
_cell_formula_units_Z 40
_cell_length_a 7.350088
_cell_length_b 24.890648
_cell_length_c 10.647682
_cell_angle_alpha 90.000000
_cell_angle_beta 47.554632
_cell_angle_gamma 90.000000
_cell_volume 1437.453456
_symmetry_space_group_name_H-M "C 2/C"
_symmetry_group_IT_number 15
_symmetry_cell_setting 'monoclinic'
loop_
_space_group_symop_operation_xyz
x,y,z
-x,y,1/2-z
-x,-y,-z
x,-y,1/2+z
1/2+x,1/2+y,z
1/2-x,1/2+y,1/2-z
1/2-x,1/2-y,-z
1/2+x,1/2-y,1/2+z
loop_
_atom_site_type_symbol
_atom_site_label
_atom_site_fract_x
_atom_site_fract_y
_atom_site_fract_z
Si Si1 0.760366 0.474051 0.049503
Si Si2 0.000000 0.708981 0.750000
Si Si3 0.000000 0.878169 0.750000
Si Si4 0.655820 0.358265 0.057230
Si Si5 0.099478 0.700814 0.412269
Si Si6 0.769820 0.930132 0.081157
O O1 0.500000 0.475587 0.250000
O O2 0.819598 0.411068 0.010600
O O3 0.730570 0.504747 0.929928
O O4 0.000000 0.500000 0.000000
O O5 0.047022 0.687013 0.585449
O O6 0.256286 0.742672 0.652102
O O7 0.185584 0.838941 0.736046
O O8 0.163752 0.916019 0.590451
O O9 0.500000 0.340858 0.250000
O O10 0.545574 0.389921 0.433440
O O11 0.853545 0.310686 0.947229
O O12 0.500000 0.915227 0.250000
#
# Coordination Sequence:
#
# PCOD9293715 Si02
#       6
#     8   4   4   8   8   8
#     4  11  23  45  70 106 153 210 271 316 383 455
#     4   9  22  46  88 100 154 196 248 332 404 469
#     4  11  24  42  76 110 146 206 260 304 384 461
#     4  11  25  42  71 113 152 201 257 315 385 467
#     4  10  22  46  75 115 143 197 254 316 402 470
#     4  12  25  46  75 104 157 212 258 320 373 448
#
# _framework density 27.826988
#
# number of rings (size 3 to 8) (size 9 to 14) (size 15 to 20)
#    0.000    1.200    1.000    5.400    4.200    0.800 
#    0.000    1.000    0.000    0.000    0.000    0.000 
#    0.000    0.000    0.000    0.000    0.000    0.000 
#
# Total GULP energy -111664.178077 kJ/mol
# GULP energy per Si atom -5583.208904 kJ/mol
# Density = 2.776365 g / cm^3
# Si number density = 27.826988 Si / 1000 Ang^3
#
#
#
# Elastic Constant Matrix: (Units=GPa)
#
#
# Indices 1 2 3 4 5 6 
#
# 1 165.3563 21.2626 39.4714 0.0000 -46.4343 0.0000
# 2 21.2626 75.7444 32.0543 0.0000 -12.2061 0.0000
# 3 39.4714 32.0543 138.1510 0.0000 -12.9988 0.0000
# 4 0.0000 0.0000 0.0000 41.7399 0.0000 -12.4492
# 5 -46.4343 -12.2061 -12.9988 0.0000 40.5279 0.0000
# 6 0.0000 0.0000 0.0000 -12.4492 0.0000 48.9793
#
#
#
# Elastic Compliance Matrix: (Units=1/GPa)
#
#
# Indices 1 2 3 4 5 6 
#
# 1 0.009296 -0.000297 -0.001643 0.000000 0.010034 0.000000
# 2 -0.000297 0.015125 -0.003122 0.000000 0.003213 0.000000
# 3 -0.001643 -0.003122 0.008421 0.000000 -0.000122 0.000000
# 4 0.000000 0.000000 0.000000 0.025923 0.000000 0.006589
# 5 0.010034 0.003213 -0.000122 0.000000 0.037099 0.000000
# 6 0.000000 0.000000 0.000000 0.006589 0.000000 0.022091
#
#
# Mechanical properties :
#
#
# Convention : Reuss Voigt Hill
#
# Bulk Modulus (GPa) = 44.01998 62.75868 53.38933
# Shear Modulus (GPa) = 36.85918 45.34699 41.10309
#
# Velocity S-wave (km/s) = 3.64343 4.04122 3.84747
# Velocity P-wave (km/s) = 5.79249 6.66163 6.24221
#
# Compressibility (1/GPa) = 0.02271696
#
# Stress axis : x y z
#
# Youngs Moduli (GPa) = 107.57835 66.11667 118.75415
#
# Poissons Ratio (x) = 0.01965 0.19509
# Poissons Ratio (y) = 0.03198 0.37075
# Poissons Ratio (z) = 0.17673 0.20642
#
# Static dielectric constant tensor:
#      x y z
#    x 2.336500 0.000000 0.092960 
#    y 0.000000 2.245840 0.000000 
#    z 0.092960 0.000000 2.111120 
# 
# From -- ./inp_files/82030.got.cif
#   From: 2010.05.17/outbox.cif.g08.bks.cpg/sg15_42_cif.got.tgz:82030.got - 2010.06.03 18:47:42.
