data_PCOD9293186
_publ_section_title
;
Structure prediction by ZEFSAII (Michael W. Deem and Ramdas Pophale) SiO2 
 PCOD9293186
Probable space group: C 2/C
;
_chemical_formula_sum "Si O2"
_cell_formula_units_Z 48
_cell_length_a 19.007371
_cell_length_b 9.070169
_cell_length_c 10.839763
_cell_angle_alpha 90.000000
_cell_angle_beta 122.889137
_cell_angle_gamma 90.000000
_cell_volume 1569.253767
_symmetry_space_group_name_H-M "C 2/C"
_symmetry_group_IT_number 15
_symmetry_cell_setting 'monoclinic'
loop_
_space_group_symop_operation_xyz
x,y,z
-x,y,1/2-z
-x,-y,-z
x,-y,1/2+z
1/2+x,1/2+y,z
1/2-x,1/2+y,1/2-z
1/2-x,1/2-y,-z
1/2+x,1/2-y,1/2+z
loop_
_atom_site_type_symbol
_atom_site_label
_atom_site_fract_x
_atom_site_fract_y
_atom_site_fract_z
Si Si1 0.000000 0.606439 0.250000
Si Si2 0.404354 0.290006 0.981952
Si Si3 0.776719 0.583414 0.493938
Si Si4 0.873308 0.055732 0.809507
Si Si5 0.725577 0.813014 0.842478
Si Si6 0.548307 0.151649 0.947261
Si Si7 0.000000 0.910638 0.750000
O O1 0.926789 0.714629 0.133279
O O2 0.012311 0.487289 0.152547
O O3 0.450083 0.486490 0.295676
O O4 0.392897 0.466589 0.953142
O O5 0.309248 0.257526 0.850777
O O6 0.750000 0.750000 0.500000
O O7 0.705047 0.512156 0.339085
O O8 0.785839 0.483493 0.627976
O O9 0.861457 0.573744 0.491731
O O10 0.851746 0.228927 0.796754
O O11 0.017935 0.264551 0.025389
O O12 0.750000 0.750000 0.000000
O O13 0.562059 0.287708 0.865229
#
# Coordination Sequence:
#
# PCOD9293186 Si02
#       7
#     4   8   8   8   8   8   4
#     4  11  22  42  79 120 176 218 286 368 426 510
#     4  11  25  49  80 122 166 230 291 354 433 521
#     4  11  22  46  82 114 156 214 273 356 428 506
#     4  10  22  44  77 111 165 213 283 342 431 516
#     4  10  24  48  75 113 162 218 277 349 429 496
#     4  10  22  44  79 116 157 224 289 356 431 513
#     4   9  18  40  75 110 154 216 272 348 422 504
#
# _framework density 30.587786000000001
#
# number of rings (size 3 to 8) (size 9 to 14) (size 15 to 20)
#    0.000    1.667    1.667    2.500    0.000    1.333 
#    9.000    9.167    0.000    0.000    0.000    0.000 
#    0.000    0.000    0.000    0.000    0.000    0.000 
#
# Total GULP energy -134078.968829 kJ/mol
# GULP energy per Si atom -5586.623701 kJ/mol
# Density = 3.051817 g / cm^3
# Si number density = 30.587786 Si / 1000 Ang^3
#
#
#
# Elastic Constant Matrix: (Units=GPa)
#
#
# Indices 1 2 3 4 5 6 
#
# 1 181.9280 36.2694 64.3204 0.0000 60.8387 0.0000
# 2 36.2694 266.0294 68.4346 0.0000 -1.0724 0.0000
# 3 64.3204 68.4346 78.4701 0.0000 23.7169 0.0000
# 4 0.0000 0.0000 0.0000 80.2544 0.0000 -14.7427
# 5 60.8387 -1.0724 23.7169 0.0000 57.1713 0.0000
# 6 0.0000 0.0000 0.0000 -14.7427 0.0000 51.1761
#
#
#
# Elastic Compliance Matrix: (Units=1/GPa)
#
#
# Indices 1 2 3 4 5 6 
#
# 1 0.010536 0.000097 -0.006097 0.000000 -0.008681 0.000000
# 2 0.000097 0.005080 -0.005154 0.000000 0.002130 0.000000
# 3 -0.006097 -0.005154 0.023215 0.000000 -0.003239 0.000000
# 4 0.000000 0.000000 0.000000 0.013157 0.000000 0.003790
# 5 -0.008681 0.002130 -0.003239 0.000000 0.028112 0.000000
# 6 0.000000 0.000000 0.000000 0.003790 0.000000 0.020632
#
#
# Mechanical properties :
#
#
# Convention : Reuss Voigt Hill
#
# Bulk Modulus (GPa) = 60.52024 96.05294 78.28659
# Shear Modulus (GPa) = 38.89628 61.54722 50.22175
#
# Velocity S-wave (km/s) = 3.56986 4.49057 4.05642
# Velocity P-wave (km/s) = 6.06799 7.63921 6.89848
#
# Compressibility (1/GPa) = 0.01652340
#
# Stress axis : x y z
#
# Youngs Moduli (GPa) = 94.91460 196.84630 43.07592
#
# Poissons Ratio (x) = -0.01910 0.26263
# Poissons Ratio (y) = -0.00921 0.22200
# Poissons Ratio (z) = 0.57869 1.01449
#
# Static dielectric constant tensor:
#      x y z
#    x 2.561780 0.000000 -0.179250 
#    y 0.000000 2.442100 0.000000 
#    z -0.179250 0.000000 2.697240 
# 
# From -- ./inp_files/180938.got.cif
#   From: 2010.05.17/outbox.cif.g08.bks.cpg/sg15_91_cif.got.tgz:180938.got - 2010.06.03 18:47:42.
