data_PCOD9293032
_publ_section_title
;
Structure prediction by ZEFSAII (Michael W. Deem and Ramdas Pophale) SiO2 
 PCOD9293032
Probable space group: C 2/C
;
_chemical_formula_sum "Si O2"
_cell_formula_units_Z 40
_cell_length_a 19.698952
_cell_length_b 6.820123
_cell_length_c 19.422427
_cell_angle_alpha 90.000000
_cell_angle_beta 42.128526
_cell_angle_gamma 90.000000
_cell_volume 1750.367560
_symmetry_space_group_name_H-M "C 2/C"
_symmetry_group_IT_number 15
_symmetry_cell_setting 'monoclinic'
loop_
_space_group_symop_operation_xyz
x,y,z
-x,y,1/2-z
-x,-y,-z
x,-y,1/2+z
1/2+x,1/2+y,z
1/2-x,1/2+y,1/2-z
1/2-x,1/2-y,-z
1/2+x,1/2-y,1/2+z
loop_
_atom_site_type_symbol
_atom_site_label
_atom_site_fract_x
_atom_site_fract_y
_atom_site_fract_z
Si Si1 0.118962 0.215834 0.027494
Si Si2 0.200357 0.718869 0.204524
Si Si3 0.572197 0.151846 0.758713
Si Si4 0.703347 0.515713 0.083867
Si Si5 0.382579 0.531278 0.609045
O O1 0.150941 0.026242 0.048696
O O2 0.002369 0.258786 0.128078
O O3 0.184845 0.395318 0.007096
O O4 0.148992 0.185423 0.926759
O O5 0.136555 0.521619 0.242240
O O6 0.310241 0.656925 0.151627
O O7 0.143415 0.866371 0.299409
O O8 0.206313 0.820432 0.125438
O O9 0.500000 0.082454 0.750000
O O10 0.639549 0.324334 0.675667
O O11 0.500000 0.500000 0.500000
#
# Coordination Sequence:
#
# PCOD9293032 Si02
#       5
#     8   8   8   8   8
#     4  10  22  44  71  98 137 171 231 290 346 403
#     4  12  27  46  71  98 147 184 234 284 349 414
#     4  10  23  44  71 103 132 179 230 289 352 403
#     4  10  22  46  70 100 134 172 230 296 334 414
#     4  12  28  44  68 104 139 191 234 280 349 419
#
# _framework density 22.852345
#
# number of rings (size 3 to 8) (size 9 to 14) (size 15 to 20)
#    0.000    1.200    2.000    2.400    5.600    5.600 
#    0.000    0.000    0.000    0.000    0.000    0.000 
#    0.000    0.000    0.000    0.000    0.000    0.000 
#
# Total GULP energy -111869.904551 kJ/mol
# GULP energy per Si atom -5593.495228 kJ/mol
# Density = 2.280033 g / cm^3
# Si number density = 22.852345 Si / 1000 Ang^3
#
#
#
# Elastic Constant Matrix: (Units=GPa)
#
#
# Indices 1 2 3 4 5 6 
#
# 1 74.0208 27.4957 15.6510 -0.0002 -16.4627 0.0004
# 2 27.4957 65.6354 24.9134 -0.0005 -10.0049 0.0009
# 3 15.6510 24.9134 103.7878 -0.0002 -18.0321 0.0005
# 4 -0.0002 -0.0005 -0.0002 40.3221 -0.0001 5.3397
# 5 -16.4627 -10.0049 -18.0321 -0.0001 51.6027 0.0004
# 6 0.0004 0.0009 0.0005 5.3397 0.0004 27.3723
#
#
#
# Elastic Compliance Matrix: (Units=1/GPa)
#
#
# Indices 1 2 3 4 5 6 
#
# 1 0.016817 -0.006309 -0.000322 0.000000 0.004030 0.000000
# 2 -0.006309 0.019319 -0.003604 0.000000 0.000474 -0.000001
# 3 -0.000322 -0.003604 0.011082 0.000000 0.003071 0.000000
# 4 0.000000 0.000000 0.000000 0.025458 0.000000 -0.004966
# 5 0.004030 0.000474 0.003071 0.000000 0.021829 0.000000
# 6 0.000000 -0.000001 0.000000 -0.004966 0.000000 0.037502
#
#
# Mechanical properties :
#
#
# Convention : Reuss Voigt Hill
#
# Bulk Modulus (GPa) = 37.38286 42.17381 39.77833
# Shear Modulus (GPa) = 30.98043 35.55168 33.26605
#
# Velocity S-wave (km/s) = 3.68595 3.94853 3.81950
# Velocity P-wave (km/s) = 5.87443 6.26760 6.07420
#
# Compressibility (1/GPa) = 0.02675023
#
# Stress axis : x y z
#
# Youngs Moduli (GPa) = 59.46230 51.76376 90.23514
#
# Poissons Ratio (x) = 0.32656 0.02902
# Poissons Ratio (y) = 0.37513 0.32517
# Poissons Ratio (z) = 0.01912 0.18654
#
# Static dielectric constant tensor:
#      x y z
#    x 1.941450 0.000000 0.025870 
#    y 0.000000 1.838870 0.000000 
#    z 0.025870 0.000000 1.842550 
# 
# From -- ./inp_files/254201.got.cif
#   From: 2010.05.17/outbox.cif.g08.bks.cpg/sg15_128_cif.got.tgz:254201.got - 2010.06.03 18:47:42.
