data_PCOD9293256
_publ_section_title
;
Structure prediction by ZEFSAII (Michael W. Deem and Ramdas Pophale) SiO2 
 PCOD9293256
Probable space group: C 2/C
;
_chemical_formula_sum "Si O2"
_cell_formula_units_Z 60
_cell_length_a 21.203747
_cell_length_b 8.298334
_cell_length_c 24.845642
_cell_angle_alpha 90.000000
_cell_angle_beta 37.797687
_cell_angle_gamma 90.000000
_cell_volume 2679.327266
_symmetry_space_group_name_H-M "C 2/C"
_symmetry_group_IT_number 15
_symmetry_cell_setting 'monoclinic'
loop_
_space_group_symop_operation_xyz
x,y,z
-x,y,1/2-z
-x,-y,-z
x,-y,1/2+z
1/2+x,1/2+y,z
1/2-x,1/2+y,1/2-z
1/2-x,1/2-y,-z
1/2+x,1/2-y,1/2+z
loop_
_atom_site_type_symbol
_atom_site_label
_atom_site_fract_x
_atom_site_fract_y
_atom_site_fract_z
Si Si1 0.613417 0.755802 0.369295
Si Si2 0.000000 0.058925 0.750000
Si Si3 0.404994 0.269186 0.958624
Si Si4 0.069437 0.092706 0.499220
Si Si5 0.541259 0.240991 0.328941
Si Si6 0.958667 0.608648 0.718750
Si Si7 0.279961 0.524826 0.769390
Si Si8 0.297584 0.349458 0.862992
O O1 0.493172 0.791519 0.441026
O O2 0.636655 0.703817 0.414789
O O3 0.648154 0.601935 0.310320
O O4 0.680700 0.908078 0.306685
O O5 0.895731 0.952803 0.816385
O O6 0.003399 0.164999 0.693307
O O7 0.386906 0.451226 0.992053
O O8 0.466079 0.237292 0.861932
O O9 0.294880 0.183798 0.033890
O O10 0.014997 0.211058 0.577970
O O11 0.000000 0.000000 0.500000
O O12 0.652867 0.318256 0.262854
O O13 0.540325 0.054447 0.315485
O O14 0.848161 0.688597 0.803788
O O15 0.000000 0.572141 0.750000
O O16 0.248217 0.440803 0.845830
#
# Coordination Sequence:
#
# PCOD9293256 Si02
#       8
#     8   4   8   8   8   8   8   8
#     4  11  25  44  70 105 144 195 242 289 366 439
#     4  10  22  50  74 102 140 200 240 306 360 428
#     4  11  25  47  71 106 143 188 240 301 363 438
#     4  10  22  45  67 102 148 189 233 298 362 434
#     4  11  23  46  71 102 148 188 244 300 363 427
#     4  12  26  48  73 108 139 193 252 301 363 431
#     4  11  25  42  70 105 147 197 232 294 365 434
#     4  11  25  46  75 103 145 189 241 306 368 425
#
# _framework density 22.393681999999998
#
# number of rings (size 3 to 8) (size 9 to 14) (size 15 to 20)
#    0.000    1.067    5.333    0.800    7.467    1.067 
#    0.000    0.667    0.000    0.000    0.000    0.000 
#    0.000    0.000    0.000    0.000    0.000    0.000 
#
# Total GULP energy -167501.430566 kJ/mol
# GULP energy per Si atom -5583.381019 kJ/mol
# Density = 2.234271 g / cm^3
# Si number density = 22.393682 Si / 1000 Ang^3
#
#
#
# Elastic Constant Matrix: (Units=GPa)
#
#
# Indices 1 2 3 4 5 6 
#
# 1 81.5159 49.5078 43.7945 0.0000 11.6872 0.0001
# 2 49.5078 91.0036 24.2128 0.0003 -0.6483 -0.0004
# 3 43.7945 24.2128 117.6035 0.0001 -0.4419 -0.0002
# 4 0.0000 0.0003 0.0001 31.6283 0.0001 9.2864
# 5 11.6872 -0.6483 -0.4419 0.0001 41.3655 -0.0001
# 6 0.0001 -0.0004 -0.0002 9.2864 -0.0001 36.5966
#
#
#
# Elastic Compliance Matrix: (Units=1/GPa)
#
#
# Indices 1 2 3 4 5 6 
#
# 1 0.023475 -0.011095 -0.006483 0.000000 -0.006876 0.000000
# 2 -0.011095 0.016870 0.000671 0.000000 0.003406 0.000000
# 3 -0.006483 0.000671 0.010787 0.000000 0.001958 0.000000
# 4 0.000000 0.000000 0.000000 0.034163 0.000000 -0.008669
# 5 -0.006876 0.003406 0.001958 0.000000 0.026192 0.000000
# 6 0.000000 0.000000 0.000000 -0.008669 0.000000 0.029525
#
#
# Mechanical properties :
#
#
# Convention : Reuss Voigt Hill
#
# Bulk Modulus (GPa) = 57.74524 58.35035 58.04779
# Shear Modulus (GPa) = 27.68594 33.42526 30.55560
#
# Velocity S-wave (km/s) = 3.51996 3.86764 3.69789
# Velocity P-wave (km/s) = 6.50865 6.78660 6.64908
#
# Compressibility (1/GPa) = 0.01731745
#
# Stress axis : x y z
#
# Youngs Moduli (GPa) = 42.59876 59.27657 92.70673
#
# Poissons Ratio (x) = 0.65766 0.60106
# Poissons Ratio (y) = 0.47262 -0.06222
# Poissons Ratio (z) = 0.27619 -0.03978
#
# Static dielectric constant tensor:
#      x y z
#    x 1.866470 0.000000 0.017680 
#    y 0.000000 1.851650 0.000000 
#    z 0.017680 0.000000 1.833380 
# 
# From -- ./inp_files/279686.got.cif
#   From: 2010.05.17/outbox.cif.g08.bks.cpg/sg15_140_cif.got.tgz:279686.got - 2010.06.03 18:47:42.
