data_PCOD9293502
_publ_section_title
;
Structure prediction by ZEFSAII (Michael W. Deem and Ramdas Pophale) SiO2 
 PCOD9293502
Probable space group: C 2/C
;
_chemical_formula_sum "Si O2"
_cell_formula_units_Z 60
_cell_length_a 8.680766
_cell_length_b 25.640626
_cell_length_c 13.868434
_cell_angle_alpha 90.000000
_cell_angle_beta 70.077218
_cell_angle_gamma 90.000000
_cell_volume 2902.100848
_symmetry_space_group_name_H-M "C 2/C"
_symmetry_group_IT_number 15
_symmetry_cell_setting 'monoclinic'
loop_
_space_group_symop_operation_xyz
x,y,z
-x,y,1/2-z
-x,-y,-z
x,-y,1/2+z
1/2+x,1/2+y,z
1/2-x,1/2+y,1/2-z
1/2-x,1/2-y,-z
1/2+x,1/2-y,1/2+z
loop_
_atom_site_type_symbol
_atom_site_label
_atom_site_fract_x
_atom_site_fract_y
_atom_site_fract_z
Si Si1 0.889868 0.898437 0.869736
Si Si2 0.841256 0.194970 0.977412
Si Si3 0.303209 0.115677 0.818847
Si Si4 0.808580 0.501930 0.572165
Si Si5 0.690476 0.996149 0.210204
Si Si6 0.323609 0.416625 0.551817
Si Si7 0.000000 0.153687 0.750000
Si Si8 0.681271 0.692812 0.007769
O O1 0.756554 0.943267 0.906319
O O2 0.814383 0.840961 0.895319
O O3 0.000000 0.903363 0.750000
O O4 0.996889 0.905048 0.944960
O O5 0.912179 0.184683 0.855371
O O6 0.750000 0.250000 0.000000
O O7 0.757009 0.139892 0.030512
O O8 0.994774 0.200375 0.015286
O O9 0.500000 0.117793 0.750000
O O10 0.273873 0.055687 0.858529
O O11 0.156510 0.126130 0.771337
O O12 0.274296 0.158347 0.907525
O O13 0.774409 0.520155 0.688280
O O14 0.706790 0.541359 0.526187
O O15 0.000000 0.500000 0.500000
O O16 0.500000 0.005045 0.250000
O O17 0.757992 0.050106 0.156519
O O18 0.750000 0.750000 0.000000
#
# Coordination Sequence:
#
# PCOD9293502 Si02
#       8
#     8   8   8   8   8   8   4   8
#     4  11  24  44  66  99 139 180 225 279 349 414
#     4  10  24  46  68  96 129 177 226 291 345 406
#     4  10  23  40  69  98 134 178 221 288 340 414
#     4  12  24  39  68  99 138 182 218 277 341 412
#     4  11  22  41  64 103 138 171 224 271 345 413
#     4  11  23  44  66  96 138 175 224 281 335 418
#     4  10  22  46  66 100 130 178 242 268 354 430
#     4  10  24  44  66  96 130 173 229 282 344 411
#
# _framework density 20.674678
#
# number of rings (size 3 to 8) (size 9 to 14) (size 15 to 20)
#    0.000    1.333    2.667    2.000    3.733    4.800 
#    9.600    0.000    0.000    0.000    0.000    0.000 
#    0.000    0.000    0.000    0.000    0.000    0.000 
#
# Total GULP energy -167046.292786 kJ/mol
# GULP energy per Si atom -5568.209760 kJ/mol
# Density = 2.062762 g / cm^3
# Si number density = 20.674678 Si / 1000 Ang^3
#
#
#
# Elastic Constant Matrix: (Units=GPa)
#
#
# Indices 1 2 3 4 5 6 
#
# 1 72.9515 56.2073 34.9006 0.0000 -11.5638 0.0000
# 2 56.2073 203.2797 71.3681 0.0000 -30.5475 0.0000
# 3 34.9006 71.3681 113.5450 0.0000 -4.4144 0.0000
# 4 0.0000 0.0000 0.0000 27.5232 0.0000 -5.1447
# 5 -11.5638 -30.5475 -4.4144 0.0000 22.2781 0.0000
# 6 0.0000 0.0000 0.0000 -5.1447 0.0000 40.1019
#
#
#
# Elastic Compliance Matrix: (Units=1/GPa)
#
#
# Indices 1 2 3 4 5 6 
#
# 1 0.018592 -0.003228 -0.003510 0.000000 0.004529 0.000000
# 2 -0.003228 0.008656 -0.004083 0.000000 0.009384 0.000000
# 3 -0.003510 -0.004083 0.012258 0.000000 -0.004992 0.000000
# 4 0.000000 0.000000 0.000000 0.037226 0.000000 0.004776
# 5 0.004529 0.009384 -0.004992 0.000000 0.059116 0.000000
# 6 0.000000 0.000000 0.000000 0.004776 0.000000 0.025549
#
#
# Mechanical properties :
#
#
# Convention : Reuss Voigt Hill
#
# Bulk Modulus (GPa) = 55.97934 79.41425 67.69679
# Shear Modulus (GPa) = 26.45605 33.13399 29.79502
#
# Velocity S-wave (km/s) = 3.58108 4.00764 3.80035
# Velocity P-wave (km/s) = 6.65086 7.74013 7.21608
#
# Compressibility (1/GPa) = 0.01786373
#
# Stress axis : x y z
#
# Youngs Moduli (GPa) = 53.78751 115.53165 81.57675
#
# Poissons Ratio (x) = 0.37293 0.28630
# Poissons Ratio (y) = 0.17362 0.33311
# Poissons Ratio (z) = 0.18877 0.47177
#
# Static dielectric constant tensor:
#      x y z
#    x 1.803200 0.000000 0.070490 
#    y 0.000000 1.819180 0.000000 
#    z 0.070490 0.000000 1.674390 
# 
# From -- ./inp_files/137784.got.cif
#   From: 2010.05.17/outbox.cif.g08.bks.cpg/sg15_69_cif.got.tgz:137784.got - 2010.06.03 18:47:42.
