data_PCOD9293870
_publ_section_title
;
Structure prediction by ZEFSAII (Michael W. Deem and Ramdas Pophale) SiO2 
 PCOD9293870
Probable space group: C 2/C
;
_chemical_formula_sum "Si O2"
_cell_formula_units_Z 44
_cell_length_a 7.374009
_cell_length_b 16.998217
_cell_length_c 15.410397
_cell_angle_alpha 90.000000
_cell_angle_beta 120.721797
_cell_angle_gamma 90.000000
_cell_volume 1660.529366
_symmetry_space_group_name_H-M "C 2/C"
_symmetry_group_IT_number 15
_symmetry_cell_setting 'monoclinic'
loop_
_space_group_symop_operation_xyz
x,y,z
-x,y,1/2-z
-x,-y,-z
x,-y,1/2+z
1/2+x,1/2+y,z
1/2-x,1/2+y,1/2-z
1/2-x,1/2-y,-z
1/2+x,1/2-y,1/2+z
loop_
_atom_site_type_symbol
_atom_site_label
_atom_site_fract_x
_atom_site_fract_y
_atom_site_fract_z
Si Si1 0.936537 0.125169 0.642791
Si Si2 0.379316 0.001646 0.366652
Si Si3 0.427748 0.836001 0.560739
Si Si4 0.000000 0.599201 0.250000
Si Si5 0.725513 0.129860 0.923823
Si Si6 0.880008 0.795552 0.633718
O O1 0.183426 0.044032 0.859301
O O2 0.128619 0.114240 0.623904
O O3 0.000000 0.161593 0.750000
O O4 0.766290 0.176638 0.548896
O O5 0.523173 0.923413 0.559449
O O6 0.571954 0.943556 0.395166
O O7 0.338444 0.045205 0.264473
O O8 0.379599 0.848620 0.649907
O O9 0.633602 0.784424 0.600096
O O10 0.567949 0.205262 0.875647
O O11 0.866818 0.151159 0.043954
O O12 0.000000 0.822769 0.750000
#
# Coordination Sequence:
#
# PCOD9293870 Si02
#       6
#     8   8   8   4   8   8
#     4  12  26  42  75 109 140 197 250 292 366 449
#     4  10  22  49  68 103 149 187 241 303 360 434
#     4  10  24  48  66 109 149 179 244 312 354 439
#     4   8  22  40  76  90 148 192 216 314 368 408
#     4  11  27  48  72 104 147 196 245 300 363 446
#     4  11  27  48  76 102 148 197 243 303 382 430
#
# _framework density 26.497572000000002
#
# number of rings (size 3 to 8) (size 9 to 14) (size 15 to 20)
#    1.091    0.364    1.818    1.636    6.364    2.182 
#    1.636    0.000    0.000    0.000    0.000    0.000 
#    0.000    0.000    0.000    0.000    0.000    0.000 
#
# Total GULP energy -123033.585662 kJ/mol
# GULP energy per Si atom -5592.435712 kJ/mol
# Density = 2.643726 g / cm^3
# Si number density = 26.497572 Si / 1000 Ang^3
#
#
#
# Elastic Constant Matrix: (Units=GPa)
#
#
# Indices 1 2 3 4 5 6 
#
# 1 136.9785 13.2225 46.9852 0.0000 -25.0711 0.0000
# 2 13.2225 81.6550 5.3674 0.0000 -0.5890 0.0000
# 3 46.9852 5.3674 226.0243 0.0000 -28.0736 0.0000
# 4 0.0000 0.0000 0.0000 25.9534 0.0000 -9.8377
# 5 -25.0711 -0.5890 -28.0736 0.0000 45.8266 0.0000
# 6 0.0000 0.0000 0.0000 -9.8377 0.0000 33.4956
#
#
#
# Elastic Compliance Matrix: (Units=1/GPa)
#
#
# Indices 1 2 3 4 5 6 
#
# 1 0.008572 -0.001277 -0.001268 0.000000 0.003896 0.000000
# 2 -0.001277 0.012456 -0.000105 0.000000 -0.000603 0.000000
# 3 -0.001268 -0.000105 0.004983 0.000000 0.002358 0.000000
# 4 0.000000 0.000000 0.000000 0.043358 0.000000 0.012734
# 5 0.003896 -0.000603 0.002358 0.000000 0.025390 0.000000
# 6 0.000000 0.000000 0.000000 0.012734 0.000000 0.033595
#
#
# Mechanical properties :
#
#
# Convention : Reuss Voigt Hill
#
# Bulk Modulus (GPa) = 48.28158 63.97866 56.13012
# Shear Modulus (GPa) = 35.57314 46.32732 40.95023
#
# Velocity S-wave (km/s) = 3.66800 4.18588 3.93546
# Velocity P-wave (km/s) = 6.01661 6.89635 6.47145
#
# Compressibility (1/GPa) = 0.02071183
#
# Stress axis : x y z
#
# Youngs Moduli (GPa) = 116.66436 80.28302 200.67579
#
# Poissons Ratio (x) = 0.10249 0.25437
# Poissons Ratio (y) = 0.14893 0.02113
# Poissons Ratio (z) = 0.14788 0.00845
#
# Static dielectric constant tensor:
#      x y z
#    x 2.064110 0.000000 -0.024780 
#    y 0.000000 2.093300 0.000000 
#    z -0.024780 0.000000 2.174040 
# 
# From -- ./inp_files/137573.got.cif
#   From: 2010.05.17/outbox.cif.g08.bks.cpg/sg15_69_cif.got.tgz:137573.got - 2010.06.03 18:47:42.
