data_PCOD9293834
_publ_section_title
;
Structure prediction by ZEFSAII (Michael W. Deem and Ramdas Pophale) SiO2 
 PCOD9293834
Probable space group: C 2/C
;
_chemical_formula_sum "Si O2"
_cell_formula_units_Z 44
_cell_length_a 16.825774
_cell_length_b 20.333182
_cell_length_c 7.854472
_cell_angle_alpha 90.000000
_cell_angle_beta 44.156600
_cell_angle_gamma 90.000000
_cell_volume 1871.951081
_symmetry_space_group_name_H-M "C 2/C"
_symmetry_group_IT_number 15
_symmetry_cell_setting 'monoclinic'
loop_
_space_group_symop_operation_xyz
x,y,z
-x,y,1/2-z
-x,-y,-z
x,-y,1/2+z
1/2+x,1/2+y,z
1/2-x,1/2+y,1/2-z
1/2-x,1/2-y,-z
1/2+x,1/2-y,1/2+z
loop_
_atom_site_type_symbol
_atom_site_label
_atom_site_fract_x
_atom_site_fract_y
_atom_site_fract_z
Si Si1 0.534298 0.575802 0.454093
Si Si2 0.500000 0.761634 0.250000
Si Si3 0.236412 0.577501 0.217150
Si Si4 0.350294 0.641159 0.549834
Si Si5 0.462062 0.854681 0.621780
Si Si6 0.844593 0.564990 0.773575
O O1 0.500000 0.500000 0.500000
O O2 0.628668 0.585858 0.454779
O O3 0.419972 0.619001 0.609427
O O4 0.601391 0.596107 0.179416
O O5 0.390364 0.713914 0.439756
O O6 0.504810 0.805135 0.410916
O O7 0.171567 0.631421 0.204045
O O8 0.175367 0.579441 0.496956
O O9 0.210313 0.505385 0.182822
O O10 0.220466 0.620334 0.739708
O O11 0.500000 0.833185 0.750000
O O12 0.525597 0.923980 0.482356
#
# Coordination Sequence:
#
# PCOD9293834 Si02
#       6
#     8   4   8   8   8   8
#     4   9  16  34  60  92 129 160 216 262 328 401
#     4  10  22  48  70  90 138 180 236 268 328 406
#     4  11  21  36  64  98 133 168 213 278 341 400
#     4   9  21  38  68  95 126 189 211 272 349 392
#     4  12  25  44  66  95 131 183 230 278 328 395
#     4  11  21  39  65  98 137 170 220 276 345 403
#
# _framework density 23.504888999999999
#
# number of rings (size 3 to 8) (size 9 to 14) (size 15 to 20)
#    0.000    1.818    3.636    1.636    0.000    0.727 
#    3.273    0.909   28.000    0.000    0.000    0.000 
#    0.000    0.000    0.000    0.000    0.000    0.000 
#
# Total GULP energy -122934.639116 kJ/mol
# GULP energy per Si atom -5587.938142 kJ/mol
# Density = 2.345139 g / cm^3
# Si number density = 23.504889 Si / 1000 Ang^3
#
#
#
# Elastic Constant Matrix: (Units=GPa)
#
#
# Indices 1 2 3 4 5 6 
#
# 1 197.5322 54.9963 48.4878 0.0000 9.7646 0.0000
# 2 54.9963 105.5990 20.2219 0.0000 15.0230 0.0000
# 3 48.4878 20.2219 65.7291 0.0000 34.0635 0.0000
# 4 0.0000 0.0000 0.0000 28.3719 0.0000 4.3103
# 5 9.7646 15.0230 34.0635 0.0000 47.5758 0.0000
# 6 0.0000 0.0000 0.0000 4.3103 0.0000 19.4005
#
#
#
# Elastic Compliance Matrix: (Units=1/GPa)
#
#
# Indices 1 2 3 4 5 6 
#
# 1 0.007372 -0.003168 -0.006674 0.000000 0.004266 0.000000
# 2 -0.003168 0.011494 0.000548 0.000000 -0.003372 0.000000
# 3 -0.006674 0.000548 0.030764 0.000000 -0.020829 0.000000
# 4 0.000000 0.000000 0.000000 0.036477 0.000000 -0.008104
# 5 0.004266 -0.003372 -0.020829 0.000000 0.036122 0.000000
# 6 0.000000 0.000000 0.000000 -0.008104 0.000000 0.053346
#
#
# Mechanical properties :
#
#
# Convention : Reuss Voigt Hill
#
# Bulk Modulus (GPa) = 32.21507 68.47471 50.34489
# Shear Modulus (GPa) = 24.44861 35.41328 29.93094
#
# Velocity S-wave (km/s) = 3.22863 3.88575 3.57233
# Velocity P-wave (km/s) = 5.25683 7.02335 6.20329
#
# Compressibility (1/GPa) = 0.03104137
#
# Stress axis : x y z
#
# Youngs Moduli (GPa) = 135.64829 86.99824 32.50592
#
# Poissons Ratio (x) = 0.27562 0.21696
# Poissons Ratio (y) = 0.42975 -0.01782
# Poissons Ratio (z) = 0.90538 -0.04769
#
# Static dielectric constant tensor:
#      x y z
#    x 2.035990 0.000000 -0.078010 
#    y 0.000000 1.843040 0.000000 
#    z -0.078010 0.000000 2.121600 
# 
# From -- ./inp_files/55994.got.cif
#   From: 2010.05.17/outbox.cif.g08.bks.cpg/sg15_28_cif.got.tgz:55994.got - 2010.06.03 18:47:42.
