data_PCOD9293221
_publ_section_title
;
Structure prediction by ZEFSAII (Michael W. Deem and Ramdas Pophale) SiO2 
 PCOD9293221
Probable space group: C 2/C
;
_chemical_formula_sum "Si O2"
_cell_formula_units_Z 56
_cell_length_a 14.726113
_cell_length_b 20.139890
_cell_length_c 9.127022
_cell_angle_alpha 90.000000
_cell_angle_beta 88.872237
_cell_angle_gamma 90.000000
_cell_volume 2706.388791
_symmetry_space_group_name_H-M "C 2/C"
_symmetry_group_IT_number 15
_symmetry_cell_setting 'monoclinic'
loop_
_space_group_symop_operation_xyz
x,y,z
-x,y,1/2-z
-x,-y,-z
x,-y,1/2+z
1/2+x,1/2+y,z
1/2-x,1/2+y,1/2-z
1/2-x,1/2-y,-z
1/2+x,1/2-y,1/2+z
loop_
_atom_site_type_symbol
_atom_site_label
_atom_site_fract_x
_atom_site_fract_y
_atom_site_fract_z
Si Si1 0.615703 0.457884 0.108215
Si Si2 0.599321 0.822314 0.668437
Si Si3 0.190617 0.558730 0.023650
Si Si4 0.015601 0.308816 0.094199
Si Si5 0.161950 0.229991 0.911231
Si Si6 0.913294 0.917311 0.071715
Si Si7 0.904630 0.448399 0.291458
O O1 0.703905 0.433485 0.019041
O O2 0.523565 0.416281 0.077517
O O3 0.622979 0.454164 0.282122
O O4 0.604927 0.534583 0.063165
O O5 0.500000 0.833227 0.750000
O O6 0.658100 0.888681 0.647879
O O7 0.574229 0.809223 0.500324
O O8 0.652337 0.763531 0.750450
O O9 0.141994 0.564192 0.864785
O O10 0.159288 0.489049 0.096932
O O11 0.060988 0.380679 0.129501
O O12 0.000000 0.276314 0.250000
O O13 0.083549 0.266658 0.999874
O O14 0.137144 0.152752 0.919902
O O15 0.250000 0.250000 0.000000
O O16 0.000000 0.485338 0.250000
#
# Coordination Sequence:
#
# PCOD9293221 Si02
#       7
#     8   8   8   8   8   8   8
#     4  10  24  43  76  96 135 173 238 299 347 423
#     4  10  23  43  67  98 138 188 222 274 356 421
#     4  12  23  38  68 105 136 182 238 287 346 423
#     4  10  22  45  64  99 140 182 227 279 354 428
#     4  11  27  44  74  99 143 187 233 295 355 438
#     4  10  24  51  68 100 133 183 229 296 367 404
#     4  11  23  37  63  99 148 185 225 295 353 421
#
# _framework density 20.691780000000001
#
# number of rings (size 3 to 8) (size 9 to 14) (size 15 to 20)
#    0.000    1.429    2.857    1.714   14.000    1.143 
#    7.714    1.429    0.000    0.000    0.000    0.000 
#    0.000    0.000    0.000    0.000    0.000    0.000 
#
# Total GULP energy -156088.478389 kJ/mol
# GULP energy per Si atom -5574.588514 kJ/mol
# Density = 2.064468 g / cm^3
# Si number density = 20.691780 Si / 1000 Ang^3
#
#
#
# Elastic Constant Matrix: (Units=GPa)
#
#
# Indices 1 2 3 4 5 6 
#
# 1 88.6029 35.3126 35.0888 0.0000 -0.9644 0.0000
# 2 35.3126 114.0940 63.3918 0.0000 22.9711 0.0000
# 3 35.0888 63.3918 118.3157 0.0000 10.4970 0.0000
# 4 0.0000 0.0000 0.0000 22.3813 0.0000 7.1208
# 5 -0.9644 22.9711 10.4970 0.0000 30.9378 0.0000
# 6 0.0000 0.0000 0.0000 7.1208 0.0000 -5.0517
#
#
#
# Elastic Compliance Matrix: (Units=1/GPa)
#
#
# Indices 1 2 3 4 5 6 
#
# 1 0.013781 -0.003710 -0.002456 0.000000 0.004017 0.000000
# 2 -0.003710 0.015264 -0.006250 0.000000 -0.009328 0.000000
# 3 -0.002456 -0.006250 0.012500 0.000000 0.000323 0.000000
# 4 0.000000 0.000000 0.000000 0.030846 0.000000 0.043481
# 5 0.004017 -0.009328 0.000323 0.000000 0.039265 0.000000
# 6 0.000000 0.000000 0.000000 0.043481 0.000000 -0.136663
#
#
# Mechanical properties :
#
#
# Convention : Reuss Voigt Hill
#
# Bulk Modulus (GPa) = 59.83143 65.39990 62.61567
# Shear Modulus (GPa) = 926.66720 22.13479 474.40100
#
# Velocity S-wave (km/s) = 21.18526 3.27423 15.15810
# Velocity P-wave (km/s) = 25.04793 6.78008 18.34895
#
# Compressibility (1/GPa) = 0.01671362
#
# Stress axis : x y z
#
# Youngs Moduli (GPa) = 72.56328 65.51519 79.99700
#
# Poissons Ratio (x) = 0.24303 0.19647
# Poissons Ratio (y) = 0.26918 0.50000
# Poissons Ratio (z) = 0.17821 0.40949
#
# Static dielectric constant tensor:
#      x y z
#    x 1.766310 0.000000 0.052380 
#    y 0.000000 1.671500 0.000000 
#    z 0.052380 0.000000 1.813200 
# 
# From -- ./inp_files/41244.got.cif
#   From: 2010.05.17/outbox.cif.g08.bks.cpg/sg15_21_cif.got.tgz:41244.got - 2010.06.03 18:47:42.
