data_PCOD9293493
_publ_section_title
;
Structure prediction by ZEFSAII (Michael W. Deem and Ramdas Pophale) SiO2 
 PCOD9293493
Probable space group: C 2/C
;
_chemical_formula_sum "Si O2"
_cell_formula_units_Z 60
_cell_length_a 17.667350
_cell_length_b 12.295014
_cell_length_c 21.488719
_cell_angle_alpha 90.000000
_cell_angle_beta 142.648564
_cell_angle_gamma 90.000000
_cell_volume 2831.956579
_symmetry_space_group_name_H-M "C 2/C"
_symmetry_group_IT_number 15
_symmetry_cell_setting 'monoclinic'
loop_
_space_group_symop_operation_xyz
x,y,z
-x,y,1/2-z
-x,-y,-z
x,-y,1/2+z
1/2+x,1/2+y,z
1/2-x,1/2+y,1/2-z
1/2-x,1/2-y,-z
1/2+x,1/2-y,1/2+z
loop_
_atom_site_type_symbol
_atom_site_label
_atom_site_fract_x
_atom_site_fract_y
_atom_site_fract_z
Si Si1 0.265590 0.935299 0.692639
Si Si2 0.000000 0.808676 0.750000
Si Si3 0.784973 0.409514 0.560588
Si Si4 0.093500 0.717141 0.132699
Si Si5 0.453576 0.288152 0.150342
Si Si6 0.819948 0.138959 0.026922
Si Si7 0.474839 0.296513 0.935440
Si Si8 0.336684 0.183094 0.739791
O O1 0.282210 0.891778 0.633203
O O2 0.371036 0.893155 0.809155
O O3 0.130936 0.889983 0.626839
O O4 0.285355 0.062808 0.701956
O O5 0.078020 0.877614 0.851279
O O6 0.093597 0.730093 0.774162
O O7 0.661902 0.360791 0.447452
O O8 0.900228 0.336227 0.613013
O O9 0.775272 0.538262 0.541195
O O10 0.218720 0.743774 0.178133
O O11 0.061596 0.796801 0.169425
O O12 0.991716 0.739685 0.013442
O O13 0.500000 0.311759 0.250000
O O14 0.901769 0.154104 0.017288
O O15 0.750000 0.250000 0.000000
O O16 0.428778 0.204291 0.857665
#
# Coordination Sequence:
#
# PCOD9293493 Si02
#       8
#     8   4   8   8   8   8   8   8
#     4  11  22  40  65  97 122 169 219 255 326 387
#     4  10  22  46  64  96 134 164 210 270 318 372
#     4  11  24  40  67  98 125 172 221 265 324 390
#     4  11  22  41  64  90 133 164 211 264 319 382
#     4  11  24  43  64  97 134 170 215 270 326 386
#     4  11  24  43  67  95 130 169 223 265 323 390
#     4  10  23  42  62  94 130 168 208 273 319 375
#     4  10  24  40  68  95 129 168 216 263 314 392
#
# _framework density 21.186765999999999
#
# number of rings (size 3 to 8) (size 9 to 14) (size 15 to 20)
#    0.000    1.333    2.667    2.400    2.800    4.800 
#    1.200    5.333    0.000    0.000    0.000    0.000 
#    0.000    0.000    0.000    0.000    0.000    0.000 
#
# Total GULP energy -167437.471423 kJ/mol
# GULP energy per Si atom -5581.249047 kJ/mol
# Density = 2.113854 g / cm^3
# Si number density = 21.186766 Si / 1000 Ang^3
#
#
#
# Elastic Constant Matrix: (Units=GPa)
#
#
# Indices 1 2 3 4 5 6 
#
# 1 117.6818 33.6064 14.8101 0.0000 -5.9036 0.0000
# 2 33.6064 74.5250 22.8915 0.0000 -8.9710 0.0000
# 3 14.8101 22.8915 85.5513 -0.0001 -41.4807 0.0000
# 4 0.0000 0.0000 -0.0001 29.9581 0.0000 -3.0604
# 5 -5.9036 -8.9710 -41.4807 0.0000 39.5740 0.0000
# 6 0.0000 0.0000 0.0000 -3.0604 0.0000 15.6130
#
#
#
# Elastic Compliance Matrix: (Units=1/GPa)
#
#
# Indices 1 2 3 4 5 6 
#
# 1 0.009779 -0.004232 -0.000647 0.000000 -0.000179 0.000000
# 2 -0.004232 0.016502 -0.004423 0.000000 -0.001527 0.000000
# 3 -0.000647 -0.004423 0.025319 0.000000 0.025440 0.000000
# 4 0.000000 0.000000 0.000000 0.034062 0.000000 0.006677
# 5 -0.000179 -0.001527 0.025440 0.000000 0.051562 0.000000
# 6 0.000000 0.000000 0.000000 0.006677 0.000000 0.065358
#
#
# Mechanical properties :
#
#
# Convention : Reuss Voigt Hill
#
# Bulk Modulus (GPa) = 30.30793 46.70822 38.50808
# Shear Modulus (GPa) = 21.53456 30.79238 26.16347
#
# Velocity S-wave (km/s) = 3.19159 3.81646 3.51792
# Velocity P-wave (km/s) = 5.28373 6.44316 5.89203
#
# Compressibility (1/GPa) = 0.03299466
#
# Stress axis : x y z
#
# Youngs Moduli (GPa) = 102.26441 60.59995 39.49540
#
# Poissons Ratio (x) = 0.25648 0.02556
# Poissons Ratio (y) = 0.43282 0.17469
# Poissons Ratio (z) = 0.06617 0.26804
#
# Static dielectric constant tensor:
#      x y z
#    x 1.787800 0.000000 0.001440 
#    y 0.000000 1.762830 0.000000 
#    z 0.001440 0.000000 1.845810 
# 
# From -- ./inp_files/248793.got.cif
#   From: 2010.05.17/outbox.cif.g08.bks.cpg/sg15_125_cif.got.tgz:248793.got - 2010.06.03 18:47:42.
