data_PCOD9293884
_publ_section_title
;
Structure prediction by ZEFSAII (Michael W. Deem and Ramdas Pophale) SiO2 
 PCOD9293884
Probable space group: C 2/C
;
_chemical_formula_sum "Si O2"
_cell_formula_units_Z 36
_cell_length_a 8.233961
_cell_length_b 12.189214
_cell_length_c 15.334763
_cell_angle_alpha 90.000000
_cell_angle_beta 101.912987
_cell_angle_gamma 90.000000
_cell_volume 1505.932956
_symmetry_space_group_name_H-M "C 2/C"
_symmetry_group_IT_number 15
_symmetry_cell_setting 'monoclinic'
loop_
_space_group_symop_operation_xyz
x,y,z
-x,y,1/2-z
-x,-y,-z
x,-y,1/2+z
1/2+x,1/2+y,z
1/2-x,1/2+y,1/2-z
1/2-x,1/2-y,-z
1/2+x,1/2-y,1/2+z
loop_
_atom_site_type_symbol
_atom_site_label
_atom_site_fract_x
_atom_site_fract_y
_atom_site_fract_z
Si Si1 0.830279 0.094977 0.264950
Si Si2 0.500000 0.947408 0.250000
Si Si3 0.369928 0.771828 0.888976
Si Si4 0.671226 0.091822 0.938892
Si Si5 0.782207 0.659995 0.075801
O O1 0.774700 0.187223 0.190278
O O2 0.851154 0.147504 0.362700
O O3 0.000000 0.042459 0.250000
O O4 0.671556 0.015172 0.256083
O O5 0.466843 0.893274 0.152132
O O6 0.335212 0.648428 0.915785
O O7 0.544342 0.798419 0.863794
O O8 0.367333 0.844949 0.976644
O O9 0.693684 0.962898 0.958101
O O10 0.750000 0.750000 0.000000
#
# Coordination Sequence:
#
# PCOD9293884 Si02
#       5
#     8   4   8   8   8
#     4  11  24  46  73 105 147 197 251 307 377 451
#     4  10  22  50  70 106 152 196 254 306 382 440
#     4  11  23  45  72 106 149 192 251 306 380 448
#     4  10  24  43  75 104 142 200 239 310 376 447
#     4  11  25  47  70 106 149 194 248 313 375 446
#
# _framework density 23.905446999999999
#
# number of rings (size 3 to 8) (size 9 to 14) (size 15 to 20)
#    0.000    1.333    4.444    0.667    7.778    0.889 
#    8.000    0.000    0.000    0.000    0.000    0.000 
#    0.000    0.000    0.000    0.000    0.000    0.000 
#
# Total GULP energy -100620.548452 kJ/mol
# GULP energy per Si atom -5590.030470 kJ/mol
# Density = 2.385104 g / cm^3
# Si number density = 23.905447 Si / 1000 Ang^3
#
#
#
# Elastic Constant Matrix: (Units=GPa)
#
#
# Indices 1 2 3 4 5 6 
#
# 1 114.6402 22.0836 -5.3925 0.0000 -22.0125 0.0000
# 2 22.0836 121.4173 30.2750 0.0000 9.5947 0.0000
# 3 -5.3925 30.2750 138.0524 0.0000 -0.2851 0.0000
# 4 0.0000 0.0000 0.0000 21.0919 0.0000 1.1523
# 5 -22.0125 9.5947 -0.2851 0.0000 27.0446 0.0000
# 6 0.0000 0.0000 0.0000 1.1523 0.0000 23.1631
#
#
#
# Elastic Compliance Matrix: (Units=1/GPa)
#
#
# Indices 1 2 3 4 5 6 
#
# 1 0.011391 -0.003185 0.001165 0.000000 0.010414 0.000000
# 2 -0.003185 0.009873 -0.002302 0.000000 -0.006119 0.000000
# 3 0.001165 -0.002302 0.007798 0.000000 0.001847 0.000000
# 4 0.000000 0.000000 0.000000 0.047541 0.000000 -0.002365
# 5 0.010414 -0.006119 0.001847 0.000000 0.047643 0.000000
# 6 0.000000 0.000000 0.000000 -0.002365 0.000000 0.043290
#
#
# Mechanical properties :
#
#
# Convention : Reuss Voigt Hill
#
# Bulk Modulus (GPa) = 48.97915 52.00467 50.49191
# Shear Modulus (GPa) = 27.32459 36.06950 31.69705
#
# Velocity S-wave (km/s) = 3.38454 3.88859 3.64529
# Velocity P-wave (km/s) = 5.98386 6.47789 6.23577
#
# Compressibility (1/GPa) = 0.02041685
#
# Stress axis : x y z
#
# Youngs Moduli (GPa) = 87.78932 101.28621 128.24088
#
# Poissons Ratio (x) = 0.32262 -0.14940
# Poissons Ratio (y) = 0.27963 0.29524
# Poissons Ratio (z) = -0.10227 0.23318
#
# Static dielectric constant tensor:
#      x y z
#    x 1.967450 0.000000 0.021780 
#    y 0.000000 1.913570 0.000000 
#    z 0.021780 0.000000 1.943820 
# 
# From -- ./inp_files/132848.got.cif
#   From: 2010.05.17/outbox.cif.g08.bks.cpg/sg15_67_cif.got.tgz:132848.got - 2010.06.03 18:47:42.
