data_PCOD9293395
_publ_section_title
;
Structure prediction by ZEFSAII (Michael W. Deem and Ramdas Pophale) SiO2 
 PCOD9293395
Probable space group: C 2/C
;
_chemical_formula_sum "Si O2"
_cell_formula_units_Z 36
_cell_length_a 5.083522
_cell_length_b 25.423243
_cell_length_c 12.945490
_cell_angle_alpha 90.000000
_cell_angle_beta 117.710104
_cell_angle_gamma 90.000000
_cell_volume 1481.188470
_symmetry_space_group_name_H-M "C 2/C"
_symmetry_group_IT_number 15
_symmetry_cell_setting 'monoclinic'
loop_
_space_group_symop_operation_xyz
x,y,z
-x,y,1/2-z
-x,-y,-z
x,-y,1/2+z
1/2+x,1/2+y,z
1/2-x,1/2+y,1/2-z
1/2-x,1/2-y,-z
1/2+x,1/2-y,1/2+z
loop_
_atom_site_type_symbol
_atom_site_label
_atom_site_fract_x
_atom_site_fract_y
_atom_site_fract_z
Si Si1 0.500000 0.442529 0.750000
Si Si2 0.325642 0.958102 0.324603
Si Si3 0.966342 0.257898 0.367969
Si Si4 0.406395 0.137916 0.970873
Si Si5 0.923361 0.856211 0.887358
O O1 0.266332 0.483399 0.655646
O O2 0.336326 0.405072 0.800821
O O3 0.500000 0.963514 0.250000
O O4 0.475709 0.915948 0.424226
O O5 0.000000 0.932677 0.250000
O O6 0.250000 0.250000 0.500000
O O7 0.797831 0.202493 0.350831
O O8 0.000000 0.264150 0.250000
O O9 0.828080 0.312023 0.385505
O O10 0.728682 0.150095 0.078529
O O11 0.153285 0.130183 0.009268
#
# Coordination Sequence:
#
# PCOD9293395 Si02
#       5
#     4   8   8   8   8
#     4  10  26  42  68  94 144 182 240 288 356 424
#     4  10  23  42  64  96 135 182 236 287 349 415
#     4  10  22  45  72 107 142 187 236 295 360 429
#     4  11  24  42  69 100 137 183 235 290 356 420
#     4  11  24  43  67 102 136 184 232 294 357 423
#
# _framework density 24.304807
#
# number of rings (size 3 to 8) (size 9 to 14) (size 15 to 20)
#    0.667    0.889    1.111    2.667    3.111    3.556 
#    0.000    6.667    0.000    0.000    0.000    0.000 
#    0.000    0.000    0.000    0.000    0.000    0.000 
#
# Total GULP energy -100330.669269 kJ/mol
# GULP energy per Si atom -5573.926070 kJ/mol
# Density = 2.424949 g / cm^3
# Si number density = 24.304807 Si / 1000 Ang^3
#
#
#
# Elastic Constant Matrix: (Units=GPa)
#
#
# Indices 1 2 3 4 5 6 
#
# 1 89.0576 18.8552 27.6641 0.0000 -17.4251 0.0000
# 2 18.8552 226.4023 69.0469 0.0000 -30.5480 0.0000
# 3 27.6641 69.0469 100.8389 0.0000 -30.6124 0.0000
# 4 0.0000 0.0000 0.0000 35.8708 0.0000 -2.9502
# 5 -17.4251 -30.5480 -30.6124 0.0000 50.3097 0.0000
# 6 0.0000 0.0000 0.0000 -2.9502 0.0000 -18.2642
#
#
#
# Elastic Compliance Matrix: (Units=1/GPa)
#
#
# Indices 1 2 3 4 5 6 
#
# 1 0.012586 0.000156 -0.002708 0.000000 0.002806 0.000000
# 2 0.000156 0.005655 -0.003504 0.000000 0.001356 0.000000
# 3 -0.002708 -0.003504 0.014876 0.000000 0.005987 0.000000
# 4 0.000000 0.000000 0.000000 0.027512 0.000000 -0.004444
# 5 0.002806 0.001356 0.005987 0.000000 0.025315 0.000000
# 6 0.000000 0.000000 0.000000 -0.004444 0.000000 -0.054034
#
#
# Mechanical properties :
#
#
# Convention : Reuss Voigt Hill
#
# Bulk Modulus (GPa) = 47.60300 71.93681 59.76991
# Shear Modulus (GPa) = 97.99478 33.63210 65.81344
#
# Velocity S-wave (km/s) = 6.35662 3.72393 5.20933
# Velocity P-wave (km/s) = 8.57344 6.93918 7.79923
#
# Compressibility (1/GPa) = 0.02100708
#
# Stress axis : x y z
#
# Youngs Moduli (GPa) = 79.45434 176.82265 67.22236
#
# Poissons Ratio (x) = -0.02764 0.18203
# Poissons Ratio (y) = -0.01242 0.23552
# Poissons Ratio (z) = 0.21515 0.61950
#
# Static dielectric constant tensor:
#      x y z
#    x 2.010400 0.000000 0.167840 
#    y 0.000000 1.944150 0.000000 
#    z 0.167840 0.000000 2.002680 
# 
# From -- ./inp_files/73431.got.cif
#   From: 2010.05.17/outbox.cif.g08.bks.cpg/sg15_37_cif.got.tgz:73431.got - 2010.06.03 18:47:42.
