data_PCOD9293054
_publ_section_title
;
Structure prediction by ZEFSAII (Michael W. Deem and Ramdas Pophale) SiO2 
 PCOD9293054
Probable space group: C 2/C
;
_chemical_formula_sum "Si O2"
_cell_formula_units_Z 32
_cell_length_a 9.276761
_cell_length_b 10.209051
_cell_length_c 13.261206
_cell_angle_alpha 90.000000
_cell_angle_beta 73.658521
_cell_angle_gamma 90.000000
_cell_volume 1205.190891
_symmetry_space_group_name_H-M "C 2/C"
_symmetry_group_IT_number 15
_symmetry_cell_setting 'monoclinic'
loop_
_space_group_symop_operation_xyz
x,y,z
-x,y,1/2-z
-x,-y,-z
x,-y,1/2+z
1/2+x,1/2+y,z
1/2-x,1/2+y,1/2-z
1/2-x,1/2-y,-z
1/2+x,1/2-y,1/2+z
loop_
_atom_site_type_symbol
_atom_site_label
_atom_site_fract_x
_atom_site_fract_y
_atom_site_fract_z
Si Si1 0.629495 0.336998 0.638162
Si Si2 0.159328 0.474192 0.767791
Si Si3 0.785386 0.950117 0.536792
Si Si4 0.936692 0.327253 0.053948
O O1 0.500000 0.341989 0.750000
O O2 0.780702 0.357639 0.672726
O O3 0.632212 0.459384 0.560374
O O4 0.595785 0.212083 0.573190
O O5 0.269858 0.500574 0.653018
O O6 0.148653 0.604831 0.836029
O O7 0.000000 0.443229 0.750000
O O8 0.868329 0.811447 0.533697
O O9 0.616186 0.922160 0.525945
#
# Coordination Sequence:
#
# PCOD9293054 Si02
#       4
#     8   8   8   8
#     4  11  22  43  78 103 142 191 241 292 353 432
#     4  11  25  44  69 106 149 182 239 297 347 432
#     4  10  23  45  72 108 146 185 236 302 353 418
#     4  10  22  44  72 103 143 185 239 293 349 426
#
# _framework density 26.551811000000001
#
# number of rings (size 3 to 8) (size 9 to 14) (size 15 to 20)
#    0.000    1.500    2.500    1.500    0.000    4.000 
#    4.500    8.750    0.000    0.000    0.000    0.000 
#    0.000    0.000    0.000    0.000    0.000    0.000 
#
# Total GULP energy -89505.099976 kJ/mol
# GULP energy per Si atom -5594.068749 kJ/mol
# Density = 2.649138 g / cm^3
# Si number density = 26.551811 Si / 1000 Ang^3
#
#
#
# Elastic Constant Matrix: (Units=GPa)
#
#
# Indices 1 2 3 4 5 6 
#
# 1 134.3814 41.6489 20.9126 0.0000 27.1171 0.0000
# 2 41.6489 127.6898 60.1359 0.0000 20.5729 0.0000
# 3 20.9126 60.1359 171.6733 0.0000 24.7458 0.0000
# 4 0.0000 0.0000 0.0000 50.4140 0.0000 19.8217
# 5 27.1171 20.5729 24.7458 0.0000 43.8789 0.0000
# 6 0.0000 0.0000 0.0000 19.8217 0.0000 54.2851
#
#
#
# Elastic Compliance Matrix: (Units=1/GPa)
#
#
# Indices 1 2 3 4 5 6 
#
# 1 0.009071 -0.002393 0.000413 0.000000 -0.004717 0.000000
# 2 -0.002393 0.010330 -0.003094 0.000000 -0.001620 0.000000
# 3 0.000413 -0.003094 0.007278 0.000000 -0.002909 0.000000
# 4 0.000000 0.000000 0.000000 0.023161 0.000000 -0.008457
# 5 -0.004717 -0.001620 -0.002909 0.000000 0.028105 0.000000
# 6 0.000000 0.000000 0.000000 -0.008457 0.000000 0.021509
#
#
# Mechanical properties :
#
#
# Convention : Reuss Voigt Hill
#
# Bulk Modulus (GPa) = 60.49145 75.45991 67.97568
# Shear Modulus (GPa) = 43.43634 50.45207 46.94420
#
# Velocity S-wave (km/s) = 4.04902 4.36378 4.20935
# Velocity P-wave (km/s) = 6.68516 7.33974 7.02008
#
# Compressibility (1/GPa) = 0.01653126
#
# Stress axis : x y z
#
# Youngs Moduli (GPa) = 110.24455 96.80576 137.40669
#
# Poissons Ratio (x) = 0.23169 -0.05679
# Poissons Ratio (y) = 0.26385 0.42507
# Poissons Ratio (z) = -0.04556 0.29947
#
# Static dielectric constant tensor:
#      x y z
#    x 2.186050 0.000000 -0.011250 
#    y 0.000000 2.050670 0.000000 
#    z -0.011250 0.000000 2.057050 
# 
# From -- ./inp_files/131954.got.cif
#   From: 2010.05.17/outbox.cif.g08.bks.cpg/sg15_66_cif.got.tgz:131954.got - 2010.06.03 18:47:42.
