data_PCOD9293831
_publ_section_title
;
Structure prediction by ZEFSAII (Michael W. Deem and Ramdas Pophale) SiO2 
 PCOD9293831
Probable space group: C 2/C
;
_chemical_formula_sum "Si O2"
_cell_formula_units_Z 56
_cell_length_a 17.471257
_cell_length_b 13.508948
_cell_length_c 19.424649
_cell_angle_alpha 90.000000
_cell_angle_beta 29.545077
_cell_angle_gamma 90.000000
_cell_volume 2260.690167
_symmetry_space_group_name_H-M "C 2/C"
_symmetry_group_IT_number 15
_symmetry_cell_setting 'monoclinic'
loop_
_space_group_symop_operation_xyz
x,y,z
-x,y,1/2-z
-x,-y,-z
x,-y,1/2+z
1/2+x,1/2+y,z
1/2-x,1/2+y,1/2-z
1/2-x,1/2-y,-z
1/2+x,1/2-y,1/2+z
loop_
_atom_site_type_symbol
_atom_site_label
_atom_site_fract_x
_atom_site_fract_y
_atom_site_fract_z
Si Si1 0.697699 0.556098 0.976562
Si Si2 0.471592 0.960372 0.599427
Si Si3 0.000000 0.689479 0.750000
Si Si4 0.000000 0.020712 0.750000
Si Si5 0.742205 0.816446 0.435480
Si Si6 0.392229 0.324940 0.083820
Si Si7 0.039937 0.679646 0.866922
Si Si8 0.280737 0.372351 0.621064
O O1 0.573169 0.545006 0.133286
O O2 0.621159 0.594346 0.966275
O O3 0.840094 0.627915 0.880605
O O4 0.759172 0.446698 0.909818
O O5 0.582521 0.873803 0.541338
O O6 0.298691 0.919941 0.749750
O O7 0.500000 0.000000 0.500000
O O8 0.494101 0.064388 0.622054
O O9 0.983490 0.737044 0.686989
O O10 0.135809 0.095321 0.664552
O O11 0.750000 0.750000 0.500000
O O12 0.782310 0.735342 0.346605
O O13 0.438933 0.224987 0.006732
O O14 0.534128 0.358088 0.019826
O O15 0.219987 0.315461 0.247854
#
# Coordination Sequence:
#
# PCOD9293831 Si02
#       8
#     8   8   4   4   8   8   8   8
#     4  11  25  45  74 102 146 191 244 315 372 459
#     4  12  28  48  77 114 154 212 258 322 395 473
#     4  10  22  48  70 100 136 200 238 300 384 438
#     4  12  26  42  74 114 144 190 250 310 382 466
#     4  12  27  48  78 115 157 204 258 325 398 477
#     4  11  27  46  72 110 146 204 252 312 386 458
#     4  11  26  46  75 105 150 196 254 316 379 463
#     4  12  26  47  74 103 156 195 253 311 392 461
#
# _framework density 24.771196
#
# number of rings (size 3 to 8) (size 9 to 14) (size 15 to 20)
#    0.000    0.571    4.286    3.000    6.000    4.571 
#    0.000    0.000    0.000    0.000    0.000    0.000 
#    0.000    0.000    0.000    0.000    0.000    0.000 
#
# Total GULP energy -156684.117390 kJ/mol
# GULP energy per Si atom -5595.861335 kJ/mol
# Density = 2.471482 g / cm^3
# Si number density = 24.771196 Si / 1000 Ang^3
#
#
#
# Elastic Constant Matrix: (Units=GPa)
#
#
# Indices 1 2 3 4 5 6 
#
# 1 65.1948 1.9912 21.7280 0.0003 5.7376 -0.0001
# 2 1.9912 130.5307 29.9369 0.0001 6.0379 -0.0004
# 3 21.7280 29.9369 107.6017 -0.0002 10.6012 -0.0007
# 4 0.0003 0.0001 -0.0002 14.0943 -0.0003 7.4733
# 5 5.7376 6.0379 10.6012 -0.0003 41.6697 0.0003
# 6 -0.0001 -0.0004 -0.0007 7.4733 0.0003 36.5243
#
#
#
# Elastic Compliance Matrix: (Units=1/GPa)
#
#
# Indices 1 2 3 4 5 6 
#
# 1 0.016574 0.000588 -0.003361 0.000000 -0.001512 0.000000
# 2 0.000588 0.008220 -0.002339 0.000000 -0.000677 0.000000
# 3 -0.003361 -0.002339 0.010815 0.000000 -0.001950 0.000000
# 4 0.000000 0.000000 0.000000 0.079585 0.000001 -0.016284
# 5 -0.001512 -0.000677 -0.001950 0.000001 0.024801 0.000000
# 6 0.000000 0.000000 0.000000 -0.016284 0.000000 0.030711
#
#
# Mechanical properties :
#
#
# Convention : Reuss Voigt Hill
#
# Bulk Modulus (GPa) = 39.39435 45.62658 42.51047
# Shear Modulus (GPa) = 26.40029 35.10240 30.75134
#
# Velocity S-wave (km/s) = 3.26815 3.76848 3.52719
# Velocity P-wave (km/s) = 5.49353 6.11510 5.81263
#
# Compressibility (1/GPa) = 0.02538435
#
# Stress axis : x y z
#
# Youngs Moduli (GPa) = 60.33522 121.65734 92.46293
#
# Poissons Ratio (x) = -0.07154 0.31081
# Poissons Ratio (y) = -0.03548 0.21627
# Poissons Ratio (z) = 0.20281 0.28455
#
# Static dielectric constant tensor:
#      x y z
#    x 2.029260 0.000000 0.018860 
#    y 0.000000 2.039430 0.000000 
#    z 0.018860 0.000000 2.060740 
# 
# From -- ./inp_files/249260.got.cif
#   From: 2010.05.17/outbox.cif.g08.bks.cpg/sg15_125_cif.got.tgz:249260.got - 2010.06.03 18:47:42.
