data_PCOD9293361
_publ_section_title
;
Structure prediction by ZEFSAII (Michael W. Deem and Ramdas Pophale) SiO2 
 PCOD9293361
Probable space group: C 2/C
;
_chemical_formula_sum "Si O2"
_cell_formula_units_Z 32
_cell_length_a 17.315800
_cell_length_b 4.882491
_cell_length_c 12.557998
_cell_angle_alpha 90.000000
_cell_angle_beta 80.051001
_cell_angle_gamma 90.000000
_cell_volume 1045.740356
_symmetry_space_group_name_H-M "C 2/C"
_symmetry_group_IT_number 15
_symmetry_cell_setting 'monoclinic'
loop_
_space_group_symop_operation_xyz
x,y,z
-x,y,1/2-z
-x,-y,-z
x,-y,1/2+z
1/2+x,1/2+y,z
1/2-x,1/2+y,1/2-z
1/2-x,1/2-y,-z
1/2+x,1/2-y,1/2+z
loop_
_atom_site_type_symbol
_atom_site_label
_atom_site_fract_x
_atom_site_fract_y
_atom_site_fract_z
Si Si1 0.638605 0.227228 0.196886
Si Si2 0.456907 0.867026 0.150474
Si Si3 0.205802 0.374140 0.405840
Si Si4 0.382474 0.722227 0.443043
O O1 0.725070 0.345207 0.196740
O O2 0.611631 0.421984 0.107118
O O3 0.573924 0.168214 0.302400
O O4 0.645151 0.921609 0.147028
O O5 0.500000 0.762502 0.250000
O O6 0.375700 0.750339 0.120491
O O7 0.529259 0.813946 0.054739
O O8 0.250000 0.250000 0.500000
O O9 0.177255 0.675675 0.451605
#
# Coordination Sequence:
#
# PCOD9293361 Si02
#       4
#     8   8   8   8
#     4  10  23  43  69 105 141 184 237 297 361 427
#     4  10  23  42  68 105 144 186 238 298 360 425
#     4  10  22  46  76 107 145 193 244 300 363 435
#     4  10  22  45  71 103 141 187 237 295 359 431
#
# _framework density 30.600327
#
# number of rings (size 3 to 8) (size 9 to 14) (size 15 to 20)
#    0.000    2.000    0.000    1.500    0.000   13.000 
#    0.000   47.500    0.000    0.000    0.000    0.000 
#    0.000    0.000    0.000    0.000    0.000    0.000 
#
# Total GULP energy -89211.185959 kJ/mol
# GULP energy per Si atom -5575.699122 kJ/mol
# Density = 3.053068 g / cm^3
# Si number density = 30.600327 Si / 1000 Ang^3
#
#
#
# Elastic Constant Matrix: (Units=GPa)
#
#
# Indices 1 2 3 4 5 6 
#
# 1 329.8410 52.7236 76.3953 0.0000 -12.6604 0.0000
# 2 52.7236 109.0588 64.0698 0.0000 2.1102 0.0000
# 3 76.3953 64.0698 104.9316 0.0000 7.1010 0.0000
# 4 0.0000 0.0000 0.0000 56.2022 0.0000 2.8749
# 5 -12.6604 2.1102 7.1010 0.0000 98.7294 0.0000
# 6 0.0000 0.0000 0.0000 2.8749 0.0000 65.7313
#
#
#
# Elastic Compliance Matrix: (Units=1/GPa)
#
#
# Indices 1 2 3 4 5 6 
#
# 1 0.003697 -0.000300 -0.002553 0.000000 0.000664 0.000000
# 2 -0.000300 0.014333 -0.008551 0.000000 0.000270 0.000000
# 3 -0.002553 -0.008551 0.016701 0.000000 -0.001346 0.000000
# 4 0.000000 0.000000 0.000000 0.017833 0.000000 -0.000780
# 5 0.000664 0.000270 -0.001346 0.000000 0.010305 0.000000
# 6 0.000000 0.000000 0.000000 -0.000780 0.000000 0.015248
#
#
# Mechanical properties :
#
#
# Convention : Reuss Voigt Hill
#
# Bulk Modulus (GPa) = 83.87968 103.35652 93.61810
# Shear Modulus (GPa) = 47.66523 67.50878 57.58701
#
# Velocity S-wave (km/s) = 3.95102 4.70206 4.34280
# Velocity P-wave (km/s) = 6.94873 7.95794 7.47040
#
# Compressibility (1/GPa) = 0.01192184
#
# Stress axis : x y z
#
# Youngs Moduli (GPa) = 270.52517 69.76950 59.87648
#
# Poissons Ratio (x) = 0.02094 0.15286
# Poissons Ratio (y) = 0.08118 0.51202
# Poissons Ratio (z) = 0.69064 0.59662
#
# Static dielectric constant tensor:
#      x y z
#    x 2.448950 0.000000 -0.174740 
#    y 0.000000 2.416480 0.000000 
#    z -0.174740 0.000000 2.677440 
# 
# From -- ./inp_files/201845.got.cif
#   From: 2010.05.17/outbox.cif.g08.bks.cpg/sg15_101_cif.got.tgz:201845.got - 2010.06.03 18:47:42.
