data_PCOD9293819
_publ_section_title
;
Structure prediction by ZEFSAII (Michael W. Deem and Ramdas Pophale) SiO2 
 PCOD9293819
Probable space group: C 2/C
;
_chemical_formula_sum "Si O2"
_cell_formula_units_Z 56
_cell_length_a 8.838603
_cell_length_b 11.228243
_cell_length_c 28.859287
_cell_angle_alpha 90.000000
_cell_angle_beta 71.197768
_cell_angle_gamma 90.000000
_cell_volume 2711.217552
_symmetry_space_group_name_H-M "C 2/C"
_symmetry_group_IT_number 15
_symmetry_cell_setting 'monoclinic'
loop_
_space_group_symop_operation_xyz
x,y,z
-x,y,1/2-z
-x,-y,-z
x,-y,1/2+z
1/2+x,1/2+y,z
1/2-x,1/2+y,1/2-z
1/2-x,1/2-y,-z
1/2+x,1/2-y,1/2+z
loop_
_atom_site_type_symbol
_atom_site_label
_atom_site_fract_x
_atom_site_fract_y
_atom_site_fract_z
Si Si1 0.000000 0.694957 0.750000
Si Si2 0.187231 0.681475 0.316747
Si Si3 0.688985 0.905411 0.316677
Si Si4 0.379667 0.731399 0.092513
Si Si5 0.000000 0.783225 0.250000
Si Si6 0.042094 0.231169 0.584617
Si Si7 0.573851 0.869682 0.994794
Si Si8 0.422634 0.527269 0.457394
O O1 0.133833 0.775255 0.711549
O O2 0.087887 0.616404 0.780067
O O3 0.180329 0.543205 0.331910
O O4 0.089710 0.702954 0.278923
O O5 0.098575 0.761567 0.363869
O O6 0.629868 0.812893 0.361327
O O7 0.869567 0.866343 0.287526
O O8 0.201650 0.711098 0.090205
O O9 0.462052 0.603360 0.087197
O O10 0.489864 0.801410 0.045016
O O11 0.975513 0.298274 0.546253
O O12 0.100060 0.099995 0.564330
O O13 0.762053 0.895974 0.980226
O O14 0.500000 0.000000 0.000000
O O15 0.500000 0.500000 0.500000
#
# Coordination Sequence:
#
# PCOD9293819 Si02
#       8
#     4   8   8   8   4   8   8   8
#     4  10  26  44  70 104 132 178 230 282 346 414
#     4  11  24  44  72  99 138 177 228 285 346 408
#     4  11  24  45  70 101 136 176 227 284 347 404
#     4  12  25  45  69 102 138 185 233 282 345 409
#     4  10  22  48  66 100 132 178 228 280 352 408
#     4  12  26  45  68 103 139 185 230 283 345 408
#     4  12  24  44  71  97 142 181 229 283 342 411
#     4  12  27  46  69 100 143 186 230 286 338 417
#
# _framework density 20.654927000000001
#
# number of rings (size 3 to 8) (size 9 to 14) (size 15 to 20)
#    0.000    0.571    4.286    3.429    2.000    1.143 
#   10.286    0.000    0.000    0.000    0.000    0.000 
#    0.000    0.000    0.000    0.000    0.000    0.000 
#
# Total GULP energy -156625.305506 kJ/mol
# GULP energy per Si atom -5593.760911 kJ/mol
# Density = 2.060792 g / cm^3
# Si number density = 20.654927 Si / 1000 Ang^3
#
#
#
# Elastic Constant Matrix: (Units=GPa)
#
#
# Indices 1 2 3 4 5 6 
#
# 1 108.7621 10.9564 20.2134 0.0000 -24.2264 0.0000
# 2 10.9564 50.4477 1.4881 0.0000 -4.3317 0.0000
# 3 20.2134 1.4881 91.6095 0.0000 -20.2195 0.0000
# 4 0.0000 0.0000 0.0000 13.4232 0.0000 11.0730
# 5 -24.2264 -4.3317 -20.2195 0.0000 28.6538 0.0000
# 6 0.0000 0.0000 0.0000 11.0730 0.0000 11.8478
#
#
#
# Elastic Compliance Matrix: (Units=1/GPa)
#
#
# Indices 1 2 3 4 5 6 
#
# 1 0.011486 -0.001698 -0.000497 0.000000 0.009103 0.000000
# 2 -0.001698 0.020347 0.000481 0.000000 0.001980 0.000000
# 3 -0.000497 0.000481 0.012959 0.000000 0.008797 0.000000
# 4 0.000000 0.000000 0.000000 0.325273 0.000000 -0.304001
# 5 0.009103 0.001980 0.008797 0.000000 0.049103 0.000000
# 6 0.000000 0.000000 0.000000 -0.304001 0.000000 0.368524
#
#
# Mechanical properties :
#
#
# Convention : Reuss Voigt Hill
#
# Bulk Modulus (GPa) = 24.17613 35.12611 29.65112
# Shear Modulus (GPa) = 6.21189 25.32904 15.77046
#
# Velocity S-wave (km/s) = 1.73608 3.50565 2.76619
# Velocity P-wave (km/s) = 3.96848 5.78180 4.95873
#
# Compressibility (1/GPa) = 0.04136312
#
# Stress axis : x y z
#
# Youngs Moduli (GPa) = 87.06547 49.14703 77.16366
#
# Poissons Ratio (x) = 0.08346 0.03839
# Poissons Ratio (y) = 0.14785 -0.03712
# Poissons Ratio (z) = 0.04331 -0.02364
#
# Static dielectric constant tensor:
#      x y z
#    x 1.928320 0.000000 0.014090 
#    y 0.000000 1.764450 0.000000 
#    z 0.014090 0.000000 1.734710 
# 
# From -- ./inp_files/288004.got.cif
#   From: 2010.05.17/outbox.cif.g08.bks.cpg/sg15_145_cif.got.tgz:288004.got - 2010.06.03 18:47:42.
