data_PCOD9293110
_publ_section_title
;
Structure prediction by ZEFSAII (Michael W. Deem and Ramdas Pophale) SiO2 
 PCOD9293110
Probable space group: C 2/C
;
_chemical_formula_sum "Si O2"
_cell_formula_units_Z 44
_cell_length_a 17.332862
_cell_length_b 21.023451
_cell_length_c 5.261654
_cell_angle_alpha 90.000000
_cell_angle_beta 110.690399
_cell_angle_gamma 90.000000
_cell_volume 1793.667225
_symmetry_space_group_name_H-M "C 2/C"
_symmetry_group_IT_number 15
_symmetry_cell_setting 'monoclinic'
loop_
_space_group_symop_operation_xyz
x,y,z
-x,y,1/2-z
-x,-y,-z
x,-y,1/2+z
1/2+x,1/2+y,z
1/2-x,1/2+y,1/2-z
1/2-x,1/2-y,-z
1/2+x,1/2-y,1/2+z
loop_
_atom_site_type_symbol
_atom_site_label
_atom_site_fract_x
_atom_site_fract_y
_atom_site_fract_z
Si Si1 0.083624 0.680907 0.006631
Si Si2 0.500000 0.543715 0.250000
Si Si3 0.795906 0.960727 0.972406
Si Si4 0.401133 0.961370 0.785742
Si Si5 0.882519 0.144740 0.289756
Si Si6 0.500000 0.272702 0.250000
Si Si7 0.250000 0.750000 0.000000
O O1 0.000000 0.692697 0.750000
O O2 0.074160 0.608860 0.096209
O O3 0.169661 0.699049 0.970835
O O4 0.073388 0.728544 0.231744
O O5 0.500000 0.500000 0.500000
O O6 0.422575 0.591311 0.161510
O O7 0.697761 0.954461 0.843679
O O8 0.838842 0.893760 0.968267
O O9 0.816315 0.006487 0.759990
O O10 0.423206 0.987128 0.530621
O O11 0.958449 0.183994 0.490684
O O12 0.816049 0.191522 0.090958
#
# Coordination Sequence:
#
# PCOD9293110 Si02
#       7
#     8   4   8   8   8   4   4
#     4  12  27  52  77 116 163 210 279 336 417 501
#     4  12  27  50  84 120 165 220 280 366 430 498
#     4  10  22  44  73 109 148 195 260 332 397 477
#     4  10  24  46  77 111 151 204 267 338 407 478
#     4  12  25  49  76 118 157 214 273 333 418 502
#     4  12  29  50  78 116 163 220 274 340 406 514
#     4  12  26  50  78 118 164 222 264 342 418 508
#
# _framework density 24.530749
#
# number of rings (size 3 to 8) (size 9 to 14) (size 15 to 20)
#    0.000    0.727    3.636    2.727    2.545    4.364 
#    6.545    0.000    0.000    0.000    0.000    0.000 
#    0.000    0.000    0.000    0.000    0.000    0.000 
#
# Total GULP energy -122679.315752 kJ/mol
# GULP energy per Si atom -5576.332534 kJ/mol
# Density = 2.447492 g / cm^3
# Si number density = 24.530749 Si / 1000 Ang^3
#
#
#
# Elastic Constant Matrix: (Units=GPa)
#
#
# Indices 1 2 3 4 5 6 
#
# 1 151.9996 64.9988 48.3514 0.0000 10.0613 0.0000
# 2 64.9988 185.8519 65.7790 0.0000 -7.4316 0.0000
# 3 48.3514 65.7790 100.8369 0.0000 -12.3270 0.0000
# 4 0.0000 0.0000 0.0000 36.7892 0.0000 10.8154
# 5 10.0613 -7.4316 -12.3270 0.0000 38.2448 0.0000
# 6 0.0000 0.0000 0.0000 10.8154 0.0000 43.8917
#
#
#
# Elastic Compliance Matrix: (Units=1/GPa)
#
#
# Indices 1 2 3 4 5 6 
#
# 1 0.008759 -0.002034 -0.003335 0.000000 -0.003774 0.000000
# 2 -0.002034 0.007469 -0.003804 0.000000 0.000760 0.000000
# 3 -0.003335 -0.003804 0.014589 0.000000 0.004840 0.000000
# 4 0.000000 0.000000 0.000000 0.029305 0.000000 -0.007221
# 5 -0.003774 0.000760 0.004840 0.000000 0.028848 0.000000
# 6 0.000000 0.000000 0.000000 -0.007221 0.000000 0.024563
#
#
# Mechanical properties :
#
#
# Convention : Reuss Voigt Hill
#
# Bulk Modulus (GPa) = 80.17908 88.54965 84.36436
# Shear Modulus (GPa) = 36.75518 41.08908 38.92213
#
# Velocity S-wave (km/s) = 3.87503 4.09712 3.98762
# Velocity P-wave (km/s) = 7.26479 7.65230 7.46106
#
# Compressibility (1/GPa) = 0.01247208
#
# Stress axis : x y z
#
# Youngs Moduli (GPa) = 114.16281 133.89183 68.54489
#
# Poissons Ratio (x) = 0.27236 0.22857
# Poissons Ratio (y) = 0.23223 0.26073
# Poissons Ratio (z) = 0.38069 0.50929
#
# Static dielectric constant tensor:
#      x y z
#    x 2.002420 0.000000 -0.032750 
#    y 0.000000 1.916810 0.000000 
#    z -0.032750 0.000000 1.973970 
# 
# From -- ./inp_files/12981.got.cif
#   From: 2010.05.17/outbox.cif.g08.bks.cpg/sg15_7_cif.got.tgz:12981.got - 2010.06.03 18:47:42.
