data_PCOD9293403
_publ_section_title
;
Structure prediction by ZEFSAII (Michael W. Deem and Ramdas Pophale) SiO2 
 PCOD9293403
Probable space group: C 2/C
;
_chemical_formula_sum "Si O2"
_cell_formula_units_Z 44
_cell_length_a 11.803076
_cell_length_b 28.462337
_cell_length_c 7.832661
_cell_angle_alpha 90.000000
_cell_angle_beta 53.446776
_cell_angle_gamma 90.000000
_cell_volume 2113.756713
_symmetry_space_group_name_H-M "C 2/C"
_symmetry_group_IT_number 15
_symmetry_cell_setting 'monoclinic'
loop_
_space_group_symop_operation_xyz
x,y,z
-x,y,1/2-z
-x,-y,-z
x,-y,1/2+z
1/2+x,1/2+y,z
1/2-x,1/2+y,1/2-z
1/2-x,1/2-y,-z
1/2+x,1/2-y,1/2+z
loop_
_atom_site_type_symbol
_atom_site_label
_atom_site_fract_x
_atom_site_fract_y
_atom_site_fract_z
Si Si1 0.284559 0.849809 0.702435
Si Si2 0.500000 0.109863 0.250000
Si Si3 0.922374 0.453434 0.142346
Si Si4 0.973982 0.831984 0.080568
Si Si5 0.848202 0.084923 0.460921
Si Si6 0.885869 0.256128 0.490285
O O1 0.359613 0.864643 0.809424
O O2 0.244115 0.892309 0.610773
O O3 0.390183 0.810477 0.536200
O O4 0.132696 0.826569 0.867983
O O5 0.450337 0.082115 0.462924
O O6 0.755570 0.450896 0.344563
O O7 0.000000 0.441834 0.250000
O O8 0.000000 0.500000 0.000000
O O9 0.892515 0.871403 0.043788
O O10 0.000000 0.847488 0.250000
O O11 0.896914 0.781780 0.131627
O O12 0.000000 0.066998 0.250000
O O13 0.750000 0.250000 0.500000
O O14 0.000000 0.243077 0.250000
#
# Coordination Sequence:
#
# PCOD9293403 Si02
#       6
#     8   4   8   8   8   8
#     4  11  24  41  65 101 135 188 241 287 348 418
#     4  12  26  42  74 106 138 184 246 292 370 430
#     4  12  25  47  75 106 142 176 230 304 364 434
#     4  11  23  41  63  94 144 185 240 293 346 415
#     4  10  22  45  72  98 139 192 229 286 364 430
#     4  12  23  40  61  92 138 190 238 293 344 395
#
# _framework density 20.816019000000001
#
# number of rings (size 3 to 8) (size 9 to 14) (size 15 to 20)
#    0.000    0.727    6.364    1.636    3.818    2.182 
#    0.000    0.909    0.000    0.000    0.000    0.000 
#    0.000    0.000    0.000    0.000    0.000    0.000 
#
# Total GULP energy -122589.595920 kJ/mol
# GULP energy per Si atom -5572.254360 kJ/mol
# Density = 2.076864 g / cm^3
# Si number density = 20.816019 Si / 1000 Ang^3
#
#
#
# Elastic Constant Matrix: (Units=GPa)
#
#
# Indices 1 2 3 4 5 6 
#
# 1 156.2174 40.6950 38.4436 0.0000 5.1152 0.0000
# 2 40.6950 52.4864 25.5199 0.0000 -7.5695 0.0000
# 3 38.4436 25.5199 99.7539 0.0000 -9.7603 0.0000
# 4 0.0000 0.0000 0.0000 40.0221 0.0000 3.4298
# 5 5.1152 -7.5695 -9.7603 0.0000 45.1388 0.0000
# 6 0.0000 0.0000 0.0000 3.4298 0.0000 23.0645
#
#
#
# Elastic Compliance Matrix: (Units=1/GPa)
#
#
# Indices 1 2 3 4 5 6 
#
# 1 0.008531 -0.005993 -0.001989 0.000000 -0.002402 0.000000
# 2 -0.005993 0.026249 -0.003993 0.000000 0.004218 0.000000
# 3 -0.001989 -0.003993 0.012024 0.000000 0.002156 0.000000
# 4 0.000000 0.000000 0.000000 0.025309 0.000000 -0.003764
# 5 -0.002402 0.004218 0.002156 0.000000 0.023599 0.000000
# 6 0.000000 0.000000 0.000000 -0.003764 0.000000 0.043916
#
#
# Mechanical properties :
#
#
# Convention : Reuss Voigt Hill
#
# Bulk Modulus (GPa) = 43.75900 57.53052 50.64476
# Shear Modulus (GPa) = 29.20609 35.23170 32.21889
#
# Velocity S-wave (km/s) = 3.74981 4.11850 3.93847
# Velocity P-wave (km/s) = 6.30995 7.09321 6.71301
#
# Compressibility (1/GPa) = 0.02285244
#
# Stress axis : x y z
#
# Youngs Moduli (GPa) = 117.22141 38.09635 83.16874
#
# Poissons Ratio (x) = 0.22833 0.16545
# Poissons Ratio (y) = 0.70256 0.33208
# Poissons Ratio (z) = 0.23320 0.15211
#
# Static dielectric constant tensor:
#      x y z
#    x 1.786120 0.000000 0.107070 
#    y 0.000000 1.590710 0.000000 
#    z 0.107070 0.000000 2.141170 
# 
# From -- ./inp_files/34020.got.cif
#   From: 2010.05.17/outbox.cif.g08.bks.cpg/sg15_18_cif.got.tgz:34020.got - 2010.06.03 18:47:42.
