data_PCOD9293745
_publ_section_title
;
Structure prediction by ZEFSAII (Michael W. Deem and Ramdas Pophale) SiO2 
 PCOD9293745
Probable space group: C 2/C
;
_chemical_formula_sum "Si O2"
_cell_formula_units_Z 52
_cell_length_a 27.767601
_cell_length_b 12.038089
_cell_length_c 9.593954
_cell_angle_alpha 90.000000
_cell_angle_beta 127.031660
_cell_angle_gamma 90.000000
_cell_volume 2560.125277
_symmetry_space_group_name_H-M "C 2/C"
_symmetry_group_IT_number 15
_symmetry_cell_setting 'monoclinic'
loop_
_space_group_symop_operation_xyz
x,y,z
-x,y,1/2-z
-x,-y,-z
x,-y,1/2+z
1/2+x,1/2+y,z
1/2-x,1/2+y,1/2-z
1/2-x,1/2-y,-z
1/2+x,1/2-y,1/2+z
loop_
_atom_site_type_symbol
_atom_site_label
_atom_site_fract_x
_atom_site_fract_y
_atom_site_fract_z
Si Si1 0.053885 0.052537 0.183055
Si Si2 0.000000 0.745444 0.750000
Si Si3 0.406780 0.909630 0.926598
Si Si4 0.682069 0.287687 0.545364
Si Si5 0.312105 0.272959 0.278098
Si Si6 0.630369 0.503916 0.060902
Si Si7 0.070902 0.630182 0.360762
O O1 0.034843 0.173223 0.204095
O O2 0.074110 0.986972 0.356496
O O3 0.110151 0.043216 0.177614
O O4 0.000000 0.000000 0.000000
O O5 0.957022 0.668721 0.583945
O O6 0.344718 0.845511 0.856132
O O7 0.416605 0.909262 0.777012
O O8 0.414609 0.029774 0.008464
O O9 0.685401 0.290338 0.384080
O O10 0.742626 0.227818 0.702581
O O11 0.681018 0.412797 0.597437
O O12 0.619328 0.227391 0.474140
O O13 0.348874 0.376306 0.404151
O O14 0.000000 0.661167 0.250000
#
# Coordination Sequence:
#
# PCOD9293745 Si02
#       7
#     8   4   8   8   8   8   8
#     4  12  23  39  65 100 133 172 214 265 336 395
#     4  12  24  40  68  96 138 176 210 272 332 392
#     4  11  24  43  67  94 132 174 219 269 330 388
#     4  10  25  42  69  95 130 177 222 271 334 397
#     4  10  22  47  66  93 133 177 218 275 334 391
#     4  12  23  42  67 100 131 169 221 277 331 401
#     4  11  25  43  66  97 132 174 219 272 326 397
#
# _framework density 20.311506000000001
#
# number of rings (size 3 to 8) (size 9 to 14) (size 15 to 20)
#    0.000    0.923    5.385    0.462    6.462    0.000 
#    0.000    0.769    0.000    0.000    0.000    0.000 
#    0.000    0.000    0.000    0.000    0.000    0.000 
#
# Total GULP energy -145226.093241 kJ/mol
# GULP energy per Si atom -5585.618971 kJ/mol
# Density = 2.026528 g / cm^3
# Si number density = 20.311506 Si / 1000 Ang^3
#
#
#
# Elastic Constant Matrix: (Units=GPa)
#
#
# Indices 1 2 3 4 5 6 
#
# 1 83.9499 28.8409 23.8831 0.0000 26.1320 0.0000
# 2 28.8409 49.9706 5.1563 0.0000 10.1218 0.0000
# 3 23.8831 5.1563 71.7166 0.0000 1.4036 0.0000
# 4 0.0000 0.0000 0.0000 22.5180 0.0000 -1.4701
# 5 26.1320 10.1218 1.4036 0.0000 26.6165 0.0000
# 6 0.0000 0.0000 0.0000 -1.4701 0.0000 26.6475
#
#
#
# Elastic Compliance Matrix: (Units=1/GPa)
#
#
# Indices 1 2 3 4 5 6 
#
# 1 0.022433 -0.008543 -0.006496 0.000000 -0.018433 0.000000
# 2 -0.008543 0.025077 0.001066 0.000000 -0.001205 0.000000
# 3 -0.006496 0.001066 0.015930 0.000000 0.005132 0.000000
# 4 0.000000 0.000000 0.000000 0.044569 0.000000 0.002459
# 5 -0.018433 -0.001205 0.005132 0.000000 0.055856 0.000000
# 6 0.000000 0.000000 0.000000 0.002459 0.000000 0.037663
#
#
# Mechanical properties :
#
#
# Convention : Reuss Voigt Hill
#
# Bulk Modulus (GPa) = 28.17460 35.71087 31.94273
# Shear Modulus (GPa) = 20.72076 25.00684 22.86380
#
# Velocity S-wave (km/s) = 3.19744 3.51260 3.35872
# Velocity P-wave (km/s) = 5.24718 5.83703 5.54995
#
# Compressibility (1/GPa) = 0.03549296
#
# Stress axis : x y z
#
# Youngs Moduli (GPa) = 44.57796 39.87776 62.77518
#
# Poissons Ratio (x) = 0.34068 0.40776
# Poissons Ratio (y) = 0.38084 -0.06690
# Poissons Ratio (z) = 0.28956 -0.04250
#
# Static dielectric constant tensor:
#      x y z
#    x 1.819270 0.000000 0.073620 
#    y 0.000000 1.713380 0.000000 
#    z 0.073620 0.000000 1.760340 
# 
# From -- ./inp_files/65601.got.cif
#   From: 2010.05.17/outbox.cif.g08.bks.cpg/sg15_33_cif.got.tgz:65601.got - 2010.06.03 18:47:42.
