data_PCOD9293484
_publ_section_title
;
Structure prediction by ZEFSAII (Michael W. Deem and Ramdas Pophale) SiO2 
 PCOD9293484
Probable space group: C 2/C
;
_chemical_formula_sum "Si O2"
_cell_formula_units_Z 36
_cell_length_a 7.956415
_cell_length_b 13.679670
_cell_length_c 16.233610
_cell_angle_alpha 90.000000
_cell_angle_beta 90.534769
_cell_angle_gamma 90.000000
_cell_volume 1766.807523
_symmetry_space_group_name_H-M "C 2/C"
_symmetry_group_IT_number 15
_symmetry_cell_setting 'monoclinic'
loop_
_space_group_symop_operation_xyz
x,y,z
-x,y,1/2-z
-x,-y,-z
x,-y,1/2+z
1/2+x,1/2+y,z
1/2-x,1/2+y,1/2-z
1/2-x,1/2-y,-z
1/2+x,1/2-y,1/2+z
loop_
_atom_site_type_symbol
_atom_site_label
_atom_site_fract_x
_atom_site_fract_y
_atom_site_fract_z
Si Si1 0.000000 0.458995 0.250000
Si Si2 0.182075 0.726686 0.589734
Si Si3 0.617519 0.998187 0.580808
Si Si4 0.186907 0.809256 0.242414
Si Si5 0.194745 0.197821 0.415604
O O1 0.979122 0.519527 0.333581
O O2 0.836440 0.389340 0.237266
O O3 0.250000 0.750000 0.500000
O O4 0.178660 0.608956 0.589852
O O5 0.282247 0.751724 0.673309
O O6 0.999677 0.775440 0.597793
O O7 0.759830 0.916012 0.574960
O O8 0.500000 0.000000 0.500000
O O9 0.206416 0.743454 0.161385
O O10 0.000000 0.852497 0.250000
O O11 0.250000 0.250000 0.500000
#
# Coordination Sequence:
#
# PCOD9293484 Si02
#       5
#     4   8   8   8   8
#     4  10  22  46  64 100 146 170 244 296 336 434
#     4  11  24  44  66 101 143 177 239 295 346 430
#     4  11  23  40  68 101 134 187 229 287 357 415
#     4  11  22  42  70  96 135 190 227 284 364 412
#     4  12  22  41  68  99 139 187 230 290 359 417
#
# _framework density 20.375734000000001
#
# number of rings (size 3 to 8) (size 9 to 14) (size 15 to 20)
#    0.000    0.889    6.667    1.333    1.556    0.889 
#    0.000   11.111    0.000    0.000    0.000    0.000 
#    0.000    0.000    0.000    0.000    0.000    0.000 
#
# Total GULP energy -100468.670989 kJ/mol
# GULP energy per Si atom -5581.592833 kJ/mol
# Density = 2.032936 g / cm^3
# Si number density = 20.375734 Si / 1000 Ang^3
#
#
#
# Elastic Constant Matrix: (Units=GPa)
#
#
# Indices 1 2 3 4 5 6 
#
# 1 141.2031 42.8832 27.7420 0.0000 -0.5666 0.0000
# 2 42.8832 114.3094 30.7008 0.0000 -4.9695 0.0000
# 3 27.7420 30.7008 187.7847 0.0000 -10.1144 0.0000
# 4 0.0000 0.0000 0.0000 31.2851 0.0000 -5.5354
# 5 -0.5666 -4.9695 -10.1144 0.0000 37.2356 0.0000
# 6 0.0000 0.0000 0.0000 -5.5354 0.0000 32.2958
#
#
#
# Elastic Compliance Matrix: (Units=1/GPa)
#
#
# Indices 1 2 3 4 5 6 
#
# 1 0.008095 -0.002854 -0.000754 0.000000 -0.000463 0.000000
# 2 -0.002854 0.010182 -0.001189 0.000000 0.000992 0.000000
# 3 -0.000754 -0.001189 0.005705 0.000000 0.001380 0.000000
# 4 0.000000 0.000000 0.000000 0.032964 0.000000 0.005650
# 5 -0.000463 0.000992 0.001380 0.000000 0.027356 0.000000
# 6 0.000000 0.000000 0.000000 0.005650 0.000000 0.031932
#
#
# Mechanical properties :
#
#
# Convention : Reuss Voigt Hill
#
# Bulk Modulus (GPa) = 69.51154 71.77213 70.64183
# Shear Modulus (GPa) = 38.27721 42.96135 40.61928
#
# Velocity S-wave (km/s) = 4.33895 4.59677 4.46972
# Velocity P-wave (km/s) = 7.70006 7.96709 7.83471
#
# Compressibility (1/GPa) = 0.01438610
#
# Stress axis : x y z
#
# Youngs Moduli (GPa) = 123.52974 98.21596 175.27159
#
# Poissons Ratio (x) = 0.28036 0.13219
# Poissons Ratio (y) = 0.35261 0.20848
# Poissons Ratio (z) = 0.09316 0.11682
#
# Static dielectric constant tensor:
#      x y z
#    x 1.736490 0.000000 -0.008920 
#    y 0.000000 1.768910 0.000000 
#    z -0.008920 0.000000 1.787510 
# 
# From -- ./inp_files/132862.got.cif
#   From: 2010.05.17/outbox.cif.g08.bks.cpg/sg15_67_cif.got.tgz:132862.got - 2010.06.03 18:47:42.
