data_PCOD9293299
_publ_section_title
;
Structure prediction by ZEFSAII (Michael W. Deem and Ramdas Pophale) SiO2 
 PCOD9293299
Probable space group: C 2/C
;
_chemical_formula_sum "Si O2"
_cell_formula_units_Z 52
_cell_length_a 19.093705
_cell_length_b 7.513259
_cell_length_c 27.932453
_cell_angle_alpha 90.000000
_cell_angle_beta 33.139901
_cell_angle_gamma 90.000000
_cell_volume 2190.609553
_symmetry_space_group_name_H-M "C 2/C"
_symmetry_group_IT_number 15
_symmetry_cell_setting 'monoclinic'
loop_
_space_group_symop_operation_xyz
x,y,z
-x,y,1/2-z
-x,-y,-z
x,-y,1/2+z
1/2+x,1/2+y,z
1/2-x,1/2+y,1/2-z
1/2-x,1/2-y,-z
1/2+x,1/2-y,1/2+z
loop_
_atom_site_type_symbol
_atom_site_label
_atom_site_fract_x
_atom_site_fract_y
_atom_site_fract_z
Si Si1 0.314081 0.801683 0.901058
Si Si2 0.910486 0.454902 0.936601
Si Si3 0.806719 0.450101 0.232741
Si Si4 0.299437 0.398743 0.793020
Si Si5 0.500000 0.544491 0.750000
Si Si6 0.922334 0.735730 0.013513
Si Si7 0.167095 0.897275 0.901779
O O1 0.355072 0.956906 0.913984
O O2 0.425951 0.656977 0.833208
O O3 0.295393 0.852250 0.856659
O O4 0.179197 0.705746 0.992009
O O5 0.064147 0.432733 0.846367
O O6 0.898107 0.625233 0.978979
O O7 0.734366 0.442618 0.223676
O O8 0.845955 0.260491 0.231996
O O9 0.707509 0.526277 0.327895
O O10 0.397413 0.433509 0.779149
O O11 0.169694 0.341469 0.893497
O O12 0.892583 0.947342 0.030124
O O13 0.067149 0.739005 0.950349
#
# Coordination Sequence:
#
# PCOD9293299 Si02
#       7
#     8   8   8   8   4   8   8
#     4  11  25  43  69 101 142 185 234 284 357 410
#     4  11  24  43  67 105 135 185 229 289 348 424
#     4  11  25  43  71 103 133 179 236 285 350 425
#     4  11  26  44  71  99 138 183 233 287 352 411
#     4  12  26  48  68  98 146 190 228 298 342 418
#     4  10  22  45  69 103 141 180 236 285 358 419
#     4  10  23  44  70 105 139 185 229 295 347 428
#
# _framework density 23.737686
#
# number of rings (size 3 to 8) (size 9 to 14) (size 15 to 20)
#    0.000    1.231    1.538    2.769    6.462    4.308 
#   11.077    0.000    0.000    0.000    0.000    0.000 
#    0.000    0.000    0.000    0.000    0.000    0.000 
#
# Total GULP energy -145269.003371 kJ/mol
# GULP energy per Si atom -5587.269360 kJ/mol
# Density = 2.368366 g / cm^3
# Si number density = 23.737686 Si / 1000 Ang^3
#
#
#
# Elastic Constant Matrix: (Units=GPa)
#
#
# Indices 1 2 3 4 5 6 
#
# 1 147.6947 63.6289 48.8420 -0.0202 7.8895 0.0295
# 2 63.6289 84.4455 26.9905 -0.0342 2.2527 0.0096
# 3 48.8420 26.9905 101.9690 0.0064 4.2829 -0.0030
# 4 -0.0202 -0.0342 0.0064 23.7359 -0.0020 -1.9336
# 5 7.8895 2.2527 4.2829 -0.0020 25.5153 -0.0049
# 6 0.0295 0.0096 -0.0030 -1.9336 -0.0049 33.0623
#
#
#
# Elastic Compliance Matrix: (Units=1/GPa)
#
#
# Indices 1 2 3 4 5 6 
#
# 1 0.011109 -0.007254 -0.003307 -0.000001 -0.002239 -0.000009
# 2 -0.007254 0.017681 -0.001243 0.000020 0.000890 0.000003
# 3 -0.003307 -0.001243 0.011755 -0.000008 -0.000841 0.000004
# 4 -0.000001 0.000020 -0.000008 0.042332 0.000004 0.002476
# 5 -0.002239 0.000890 -0.000841 0.000004 0.039947 0.000008
# 6 -0.000009 0.000003 0.000004 0.002476 0.000008 0.030391
#
#
# Mechanical properties :
#
#
# Convention : Reuss Voigt Hill
#
# Bulk Modulus (GPa) = 59.03948 68.11466 63.57707
# Shear Modulus (GPa) = 27.40195 29.43922 28.42059
#
# Velocity S-wave (km/s) = 3.40128 3.52545 3.46392
# Velocity P-wave (km/s) = 6.35221 6.73267 6.54520
#
# Compressibility (1/GPa) = 0.01693782
#
# Stress axis : x y z
#
# Youngs Moduli (GPa) = 90.01723 56.55742 85.06845
#
# Poissons Ratio (x) = 0.41026 0.28132
# Poissons Ratio (y) = 0.65297 0.10574
# Poissons Ratio (z) = 0.29769 0.07030
#
# Static dielectric constant tensor:
#      x y z
#    x 1.928360 0.000000 -0.010620 
#    y 0.000000 2.015920 0.000010 
#    z -0.010620 0.000010 1.913230 
# 
# From -- ./inp_files/298342.got.cif
#   From: 2010.05.17/outbox.cif.g08.bks.cpg/sg15_150_cif.got.tgz:298342.got - 2010.06.03 18:47:42.
