data_PCOD9293619
_publ_section_title
;
Structure prediction by ZEFSAII (Michael W. Deem and Ramdas Pophale) SiO2 
 PCOD9293619
Probable space group: C 2/C
;
_chemical_formula_sum "Si O2"
_cell_formula_units_Z 44
_cell_length_a 21.083474
_cell_length_b 8.607241
_cell_length_c 11.553902
_cell_angle_alpha 90.000000
_cell_angle_beta 62.470331
_cell_angle_gamma 90.000000
_cell_volume 1859.287701
_symmetry_space_group_name_H-M "C 2/C"
_symmetry_group_IT_number 15
_symmetry_cell_setting 'monoclinic'
loop_
_space_group_symop_operation_xyz
x,y,z
-x,y,1/2-z
-x,-y,-z
x,-y,1/2+z
1/2+x,1/2+y,z
1/2-x,1/2+y,1/2-z
1/2-x,1/2-y,-z
1/2+x,1/2-y,1/2+z
loop_
_atom_site_type_symbol
_atom_site_label
_atom_site_fract_x
_atom_site_fract_y
_atom_site_fract_z
Si Si1 0.000000 0.984803 0.250000
Si Si2 0.097428 0.756773 0.744048
Si Si3 0.657875 0.785558 0.755514
Si Si4 0.992242 0.259413 0.550252
Si Si5 0.401338 0.944748 0.906790
Si Si6 0.289324 0.899682 0.206889
O O1 0.071541 0.091858 0.196935
O O2 0.998247 0.884575 0.369472
O O3 0.094017 0.605529 0.665426
O O4 0.173408 0.734640 0.745665
O O5 0.039110 0.753476 0.896460
O O6 0.591686 0.780687 0.899910
O O7 0.618295 0.807065 0.666931
O O8 0.710952 0.645621 0.732309
O O9 0.704982 0.941027 0.727200
O O10 0.024538 0.405207 0.593178
O O11 0.339475 0.931291 0.054239
#
# Coordination Sequence:
#
# PCOD9293619 Si02
#       6
#     4   8   8   8   8   8
#     4  12  24  42  66 102 140 172 220 294 340 390
#     4  10  26  43  69 103 131 178 232 279 339 404
#     4  11  23  42  65  96 137 179 226 276 344 404
#     4  11  24  44  69 102 137 174 229 290 335 399
#     4  10  22  46  70  97 130 182 230 280 342 406
#     4  10  25  42  67  97 137 180 225 279 338 413
#
# _framework density 23.664978000000001
#
# number of rings (size 3 to 8) (size 9 to 14) (size 15 to 20)
#    0.000    1.455    1.818    1.091   10.182    3.636 
#    0.000    5.455    0.000    0.000    0.000    0.000 
#    0.000    0.000    0.000    0.000    0.000    0.000 
#
# Total GULP energy -123116.545788 kJ/mol
# GULP energy per Si atom -5596.206627 kJ/mol
# Density = 2.361112 g / cm^3
# Si number density = 23.664978 Si / 1000 Ang^3
#
#
#
# Elastic Constant Matrix: (Units=GPa)
#
#
# Indices 1 2 3 4 5 6 
#
# 1 126.2390 45.4950 34.6312 0.0000 -8.4913 0.0000
# 2 45.4950 79.8440 16.5731 0.0000 8.2473 0.0000
# 3 34.6312 16.5731 58.5013 0.0000 10.4809 0.0000
# 4 0.0000 0.0000 0.0000 24.2232 0.0000 11.2924
# 5 -8.4913 8.2473 10.4809 0.0000 29.4722 0.0000
# 6 0.0000 0.0000 0.0000 11.2924 0.0000 60.1369
#
#
#
# Elastic Compliance Matrix: (Units=1/GPa)
#
#
# Indices 1 2 3 4 5 6 
#
# 1 0.012833 -0.006663 -0.007162 0.000000 0.008109 0.000000
# 2 -0.006663 0.016948 0.000360 0.000000 -0.006790 0.000000
# 3 -0.007162 0.000360 0.023090 0.000000 -0.010375 0.000000
# 4 0.000000 0.000000 0.000000 0.045243 0.000000 -0.008496
# 5 0.008109 -0.006790 -0.010375 0.000000 0.041856 0.000000
# 6 0.000000 0.000000 0.000000 -0.008496 0.000000 0.018224
#
#
# Mechanical properties :
#
#
# Convention : Reuss Voigt Hill
#
# Bulk Modulus (GPa) = 38.55007 50.88697 44.71852
# Shear Modulus (GPa) = 25.80350 33.95879 29.88115
#
# Velocity S-wave (km/s) = 3.30565 3.79222 3.55727
# Velocity P-wave (km/s) = 5.55833 6.38156 5.98412
#
# Compressibility (1/GPa) = 0.02594029
#
# Stress axis : x y z
#
# Youngs Moduli (GPa) = 77.92420 59.00459 43.30844
#
# Poissons Ratio (x) = 0.39316 0.31017
# Poissons Ratio (y) = 0.51923 -0.01558
# Poissons Ratio (z) = 0.55808 -0.02123
#
# Static dielectric constant tensor:
#      x y z
#    x 1.898160 0.000000 0.047320 
#    y 0.000000 1.955390 0.000000 
#    z 0.047320 0.000000 1.914500 
# 
# From -- ./inp_files/109979.got.cif
#   From: 2010.05.17/outbox.cif.g08.bks.cpg/sg15_55_cif.got.tgz:109979.got - 2010.06.03 18:47:42.
