data_PCOD9293818
_publ_section_title
;
Structure prediction by ZEFSAII (Michael W. Deem and Ramdas Pophale) SiO2 
 PCOD9293818
Probable space group: C 2/C
;
_chemical_formula_sum "Si O2"
_cell_formula_units_Z 56
_cell_length_a 11.694222
_cell_length_b 8.818527
_cell_length_c 30.364451
_cell_angle_alpha 90.000000
_cell_angle_beta 64.665879
_cell_angle_gamma 90.000000
_cell_volume 2830.209300
_symmetry_space_group_name_H-M "C 2/C"
_symmetry_group_IT_number 15
_symmetry_cell_setting 'monoclinic'
loop_
_space_group_symop_operation_xyz
x,y,z
-x,y,1/2-z
-x,-y,-z
x,-y,1/2+z
1/2+x,1/2+y,z
1/2-x,1/2+y,1/2-z
1/2-x,1/2-y,-z
1/2+x,1/2-y,1/2+z
loop_
_atom_site_type_symbol
_atom_site_label
_atom_site_fract_x
_atom_site_fract_y
_atom_site_fract_z
Si Si1 0.470041 0.599848 0.048304
Si Si2 0.051552 0.548591 0.312447
Si Si3 0.685785 0.456068 0.681526
Si Si4 0.842309 0.988686 0.416689
Si Si5 0.000000 0.206037 0.750000
Si Si6 0.500000 0.793822 0.250000
Si Si7 0.893920 0.422042 0.487795
Si Si8 0.825906 0.372666 0.914511
O O1 0.523891 0.528633 0.084000
O O2 0.544468 0.759220 0.032180
O O3 0.319521 0.607991 0.074939
O O4 0.500000 0.500000 0.000000
O O5 0.170478 0.540364 0.325441
O O6 0.061736 0.688367 0.276980
O O7 0.042054 0.400070 0.283562
O O8 0.923473 0.578539 0.360660
O O9 0.675083 0.461567 0.630638
O O10 0.608279 0.601096 0.711627
O O11 0.613377 0.312188 0.714089
O O12 0.734857 0.074019 0.462821
O O13 0.833270 0.806946 0.423089
O O14 0.862332 0.523384 0.450284
O O15 0.000000 0.500000 0.500000
#
# Coordination Sequence:
#
# PCOD9293818 Si02
#       8
#     8   8   8   8   4   4   8   8
#     4  12  27  46  69 100 143 184 230 282 335 416
#     4  11  24  44  72  99 137 179 226 282 348 404
#     4  11  24  45  70 101 137 174 229 286 345 405
#     4  12  25  45  69 102 139 185 231 283 344 404
#     4  10  22  48  66 100 132 178 228 280 352 404
#     4  10  26  44  70 104 132 178 230 282 344 418
#     4  12  24  44  71  97 142 181 225 287 340 407
#     4  12  26  45  68 103 138 185 231 281 344 410
#
# _framework density 19.786522000000001
#
# number of rings (size 3 to 8) (size 9 to 14) (size 15 to 20)
#    0.000    0.571    4.286    3.429    2.000    1.143 
#   10.286    0.000    0.000    0.000    0.000    0.000 
#    0.000    0.000    0.000    0.000    0.000    0.000 
#
# Total GULP energy -156587.356794 kJ/mol
# GULP energy per Si atom -5592.405600 kJ/mol
# Density = 1.974149 g / cm^3
# Si number density = 19.786522 Si / 1000 Ang^3
#
#
#
# Elastic Constant Matrix: (Units=GPa)
#
#
# Indices 1 2 3 4 5 6 
#
# 1 194.2438 75.0630 51.7722 0.0000 18.8181 0.0000
# 2 75.0630 255.9888 161.7713 0.0000 -3.2276 0.0000
# 3 51.7722 161.7713 208.6952 0.0000 8.9270 0.0000
# 4 0.0000 0.0000 0.0000 5.0970 0.0000 -7.0872
# 5 18.8181 -3.2276 8.9270 0.0000 35.2531 0.0000
# 6 0.0000 0.0000 0.0000 -7.0872 0.0000 14.8779
#
#
#
# Elastic Compliance Matrix: (Units=1/GPa)
#
#
# Indices 1 2 3 4 5 6 
#
# 1 0.006207 -0.001934 0.000110 0.000000 -0.003518 0.000000
# 2 -0.001934 0.008437 -0.006205 0.000000 0.003376 0.000000
# 3 0.000110 -0.006205 0.009706 0.000000 -0.003084 0.000000
# 4 0.000000 0.000000 0.000000 0.581057 0.000000 0.276791
# 5 -0.003518 0.003376 -0.003084 0.000000 0.031334 0.000000
# 6 0.000000 0.000000 0.000000 0.276791 0.000000 0.199065
#
#
# Mechanical properties :
#
#
# Convention : Reuss Voigt Hill
#
# Bulk Modulus (GPa) = 120.59120 137.34897 128.97008
# Shear Modulus (GPa) = 5.85050 35.73371 20.79211
#
# Velocity S-wave (km/s) = 1.72140 4.25427 3.24515
# Velocity P-wave (km/s) = 8.06408 9.67977 8.90863
#
# Compressibility (1/GPa) = 0.00829248
#
# Stress axis : x y z
#
# Youngs Moduli (GPa) = 161.10743 118.52484 103.02836
#
# Poissons Ratio (x) = 0.22919 -0.01129
# Poissons Ratio (y) = 0.31153 0.63926
# Poissons Ratio (z) = -0.01765 0.73541
#
# Static dielectric constant tensor:
#      x y z
#    x 1.667050 0.000000 -0.045380 
#    y 0.000000 1.727260 0.000000 
#    z -0.045380 0.000000 1.719700 
# 
# From -- ./inp_files/310256.got.cif
#   From: 2010.05.17/outbox.cif.g08.bks.cpg/sg15_156_cif.got.tgz:310256.got - 2010.06.03 18:47:42.
