data_PCOD9293013
_publ_section_title
;
Structure prediction by ZEFSAII (Michael W. Deem and Ramdas Pophale) SiO2 
 PCOD9293013
Probable space group: C 2/C
;
_chemical_formula_sum "Si O2"
_cell_formula_units_Z 44
_cell_length_a 14.670223
_cell_length_b 11.845347
_cell_length_c 14.095395
_cell_angle_alpha 90.000000
_cell_angle_beta 56.660537
_cell_angle_gamma 90.000000
_cell_volume 2046.309452
_symmetry_space_group_name_H-M "C 2/C"
_symmetry_group_IT_number 15
_symmetry_cell_setting 'monoclinic'
loop_
_space_group_symop_operation_xyz
x,y,z
-x,y,1/2-z
-x,-y,-z
x,-y,1/2+z
1/2+x,1/2+y,z
1/2-x,1/2+y,1/2-z
1/2-x,1/2-y,-z
1/2+x,1/2-y,1/2+z
loop_
_atom_site_type_symbol
_atom_site_label
_atom_site_fract_x
_atom_site_fract_y
_atom_site_fract_z
Si Si1 0.500000 0.868120 0.750000
Si Si2 0.508944 0.947473 0.098447
Si Si3 0.622743 0.466605 0.456685
Si Si4 0.761837 0.694011 0.390072
Si Si5 0.105927 0.222400 0.123768
Si Si6 0.212168 0.672665 0.735566
O O1 0.610360 0.804446 0.714014
O O2 0.454355 0.949261 0.858004
O O3 0.580459 0.835304 0.075975
O O4 0.389447 0.913094 0.205172
O O5 0.500000 0.000000 0.000000
O O6 0.500000 0.500000 0.500000
O O7 0.701563 0.573311 0.427908
O O8 0.623299 0.384976 0.547823
O O9 0.677038 0.395647 0.340433
O O10 0.750000 0.750000 0.500000
O O11 0.703286 0.760921 0.338462
O O12 0.197411 0.250438 0.150009
O O13 0.000000 0.203382 0.250000
#
# Coordination Sequence:
#
# PCOD9293013 Si02
#       6
#     4   8   8   8   8   8
#     4  12  24  48  68 102 142 178 246 292 356 430
#     4  11  21  42  75 104 135 184 236 295 354 426
#     4  12  26  44  72 108 141 185 234 292 364 426
#     4  12  29  47  70 105 143 189 240 295 366 425
#     4  10  22  44  71 103 139 184 239 290 348 426
#     4  11  24  45  68 101 141 182 236 289 354 428
#
# _framework density 21.502124999999999
#
# number of rings (size 3 to 8) (size 9 to 14) (size 15 to 20)
#    0.000    0.727    4.545    3.818    5.091    2.909 
#    0.000    0.000    0.000    0.000    0.000    0.000 
#    0.000    0.000    0.000    0.000    0.000    0.000 
#
# Total GULP energy -122939.270022 kJ/mol
# GULP energy per Si atom -5588.148637 kJ/mol
# Density = 2.145319 g / cm^3
# Si number density = 21.502125 Si / 1000 Ang^3
#
#
#
# Elastic Constant Matrix: (Units=GPa)
#
#
# Indices 1 2 3 4 5 6 
#
# 1 97.2787 28.2173 34.9572 0.0000 -0.7517 0.0000
# 2 28.2173 86.9231 54.3836 0.0000 16.5683 0.0000
# 3 34.9572 54.3836 94.1848 0.0000 15.0111 0.0000
# 4 0.0000 0.0000 0.0000 51.8566 0.0000 6.1970
# 5 -0.7517 16.5683 15.0111 0.0000 60.1911 0.0000
# 6 0.0000 0.0000 0.0000 6.1970 0.0000 35.7355
#
#
#
# Elastic Compliance Matrix: (Units=1/GPa)
#
#
# Indices 1 2 3 4 5 6 
#
# 1 0.012172 -0.001989 -0.003625 0.000000 0.001603 0.000000
# 2 -0.001989 0.018693 -0.009614 0.000000 -0.002773 0.000000
# 3 -0.003625 -0.009614 0.017807 0.000000 -0.001840 0.000000
# 4 0.000000 0.000000 0.000000 0.019692 0.000000 -0.003415
# 5 0.001603 -0.002773 -0.001840 0.000000 0.017856 0.000000
# 6 0.000000 0.000000 0.000000 -0.003415 0.000000 0.028576
#
#
# Mechanical properties :
#
#
# Convention : Reuss Voigt Hill
#
# Bulk Modulus (GPa) = 54.89256 57.05585 55.97420
# Shear Modulus (GPa) = 33.04195 40.27853 36.66024
#
# Velocity S-wave (km/s) = 3.92431 4.33278 4.13359
# Velocity P-wave (km/s) = 6.79102 7.18493 6.99075
#
# Compressibility (1/GPa) = 0.01821740
#
# Stress axis : x y z
#
# Youngs Moduli (GPa) = 82.15842 53.49460 56.15766
#
# Poissons Ratio (x) = 0.10641 0.20355
# Poissons Ratio (y) = 0.16342 0.53988
# Poissons Ratio (z) = 0.29779 0.51428
#
# Static dielectric constant tensor:
#      x y z
#    x 2.222350 0.000000 0.213740 
#    y 0.000000 1.801020 0.000000 
#    z 0.213740 0.000000 1.917810 
# 
# From -- ./inp_files/151756.got.cif
#   From: 2010.05.17/outbox.cif.g08.bks.cpg/sg15_76_cif.got.tgz:151756.got - 2010.06.03 18:47:42.
