data_PCOD9293690
_publ_section_title
;
Structure prediction by ZEFSAII (Michael W. Deem and Ramdas Pophale) SiO2 
 PCOD9293690
Probable space group: C 2/C
;
_chemical_formula_sum "Si O2"
_cell_formula_units_Z 52
_cell_length_a 9.218614
_cell_length_b 27.780882
_cell_length_c 16.415656
_cell_angle_alpha 90.000000
_cell_angle_beta 143.596456
_cell_angle_gamma 90.000000
_cell_volume 2494.983635
_symmetry_space_group_name_H-M "C 2/C"
_symmetry_group_IT_number 15
_symmetry_cell_setting 'monoclinic'
loop_
_space_group_symop_operation_xyz
x,y,z
-x,y,1/2-z
-x,-y,-z
x,-y,1/2+z
1/2+x,1/2+y,z
1/2-x,1/2+y,1/2-z
1/2-x,1/2-y,-z
1/2+x,1/2-y,1/2+z
loop_
_atom_site_type_symbol
_atom_site_label
_atom_site_fract_x
_atom_site_fract_y
_atom_site_fract_z
Si Si1 0.000000 0.221662 0.250000
Si Si2 0.659991 0.690379 0.891842
Si Si3 0.477596 0.725089 0.973417
Si Si4 0.730469 0.007508 0.416463
Si Si5 0.573337 0.646408 0.145159
Si Si6 0.451826 0.100296 0.087213
Si Si7 0.228828 0.063894 0.413566
O O1 0.782580 0.254177 0.118381
O O2 0.891882 0.186992 0.269969
O O3 0.500000 0.666473 0.750000
O O4 0.488219 0.713861 0.882468
O O5 0.820340 0.733207 0.925053
O O6 0.824694 0.650372 0.008571
O O7 0.532615 0.676229 0.045676
O O8 0.500000 0.998829 0.250000
O O9 0.710723 0.062092 0.439263
O O10 0.712899 0.974010 0.489308
O O11 0.000000 0.000000 0.500000
O O12 0.809983 0.612947 0.251796
O O13 0.354631 0.612712 0.077801
O O14 0.552524 0.076309 0.049211
O O15 0.000000 0.050083 0.250000
#
# Coordination Sequence:
#
# PCOD9293690 Si02
#       7
#     4   8   8   8   8   8   8
#     4  12  20  44  64 102 140 180 240 290 348 434
#     4  11  25  42  60  99 138 182 241 281 355 422
#     4  11  25  39  67 100 138 188 234 295 348 416
#     4  12  28  48  76 113 144 184 249 314 379 440
#     4  11  21  42  73  99 142 189 242 287 366 435
#     4  11  24  45  73  96 141 197 233 288 368 449
#     4  10  22  46  73 106 141 193 243 293 373 451
#
# _framework density 20.841820999999999
#
# number of rings (size 3 to 8) (size 9 to 14) (size 15 to 20)
#    0.000    0.923    3.846    3.692    6.462    3.077 
#    1.385    0.000    0.000    0.000    0.000    0.000 
#    0.000    0.000    0.000    0.000    0.000    0.000 
#
# Total GULP energy -145350.623438 kJ/mol
# GULP energy per Si atom -5590.408594 kJ/mol
# Density = 2.079438 g / cm^3
# Si number density = 20.841821 Si / 1000 Ang^3
#
#
#
# Elastic Constant Matrix: (Units=GPa)
#
#
# Indices 1 2 3 4 5 6 
#
# 1 95.6378 45.8761 36.4331 0.0000 10.7724 0.0000
# 2 45.8761 92.1374 32.4767 0.0000 0.4001 0.0000
# 3 36.4331 32.4767 68.4518 0.0000 -14.3199 0.0000
# 4 0.0000 0.0000 0.0000 38.7895 0.0000 -3.9182
# 5 10.7724 0.4001 -14.3199 0.0000 22.4976 0.0000
# 6 0.0000 0.0000 0.0000 -3.9182 0.0000 48.2528
#
#
#
# Elastic Compliance Matrix: (Units=1/GPa)
#
#
# Indices 1 2 3 4 5 6 
#
# 1 0.019055 -0.005609 -0.010808 0.000000 -0.015904 0.000000
# 2 -0.005609 0.015151 -0.004265 0.000000 -0.000299 0.000000
# 3 -0.010808 -0.004265 0.027091 0.000000 0.022494 0.000000
# 4 0.000000 0.000000 0.000000 0.025993 0.000000 0.002111
# 5 -0.015904 -0.000299 0.022494 0.000000 0.066388 0.000000
# 6 0.000000 0.000000 0.000000 0.002111 0.000000 0.020896
#
#
# Mechanical properties :
#
#
# Convention : Reuss Voigt Hill
#
# Bulk Modulus (GPa) = 50.16994 53.97764 52.07379
# Shear Modulus (GPa) = 22.46359 31.33738 26.90049
#
# Velocity S-wave (km/s) = 3.28657 3.88181 3.59653
# Velocity P-wave (km/s) = 6.20694 6.78574 6.50278
#
# Compressibility (1/GPa) = 0.01993225
#
# Stress axis : x y z
#
# Youngs Moduli (GPa) = 52.47871 66.00233 36.91305
#
# Poissons Ratio (x) = 0.37022 0.39895
# Poissons Ratio (y) = 0.29436 0.15745
# Poissons Ratio (z) = 0.56718 0.28152
#
# Static dielectric constant tensor:
#      x y z
#    x 1.756520 0.000000 -0.014630 
#    y 0.000000 1.720910 0.000000 
#    z -0.014630 0.000000 1.851080 
# 
# From -- ./inp_files/139901.got.cif
#   From: 2010.05.17/outbox.cif.g08.bks.cpg/sg15_70_cif.got.tgz:139901.got - 2010.06.03 18:47:42.
