data_PCOD9293648
_publ_section_title
;
Structure prediction by ZEFSAII (Michael W. Deem and Ramdas Pophale) SiO2 
 PCOD9293648
Probable space group: C 2/C
;
_chemical_formula_sum "Si O2"
_cell_formula_units_Z 36
_cell_length_a 28.351779
_cell_length_b 5.861487
_cell_length_c 9.830423
_cell_angle_alpha 90.000000
_cell_angle_beta 57.340542
_cell_angle_gamma 90.000000
_cell_volume 1375.362387
_symmetry_space_group_name_H-M "C 2/C"
_symmetry_group_IT_number 15
_symmetry_cell_setting 'monoclinic'
loop_
_space_group_symop_operation_xyz
x,y,z
-x,y,1/2-z
-x,-y,-z
x,-y,1/2+z
1/2+x,1/2+y,z
1/2-x,1/2+y,1/2-z
1/2-x,1/2-y,-z
1/2+x,1/2-y,1/2+z
loop_
_atom_site_type_symbol
_atom_site_label
_atom_site_fract_x
_atom_site_fract_y
_atom_site_fract_z
Si Si1 0.948437 0.370203 0.653910
Si Si2 0.401323 0.832741 0.462433
Si Si3 0.719487 0.672319 0.316193
Si Si4 0.000000 0.000720 0.750000
Si Si5 0.809571 0.879778 0.914822
O O1 0.897047 0.385487 0.627961
O O2 0.928450 0.472891 0.827930
O O3 0.000000 0.500000 0.500000
O O4 0.972905 0.133818 0.666577
O O5 0.449052 0.642396 0.387536
O O6 0.348424 0.748309 0.461368
O O7 0.743596 0.933303 0.267727
O O8 0.698111 0.626193 0.502623
O O9 0.672938 0.635332 0.269954
O O10 0.750000 0.750000 0.000000
#
# Coordination Sequence:
#
# PCOD9293648 Si02
#       5
#     8   8   8   4   8
#     4  12  24  48  70 105 141 184 239 302 365 447
#     4  12  27  44  75 104 142 192 238 302 374 437
#     4  10  22  46  72 100 147 193 244 305 361 442
#     4  12  24  44  72 102 142 176 246 298 372 434
#     4  10  25  46  69 107 142 194 244 298 369 443
#
# _framework density 26.174917000000001
#
# number of rings (size 3 to 8) (size 9 to 14) (size 15 to 20)
#    0.000    0.889    4.444    1.333    3.111    7.111 
#    8.000    0.000    0.000    0.000    0.000    0.000 
#    0.000    0.000    0.000    0.000    0.000    0.000 
#
# Total GULP energy -100573.470053 kJ/mol
# GULP energy per Si atom -5587.415003 kJ/mol
# Density = 2.611534 g / cm^3
# Si number density = 26.174917 Si / 1000 Ang^3
#
#
#
# Elastic Constant Matrix: (Units=GPa)
#
#
# Indices 1 2 3 4 5 6 
#
# 1 185.1208 39.9655 35.6093 0.0000 49.3317 0.0000
# 2 39.9655 109.4807 31.1147 0.0000 7.9268 0.0000
# 3 35.6093 31.1147 78.5672 0.0000 41.4668 0.0000
# 4 0.0000 0.0000 0.0000 31.5449 0.0000 2.7210
# 5 49.3317 7.9268 41.4668 0.0000 61.6360 0.0000
# 6 0.0000 0.0000 0.0000 2.7210 0.0000 47.7927
#
#
#
# Elastic Compliance Matrix: (Units=1/GPa)
#
#
# Indices 1 2 3 4 5 6 
#
# 1 0.007434 -0.002525 0.000930 0.000000 -0.006251 0.000000
# 2 -0.002525 0.011346 -0.005653 0.000000 0.004365 0.000000
# 3 0.000930 -0.005653 0.022567 0.000000 -0.015200 0.000000
# 4 0.000000 0.000000 0.000000 0.031857 0.000000 -0.001814
# 5 -0.006251 0.004365 -0.015200 0.000000 0.030892 0.000000
# 6 0.000000 0.000000 0.000000 -0.001814 0.000000 0.021027
#
#
# Mechanical properties :
#
#
# Convention : Reuss Voigt Hill
#
# Bulk Modulus (GPa) = 37.24206 65.17198 51.20702
# Shear Modulus (GPa) = 33.65401 45.96000 39.80700
#
# Velocity S-wave (km/s) = 3.58960 4.19487 3.90398
# Velocity P-wave (km/s) = 5.60708 6.95811 6.31881
#
# Compressibility (1/GPa) = 0.02685136
#
# Stress axis : x y z
#
# Youngs Moduli (GPa) = 134.51822 88.13385 44.31163
#
# Poissons Ratio (x) = 0.22258 -0.04120
# Poissons Ratio (y) = 0.33972 0.25048
# Poissons Ratio (z) = -0.12508 0.49819
#
# Static dielectric constant tensor:
#      x y z
#    x 2.299680 0.000000 0.230850 
#    y 0.000000 2.133750 0.000000 
#    z 0.230850 0.000000 2.497280 
# 
# From -- ./inp_files/120681.got.cif
#   From: 2010.05.17/outbox.cif.g08.bks.cpg/sg15_61_cif.got.tgz:120681.got - 2010.06.03 18:47:42.
