data_PCOD9293143
_publ_section_title
;
Structure prediction by ZEFSAII (Michael W. Deem and Ramdas Pophale) SiO2 
 PCOD9293143
Probable space group: C 2/C
;
_chemical_formula_sum "Si O2"
_cell_formula_units_Z 60
_cell_length_a 11.457300
_cell_length_b 18.977340
_cell_length_c 14.069043
_cell_angle_alpha 90.000000
_cell_angle_beta 111.552735
_cell_angle_gamma 90.000000
_cell_volume 2845.131961
_symmetry_space_group_name_H-M "C 2/C"
_symmetry_group_IT_number 15
_symmetry_cell_setting 'monoclinic'
loop_
_space_group_symop_operation_xyz
x,y,z
-x,y,1/2-z
-x,-y,-z
x,-y,1/2+z
1/2+x,1/2+y,z
1/2-x,1/2+y,1/2-z
1/2-x,1/2-y,-z
1/2+x,1/2-y,1/2+z
loop_
_atom_site_type_symbol
_atom_site_label
_atom_site_fract_x
_atom_site_fract_y
_atom_site_fract_z
Si Si1 0.472443 0.111733 0.451341
Si Si2 0.632487 0.491529 0.593746
Si Si3 0.796059 0.492034 0.461396
Si Si4 0.938499 0.847411 0.833112
Si Si5 0.282111 0.736969 0.739914
Si Si6 0.641758 0.591559 0.773322
Si Si7 0.379900 0.259842 0.482438
Si Si8 0.000000 0.331822 0.750000
O O1 0.592127 0.064784 0.514040
O O2 0.457734 0.186619 0.499247
O O3 0.479941 0.124975 0.340428
O O4 0.350512 0.065774 0.441347
O O5 0.500000 0.500000 0.500000
O O6 0.745038 0.495545 0.552505
O O7 0.628765 0.416076 0.644849
O O8 0.647655 0.552970 0.674709
O O9 0.682067 0.465147 0.363281
O O10 0.841353 0.783622 0.787389
O O11 0.000000 0.864690 0.750000
O O12 0.039958 0.819185 0.939875
O O13 0.269104 0.659283 0.694563
O O14 0.344898 0.725516 0.862346
O O15 0.378641 0.781890 0.705184
O O16 0.500000 0.615752 0.750000
O O17 0.250000 0.250000 0.500000
#
# Coordination Sequence:
#
# PCOD9293143 Si02
#       8
#     8   8   8   8   8   8   8   4
#     4  10  25  45  68 100 134 183 225 291 341 420
#     4  12  27  43  71 102 141 182 230 290 351 415
#     4  11  26  45  67  98 138 177 235 276 354 416
#     4  12  26  43  70 104 138 186 235 286 349 419
#     4  11  24  44  69 100 136 179 230 286 351 411
#     4  12  25  44  67 100 139 181 226 289 350 415
#     4  11  24  42  69  98 136 175 231 287 342 408
#     4  10  22  44  74  94 132 178 230 282 344 408
#
# _framework density 21.088653999999998
#
# number of rings (size 3 to 8) (size 9 to 14) (size 15 to 20)
#    0.000    0.800    3.333    2.800    9.333    0.000 
#    0.000    3.333    0.000    0.000    0.000    0.000 
#    0.000    0.000    0.000    0.000    0.000    0.000 
#
# Total GULP energy -167881.602031 kJ/mol
# GULP energy per Si atom -5596.053401 kJ/mol
# Density = 2.104065 g / cm^3
# Si number density = 21.088654 Si / 1000 Ang^3
#
#
#
# Elastic Constant Matrix: (Units=GPa)
#
#
# Indices 1 2 3 4 5 6 
#
# 1 92.1008 26.7797 27.9102 0.0000 -33.0927 0.0000
# 2 26.7797 94.2023 34.3827 0.0000 -21.2565 0.0000
# 3 27.9102 34.3827 72.7533 0.0000 -18.8797 0.0000
# 4 0.0000 0.0000 0.0000 19.8302 0.0000 -0.1337
# 5 -33.0927 -21.2565 -18.8797 0.0000 39.8147 0.0000
# 6 0.0000 0.0000 0.0000 -0.1337 0.0000 38.4440
#
#
#
# Elastic Compliance Matrix: (Units=1/GPa)
#
#
# Indices 1 2 3 4 5 6 
#
# 1 0.016133 -0.000977 -0.002717 0.000000 0.011599 0.000000
# 2 -0.000977 0.013647 -0.005011 0.000000 0.004097 0.000000
# 3 -0.002717 -0.005011 0.018103 0.000000 0.003650 0.000000
# 4 0.000000 0.000000 0.000000 0.050429 0.000000 0.000175
# 5 0.011599 0.004097 0.003650 0.000000 0.038675 0.000000
# 6 0.000000 0.000000 0.000000 0.000175 0.000000 0.026012
#
#
# Mechanical properties :
#
#
# Convention : Reuss Voigt Hill
#
# Bulk Modulus (GPa) = 32.81769 48.57795 40.69782
# Shear Modulus (GPa) = 26.23729 30.95004 28.59366
#
# Velocity S-wave (km/s) = 3.53107 3.83510 3.68622
# Velocity P-wave (km/s) = 5.67628 6.53420 6.12029
#
# Compressibility (1/GPa) = 0.03047137
#
# Stress axis : x y z
#
# Youngs Moduli (GPa) = 61.98533 73.27698 55.23939
#
# Poissons Ratio (x) = 0.07161 0.15010
# Poissons Ratio (y) = 0.06057 0.27682
# Poissons Ratio (z) = 0.16843 0.36721
#
# Static dielectric constant tensor:
#      x y z
#    x 1.743520 0.000000 0.022980 
#    y 0.000000 1.750020 0.000000 
#    z 0.022980 0.000000 1.748720 
# 
# From -- ./inp_files/146125.got.cif
#   From: 2010.05.17/outbox.cif.g08.bks.cpg/sg15_74_cif.got.tgz:146125.got - 2010.06.03 18:47:42.
