data_PCOD9293667
_publ_section_title
;
Structure prediction by ZEFSAII (Michael W. Deem and Ramdas Pophale) SiO2 
 PCOD9293667
Probable space group: C 2/C
;
_chemical_formula_sum "Si O2"
_cell_formula_units_Z 52
_cell_length_a 18.271534
_cell_length_b 12.302479
_cell_length_c 11.517258
_cell_angle_alpha 90.000000
_cell_angle_beta 128.353993
_cell_angle_gamma 90.000000
_cell_volume 2030.201430
_symmetry_space_group_name_H-M "C 2/C"
_symmetry_group_IT_number 15
_symmetry_cell_setting 'monoclinic'
loop_
_space_group_symop_operation_xyz
x,y,z
-x,y,1/2-z
-x,-y,-z
x,-y,1/2+z
1/2+x,1/2+y,z
1/2-x,1/2+y,1/2-z
1/2-x,1/2-y,-z
1/2+x,1/2-y,1/2+z
loop_
_atom_site_type_symbol
_atom_site_label
_atom_site_fract_x
_atom_site_fract_y
_atom_site_fract_z
Si Si1 0.468310 0.219467 0.454539
Si Si2 0.500000 0.175109 0.750000
Si Si3 0.196120 0.574699 0.874260
Si Si4 0.785127 0.058410 0.166395
Si Si5 0.843311 0.624179 0.917146
Si Si6 0.969473 0.943904 0.349419
Si Si7 0.239324 0.330200 0.839920
O O1 0.479166 0.236116 0.605384
O O2 0.546026 0.132107 0.491797
O O3 0.495234 0.321078 0.400359
O O4 0.362243 0.196696 0.313241
O O5 0.591469 0.104297 0.810103
O O6 0.204249 0.627987 0.756415
O O7 0.221358 0.445672 0.886443
O O8 0.275465 0.621531 0.037475
O O9 0.802523 0.132100 0.292819
O O10 0.686126 0.996686 0.075781
O O11 0.859550 0.963697 0.236701
O O12 0.796532 0.724420 0.941393
O O13 0.000000 0.979856 0.250000
O O14 0.000000 0.000000 0.500000
#
# Coordination Sequence:
#
# PCOD9293667 Si02
#       7
#     8   4   8   8   8   8   8
#     4  11  24  46  71 106 144 200 240 308 371 441
#     4  10  22  46  72 110 140 184 254 302 370 438
#     4  10  24  39  70 103 136 189 238 311 365 436
#     4  11  24  44  72 101 143 189 248 305 370 438
#     4  10  24  42  66 101 146 186 250 295 376 439
#     4  12  30  50  75 109 152 198 250 300 372 445
#     4  11  23  44  68 100 146 186 247 306 371 438
#
# _framework density 25.613222
#
# number of rings (size 3 to 8) (size 9 to 14) (size 15 to 20)
#    0.000    1.231    3.077    0.923    9.692    4.308 
#    0.000    0.000    0.000    0.000    0.000    0.000 
#    0.000    0.000    0.000    0.000    0.000    0.000 
#
# Total GULP energy -145138.951549 kJ/mol
# GULP energy per Si atom -5582.267367 kJ/mol
# Density = 2.555493 g / cm^3
# Si number density = 25.613222 Si / 1000 Ang^3
#
#
#
# Elastic Constant Matrix: (Units=GPa)
#
#
# Indices 1 2 3 4 5 6 
#
# 1 80.0064 9.9737 24.6167 0.0000 4.7792 0.0000
# 2 9.9737 73.6965 -8.8008 0.0000 -2.8300 0.0000
# 3 24.6167 -8.8008 76.2874 0.0000 -6.1953 0.0000
# 4 0.0000 0.0000 0.0000 33.0171 0.0000 3.6762
# 5 4.7792 -2.8300 -6.1953 0.0000 46.4993 0.0000
# 6 0.0000 0.0000 0.0000 3.6762 0.0000 28.0389
#
#
#
# Elastic Compliance Matrix: (Units=1/GPa)
#
#
# Indices 1 2 3 4 5 6 
#
# 1 0.014576 -0.002684 -0.005204 0.000000 -0.002355 0.000000
# 2 -0.002684 0.014305 0.002638 0.000000 0.001498 0.000000
# 3 -0.005204 0.002638 0.015314 0.000000 0.002736 0.000000
# 4 0.000000 0.000000 0.000000 0.030736 0.000000 -0.004030
# 5 -0.002355 0.001498 0.002736 0.000000 0.022203 0.000000
# 6 0.000000 0.000000 0.000000 -0.004030 0.000000 0.036193
#
#
# Mechanical properties :
#
#
# Convention : Reuss Voigt Hill
#
# Bulk Modulus (GPa) = 29.67914 31.28550 30.48232
# Shear Modulus (GPa) = 32.24566 35.12444 33.68505
#
# Velocity S-wave (km/s) = 3.55201 3.70718 3.63042
# Velocity P-wave (km/s) = 5.33245 5.52859 5.43140
#
# Compressibility (1/GPa) = 0.03369370
#
# Stress axis : x y z
#
# Youngs Moduli (GPa) = 68.60795 69.90541 65.29903
#
# Poissons Ratio (x) = 0.18766 0.33983
# Poissons Ratio (y) = 0.18418 -0.17227
# Poissons Ratio (z) = 0.35705 -0.18442
#
# Static dielectric constant tensor:
#      x y z
#    x 2.089450 0.000000 -0.105230 
#    y 0.000000 2.001880 0.000000 
#    z -0.105230 0.000000 2.072370 
# 
# From -- ./inp_files/111746.got.cif
#   From: 2010.05.17/outbox.cif.g08.bks.cpg/sg15_56_cif.got.tgz:111746.got - 2010.06.03 18:47:42.
