data_PCOD9293779
_publ_section_title
;
Structure prediction by ZEFSAII (Michael W. Deem and Ramdas Pophale) SiO2 
 PCOD9293779
Probable space group: C 2/C
;
_chemical_formula_sum "Si O2"
_cell_formula_units_Z 32
_cell_length_a 11.740046
_cell_length_b 8.500154
_cell_length_c 20.934052
_cell_angle_alpha 90.000000
_cell_angle_beta 142.762980
_cell_angle_gamma 90.000000
_cell_volume 1264.115732
_symmetry_space_group_name_H-M "C 2/C"
_symmetry_group_IT_number 15
_symmetry_cell_setting 'monoclinic'
loop_
_space_group_symop_operation_xyz
x,y,z
-x,y,1/2-z
-x,-y,-z
x,-y,1/2+z
1/2+x,1/2+y,z
1/2-x,1/2+y,1/2-z
1/2-x,1/2-y,-z
1/2+x,1/2-y,1/2+z
loop_
_atom_site_type_symbol
_atom_site_label
_atom_site_fract_x
_atom_site_fract_y
_atom_site_fract_z
Si Si1 0.868408 0.356060 0.422816
Si Si2 0.469633 0.868842 0.331809
Si Si3 0.381450 0.468717 0.778650
Si Si4 0.355291 0.549942 0.490888
O O1 0.679497 0.425511 0.308206
O O2 0.832980 0.233083 0.462442
O O3 0.000000 0.500000 0.500000
O O4 0.977322 0.296591 0.407602
O O5 0.400647 0.711920 0.266009
O O6 0.306164 0.000913 0.261073
O O7 0.662855 0.950989 0.399646
O O8 0.553936 0.525404 0.898895
O O9 0.500000 0.500000 0.500000
#
# Coordination Sequence:
#
# PCOD9293779 Si02
#       4
#     8   8   8   8
#     4  10  24  45  72 113 152 204 256 312 393 451
#     4  10  24  45  75 108 156 205 260 318 373 482
#     4  10  22  47  71 110 162 195 264 319 381 461
#     4  12  23  44  80 112 153 206 255 316 393 450
#
# _framework density 25.314135
#
# number of rings (size 3 to 8) (size 9 to 14) (size 15 to 20)
#    1.500    0.000    2.500    2.250    0.000    2.000 
#    0.000    3.750    0.000    0.000    0.000    0.000 
#    0.000    0.000    0.000    0.000    0.000    0.000 
#
# Total GULP energy -89439.401049 kJ/mol
# GULP energy per Si atom -5589.962566 kJ/mol
# Density = 2.525652 g / cm^3
# Si number density = 25.314135 Si / 1000 Ang^3
#
#
#
# Elastic Constant Matrix: (Units=GPa)
#
#
# Indices 1 2 3 4 5 6 
#
# 1 115.8553 63.5461 47.6468 0.0000 31.1360 0.0000
# 2 63.5461 182.2928 88.5382 0.0000 25.5020 0.0000
# 3 47.6468 88.5382 119.8071 0.0000 29.6883 0.0000
# 4 0.0000 0.0000 0.0000 42.0995 0.0000 11.9506
# 5 31.1360 25.5020 29.6883 0.0000 55.2676 0.0000
# 6 0.0000 0.0000 0.0000 11.9506 0.0000 23.0418
#
#
#
# Elastic Compliance Matrix: (Units=1/GPa)
#
#
# Indices 1 2 3 4 5 6 
#
# 1 0.012062 -0.002783 -0.001586 0.000000 -0.004660 0.000000
# 2 -0.002783 0.009218 -0.005814 0.000000 0.000437 0.000000
# 3 -0.001586 -0.005814 0.014290 0.000000 -0.004100 0.000000
# 4 0.000000 0.000000 0.000000 0.027854 0.000000 -0.014446
# 5 -0.004660 0.000437 -0.004100 0.000000 0.022719 0.000000
# 6 0.000000 0.000000 0.000000 -0.014446 0.000000 0.050892
#
#
# Mechanical properties :
#
#
# Convention : Reuss Voigt Hill
#
# Bulk Modulus (GPa) = 65.76747 90.82417 78.29582
# Shear Modulus (GPa) = 30.77479 38.63005 34.70242
#
# Velocity S-wave (km/s) = 3.49049 3.91068 3.70654
# Velocity P-wave (km/s) = 6.50244 7.50653 7.02245
#
# Compressibility (1/GPa) = 0.01520509
#
# Stress axis : x y z
#
# Youngs Moduli (GPa) = 82.90324 108.47850 69.97794
#
# Poissons Ratio (x) = 0.30186 0.11099
# Poissons Ratio (y) = 0.23069 0.40686
# Poissons Ratio (z) = 0.13149 0.63071
#
# Static dielectric constant tensor:
#      x y z
#    x 2.124530 0.000000 -0.065260 
#    y 0.000000 2.118000 0.000000 
#    z -0.065260 0.000000 1.990070 
# 
# From -- ./inp_files/295331.got.cif
#   From: 2010.05.17/outbox.cif.g08.bks.cpg/sg15_148_cif.got.tgz:295331.got - 2010.06.03 18:47:42.
