data_PCOD9293911
_publ_section_title
;
Structure prediction by ZEFSAII (Michael W. Deem and Ramdas Pophale) SiO2 
 PCOD9293911
Probable space group: C 2/C
;
_chemical_formula_sum "Si O2"
_cell_formula_units_Z 40
_cell_length_a 11.875598
_cell_length_b 14.958493
_cell_length_c 12.316376
_cell_angle_alpha 90.000000
_cell_angle_beta 93.385880
_cell_angle_gamma 90.000000
_cell_volume 2184.074800
_symmetry_space_group_name_H-M "C 2/C"
_symmetry_group_IT_number 15
_symmetry_cell_setting 'monoclinic'
loop_
_space_group_symop_operation_xyz
x,y,z
-x,y,1/2-z
-x,-y,-z
x,-y,1/2+z
1/2+x,1/2+y,z
1/2-x,1/2+y,1/2-z
1/2-x,1/2-y,-z
1/2+x,1/2-y,1/2+z
loop_
_atom_site_type_symbol
_atom_site_label
_atom_site_fract_x
_atom_site_fract_y
_atom_site_fract_z
Si Si1 0.785166 0.520712 0.360650
Si Si2 0.622809 0.148857 0.310529
Si Si3 0.436668 0.122233 0.946139
Si Si4 0.701732 0.843628 0.455349
Si Si5 0.243941 0.164900 0.792720
O O1 0.798547 0.583209 0.256390
O O2 0.908133 0.475178 0.393596
O O3 0.752904 0.579900 0.461683
O O4 0.710137 0.432075 0.339372
O O5 0.500000 0.143034 0.250000
O O6 0.614242 0.124014 0.436142
O O7 0.664346 0.250922 0.303379
O O8 0.566023 0.149621 0.955346
O O9 0.361183 0.184643 0.863212
O O10 0.750000 0.750000 0.500000
O O11 0.733953 0.852651 0.332162
#
# Coordination Sequence:
#
# PCOD9293911 Si02
#       5
#     8   8   8   8   8
#     4  10  23  35  63  85 119 147 198 241 288 336
#     4  12  21  40  60  86 117 155 195 238 291 341
#     4  10  23  35  60  86 117 149 195 238 288 342
#     4  12  20  38  59  91 117 150 193 242 290 339
#     4  10  24  36  60  85 122 149 193 240 290 345
#
# _framework density 18.314392000000002
#
# number of rings (size 3 to 8) (size 9 to 14) (size 15 to 20)
#    1.200    0.000    4.000    3.000    2.800    0.000 
#    0.000    0.000    4.400    2.400    0.000    0.000 
#    0.000    0.000    0.000    0.000    0.000    0.000 
#
# Total GULP energy -111466.321030 kJ/mol
# GULP energy per Si atom -5573.316051 kJ/mol
# Density = 1.827271 g / cm^3
# Si number density = 18.314392 Si / 1000 Ang^3
#
#
#
# Elastic Constant Matrix: (Units=GPa)
#
#
# Indices 1 2 3 4 5 6 
#
# 1 8.2342 18.8371 7.8904 0.0000 -3.1270 0.0000
# 2 18.8371 116.1516 38.0429 0.0000 -1.2557 0.0000
# 3 7.8904 38.0429 128.3137 0.0000 -7.9078 0.0000
# 4 0.0000 0.0000 0.0000 35.2391 0.0000 3.2537
# 5 -3.1270 -1.2557 -7.9078 0.0000 16.3840 0.0000
# 6 0.0000 0.0000 0.0000 3.2537 0.0000 28.7970
#
#
#
# Elastic Compliance Matrix: (Units=1/GPa)
#
#
# Indices 1 2 3 4 5 6 
#
# 1 0.214780 -0.034182 -0.000730 0.000000 0.038021 0.000000
# 2 -0.034182 0.014982 -0.002753 0.000000 -0.006705 0.000000
# 3 -0.000730 -0.002753 0.008898 0.000000 0.003944 0.000000
# 4 0.000000 0.000000 0.000000 0.028677 0.000000 -0.003240
# 5 0.038021 -0.006705 0.003944 0.000000 0.069682 0.000000
# 6 0.000000 0.000000 0.000000 -0.003240 0.000000 0.035092
#
#
# Mechanical properties :
#
#
# Convention : Reuss Voigt Hill
#
# Bulk Modulus (GPa) = 6.12260 42.47115 24.29687
# Shear Modulus (GPa) = 9.96245 28.61263 19.28754
#
# Velocity S-wave (km/s) = 2.33484 3.95689 3.24873
# Velocity P-wave (km/s) = 3.25868 6.64201 5.23141
#
# Compressibility (1/GPa) = 0.16332939
#
# Stress axis : x y z
#
# Youngs Moduli (GPa) = 4.65592 66.74547 112.38935
#
# Poissons Ratio (x) = 2.28151 0.08203
# Poissons Ratio (y) = 0.15915 0.30943
# Poissons Ratio (z) = 0.00340 0.18376
#
# Static dielectric constant tensor:
#      x y z
#    x 1.622170 0.000000 0.021560 
#    y 0.000000 1.657100 0.000000 
#    z 0.021560 0.000000 1.650300 
# 
# From -- ./inp_files/142621.got.cif
#   From: 2010.05.17/outbox.cif.g08.bks.cpg/sg15_72_cif.got.tgz:142621.got - 2010.06.03 18:47:42.
