data_PCOD9293647
_publ_section_title
;
Structure prediction by ZEFSAII (Michael W. Deem and Ramdas Pophale) SiO2 
 PCOD9293647
Probable space group: C 2/C
;
_chemical_formula_sum "Si O2"
_cell_formula_units_Z 56
_cell_length_a 11.676662
_cell_length_b 7.746332
_cell_length_c 27.760259
_cell_angle_alpha 90.000000
_cell_angle_beta 64.737309
_cell_angle_gamma 90.000000
_cell_volume 2270.805728
_symmetry_space_group_name_H-M "C 2/C"
_symmetry_group_IT_number 15
_symmetry_cell_setting 'monoclinic'
loop_
_space_group_symop_operation_xyz
x,y,z
-x,y,1/2-z
-x,-y,-z
x,-y,1/2+z
1/2+x,1/2+y,z
1/2-x,1/2+y,1/2-z
1/2-x,1/2-y,-z
1/2+x,1/2-y,1/2+z
loop_
_atom_site_type_symbol
_atom_site_label
_atom_site_fract_x
_atom_site_fract_y
_atom_site_fract_z
Si Si1 0.500000 0.324490 0.250000
Si Si2 0.037290 0.206828 0.587942
Si Si3 0.043519 0.233892 0.472304
Si Si4 0.031042 0.532924 0.165764
Si Si5 0.750000 0.750000 0.000000
Si Si6 0.768183 0.479760 0.585650
Si Si7 0.772794 0.393659 0.189000
Si Si8 0.805257 0.975369 0.631790
O O1 0.525535 0.202482 0.199832
O O2 0.633762 0.415599 0.236489
O O3 0.043133 0.397930 0.608999
O O4 0.044653 0.204741 0.529135
O O5 0.155018 0.102713 0.588075
O O6 0.909661 0.112876 0.627921
O O7 0.104241 0.420519 0.452012
O O8 0.140565 0.101387 0.428530
O O9 0.905814 0.217278 0.473396
O O10 0.898254 0.438274 0.196273
O O11 0.164599 0.446723 0.154004
O O12 0.757888 0.689661 0.055606
O O13 0.767334 0.482804 0.643061
O O14 0.795032 0.196740 0.166606
#
# Coordination Sequence:
#
# PCOD9293647 Si02
#       8
#     4   8   8   8   4   8   8   8
#     4  10  22  46  72 100 126 164 214 282 346 400
#     4  12  22  41  65  94 136 181 223 264 327 388
#     4  11  23  38  60  92 131 185 222 267 320 376
#     4  11  24  45  71  95 129 167 217 276 334 402
#     4  12  24  36  60  94 138 174 242 270 318 394
#     4  11  23  42  61  96 136 180 219 274 325 389
#     4  10  23  48  70  97 133 171 213 280 340 393
#     4  10  23  42  64  95 134 175 218 264 322 385
#
# _framework density 24.66085
#
# number of rings (size 3 to 8) (size 9 to 14) (size 15 to 20)
#    0.000    1.143    5.714    2.143    0.000    5.714 
#    2.571    0.000    0.000    0.000    0.000    0.000 
#    0.000    0.000    0.000    0.000    0.000    0.000 
#
# Total GULP energy -156205.883311 kJ/mol
# GULP energy per Si atom -5578.781547 kJ/mol
# Density = 2.460472 g / cm^3
# Si number density = 24.660850 Si / 1000 Ang^3
#
#
#
# Elastic Constant Matrix: (Units=GPa)
#
#
# Indices 1 2 3 4 5 6 
#
# 1 186.6748 17.8603 25.3473 0.0000 -48.9823 0.0000
# 2 17.8603 30.6763 -4.2970 0.0000 -8.6672 0.0000
# 3 25.3473 -4.2970 55.2185 0.0000 -21.9629 0.0000
# 4 0.0000 0.0000 0.0000 23.0525 0.0000 -5.3223
# 5 -48.9823 -8.6672 -21.9629 0.0000 52.5397 0.0000
# 6 0.0000 0.0000 0.0000 -5.3223 0.0000 36.5465
#
#
#
# Elastic Compliance Matrix: (Units=1/GPa)
#
#
# Indices 1 2 3 4 5 6 
#
# 1 0.007329 -0.002791 -0.001256 0.000000 0.005847 0.000000
# 2 -0.002791 0.036926 0.006648 0.000000 0.006269 0.000000
# 3 -0.001256 0.006648 0.022998 0.000000 0.009540 0.000000
# 4 0.000000 0.000000 0.000000 0.044888 0.000000 0.006537
# 5 0.005847 0.006269 0.009540 0.000000 0.029506 0.000000
# 6 0.000000 0.000000 0.000000 0.006537 0.000000 0.028314
#
#
# Mechanical properties :
#
#
# Convention : Reuss Voigt Hill
#
# Bulk Modulus (GPa) = 13.80160 38.93229 26.36695
# Shear Modulus (GPa) = 26.46759 38.00502 32.23630
#
# Velocity S-wave (km/s) = 3.27962 3.92995 3.61942
# Velocity P-wave (km/s) = 4.46654 6.03441 5.30867
#
# Compressibility (1/GPa) = 0.07245536
#
# Stress axis : x y z
#
# Youngs Moduli (GPa) = 136.45038 27.08147 43.48210
#
# Poissons Ratio (x) = 0.07558 0.05460
# Poissons Ratio (y) = 0.38079 -0.28906
# Poissons Ratio (z) = 0.17133 -0.18003
#
# Static dielectric constant tensor:
#      x y z
#    x 1.940210 0.000000 -0.017460 
#    y 0.000000 2.032750 0.000000 
#    z -0.017460 0.000000 2.000090 
# 
# From -- ./inp_files/310262.got.cif
#   From: 2010.05.17/outbox.cif.g08.bks.cpg/sg15_156_cif.got.tgz:310262.got - 2010.06.03 18:47:42.
