data_PCOD9293533
_publ_section_title
;
Structure prediction by ZEFSAII (Michael W. Deem and Ramdas Pophale) SiO2 
 PCOD9293533
Probable space group: C 2/C
;
_chemical_formula_sum "Si O2"
_cell_formula_units_Z 40
_cell_length_a 11.390046
_cell_length_b 19.747937
_cell_length_c 9.729950
_cell_angle_alpha 90.000000
_cell_angle_beta 130.979459
_cell_angle_gamma 90.000000
_cell_volume 1652.239421
_symmetry_space_group_name_H-M "C 2/C"
_symmetry_group_IT_number 15
_symmetry_cell_setting 'monoclinic'
loop_
_space_group_symop_operation_xyz
x,y,z
-x,y,1/2-z
-x,-y,-z
x,-y,1/2+z
1/2+x,1/2+y,z
1/2-x,1/2+y,1/2-z
1/2-x,1/2-y,-z
1/2+x,1/2-y,1/2+z
loop_
_atom_site_type_symbol
_atom_site_label
_atom_site_fract_x
_atom_site_fract_y
_atom_site_fract_z
Si Si1 0.380815 0.639481 0.367084
Si Si2 0.377917 0.789179 0.368924
Si Si3 0.666429 0.032388 0.097958
Si Si4 0.690177 0.161758 0.984398
Si Si5 0.360956 0.600960 0.748679
O O1 0.362588 0.714158 0.418300
O O2 0.243794 0.582855 0.273066
O O3 0.351893 0.660211 0.186927
O O4 0.545550 0.609041 0.535888
O O5 0.559363 0.807035 0.486512
O O6 0.317281 0.801575 0.165387
O O7 0.276787 0.844648 0.370826
O O8 0.650888 0.081636 0.953648
O O9 0.788638 0.972515 0.173962
O O10 0.500000 0.000000 0.000000
O O11 0.500000 0.613126 0.750000
#
# Coordination Sequence:
#
# PCOD9293533 Si02
#       5
#     8   8   8   8   8
#     4  10  23  41  69  99 134 175 232 301 339 401
#     4  11  21  44  69 100 133 171 233 288 355 403
#     4  10  22  46  67  95 139 190 223 276 354 422
#     4   9  22  40  70  98 128 177 221 289 349 409
#     4  12  26  43  64  99 143 184 234 278 339 423
#
# _framework density 24.209565999999999
#
# number of rings (size 3 to 8) (size 9 to 14) (size 15 to 20)
#    1.200    0.400    2.000    2.400    0.000    6.400 
#    3.600    3.000    0.000    0.000    0.000    0.000 
#    0.000    0.000    0.000    0.000    0.000    0.000 
#
# Total GULP energy -111520.468184 kJ/mol
# GULP energy per Si atom -5576.023409 kJ/mol
# Density = 2.415446 g / cm^3
# Si number density = 24.209566 Si / 1000 Ang^3
#
#
#
# Elastic Constant Matrix: (Units=GPa)
#
#
# Indices 1 2 3 4 5 6 
#
# 1 89.1651 49.0483 24.1888 0.0000 33.3834 0.0000
# 2 49.0483 202.6589 32.1608 0.0000 25.2130 0.0000
# 3 24.1888 32.1608 112.8805 0.0000 24.4403 0.0000
# 4 0.0000 0.0000 0.0000 36.4956 0.0000 7.4109
# 5 33.3834 25.2130 24.4403 0.0000 38.5640 0.0000
# 6 0.0000 0.0000 0.0000 7.4109 0.0000 19.3027
#
#
#
# Elastic Compliance Matrix: (Units=1/GPa)
#
#
# Indices 1 2 3 4 5 6 
#
# 1 0.017768 -0.002587 -0.000123 0.000000 -0.013611 0.000000
# 2 -0.002587 0.005827 -0.000888 0.000000 -0.001007 0.000000
# 3 -0.000123 -0.000888 0.010419 0.000000 -0.005916 0.000000
# 4 0.000000 0.000000 0.000000 0.029717 0.000000 -0.011409
# 5 -0.013611 -0.001007 -0.005916 0.000000 0.042122 0.000000
# 6 0.000000 0.000000 0.000000 -0.011409 0.000000 0.056187
#
#
# Mechanical properties :
#
#
# Convention : Reuss Voigt Hill
#
# Bulk Modulus (GPa) = 37.28893 68.38892 52.83893
# Shear Modulus (GPa) = 28.06230 38.82625 33.44428
#
# Velocity S-wave (km/s) = 3.40831 4.00904 3.72082
# Velocity P-wave (km/s) = 5.56100 7.05265 6.35077
#
# Compressibility (1/GPa) = 0.02681761
#
# Stress axis : x y z
#
# Youngs Moduli (GPa) = 56.28128 171.62203 95.97689
#
# Poissons Ratio (x) = 0.44404 0.01183
# Poissons Ratio (y) = 0.14562 0.08519
# Poissons Ratio (z) = 0.00694 0.15233
#
# Static dielectric constant tensor:
#      x y z
#    x 2.018590 0.000000 -0.122920 
#    y 0.000000 2.006570 0.000000 
#    z -0.122920 0.000000 2.032200 
# 
# From -- ./inp_files/38659.got.cif
#   From: 2010.05.17/outbox.cif.g08.bks.cpg/sg15_20_cif.got.tgz:38659.got - 2010.06.03 18:47:42.
