data_PCOD9293169
_publ_section_title
;
Structure prediction by ZEFSAII (Michael W. Deem and Ramdas Pophale) SiO2 
 PCOD9293169
Probable space group: C 2/C
;
_chemical_formula_sum "Si O2"
_cell_formula_units_Z 52
_cell_length_a 29.123340
_cell_length_b 5.548247
_cell_length_c 14.538426
_cell_angle_alpha 90.000000
_cell_angle_beta 110.029260
_cell_angle_gamma 90.000000
_cell_volume 2207.086661
_symmetry_space_group_name_H-M "C 2/C"
_symmetry_group_IT_number 15
_symmetry_cell_setting 'monoclinic'
loop_
_space_group_symop_operation_xyz
x,y,z
-x,y,1/2-z
-x,-y,-z
x,-y,1/2+z
1/2+x,1/2+y,z
1/2-x,1/2+y,1/2-z
1/2-x,1/2-y,-z
1/2+x,1/2-y,1/2+z
loop_
_atom_site_type_symbol
_atom_site_label
_atom_site_fract_x
_atom_site_fract_y
_atom_site_fract_z
Si Si1 0.094531 0.915275 0.337447
Si Si2 0.847989 0.047085 0.944170
Si Si3 0.747433 0.200630 0.806256
Si Si4 0.641932 0.265435 0.728580
Si Si5 0.500000 0.262019 0.750000
Si Si6 0.522752 0.121034 0.402405
Si Si7 0.074510 0.616454 0.105446
O O1 0.133518 0.969070 0.443902
O O2 0.121443 0.990814 0.261743
O O3 0.048823 0.094620 0.302333
O O4 0.063535 0.689087 0.354831
O O5 0.794424 0.164765 0.903069
O O6 0.888903 0.224809 0.930453
O O7 0.847183 0.827601 0.870497
O O8 0.752269 0.462294 0.759723
O O9 0.693168 0.200424 0.811324
O O10 0.606051 0.036878 0.700305
O O11 0.503518 0.106725 0.660593
O O12 0.472670 0.269631 0.389139
O O13 0.550368 0.068125 0.515243
#
# Coordination Sequence:
#
# PCOD9293169 Si02
#       7
#     8   8   8   8   4   8   8
#     4  12  26  42  67 102 138 181 241 286 355 424
#     4  11  24  43  70  98 141 180 232 300 352 434
#     4  10  22  44  76 106 142 189 242 300 369 435
#     4  11  24  44  70 100 138 187 232 292 366 426
#     4  12  24  40  56  94 134 182 220 292 330 422
#     4  11  25  40  64  94 135 181 236 287 343 431
#     4  11  22  43  66  93 134 187 230 282 368 418
#
# _framework density 23.560471
#
# number of rings (size 3 to 8) (size 9 to 14) (size 15 to 20)
#    0.000    0.923    6.154    0.462    4.308    1.231 
#    0.000    0.000    0.000    5.538    0.000    0.000 
#    0.000    0.000    0.000    0.000    0.000    0.000 
#
# Total GULP energy -145006.415276 kJ/mol
# GULP energy per Si atom -5577.169818 kJ/mol
# Density = 2.350685 g / cm^3
# Si number density = 23.560471 Si / 1000 Ang^3
#
#
#
# Elastic Constant Matrix: (Units=GPa)
#
#
# Indices 1 2 3 4 5 6 
#
# 1 79.8174 -5.4483 15.8808 0.0000 35.9611 0.0000
# 2 -5.4483 51.1709 1.2100 0.0000 4.7686 0.0000
# 3 15.8808 1.2100 88.9386 0.0000 12.4172 0.0000
# 4 0.0000 0.0000 0.0000 55.0391 0.0000 5.0169
# 5 35.9611 4.7686 12.4172 0.0000 53.4229 0.0000
# 6 0.0000 0.0000 0.0000 5.0169 0.0000 33.7369
#
#
#
# Elastic Compliance Matrix: (Units=1/GPa)
#
#
# Indices 1 2 3 4 5 6 
#
# 1 0.018701 0.003194 -0.001639 0.000000 -0.012493 0.000000
# 2 0.003194 0.020252 -0.000303 0.000000 -0.003887 0.000000
# 3 -0.001639 -0.000303 0.011764 0.000000 -0.001604 0.000000
# 4 0.000000 0.000000 0.000000 0.018419 0.000000 -0.002739
# 5 -0.012493 -0.003887 -0.001604 0.000000 0.027848 0.000000
# 6 0.000000 0.000000 0.000000 -0.002739 0.000000 0.030048
#
#
# Mechanical properties :
#
#
# Convention : Reuss Voigt Hill
#
# Bulk Modulus (GPa) = 18.78914 27.02354 22.90634
# Shear Modulus (GPa) = 35.14492 42.32542 38.73517
#
# Velocity S-wave (km/s) = 3.86643 4.24306 4.05912
# Velocity P-wave (km/s) = 5.28437 5.95815 5.63135
#
# Compressibility (1/GPa) = 0.05322224
#
# Stress axis : x y z
#
# Youngs Moduli (GPa) = 53.47270 49.37823 85.00213
#
# Poissons Ratio (x) = -0.15772 0.13928
# Poissons Ratio (y) = -0.17080 0.02577
# Poissons Ratio (z) = 0.08762 0.01497
#
# Static dielectric constant tensor:
#      x y z
#    x 2.029970 0.000000 -0.039200 
#    y 0.000000 1.980290 0.000000 
#    z -0.039200 0.000000 1.692250 
# 
# From -- ./inp_files/223705.got.cif
#   From: 2010.05.17/outbox.cif.g08.bks.cpg/sg15_112_cif.got.tgz:223705.got - 2010.06.03 18:47:42.
