data_PCOD9293152
_publ_section_title
;
Structure prediction by ZEFSAII (Michael W. Deem and Ramdas Pophale) SiO2 
 PCOD9293152
Probable space group: C 2/C
;
_chemical_formula_sum "Si O2"
_cell_formula_units_Z 44
_cell_length_a 11.446928
_cell_length_b 9.110906
_cell_length_c 22.279327
_cell_angle_alpha 90.000000
_cell_angle_beta 126.823382
_cell_angle_gamma 90.000000
_cell_volume 1859.973622
_symmetry_space_group_name_H-M "C 2/C"
_symmetry_group_IT_number 15
_symmetry_cell_setting 'monoclinic'
loop_
_space_group_symop_operation_xyz
x,y,z
-x,y,1/2-z
-x,-y,-z
x,-y,1/2+z
1/2+x,1/2+y,z
1/2-x,1/2+y,1/2-z
1/2-x,1/2-y,-z
1/2+x,1/2-y,1/2+z
loop_
_atom_site_type_symbol
_atom_site_label
_atom_site_fract_x
_atom_site_fract_y
_atom_site_fract_z
Si Si1 0.921626 0.580600 0.920750
Si Si2 0.000000 0.766499 0.750000
Si Si3 0.173324 0.143350 0.929065
Si Si4 0.536663 0.868267 0.669279
Si Si5 0.204768 0.494209 0.828759
Si Si6 0.489893 0.624701 0.110926
O O1 0.771528 0.642230 0.900361
O O2 0.893037 0.457760 0.862596
O O3 0.009892 0.715153 0.918978
O O4 0.000000 0.500000 0.000000
O O5 0.141120 0.656024 0.793823
O O6 0.003527 0.853375 0.687789
O O7 0.014945 0.208254 0.864399
O O8 0.250000 0.250000 0.000000
O O9 0.149918 0.977409 0.943321
O O10 0.638888 0.885695 0.757610
O O11 0.383753 0.949610 0.639047
O O12 0.374267 0.460720 0.878244
#
# Coordination Sequence:
#
# PCOD9293152 Si02
#       6
#     8   4   8   8   8   8
#     4  12  25  48  71 101 144 192 249 293 350 439
#     4  10  24  44  68 116 142 172 242 310 358 440
#     4  12  28  47  67 107 145 195 242 293 358 436
#     4  10  22  46  70 103 147 179 231 303 360 427
#     4  10  22  44  75 101 150 177 227 315 370 416
#     4  12  27  43  78 108 138 197 241 291 381 428
#
# _framework density 23.656248999999999
#
# number of rings (size 3 to 8) (size 9 to 14) (size 15 to 20)
#    0.000    1.091    7.273    0.000    5.091    2.909 
#    0.000    0.000    0.000    0.000    0.000    0.000 
#    0.000    0.000    0.000    0.000    0.000    0.000 
#
# Total GULP energy -123031.424155 kJ/mol
# GULP energy per Si atom -5592.337462 kJ/mol
# Density = 2.360241 g / cm^3
# Si number density = 23.656249 Si / 1000 Ang^3
#
#
#
# Elastic Constant Matrix: (Units=GPa)
#
#
# Indices 1 2 3 4 5 6 
#
# 1 84.1806 34.0864 21.9879 0.0000 -21.4951 0.0000
# 2 34.0864 100.9503 14.2016 0.0000 -4.0122 0.0000
# 3 21.9879 14.2016 48.0753 0.0000 -12.6175 0.0000
# 4 0.0000 0.0000 0.0000 39.5809 0.0000 -1.3899
# 5 -21.4951 -4.0122 -12.6175 0.0000 26.1576 0.0000
# 6 0.0000 0.0000 0.0000 -1.3899 0.0000 49.4323
#
#
#
# Elastic Compliance Matrix: (Units=1/GPa)
#
#
# Indices 1 2 3 4 5 6 
#
# 1 0.018004 -0.005098 -0.003493 0.000000 0.012328 0.000000
# 2 -0.005098 0.011779 -0.002030 0.000000 -0.003362 0.000000
# 3 -0.003493 -0.002030 0.025375 0.000000 0.009058 0.000000
# 4 0.000000 0.000000 0.000000 0.025290 0.000000 0.000711
# 5 0.012328 -0.003362 0.009058 0.000000 0.052214 0.000000
# 6 0.000000 0.000000 0.000000 0.000711 0.000000 0.020250
#
#
# Mechanical properties :
#
#
# Convention : Reuss Voigt Hill
#
# Bulk Modulus (GPa) = 29.48436 41.52864 35.50650
# Shear Modulus (GPa) = 26.96020 33.89619 30.42819
#
# Velocity S-wave (km/s) = 3.37955 3.78943 3.59034
# Velocity P-wave (km/s) = 5.26491 6.06131 5.67709
#
# Compressibility (1/GPa) = 0.03391629
#
# Stress axis : x y z
#
# Youngs Moduli (GPa) = 55.54471 84.89584 39.40823
#
# Poissons Ratio (x) = 0.43277 0.13765
# Poissons Ratio (y) = 0.28315 0.08001
# Poissons Ratio (z) = 0.19401 0.17237
#
# Static dielectric constant tensor:
#      x y z
#    x 2.073480 0.000000 -0.212370 
#    y 0.000000 1.916750 0.000000 
#    z -0.212370 0.000000 2.234350 
# 
# From -- ./inp_files/268143.got.cif
#   From: 2010.05.17/outbox.cif.g08.bks.cpg/sg15_135_cif.got.tgz:268143.got - 2010.06.03 18:47:42.
