data_PCOD9293571
_publ_section_title
;
Structure prediction by ZEFSAII (Michael W. Deem and Ramdas Pophale) SiO2 
 PCOD9293571
Probable space group: C 2/C
;
_chemical_formula_sum "Si O2"
_cell_formula_units_Z 64
_cell_length_a 19.679345
_cell_length_b 8.461030
_cell_length_c 30.393790
_cell_angle_alpha 90.000000
_cell_angle_beta 36.016939
_cell_angle_gamma 90.000000
_cell_volume 2975.870884
_symmetry_space_group_name_H-M "C 2/C"
_symmetry_group_IT_number 15
_symmetry_cell_setting 'monoclinic'
loop_
_space_group_symop_operation_xyz
x,y,z
-x,y,1/2-z
-x,-y,-z
x,-y,1/2+z
1/2+x,1/2+y,z
1/2-x,1/2+y,1/2-z
1/2-x,1/2-y,-z
1/2+x,1/2-y,1/2+z
loop_
_atom_site_type_symbol
_atom_site_label
_atom_site_fract_x
_atom_site_fract_y
_atom_site_fract_z
Si Si1 0.161181 0.349223 0.368545
Si Si2 0.655384 0.992253 0.464310
Si Si3 0.413977 0.498192 0.099491
Si Si4 0.423685 0.497352 0.332409
Si Si5 0.846320 0.135912 0.546626
Si Si6 0.981729 0.473526 0.628901
Si Si7 0.604775 0.643110 0.798688
Si Si8 0.080903 0.378350 0.166182
O O1 0.121770 0.437804 0.433072
O O2 0.140131 0.164621 0.386403
O O3 0.294329 0.384602 0.289003
O O4 0.092989 0.404192 0.360758
O O5 0.579488 0.918753 0.542911
O O6 0.790271 0.951833 0.398690
O O7 0.642763 0.182736 0.474536
O O8 0.374302 0.372157 0.083983
O O9 0.371126 0.451252 0.169545
O O10 0.552325 0.527697 0.026818
O O11 0.500000 0.452685 0.250000
O O12 0.485014 0.416468 0.341337
O O13 0.428167 0.687994 0.333532
O O14 0.715429 0.083492 0.605318
O O15 0.037421 0.547156 0.643440
O O16 0.904963 0.325986 0.683681
O O17 0.000000 0.425642 0.250000
#
# Coordination Sequence:
#
# PCOD9293571 Si02
#       8
#     8   8   8   8   8   8   8   8
#     4  12  25  45  69  96 138 176 223 275 333 392
#     4  11  24  45  71  97 137 175 219 278 329 398
#     4  11  25  43  69  99 132 178 223 276 330 396
#     4  10  22  46  68  97 130 181 219 266 336 394
#     4  10  24  44  69  98 133 173 223 275 333 391
#     4  12  27  43  68 103 132 177 225 272 334 396
#     4  12  27  42  67  99 137 174 224 275 330 400
#     4  10  25  44  69  96 135 177 223 274 329 399
#
# _framework density 21.506309999999999
#
# number of rings (size 3 to 8) (size 9 to 14) (size 15 to 20)
#    0.000    1.000    2.500    2.625    8.750    3.000 
#    0.000    0.000    0.000    0.000    0.000    0.000 
#    0.000    0.000    0.000    0.000    0.000    0.000 
#
# Total GULP energy -179038.258244 kJ/mol
# GULP energy per Si atom -5594.945570 kJ/mol
# Density = 2.145736 g / cm^3
# Si number density = 21.506310 Si / 1000 Ang^3
#
#
#
# Elastic Constant Matrix: (Units=GPa)
#
#
# Indices 1 2 3 4 5 6 
#
# 1 99.3508 10.0161 34.1906 -0.0021 2.5733 0.0081
# 2 10.0161 7.2703 -3.9258 -0.0046 0.0739 0.0034
# 3 34.1906 -3.9258 76.8975 -0.0005 9.2379 -0.0018
# 4 -0.0021 -0.0046 -0.0005 19.1013 0.0006 8.4633
# 5 2.5733 0.0739 9.2379 0.0006 40.9617 -0.0018
# 6 0.0081 0.0034 -0.0018 8.4633 -0.0018 29.8882
#
#
#
# Elastic Compliance Matrix: (Units=1/GPa)
#
#
# Indices 1 2 3 4 5 6 
#
# 1 0.015520 -0.025894 -0.008337 -0.000005 0.000952 0.000000
# 2 -0.025894 0.184796 0.021371 0.000055 -0.003526 -0.000029
# 3 -0.008337 0.021371 0.018238 0.000005 -0.003628 -0.000001
# 4 -0.000005 0.000055 0.000005 0.059863 -0.000003 -0.016951
# 5 0.000952 -0.003526 -0.003628 -0.000003 0.025178 0.000002
# 6 0.000000 -0.000029 -0.000001 -0.016951 0.000002 0.038258
#
#
# Mechanical properties :
#
#
# Convention : Reuss Voigt Hill
#
# Bulk Modulus (GPa) = 5.18579 29.34228 17.26404
# Shear Modulus (GPa) = 11.57809 27.53941 19.55875
#
# Velocity S-wave (km/s) = 2.32277 3.58233 3.01897
# Velocity P-wave (km/s) = 3.10003 5.54833 4.49412
#
# Compressibility (1/GPa) = 0.19283462
#
# Stress axis : x y z
#
# Youngs Moduli (GPa) = 64.43183 5.41138 54.83037
#
# Poissons Ratio (x) = 0.14012 0.45712
# Poissons Ratio (y) = 1.66837 -1.17178
# Poissons Ratio (z) = 0.53717 -0.11565
#
# Static dielectric constant tensor:
#      x y z
#    x 1.744930 0.000000 -0.021540 
#    y 0.000000 1.744210 0.000000 
#    z -0.021540 0.000000 1.787320 
# 
# From -- ./inp_files/315658.got.cif
#   From: 2010.05.17/outbox.cif.g08.bks.cpg/sg15_158_cif.got.tgz:315658.got - 2010.06.03 18:47:42.
