data_PCOD9293249
_publ_section_title
;
Structure prediction by ZEFSAII (Michael W. Deem and Ramdas Pophale) SiO2 
 PCOD9293249
Probable space group: C 2/C
;
_chemical_formula_sum "Si O2"
_cell_formula_units_Z 44
_cell_length_a 25.874927
_cell_length_b 13.161318
_cell_length_c 12.598815
_cell_angle_alpha 90.000000
_cell_angle_beta 30.950956
_cell_angle_gamma 90.000000
_cell_volume 2206.623603
_symmetry_space_group_name_H-M "C 2/C"
_symmetry_group_IT_number 15
_symmetry_cell_setting 'monoclinic'
loop_
_space_group_symop_operation_xyz
x,y,z
-x,y,1/2-z
-x,-y,-z
x,-y,1/2+z
1/2+x,1/2+y,z
1/2-x,1/2+y,1/2-z
1/2-x,1/2-y,-z
1/2+x,1/2-y,1/2+z
loop_
_atom_site_type_symbol
_atom_site_label
_atom_site_fract_x
_atom_site_fract_y
_atom_site_fract_z
Si Si1 0.683990 0.344186 0.497036
Si Si2 0.430809 0.906011 0.588244
Si Si3 0.454476 0.270020 0.218931
Si Si4 0.833153 0.823976 0.724468
Si Si5 0.292315 0.430894 0.589553
Si Si6 0.000000 0.298196 0.250000
O O1 0.788418 0.288869 0.281214
O O2 0.688203 0.350084 0.616975
O O3 0.664800 0.455970 0.487676
O O4 0.594829 0.270946 0.616098
O O5 0.430622 0.818658 0.678559
O O6 0.315564 0.936925 0.774941
O O7 0.471150 0.862018 0.405293
O O8 0.500000 0.000000 0.500000
O O9 0.500000 0.229376 0.250000
O O10 0.364148 0.347088 0.406944
O O11 0.548288 0.330179 0.003439
O O12 0.780949 0.895694 0.730954
#
# Coordination Sequence:
#
# PCOD9293249 Si02
#       6
#     8   8   8   8   8   4
#     4  11  24  44  70  95 137 180 226 289 336 412
#     4  12  26  46  68 102 139 181 232 282 344 411
#     4  10  23  44  67  98 141 176 226 285 340 409
#     4  10  22  45  66  98 135 177 229 280 344 409
#     4  11  25  42  70 102 133 182 229 282 353 400
#     4  12  26  46  72 100 134 184 230 280 340 412
#
# _framework density 19.939965999999998
#
# number of rings (size 3 to 8) (size 9 to 14) (size 15 to 20)
#    0.000    1.091    3.636    1.636    7.636    2.182 
#    6.545    0.000    0.000    0.000    0.000    0.000 
#    0.000    0.000    0.000    0.000    0.000    0.000 
#
# Total GULP energy -122909.813772 kJ/mol
# GULP energy per Si atom -5586.809717 kJ/mol
# Density = 1.989458 g / cm^3
# Si number density = 19.939966 Si / 1000 Ang^3
#
#
#
# Elastic Constant Matrix: (Units=GPa)
#
#
# Indices 1 2 3 4 5 6 
#
# 1 88.9559 54.7527 53.1616 0.0000 -2.7500 0.0000
# 2 54.7527 116.3921 46.4657 0.0000 13.5253 0.0000
# 3 53.1616 46.4657 98.9121 0.0000 -2.5800 0.0000
# 4 0.0000 0.0000 0.0000 19.6479 0.0000 -12.3468
# 5 -2.7500 13.5253 -2.5800 0.0000 44.6938 0.0000
# 6 0.0000 0.0000 0.0000 -12.3468 0.0000 31.8129
#
#
#
# Elastic Compliance Matrix: (Units=1/GPa)
#
#
# Indices 1 2 3 4 5 6 
#
# 1 0.019939 -0.006720 -0.007486 0.000000 0.002828 0.000000
# 2 -0.006720 0.013413 -0.002810 0.000000 -0.004635 0.000000
# 3 -0.007486 -0.002810 0.015487 0.000000 0.001284 0.000000
# 4 0.000000 0.000000 0.000000 0.067313 0.000000 0.026125
# 5 0.002828 -0.004635 0.001284 0.000000 0.024025 0.000000
# 6 0.000000 0.000000 0.000000 0.026125 0.000000 0.041573
#
#
# Mechanical properties :
#
#
# Convention : Reuss Voigt Hill
#
# Bulk Modulus (GPa) = 67.53505 68.11333 67.82419
# Shear Modulus (GPa) = 22.65341 29.22292 25.93816
#
# Velocity S-wave (km/s) = 3.37424 3.83240 3.61059
# Velocity P-wave (km/s) = 7.00880 7.33596 7.17425
#
# Compressibility (1/GPa) = 0.01480713
#
# Stress axis : x y z
#
# Youngs Moduli (GPa) = 50.15414 74.55337 64.56992
#
# Poissons Ratio (x) = 0.50097 0.48336
# Poissons Ratio (y) = 0.33701 0.18147
# Poissons Ratio (z) = 0.37544 0.20953
#
# Static dielectric constant tensor:
#      x y z
#    x 1.710880 0.000000 -0.009410 
#    y 0.000000 1.691100 0.000000 
#    z -0.009410 0.000000 1.709800 
# 
# From -- ./inp_files/117888.got.cif
#   From: 2010.05.17/outbox.cif.g08.bks.cpg/sg15_59_cif.got.tgz:117888.got - 2010.06.03 18:47:42.
