data_PCOD9293578
_publ_section_title
;
Structure prediction by ZEFSAII (Michael W. Deem and Ramdas Pophale) SiO2 
 PCOD9293578
Probable space group: C 2/C
;
_chemical_formula_sum "Si O2"
_cell_formula_units_Z 52
_cell_length_a 12.373693
_cell_length_b 20.138943
_cell_length_c 8.976091
_cell_angle_alpha 90.000000
_cell_angle_beta 115.138089
_cell_angle_gamma 90.000000
_cell_volume 2024.926893
_symmetry_space_group_name_H-M "C 2/C"
_symmetry_group_IT_number 15
_symmetry_cell_setting 'monoclinic'
loop_
_space_group_symop_operation_xyz
x,y,z
-x,y,1/2-z
-x,-y,-z
x,-y,1/2+z
1/2+x,1/2+y,z
1/2-x,1/2+y,1/2-z
1/2-x,1/2-y,-z
1/2+x,1/2-y,1/2+z
loop_
_atom_site_type_symbol
_atom_site_label
_atom_site_fract_x
_atom_site_fract_y
_atom_site_fract_z
Si Si1 0.626442 0.727909 0.344948
Si Si2 0.870142 0.221007 0.498923
Si Si3 0.803454 0.556210 0.429606
Si Si4 0.634641 0.071322 0.720257
Si Si5 0.124182 0.100679 0.532295
Si Si6 0.973560 0.348803 0.899757
Si Si7 0.500000 0.607511 0.750000
O O1 0.500000 0.770226 0.250000
O O2 0.750000 0.750000 0.500000
O O3 0.655119 0.711913 0.190502
O O4 0.582323 0.666208 0.422674
O O5 0.750000 0.250000 0.500000
O O6 0.982539 0.272720 0.574955
O O7 0.903862 0.156311 0.614620
O O8 0.890602 0.550490 0.623958
O O9 0.824330 0.496032 0.333658
O O10 0.671683 0.554361 0.425501
O O11 0.844013 0.624854 0.375960
O O12 0.748876 0.118529 0.818508
O O13 0.558257 0.112436 0.561661
O O14 0.050350 0.073295 0.628920
O O15 0.000000 0.373731 0.750000
#
# Coordination Sequence:
#
# PCOD9293578 Si02
#       7
#     8   8   8   8   8   8   4
#     4  12  26  47  76 109 154 204 258 317 388 474
#     4  12  28  43  72 107 155 199 264 310 392 468
#     4  10  24  43  73 102 144 191 254 317 398 448
#     4  10  22  46  69 104 146 192 254 321 390 470
#     4  10  26  45  74  99 149 195 249 314 390 456
#     4  12  24  40  70 108 150 199 250 315 398 460
#     4  12  22  54  64 110 142 200 250 322 370 464
#
# _framework density 25.679939000000001
#
# number of rings (size 3 to 8) (size 9 to 14) (size 15 to 20)
#    0.923    0.000    2.308    4.615    4.308    0.000 
#    2.769    0.769    1.692    0.000    0.000    0.000 
#    0.000    0.000    0.000    0.000    0.000    0.000 
#
# Total GULP energy -144960.328084 kJ/mol
# GULP energy per Si atom -5575.397234 kJ/mol
# Density = 2.562149 g / cm^3
# Si number density = 25.679939 Si / 1000 Ang^3
#
#
#
# Elastic Constant Matrix: (Units=GPa)
#
#
# Indices 1 2 3 4 5 6 
#
# 1 71.0702 12.1155 60.1700 0.0000 -35.8630 0.0000
# 2 12.1155 64.4514 35.2309 0.0000 -13.9293 0.0000
# 3 60.1700 35.2309 171.2514 0.0000 -24.4336 0.0000
# 4 0.0000 0.0000 0.0000 28.5566 0.0000 -7.5035
# 5 -35.8630 -13.9293 -24.4336 0.0000 66.8843 0.0000
# 6 0.0000 0.0000 0.0000 -7.5035 0.0000 34.5710
#
#
#
# Elastic Compliance Matrix: (Units=1/GPa)
#
#
# Indices 1 2 3 4 5 6 
#
# 1 0.026390 0.001931 -0.008011 0.000000 0.011626 0.000000
# 2 0.001931 0.018013 -0.003905 0.000000 0.003360 0.000000
# 3 -0.008011 -0.003905 0.009208 0.000000 -0.001745 0.000000
# 4 0.000000 0.000000 0.000000 0.037136 0.000000 0.008060
# 5 0.011626 0.003360 -0.001745 0.000000 0.021247 0.000000
# 6 0.000000 0.000000 0.000000 0.008060 0.000000 0.030675
#
#
# Mechanical properties :
#
#
# Convention : Reuss Voigt Hill
#
# Bulk Modulus (GPa) = 29.72449 57.97843 43.85146
# Shear Modulus (GPa) = 28.75969 39.28616 34.02292
#
# Velocity S-wave (km/s) = 3.35016 3.91556 3.64384
# Velocity P-wave (km/s) = 5.15412 6.56266 5.90057
#
# Compressibility (1/GPa) = 0.03364229
#
# Stress axis : x y z
#
# Youngs Moduli (GPa) = 37.89286 55.51458 108.59670
#
# Poissons Ratio (x) = -0.10718 0.86994
# Poissons Ratio (y) = -0.07316 0.42404
# Poissons Ratio (z) = 0.30355 0.21677
#
# Static dielectric constant tensor:
#      x y z
#    x 2.249340 0.000000 0.059850 
#    y 0.000000 2.031570 0.000000 
#    z 0.059850 0.000000 2.025020 
# 
# From -- ./inp_files/34437.got.cif
#   From: 2010.05.17/outbox.cif.g08.bks.cpg/sg15_18_cif.got.tgz:34437.got - 2010.06.03 18:47:42.
