data_PCOD9293176
_publ_section_title
;
Structure prediction by ZEFSAII (Michael W. Deem and Ramdas Pophale) SiO2 
 PCOD9293176
Probable space group: C 2/C
;
_chemical_formula_sum "Si O2"
_cell_formula_units_Z 28
_cell_length_a 7.168667
_cell_length_b 16.321238
_cell_length_c 9.067983
_cell_angle_alpha 90.000000
_cell_angle_beta 79.974585
_cell_angle_gamma 90.000000
_cell_volume 1044.767487
_symmetry_space_group_name_H-M "C 2/C"
_symmetry_group_IT_number 15
_symmetry_cell_setting 'monoclinic'
loop_
_space_group_symop_operation_xyz
x,y,z
-x,y,1/2-z
-x,-y,-z
x,-y,1/2+z
1/2+x,1/2+y,z
1/2-x,1/2+y,1/2-z
1/2-x,1/2-y,-z
1/2+x,1/2-y,1/2+z
loop_
_atom_site_type_symbol
_atom_site_label
_atom_site_fract_x
_atom_site_fract_y
_atom_site_fract_z
Si Si1 0.260329 0.163011 0.912284
Si Si2 0.315577 0.064608 0.180130
Si Si3 0.500000 0.568407 0.750000
Si Si4 0.777989 0.270964 0.828353
O O1 0.065334 0.118478 0.886726
O O2 0.318147 0.195974 0.744004
O O3 0.250000 0.250000 0.000000
O O4 0.360175 0.101663 0.011980
O O5 0.500000 0.043723 0.250000
O O6 0.213742 0.139882 0.282056
O O7 0.177176 0.988695 0.187115
O O8 0.000000 0.272420 0.750000
O O9 0.750000 0.250000 0.000000
#
# Coordination Sequence:
#
# PCOD9293176 Si02
#       4
#     8   8   4   8
#     4  10  23  46  76 113 158 214 276 335 411 499
#     4  10  25  46  73 117 166 209 274 342 419 492
#     4  12  24  44  86 112 160 218 278 342 430 490
#     4  10  22  44  76 114 163 216 278 336 408 491
#
# _framework density 26.800219999999999
#
# number of rings (size 3 to 8) (size 9 to 14) (size 15 to 20)
#    0.000    1.714    1.429    0.857    6.000    3.429 
#    0.000    5.714    0.000    0.000    0.000    0.000 
#    0.000    0.000    0.000    0.000    0.000    0.000 
#
# Total GULP energy -78326.759918 kJ/mol
# GULP energy per Si atom -5594.768566 kJ/mol
# Density = 2.673922 g / cm^3
# Si number density = 26.800220 Si / 1000 Ang^3
#
#
#
# Elastic Constant Matrix: (Units=GPa)
#
#
# Indices 1 2 3 4 5 6 
#
# 1 168.3725 64.0626 55.9821 0.0000 47.6184 0.0000
# 2 64.0626 158.3214 56.8502 0.0000 23.6051 0.0000
# 3 55.9821 56.8502 230.7935 0.0000 32.3165 0.0000
# 4 0.0000 0.0000 0.0000 45.4509 0.0000 27.1933
# 5 47.6184 23.6051 32.3165 0.0000 54.2157 0.0000
# 6 0.0000 0.0000 0.0000 27.1933 0.0000 43.8950
#
#
#
# Elastic Compliance Matrix: (Units=1/GPa)
#
#
# Indices 1 2 3 4 5 6 
#
# 1 0.008871 -0.002402 -0.000672 0.000000 -0.006345 0.000000
# 2 -0.002402 0.007825 -0.001269 0.000000 -0.000540 0.000000
# 3 -0.000672 -0.001269 0.005072 0.000000 -0.001881 0.000000
# 4 0.000000 0.000000 0.000000 0.034960 0.000000 -0.021658
# 5 -0.006345 -0.000540 -0.001881 0.000000 0.025374 0.000000
# 6 0.000000 0.000000 0.000000 -0.021658 0.000000 0.036199
#
#
# Mechanical properties :
#
#
# Convention : Reuss Voigt Hill
#
# Bulk Modulus (GPa) = 76.44341 101.25303 88.84822
# Shear Modulus (GPa) = 38.06723 54.08515 46.07619
#
# Velocity S-wave (km/s) = 3.77292 4.49718 4.15088
# Velocity P-wave (km/s) = 6.89675 8.05164 7.49647
#
# Compressibility (1/GPa) = 0.01308157
#
# Stress axis : x y z
#
# Youngs Moduli (GPa) = 112.72527 127.80227 197.17215
#
# Poissons Ratio (x) = 0.30703 0.13241
# Poissons Ratio (y) = 0.27081 0.25021
# Poissons Ratio (z) = 0.07570 0.16218
#
# Static dielectric constant tensor:
#      x y z
#    x 2.335200 0.000000 -0.048760 
#    y 0.000000 2.147680 0.000000 
#    z -0.048760 0.000000 2.103580 
# 
# From -- ./inp_files/21536.got.cif
#   From: 2010.05.17/outbox.cif.g08.bks.cpg/sg15_11_cif.got.tgz:21536.got - 2010.06.03 18:47:42.
