data_PCOD9293727
_publ_section_title
;
Structure prediction by ZEFSAII (Michael W. Deem and Ramdas Pophale) SiO2 
 PCOD9293727
Probable space group: C 2/C
;
_chemical_formula_sum "Si O2"
_cell_formula_units_Z 44
_cell_length_a 25.545739
_cell_length_b 13.982614
_cell_length_c 5.295500
_cell_angle_alpha 90.000000
_cell_angle_beta 69.550073
_cell_angle_gamma 90.000000
_cell_volume 1772.324150
_symmetry_space_group_name_H-M "C 2/C"
_symmetry_group_IT_number 15
_symmetry_cell_setting 'monoclinic'
loop_
_space_group_symop_operation_xyz
x,y,z
-x,y,1/2-z
-x,-y,-z
x,-y,1/2+z
1/2+x,1/2+y,z
1/2-x,1/2+y,1/2-z
1/2-x,1/2-y,-z
1/2+x,1/2-y,1/2+z
loop_
_atom_site_type_symbol
_atom_site_label
_atom_site_fract_x
_atom_site_fract_y
_atom_site_fract_z
Si Si1 0.886189 0.338308 0.196059
Si Si2 0.382870 0.441793 0.370731
Si Si3 0.500000 0.861273 0.750000
Si Si4 0.278922 0.939716 0.502305
Si Si5 0.294551 0.704323 0.108445
Si Si6 0.449790 0.292847 0.973534
O O1 0.843925 0.408422 0.409794
O O2 0.842945 0.282047 0.084566
O O3 0.907250 0.253014 0.345295
O O4 0.939832 0.393354 0.979380
O O5 0.386849 0.477440 0.649928
O O6 0.325754 0.384788 0.427833
O O7 0.427843 0.362632 0.223247
O O8 0.523756 0.798058 0.935412
O O9 0.238926 0.847664 0.607478
O O10 0.269364 0.988553 0.250010
O O11 0.250000 0.750000 0.000000
O O12 0.500000 0.346109 0.750000
#
# Coordination Sequence:
#
# PCOD9293727 Si02
#       6
#     8   8   4   8   8   8
#     4  11  24  47  77 105 142 194 250 301 355 442
#     4  12  26  43  67 104 150 187 232 300 374 429
#     4  10  22  46  78 102 136 186 266 296 350 426
#     4  12  28  47  72 113 155 190 238 308 379 433
#     4  12  25  48  77 106 144 198 251 295 358 442
#     4  10  23  43  71 101 138 192 248 293 349 433
#
# _framework density 24.826158
#
# number of rings (size 3 to 8) (size 9 to 14) (size 15 to 20)
#    0.000    0.727    1.818    4.909    5.091    3.636 
#    0.000    0.909    0.000    0.000    0.000    0.000 
#    0.000    0.000    0.000    0.000    0.000    0.000 
#
# Total GULP energy -122997.684489 kJ/mol
# GULP energy per Si atom -5590.803840 kJ/mol
# Density = 2.476965 g / cm^3
# Si number density = 24.826158 Si / 1000 Ang^3
#
#
#
# Elastic Constant Matrix: (Units=GPa)
#
#
# Indices 1 2 3 4 5 6 
#
# 1 95.4664 -7.6048 11.8707 0.0000 6.3300 0.0000
# 2 -7.6048 31.1972 21.1263 0.0000 4.3618 0.0000
# 3 11.8707 21.1263 114.4134 0.0000 -21.5149 0.0000
# 4 0.0000 0.0000 0.0000 55.5629 0.0000 -1.1774
# 5 6.3300 4.3618 -21.5149 0.0000 51.0981 0.0000
# 6 0.0000 0.0000 0.0000 -1.1774 0.0000 -17.6633
#
#
#
# Elastic Compliance Matrix: (Units=1/GPa)
#
#
# Indices 1 2 3 4 5 6 
#
# 1 0.011400 0.004995 -0.002662 0.000000 -0.002959 0.000000
# 2 0.004995 0.040919 -0.009608 0.000000 -0.008157 0.000000
# 3 -0.002662 -0.009608 0.011953 0.000000 0.006183 0.000000
# 4 0.000000 0.000000 0.000000 0.017972 0.000000 -0.001198
# 5 -0.002959 -0.008157 0.006183 0.000000 0.023236 0.000000
# 6 0.000000 0.000000 0.000000 -0.001198 0.000000 -0.056535
#
#
# Mechanical properties :
#
#
# Convention : Reuss Voigt Hill
#
# Bulk Modulus (GPa) = 20.11136 32.42903 26.27019
# Shear Modulus (GPa) = 62.44673 32.17852 47.31263
#
# Velocity S-wave (km/s) = 5.02078 3.60412 4.37023
# Velocity P-wave (km/s) = 6.45983 5.51456 6.00582
#
# Compressibility (1/GPa) = 0.04972314
#
# Stress axis : x y z
#
# Youngs Moduli (GPa) = 87.71951 24.43881 83.66056
#
# Poissons Ratio (x) = -0.12207 0.22267
# Poissons Ratio (y) = -0.43817 0.80379
# Poissons Ratio (z) = 0.23347 0.23480
#
# Static dielectric constant tensor:
#      x y z
#    x 1.950110 0.000000 -0.088120 
#    y 0.000000 1.994290 0.000000 
#    z -0.088120 0.000000 2.075050 
# 
# From -- ./inp_files/16907.got.cif
#   From: 2010.05.17/outbox.cif.g08.bks.cpg/sg15_9_cif.got.tgz:16907.got - 2010.06.03 18:47:42.
