data_PCOD9293899
_publ_section_title
;
Structure prediction by ZEFSAII (Michael W. Deem and Ramdas Pophale) SiO2 
 PCOD9293899
Probable space group: C 2/C
;
_chemical_formula_sum "Si O2"
_cell_formula_units_Z 56
_cell_length_a 20.420831
_cell_length_b 14.300720
_cell_length_c 8.926008
_cell_angle_alpha 90.000000
_cell_angle_beta 96.291241
_cell_angle_gamma 90.000000
_cell_volume 2590.987012
_symmetry_space_group_name_H-M "C 2/C"
_symmetry_group_IT_number 15
_symmetry_cell_setting 'monoclinic'
loop_
_space_group_symop_operation_xyz
x,y,z
-x,y,1/2-z
-x,-y,-z
x,-y,1/2+z
1/2+x,1/2+y,z
1/2-x,1/2+y,1/2-z
1/2-x,1/2-y,-z
1/2+x,1/2-y,1/2+z
loop_
_atom_site_type_symbol
_atom_site_label
_atom_site_fract_x
_atom_site_fract_y
_atom_site_fract_z
Si Si1 0.500000 0.536240 0.250000
Si Si2 0.127861 0.323263 0.913763
Si Si3 0.835774 0.125295 0.503999
Si Si4 0.798726 0.071356 0.955867
Si Si5 0.748359 0.329668 0.779802
Si Si6 0.500000 0.214688 0.250000
Si Si7 0.783439 0.369854 0.304361
Si Si8 0.062682 0.875332 0.062707
O O1 0.546829 0.464002 0.168688
O O2 0.533376 0.598722 0.390454
O O3 0.118410 0.210572 0.941170
O O4 0.185379 0.335552 0.803258
O O5 0.057804 0.349505 0.831325
O O6 0.151109 0.368932 0.077996
O O7 0.815434 0.135462 0.328220
O O8 0.770131 0.146992 0.580029
O O9 0.842656 0.015728 0.526969
O O10 0.747652 0.049748 0.807555
O O11 0.858158 0.138513 0.920430
O O12 0.752298 0.110400 0.072393
O O13 0.726601 0.222162 0.799316
O O14 0.530465 0.284017 0.130438
#
# Coordination Sequence:
#
# PCOD9293899 Si02
#       8
#     4   8   8   8   8   4   8   8
#     4   9  22  38  42  70 124 168 175 214 258 317
#     4   9  20  39  56  74 115 151 195 225 279 349
#     4   9  19  32  53  80 111 148 176 221 285 342
#     4  12  21  30  57  88 112 142 187 240 287 327
#     4   9  19  34  52  76 110 147 179 235 288 325
#     4  11  22  38  58  76  98 166 209 218 262 349
#     4   9  19  35  50  76 110 147 182 233 293 326
#     4  10  23  33  52  76 115 153 198 218 263 330
#
# _framework density 21.613385000000001
#
# number of rings (size 3 to 8) (size 9 to 14) (size 15 to 20)
#    0.000    2.286    0.000    4.714   10.000    1.143 
#    0.000    0.000    0.000    0.000    0.000   16.000 
#    0.000    0.000    0.000    0.000    0.000    0.000 
#
# Total GULP energy -155876.540785 kJ/mol
# GULP energy per Si atom -5567.019314 kJ/mol
# Density = 2.156419 g / cm^3
# Si number density = 21.613385 Si / 1000 Ang^3
#
#
#
# Elastic Constant Matrix: (Units=GPa)
#
#
# Indices 1 2 3 4 5 6 
#
# 1 107.4089 6.4198 48.0949 0.0000 22.5684 0.0000
# 2 6.4198 25.9751 13.5397 0.0000 -5.9279 0.0000
# 3 48.0949 13.5397 133.4352 0.0000 18.3921 0.0000
# 4 0.0000 0.0000 0.0000 25.5495 0.0000 8.3558
# 5 22.5684 -5.9279 18.3921 0.0000 32.9052 0.0000
# 6 0.0000 0.0000 0.0000 8.3558 0.0000 7.4753
#
#
#
# Elastic Compliance Matrix: (Units=1/GPa)
#
#
# Indices 1 2 3 4 5 6 
#
# 1 0.012452 -0.003102 -0.003163 0.000000 -0.007332 0.000000
# 2 -0.003102 0.045019 -0.005267 0.000000 0.013182 0.000000
# 3 -0.003163 -0.005267 0.009752 0.000000 -0.004230 0.000000
# 4 0.000000 0.000000 0.000000 0.061692 0.000000 -0.068958
# 5 -0.007332 0.013182 -0.004230 0.000000 0.040158 0.000000
# 6 0.000000 0.000000 0.000000 -0.068958 0.000000 0.210855
#
#
# Mechanical properties :
#
#
# Convention : Reuss Voigt Hill
#
# Bulk Modulus (GPa) = 22.64540 44.76979 33.70759
# Shear Modulus (GPa) = 11.97000 26.43699 19.20350
#
# Velocity S-wave (km/s) = 2.35590 3.50119 2.98401
# Velocity P-wave (km/s) = 4.23091 6.09125 5.24423
#
# Compressibility (1/GPa) = 0.04415909
#
# Stress axis : x y z
#
# Youngs Moduli (GPa) = 80.30585 22.21300 102.54493
#
# Poissons Ratio (x) = 0.06891 0.32435
# Poissons Ratio (y) = 0.24911 0.54009
# Poissons Ratio (z) = 0.25401 0.11699
#
# Static dielectric constant tensor:
#      x y z
#    x 1.812580 0.000000 0.026270 
#    y 0.000000 2.024210 0.000000 
#    z 0.026270 0.000000 1.834250 
# 
# From -- ./inp_files/55678.got.cif
#   From: 2010.05.17/outbox.cif.g08.bks.cpg/sg15_28_cif.got.tgz:55678.got - 2010.06.03 18:47:42.
