data_PCOD9293777
_publ_section_title
;
Structure prediction by ZEFSAII (Michael W. Deem and Ramdas Pophale) SiO2 
 PCOD9293777
Probable space group: C 2/C
;
_chemical_formula_sum "Si O2"
_cell_formula_units_Z 28
_cell_length_a 7.498961
_cell_length_b 12.568689
_cell_length_c 17.866507
_cell_angle_alpha 90.000000
_cell_angle_beta 39.545300
_cell_angle_gamma 90.000000
_cell_volume 1072.154710
_symmetry_space_group_name_H-M "C 2/C"
_symmetry_group_IT_number 15
_symmetry_cell_setting 'monoclinic'
loop_
_space_group_symop_operation_xyz
x,y,z
-x,y,1/2-z
-x,-y,-z
x,-y,1/2+z
1/2+x,1/2+y,z
1/2-x,1/2+y,1/2-z
1/2-x,1/2-y,-z
1/2+x,1/2-y,1/2+z
loop_
_atom_site_type_symbol
_atom_site_label
_atom_site_fract_x
_atom_site_fract_y
_atom_site_fract_z
Si Si1 0.487062 0.955843 0.174339
Si Si2 0.686672 0.153722 0.456121
Si Si3 0.223552 0.819044 0.873403
Si Si4 0.000000 0.979832 0.750000
O O1 0.500000 0.896288 0.250000
O O2 0.668412 0.065729 0.131428
O O3 0.152777 0.963983 0.268743
O O4 0.598398 0.901553 0.062913
O O5 0.462259 0.245653 0.512326
O O6 0.732942 0.081632 0.369832
O O7 0.008500 0.179240 0.372768
O O8 0.500000 0.766278 0.750000
#
# Coordination Sequence:
#
# PCOD9293777 Si02
#       4
#     8   8   8   4
#     4  11  24  47  73 102 153 191 243 310 363 439
#     4  11  24  45  73 108 143 197 247 297 379 438
#     4  10  22  47  71 104 147 192 249 302 369 439
#     4  12  24  44  72 110 142 192 254 292 368 460
#
# _framework density 26.115635000000001
#
# number of rings (size 3 to 8) (size 9 to 14) (size 15 to 20)
#    0.000    1.143    5.714    1.714    2.000    1.143 
#   10.286    0.000    0.000    0.000    0.000    0.000 
#    0.000    0.000    0.000    0.000    0.000    0.000 
#
# Total GULP energy -78007.815094 kJ/mol
# GULP energy per Si atom -5571.986792 kJ/mol
# Density = 2.605619 g / cm^3
# Si number density = 26.115635 Si / 1000 Ang^3
#
#
#
# Elastic Constant Matrix: (Units=GPa)
#
#
# Indices 1 2 3 4 5 6 
#
# 1 61.9668 24.5450 -1.1267 0.0013 -20.1667 0.0009
# 2 24.5450 75.8417 22.9483 -0.0008 -5.1985 0.0013
# 3 -1.1267 22.9483 109.0440 0.0018 -12.5248 0.0030
# 4 0.0013 -0.0008 0.0018 60.8630 0.0001 11.2761
# 5 -20.1667 -5.1985 -12.5248 0.0001 63.2256 -0.0008
# 6 0.0009 0.0013 0.0030 11.2761 -0.0008 28.2273
#
#
#
# Elastic Compliance Matrix: (Units=1/GPa)
#
#
# Indices 1 2 3 4 5 6 
#
# 1 0.021184 -0.007153 0.002489 -0.000001 0.006662 0.000000
# 2 -0.007153 0.016518 -0.003741 0.000001 -0.001664 0.000000
# 3 0.002489 -0.003741 0.010273 0.000000 0.002522 -0.000001
# 4 -0.000001 0.000001 0.000000 0.017744 0.000000 -0.007088
# 5 0.006662 -0.001664 0.002522 0.000000 0.018304 0.000000
# 6 0.000000 0.000000 -0.000001 -0.007088 0.000000 0.038258
#
#
# Mechanical properties :
#
#
# Convention : Reuss Voigt Hill
#
# Bulk Modulus (GPa) = 32.08564 37.73176 34.90870
# Shear Modulus (GPa) = 33.44946 43.82890 38.63918
#
# Velocity S-wave (km/s) = 3.58274 4.10110 3.85065
# Velocity P-wave (km/s) = 5.42470 6.07493 5.75900
#
# Compressibility (1/GPa) = 0.03116659
#
# Stress axis : x y z
#
# Youngs Moduli (GPa) = 47.20506 60.53953 97.33955
#
# Poissons Ratio (x) = 0.43301 -0.24231
# Poissons Ratio (y) = 0.33764 0.36418
# Poissons Ratio (z) = -0.11751 0.22650
#
# Static dielectric constant tensor:
#      x y z
#    x 2.070670 0.000000 0.028530 
#    y 0.000000 2.421190 0.000000 
#    z 0.028530 0.000000 2.060340 
# 
# From -- ./inp_files/75443.got.cif
#   From: 2010.05.17/outbox.cif.g08.bks.cpg/sg15_38_cif.got.tgz:75443.got - 2010.06.03 18:47:42.
