data_PCOD9293375
_publ_section_title
;
Structure prediction by ZEFSAII (Michael W. Deem and Ramdas Pophale) SiO2 
 PCOD9293375
Probable space group: C 2/C
;
_chemical_formula_sum "Si O2"
_cell_formula_units_Z 52
_cell_length_a 12.966577
_cell_length_b 20.379727
_cell_length_c 9.574511
_cell_angle_alpha 90.000000
_cell_angle_beta 79.209337
_cell_angle_gamma 90.000000
_cell_volume 2485.377200
_symmetry_space_group_name_H-M "C 2/C"
_symmetry_group_IT_number 15
_symmetry_cell_setting 'monoclinic'
loop_
_space_group_symop_operation_xyz
x,y,z
-x,y,1/2-z
-x,-y,-z
x,-y,1/2+z
1/2+x,1/2+y,z
1/2-x,1/2+y,1/2-z
1/2-x,1/2-y,-z
1/2+x,1/2-y,1/2+z
loop_
_atom_site_type_symbol
_atom_site_label
_atom_site_fract_x
_atom_site_fract_y
_atom_site_fract_z
Si Si1 0.705186 0.772450 0.159948
Si Si2 0.616749 0.355111 0.217979
Si Si3 0.926246 0.001461 0.153281
Si Si4 0.219829 0.186615 0.416762
Si Si5 0.405464 0.029308 0.611950
Si Si6 0.296620 0.944035 0.869310
Si Si7 0.000000 0.648031 0.750000
O O1 0.794062 0.817701 0.214331
O O2 0.681949 0.714393 0.277986
O O3 0.595368 0.809859 0.164743
O O4 0.750000 0.750000 0.000000
O O5 0.500000 0.324178 0.250000
O O6 0.604081 0.428275 0.284304
O O7 0.647680 0.352361 0.046418
O O8 0.000000 0.034066 0.250000
O O9 0.818896 0.038896 0.154521
O O10 0.000000 0.000000 0.000000
O O11 0.250000 0.250000 0.500000
O O12 0.311327 0.134256 0.360931
O O13 0.311392 0.034162 0.525329
O O14 0.442440 0.100103 0.655203
O O15 0.500000 0.000000 0.500000
O O16 0.374007 0.984530 0.750172
#
# Coordination Sequence:
#
# PCOD9293375 Si02
#       7
#     8   8   8   8   8   8   4
#     4  11  27  45  73 106 138 195 240 302 356 424
#     4  10  22  45  71  96 144 187 240 293 360 430
#     4  11  23  41  68 107 136 187 234 297 370 422
#     4  10  23  45  67  98 137 196 238 283 359 435
#     4  12  25  43  70 109 134 189 227 302 378 418
#     4  12  23  43  72  99 148 177 240 296 361 433
#     4  12  26  50  72 102 160 172 254 306 370 440
#
# _framework density 20.922377999999998
#
# number of rings (size 3 to 8) (size 9 to 14) (size 15 to 20)
#    0.000    0.923    1.538    6.462    4.308    1.231 
#    1.385    0.000    0.000    0.000    0.000    0.000 
#    0.000    0.000    0.000    0.000    0.000    0.000 
#
# Total GULP energy -145162.279776 kJ/mol
# GULP energy per Si atom -5583.164607 kJ/mol
# Density = 2.087476 g / cm^3
# Si number density = 20.922378 Si / 1000 Ang^3
#
#
#
# Elastic Constant Matrix: (Units=GPa)
#
#
# Indices 1 2 3 4 5 6 
#
# 1 129.8972 33.9276 52.2833 0.0000 0.1502 0.0000
# 2 33.9276 105.6476 60.3937 0.0000 -11.3322 0.0000
# 3 52.2833 60.3937 178.2591 0.0000 -6.1335 0.0000
# 4 0.0000 0.0000 0.0000 18.7096 0.0000 -6.4103
# 5 0.1502 -11.3322 -6.1335 0.0000 43.0963 0.0000
# 6 0.0000 0.0000 0.0000 -6.4103 0.0000 40.5212
#
#
#
# Elastic Compliance Matrix: (Units=1/GPa)
#
#
# Indices 1 2 3 4 5 6 
#
# 1 0.008997 -0.001799 -0.002057 0.000000 -0.000797 0.000000
# 2 -0.001799 0.012381 -0.003572 0.000000 0.002753 0.000000
# 3 -0.002057 -0.003572 0.007428 0.000000 0.000125 0.000000
# 4 0.000000 0.000000 0.000000 0.056512 0.000000 0.008940
# 5 -0.000797 0.002753 0.000125 0.000000 0.023948 0.000000
# 6 0.000000 0.000000 0.000000 0.008940 0.000000 0.026093
#
#
# Mechanical properties :
#
#
# Convention : Reuss Voigt Hill
#
# Bulk Modulus (GPa) = 71.68798 78.55701 75.12250
# Shear Modulus (GPa) = 32.28653 38.27870 35.28262
#
# Velocity S-wave (km/s) = 3.93257 4.28197 4.11098
# Velocity P-wave (km/s) = 7.41338 7.87880 7.64963
#
# Compressibility (1/GPa) = 0.01394934
#
# Stress axis : x y z
#
# Youngs Moduli (GPa) = 111.14766 80.77212 134.63362
#
# Poissons Ratio (x) = 0.14531 0.27691
# Poissons Ratio (y) = 0.19996 0.48092
# Poissons Ratio (z) = 0.22860 0.28852
#
# Static dielectric constant tensor:
#      x y z
#    x 1.782570 0.000000 0.013680 
#    y 0.000000 1.757850 0.000000 
#    z 0.013680 0.000000 1.746820 
# 
# From -- ./inp_files/40747.got.cif
#   From: 2010.05.17/outbox.cif.g08.bks.cpg/sg15_21_cif.got.tgz:40747.got - 2010.06.03 18:47:42.
