data_PCOD9293384
_publ_section_title
;
Structure prediction by ZEFSAII (Michael W. Deem and Ramdas Pophale) SiO2 
 PCOD9293384
Probable space group: C 2/C
;
_chemical_formula_sum "Si O2"
_cell_formula_units_Z 48
_cell_length_a 18.763826
_cell_length_b 7.935112
_cell_length_c 23.164492
_cell_angle_alpha 90.000000
_cell_angle_beta 145.854682
_cell_angle_gamma 90.000000
_cell_volume 1935.920247
_symmetry_space_group_name_H-M "C 2/C"
_symmetry_group_IT_number 15
_symmetry_cell_setting 'monoclinic'
loop_
_space_group_symop_operation_xyz
x,y,z
-x,y,1/2-z
-x,-y,-z
x,-y,1/2+z
1/2+x,1/2+y,z
1/2-x,1/2+y,1/2-z
1/2-x,1/2-y,-z
1/2+x,1/2-y,1/2+z
loop_
_atom_site_type_symbol
_atom_site_label
_atom_site_fract_x
_atom_site_fract_y
_atom_site_fract_z
Si Si1 0.343213 0.346495 0.762398
Si Si2 0.425158 0.871139 0.093376
Si Si3 0.995842 0.840544 0.177422
Si Si4 0.281218 0.520112 0.966987
Si Si5 0.136557 0.494249 0.064312
Si Si6 0.734944 0.855509 0.815138
O O1 0.428259 0.490834 0.790323
O O2 0.216128 0.346114 0.640004
O O3 0.427181 0.178249 0.814523
O O4 0.297999 0.400002 0.796029
O O5 0.363581 0.942996 0.110152
O O6 0.583890 0.187554 0.212911
O O7 0.354782 0.693959 0.030175
O O8 0.376511 0.996564 0.012128
O O9 0.000000 0.829926 0.250000
O O10 0.703777 0.826141 0.129640
O O11 0.858943 0.878951 0.056554
O O12 0.276150 0.467555 0.897040
O O13 0.000000 0.500000 0.000000
#
# Coordination Sequence:
#
# PCOD9293384 Si02
#       6
#     8   8   8   8   8   8
#     4  10  23  42  68 100 137 181 237 284 347 425
#     4  10  22  45  72 100 136 188 236 291 357 427
#     4  10  23  43  65  95 140 182 228 290 352 415
#     4  10  23  44  71  99 140 187 236 291 359 430
#     4  11  23  42  69 100 143 185 231 290 362 416
#     4  11  24  42  68 108 138 184 235 298 353 421
#
# _framework density 24.794409999999999
#
# number of rings (size 3 to 8) (size 9 to 14) (size 15 to 20)
#    0.000    1.667    1.667    2.000    2.333    8.000 
#    0.000    0.000    0.000    0.000    0.000    0.000 
#    0.000    0.000    0.000    0.000    0.000    0.000 
#
# Total GULP energy -134252.005655 kJ/mol
# GULP energy per Si atom -5593.833569 kJ/mol
# Density = 2.473798 g / cm^3
# Si number density = 24.794410 Si / 1000 Ang^3
#
#
#
# Elastic Constant Matrix: (Units=GPa)
#
#
# Indices 1 2 3 4 5 6 
#
# 1 149.1398 29.1355 52.3271 0.0000 3.2664 0.0000
# 2 29.1355 66.8168 33.0433 0.0000 -2.8923 0.0001
# 3 52.3271 33.0433 131.8250 0.0000 9.5674 0.0000
# 4 0.0000 0.0000 0.0000 21.4966 0.0000 -12.8303
# 5 3.2664 -2.8923 9.5674 0.0000 41.8504 0.0000
# 6 0.0000 0.0001 0.0000 -12.8303 0.0000 12.7193
#
#
#
# Elastic Compliance Matrix: (Units=1/GPa)
#
#
# Indices 1 2 3 4 5 6 
#
# 1 0.008067 -0.002224 -0.002631 0.000000 -0.000182 0.000000
# 2 -0.002224 0.017898 -0.003768 0.000000 0.002272 0.000000
# 3 -0.002631 -0.003768 0.009741 0.000000 -0.002282 0.000000
# 4 0.000000 0.000000 0.000000 0.116901 0.000000 0.117921
# 5 -0.000182 0.002272 -0.002282 0.000000 0.024587 0.000000
# 6 0.000000 0.000000 0.000000 0.117921 0.000000 0.197571
#
#
# Mechanical properties :
#
#
# Convention : Reuss Voigt Hill
#
# Bulk Modulus (GPa) = 54.17803 64.08814 59.13308
# Shear Modulus (GPa) = 12.55762 30.76497 21.66130
#
# Velocity S-wave (km/s) = 2.25293 3.52632 2.95894
# Velocity P-wave (km/s) = 5.35406 6.51797 5.96447
#
# Compressibility (1/GPa) = 0.01845767
#
# Stress axis : x y z
#
# Youngs Moduli (GPa) = 123.96426 55.87194 102.66383
#
# Poissons Ratio (x) = 0.12426 0.27015
# Poissons Ratio (y) = 0.27571 0.38688
# Poissons Ratio (z) = 0.32620 0.21055
#
# Static dielectric constant tensor:
#      x y z
#    x 2.043850 0.000000 0.066670 
#    y 0.000000 2.064500 0.000000 
#    z 0.066670 0.000000 2.064750 
# 
# From -- ./inp_files/243966.got.cif
#   From: 2010.05.17/outbox.cif.g08.bks.cpg/sg15_122_cif.got.tgz:243966.got - 2010.06.03 18:47:42.
