data_PCOD9293004
_publ_section_title
;
Structure prediction by ZEFSAII (Michael W. Deem and Ramdas Pophale) SiO2 
 PCOD9293004
Probable space group: C 2/C
;
_chemical_formula_sum "Si O2"
_cell_formula_units_Z 48
_cell_length_a 14.347579
_cell_length_b 20.967397
_cell_length_c 10.939434
_cell_angle_alpha 90.000000
_cell_angle_beta 39.764941
_cell_angle_gamma 90.000000
_cell_volume 2105.005577
_symmetry_space_group_name_H-M "C 2/C"
_symmetry_group_IT_number 15
_symmetry_cell_setting 'monoclinic'
loop_
_space_group_symop_operation_xyz
x,y,z
-x,y,1/2-z
-x,-y,-z
x,-y,1/2+z
1/2+x,1/2+y,z
1/2-x,1/2+y,1/2-z
1/2-x,1/2-y,-z
1/2+x,1/2-y,1/2+z
loop_
_atom_site_type_symbol
_atom_site_label
_atom_site_fract_x
_atom_site_fract_y
_atom_site_fract_z
Si Si1 0.749141 0.580292 0.351244
Si Si2 0.000000 0.635259 0.250000
Si Si3 0.500000 0.340709 0.250000
Si Si4 0.883618 0.258309 0.276158
Si Si5 0.750054 0.823670 0.327289
Si Si6 0.642949 0.383334 0.716662
Si Si7 0.339339 0.565568 0.563967
O O1 0.617707 0.616029 0.556891
O O2 0.757858 0.610964 0.208003
O O3 0.717314 0.505652 0.377188
O O4 0.901344 0.592545 0.262241
O O5 0.881754 0.674493 0.444706
O O6 0.397023 0.304691 0.253888
O O7 0.750000 0.250000 0.500000
O O8 0.816046 0.285616 0.220528
O O9 0.933934 0.185760 0.197611
O O10 0.000000 0.291252 0.250000
O O11 0.786663 0.893123 0.232211
O O12 0.700958 0.399663 0.523943
O O13 0.515194 0.433000 0.879819
#
# Coordination Sequence:
#
# PCOD9293004 Si02
#       7
#     8   4   4   8   8   8   8
#     4  11  24  43  69 100 147 179 235 295 348 430
#     4  10  28  46  61 104 148 191 224 274 372 428
#     4  10  22  44  71 100 140 191 238 282 348 430
#     4  12  25  47  75 104 142 178 238 304 351 413
#     4  11  24  46  70 102 144 192 234 285 352 420
#     4  11  22  42  73 111 125 179 238 296 350 404
#     4  11  22  41  73 103 132 178 239 290 350 407
#
# _framework density 22.802789000000001
#
# number of rings (size 3 to 8) (size 9 to 14) (size 15 to 20)
#    0.000    1.000    5.000    1.500    7.000    0.667 
#    1.500    5.000    0.000    0.000    0.000    0.000 
#    0.000    0.000    0.000    0.000    0.000    0.000 
#
# Total GULP energy -134091.909654 kJ/mol
# GULP energy per Si atom -5587.162902 kJ/mol
# Density = 2.275089 g / cm^3
# Si number density = 22.802789 Si / 1000 Ang^3
#
#
#
# Elastic Constant Matrix: (Units=GPa)
#
#
# Indices 1 2 3 4 5 6 
#
# 1 246.8045 52.5134 41.6098 -0.0003 -6.0542 0.0005
# 2 52.5134 53.5370 -7.6865 -0.0001 -0.5944 0.0003
# 3 41.6098 -7.6865 91.4840 -0.0004 -0.9610 0.0008
# 4 -0.0003 -0.0001 -0.0004 12.7929 0.0002 11.4059
# 5 -6.0542 -0.5944 -0.9610 0.0002 44.0767 -0.0005
# 6 0.0005 0.0003 0.0008 11.4059 -0.0005 15.7751
#
#
#
# Elastic Compliance Matrix: (Units=1/GPa)
#
#
# Indices 1 2 3 4 5 6 
#
# 1 0.005952 -0.006294 -0.003229 0.000000 0.000662 0.000000
# 2 -0.006294 0.025567 0.005007 0.000002 -0.000411 -0.000002
# 3 -0.003229 0.005007 0.012819 0.000003 -0.000097 -0.000003
# 4 0.000000 0.000002 0.000003 0.219971 -0.000003 -0.159046
# 5 0.000662 -0.000411 -0.000097 -0.000003 0.022771 0.000003
# 6 0.000000 -0.000002 -0.000003 -0.159046 0.000003 0.178387
#
#
# Mechanical properties :
#
#
# Convention : Reuss Voigt Hill
#
# Bulk Modulus (GPa) = 28.32494 62.74433 45.53463
# Shear Modulus (GPa) = 10.28241 34.88819 22.58530
#
# Velocity S-wave (km/s) = 2.12581 3.91576 3.15057
# Velocity P-wave (km/s) = 4.29815 6.92965 5.76603
#
# Compressibility (1/GPa) = 0.03530457
#
# Stress axis : x y z
#
# Youngs Moduli (GPa) = 168.02201 39.11352 78.00868
#
# Poissons Ratio (x) = 0.24618 0.25188
# Poissons Ratio (y) = 1.05754 -0.39055
# Poissons Ratio (z) = 0.54252 -0.19582
#
# Static dielectric constant tensor:
#      x y z
#    x 1.909110 0.000000 -0.018850 
#    y 0.000000 1.920360 0.000000 
#    z -0.018850 0.000000 1.857700 
# 
# From -- ./inp_files/100003.got.cif
#   From: 2010.05.17/outbox.cif.g08.bks.cpg/sg15_51_cif.got.tgz:100003.got - 2010.06.03 18:47:42.
