data_PCOD9293190
_publ_section_title
;
Structure prediction by ZEFSAII (Michael W. Deem and Ramdas Pophale) SiO2 
 PCOD9293190
Probable space group: C 2/C
;
_chemical_formula_sum "Si O2"
_cell_formula_units_Z 48
_cell_length_a 9.318625
_cell_length_b 29.490137
_cell_length_c 14.147899
_cell_angle_alpha 90.000000
_cell_angle_beta 33.516989
_cell_angle_gamma 90.000000
_cell_volume 2146.864168
_symmetry_space_group_name_H-M "C 2/C"
_symmetry_group_IT_number 15
_symmetry_cell_setting 'monoclinic'
loop_
_space_group_symop_operation_xyz
x,y,z
-x,y,1/2-z
-x,-y,-z
x,-y,1/2+z
1/2+x,1/2+y,z
1/2-x,1/2+y,1/2-z
1/2-x,1/2-y,-z
1/2+x,1/2-y,1/2+z
loop_
_atom_site_type_symbol
_atom_site_label
_atom_site_fract_x
_atom_site_fract_y
_atom_site_fract_z
Si Si1 0.424602 0.972090 0.384536
Si Si2 0.879776 0.954389 0.630977
Si Si3 0.000000 0.734054 0.750000
Si Si4 0.451153 0.197339 0.981643
Si Si5 0.500000 0.322080 0.250000
Si Si6 0.243831 0.616567 0.048216
Si Si7 0.877628 0.404955 0.580124
O O1 0.500000 0.943344 0.250000
O O2 0.439803 0.942091 0.468044
O O3 0.129021 0.984774 0.519934
O O4 0.626245 0.013502 0.276604
O O5 0.877717 0.921207 0.541312
O O6 0.872197 0.919518 0.723084
O O7 0.955110 0.704913 0.867585
O O8 0.244923 0.766814 0.634020
O O9 0.735053 0.203962 0.871688
O O10 0.368863 0.145992 0.048523
O O11 0.435425 0.349851 0.384302
O O12 0.000000 0.634538 0.250000
O O13 0.101244 0.594418 0.037031
#
# Coordination Sequence:
#
# PCOD9293190 Si02
#       7
#     8   8   4   8   4   8   8
#     4  12  26  41  65  98 137 187 237 297 346 408
#     4  11  25  46  65  98 139 190 236 294 350 405
#     4  10  24  48  74 100 149 174 219 298 360 430
#     4  10  24  46  71 108 138 183 225 289 359 433
#     4  10  22  44  78 110 137 184 243 278 352 432
#     4   9  21  44  68 100 143 184 233 297 347 409
#     4  10  23  43  69  99 136 180 237 282 348 424
#
# _framework density 22.358191000000001
#
# number of rings (size 3 to 8) (size 9 to 14) (size 15 to 20)
#    0.000    1.667    0.000    3.000    8.167    0.667 
#   21.000    1.667    0.000    0.000    0.000    0.000 
#    0.000    0.000    0.000    0.000    0.000    0.000 
#
# Total GULP energy -133876.946279 kJ/mol
# GULP energy per Si atom -5578.206095 kJ/mol
# Density = 2.230730 g / cm^3
# Si number density = 22.358191 Si / 1000 Ang^3
#
#
#
# Elastic Constant Matrix: (Units=GPa)
#
#
# Indices 1 2 3 4 5 6 
#
# 1 126.2380 61.7760 60.4171 0.0000 3.4020 0.0000
# 2 61.7760 86.9787 49.1442 0.0000 7.4469 0.0000
# 3 60.4171 49.1442 109.2222 0.0000 -5.2565 0.0000
# 4 0.0000 0.0000 0.0000 -17.9315 0.0000 20.6010
# 5 3.4020 7.4469 -5.2565 0.0000 57.7038 0.0000
# 6 0.0000 0.0000 0.0000 20.6010 0.0000 -4.9271
#
#
#
# Elastic Compliance Matrix: (Units=1/GPa)
#
#
# Indices 1 2 3 4 5 6 
#
# 1 0.013450 -0.007133 -0.004243 0.000000 -0.000259 0.000000
# 2 -0.007133 0.019608 -0.005000 0.000000 -0.002565 0.000000
# 3 -0.004243 -0.005000 0.013856 0.000000 0.002158 0.000000
# 4 0.000000 0.000000 0.000000 0.014662 0.000000 0.061303
# 5 -0.000259 -0.002565 0.002158 0.000000 0.017873 0.000000
# 6 0.000000 0.000000 0.000000 0.061303 0.000000 0.053359
#
#
# Mechanical properties :
#
#
# Convention : Reuss Voigt Hill
#
# Bulk Modulus (GPa) = 70.61290 73.90152 72.25721
# Shear Modulus (GPa) = 29.36317 17.04249 23.20283
#
# Velocity S-wave (km/s) = 3.62789 2.76388 3.22495
# Velocity P-wave (km/s) = 7.01426 6.58108 6.80112
#
# Compressibility (1/GPa) = 0.01416172
#
# Stress axis : x y z
#
# Youngs Moduli (GPa) = 74.35040 50.99870 72.16938
#
# Poissons Ratio (x) = 0.36379 0.30620
# Poissons Ratio (y) = 0.53036 0.36087
# Poissons Ratio (z) = 0.31545 0.25501
#
# Static dielectric constant tensor:
#      x y z
#    x 1.847470 0.000000 -0.018150 
#    y 0.000000 1.813570 0.000000 
#    z -0.018150 0.000000 2.022700 
# 
# From -- ./inp_files/139423.got.cif
#   From: 2010.05.17/outbox.cif.g08.bks.cpg/sg15_70_cif.got.tgz:139423.got - 2010.06.03 18:47:42.
