data_PCOD9293880
_publ_section_title
;
Structure prediction by ZEFSAII (Michael W. Deem and Ramdas Pophale) SiO2 
 PCOD9293880
Probable space group: C 2/C
;
_chemical_formula_sum "Si O2"
_cell_formula_units_Z 48
_cell_length_a 17.964046
_cell_length_b 5.141911
_cell_length_c 18.640552
_cell_angle_alpha 90.000000
_cell_angle_beta 104.514823
_cell_angle_gamma 90.000000
_cell_volume 1666.863363
_symmetry_space_group_name_H-M "C 2/C"
_symmetry_group_IT_number 15
_symmetry_cell_setting 'monoclinic'
loop_
_space_group_symop_operation_xyz
x,y,z
-x,y,1/2-z
-x,-y,-z
x,-y,1/2+z
1/2+x,1/2+y,z
1/2-x,1/2+y,1/2-z
1/2-x,1/2-y,-z
1/2+x,1/2-y,1/2+z
loop_
_atom_site_type_symbol
_atom_site_label
_atom_site_fract_x
_atom_site_fract_y
_atom_site_fract_z
Si Si1 0.376333 0.541321 0.974548
Si Si2 0.273728 0.765565 0.396068
Si Si3 0.860389 0.454172 0.720769
Si Si4 0.500000 0.442594 0.250000
Si Si5 0.069192 0.776422 0.891034
Si Si6 0.919677 0.518506 0.890439
Si Si7 0.750000 0.750000 0.500000
O O1 0.279136 0.485841 0.950934
O O2 0.428689 0.462655 0.053266
O O3 0.349501 0.785687 0.031019
O O4 0.401350 0.738585 0.919125
O O5 0.222175 0.671502 0.319233
O O6 0.370411 0.751313 0.422302
O O7 0.250031 0.026087 0.426637
O O8 0.881779 0.671771 0.668181
O O9 0.868482 0.531778 0.805544
O O10 0.925381 0.237658 0.727037
O O11 0.501896 0.609306 0.179546
O O12 0.008406 0.572651 0.913599
#
# Coordination Sequence:
#
# PCOD9293880 Si02
#       7
#     8   8   8   4   8   8   4
#     4  11  25  44  76 110 151 200 254 316 394 460
#     4  11  27  45  79 108 155 198 257 318 399 462
#     4  12  26  49  75 110 151 206 257 322 389 476
#     4  12  24  44  78 102 140 216 254 312 386 476
#     4  12  25  49  74 108 157 193 269 319 383 480
#     4  11  26  46  69 115 154 196 253 321 394 466
#     4  10  22  50  66 112 146 190 246 308 376 464
#
# _framework density 28.796600999999999
#
# number of rings (size 3 to 8) (size 9 to 14) (size 15 to 20)
#    0.000    0.667    3.333    3.000    4.667    6.000 
#    0.000    0.000    0.000    0.000    0.000    0.000 
#    0.000    0.000    0.000    0.000    0.000    0.000 
#
# Total GULP energy -133810.903859 kJ/mol
# GULP energy per Si atom -5575.454327 kJ/mol
# Density = 2.873106 g / cm^3
# Si number density = 28.796601 Si / 1000 Ang^3
#
#
#
# Elastic Constant Matrix: (Units=GPa)
#
#
# Indices 1 2 3 4 5 6 
#
# 1 194.6662 69.4817 47.3625 0.0000 33.3052 0.0000
# 2 69.4817 181.5433 55.0298 0.0000 1.1040 0.0000
# 3 47.3625 55.0298 212.4633 0.0000 40.5926 0.0000
# 4 0.0000 0.0000 0.0000 52.2268 0.0000 10.6876
# 5 33.3052 1.1040 40.5926 0.0000 54.2500 0.0000
# 6 0.0000 0.0000 0.0000 10.6876 0.0000 46.4176
#
#
#
# Elastic Compliance Matrix: (Units=1/GPa)
#
#
# Indices 1 2 3 4 5 6 
#
# 1 0.006751 -0.002536 -0.000077 0.000000 -0.004035 0.000000
# 2 -0.002536 0.006999 -0.001771 0.000000 0.002740 0.000000
# 3 -0.000077 -0.001771 0.006028 0.000000 -0.004427 0.000000
# 4 0.000000 0.000000 0.000000 0.020094 0.000000 -0.004627
# 5 -0.004035 0.002740 -0.004427 0.000000 0.024168 0.000000
# 6 0.000000 0.000000 0.000000 -0.004627 0.000000 0.022609
#
#
# Mechanical properties :
#
#
# Convention : Reuss Voigt Hill
#
# Bulk Modulus (GPa) = 90.82044 103.60232 97.21138
# Shear Modulus (GPa) = 50.46026 58.36546 54.41286
#
# Velocity S-wave (km/s) = 4.19059 4.50690 4.35162
# Velocity P-wave (km/s) = 7.41767 7.94596 7.68635
#
# Compressibility (1/GPa) = 0.01101074
#
# Stress axis : x y z
#
# Youngs Moduli (GPa) = 148.11814 142.87612 165.87979
#
# Poissons Ratio (x) = 0.36233 0.01280
# Poissons Ratio (y) = 0.37563 0.29376
# Poissons Ratio (z) = 0.01143 0.25302
#
# Static dielectric constant tensor:
#      x y z
#    x 2.871920 0.000000 -0.322150 
#    y 0.000000 2.417880 0.000000 
#    z -0.322150 0.000000 2.453350 
# 
# From -- ./inp_files/250872.got.cif
#   From: 2010.05.17/outbox.cif.g08.bks.cpg/sg15_126_cif.got.tgz:250872.got - 2010.06.03 18:47:42.
