data_PCOD9293414
_publ_section_title
;
Structure prediction by ZEFSAII (Michael W. Deem and Ramdas Pophale) SiO2 
 PCOD9293414
Probable space group: C 2/C
;
_chemical_formula_sum "Si O2"
_cell_formula_units_Z 28
_cell_length_a 14.173489
_cell_length_b 10.501401
_cell_length_c 7.287979
_cell_angle_alpha 90.000000
_cell_angle_beta 62.027522
_cell_angle_gamma 90.000000
_cell_volume 958.025150
_symmetry_space_group_name_H-M "C 2/C"
_symmetry_group_IT_number 15
_symmetry_cell_setting 'monoclinic'
loop_
_space_group_symop_operation_xyz
x,y,z
-x,y,1/2-z
-x,-y,-z
x,-y,1/2+z
1/2+x,1/2+y,z
1/2-x,1/2+y,1/2-z
1/2-x,1/2-y,-z
1/2+x,1/2-y,1/2+z
loop_
_atom_site_type_symbol
_atom_site_label
_atom_site_fract_x
_atom_site_fract_y
_atom_site_fract_z
Si Si1 0.351563 0.325851 0.232311
Si Si2 0.787945 0.445174 0.627544
Si Si3 0.419411 0.675187 0.093244
Si Si4 0.000000 0.406529 0.250000
O O1 0.255674 0.419072 0.262950
O O2 0.331037 0.180844 0.191601
O O3 0.368455 0.327187 0.436539
O O4 0.460750 0.376438 0.043500
O O5 0.668064 0.388008 0.692064
O O6 0.894610 0.479304 0.414479
O O7 0.449716 0.812504 0.145333
#
# Coordination Sequence:
#
# PCOD9293414 Si02
#       4
#     8   8   8   4
#     4  10  24  45  76 108 144 189 247 304 365 433
#     4  11  23  46  74 109 146 191 243 305 365 438
#     4  10  22  45  73 104 142 195 244 293 359 446
#     4  10  24  44  72 108 148 190 242 302 368 432
#
# _framework density 29.226790000000001
#
# number of rings (size 3 to 8) (size 9 to 14) (size 15 to 20)
#    0.000    1.714    0.000    2.571    0.000    9.143 
#    0.000   21.429    0.000   13.714    0.000    0.000 
#    0.000    0.000    0.000    0.000    0.000    0.000 
#
# Total GULP energy -78261.994864 kJ/mol
# GULP energy per Si atom -5590.142490 kJ/mol
# Density = 2.916027 g / cm^3
# Si number density = 29.226790 Si / 1000 Ang^3
#
#
#
# Elastic Constant Matrix: (Units=GPa)
#
#
# Indices 1 2 3 4 5 6 
#
# 1 196.5095 79.2025 108.1525 0.0000 -52.5511 0.0000
# 2 79.2025 185.4151 78.5034 0.0000 -5.7831 0.0000
# 3 108.1525 78.5034 215.2395 0.0000 -89.5793 0.0000
# 4 0.0000 0.0000 0.0000 49.4580 0.0000 -34.6458
# 5 -52.5511 -5.7831 -89.5793 0.0000 79.9660 0.0000
# 6 0.0000 0.0000 0.0000 -34.6458 0.0000 20.3877
#
#
#
# Elastic Compliance Matrix: (Units=1/GPa)
#
#
# Indices 1 2 3 4 5 6 
#
# 1 0.007895 -0.002512 -0.001811 0.000000 0.002977 0.000000
# 2 -0.002512 0.007950 -0.003906 0.000000 -0.005452 0.000000
# 3 -0.001811 -0.003906 0.011930 0.000000 0.011891 0.000000
# 4 0.000000 0.000000 0.000000 -0.106189 0.000000 -0.180452
# 5 0.002977 -0.005452 0.011891 0.000000 0.027388 0.000000
# 6 0.000000 0.000000 0.000000 -0.180452 0.000000 -0.257600
#
#
# Mechanical properties :
#
#
# Convention : Reuss Voigt Hill
#
# Bulk Modulus (GPa) = 88.38357 125.43122 106.90740
# Shear Modulus (GPa) = -17.33736 52.04938 17.35601
#
# Velocity S-wave (km/s) = -2.43821 4.22462 2.43953
# Velocity P-wave (km/s) = 4.73072 8.17351 6.67780
#
# Compressibility (1/GPa) = 0.01131432
#
# Stress axis : x y z
#
# Youngs Moduli (GPa) = 126.66950 125.77970 83.82395
#
# Poissons Ratio (x) = 0.31602 0.15184
# Poissons Ratio (y) = 0.31825 0.32744
# Poissons Ratio (z) = 0.22945 0.49134
#
# Static dielectric constant tensor:
#      x y z
#    x 2.257760 0.000000 0.102980 
#    y 0.000000 2.236140 0.000000 
#    z 0.102980 0.000000 2.487480 
# 
# From -- ./inp_files/36471.got.cif
#   From: 2010.05.17/outbox.cif.g08.bks.cpg/sg15_19_cif.got.tgz:36471.got - 2010.06.03 18:47:42.
