data_PCOD9293538
_publ_section_title
;
Structure prediction by ZEFSAII (Michael W. Deem and Ramdas Pophale) SiO2 
 PCOD9293538
Probable space group: C 2/C
;
_chemical_formula_sum "Si O2"
_cell_formula_units_Z 40
_cell_length_a 18.562793
_cell_length_b 11.956183
_cell_length_c 14.915660
_cell_angle_alpha 90.000000
_cell_angle_beta 35.495311
_cell_angle_gamma 90.000000
_cell_volume 1922.129104
_symmetry_space_group_name_H-M "C 2/C"
_symmetry_group_IT_number 15
_symmetry_cell_setting 'monoclinic'
loop_
_space_group_symop_operation_xyz
x,y,z
-x,y,1/2-z
-x,-y,-z
x,-y,1/2+z
1/2+x,1/2+y,z
1/2-x,1/2+y,1/2-z
1/2-x,1/2-y,-z
1/2+x,1/2-y,1/2+z
loop_
_atom_site_type_symbol
_atom_site_label
_atom_site_fract_x
_atom_site_fract_y
_atom_site_fract_z
Si Si1 0.000000 0.502062 0.250000
Si Si2 0.199843 0.953104 0.322755
Si Si3 0.247350 0.120759 0.974099
Si Si4 0.040343 0.853428 0.019491
Si Si5 0.500000 0.474452 0.250000
Si Si6 0.558371 0.092536 0.006722
O O1 0.874591 0.430922 0.382299
O O2 0.003256 0.575426 0.335226
O O3 0.250069 0.899239 0.363642
O O4 0.295385 0.932249 0.146575
O O5 0.068538 0.898149 0.433721
O O6 0.169293 0.084103 0.365798
O O7 0.250000 0.250000 0.000000
O O8 0.122696 0.053779 0.130637
O O9 0.044736 0.722283 0.999021
O O10 0.011083 0.896975 0.150153
O O11 0.500000 0.000000 0.000000
#
# Coordination Sequence:
#
# PCOD9293538 Si02
#       6
#     4   8   8   8   4   8
#     4  12  26  44  64 104 132 175 229 278 340 404
#     4  10  24  45  67 101 134 183 226 276 348 402
#     4  11  24  41  69  99 142 179 228 278 339 405
#     4  10  24  44  71  95 136 179 228 282 339 409
#     4  10  22  46  68 100 132 189 233 276 346 408
#     4  12  26  43  69 100 135 175 229 283 345 408
#
# _framework density 20.810258000000001
#
# number of rings (size 3 to 8) (size 9 to 14) (size 15 to 20)
#    0.000    1.200    2.000    2.400    5.600    4.800 
#    0.000    5.000    0.000    0.000    0.000    0.000 
#    0.000    0.000    0.000    0.000    0.000    0.000 
#
# Total GULP energy -111727.106980 kJ/mol
# GULP energy per Si atom -5586.355349 kJ/mol
# Density = 2.076289 g / cm^3
# Si number density = 20.810258 Si / 1000 Ang^3
#
#
#
# Elastic Constant Matrix: (Units=GPa)
#
#
# Indices 1 2 3 4 5 6 
#
# 1 67.6279 38.4205 -7.0026 0.0000 -9.1274 0.0000
# 2 38.4205 180.6300 38.8165 0.0000 -6.4826 0.0000
# 3 -7.0026 38.8165 83.3367 0.0000 -12.9770 0.0000
# 4 0.0000 0.0000 0.0000 14.8921 0.0000 -3.5967
# 5 -9.1274 -6.4826 -12.9770 0.0000 38.8876 0.0000
# 6 0.0000 0.0000 0.0000 -3.5967 0.0000 17.8923
#
#
#
# Elastic Compliance Matrix: (Units=1/GPa)
#
#
# Indices 1 2 3 4 5 6 
#
# 1 0.018663 -0.004772 0.004588 0.000000 0.005116 0.000000
# 2 -0.004772 0.007372 -0.004027 0.000000 -0.001235 0.000000
# 3 0.004588 -0.004027 0.015109 0.000000 0.005447 0.000000
# 4 0.000000 0.000000 0.000000 0.070576 0.000000 0.014187
# 5 0.005116 -0.001235 0.005447 0.000000 0.028528 0.000000
# 6 0.000000 0.000000 0.000000 0.014187 0.000000 0.058742
#
#
# Mechanical properties :
#
#
# Convention : Reuss Voigt Hill
#
# Bulk Modulus (GPa) = 30.56090 52.45149 41.50620
# Shear Modulus (GPa) = 22.90209 31.75842 27.33025
#
# Velocity S-wave (km/s) = 3.32101 3.91076 3.62789
# Velocity P-wave (km/s) = 5.42428 6.75659 6.12676
#
# Compressibility (1/GPa) = 0.03272155
#
# Stress axis : x y z
#
# Youngs Moduli (GPa) = 53.58096 135.64313 66.18562
#
# Poissons Ratio (x) = 0.64729 -0.30363
# Poissons Ratio (y) = 0.25569 0.26654
# Poissons Ratio (z) = -0.24581 0.54625
#
# Static dielectric constant tensor:
#      x y z
#    x 1.745820 0.000000 -0.011820 
#    y 0.000000 1.896100 0.000000 
#    z -0.011820 0.000000 1.737640 
# 
# From -- ./inp_files/103959.got.cif
#   From: 2010.05.17/outbox.cif.g08.bks.cpg/sg15_52_cif.got.tgz:103959.got - 2010.06.03 18:47:42.
