data_PCOD9293815
_publ_section_title
;
Structure prediction by ZEFSAII (Michael W. Deem and Ramdas Pophale) SiO2 
 PCOD9293815
Probable space group: C 2/C
;
_chemical_formula_sum "Si O2"
_cell_formula_units_Z 40
_cell_length_a 18.682557
_cell_length_b 5.009453
_cell_length_c 17.865156
_cell_angle_alpha 90.000000
_cell_angle_beta 109.145881
_cell_angle_gamma 90.000000
_cell_volume 1579.505642
_symmetry_space_group_name_H-M "C 2/C"
_symmetry_group_IT_number 15
_symmetry_cell_setting 'monoclinic'
loop_
_space_group_symop_operation_xyz
x,y,z
-x,y,1/2-z
-x,-y,-z
x,-y,1/2+z
1/2+x,1/2+y,z
1/2-x,1/2+y,1/2-z
1/2-x,1/2-y,-z
1/2+x,1/2-y,1/2+z
loop_
_atom_site_type_symbol
_atom_site_label
_atom_site_fract_x
_atom_site_fract_y
_atom_site_fract_z
Si Si1 0.870810 0.436958 0.151463
Si Si2 0.000000 0.136236 0.250000
Si Si3 0.977849 0.217109 0.595064
Si Si4 0.745525 0.719819 0.197357
Si Si5 0.250000 0.250000 0.500000
Si Si6 0.621255 0.407738 0.062348
O O1 0.930929 0.536751 0.110702
O O2 0.817145 0.667523 0.166856
O O3 0.813192 0.245606 0.089328
O O4 0.923763 0.308888 0.232196
O O5 0.011164 0.963154 0.327664
O O6 0.060433 0.259709 0.588455
O O7 0.926591 0.075519 0.514870
O O8 0.757789 0.515073 0.270884
O O9 0.670990 0.612603 0.129253
O O10 0.317989 0.234507 0.461361
#
# Coordination Sequence:
#
# PCOD9293815 Si02
#       6
#     8   4   8   8   4   8
#     4  11  26  42  77 104 149 199 253 316 385 451
#     4  12  24  46  70 110 148 196 250 330 364 474
#     4  11  25  46  72 105 146 194 255 313 383 453
#     4  11  27  47  75 112 153 201 253 317 385 463
#     4  10  22  48  64 106 142 186 244 308 378 446
#     4  10  24  46  72 107 147 196 251 316 379 457
#
# _framework density 25.324382
#
# number of rings (size 3 to 8) (size 9 to 14) (size 15 to 20)
#    0.000    1.200    2.000    1.800    8.400    7.200 
#    0.000    0.000    0.000    0.000    0.000    0.000 
#    0.000    0.000    0.000    0.000    0.000    0.000 
#
# Total GULP energy -111578.780882 kJ/mol
# GULP energy per Si atom -5578.939044 kJ/mol
# Density = 2.526674 g / cm^3
# Si number density = 25.324382 Si / 1000 Ang^3
#
#
#
# Elastic Constant Matrix: (Units=GPa)
#
#
# Indices 1 2 3 4 5 6 
#
# 1 230.0502 29.5222 58.2092 0.0000 2.6993 0.0000
# 2 29.5222 44.8874 23.5258 0.0000 10.5627 -0.0001
# 3 58.2092 23.5258 136.7188 0.0000 22.2114 0.0000
# 4 0.0000 0.0000 0.0000 18.3804 0.0000 -8.5581
# 5 2.6993 10.5627 22.2114 0.0000 60.7604 0.0000
# 6 0.0000 -0.0001 0.0000 -8.5581 0.0000 11.2446
#
#
#
# Elastic Compliance Matrix: (Units=1/GPa)
#
#
# Indices 1 2 3 4 5 6 
#
# 1 0.005150 -0.002611 -0.001892 0.000000 0.000917 0.000000
# 2 -0.002611 0.026296 -0.002859 0.000000 -0.003410 0.000000
# 3 -0.001892 -0.002859 0.009055 0.000000 -0.002729 0.000000
# 4 0.000000 0.000000 0.000000 0.084268 0.000000 0.064136
# 5 0.000917 -0.003410 -0.002729 0.000000 0.018008 0.000000
# 6 0.000000 0.000000 0.000000 0.064136 0.000000 0.137745
#
#
# Mechanical properties :
#
#
# Convention : Reuss Voigt Hill
#
# Bulk Modulus (GPa) = 38.79523 70.46343 54.62933
# Shear Modulus (GPa) = 16.45601 38.10368 27.27984
#
# Velocity S-wave (km/s) = 2.55190 3.88316 3.28566
# Velocity P-wave (km/s) = 4.90260 6.92748 6.00106
#
# Compressibility (1/GPa) = 0.02577636
#
# Stress axis : x y z
#
# Youngs Moduli (GPa) = 194.17434 38.02821 110.43228
#
# Poissons Ratio (x) = 0.09930 0.20897
# Poissons Ratio (y) = 0.50701 0.31575
# Poissons Ratio (z) = 0.36744 0.10873
#
# Static dielectric constant tensor:
#      x y z
#    x 1.970630 0.000000 0.000610 
#    y 0.000000 2.031220 0.000000 
#    z 0.000610 0.000000 1.982910 
# 
# From -- ./inp_files/208146.got.cif
#   From: 2010.05.17/outbox.cif.g08.bks.cpg/sg15_105_cif.got.tgz:208146.got - 2010.06.03 18:47:42.
