data_PCOD9293080
_publ_section_title
;
Structure prediction by ZEFSAII (Michael W. Deem and Ramdas Pophale) SiO2 
 PCOD9293080
Probable space group: C 2/C
;
_chemical_formula_sum "Si O2"
_cell_formula_units_Z 36
_cell_length_a 18.632780
_cell_length_b 8.728023
_cell_length_c 19.679573
_cell_angle_alpha 90.000000
_cell_angle_beta 150.071830
_cell_angle_gamma 90.000000
_cell_volume 1596.742227
_symmetry_space_group_name_H-M "C 2/C"
_symmetry_group_IT_number 15
_symmetry_cell_setting 'monoclinic'
loop_
_space_group_symop_operation_xyz
x,y,z
-x,y,1/2-z
-x,-y,-z
x,-y,1/2+z
1/2+x,1/2+y,z
1/2-x,1/2+y,1/2-z
1/2-x,1/2-y,-z
1/2+x,1/2-y,1/2+z
loop_
_atom_site_type_symbol
_atom_site_label
_atom_site_fract_x
_atom_site_fract_y
_atom_site_fract_z
Si Si1 0.357135 0.103499 0.393631
Si Si2 0.182937 0.105359 0.983377
Si Si3 0.000000 0.109620 0.250000
Si Si4 0.423567 0.407832 0.374445
Si Si5 0.727535 0.206206 0.902387
O O1 0.363042 0.243479 0.346172
O O2 0.341393 0.200407 0.450899
O O3 0.500000 0.000000 0.500000
O O4 0.212745 0.004278 0.264318
O O5 0.045404 0.129588 0.918622
O O6 0.250000 0.250000 0.000000
O O7 0.122161 0.004884 0.872340
O O8 0.274126 0.978521 0.101132
O O9 0.073032 0.222838 0.256032
O O10 0.500000 0.500000 0.500000
O O11 0.750000 0.250000 0.000000
#
# Coordination Sequence:
#
# PCOD9293080 Si02
#       5
#     8   8   4   8   8
#     4  12  27  48  77 109 154 207 256 319 391 466
#     4  11  25  44  72 108 148 193 257 315 383 456
#     4  10  22  44  72  96 140 190 252 310 376 454
#     4  12  26  47  75 110 155 200 260 317 392 467
#     4  10  23  45  71 100 144 194 249 308 384 444
#
# _framework density 22.545905999999999
#
# number of rings (size 3 to 8) (size 9 to 14) (size 15 to 20)
#    0.000    0.889    4.444    1.333    6.222    2.667 
#    0.000    0.000    0.000    0.000    0.000    0.000 
#    0.000    0.000    0.000    0.000    0.000    0.000 
#
# Total GULP energy -100241.051121 kJ/mol
# GULP energy per Si atom -5568.947285 kJ/mol
# Density = 2.249459 g / cm^3
# Si number density = 22.545906 Si / 1000 Ang^3
#
#
#
# Elastic Constant Matrix: (Units=GPa)
#
#
# Indices 1 2 3 4 5 6 
#
# 1 156.5186 108.3982 48.6312 0.0000 38.2864 0.0000
# 2 108.3982 211.0863 73.7957 0.0000 26.4203 0.0000
# 3 48.6312 73.7957 97.5127 0.0000 17.3012 0.0000
# 4 0.0000 0.0000 0.0000 44.4075 0.0000 9.5296
# 5 38.2864 26.4203 17.3012 0.0000 31.3668 0.0000
# 6 0.0000 0.0000 0.0000 9.5296 0.0000 50.4873
#
#
#
# Elastic Compliance Matrix: (Units=1/GPa)
#
#
# Indices 1 2 3 4 5 6 
#
# 1 0.012676 -0.004904 -0.000663 0.000000 -0.010976 0.000000
# 2 -0.004904 0.008610 -0.004263 0.000000 0.001085 0.000000
# 3 -0.000663 -0.004263 0.014445 0.000000 -0.003567 0.000000
# 4 0.000000 0.000000 0.000000 0.023469 0.000000 -0.004430
# 5 -0.010976 0.001085 -0.003567 0.000000 0.046333 0.000000
# 6 0.000000 0.000000 0.000000 -0.004430 0.000000 0.020643
#
#
# Mechanical properties :
#
#
# Convention : Reuss Voigt Hill
#
# Bulk Modulus (GPa) = 62.22233 102.97418 82.59825
# Shear Modulus (GPa) = 33.07023 40.87182 36.97103
#
# Velocity S-wave (km/s) = 3.83403 4.26235 4.05385
# Velocity P-wave (km/s) = 6.87442 8.36635 7.65681
#
# Compressibility (1/GPa) = 0.01607140
#
# Stress axis : x y z
#
# Youngs Moduli (GPa) = 78.88768 116.14141 69.22918
#
# Poissons Ratio (x) = 0.56954 0.04591
# Poissons Ratio (y) = 0.38686 0.29511
# Poissons Ratio (z) = 0.05232 0.49509
#
# Static dielectric constant tensor:
#      x y z
#    x 1.891880 0.000000 0.043950 
#    y 0.000000 1.828100 0.000000 
#    z 0.043950 0.000000 2.374280 
# 
# From -- ./inp_files/102468.got.cif
#   From: 2010.05.17/outbox.cif.g08.bks.cpg/sg15_52_cif.got.tgz:102468.got - 2010.06.03 18:47:42.
