data_PCOD9293427
_publ_section_title
;
Structure prediction by ZEFSAII (Michael W. Deem and Ramdas Pophale) SiO2 
 PCOD9293427
Probable space group: C 2/C
;
_chemical_formula_sum "Si O2"
_cell_formula_units_Z 48
_cell_length_a 7.979669
_cell_length_b 9.075581
_cell_length_c 27.724557
_cell_angle_alpha 90.000000
_cell_angle_beta 85.715712
_cell_angle_gamma 90.000000
_cell_volume 2002.205561
_symmetry_space_group_name_H-M "C 2/C"
_symmetry_group_IT_number 15
_symmetry_cell_setting 'monoclinic'
loop_
_space_group_symop_operation_xyz
x,y,z
-x,y,1/2-z
-x,-y,-z
x,-y,1/2+z
1/2+x,1/2+y,z
1/2-x,1/2+y,1/2-z
1/2-x,1/2-y,-z
1/2+x,1/2-y,1/2+z
loop_
_atom_site_type_symbol
_atom_site_label
_atom_site_fract_x
_atom_site_fract_y
_atom_site_fract_z
Si Si1 0.454277 0.906613 0.953926
Si Si2 0.434346 0.664483 0.487921
Si Si3 0.678748 0.855166 0.695581
Si Si4 0.828516 0.696103 0.777467
Si Si5 0.619603 0.433995 0.898118
Si Si6 0.623172 0.229188 0.367353
O O1 0.287089 0.946111 0.928531
O O2 0.602630 0.886392 0.911405
O O3 0.440151 0.750899 0.979869
O O4 0.500000 0.000000 0.000000
O O5 0.500000 0.500000 0.500000
O O6 0.250000 0.750000 0.500000
O O7 0.484647 0.662878 0.430546
O O8 0.698659 0.744392 0.739166
O O9 0.827104 0.855984 0.652606
O O10 0.517586 0.817573 0.667652
O O11 0.669762 0.020840 0.715916
O O12 0.787724 0.762481 0.830789
O O13 0.000000 0.749595 0.750000
O O14 0.580884 0.605154 0.886905
#
# Coordination Sequence:
#
# PCOD9293427 Si02
#       6
#     8   8   8   8   8   8
#     4  11  24  44  75 108 150 204 262 322 386 469
#     4  12  25  46  76 110 154 206 252 320 395 461
#     4  10  24  46  72 103 144 186 244 309 379 461
#     4  11  23  43  72 107 139 187 242 308 387 462
#     4  10  23  46  70 105 149 199 254 308 385 465
#     4  10  22  45  73  99 155 188 249 310 385 463
#
# _framework density 23.973562999999999
#
# number of rings (size 3 to 8) (size 9 to 14) (size 15 to 20)
#    0.000    1.333    1.667    3.000    0.000    4.000 
#    9.000    0.000    0.000    0.000    0.000    0.000 
#    0.000    0.000    0.000    0.000    0.000    0.000 
#
# Total GULP energy -133902.396177 kJ/mol
# GULP energy per Si atom -5579.266507 kJ/mol
# Density = 2.391900 g / cm^3
# Si number density = 23.973563 Si / 1000 Ang^3
#
#
#
# Elastic Constant Matrix: (Units=GPa)
#
#
# Indices 1 2 3 4 5 6 
#
# 1 116.1303 36.4965 68.7531 0.0000 -21.1497 0.0000
# 2 36.4965 105.5225 65.0075 0.0000 7.6545 0.0000
# 3 68.7531 65.0075 208.4010 0.0000 -24.7851 0.0000
# 4 0.0000 0.0000 0.0000 63.3532 0.0000 2.8833
# 5 -21.1497 7.6545 -24.7851 0.0000 66.9669 0.0000
# 6 0.0000 0.0000 0.0000 2.8833 0.0000 23.8822
#
#
#
# Elastic Compliance Matrix: (Units=1/GPa)
#
#
# Indices 1 2 3 4 5 6 
#
# 1 0.011524 -0.002568 -0.002650 0.000000 0.002952 0.000000
# 2 -0.002568 0.012835 -0.003585 0.000000 -0.003605 0.000000
# 3 -0.002650 -0.003585 0.007051 0.000000 0.002182 0.000000
# 4 0.000000 0.000000 0.000000 0.015872 0.000000 -0.001916
# 5 0.002952 -0.003605 0.002182 0.000000 0.017085 0.000000
# 6 0.000000 0.000000 0.000000 -0.001916 0.000000 0.042103
#
#
# Mechanical properties :
#
#
# Convention : Reuss Voigt Hill
#
# Bulk Modulus (GPa) = 72.44111 85.61868 79.02990
# Shear Modulus (GPa) = 38.85685 48.16024 43.50854
#
# Velocity S-wave (km/s) = 4.03031 4.48693 4.26473
# Velocity P-wave (km/s) = 7.20698 7.91421 7.56886
#
# Compressibility (1/GPa) = 0.01380432
#
# Stress axis : x y z
#
# Youngs Moduli (GPa) = 86.77172 77.91235 141.83111
#
# Poissons Ratio (x) = 0.20004 0.37585
# Poissons Ratio (y) = 0.22279 0.50851
# Poissons Ratio (z) = 0.22994 0.27934
#
# Static dielectric constant tensor:
#      x y z
#    x 2.039420 0.000000 -0.071010 
#    y 0.000000 1.855180 0.000000 
#    z -0.071010 0.000000 1.971160 
# 
# From -- ./inp_files/306675.got.cif
#   From: 2010.05.17/outbox.cif.g08.bks.cpg/sg15_154_cif.got.tgz:306675.got - 2010.06.03 18:47:42.
