data_PCOD9293411
_publ_section_title
;
Structure prediction by ZEFSAII (Michael W. Deem and Ramdas Pophale) SiO2 
 PCOD9293411
Probable space group: C 2/C
;
_chemical_formula_sum "Si O2"
_cell_formula_units_Z 44
_cell_length_a 9.734530
_cell_length_b 10.511287
_cell_length_c 23.566993
_cell_angle_alpha 90.000000
_cell_angle_beta 136.231557
_cell_angle_gamma 90.000000
_cell_volume 1668.097472
_symmetry_space_group_name_H-M "C 2/C"
_symmetry_group_IT_number 15
_symmetry_cell_setting 'monoclinic'
loop_
_space_group_symop_operation_xyz
x,y,z
-x,y,1/2-z
-x,-y,-z
x,-y,1/2+z
1/2+x,1/2+y,z
1/2-x,1/2+y,1/2-z
1/2-x,1/2-y,-z
1/2+x,1/2-y,1/2+z
loop_
_atom_site_type_symbol
_atom_site_label
_atom_site_fract_x
_atom_site_fract_y
_atom_site_fract_z
Si Si1 0.681245 0.016407 0.109789
Si Si2 0.054331 0.394315 0.179075
Si Si3 0.500000 0.685337 0.250000
Si Si4 0.568102 0.262179 0.487764
Si Si5 0.182089 0.366512 0.835142
Si Si6 0.053175 0.947491 0.143500
O O1 0.560920 0.917722 0.113693
O O2 0.453824 0.872064 0.957225
O O3 0.845797 0.964634 0.114584
O O4 0.810856 0.093786 0.195465
O O5 0.280846 0.380491 0.268757
O O6 0.962911 0.273125 0.183923
O O7 0.937777 0.516265 0.170551
O O8 0.750000 0.250000 0.500000
O O9 0.676450 0.302982 0.577035
O O10 0.455596 0.374692 0.419860
O O11 0.340815 0.419420 0.837922
O O12 0.000000 0.294020 0.750000
#
# Coordination Sequence:
#
# PCOD9293411 Si02
#       6
#     8   8   4   8   8   8
#     4  12  25  44  73 110 149 189 246 305 355 436
#     4  11  20  43  71 105 145 189 240 298 358 431
#     4  12  22  42  76 106 144 200 238 292 374 428
#     4  12  25  45  72 104 151 191 240 305 367 428
#     4  10  22  45  73 100 143 192 238 300 367 429
#     4  11  23  43  72 104 144 185 245 305 355 436
#
# _framework density 26.377355999999999
#
# number of rings (size 3 to 8) (size 9 to 14) (size 15 to 20)
#    0.000    0.727    8.182    0.545    0.000    1.455 
#    3.273    1.818    4.000    0.000    0.000    0.000 
#    0.000    0.000    0.000    0.000    0.000    0.000 
#
# Total GULP energy -123067.927581 kJ/mol
# GULP energy per Si atom -5593.996708 kJ/mol
# Density = 2.631732 g / cm^3
# Si number density = 26.377356 Si / 1000 Ang^3
#
#
#
# Elastic Constant Matrix: (Units=GPa)
#
#
# Indices 1 2 3 4 5 6 
#
# 1 162.3636 47.7152 35.6744 0.0000 -8.1015 0.0000
# 2 47.7152 90.9757 41.2751 0.0000 -13.6454 0.0000
# 3 35.6744 41.2751 145.6115 0.0000 -7.3783 0.0000
# 4 0.0000 0.0000 0.0000 19.2034 0.0000 -7.9529
# 5 -8.1015 -13.6454 -7.3783 0.0000 49.9045 0.0000
# 6 0.0000 0.0000 0.0000 -7.9529 0.0000 59.1017
#
#
#
# Elastic Compliance Matrix: (Units=1/GPa)
#
#
# Indices 1 2 3 4 5 6 
#
# 1 0.007365 -0.003475 -0.000813 0.000000 0.000125 0.000000
# 2 -0.003475 0.014698 -0.003163 0.000000 0.002987 0.000000
# 3 -0.000813 -0.003163 0.007973 0.000000 0.000182 0.000000
# 4 0.000000 0.000000 0.000000 0.055147 0.000000 0.007421
# 5 0.000125 0.002987 0.000182 0.000000 0.020902 0.000000
# 6 0.000000 0.000000 0.000000 0.007421 0.000000 0.017919
#
#
# Mechanical properties :
#
#
# Convention : Reuss Voigt Hill
#
# Bulk Modulus (GPa) = 66.08385 72.03112 69.05748
# Shear Modulus (GPa) = 34.73389 43.92767 39.33078
#
# Velocity S-wave (km/s) = 3.63272 4.08530 3.86564
# Velocity P-wave (km/s) = 6.53477 7.04416 6.79424
#
# Compressibility (1/GPa) = 0.01513229
#
# Stress axis : x y z
#
# Youngs Moduli (GPa) = 135.77353 68.03673 125.42788
#
# Poissons Ratio (x) = 0.23645 0.10197
# Poissons Ratio (y) = 0.47185 0.39679
# Poissons Ratio (z) = 0.11038 0.21523
#
# Static dielectric constant tensor:
#      x y z
#    x 1.988900 0.000000 0.027410 
#    y 0.000000 2.187150 0.000000 
#    z 0.027410 0.000000 2.132000 
# 
# From -- ./inp_files/269361.got.cif
#   From: 2010.05.17/outbox.cif.g08.bks.cpg/sg15_135_cif.got.tgz:269361.got - 2010.06.03 18:47:42.
