data_PCOD9293089
_publ_section_title
;
Structure prediction by ZEFSAII (Michael W. Deem and Ramdas Pophale) SiO2 
 PCOD9293089
Probable space group: C 2/C
;
_chemical_formula_sum "Si O2"
_cell_formula_units_Z 56
_cell_length_a 9.243470
_cell_length_b 28.376407
_cell_length_c 17.655037
_cell_angle_alpha 90.000000
_cell_angle_beta 142.828326
_cell_angle_gamma 90.000000
_cell_volume 2797.986198
_symmetry_space_group_name_H-M "C 2/C"
_symmetry_group_IT_number 15
_symmetry_cell_setting 'monoclinic'
loop_
_space_group_symop_operation_xyz
x,y,z
-x,y,1/2-z
-x,-y,-z
x,-y,1/2+z
1/2+x,1/2+y,z
1/2-x,1/2+y,1/2-z
1/2-x,1/2-y,-z
1/2+x,1/2-y,1/2+z
loop_
_atom_site_type_symbol
_atom_site_label
_atom_site_fract_x
_atom_site_fract_y
_atom_site_fract_z
Si Si1 0.675096 0.810477 0.173526
Si Si2 0.244971 0.062317 0.402791
Si Si3 0.175725 0.147037 0.488706
Si Si4 0.806816 0.047692 0.599619
Si Si5 0.333568 0.289014 0.753758
Si Si6 0.038220 0.123824 0.598264
Si Si7 0.314924 0.801923 0.498267
O O1 0.733389 0.760920 0.236969
O O2 0.790017 0.854249 0.265729
O O3 0.745260 0.808791 0.115087
O O4 0.392942 0.816965 0.067090
O O5 0.222704 0.102047 0.456459
O O6 0.527226 0.065308 0.492316
O O7 0.000000 0.069575 0.250000
O O8 0.217745 0.008492 0.419749
O O9 0.157220 0.128622 0.566453
O O10 0.950067 0.176412 0.363735
O O11 0.000000 0.055307 0.750000
O O12 0.931536 0.074482 0.581669
O O13 0.500000 0.281354 0.750000
O O14 0.093666 0.311247 0.621904
O O15 0.821921 0.160827 0.508217
O O16 0.250000 0.750000 0.500000
#
# Coordination Sequence:
#
# PCOD9293089 Si02
#       7
#     8   8   8   8   8   8   8
#     4  12  25  43  65  92 130 174 220 264 324 388
#     4  10  23  44  70  99 130 171 218 272 336 399
#     4  12  25  41  65  94 132 170 213 264 327 392
#     4  10  22  44  72  98 129 169 221 274 330 396
#     4  12  25  42  65  89 128 173 219 268 315 382
#     4  12  25  40  65  97 131 169 215 268 321 390
#     4  12  25  42  63  92 125 169 218 269 321 374
#
# _framework density 20.014393999999999
#
# number of rings (size 3 to 8) (size 9 to 14) (size 15 to 20)
#    0.000    0.571    2.857    6.000    2.000    2.286 
#    0.000    0.000    0.000    5.143    0.000    0.000 
#    0.000    0.000    0.000    0.000    0.000    0.000 
#
# Total GULP energy -156358.225218 kJ/mol
# GULP energy per Si atom -5584.222329 kJ/mol
# Density = 1.996884 g / cm^3
# Si number density = 20.014394 Si / 1000 Ang^3
#
#
#
# Elastic Constant Matrix: (Units=GPa)
#
#
# Indices 1 2 3 4 5 6 
#
# 1 70.1432 13.4510 24.9383 0.0000 -12.8601 0.0000
# 2 13.4510 44.9912 16.7087 0.0000 -15.5684 0.0000
# 3 24.9383 16.7087 114.5904 0.0000 12.3325 -0.0001
# 4 0.0000 0.0000 0.0000 12.0760 0.0000 17.6038
# 5 -12.8601 -15.5684 12.3325 0.0000 34.6360 0.0000
# 6 0.0000 0.0000 -0.0001 17.6038 0.0000 28.1379
#
#
#
# Elastic Compliance Matrix: (Units=1/GPa)
#
#
# Indices 1 2 3 4 5 6 
#
# 1 0.017429 -0.000890 -0.004489 0.000000 0.007670 0.000000
# 2 -0.000890 0.029896 -0.005798 -0.000001 0.015172 0.000001
# 3 -0.004489 -0.005798 0.011448 0.000000 -0.008349 0.000000
# 4 0.000000 -0.000001 0.000000 0.941052 -0.000001 -0.588745
# 5 0.007670 0.015172 -0.008349 -0.000001 0.041512 0.000001
# 6 0.000000 0.000001 0.000000 -0.588745 0.000001 0.403873
#
#
# Mechanical properties :
#
#
# Convention : Reuss Voigt Hill
#
# Bulk Modulus (GPa) = 27.45831 37.76899 32.61365
# Shear Modulus (GPa) = 3.37906 26.61177 14.99541
#
# Velocity S-wave (km/s) = 1.30076 3.65037 2.74018
# Velocity P-wave (km/s) = 4.00063 6.05630 5.13244
#
# Compressibility (1/GPa) = 0.03641885
#
# Stress axis : x y z
#
# Youngs Moduli (GPa) = 57.37473 33.44931 87.35415
#
# Poissons Ratio (x) = 0.02976 0.39212
# Poissons Ratio (y) = 0.05105 0.50652
# Poissons Ratio (z) = 0.25754 0.19395
#
# Static dielectric constant tensor:
#      x y z
#    x 1.663110 0.000000 0.022790 
#    y 0.000000 1.643630 0.000000 
#    z 0.022790 0.000000 1.773420 
# 
# From -- ./inp_files/82455.got.cif
#   From: 2010.05.17/outbox.cif.g08.bks.cpg/sg15_42_cif.got.tgz:82455.got - 2010.06.03 18:47:42.
