data_PCOD9293093
_publ_section_title
;
Structure prediction by ZEFSAII (Michael W. Deem and Ramdas Pophale) SiO2 
 PCOD9293093
Probable space group: C 2/C
;
_chemical_formula_sum "Si O2"
_cell_formula_units_Z 40
_cell_length_a 16.462304
_cell_length_b 8.861602
_cell_length_c 13.015683
_cell_angle_alpha 90.000000
_cell_angle_beta 108.932315
_cell_angle_gamma 90.000000
_cell_volume 1796.040817
_symmetry_space_group_name_H-M "C 2/C"
_symmetry_group_IT_number 15
_symmetry_cell_setting 'monoclinic'
loop_
_space_group_symop_operation_xyz
x,y,z
-x,y,1/2-z
-x,-y,-z
x,-y,1/2+z
1/2+x,1/2+y,z
1/2-x,1/2+y,1/2-z
1/2-x,1/2-y,-z
1/2+x,1/2-y,1/2+z
loop_
_atom_site_type_symbol
_atom_site_label
_atom_site_fract_x
_atom_site_fract_y
_atom_site_fract_z
Si Si1 0.089286 0.150630 0.345539
Si Si2 0.250920 0.041277 0.294092
Si Si3 0.046664 0.873119 0.453129
Si Si4 0.568808 0.864096 0.537823
Si Si5 0.720989 0.726573 0.104248
O O1 0.174162 0.145010 0.309547
O O2 0.087178 0.268616 0.440053
O O3 0.000000 0.177359 0.250000
O O4 0.087336 0.975807 0.382687
O O5 0.340342 0.082207 0.383920
O O6 0.252565 0.075977 0.173713
O O7 0.242944 0.864901 0.314948
O O8 0.118394 0.790488 0.550988
O O9 0.974990 0.750918 0.398972
O O10 0.000000 0.000000 0.500000
O O11 0.500000 0.000000 0.500000
O O12 0.750000 0.750000 0.000000
#
# Coordination Sequence:
#
# PCOD9293093 Si02
#       5
#     8   8   8   8   8
#     4  11  25  45  73 103 144 198 244 295 370 444
#     4  12  27  45  76 103 147 195 241 305 373 427
#     4  10  22  44  72  98 147 184 243 295 358 436
#     4  11  24  45  69 110 145 185 245 308 359 436
#     4  12  27  49  72 112 144 192 251 300 364 447
#
# _framework density 22.271208000000001
#
# number of rings (size 3 to 8) (size 9 to 14) (size 15 to 20)
#    0.000    0.800    4.000    3.000    8.400    1.600 
#    0.000    1.000    0.000    0.000    0.000    0.000 
#    0.000    0.000    0.000    0.000    0.000    0.000 
#
# Total GULP energy -111657.260808 kJ/mol
# GULP energy per Si atom -5582.863040 kJ/mol
# Density = 2.222052 g / cm^3
# Si number density = 22.271208 Si / 1000 Ang^3
#
#
#
# Elastic Constant Matrix: (Units=GPa)
#
#
# Indices 1 2 3 4 5 6 
#
# 1 116.1942 29.6488 26.8186 0.0000 13.1536 0.0000
# 2 29.6488 79.6830 9.1264 0.0000 -16.3375 0.0000
# 3 26.8186 9.1264 74.2412 0.0000 -5.0582 0.0000
# 4 0.0000 0.0000 0.0000 35.1681 0.0000 2.6294
# 5 13.1536 -16.3375 -5.0582 0.0000 40.7693 0.0000
# 6 0.0000 0.0000 0.0000 2.6294 0.0000 36.0050
#
#
#
# Elastic Compliance Matrix: (Units=1/GPa)
#
#
# Indices 1 2 3 4 5 6 
#
# 1 0.011539 -0.005124 -0.003965 0.000000 -0.006268 0.000000
# 2 -0.005124 0.016078 0.000430 0.000000 0.008150 0.000000
# 3 -0.003965 0.000430 0.015076 0.000000 0.003322 0.000000
# 4 0.000000 0.000000 0.000000 0.028591 0.000000 -0.002088
# 5 -0.006268 0.008150 0.003322 0.000000 0.030229 0.000000
# 6 0.000000 0.000000 0.000000 -0.002088 0.000000 0.027926
#
#
# Mechanical properties :
#
#
# Convention : Reuss Voigt Hill
#
# Bulk Modulus (GPa) = 39.41245 44.58956 42.00101
# Shear Modulus (GPa) = 32.21327 36.02342 34.11835
#
# Velocity S-wave (km/s) = 3.80729 4.02616 3.91826
# Velocity P-wave (km/s) = 6.08788 6.45585 6.27456
#
# Compressibility (1/GPa) = 0.02537269
#
# Stress axis : x y z
#
# Youngs Moduli (GPa) = 86.66507 62.19632 66.33268
#
# Poissons Ratio (x) = 0.31872 0.26303
# Poissons Ratio (y) = 0.44411 -0.02852
# Poissons Ratio (z) = 0.34366 -0.02674
#
# Static dielectric constant tensor:
#      x y z
#    x 1.888870 0.000000 -0.046480 
#    y 0.000000 1.927150 0.000000 
#    z -0.046480 0.000000 1.822380 
# 
# From -- ./inp_files/159490.got.cif
#   From: 2010.05.17/outbox.cif.g08.bks.cpg/sg15_80_cif.got.tgz:159490.got - 2010.06.03 18:47:42.
