data_PCOD9293450
_publ_section_title
;
Structure prediction by ZEFSAII (Michael W. Deem and Ramdas Pophale) SiO2 
 PCOD9293450
Probable space group: C 2/C
;
_chemical_formula_sum "Si O2"
_cell_formula_units_Z 60
_cell_length_a 9.593153
_cell_length_b 15.944786
_cell_length_c 17.211517
_cell_angle_alpha 90.000000
_cell_angle_beta 114.797289
_cell_angle_gamma 90.000000
_cell_volume 2389.946143
_symmetry_space_group_name_H-M "C 2/C"
_symmetry_group_IT_number 15
_symmetry_cell_setting 'monoclinic'
loop_
_space_group_symop_operation_xyz
x,y,z
-x,y,1/2-z
-x,-y,-z
x,-y,1/2+z
1/2+x,1/2+y,z
1/2-x,1/2+y,1/2-z
1/2-x,1/2-y,-z
1/2+x,1/2-y,1/2+z
loop_
_atom_site_type_symbol
_atom_site_label
_atom_site_fract_x
_atom_site_fract_y
_atom_site_fract_z
Si Si1 0.827083 0.763670 0.727320
Si Si2 0.575310 0.447577 0.942481
Si Si3 0.500000 0.497343 0.750000
Si Si4 0.322454 0.094305 0.830260
Si Si5 0.157778 0.640381 0.313408
Si Si6 0.673649 0.697708 0.914558
Si Si7 0.867229 0.838313 0.420269
Si Si8 0.345552 0.015367 0.590192
O O1 0.833185 0.675844 0.776671
O O2 0.757987 0.837670 0.762880
O O3 0.718572 0.745115 0.627785
O O4 0.000000 0.785025 0.750000
O O5 0.519009 0.457194 0.841702
O O6 0.209323 0.426328 0.888748
O O7 0.500000 0.500000 0.000000
O O8 0.756240 0.472707 0.988018
O O9 0.660156 0.548587 0.778261
O O10 0.299750 0.137346 0.908607
O O11 0.475051 0.037560 0.865260
O O12 0.125176 0.730827 0.342465
O O13 0.574844 0.647524 0.477623
O O14 0.000000 0.600485 0.250000
O O15 0.750000 0.750000 0.000000
O O16 0.518702 0.652101 0.903873
O O17 0.741051 0.911601 0.381227
#
# Coordination Sequence:
#
# PCOD9293450 Si02
#       8
#     8   8   4   8   8   8   8   8
#     4  11  20  43  76 108 153 213 271 322 415 504
#     4  10  23  44  76 109 162 210 267 338 418 476
#     4  12  26  42  76 126 160 210 282 338 418 508
#     4  11  24  44  77 115 150 216 272 332 405 509
#     4  11  25  42  70 115 159 200 268 349 402 477
#     4  11  25  47  78 106 153 214 269 318 420 505
#     4  10  22  45  77 107 154 223 263 330 417 491
#     4  10  26  45  78 110 158 208 272 343 418 468
#
# _framework density 25.105169
#
# number of rings (size 3 to 8) (size 9 to 14) (size 15 to 20)
#    0.800    0.533    2.667    2.400    7.467    0.533 
#    0.000    2.000    4.400    0.000    0.000    0.000 
#    0.000    0.000    0.000    0.000    0.000    0.000 
#
# Total GULP energy -167537.688192 kJ/mol
# GULP energy per Si atom -5584.589606 kJ/mol
# Density = 2.504803 g / cm^3
# Si number density = 25.105169 Si / 1000 Ang^3
#
#
#
# Elastic Constant Matrix: (Units=GPa)
#
#
# Indices 1 2 3 4 5 6 
#
# 1 171.5218 65.0795 74.1626 0.0000 14.4624 0.0000
# 2 65.0795 99.2150 54.0098 0.0000 -5.7342 0.0000
# 3 74.1626 54.0098 154.8259 0.0000 -1.5350 0.0000
# 4 0.0000 0.0000 0.0000 25.6943 0.0000 -10.9151
# 5 14.4624 -5.7342 -1.5350 0.0000 42.2425 0.0000
# 6 0.0000 0.0000 0.0000 -10.9151 0.0000 39.8609
#
#
#
# Elastic Compliance Matrix: (Units=1/GPa)
#
#
# Indices 1 2 3 4 5 6 
#
# 1 0.009144 -0.004711 -0.002775 0.000000 -0.003871 0.000000
# 2 -0.004711 0.014969 -0.002930 0.000000 0.003538 0.000000
# 3 -0.002775 -0.002930 0.008819 0.000000 0.000873 0.000000
# 4 0.000000 0.000000 0.000000 0.044042 0.000000 0.012060
# 5 -0.003871 0.003538 0.000873 0.000000 0.025510 0.000000
# 6 0.000000 0.000000 0.000000 0.012060 0.000000 0.028390
#
#
# Mechanical properties :
#
#
# Convention : Reuss Voigt Hill
#
# Bulk Modulus (GPa) = 82.64793 90.22963 86.43878
# Shear Modulus (GPa) = 32.10506 37.04693 34.57600
#
# Velocity S-wave (km/s) = 3.57994 3.84561 3.71515
# Velocity P-wave (km/s) = 7.07673 7.46572 7.27383
#
# Compressibility (1/GPa) = 0.01209952
#
# Stress axis : x y z
#
# Youngs Moduli (GPa) = 109.36333 66.80558 113.39312
#
# Poissons Ratio (x) = 0.31472 0.31466
# Poissons Ratio (y) = 0.51521 0.33225
# Poissons Ratio (z) = 0.30348 0.19575
#
# Static dielectric constant tensor:
#      x y z
#    x 1.983070 0.000000 -0.029330 
#    y 0.000000 2.045210 0.000000 
#    z -0.029330 0.000000 2.231270 
# 
# From -- ./inp_files/193745.got.cif
#   From: 2010.05.17/outbox.cif.g08.bks.cpg/sg15_97_cif.got.tgz:193745.got - 2010.06.03 18:47:42.
