data_PCOD9293835
_publ_section_title
;
Structure prediction by ZEFSAII (Michael W. Deem and Ramdas Pophale) SiO2 
 PCOD9293835
Probable space group: C 2/C
;
_chemical_formula_sum "Si O2"
_cell_formula_units_Z 36
_cell_length_a 12.193344
_cell_length_b 11.453643
_cell_length_c 10.290283
_cell_angle_alpha 90.000000
_cell_angle_beta 98.007005
_cell_angle_gamma 90.000000
_cell_volume 1423.112054
_symmetry_space_group_name_H-M "C 2/C"
_symmetry_group_IT_number 15
_symmetry_cell_setting 'monoclinic'
loop_
_space_group_symop_operation_xyz
x,y,z
-x,y,1/2-z
-x,-y,-z
x,-y,1/2+z
1/2+x,1/2+y,z
1/2-x,1/2+y,1/2-z
1/2-x,1/2-y,-z
1/2+x,1/2-y,1/2+z
loop_
_atom_site_type_symbol
_atom_site_label
_atom_site_fract_x
_atom_site_fract_y
_atom_site_fract_z
Si Si1 0.665770 0.409204 0.449911
Si Si2 0.500000 0.840598 0.250000
Si Si3 0.954603 0.140235 0.057764
Si Si4 0.880320 0.503424 0.412857
Si Si5 0.379960 0.245341 0.288803
O O1 0.596250 0.523358 0.390320
O O2 0.586809 0.368478 0.553241
O O3 0.789022 0.452334 0.494967
O O4 0.675513 0.309960 0.341533
O O5 0.440688 0.755303 0.138656
O O6 0.404748 0.918884 0.296632
O O7 0.899990 0.162049 0.907964
O O8 0.839507 0.627430 0.350686
O O9 0.000000 0.500000 0.500000
O O10 0.500000 0.211683 0.250000
#
# Coordination Sequence:
#
# PCOD9293835 Si02
#       5
#     8   4   8   8   8
#     4  10  26  45  78 105 143 195 245 302 365 435
#     4  12  26  44  72 110 148 190 238 300 370 438
#     4  10  24  48  72 108 145 185 258 297 360 437
#     4  12  26  48  71 110 152 192 239 301 374 439
#     4  10  22  48  71 101 148 191 240 306 359 434
#
# _framework density 25.296671
#
# number of rings (size 3 to 8) (size 9 to 14) (size 15 to 20)
#    0.000    1.333    3.333    0.000   10.889    3.556 
#    0.000    0.000    0.000    0.000    0.000    0.000 
#    0.000    0.000    0.000    0.000    0.000    0.000 
#
# Total GULP energy -100746.896905 kJ/mol
# GULP energy per Si atom -5597.049828 kJ/mol
# Density = 2.523909 g / cm^3
# Si number density = 25.296671 Si / 1000 Ang^3
#
#
#
# Elastic Constant Matrix: (Units=GPa)
#
#
# Indices 1 2 3 4 5 6 
#
# 1 126.3406 25.0587 21.6602 0.0000 -13.7343 0.0000
# 2 25.0587 145.4014 32.4982 0.0000 -6.5395 0.0000
# 3 21.6602 32.4982 61.9666 0.0000 -0.0334 0.0000
# 4 0.0000 0.0000 0.0000 -0.5412 0.0000 33.9889
# 5 -13.7343 -6.5395 -0.0334 0.0000 18.7420 0.0000
# 6 0.0000 0.0000 0.0000 33.9889 0.0000 -11.4976
#
#
#
# Elastic Compliance Matrix: (Units=1/GPa)
#
#
# Indices 1 2 3 4 5 6 
#
# 1 0.009252 -0.000655 -0.002887 0.000000 0.006546 0.000000
# 2 -0.000655 0.007977 -0.003954 0.000000 0.002297 0.000000
# 3 -0.002887 -0.003954 0.019218 0.000000 -0.003461 0.000000
# 4 0.000000 0.000000 0.000000 0.010006 0.000000 0.029581
# 5 0.006546 0.002297 -0.003461 0.000000 0.058948 0.000000
# 6 0.000000 0.000000 0.000000 0.029581 0.000000 0.000471
#
#
# Mechanical properties :
#
#
# Convention : Reuss Voigt Hill
#
# Bulk Modulus (GPa) = 46.60542 54.68254 50.64398
# Shear Modulus (GPa) = 39.05769 18.30673 28.68221
#
# Velocity S-wave (km/s) = 3.93362 2.69305 3.37090
# Velocity P-wave (km/s) = 6.25258 5.59763 5.93415
#
# Compressibility (1/GPa) = 0.02145673
#
# Stress axis : x y z
#
# Youngs Moduli (GPa) = 108.09017 125.35576 52.03349
#
# Poissons Ratio (x) = 0.08208 0.15022
# Poissons Ratio (y) = 0.07077 0.20572
# Poissons Ratio (z) = 0.31205 0.49560
#
# Static dielectric constant tensor:
#      x y z
#    x 1.985320 0.000000 0.055300 
#    y 0.000000 2.031190 0.000000 
#    z 0.055300 0.000000 2.035390 
# 
# From -- ./inp_files/84392.got.cif
#   From: 2010.05.17/outbox.cif.g08.bks.cpg/sg15_43_cif.got.tgz:84392.got - 2010.06.03 18:47:42.
