data_PCOD9293224
_publ_section_title
;
Structure prediction by ZEFSAII (Michael W. Deem and Ramdas Pophale) SiO2 
 PCOD9293224
Probable space group: C 2/C
;
_chemical_formula_sum "Si O2"
_cell_formula_units_Z 52
_cell_length_a 10.979878
_cell_length_b 13.166029
_cell_length_c 18.379279
_cell_angle_alpha 90.000000
_cell_angle_beta 65.969905
_cell_angle_gamma 90.000000
_cell_volume 2426.662167
_symmetry_space_group_name_H-M "C 2/C"
_symmetry_group_IT_number 15
_symmetry_cell_setting 'monoclinic'
loop_
_space_group_symop_operation_xyz
x,y,z
-x,y,1/2-z
-x,-y,-z
x,-y,1/2+z
1/2+x,1/2+y,z
1/2-x,1/2+y,1/2-z
1/2-x,1/2-y,-z
1/2+x,1/2-y,1/2+z
loop_
_atom_site_type_symbol
_atom_site_label
_atom_site_fract_x
_atom_site_fract_y
_atom_site_fract_z
Si Si1 0.110880 0.690599 0.533346
Si Si2 0.248424 0.541072 0.226219
Si Si3 0.148792 0.819414 0.927427
Si Si4 0.381551 0.172902 0.128432
Si Si5 0.857719 0.335806 0.315918
Si Si6 0.000000 0.973872 0.250000
Si Si7 0.618019 0.331114 0.095984
O O1 0.250000 0.750000 0.500000
O O2 0.102171 0.633519 0.458237
O O3 0.113515 0.630554 0.607922
O O4 0.992637 0.773901 0.563177
O O5 0.283033 0.608689 0.147897
O O6 0.137873 0.590794 0.304620
O O7 0.203128 0.429716 0.213211
O O8 0.382709 0.535696 0.240924
O O9 0.244050 0.722120 0.916203
O O10 0.131693 0.873123 0.010353
O O11 0.251014 0.245989 0.160857
O O12 0.507676 0.242944 0.115262
O O13 0.000000 0.302925 0.250000
O O14 0.932515 0.906784 0.330082
#
# Coordination Sequence:
#
# PCOD9293224 Si02
#       7
#     8   8   8   8   8   4   8
#     4   9  21  41  69  89 123 168 211 262 315 370
#     4  12  27  39  66  98 127 170 213 261 324 377
#     4  10  23  42  70  93 122 177 214 258 323 380
#     4  10  22  45  65  92 128 172 213 260 319 381
#     4  11  24  42  64  96 129 168 210 267 316 379
#     4  12  26  40  62  98 130 166 212 272 312 378
#     4  10  22  46  66  89 132 172 214 264 316 377
#
# _framework density 21.428609999999999
#
# number of rings (size 3 to 8) (size 9 to 14) (size 15 to 20)
#    0.000    1.538    1.538    1.846    9.692    1.846 
#    0.000    0.769    0.000    0.000    0.000    0.000 
#    0.000    0.000    0.000    0.000    0.000    0.000 
#
# Total GULP energy -145373.272960 kJ/mol
# GULP energy per Si atom -5591.279729 kJ/mol
# Density = 2.137984 g / cm^3
# Si number density = 21.428610 Si / 1000 Ang^3
#
#
#
# Elastic Constant Matrix: (Units=GPa)
#
#
# Indices 1 2 3 4 5 6 
#
# 1 88.9876 -5.2055 -0.9024 0.0000 -10.1644 0.0000
# 2 -5.2055 23.2166 18.4864 0.0000 14.1108 0.0000
# 3 -0.9024 18.4864 123.0873 0.0000 15.0505 0.0000
# 4 0.0000 0.0000 0.0000 -10.2137 0.0000 7.2303
# 5 -10.1644 14.1108 15.0505 0.0000 38.8893 0.0000
# 6 0.0000 0.0000 0.0000 7.2303 0.0000 7.3370
#
#
#
# Elastic Compliance Matrix: (Units=1/GPa)
#
#
# Indices 1 2 3 4 5 6 
#
# 1 0.011622 0.001294 -0.000444 0.000000 0.002740 0.000000
# 2 0.001294 0.060205 -0.006721 0.000000 -0.018906 0.000000
# 3 -0.000444 -0.006721 0.009286 0.000000 -0.001271 0.000000
# 4 0.000000 0.000000 0.000000 -0.057674 0.000000 0.056835
# 5 0.002740 -0.018906 -0.001271 0.000000 0.033782 0.000000
# 6 0.000000 0.000000 0.000000 0.056835 0.000000 0.080287
#
#
# Mechanical properties :
#
#
# Convention : Reuss Voigt Hill
#
# Bulk Modulus (GPa) = 14.41529 28.89429 21.65479
# Shear Modulus (GPa) = 29.00678 22.06337 25.53507
#
# Velocity S-wave (km/s) = 3.68319 3.21225 3.45575
# Velocity P-wave (km/s) = 4.98292 5.22220 5.10396
#
# Compressibility (1/GPa) = 0.06937078
#
# Stress axis : x y z
#
# Youngs Moduli (GPa) = 86.04606 16.60986 107.69006
#
# Poissons Ratio (x) = -0.02150 0.04783
# Poissons Ratio (y) = -0.11136 0.72378
# Poissons Ratio (z) = 0.03822 0.11163
#
# Static dielectric constant tensor:
#      x y z
#    x 1.757970 0.000000 0.017680 
#    y 0.000000 1.719270 0.000000 
#    z 0.017680 0.000000 1.830980 
# 
# From -- ./inp_files/197702.got.cif
#   From: 2010.05.17/outbox.cif.g08.bks.cpg/sg15_99_cif.got.tgz:197702.got - 2010.06.03 18:47:42.
