data_PCOD9293589
_publ_section_title
;
Structure prediction by ZEFSAII (Michael W. Deem and Ramdas Pophale) SiO2 
 PCOD9293589
Probable space group: C 2/C
;
_chemical_formula_sum "Si O2"
_cell_formula_units_Z 52
_cell_length_a 11.478202
_cell_length_b 20.094166
_cell_length_c 20.368625
_cell_angle_alpha 90.000000
_cell_angle_beta 149.704787
_cell_angle_gamma 90.000000
_cell_volume 2369.891217
_symmetry_space_group_name_H-M "C 2/C"
_symmetry_group_IT_number 15
_symmetry_cell_setting 'monoclinic'
loop_
_space_group_symop_operation_xyz
x,y,z
-x,y,1/2-z
-x,-y,-z
x,-y,1/2+z
1/2+x,1/2+y,z
1/2-x,1/2+y,1/2-z
1/2-x,1/2-y,-z
1/2+x,1/2-y,1/2+z
loop_
_atom_site_type_symbol
_atom_site_label
_atom_site_fract_x
_atom_site_fract_y
_atom_site_fract_z
Si Si1 0.538298 0.470779 0.844991
Si Si2 0.563141 0.397126 0.154004
Si Si3 0.168479 0.319191 0.019392
Si Si4 0.500000 0.266235 0.750000
Si Si5 0.963122 0.810269 0.483175
Si Si6 0.485229 0.930132 0.452119
Si Si7 0.725144 0.648877 0.241179
O O1 0.500000 0.490761 0.750000
O O2 0.587422 0.535979 0.911371
O O3 0.323465 0.428123 0.765723
O O4 0.760017 0.423332 0.953344
O O5 0.585273 0.369124 0.092187
O O6 0.796772 0.420839 0.303376
O O7 0.428850 0.339610 0.129074
O O8 0.116149 0.246526 0.021550
O O9 0.994727 0.332395 0.873984
O O10 0.076183 0.371863 0.027750
O O11 0.284538 0.222381 0.620399
O O12 0.393381 0.309890 0.756935
O O13 0.100057 0.833608 0.613210
O O14 0.500000 0.000000 0.500000
#
# Coordination Sequence:
#
# PCOD9293589 Si02
#       7
#     8   8   8   4   8   8   8
#     4  12  21  42  70  98 128 175 238 286 337 401
#     4  12  26  42  67 105 143 177 230 291 356 416
#     4  11  23  44  68 100 142 184 233 284 345 421
#     4  10  22  46  70 100 134 180 244 292 342 416
#     4  11  27  42  67 105 144 188 225 287 363 424
#     4  12  22  41  71 104 131 181 241 291 330 401
#     4  11  23  44  72  95 135 181 236 288 349 413
#
# _framework density 21.941936999999999
#
# number of rings (size 3 to 8) (size 9 to 14) (size 15 to 20)
#    0.000    0.615    5.385    2.308    6.462    1.231 
#    2.769    0.000    3.385    0.000    0.000    0.000 
#    0.000    0.000    0.000    0.000    0.000    0.000 
#
# Total GULP energy -145410.783487 kJ/mol
# GULP energy per Si atom -5592.722442 kJ/mol
# Density = 2.189200 g / cm^3
# Si number density = 21.941937 Si / 1000 Ang^3
#
#
#
# Elastic Constant Matrix: (Units=GPa)
#
#
# Indices 1 2 3 4 5 6 
#
# 1 39.7559 28.5280 32.7464 0.0007 -8.6252 0.0017
# 2 28.5280 95.8689 21.7496 0.0005 -28.8339 0.0014
# 3 32.7464 21.7496 117.9382 0.0000 -22.6198 0.0007
# 4 0.0007 0.0005 0.0000 31.2393 0.0016 -4.4674
# 5 -8.6252 -28.8339 -22.6198 0.0016 41.0152 0.0015
# 6 0.0017 0.0014 0.0007 -4.4674 0.0015 9.2091
#
#
#
# Elastic Compliance Matrix: (Units=1/GPa)
#
#
# Indices 1 2 3 4 5 6 
#
# 1 0.040479 -0.011246 -0.010120 -0.000001 -0.004974 -0.000005
# 2 -0.011246 0.016409 0.002075 -0.000001 0.010315 -0.000003
# 3 -0.010120 0.002075 0.012053 0.000000 0.005977 0.000000
# 4 -0.000001 -0.000001 0.000000 0.034397 -0.000003 0.016686
# 5 -0.004974 0.010315 0.005977 -0.000003 0.033883 -0.000008
# 6 -0.000005 -0.000003 0.000000 0.016686 -0.000008 0.116683
#
#
# Mechanical properties :
#
#
# Convention : Reuss Voigt Hill
#
# Bulk Modulus (GPa) = 32.93827 46.62343 39.78085
# Shear Modulus (GPa) = 16.52319 27.66201 22.09260
#
# Velocity S-wave (km/s) = 2.74714 3.55447 3.17656
# Velocity P-wave (km/s) = 5.01064 6.17579 5.62347
#
# Compressibility (1/GPa) = 0.03035982
#
# Stress axis : x y z
#
# Youngs Moduli (GPa) = 24.70392 60.94204 82.96966
#
# Poissons Ratio (x) = 0.68534 0.83961
# Poissons Ratio (y) = 0.27782 -0.17214
# Poissons Ratio (z) = 0.24999 -0.12644
#
# Static dielectric constant tensor:
#      x y z
#    x 1.809090 0.000000 0.056310 
#    y 0.000000 1.826960 0.000000 
#    z 0.056310 0.000000 1.856140 
# 
# From -- ./inp_files/240565.got.cif
#   From: 2010.05.17/outbox.cif.g08.bks.cpg/sg15_121_cif.got.tgz:240565.got - 2010.06.03 18:47:42.
