data_PCOD9293912
_publ_section_title
;
Structure prediction by ZEFSAII (Michael W. Deem and Ramdas Pophale) SiO2 
 PCOD9293912
Probable space group: C 2/C
;
_chemical_formula_sum "Si O2"
_cell_formula_units_Z 56
_cell_length_a 18.752492
_cell_length_b 8.257543
_cell_length_c 24.109781
_cell_angle_alpha 90.000000
_cell_angle_beta 52.489637
_cell_angle_gamma 90.000000
_cell_volume 2961.484527
_symmetry_space_group_name_H-M "C 2/C"
_symmetry_group_IT_number 15
_symmetry_cell_setting 'monoclinic'
loop_
_space_group_symop_operation_xyz
x,y,z
-x,y,1/2-z
-x,-y,-z
x,-y,1/2+z
1/2+x,1/2+y,z
1/2-x,1/2+y,1/2-z
1/2-x,1/2-y,-z
1/2+x,1/2-y,1/2+z
loop_
_atom_site_type_symbol
_atom_site_label
_atom_site_fract_x
_atom_site_fract_y
_atom_site_fract_z
Si Si1 0.365021 0.430534 0.556409
Si Si2 0.514380 0.379100 0.579070
Si Si3 0.106185 0.769321 0.205993
Si Si4 0.336363 0.135123 0.961456
Si Si5 0.419678 0.605316 0.242618
Si Si6 0.252170 0.837998 0.057015
Si Si7 0.819333 0.581650 0.839386
O O1 0.438273 0.392850 0.568202
O O2 0.414089 0.485977 0.476292
O O3 0.308842 0.269583 0.572231
O O4 0.289405 0.564120 0.608505
O O5 0.575855 0.220203 0.555877
O O6 0.465760 0.387505 0.660999
O O7 0.151788 0.834495 0.127822
O O8 0.143624 0.590109 0.202071
O O9 0.000000 0.750951 0.250000
O O10 0.125736 0.926600 0.234693
O O11 0.349431 0.083651 0.890533
O O12 0.250000 0.250000 0.000000
O O13 0.303059 0.001019 0.020017
O O14 0.500000 0.605717 0.250000
O O15 0.357272 0.758975 0.290000
O O16 0.250000 0.750000 0.000000
#
# Coordination Sequence:
#
# PCOD9293912 Si02
#       7
#     8   8   8   8   8   8   8
#     4  10  24  44  64  90 134 174 211 275 338 379
#     4  11  24  43  65  94 132 170 218 274 331 393
#     4  10  23  35  60  96 131 158 207 273 328 369
#     4  12  21  36  71  94 121 167 217 273 320 385
#     4  11  23  38  67  96 128 166 222 266 329 394
#     4  11  21  38  65  93 124 167 223 265 316 393
#     4  11  21  41  63  95 129 168 217 268 328 389
#
# _framework density 18.909434999999998
#
# number of rings (size 3 to 8) (size 9 to 14) (size 15 to 20)
#    0.000    1.143    5.714    1.286    6.000    0.571 
#    5.143    0.000    0.000    0.000    0.000    0.000 
#    0.000    0.000    0.000    0.000    0.000    0.000 
#
# Total GULP energy -155952.601196 kJ/mol
# GULP energy per Si atom -5569.735757 kJ/mol
# Density = 1.886640 g / cm^3
# Si number density = 18.909435 Si / 1000 Ang^3
#
#
#
# Elastic Constant Matrix: (Units=GPa)
#
#
# Indices 1 2 3 4 5 6 
#
# 1 83.5465 23.6812 29.3444 0.0001 -10.3300 0.0004
# 2 23.6812 112.1103 40.6834 0.0001 -11.4688 0.0008
# 3 29.3444 40.6834 132.6225 0.0000 -13.3728 0.0000
# 4 0.0001 0.0001 0.0000 39.1565 0.0000 -10.9956
# 5 -10.3300 -11.4688 -13.3728 0.0000 24.4594 0.0000
# 6 0.0004 0.0008 0.0000 -10.9956 0.0000 23.8517
#
#
#
# Elastic Compliance Matrix: (Units=1/GPa)
#
#
# Indices 1 2 3 4 5 6 
#
# 1 0.013672 -0.001733 -0.002110 0.000000 0.003808 0.000000
# 2 -0.001733 0.010499 -0.002556 0.000000 0.002794 0.000000
# 3 -0.002110 -0.002556 0.009081 0.000000 0.002876 0.000000
# 4 0.000000 0.000000 0.000000 0.029336 0.000000 0.013524
# 5 0.003808 0.002794 0.002876 0.000000 0.045375 0.000000
# 6 0.000000 0.000000 0.000000 0.013524 0.000000 0.048160
#
#
# Mechanical properties :
#
#
# Convention : Reuss Voigt Hill
#
# Bulk Modulus (GPa) = 48.88490 57.29971 53.09230
# Shear Modulus (GPa) = 28.45138 33.13152 30.79145
#
# Velocity S-wave (km/s) = 3.88314 4.19037 4.03968
# Velocity P-wave (km/s) = 6.78331 7.33350 7.06376
#
# Compressibility (1/GPa) = 0.02045622
#
# Stress axis : x y z
#
# Youngs Moduli (GPa) = 73.13991 95.24697 110.12159
#
# Poissons Ratio (x) = 0.16505 0.23231
# Poissons Ratio (y) = 0.12674 0.28142
# Poissons Ratio (z) = 0.15430 0.24341
#
# Static dielectric constant tensor:
#      x y z
#    x 1.826680 0.000000 -0.710320 
#    y 0.000000 1.696860 -0.000010 
#    z -0.710320 -0.000010 4.178110 
# 
# From -- ./inp_files/279339.got.cif
#   From: 2010.05.17/outbox.cif.g08.bks.cpg/sg15_140_cif.got.tgz:279339.got - 2010.06.03 18:47:42.
