data_PCOD9293735
_publ_section_title
;
Structure prediction by ZEFSAII (Michael W. Deem and Ramdas Pophale) SiO2 
 PCOD9293735
Probable space group: C 2/C
;
_chemical_formula_sum "Si O2"
_cell_formula_units_Z 28
_cell_length_a 18.394601
_cell_length_b 7.310135
_cell_length_c 24.110322
_cell_angle_alpha 90.000000
_cell_angle_beta 19.306464
_cell_angle_gamma 90.000000
_cell_volume 1071.887095
_symmetry_space_group_name_H-M "C 2/C"
_symmetry_group_IT_number 15
_symmetry_cell_setting 'monoclinic'
loop_
_space_group_symop_operation_xyz
x,y,z
-x,y,1/2-z
-x,-y,-z
x,-y,1/2+z
1/2+x,1/2+y,z
1/2-x,1/2+y,1/2-z
1/2-x,1/2-y,-z
1/2+x,1/2-y,1/2+z
loop_
_atom_site_type_symbol
_atom_site_label
_atom_site_fract_x
_atom_site_fract_y
_atom_site_fract_z
Si Si1 0.536277 0.182756 0.620301
Si Si2 0.015265 0.914508 0.111815
Si Si3 0.000000 0.480003 0.750000
Si Si4 0.395037 0.890679 0.025030
O O1 0.750000 0.250000 0.500000
O O2 0.458349 0.370772 0.648707
O O3 0.402989 0.099052 0.768017
O O4 0.592461 0.027024 0.536083
O O5 0.979312 0.793601 0.083060
O O6 0.277050 0.888905 0.933156
O O7 0.854259 0.846856 0.276463
O O8 0.500000 0.000000 0.000000
#
# Coordination Sequence:
#
# PCOD9293735 Si02
#       4
#     8   8   4   8
#     4  10  23  47  75 109 142 188 243 306 367 430
#     4  11  25  47  73 105 148 185 246 300 365 433
#     4  10  22  46  84 110 138 184 242 312 374 428
#     4  12  29  46  71 109 148 202 241 295 370 448
#
# _framework density 26.122153999999998
#
# number of rings (size 3 to 8) (size 9 to 14) (size 15 to 20)
#    0.000    1.143    0.000    5.143    4.000   14.857 
#    0.000    1.429    0.000    0.000    0.000    0.000 
#    0.000    0.000    0.000    0.000    0.000    0.000 
#
# Total GULP energy -78306.894811 kJ/mol
# GULP energy per Si atom -5593.349629 kJ/mol
# Density = 2.606270 g / cm^3
# Si number density = 26.122154 Si / 1000 Ang^3
#
#
#
# Elastic Constant Matrix: (Units=GPa)
#
#
# Indices 1 2 3 4 5 6 
#
# 1 135.8124 69.4822 56.0653 0.0003 32.5958 -0.0007
# 2 69.4822 150.6690 62.3638 0.0037 29.0702 0.0009
# 3 56.0653 62.3638 172.5892 -0.0183 38.1751 -0.0034
# 4 0.0003 0.0037 -0.0183 40.1744 0.0032 16.9692
# 5 32.5958 29.0702 38.1751 0.0032 54.2410 0.0011
# 6 -0.0007 0.0009 -0.0034 16.9692 0.0011 55.7118
#
#
#
# Elastic Compliance Matrix: (Units=1/GPa)
#
#
# Indices 1 2 3 4 5 6 
#
# 1 0.010636 -0.003673 -0.001361 0.000000 -0.003465 0.000000
# 2 -0.003673 0.009396 -0.001867 -0.000002 -0.001515 0.000000
# 3 -0.001361 -0.001867 0.007709 0.000004 -0.003607 -0.000001
# 4 0.000000 -0.000002 0.000004 0.028567 -0.000004 -0.008701
# 5 -0.003465 -0.001515 -0.003607 -0.000004 0.023868 0.000000
# 6 0.000000 0.000000 -0.000001 -0.008701 0.000000 0.020600
#
#
# Mechanical properties :
#
#
# Convention : Reuss Voigt Hill
#
# Bulk Modulus (GPa) = 71.74721 92.76591 82.25656
# Shear Modulus (GPa) = 41.93803 48.10274 45.02038
#
# Velocity S-wave (km/s) = 4.01116 4.29587 4.15596
# Velocity P-wave (km/s) = 6.99845 7.75857 7.38829
#
# Compressibility (1/GPa) = 0.01393782
#
# Stress axis : x y z
#
# Youngs Moduli (GPa) = 94.02301 106.43117 129.72219
#
# Poissons Ratio (x) = 0.39089 0.17662
# Poissons Ratio (y) = 0.34532 0.24219
# Poissons Ratio (z) = 0.12801 0.19871
#
# Static dielectric constant tensor:
#      x y z
#    x 2.111010 0.000000 -0.040510 
#    y 0.000000 2.189830 0.000030 
#    z -0.040510 0.000030 2.237880 
# 
# From -- ./inp_files/187099.got.cif
#   From: 2010.05.17/outbox.cif.g08.bks.cpg/sg15_94_cif.got.tgz:187099.got - 2010.06.03 18:47:42.
