data_PCOD9293278
_publ_section_title
;
Structure prediction by ZEFSAII (Michael W. Deem and Ramdas Pophale) SiO2 
 PCOD9293278
Probable space group: C 2/C
;
_chemical_formula_sum "Si O2"
_cell_formula_units_Z 48
_cell_length_a 11.286693
_cell_length_b 20.518527
_cell_length_c 11.192613
_cell_angle_alpha 90.000000
_cell_angle_beta 49.509521
_cell_angle_gamma 90.000000
_cell_volume 1971.294555
_symmetry_space_group_name_H-M "C 2/C"
_symmetry_group_IT_number 15
_symmetry_cell_setting 'monoclinic'
loop_
_space_group_symop_operation_xyz
x,y,z
-x,y,1/2-z
-x,-y,-z
x,-y,1/2+z
1/2+x,1/2+y,z
1/2-x,1/2+y,1/2-z
1/2-x,1/2-y,-z
1/2+x,1/2-y,1/2+z
loop_
_atom_site_type_symbol
_atom_site_label
_atom_site_fract_x
_atom_site_fract_y
_atom_site_fract_z
Si Si1 0.145408 0.766564 0.897085
Si Si2 0.479997 0.599173 0.905153
Si Si3 0.500000 0.962851 0.250000
Si Si4 0.500000 0.295721 0.750000
Si Si5 0.964314 0.668496 0.147015
Si Si6 0.266203 0.099724 0.078229
Si Si7 0.720283 0.503808 0.307332
O O1 0.055965 0.756539 0.829500
O O2 0.327452 0.778545 0.758893
O O3 0.072579 0.832859 0.000662
O O4 0.114455 0.705641 0.001183
O O5 0.500000 0.605462 0.750000
O O6 0.638491 0.566363 0.850422
O O7 0.353540 0.546215 0.036245
O O8 0.363489 0.923595 0.403164
O O9 0.403760 0.999430 0.210497
O O10 0.355811 0.343803 0.872391
O O11 0.890391 0.626055 0.092639
O O12 0.000000 0.636120 0.250000
O O13 0.184161 0.042104 0.207580
#
# Coordination Sequence:
#
# PCOD9293278 Si02
#       7
#     8   8   4   4   8   8   8
#     4  11  24  43  67  99 127 176 217 277 324 389
#     4  11  23  41  69  97 129 178 228 261 327 404
#     4  12  26  39  66 106 136 167 226 270 334 396
#     4  10  22  45  68  88 136 171 228 258 326 404
#     4  11  25  44  68  94 135 174 218 272 332 390
#     4  11  25  44  68  97 137 177 213 278 329 384
#     4  11  24  42  65  99 136 179 213 276 328 387
#
# _framework density 24.349482999999999
#
# number of rings (size 3 to 8) (size 9 to 14) (size 15 to 20)
#    0.000    1.000    3.333    3.500    4.667    7.333 
#    0.000    0.000    0.000    0.000    0.000    0.000 
#    0.000    0.000    0.000    0.000    0.000    0.000 
#
# Total GULP energy -134379.966800 kJ/mol
# GULP energy per Si atom -5599.165283 kJ/mol
# Density = 2.429406 g / cm^3
# Si number density = 24.349483 Si / 1000 Ang^3
#
#
#
# Elastic Constant Matrix: (Units=GPa)
#
#
# Indices 1 2 3 4 5 6 
#
# 1 88.5250 -12.6955 -2.2901 0.0000 10.3893 0.0000
# 2 -12.6955 12.4473 3.1741 0.0000 -9.4463 0.0000
# 3 -2.2901 3.1741 99.6437 0.0000 20.1699 0.0000
# 4 0.0000 0.0000 0.0000 -10.1140 0.0000 3.2547
# 5 10.3893 -9.4463 20.1699 0.0000 31.4878 0.0000
# 6 0.0000 0.0000 0.0000 3.2547 0.0000 12.5172
#
#
#
# Elastic Compliance Matrix: (Units=1/GPa)
#
#
# Indices 1 2 3 4 5 6 
#
# 1 0.013236 0.013228 -0.000042 0.000000 -0.000372 0.000000
# 2 0.013228 0.129067 -0.012365 0.000000 0.042276 0.000000
# 3 -0.000042 -0.012365 0.012842 0.000000 -0.011922 0.000000
# 4 0.000000 0.000000 0.000000 -0.091239 0.000000 0.023723
# 5 -0.000372 0.042276 -0.011922 0.000000 0.052200 0.000000
# 6 0.000000 0.000000 0.000000 0.023723 0.000000 0.073722
#
#
# Mechanical properties :
#
#
# Convention : Reuss Voigt Hill
#
# Bulk Modulus (GPa) = 6.37803 19.66590 13.02197
# Shear Modulus (GPa) = 20.79453 20.94003 20.86728
#
# Velocity S-wave (km/s) = 2.92550 2.93572 2.93062
# Velocity P-wave (km/s) = 3.74653 4.42553 4.10011
#
# Compressibility (1/GPa) = 0.15678812
#
# Stress axis : x y z
#
# Youngs Moduli (GPa) = 75.55207 7.74790 77.87040
#
# Poissons Ratio (x) = -0.10249 0.00327
# Poissons Ratio (y) = -0.99944 0.96286
# Poissons Ratio (z) = 0.00317 0.09580
#
# Static dielectric constant tensor:
#      x y z
#    x 1.934520 0.000000 0.030760 
#    y 0.000000 1.921860 0.000000 
#    z 0.030760 0.000000 1.933300 
# 
# From -- ./inp_files/89452.got.cif
#   From: 2010.05.17/outbox.cif.g08.bks.cpg/sg15_45_cif.got.tgz:89452.got - 2010.06.03 18:47:42.
