data_PCOD9293757
_publ_section_title
;
Structure prediction by ZEFSAII (Michael W. Deem and Ramdas Pophale) SiO2 
 PCOD9293757
Probable space group: C 2/C
;
_chemical_formula_sum "Si O2"
_cell_formula_units_Z 36
_cell_length_a 25.532754
_cell_length_b 5.708473
_cell_length_c 10.218972
_cell_angle_alpha 90.000000
_cell_angle_beta 85.567318
_cell_angle_gamma 90.000000
_cell_volume 1484.991014
_symmetry_space_group_name_H-M "C 2/C"
_symmetry_group_IT_number 15
_symmetry_cell_setting 'monoclinic'
loop_
_space_group_symop_operation_xyz
x,y,z
-x,y,1/2-z
-x,-y,-z
x,-y,1/2+z
1/2+x,1/2+y,z
1/2-x,1/2+y,1/2-z
1/2-x,1/2-y,-z
1/2+x,1/2-y,1/2+z
loop_
_atom_site_type_symbol
_atom_site_label
_atom_site_fract_x
_atom_site_fract_y
_atom_site_fract_z
Si Si1 0.000000 0.471089 0.750000
Si Si2 0.212597 0.167287 0.889848
Si Si3 0.405982 0.708169 0.328492
Si Si4 0.448078 0.599671 0.579775
Si Si5 0.308302 0.838302 0.183619
O O1 0.953393 0.608215 0.829901
O O2 0.968572 0.332951 0.644715
O O3 0.249576 0.145466 0.753307
O O4 0.177919 0.403511 0.875508
O O5 0.191754 0.898552 0.905060
O O6 0.250000 0.250000 0.000000
O O7 0.405763 0.600495 0.472229
O O8 0.426495 0.544811 0.207055
O O9 0.349999 0.797253 0.291739
O O10 0.500000 0.500000 0.500000
#
# Coordination Sequence:
#
# PCOD9293757 Si02
#       5
#     4   8   8   8   8
#     4  12  24  44  70  98 140 184 236 290 348 420
#     4  10  22  47  68  98 138 177 225 291 353 413
#     4  12  27  42  70 103 135 190 233 291 354 424
#     4  12  24  47  64  96 145 182 234 293 352 417
#     4  10  25  42  68 103 133 178 234 283 352 421
#
# _framework density 24.242573
#
# number of rings (size 3 to 8) (size 9 to 14) (size 15 to 20)
#    0.000    0.889    4.444    1.333    6.222    0.000 
#    0.000    0.000    0.000    0.000    0.000    0.000 
#    0.000    0.000    0.000    0.000    0.000    0.000 
#
# Total GULP energy -100503.178733 kJ/mol
# GULP energy per Si atom -5583.509930 kJ/mol
# Density = 2.418740 g / cm^3
# Si number density = 24.242573 Si / 1000 Ang^3
#
#
#
# Elastic Constant Matrix: (Units=GPa)
#
#
# Indices 1 2 3 4 5 6 
#
# 1 67.4700 21.1786 5.1999 0.0000 0.5591 0.0000
# 2 21.1786 99.2695 23.2879 0.0000 -14.0639 0.0000
# 3 5.1999 23.2879 142.5596 0.0000 12.4565 0.0000
# 4 0.0000 0.0000 0.0000 42.3445 0.0000 9.3259
# 5 0.5591 -14.0639 12.4565 0.0000 46.1264 0.0000
# 6 0.0000 0.0000 0.0000 9.3259 0.0000 9.5304
#
#
#
# Elastic Compliance Matrix: (Units=1/GPa)
#
#
# Indices 1 2 3 4 5 6 
#
# 1 0.015960 -0.003623 0.000126 0.000000 -0.001332 0.000000
# 2 -0.003623 0.011970 -0.002198 0.000000 0.004287 0.000000
# 3 0.000126 -0.002198 0.007607 0.000000 -0.002726 0.000000
# 4 0.000000 0.000000 0.000000 0.030103 0.000000 -0.029457
# 5 -0.001332 0.004287 -0.002726 0.000000 0.023739 0.000000
# 6 0.000000 0.000000 0.000000 -0.029457 0.000000 0.133752
#
#
# Mechanical properties :
#
#
# Convention : Reuss Voigt Hill
#
# Bulk Modulus (GPa) = 41.41299 45.40355 43.40827
# Shear Modulus (GPa) = 20.61261 36.90913 28.76087
#
# Velocity S-wave (km/s) = 2.91909 3.90615 3.44812
# Velocity P-wave (km/s) = 5.33679 6.25408 5.81355
#
# Compressibility (1/GPa) = 0.02414701
#
# Stress axis : x y z
#
# Youngs Moduli (GPa) = 62.65638 83.54561 131.45439
#
# Poissons Ratio (x) = 0.30271 -0.01658
# Poissons Ratio (y) = 0.22702 0.28890
# Poissons Ratio (z) = -0.00790 0.18361
#
# Static dielectric constant tensor:
#      x y z
#    x 1.878440 0.000000 -0.228060 
#    y 0.000000 2.080790 0.000000 
#    z -0.228060 0.000000 0.636130 
# 
# From -- ./inp_files/115588.got.cif
#   From: 2010.05.17/outbox.cif.g08.bks.cpg/sg15_58_cif.got.tgz:115588.got - 2010.06.03 18:47:42.
