data_PCOD9293962
_publ_section_title
;
Structure prediction by ZEFSAII (Michael W. Deem and Ramdas Pophale) SiO2 
 PCOD9293962
Probable space group: C 2/C
;
_chemical_formula_sum "Si O2"
_cell_formula_units_Z 64
_cell_length_a 19.240992
_cell_length_b 27.698550
_cell_length_c 16.297116
_cell_angle_alpha 90.000000
_cell_angle_beta 157.077888
_cell_angle_gamma 90.000000
_cell_volume 3382.826921
_symmetry_space_group_name_H-M "C 2/C"
_symmetry_group_IT_number 15
_symmetry_cell_setting 'monoclinic'
loop_
_space_group_symop_operation_xyz
x,y,z
-x,y,1/2-z
-x,-y,-z
x,-y,1/2+z
1/2+x,1/2+y,z
1/2-x,1/2+y,1/2-z
1/2-x,1/2-y,-z
1/2+x,1/2-y,1/2+z
loop_
_atom_site_type_symbol
_atom_site_label
_atom_site_fract_x
_atom_site_fract_y
_atom_site_fract_z
Si Si1 0.573337 0.197505 0.922114
Si Si2 0.450494 0.989348 0.038641
Si Si3 0.843661 0.912721 0.927124
Si Si4 0.924196 0.996858 0.797349
Si Si5 0.595215 0.398740 0.050805
Si Si6 0.983358 0.192291 0.329901
Si Si7 0.012137 0.608993 0.561180
Si Si8 0.180227 0.557884 0.403286
O O1 0.500000 0.191575 0.750000
O O2 0.545043 0.253229 0.915513
O O3 0.489901 0.160093 0.895490
O O4 0.781336 0.187638 0.139794
O O5 0.488340 0.933661 0.101746
O O6 0.574090 0.021435 0.229213
O O7 0.241885 0.998680 0.821860
O O8 0.500000 0.000000 0.000000
O O9 0.661184 0.898263 0.683752
O O10 0.795763 0.905704 0.971893
O O11 0.996165 0.892154 0.030974
O O12 0.913913 0.967806 0.006544
O O13 0.818676 0.023503 0.605722
O O14 0.004209 0.942626 0.898355
O O15 0.807639 0.403896 0.291192
O O16 0.581375 0.350346 0.982560
O O17 0.000000 0.186446 0.250000
O O18 0.000000 0.580721 0.250000
#
# Coordination Sequence:
#
# PCOD9293962 Si02
#       8
#     8   8   8   8   8   8   8   8
#     4  11  22  41  60  89 124 157 202 250 295 351
#     4  11  19  37  57  82 117 163 199 245 293 348
#     4  12  23  41  57  84 119 159 203 250 298 355
#     4  11  23  37  55  84 119 157 204 247 293 351
#     4  12  24  39  61  86 119 165 204 244 297 359
#     4  11  22  40  62  89 121 161 200 247 298 349
#     4  12  24  37  61  84 117 163 203 247 296 355
#     4  10  23  37  59  83 116 162 201 250 297 351
#
# _framework density 18.919087999999999
#
# number of rings (size 3 to 8) (size 9 to 14) (size 15 to 20)
#    0.000    0.750    3.750    5.250    1.750    4.500 
#    0.000    0.000    0.000    0.000    0.000    0.000 
#    0.000    7.000    0.000    0.000    0.000    0.000 
#
# Total GULP energy -178196.640826 kJ/mol
# GULP energy per Si atom -5568.645026 kJ/mol
# Density = 1.887603 g / cm^3
# Si number density = 18.919088 Si / 1000 Ang^3
#
#
#
# Elastic Constant Matrix: (Units=GPa)
#
#
# Indices 1 2 3 4 5 6 
#
# 1 109.3066 40.8668 41.8007 0.0000 25.2519 0.0000
# 2 40.8668 90.0115 16.6614 0.0000 -0.5388 0.0000
# 3 41.8007 16.6614 115.9108 -0.0003 26.1404 0.0001
# 4 0.0000 0.0000 -0.0003 26.7761 -0.0001 -0.6544
# 5 25.2519 -0.5388 26.1404 -0.0001 42.7988 0.0000
# 6 0.0000 0.0000 0.0001 -0.6544 0.0000 32.1243
#
#
#
# Elastic Compliance Matrix: (Units=1/GPa)
#
#
# Indices 1 2 3 4 5 6 
#
# 1 0.013892 -0.005852 -0.002671 0.000000 -0.006638 0.000000
# 2 -0.005852 0.013944 -0.000826 0.000000 0.004133 0.000000
# 3 -0.002671 -0.000826 0.010851 0.000000 -0.005062 0.000000
# 4 0.000000 0.000000 0.000000 0.037365 0.000000 0.000761
# 5 -0.006638 0.004133 -0.005062 0.000000 0.030425 0.000000
# 6 0.000000 0.000000 0.000000 0.000761 0.000000 0.031145
#
#
# Mechanical properties :
#
#
# Convention : Reuss Voigt Hill
#
# Bulk Modulus (GPa) = 50.03097 57.09853 53.56475
# Shear Modulus (GPa) = 30.67774 34.73319 32.70546
#
# Velocity S-wave (km/s) = 4.03118 4.28937 4.16228
# Velocity P-wave (km/s) = 6.94041 7.40118 7.17450
#
# Compressibility (1/GPa) = 0.01998762
#
# Stress axis : x y z
#
# Youngs Moduli (GPa) = 71.98479 71.71340 92.15773
#
# Poissons Ratio (x) = 0.41969 0.24619
# Poissons Ratio (y) = 0.42128 0.07612
# Poissons Ratio (z) = 0.19230 0.05923
#
# Static dielectric constant tensor:
#      x y z
#    x 1.776150 0.000000 -0.030330 
#    y 0.000000 1.833510 0.000000 
#    z -0.030330 0.000000 1.998240 
# 
# From -- ./inp_files/217137.got.cif
#   From: 2010.05.17/outbox.cif.g08.bks.cpg/sg15_109_cif.got.tgz:217137.got - 2010.06.03 18:47:42.
