data_PCOD9293160
_publ_section_title
;
Structure prediction by ZEFSAII (Michael W. Deem and Ramdas Pophale) SiO2 
 PCOD9293160
Probable space group: C 2/C
;
_chemical_formula_sum "Si O2"
_cell_formula_units_Z 44
_cell_length_a 17.501979
_cell_length_b 18.383810
_cell_length_c 5.520420
_cell_angle_alpha 90.000000
_cell_angle_beta 76.501426
_cell_angle_gamma 90.000000
_cell_volume 1727.145449
_symmetry_space_group_name_H-M "C 2/C"
_symmetry_group_IT_number 15
_symmetry_cell_setting 'monoclinic'
loop_
_space_group_symop_operation_xyz
x,y,z
-x,y,1/2-z
-x,-y,-z
x,-y,1/2+z
1/2+x,1/2+y,z
1/2-x,1/2+y,1/2-z
1/2-x,1/2-y,-z
1/2+x,1/2-y,1/2+z
loop_
_atom_site_type_symbol
_atom_site_label
_atom_site_fract_x
_atom_site_fract_y
_atom_site_fract_z
Si Si1 0.084522 0.313686 0.077162
Si Si2 0.151544 0.428328 0.397667
Si Si3 0.000000 0.590643 0.250000
Si Si4 0.371615 0.654072 0.415364
Si Si5 0.080805 0.917432 0.111474
Si Si6 0.260560 0.435272 0.700485
O O1 0.133292 0.239992 0.044517
O O2 0.000000 0.291689 0.250000
O O3 0.126999 0.373595 0.207896
O O4 0.055862 0.355035 0.859630
O O5 0.202409 0.499052 0.297374
O O6 0.210044 0.389221 0.545376
O O7 0.066196 0.453806 0.559495
O O8 0.400325 0.625563 0.655083
O O9 0.290876 0.614715 0.395355
O O10 0.423168 0.631766 0.132962
O O11 0.000000 0.956612 0.250000
O O12 0.158723 0.962940 0.988916
#
# Coordination Sequence:
#
# PCOD9293160 Si02
#       6
#     8   8   4   8   8   8
#     4  10  23  45  76 118 156 205 267 332 405 484
#     4  11  26  49  71 114 160 214 265 335 399 486
#     4  10  26  44  78 110 158 214 266 330 410 482
#     4  10  24  43  81 118 159 207 262 332 401 478
#     4  10  22  44  75 116 154 209 262 326 400 476
#     4  10  28  44  78 107 166 209 268 334 395 480
#
# _framework density 25.475562
#
# number of rings (size 3 to 8) (size 9 to 14) (size 15 to 20)
#    1.091    0.727    0.000    1.636   11.455    1.455 
#    1.636    2.727    0.000    0.000    0.000    0.000 
#    2.727    0.000    0.727    0.000    0.000    0.000 
#
# Total GULP energy -122872.389312 kJ/mol
# GULP energy per Si atom -5585.108605 kJ/mol
# Density = 2.541758 g / cm^3
# Si number density = 25.475562 Si / 1000 Ang^3
#
#
#
# Elastic Constant Matrix: (Units=GPa)
#
#
# Indices 1 2 3 4 5 6 
#
# 1 177.5972 82.8578 63.2172 0.0000 -24.6270 0.0000
# 2 82.8578 134.9419 42.7880 0.0000 -4.5317 0.0000
# 3 63.2172 42.7880 138.7059 0.0000 1.8999 0.0000
# 4 0.0000 0.0000 0.0000 17.0473 0.0000 5.8415
# 5 -24.6270 -4.5317 1.8999 0.0000 68.3837 0.0000
# 6 0.0000 0.0000 0.0000 5.8415 0.0000 39.8469
#
#
#
# Elastic Compliance Matrix: (Units=1/GPa)
#
#
# Indices 1 2 3 4 5 6 
#
# 1 0.009245 -0.004681 -0.002812 0.000000 0.003097 0.000000
# 2 -0.004681 0.010610 -0.001127 0.000000 -0.000951 0.000000
# 3 -0.002812 -0.001127 0.008857 0.000000 -0.001333 0.000000
# 4 0.000000 0.000000 0.000000 0.061763 0.000000 -0.009054
# 5 0.003097 -0.000951 -0.001333 0.000000 0.015713 0.000000
# 6 0.000000 0.000000 0.000000 -0.009054 0.000000 0.026423
#
#
# Mechanical properties :
#
#
# Convention : Reuss Voigt Hill
#
# Bulk Modulus (GPa) = 87.16153 92.10789 89.63471
# Shear Modulus (GPa) = 32.53628 42.54773 37.54200
#
# Velocity S-wave (km/s) = 3.57761 4.09117 3.84298
# Velocity P-wave (km/s) = 7.16615 7.65185 7.41298
#
# Compressibility (1/GPa) = 0.01147295
#
# Stress axis : x y z
#
# Youngs Moduli (GPa) = 108.16491 94.24932 112.90649
#
# Poissons Ratio (x) = 0.44119 0.31749
# Poissons Ratio (y) = 0.50633 0.12719
# Poissons Ratio (z) = 0.30416 0.10617
#
# Static dielectric constant tensor:
#      x y z
#    x 2.033250 0.000000 -0.000870 
#    y 0.000000 1.979410 0.000000 
#    z -0.000870 0.000000 2.379760 
# 
# From -- ./inp_files/10350.got.cif
#   From: 2010.05.17/outbox.cif.g08.bks.cpg/sg15_6_cif.got.tgz:10350.got - 2010.06.03 18:47:42.
