data_PCOD9293645
_publ_section_title
;
Structure prediction by ZEFSAII (Michael W. Deem and Ramdas Pophale) SiO2 
 PCOD9293645
Probable space group: C 2/C
;
_chemical_formula_sum "Si O2"
_cell_formula_units_Z 64
_cell_length_a 15.558340
_cell_length_b 24.885795
_cell_length_c 12.617823
_cell_angle_alpha 90.000000
_cell_angle_beta 36.781698
_cell_angle_gamma 90.000000
_cell_volume 2925.213966
_symmetry_space_group_name_H-M "C 2/C"
_symmetry_group_IT_number 15
_symmetry_cell_setting 'monoclinic'
loop_
_space_group_symop_operation_xyz
x,y,z
-x,y,1/2-z
-x,-y,-z
x,-y,1/2+z
1/2+x,1/2+y,z
1/2-x,1/2+y,1/2-z
1/2-x,1/2-y,-z
1/2+x,1/2-y,1/2+z
loop_
_atom_site_type_symbol
_atom_site_label
_atom_site_fract_x
_atom_site_fract_y
_atom_site_fract_z
Si Si1 0.491612 0.925972 0.095698
Si Si2 0.228320 0.345524 0.862637
Si Si3 0.075447 0.456380 0.573051
Si Si4 0.809941 0.326857 0.359914
Si Si5 0.454671 0.660355 0.530515
Si Si6 0.335283 0.802822 0.953921
Si Si7 0.483579 0.222016 0.512989
Si Si8 0.144668 0.095938 0.671261
O O1 0.392426 0.883431 0.255429
O O2 0.499255 0.986095 0.131545
O O3 0.650978 0.902693 0.944809
O O4 0.446707 0.926660 0.016816
O O5 0.389940 0.352537 0.669098
O O6 0.210034 0.318895 0.996183
O O7 0.130517 0.311399 0.877519
O O8 0.245045 0.453553 0.428177
O O9 0.000000 0.430903 0.750000
O O10 0.658560 0.331008 0.451188
O O11 0.907359 0.282668 0.203295
O O12 0.478117 0.718520 0.560903
O O13 0.401129 0.617306 0.667895
O O14 0.500000 0.803578 0.750000
O O15 0.250000 0.750000 0.000000
O O16 0.365735 0.801385 0.049879
O O17 0.237234 0.854921 0.028318
O O18 0.000000 0.085126 0.750000
#
# Coordination Sequence:
#
# PCOD9293645 Si02
#       8
#     8   8   8   8   8   8   8   8
#     4  10  22  46  71  98 131 163 225 277 341 412
#     4  11  25  39  68  94 130 180 220 279 341 399
#     4  11  23  44  75 100 124 174 221 281 338 407
#     4  11  22  44  64  95 133 174 224 283 332 399
#     4  12  24  40  60  96 138 176 218 279 328 394
#     4  12  25  42  65  92 129 183 223 274 340 398
#     4  11  23  40  63  91 132 174 236 267 322 404
#     4  12  26  43  64  99 142 174 224 281 333 397
#
# _framework density 21.878741999999999
#
# number of rings (size 3 to 8) (size 9 to 14) (size 15 to 20)
#    0.000    0.750    2.500    6.375    5.250    3.000 
#    0.000    3.125    0.000    0.000    0.000    0.000 
#    0.000    0.000    0.000    0.000    0.000    0.000 
#
# Total GULP energy -179024.515375 kJ/mol
# GULP energy per Si atom -5594.516105 kJ/mol
# Density = 2.182894 g / cm^3
# Si number density = 21.878742 Si / 1000 Ang^3
#
#
#
# Elastic Constant Matrix: (Units=GPa)
#
#
# Indices 1 2 3 4 5 6 
#
# 1 128.7846 -2.2115 33.3955 0.0003 -17.0085 -0.0001
# 2 -2.2115 47.0275 4.8129 0.0001 -2.0020 -0.0001
# 3 33.3955 4.8129 122.2566 0.0002 -20.5050 -0.0002
# 4 0.0003 0.0001 0.0002 13.0149 -0.0003 -10.4394
# 5 -17.0085 -2.0020 -20.5050 -0.0003 45.0321 0.0001
# 6 -0.0001 -0.0001 -0.0002 -10.4394 0.0001 18.7113
#
#
#
# Elastic Compliance Matrix: (Units=1/GPa)
#
#
# Indices 1 2 3 4 5 6 
#
# 1 0.008605 0.000709 -0.001979 0.000000 0.002380 0.000000
# 2 0.000709 0.021424 -0.000901 0.000000 0.000810 0.000000
# 3 -0.001979 -0.000901 0.009337 0.000000 0.003464 0.000000
# 4 0.000000 0.000000 0.000000 0.139072 0.000000 0.077591
# 5 0.002380 0.000810 0.003464 0.000000 0.024719 0.000000
# 6 0.000000 0.000000 0.000000 0.077591 0.000000 0.096733
#
#
# Mechanical properties :
#
#
# Convention : Reuss Voigt Hill
#
# Bulk Modulus (GPa) = 28.55357 41.11806 34.83581
# Shear Modulus (GPa) = 15.82745 32.82310 24.32528
#
# Velocity S-wave (km/s) = 2.69256 3.87748 3.33802
# Velocity P-wave (km/s) = 4.76924 6.23545 5.55097
#
# Compressibility (1/GPa) = 0.03502189
#
# Stress axis : x y z
#
# Youngs Moduli (GPa) = 116.21636 46.67628 107.10591
#
# Poissons Ratio (x) = -0.03307 0.21197
# Poissons Ratio (y) = -0.08234 0.09652
# Poissons Ratio (z) = 0.23000 0.04206
#
# Static dielectric constant tensor:
#      x y z
#    x 1.804650 0.000000 0.046940 
#    y 0.000000 1.814490 0.000000 
#    z 0.046940 0.000000 1.838660 
# 
# From -- ./inp_files/101311.got.cif
#   From: 2010.05.17/outbox.cif.g08.bks.cpg/sg15_51_cif.got.tgz:101311.got - 2010.06.03 18:47:42.
