data_PCOD9293290
_publ_section_title
;
Structure prediction by ZEFSAII (Michael W. Deem and Ramdas Pophale) SiO2 
 PCOD9293290
Probable space group: C 2/C
;
_chemical_formula_sum "Si O2"
_cell_formula_units_Z 56
_cell_length_a 11.463310
_cell_length_b 8.044186
_cell_length_c 29.199708
_cell_angle_alpha 90.000000
_cell_angle_beta 59.812745
_cell_angle_gamma 90.000000
_cell_volume 2327.441169
_symmetry_space_group_name_H-M "C 2/C"
_symmetry_group_IT_number 15
_symmetry_cell_setting 'monoclinic'
loop_
_space_group_symop_operation_xyz
x,y,z
-x,y,1/2-z
-x,-y,-z
x,-y,1/2+z
1/2+x,1/2+y,z
1/2-x,1/2+y,1/2-z
1/2-x,1/2-y,-z
1/2+x,1/2-y,1/2+z
loop_
_atom_site_type_symbol
_atom_site_label
_atom_site_fract_x
_atom_site_fract_y
_atom_site_fract_z
Si Si1 0.084001 0.346729 0.587089
Si Si2 0.345126 0.445365 0.023771
Si Si3 0.193836 0.326845 0.889706
Si Si4 0.089203 0.946820 0.588005
Si Si5 0.773451 0.842052 0.213740
Si Si6 0.051319 0.707486 0.192740
Si Si7 0.322043 0.289208 0.677474
O O1 0.231076 0.410981 0.544952
O O2 0.065787 0.398216 0.643838
O O3 0.954484 0.410686 0.584551
O O4 0.066245 0.145784 0.586978
O O5 0.315015 0.327708 0.072905
O O6 0.500000 0.500000 0.000000
O O7 0.348665 0.378836 0.971241
O O8 0.307960 0.433645 0.890770
O O9 0.231508 0.271626 0.830587
O O10 0.959639 0.833217 0.624917
O O11 0.670845 0.799311 0.274774
O O12 0.924479 0.825794 0.205530
O O13 0.763789 0.028465 0.199643
O O14 0.198401 0.787198 0.173047
O O15 0.000000 0.627604 0.250000
#
# Coordination Sequence:
#
# PCOD9293290 Si02
#       7
#     8   8   8   8   8   8   8
#     4  11  23  46  69  97 138 179 221 280 340 395
#     4  12  24  47  75  94 139 183 221 282 341 400
#     4  11  25  46  67 102 138 171 232 277 335 407
#     4  12  25  45  69 102 136 179 229 277 339 402
#     4  10  22  45  68  98 135 179 224 281 338 400
#     4   9  19  38  69  90 129 176 218 268 338 393
#     4  11  22  46  68  99 139 177 227 279 337 403
#
# _framework density 24.060758
#
# number of rings (size 3 to 8) (size 9 to 14) (size 15 to 20)
#    0.000    1.143    4.286    2.571    0.000    3.429 
#   20.571    0.000    0.000    0.000    0.000    0.000 
#    0.000    0.000    0.000    0.000    0.000    0.000 
#
# Total GULP energy -156387.353982 kJ/mol
# GULP energy per Si atom -5585.262642 kJ/mol
# Density = 2.400599 g / cm^3
# Si number density = 24.060758 Si / 1000 Ang^3
#
#
#
# Elastic Constant Matrix: (Units=GPa)
#
#
# Indices 1 2 3 4 5 6 
#
# 1 139.3029 34.9746 48.2637 0.0000 14.5692 0.0000
# 2 34.9746 31.6511 48.2333 0.0000 -6.4379 0.0000
# 3 48.2637 48.2333 147.9461 0.0000 5.5914 0.0000
# 4 0.0000 0.0000 0.0000 21.1166 0.0000 -16.3466
# 5 14.5692 -6.4379 5.5914 0.0000 43.1724 0.0000
# 6 0.0000 0.0000 0.0000 -16.3466 0.0000 12.6800
#
#
#
# Elastic Compliance Matrix: (Units=1/GPa)
#
#
# Indices 1 2 3 4 5 6 
#
# 1 0.011499 -0.017396 0.002176 0.000000 -0.006756 -0.000001
# 2 -0.017396 0.096064 -0.026537 0.000004 0.023633 0.000005
# 3 0.002176 -0.026537 0.014952 -0.000001 -0.006628 -0.000001
# 4 0.000000 0.000004 -0.000001 23.234950 0.000001 29.953805
# 5 -0.006756 0.023633 -0.006628 0.000001 0.029826 0.000001
# 6 -0.000001 0.000005 -0.000001 29.953805 0.000001 38.694418
#
#
# Mechanical properties :
#
#
# Convention : Reuss Voigt Hill
#
# Bulk Modulus (GPa) = 25.64125 64.64925 45.14525
# Shear Modulus (GPa) = 0.08041 27.88903 13.98472
#
# Velocity S-wave (km/s) = 0.18301 3.40826 2.41348
# Velocity P-wave (km/s) = 3.27485 6.51274 5.15463
#
# Compressibility (1/GPa) = 0.03899966
#
# Stress axis : x y z
#
# Youngs Moduli (GPa) = 86.96315 10.40973 66.88291
#
# Poissons Ratio (x) = 0.18109 -0.14551
# Poissons Ratio (y) = 1.51283 1.77486
# Poissons Ratio (z) = -0.18919 0.27624
#
# Static dielectric constant tensor:
#      x y z
#    x 1.973890 0.000000 -0.008970 
#    y 0.000000 1.967060 0.000000 
#    z -0.008970 0.000000 1.967380 
# 
# From -- ./inp_files/310220.got.cif
#   From: 2010.05.17/outbox.cif.g08.bks.cpg/sg15_156_cif.got.tgz:310220.got - 2010.06.03 18:47:42.
