data_PCOD9293858
_publ_section_title
;
Structure prediction by ZEFSAII (Michael W. Deem and Ramdas Pophale) SiO2 
 PCOD9293858
Probable space group: C 2/C
;
_chemical_formula_sum "Si O2"
_cell_formula_units_Z 60
_cell_length_a 14.343390
_cell_length_b 21.128191
_cell_length_c 13.588293
_cell_angle_alpha 90.000000
_cell_angle_beta 149.486016
_cell_angle_gamma 90.000000
_cell_volume 2090.873679
_symmetry_space_group_name_H-M "C 2/C"
_symmetry_group_IT_number 15
_symmetry_cell_setting 'monoclinic'
loop_
_space_group_symop_operation_xyz
x,y,z
-x,y,1/2-z
-x,-y,-z
x,-y,1/2+z
1/2+x,1/2+y,z
1/2-x,1/2+y,1/2-z
1/2-x,1/2-y,-z
1/2+x,1/2-y,1/2+z
loop_
_atom_site_type_symbol
_atom_site_label
_atom_site_fract_x
_atom_site_fract_y
_atom_site_fract_z
Si Si1 0.675556 0.026243 0.220009
Si Si2 0.589272 0.188106 0.019584
Si Si3 0.494311 0.674380 0.109491
Si Si4 0.641742 0.488531 0.302766
Si Si5 0.435400 0.215562 0.085224
Si Si6 0.000000 0.559822 0.250000
Si Si7 0.835532 0.597544 0.677473
Si Si8 0.559203 0.653415 0.669132
O O1 0.817314 0.030100 0.257607
O O2 0.734755 0.966704 0.339412
O O3 0.614937 0.077010 0.249453
O O4 0.500000 0.000000 0.000000
O O5 0.541589 0.250577 0.914723
O O6 0.573258 0.206882 0.119346
O O7 0.791690 0.165530 0.181607
O O8 0.438931 0.136348 0.857314
O O9 0.332267 0.638016 0.016043
O O10 0.456267 0.656425 0.961484
O O11 0.500000 0.518502 0.250000
O O12 0.829378 0.471807 0.533354
O O13 0.554606 0.420053 0.194123
O O14 0.500000 0.190476 0.250000
O O15 0.416778 0.292267 0.076592
O O16 0.252553 0.180480 0.884788
O O17 0.000000 0.587957 0.750000
#
# Coordination Sequence:
#
# PCOD9293858 Si02
#       8
#     8   8   8   8   8   4   8   8
#     4  10  22  48  76 101 133 176 229 285 353 411
#     4  11  22  41  65  94 140 185 223 278 330 399
#     4  11  21  42  63  96 139 181 228 274 331 399
#     4  11  24  43  70 106 140 169 227 288 342 415
#     4  11  21  35  58  88 134 193 227 265 323 392
#     4  10  24  48  76  98 130 180 220 288 362 410
#     4  12  24  45  73  98 135 181 225 281 337 404
#     4  11  21  39  58  96 142 181 232 270 328 402
#
# _framework density 28.696138000000001
#
# number of rings (size 3 to 8) (size 9 to 14) (size 15 to 20)
#    0.000    1.067    4.667    3.200    0.933    2.667 
#    4.800    2.667    0.000    0.000    0.000    0.000 
#    0.000    0.000    0.000    0.000    0.000    0.000 
#
# Total GULP energy -168029.773849 kJ/mol
# GULP energy per Si atom -5600.992462 kJ/mol
# Density = 2.863082 g / cm^3
# Si number density = 28.696138 Si / 1000 Ang^3
#
#
#
# Elastic Constant Matrix: (Units=GPa)
#
#
# Indices 1 2 3 4 5 6 
#
# 1 244.9001 25.9838 37.3916 0.0000 -4.2379 0.0000
# 2 25.9838 147.4502 13.2896 0.0000 2.0994 0.0000
# 3 37.3916 13.2896 125.4609 0.0000 12.7791 0.0000
# 4 0.0000 0.0000 0.0000 29.7188 0.0000 -1.1860
# 5 -4.2379 2.0994 12.7791 0.0000 61.3964 0.0000
# 6 0.0000 0.0000 0.0000 -1.1860 0.0000 21.1928
#
#
#
# Elastic Compliance Matrix: (Units=1/GPa)
#
#
# Indices 1 2 3 4 5 6 
#
# 1 0.004361 -0.000661 -0.001290 0.000000 0.000592 0.000000
# 2 -0.000661 0.006948 -0.000521 0.000000 -0.000175 0.000000
# 3 -0.001290 -0.000521 0.008600 0.000000 -0.001861 0.000000
# 4 0.000000 0.000000 0.000000 0.033724 0.000000 0.001887
# 5 0.000592 -0.000175 -0.001861 0.000000 0.016722 0.000000
# 6 0.000000 0.000000 0.000000 0.001887 0.000000 0.047291
#
#
# Mechanical properties :
#
#
# Convention : Reuss Voigt Hill
#
# Bulk Modulus (GPa) = 66.82425 74.57127 70.69776
# Shear Modulus (GPa) = 39.19189 51.87135 45.53162
#
# Velocity S-wave (km/s) = 3.69962 4.25621 3.98764
# Velocity P-wave (km/s) = 6.44880 7.08496 6.77435
#
# Compressibility (1/GPa) = 0.01496463
#
# Stress axis : x y z
#
# Youngs Moduli (GPa) = 229.32728 143.92976 116.28114
#
# Poissons Ratio (x) = 0.09508 0.14999
# Poissons Ratio (y) = 0.15149 0.06062
# Poissons Ratio (z) = 0.29582 0.07503
#
# Static dielectric constant tensor:
#      x y z
#    x 2.274720 0.000000 0.021370 
#    y 0.000000 2.310660 0.000000 
#    z 0.021370 0.000000 2.227130 
# 
# From -- ./inp_files/157342.got.cif
#   From: 2010.05.17/outbox.cif.g08.bks.cpg/sg15_79_cif.got.tgz:157342.got - 2010.06.03 18:47:42.
