data_PCOD9293907
_publ_section_title
;
Structure prediction by ZEFSAII (Michael W. Deem and Ramdas Pophale) SiO2 
 PCOD9293907
Probable space group: C 2/C
;
_chemical_formula_sum "Si O2"
_cell_formula_units_Z 56
_cell_length_a 19.561197
_cell_length_b 8.889240
_cell_length_c 18.328373
_cell_angle_alpha 90.000000
_cell_angle_beta 60.752763
_cell_angle_gamma 90.000000
_cell_volume 2780.732095
_symmetry_space_group_name_H-M "C 2/C"
_symmetry_group_IT_number 15
_symmetry_cell_setting 'monoclinic'
loop_
_space_group_symop_operation_xyz
x,y,z
-x,y,1/2-z
-x,-y,-z
x,-y,1/2+z
1/2+x,1/2+y,z
1/2-x,1/2+y,1/2-z
1/2-x,1/2-y,-z
1/2+x,1/2-y,1/2+z
loop_
_atom_site_type_symbol
_atom_site_label
_atom_site_fract_x
_atom_site_fract_y
_atom_site_fract_z
Si Si1 0.590269 0.348036 0.680525
Si Si2 0.433942 0.501556 0.448589
Si Si3 0.688864 0.112428 0.551451
Si Si4 0.487755 0.245410 0.511628
Si Si5 0.230026 0.831428 0.722845
Si Si6 0.714298 0.486908 0.369831
Si Si7 0.369074 0.013970 0.071414
O O1 0.500000 0.346454 0.750000
O O2 0.599460 0.478320 0.614639
O O3 0.614417 0.197470 0.624154
O O4 0.652364 0.358603 0.714094
O O5 0.472179 0.342829 0.447216
O O6 0.495691 0.634391 0.433211
O O7 0.367731 0.526236 0.544869
O O8 0.750000 0.250000 0.500000
O O9 0.724648 0.008630 0.595370
O O10 0.666959 0.023507 0.490733
O O11 0.563489 0.141343 0.462283
O O12 0.413885 0.139452 0.564630
O O13 0.263026 0.665773 0.685693
O O14 0.299063 0.942997 0.660962
O O15 0.215077 0.874539 0.814155
#
# Coordination Sequence:
#
# PCOD9293907 Si02
#       7
#     8   8   8   8   8   8   8
#     4  11  23  38  65  93 122 162 216 259 312 386
#     4  11  21  43  63  92 123 173 205 256 325 386
#     4  11  18  43  67  88 124 177 207 255 322 387
#     4  10  23  34  69  91 123 162 212 259 314 383
#     4  11  24  40  61  93 128 164 208 268 313 369
#     4  11  23  40  66  90 128 170 211 260 314 381
#     4  11  20  42  64  93 125 164 213 263 314 381
#
# _framework density 20.138580999999999
#
# number of rings (size 3 to 8) (size 9 to 14) (size 15 to 20)
#    0.000    1.143    7.143    0.000    6.000    1.143 
#    2.571    1.429    0.000    0.000    0.000    0.000 
#    0.000    0.000    0.000    0.000    0.000    0.000 
#
# Total GULP energy -156398.964913 kJ/mol
# GULP energy per Si atom -5585.677318 kJ/mol
# Density = 2.009274 g / cm^3
# Si number density = 20.138581 Si / 1000 Ang^3
#
#
#
# Elastic Constant Matrix: (Units=GPa)
#
#
# Indices 1 2 3 4 5 6 
#
# 1 77.9826 21.2105 34.0031 0.0000 -10.7477 0.0000
# 2 21.2105 55.2713 17.3309 0.0000 -6.6810 0.0001
# 3 34.0031 17.3309 102.4982 0.0000 -9.6645 0.0000
# 4 0.0000 0.0000 0.0000 23.7907 0.0000 -7.4803
# 5 -10.7477 -6.6810 -9.6645 0.0000 34.9075 0.0000
# 6 0.0000 0.0001 0.0000 -7.4803 0.0000 17.2287
#
#
#
# Elastic Compliance Matrix: (Units=1/GPa)
#
#
# Indices 1 2 3 4 5 6 
#
# 1 0.016382 -0.004554 -0.004386 0.000000 0.002958 0.000000
# 2 -0.004554 0.020649 -0.001787 0.000000 0.002055 0.000000
# 3 -0.004386 -0.001787 0.011658 0.000000 0.001535 0.000000
# 4 0.000000 0.000000 0.000000 0.048679 0.000000 0.021135
# 5 0.002958 0.002055 0.001535 0.000000 0.030376 0.000000
# 6 0.000000 0.000000 0.000000 0.021135 0.000000 0.067219
#
#
# Mechanical properties :
#
#
# Convention : Reuss Voigt Hill
#
# Bulk Modulus (GPa) = 36.71618 42.31569 39.51594
# Shear Modulus (GPa) = 22.17350 26.06588 24.11969
#
# Velocity S-wave (km/s) = 3.32180 3.60158 3.46451
# Velocity P-wave (km/s) = 5.74315 6.19298 5.97230
#
# Compressibility (1/GPa) = 0.02723595
#
# Stress axis : x y z
#
# Youngs Moduli (GPa) = 61.04259 48.42878 85.77721
#
# Poissons Ratio (x) = 0.22054 0.37619
# Poissons Ratio (y) = 0.27798 0.15328
# Poissons Ratio (z) = 0.26772 0.08654
#
# Static dielectric constant tensor:
#      x y z
#    x 1.749020 0.000000 -0.012450 
#    y 0.000000 1.722750 0.000000 
#    z -0.012450 0.000000 1.722170 
# 
# From -- ./inp_files/213802.got.cif
#   From: 2010.05.17/outbox.cif.g08.bks.cpg/sg15_107_cif.got.tgz:213802.got - 2010.06.03 18:47:42.
