data_PCOD9293565
_publ_section_title
;
Structure prediction by ZEFSAII (Michael W. Deem and Ramdas Pophale) SiO2 
 PCOD9293565
Probable space group: C 2/C
;
_chemical_formula_sum "Si O2"
_cell_formula_units_Z 56
_cell_length_a 17.112113
_cell_length_b 8.800973
_cell_length_c 15.754153
_cell_angle_alpha 90.000000
_cell_angle_beta 101.779069
_cell_angle_gamma 90.000000
_cell_volume 2322.663854
_symmetry_space_group_name_H-M "C 2/C"
_symmetry_group_IT_number 15
_symmetry_cell_setting 'monoclinic'
loop_
_space_group_symop_operation_xyz
x,y,z
-x,y,1/2-z
-x,-y,-z
x,-y,1/2+z
1/2+x,1/2+y,z
1/2-x,1/2+y,1/2-z
1/2-x,1/2-y,-z
1/2+x,1/2-y,1/2+z
loop_
_atom_site_type_symbol
_atom_site_label
_atom_site_fract_x
_atom_site_fract_y
_atom_site_fract_z
Si Si1 0.381778 0.602609 0.523135
Si Si2 0.241889 0.591129 0.046373
Si Si3 0.316301 0.967541 0.220467
Si Si4 0.603441 0.956320 0.937414
Si Si5 0.452877 0.845722 0.830116
Si Si6 0.037366 0.001485 0.629125
Si Si7 0.328060 0.377336 0.746174
O O1 0.294403 0.532984 0.507933
O O2 0.379645 0.776092 0.553003
O O3 0.442143 0.503633 0.595694
O O4 0.423389 0.587783 0.440926
O O5 0.284641 0.598275 0.146656
O O6 0.250000 0.750000 0.000000
O O7 0.149606 0.539149 0.023719
O O8 0.322640 0.801270 0.261394
O O9 0.355374 0.970227 0.136299
O O10 0.369450 0.083862 0.285839
O O11 0.226191 0.025346 0.201613
O O12 0.508824 0.956851 0.898617
O O13 0.500000 0.822654 0.750000
O O14 0.443047 0.681469 0.870149
O O15 0.081938 0.934334 0.720614
#
# Coordination Sequence:
#
# PCOD9293565 Si02
#       7
#     8   8   8   8   8   8   8
#     4  10  24  44  71  95 133 174 215 277 329 402
#     4  12  26  42  62  97 133 177 217 275 325 385
#     4  11  24  43  64  98 127 175 220 275 328 389
#     4  10  22  46  68  94 131 174 218 262 340 394
#     4   9  21  41  71  92 131 171 214 273 329 389
#     4  10  23  44  68 102 127 169 226 269 330 393
#     4  12  27  40  68  94 135 173 225 275 325 395
#
# _framework density 24.110249
#
# number of rings (size 3 to 8) (size 9 to 14) (size 15 to 20)
#    0.000    1.429    1.429    2.143   12.000    1.143 
#    2.571    0.714    0.000    0.000    0.000    0.000 
#    0.000    0.000    0.000    0.000    0.000    0.000 
#
# Total GULP energy -156676.740710 kJ/mol
# GULP energy per Si atom -5595.597882 kJ/mol
# Density = 2.405537 g / cm^3
# Si number density = 24.110249 Si / 1000 Ang^3
#
#
#
# Elastic Constant Matrix: (Units=GPa)
#
#
# Indices 1 2 3 4 5 6 
#
# 1 93.2558 17.5783 13.7278 0.0000 25.3876 0.0000
# 2 17.5783 59.0584 -9.4713 0.0000 10.7871 0.0000
# 3 13.7278 -9.4713 106.2328 0.0000 20.7206 0.0000
# 4 0.0000 0.0000 0.0000 28.1029 0.0000 12.9519
# 5 25.3876 10.7871 20.7206 0.0000 42.2525 0.0000
# 6 0.0000 0.0000 0.0000 12.9519 0.0000 30.0107
#
#
#
# Elastic Compliance Matrix: (Units=1/GPa)
#
#
# Indices 1 2 3 4 5 6 
#
# 1 0.013223 -0.002764 -0.000600 0.000000 -0.006945 0.000000
# 2 -0.002764 0.019084 0.002969 0.000000 -0.004668 0.000000
# 3 -0.000600 0.002969 0.010873 0.000000 -0.005729 0.000000
# 4 0.000000 0.000000 0.000000 0.044418 0.000000 -0.019170
# 5 -0.006945 -0.004668 -0.005729 0.000000 0.031842 0.000000
# 6 0.000000 0.000000 0.000000 -0.019170 0.000000 0.041595
#
#
# Mechanical properties :
#
#
# Convention : Reuss Voigt Hill
#
# Bulk Modulus (GPa) = 23.59065 33.57962 28.58513
# Shear Modulus (GPa) = 28.41642 35.85406 32.13524
#
# Velocity S-wave (km/s) = 3.43680 3.86046 3.65478
# Velocity P-wave (km/s) = 5.05515 5.81624 5.44900
#
# Compressibility (1/GPa) = 0.04238968
#
# Stress axis : x y z
#
# Youngs Moduli (GPa) = 75.62439 52.40104 91.97031
#
# Poissons Ratio (x) = 0.14481 0.05523
# Poissons Ratio (y) = 0.20899 -0.27305
# Poissons Ratio (z) = 0.04541 -0.15557
#
# Static dielectric constant tensor:
#      x y z
#    x 1.864220 0.000000 -0.012570 
#    y 0.000000 1.819690 0.000000 
#    z -0.012570 0.000000 2.009070 
# 
# From -- ./inp_files/209645.got.cif
#   From: 2010.05.17/outbox.cif.g08.bks.cpg/sg15_105_cif.got.tgz:209645.got - 2010.06.03 18:47:42.
