data_PCOD9293769
_publ_section_title
;
Structure prediction by ZEFSAII (Michael W. Deem and Ramdas Pophale) SiO2 
 PCOD9293769
Probable space group: C 2/C
;
_chemical_formula_sum "Si O2"
_cell_formula_units_Z 56
_cell_length_a 8.070157
_cell_length_b 15.475723
_cell_length_c 22.881582
_cell_angle_alpha 90.000000
_cell_angle_beta 132.763919
_cell_angle_gamma 90.000000
_cell_volume 2098.013456
_symmetry_space_group_name_H-M "C 2/C"
_symmetry_group_IT_number 15
_symmetry_cell_setting 'monoclinic'
loop_
_space_group_symop_operation_xyz
x,y,z
-x,y,1/2-z
-x,-y,-z
x,-y,1/2+z
1/2+x,1/2+y,z
1/2-x,1/2+y,1/2-z
1/2-x,1/2-y,-z
1/2+x,1/2-y,1/2+z
loop_
_atom_site_type_symbol
_atom_site_label
_atom_site_fract_x
_atom_site_fract_y
_atom_site_fract_z
Si Si1 0.416305 0.197596 0.580467
Si Si2 0.316166 0.043770 0.868157
Si Si3 0.612730 0.882199 0.945888
Si Si4 0.086863 0.930493 0.068314
Si Si5 0.672014 0.488762 0.708558
Si Si6 0.083396 0.305136 0.710402
Si Si7 0.163689 0.796095 0.833350
O O1 0.250000 0.250000 0.500000
O O2 0.612586 0.140850 0.598730
O O3 0.259286 0.131456 0.578028
O O4 0.483905 0.260482 0.649546
O O5 0.268475 0.040422 0.787275
O O6 0.099968 0.000596 0.847460
O O7 0.528120 0.980861 0.929372
O O8 0.613447 0.844828 0.879486
O O9 0.387269 0.835577 0.915783
O O10 0.860219 0.877061 0.030780
O O11 0.204103 0.973063 0.152047
O O12 0.000000 0.000000 0.000000
O O13 0.789711 0.394723 0.739761
O O14 0.215587 0.246707 0.692658
O O15 0.000000 0.262370 0.750000
O O16 0.000000 0.850888 0.750000
#
# Coordination Sequence:
#
# PCOD9293769 Si02
#       7
#     8   8   8   8   8   8   8
#     4  12  30  49  70 104 157 199 242 301 381 440
#     4  10  22  47  70 108 140 194 242 306 357 437
#     4   9  21  41  72 103 139 178 249 289 362 419
#     4  12  25  45  73 110 140 195 246 312 359 430
#     4  10  23  40  78 107 142 176 259 305 361 430
#     4   9  19  39  71 111 141 181 238 313 357 439
#     4  10  24  46  71 104 145 197 235 298 377 446
#
# _framework density 26.691917
#
# number of rings (size 3 to 8) (size 9 to 14) (size 15 to 20)
#    0.857    0.857    1.429    1.714    6.000    4.571 
#    0.000    0.000    0.000    0.000    0.000    0.000 
#    0.000    0.000    0.000    0.000    0.000    0.000 
#
# Total GULP energy -156151.829852 kJ/mol
# GULP energy per Si atom -5576.851066 kJ/mol
# Density = 2.663117 g / cm^3
# Si number density = 26.691917 Si / 1000 Ang^3
#
#
#
# Elastic Constant Matrix: (Units=GPa)
#
#
# Indices 1 2 3 4 5 6 
#
# 1 99.7788 -3.4346 -2.4076 0.0000 -7.2165 0.0000
# 2 -3.4346 37.2136 15.3103 0.0000 -7.5892 0.0000
# 3 -2.4076 15.3103 80.5329 0.0000 -2.2279 0.0000
# 4 0.0000 0.0000 0.0000 40.3475 0.0000 8.5486
# 5 -7.2165 -7.5892 -2.2279 0.0000 56.6756 0.0000
# 6 0.0000 0.0000 0.0000 8.5486 0.0000 26.7115
#
#
#
# Elastic Compliance Matrix: (Units=1/GPa)
#
#
# Indices 1 2 3 4 5 6 
#
# 1 0.010171 0.001187 0.000119 0.000000 0.001459 0.000000
# 2 0.001187 0.030082 -0.005574 0.000000 0.003960 0.000000
# 3 0.000119 -0.005574 0.013475 0.000000 -0.000202 0.000000
# 4 0.000000 0.000000 0.000000 0.026587 0.000000 -0.008509
# 5 0.001459 0.003960 -0.000202 0.000000 0.018352 0.000000
# 6 0.000000 0.000000 0.000000 -0.008509 0.000000 0.040160
#
#
# Mechanical properties :
#
#
# Convention : Reuss Voigt Hill
#
# Bulk Modulus (GPa) = 22.12732 26.27350 24.20041
# Shear Modulus (GPa) = 30.78273 38.61742 34.70008
#
# Velocity S-wave (km/s) = 3.39965 3.80779 3.60949
# Velocity P-wave (km/s) = 4.87012 5.40342 5.14369
#
# Compressibility (1/GPa) = 0.04519300
#
# Stress axis : x y z
#
# Youngs Moduli (GPa) = 98.31477 33.24213 74.21184
#
# Poissons Ratio (x) = -0.03947 -0.00881
# Poissons Ratio (y) = -0.11674 0.41365
# Poissons Ratio (z) = -0.01167 0.18529
#
# Static dielectric constant tensor:
#      x y z
#    x 2.227730 0.000000 0.064160 
#    y 0.000000 2.436630 0.000000 
#    z 0.064160 0.000000 2.089850 
# 
# From -- ./inp_files/289756.got.cif
#   From: 2010.05.17/outbox.cif.g08.bks.cpg/sg15_145_cif.got.tgz:289756.got - 2010.06.03 18:47:42.
