data_PCOD9293420
_publ_section_title
;
Structure prediction by ZEFSAII (Michael W. Deem and Ramdas Pophale) SiO2 
 PCOD9293420
Probable space group: C 2/C
;
_chemical_formula_sum "Si O2"
_cell_formula_units_Z 48
_cell_length_a 11.637879
_cell_length_b 11.090207
_cell_length_c 22.948441
_cell_angle_alpha 90.000000
_cell_angle_beta 43.763798
_cell_angle_gamma 90.000000
_cell_volume 2048.690189
_symmetry_space_group_name_H-M "C 2/C"
_symmetry_group_IT_number 15
_symmetry_cell_setting 'monoclinic'
loop_
_space_group_symop_operation_xyz
x,y,z
-x,y,1/2-z
-x,-y,-z
x,-y,1/2+z
1/2+x,1/2+y,z
1/2-x,1/2+y,1/2-z
1/2-x,1/2-y,-z
1/2+x,1/2-y,1/2+z
loop_
_atom_site_type_symbol
_atom_site_label
_atom_site_fract_x
_atom_site_fract_y
_atom_site_fract_z
Si Si1 0.307017 0.268492 0.412415
Si Si2 0.398524 0.566976 0.685745
Si Si3 0.687159 0.981111 0.655078
Si Si4 0.604985 0.359132 0.654100
Si Si5 0.860307 0.644709 0.930150
Si Si6 0.658539 0.970445 0.385237
O O1 0.250000 0.250000 0.500000
O O2 0.500513 0.309058 0.345404
O O3 0.206516 0.374742 0.417219
O O4 0.287674 0.155239 0.376217
O O5 0.298960 0.539127 0.664175
O O6 0.540394 0.463611 0.635483
O O7 0.277919 0.552154 0.785522
O O8 0.500000 0.989247 0.750000
O O9 0.728040 0.054855 0.581298
O O10 0.500000 0.373614 0.750000
O O11 0.547156 0.232658 0.649129
O O12 0.790485 0.397778 0.607482
O O13 0.977762 0.564670 0.927664
O O14 0.750000 0.750000 0.000000
#
# Coordination Sequence:
#
# PCOD9293420 Si02
#       6
#     8   8   8   8   8   8
#     4  11  26  43  73 103 138 180 231 300 361 413
#     4  10  22  45  73  95 131 181 237 289 341 417
#     4  12  25  45  69 103 137 184 240 283 351 433
#     4   9  21  42  68  91 125 180 227 279 344 414
#     4  12  27  40  64 101 143 177 222 291 353 414
#     4  10  22  46  67  95 133 181 236 278 347 427
#
# _framework density 23.429603
#
# number of rings (size 3 to 8) (size 9 to 14) (size 15 to 20)
#    0.000    1.333    1.667    4.000    7.000    2.667 
#    0.000    0.000    0.000    0.000    0.000    0.000 
#    0.000    0.000    0.000    0.000    0.000    0.000 
#
# Total GULP energy -133924.144294 kJ/mol
# GULP energy per Si atom -5580.172679 kJ/mol
# Density = 2.337628 g / cm^3
# Si number density = 23.429603 Si / 1000 Ang^3
#
#
#
# Elastic Constant Matrix: (Units=GPa)
#
#
# Indices 1 2 3 4 5 6 
#
# 1 114.8988 -12.2664 32.5108 0.0000 22.1478 0.0000
# 2 -12.2664 45.8776 -2.0402 0.0000 1.0219 0.0000
# 3 32.5108 -2.0402 79.3690 0.0000 15.5244 0.0000
# 4 0.0000 0.0000 0.0000 34.0967 0.0000 3.5410
# 5 22.1478 1.0219 15.5244 0.0000 27.3608 0.0000
# 6 0.0000 0.0000 0.0000 3.5410 0.0000 58.5793
#
#
#
# Elastic Compliance Matrix: (Units=1/GPa)
#
#
# Indices 1 2 3 4 5 6 
#
# 1 0.011364 0.003069 -0.003098 0.000000 -0.007556 0.000000
# 2 0.003069 0.022690 -0.000025 0.000000 -0.003318 0.000000
# 3 -0.003098 -0.000025 0.015047 0.000000 -0.006029 0.000000
# 4 0.000000 0.000000 0.000000 0.029514 0.000000 -0.001784
# 5 -0.007556 -0.003318 -0.006029 0.000000 0.046209 0.000000
# 6 0.000000 0.000000 0.000000 -0.001784 0.000000 0.017179
#
#
# Mechanical properties :
#
#
# Convention : Reuss Voigt Hill
#
# Bulk Modulus (GPa) = 20.41096 30.72820 25.56958
# Shear Modulus (GPa) = 31.55720 38.80343 35.18032
#
# Velocity S-wave (km/s) = 3.67399 4.07402 3.87917
# Velocity P-wave (km/s) = 5.16992 5.93918 5.56785
#
# Compressibility (1/GPa) = 0.04899329
#
# Stress axis : x y z
#
# Youngs Moduli (GPa) = 87.99744 44.07133 66.45837
#
# Poissons Ratio (x) = -0.13525 0.20590
# Poissons Ratio (y) = -0.27006 0.00166
# Poissons Ratio (z) = 0.27263 0.00110
#
# Static dielectric constant tensor:
#      x y z
#    x 2.045490 0.000000 -0.044010 
#    y 0.000000 2.964820 0.000000 
#    z -0.044010 0.000000 2.080030 
# 
# From -- ./inp_files/237429.got.cif
#   From: 2010.05.17/outbox.cif.g08.bks.cpg/sg15_119_cif.got.tgz:237429.got - 2010.06.03 18:47:42.
