data_PCOD9293090
_publ_section_title
;
Structure prediction by ZEFSAII (Michael W. Deem and Ramdas Pophale) SiO2 
 PCOD9293090
Probable space group: C 2/C
;
_chemical_formula_sum "Si O2"
_cell_formula_units_Z 56
_cell_length_a 19.588183
_cell_length_b 8.791820
_cell_length_c 27.082872
_cell_angle_alpha 90.000000
_cell_angle_beta 31.873507
_cell_angle_gamma 90.000000
_cell_volume 2462.856944
_symmetry_space_group_name_H-M "C 2/C"
_symmetry_group_IT_number 15
_symmetry_cell_setting 'monoclinic'
loop_
_space_group_symop_operation_xyz
x,y,z
-x,y,1/2-z
-x,-y,-z
x,-y,1/2+z
1/2+x,1/2+y,z
1/2-x,1/2+y,1/2-z
1/2-x,1/2-y,-z
1/2+x,1/2-y,1/2+z
loop_
_atom_site_type_symbol
_atom_site_label
_atom_site_fract_x
_atom_site_fract_y
_atom_site_fract_z
Si Si1 0.675611 0.557876 0.847811
Si Si2 0.840783 0.992290 0.797493
Si Si3 0.670408 0.984152 0.590782
Si Si4 0.391517 0.967413 0.483658
Si Si5 0.836284 0.603840 0.181113
Si Si6 0.590512 0.389923 0.510788
Si Si7 0.000000 0.240448 0.750000
Si Si8 0.000000 0.266188 0.250000
O O1 0.801388 0.459779 0.756628
O O2 0.676822 0.717460 0.818532
O O3 0.661021 0.596956 0.914300
O O4 0.551109 0.458546 0.909415
O O5 0.769472 0.973732 0.789609
O O6 0.922578 0.841918 0.760112
O O7 0.727302 0.002599 0.907696
O O8 0.934915 0.133506 0.748608
O O9 0.640034 0.978159 0.551908
O O10 0.822234 0.010763 0.506133
O O11 0.598442 0.130344 0.658762
O O12 0.609768 0.843379 0.657414
O O13 0.413658 0.785443 0.470746
O O14 0.521701 0.050103 0.421011
#
# Coordination Sequence:
#
# PCOD9293090 Si02
#       8
#     8   8   8   8   8   8   4   4
#     4  11  27  45  74 103 138 186 235 287 355 416
#     4  11  25  46  69 101 145 182 232 293 347 414
#     4  11  25  44  72 101 141 182 235 289 350 418
#     4  12  26  43  72 104 140 186 236 283 355 413
#     4  12  27  46  70 102 141 185 233 290 353 418
#     4  11  25  48  72 104 140 180 235 295 345 416
#     4  10  28  44  70 104 140 188 232 294 350 416
#     4  10  22  44  72  98 136 184 242 274 350 416
#
# _framework density 22.737821
#
# number of rings (size 3 to 8) (size 9 to 14) (size 15 to 20)
#    0.000    0.857    2.857    1.714   12.000    2.857 
#    0.000    0.000    0.000    0.000    0.000    0.000 
#    0.000    0.000    0.000    0.000    0.000    0.000 
#
# Total GULP energy -156962.301033 kJ/mol
# GULP energy per Si atom -5605.796465 kJ/mol
# Density = 2.268607 g / cm^3
# Si number density = 22.737821 Si / 1000 Ang^3
#
#
#
# Elastic Constant Matrix: (Units=GPa)
#
#
# Indices 1 2 3 4 5 6 
#
# 1 36.4732 -1.6839 -14.0820 0.0001 -12.7030 -0.0003
# 2 -1.6839 90.3718 14.0257 0.0007 0.0702 -0.0017
# 3 -14.0820 14.0257 50.3350 0.0000 -4.6562 -0.0015
# 4 0.0001 0.0007 0.0000 31.2919 -0.0004 -3.2701
# 5 -12.7030 0.0702 -4.6562 -0.0004 37.9781 0.0006
# 6 -0.0003 -0.0017 -0.0015 -3.2701 0.0006 14.3468
#
#
#
# Elastic Compliance Matrix: (Units=1/GPa)
#
#
# Indices 1 2 3 4 5 6 
#
# 1 0.036735 -0.001169 0.011875 0.000000 0.013745 0.000001
# 2 -0.001169 0.011609 -0.003641 0.000000 -0.000859 0.000001
# 3 0.011875 -0.003641 0.024854 0.000000 0.007026 0.000002
# 4 0.000000 0.000000 0.000000 0.032737 0.000000 0.007462
# 5 0.013745 -0.000859 0.007026 0.000000 0.031792 0.000000
# 6 0.000001 0.000001 0.000002 0.007462 0.000000 0.071403
#
#
# Mechanical properties :
#
#
# Convention : Reuss Voigt Hill
#
# Bulk Modulus (GPa) = 11.45128 19.29995 15.37562
# Shear Modulus (GPa) = 22.31043 28.65138 25.48091
#
# Velocity S-wave (km/s) = 3.13582 3.55361 3.35123
# Velocity P-wave (km/s) = 4.26125 5.03428 4.66381
#
# Compressibility (1/GPa) = 0.08732646
#
# Stress axis : x y z
#
# Youngs Moduli (GPa) = 27.22168 86.13679 40.23561
#
# Poissons Ratio (x) = 0.10070 -0.47778
# Poissons Ratio (y) = 0.03183 0.14652
# Poissons Ratio (z) = -0.32325 0.31367
#
# Static dielectric constant tensor:
#      x y z
#    x 1.844600 0.000000 0.011620 
#    y 0.000000 1.796260 0.000000 
#    z 0.011620 0.000000 1.823200 
# 
# From -- ./inp_files/259051.got.cif
#   From: 2010.05.17/outbox.cif.g08.bks.cpg/sg15_130_cif.got.tgz:259051.got - 2010.06.03 18:47:42.
