data_PCOD9293771
_publ_section_title
;
Structure prediction by ZEFSAII (Michael W. Deem and Ramdas Pophale) SiO2 
 PCOD9293771
Probable space group: C 2/C
;
_chemical_formula_sum "Si O2"
_cell_formula_units_Z 40
_cell_length_a 11.888151
_cell_length_b 15.823116
_cell_length_c 15.260654
_cell_angle_alpha 90.000000
_cell_angle_beta 140.739167
_cell_angle_gamma 90.000000
_cell_volume 1816.692587
_symmetry_space_group_name_H-M "C 2/C"
_symmetry_group_IT_number 15
_symmetry_cell_setting 'monoclinic'
loop_
_space_group_symop_operation_xyz
x,y,z
-x,y,1/2-z
-x,-y,-z
x,-y,1/2+z
1/2+x,1/2+y,z
1/2-x,1/2+y,1/2-z
1/2-x,1/2-y,-z
1/2+x,1/2-y,1/2+z
loop_
_atom_site_type_symbol
_atom_site_label
_atom_site_fract_x
_atom_site_fract_y
_atom_site_fract_z
Si Si1 0.195253 0.283796 0.871337
Si Si2 0.182428 0.991587 0.900539
Si Si3 0.882808 0.669951 0.589627
Si Si4 0.297992 0.125383 0.831996
Si Si5 0.520664 0.414081 0.461813
O O1 0.188499 0.198863 0.812306
O O2 0.346814 0.343839 0.922186
O O3 0.000000 0.325208 0.750000
O O4 0.250000 0.250000 0.000000
O O5 0.000000 0.954547 0.750000
O O6 0.291720 0.041832 0.890351
O O7 0.279310 0.919315 0.014697
O O8 0.112996 0.062941 0.925070
O O9 0.750000 0.750000 0.500000
O O10 0.000000 0.675331 0.750000
O O11 0.014540 0.661842 0.585029
O O12 0.181275 0.111603 0.675320
O O13 0.500000 0.500000 0.500000
#
# Coordination Sequence:
#
# PCOD9293771 Si02
#       5
#     8   8   8   8   8
#     4  12  23  45  73 106 141 182 240 296 354 424
#     4  10  22  47  70  99 140 182 234 297 355 425
#     4  12  28  46  68 102 144 190 241 293 361 434
#     4  11  24  45  73 101 144 186 240 296 358 425
#     4  11  24  43  71 107 144 182 232 294 357 427
#
# _framework density 22.018034
#
# number of rings (size 3 to 8) (size 9 to 14) (size 15 to 20)
#    0.000    0.800    4.000    3.000    5.600    2.400 
#    7.200    0.000    0.000    0.000    0.000    0.000 
#    0.000    0.000    0.000    0.000    0.000    0.000 
#
# Total GULP energy -111593.156139 kJ/mol
# GULP energy per Si atom -5579.657807 kJ/mol
# Density = 2.196792 g / cm^3
# Si number density = 22.018034 Si / 1000 Ang^3
#
#
#
# Elastic Constant Matrix: (Units=GPa)
#
#
# Indices 1 2 3 4 5 6 
#
# 1 95.8198 29.4917 21.1640 0.0000 17.2396 -0.0001
# 2 29.4917 125.6487 56.0443 0.0000 13.1710 0.0000
# 3 21.1640 56.0443 105.1897 0.0000 4.8599 -0.0001
# 4 0.0000 0.0000 0.0000 42.8708 0.0001 7.8277
# 5 17.2396 13.1710 4.8599 0.0001 25.5284 0.0000
# 6 -0.0001 0.0000 -0.0001 7.8277 0.0000 30.9428
#
#
#
# Elastic Compliance Matrix: (Units=1/GPa)
#
#
# Indices 1 2 3 4 5 6 
#
# 1 0.012549 -0.001568 -0.001347 0.000000 -0.007409 0.000000
# 2 -0.001568 0.011141 -0.005452 0.000000 -0.003651 0.000000
# 3 -0.001347 -0.005452 0.012621 0.000000 0.001320 0.000000
# 4 0.000000 0.000000 0.000000 0.024456 0.000000 -0.006187
# 5 -0.007409 -0.003651 0.001320 0.000000 0.045808 0.000000
# 6 0.000000 0.000000 0.000000 -0.006187 0.000000 0.033883
#
#
# Mechanical properties :
#
#
# Convention : Reuss Voigt Hill
#
# Bulk Modulus (GPa) = 51.07736 60.00648 55.54192
# Shear Modulus (GPa) = 30.54020 34.53227 32.53623
#
# Velocity S-wave (km/s) = 3.72836 3.96455 3.84827
# Velocity P-wave (km/s) = 6.46394 6.94762 6.71014
#
# Compressibility (1/GPa) = 0.01957815
#
# Stress axis : x y z
#
# Youngs Moduli (GPa) = 79.68452 89.75700 79.23065
#
# Poissons Ratio (x) = 0.14074 0.10674
# Poissons Ratio (y) = 0.12494 0.43195
# Poissons Ratio (z) = 0.10735 0.48933
#
# Static dielectric constant tensor:
#      x y z
#    x 1.871000 0.000000 0.132990 
#    y 0.000000 1.785400 0.000000 
#    z 0.132990 0.000000 1.760940 
# 
# From -- ./inp_files/145874.got.cif
#   From: 2010.05.17/outbox.cif.g08.bks.cpg/sg15_73_cif.got.tgz:145874.got - 2010.06.03 18:47:42.
