data_PCOD9293091
_publ_section_title
;
Structure prediction by ZEFSAII (Michael W. Deem and Ramdas Pophale) SiO2 
 PCOD9293091
Probable space group: C 2/C
;
_chemical_formula_sum "Si O2"
_cell_formula_units_Z 36
_cell_length_a 12.478347
_cell_length_b 8.031226
_cell_length_c 15.861191
_cell_angle_alpha 90.000000
_cell_angle_beta 85.931801
_cell_angle_gamma 90.000000
_cell_volume 1585.546682
_symmetry_space_group_name_H-M "C 2/C"
_symmetry_group_IT_number 15
_symmetry_cell_setting 'monoclinic'
loop_
_space_group_symop_operation_xyz
x,y,z
-x,y,1/2-z
-x,-y,-z
x,-y,1/2+z
1/2+x,1/2+y,z
1/2-x,1/2+y,1/2-z
1/2-x,1/2-y,-z
1/2+x,1/2-y,1/2+z
loop_
_atom_site_type_symbol
_atom_site_label
_atom_site_fract_x
_atom_site_fract_y
_atom_site_fract_z
Si Si1 0.717166 0.165026 0.131756
Si Si2 0.000000 0.880192 0.750000
Si Si3 0.580677 0.536657 0.919736
Si Si4 0.015022 0.609733 0.416568
Si Si5 0.148943 0.590972 0.777557
O O1 0.602820 0.182541 0.094898
O O2 0.762025 0.338032 0.163912
O O3 0.811506 0.072069 0.075526
O O4 0.695837 0.041226 0.211118
O O5 0.899919 0.753074 0.766197
O O6 0.971046 0.983664 0.667888
O O7 0.596224 0.735393 0.919007
O O8 0.500000 0.500000 0.000000
O O9 0.000000 0.500000 0.500000
O O10 0.056377 0.494045 0.338676
#
# Coordination Sequence:
#
# PCOD9293091 Si02
#       5
#     8   4   8   8   8
#     4  11  25  44  71 103 135 189 229 289 361 409
#     4  10  22  44  72  98 144 180 230 298 348 410
#     4  11  27  46  69 105 142 184 239 292 348 424
#     4  12  26  46  71 103 144 183 233 297 349 422
#     4  11  23  43  72 103 138 181 241 285 346 430
#
# _framework density 22.705103000000001
#
# number of rings (size 3 to 8) (size 9 to 14) (size 15 to 20)
#    0.000    0.889    2.222    4.000    9.333    4.444 
#    0.000    0.000    0.000    0.000    0.000    0.000 
#    0.000    0.000    0.000    0.000    0.000    0.000 
#
# Total GULP energy -100770.084492 kJ/mol
# GULP energy per Si atom -5598.338027 kJ/mol
# Density = 2.265343 g / cm^3
# Si number density = 22.705103 Si / 1000 Ang^3
#
#
#
# Elastic Constant Matrix: (Units=GPa)
#
#
# Indices 1 2 3 4 5 6 
#
# 1 75.6346 -14.7438 0.0859 0.0000 -8.7210 0.0000
# 2 -14.7438 80.2395 22.7616 0.0000 -0.7368 0.0000
# 3 0.0859 22.7616 93.4139 0.0000 -33.6819 0.0000
# 4 0.0000 0.0000 0.0000 37.8512 0.0000 5.2315
# 5 -8.7210 -0.7368 -33.6819 0.0000 30.5140 0.0000
# 6 0.0000 0.0000 0.0000 5.2315 0.0000 23.8865
#
#
#
# Elastic Compliance Matrix: (Units=1/GPa)
#
#
# Indices 1 2 3 4 5 6 
#
# 1 0.014334 0.002247 0.001555 0.000000 0.005867 0.000000
# 2 0.002247 0.014308 -0.005203 0.000000 -0.004756 0.000000
# 3 0.001555 -0.005203 0.020077 0.000000 0.022480 0.000000
# 4 0.000000 0.000000 0.000000 0.027244 0.000000 -0.005967
# 5 0.005867 -0.004756 0.022480 0.000000 0.059148 0.000000
# 6 0.000000 0.000000 0.000000 -0.005967 0.000000 0.043171
#
#
# Mechanical properties :
#
#
# Convention : Reuss Voigt Hill
#
# Bulk Modulus (GPa) = 21.77894 29.49952 25.63923
# Shear Modulus (GPa) = 25.45950 34.52930 29.99440
#
# Velocity S-wave (km/s) = 3.35223 3.90394 3.63856
# Velocity P-wave (km/s) = 4.95946 5.77422 5.38228
#
# Compressibility (1/GPa) = 0.04591591
#
# Stress axis : x y z
#
# Youngs Moduli (GPa) = 69.76340 69.89193 49.80829
#
# Poissons Ratio (x) = -0.15702 -0.07745
# Poissons Ratio (y) = -0.15673 0.25916
# Poissons Ratio (z) = -0.10848 0.36366
#
# Static dielectric constant tensor:
#      x y z
#    x 1.890450 0.000000 0.028710 
#    y 0.000000 1.861480 0.000000 
#    z 0.028710 0.000000 1.833410 
# 
# From -- ./inp_files/194887.got.cif
#   From: 2010.05.17/outbox.cif.g08.bks.cpg/sg15_98_cif.got.tgz:194887.got - 2010.06.03 18:47:42.
