data_PCOD9293862
_publ_section_title
;
Structure prediction by ZEFSAII (Michael W. Deem and Ramdas Pophale) SiO2 
 PCOD9293862
Probable space group: C 2/C
;
_chemical_formula_sum "Si O2"
_cell_formula_units_Z 36
_cell_length_a 24.062640
_cell_length_b 11.197972
_cell_length_c 12.925508
_cell_angle_alpha 90.000000
_cell_angle_beta 152.930029
_cell_angle_gamma 90.000000
_cell_volume 1584.952968
_symmetry_space_group_name_H-M "C 2/C"
_symmetry_group_IT_number 15
_symmetry_cell_setting 'monoclinic'
loop_
_space_group_symop_operation_xyz
x,y,z
-x,y,1/2-z
-x,-y,-z
x,-y,1/2+z
1/2+x,1/2+y,z
1/2-x,1/2+y,1/2-z
1/2-x,1/2-y,-z
1/2+x,1/2-y,1/2+z
loop_
_atom_site_type_symbol
_atom_site_label
_atom_site_fract_x
_atom_site_fract_y
_atom_site_fract_z
Si Si1 0.419137 0.191384 0.845268
Si Si2 0.500000 0.105740 0.750000
Si Si3 0.638948 0.532269 0.213915
Si Si4 0.284180 0.013883 0.772941
Si Si5 0.694955 0.869543 0.868374
O O1 0.445594 0.172758 0.764168
O O2 0.367695 0.324031 0.783463
O O3 0.326464 0.107202 0.756933
O O4 0.549282 0.150146 0.113604
O O5 0.395837 0.020169 0.532137
O O6 0.670300 0.468304 0.156770
O O7 0.740010 0.472061 0.455592
O O8 0.500000 0.500000 0.000000
O O9 0.257522 0.892322 0.667784
O O10 0.750000 0.750000 0.000000
#
# Coordination Sequence:
#
# PCOD9293862 Si02
#       5
#     8   4   8   8   8
#     4  11  25  48  78 108 147 199 247 318 378 451
#     4  10  22  48  78 104 146 190 252 316 378 460
#     4  12  27  46  70 109 152 196 251 308 373 449
#     4  11  25  44  73 109 143 195 247 304 383 453
#     4  11  24  47  71 107 149 188 249 306 379 447
#
# _framework density 22.713607
#
# number of rings (size 3 to 8) (size 9 to 14) (size 15 to 20)
#    0.000    0.889    2.222    5.333    3.111    6.222 
#    0.000    0.000    0.000    0.000    0.000    0.000 
#    0.000    0.000    0.000    0.000    0.000    0.000 
#
# Total GULP energy -100206.614708 kJ/mol
# GULP energy per Si atom -5567.034150 kJ/mol
# Density = 2.266191 g / cm^3
# Si number density = 22.713607 Si / 1000 Ang^3
#
#
#
# Elastic Constant Matrix: (Units=GPa)
#
#
# Indices 1 2 3 4 5 6 
#
# 1 191.5942 65.2722 68.6740 0.0000 2.6785 0.0000
# 2 65.2722 135.1416 80.0449 0.0000 -6.8115 0.0000
# 3 68.6740 80.0449 94.8152 0.0000 -14.0025 0.0000
# 4 0.0000 0.0000 0.0000 46.7732 0.0000 4.0043
# 5 2.6785 -6.8115 -14.0025 0.0000 24.0187 0.0000
# 6 0.0000 0.0000 0.0000 4.0043 0.0000 19.5055
#
#
#
# Elastic Compliance Matrix: (Units=1/GPa)
#
#
# Indices 1 2 3 4 5 6 
#
# 1 0.007458 -0.000491 -0.005614 0.000000 -0.004244 0.000000
# 2 -0.000491 0.015087 -0.012848 0.000000 -0.003157 0.000000
# 3 -0.005614 -0.012848 0.027371 0.000000 0.012939 0.000000
# 4 0.000000 0.000000 0.000000 0.021762 0.000000 -0.004468
# 5 -0.004244 -0.003157 0.012939 0.000000 0.048756 0.000000
# 6 0.000000 0.000000 0.000000 -0.004468 0.000000 0.052185
#
#
# Mechanical properties :
#
#
# Convention : Reuss Voigt Hill
#
# Bulk Modulus (GPa) = 83.26220 94.39257 88.82739
# Shear Modulus (GPa) = 23.30695 31.89682 27.60188
#
# Velocity S-wave (km/s) = 3.20679 3.75147 3.48977
# Velocity P-wave (km/s) = 7.10270 7.77256 7.44517
#
# Compressibility (1/GPa) = 0.01201025
#
# Stress axis : x y z
#
# Youngs Moduli (GPa) = 134.07888 66.28067 36.53555
#
# Poissons Ratio (x) = 0.03253 0.20513
# Poissons Ratio (y) = 0.06580 0.46940
# Poissons Ratio (z) = 0.75278 0.85156
#
# Static dielectric constant tensor:
#      x y z
#    x 1.898660 0.000000 0.017250 
#    y 0.000000 1.886310 0.000000 
#    z 0.017250 0.000000 1.668980 
# 
# From -- ./inp_files/118144.got.cif
#   From: 2010.05.17/outbox.cif.g08.bks.cpg/sg15_60_cif.got.tgz:118144.got - 2010.06.03 18:47:42.
