data_PCOD9293616
_publ_section_title
;
Structure prediction by ZEFSAII (Michael W. Deem and Ramdas Pophale) SiO2 
 PCOD9293616
Probable space group: C 2/C
;
_chemical_formula_sum "Si O2"
_cell_formula_units_Z 36
_cell_length_a 17.153075
_cell_length_b 10.820484
_cell_length_c 9.629006
_cell_angle_alpha 90.000000
_cell_angle_beta 118.342712
_cell_angle_gamma 90.000000
_cell_volume 1572.946108
_symmetry_space_group_name_H-M "C 2/C"
_symmetry_group_IT_number 15
_symmetry_cell_setting 'monoclinic'
loop_
_space_group_symop_operation_xyz
x,y,z
-x,y,1/2-z
-x,-y,-z
x,-y,1/2+z
1/2+x,1/2+y,z
1/2-x,1/2+y,1/2-z
1/2-x,1/2-y,-z
1/2+x,1/2-y,1/2+z
loop_
_atom_site_type_symbol
_atom_site_label
_atom_site_fract_x
_atom_site_fract_y
_atom_site_fract_z
Si Si1 0.664609 0.712387 0.516218
Si Si2 0.584757 0.919271 0.595918
Si Si3 0.764914 0.945579 0.194432
Si Si4 0.000000 0.751428 0.250000
Si Si5 0.365088 0.557440 0.508772
O O1 0.750000 0.750000 0.500000
O O2 0.600738 0.826122 0.481920
O O3 0.707607 0.678177 0.702399
O O4 0.887852 0.913573 0.561874
O O5 0.669577 0.008361 0.661256
O O6 0.563833 0.835620 0.712882
O O7 0.500000 0.000000 0.500000
O O8 0.830889 0.047175 0.322108
O O9 0.783734 0.926385 0.048795
O O10 0.060152 0.842948 0.395411
#
# Coordination Sequence:
#
# PCOD9293616 Si02
#       5
#     8   8   8   4   8
#     4  10  22  46  70  96 139 186 242 275 353 429
#     4  12  27  44  67 109 146 183 237 301 361 414
#     4  10  23  45  70 101 140 193 238 277 363 432
#     4  12  26  46  68 112 142 178 244 304 352 418
#     4  10  23  45  74 101 139 188 241 284 357 424
#
# _framework density 22.886990999999998
#
# number of rings (size 3 to 8) (size 9 to 14) (size 15 to 20)
#    1.333    0.000    4.444    0.000    6.222    6.222 
#    4.000    0.000    0.000    0.000    0.000    0.000 
#    0.000    0.000    0.000    0.000    0.000    0.000 
#
# Total GULP energy -100358.770000 kJ/mol
# GULP energy per Si atom -5575.487222 kJ/mol
# Density = 2.283490 g / cm^3
# Si number density = 22.886991 Si / 1000 Ang^3
#
#
#
# Elastic Constant Matrix: (Units=GPa)
#
#
# Indices 1 2 3 4 5 6 
#
# 1 100.0154 31.3110 7.2367 0.0000 1.9708 0.0000
# 2 31.3110 93.6012 4.8977 0.0000 19.3064 0.0000
# 3 7.2367 4.8977 37.4444 0.0000 6.8107 0.0000
# 4 0.0000 0.0000 0.0000 27.7214 0.0000 1.3072
# 5 1.9708 19.3064 6.8107 0.0000 40.0722 0.0000
# 6 0.0000 0.0000 0.0000 1.3072 0.0000 49.1998
#
#
#
# Elastic Compliance Matrix: (Units=1/GPa)
#
#
# Indices 1 2 3 4 5 6 
#
# 1 0.011379 -0.004060 -0.001983 0.000000 0.001734 0.000000
# 2 -0.004060 0.013321 0.000179 0.000000 -0.006249 0.000000
# 3 -0.001983 0.000179 0.027927 0.000000 -0.004735 0.000000
# 4 0.000000 0.000000 0.000000 0.036118 0.000000 -0.000960
# 5 0.001734 -0.006249 -0.004735 0.000000 0.028685 0.000000
# 6 0.000000 0.000000 0.000000 -0.000960 0.000000 0.020351
#
#
# Mechanical properties :
#
#
# Convention : Reuss Voigt Hill
#
# Bulk Modulus (GPa) = 24.45092 35.32797 29.88944
# Shear Modulus (GPa) = 30.64768 35.90637 33.27703
#
# Velocity S-wave (km/s) = 3.66332 3.96517 3.81723
# Velocity P-wave (km/s) = 5.34788 6.03596 5.70231
#
# Compressibility (1/GPa) = 0.04089825
#
# Stress axis : x y z
#
# Youngs Moduli (GPa) = 87.88182 75.06726 35.80702
#
# Poissons Ratio (x) = 0.30479 0.07102
# Poissons Ratio (y) = 0.35682 -0.00640
# Poissons Ratio (z) = 0.17430 -0.01343
#
# Static dielectric constant tensor:
#      x y z
#    x 1.833010 0.000000 -0.024280 
#    y 0.000000 1.886250 0.000000 
#    z -0.024280 0.000000 1.876970 
# 
# From -- ./inp_files/94374.got.cif
#   From: 2010.05.17/outbox.cif.g08.bks.cpg/sg15_48_cif.got.tgz:94374.got - 2010.06.03 18:47:42.
