data_PCOD9293673
_publ_section_title
;
Structure prediction by ZEFSAII (Michael W. Deem and Ramdas Pophale) SiO2 
 PCOD9293673
Probable space group: C 2/C
;
_chemical_formula_sum "Si O2"
_cell_formula_units_Z 36
_cell_length_a 22.865595
_cell_length_b 7.123403
_cell_length_c 8.500322
_cell_angle_alpha 90.000000
_cell_angle_beta 76.979221
_cell_angle_gamma 90.000000
_cell_volume 1348.940953
_symmetry_space_group_name_H-M "C 2/C"
_symmetry_group_IT_number 15
_symmetry_cell_setting 'monoclinic'
loop_
_space_group_symop_operation_xyz
x,y,z
-x,y,1/2-z
-x,-y,-z
x,-y,1/2+z
1/2+x,1/2+y,z
1/2-x,1/2+y,1/2-z
1/2-x,1/2-y,-z
1/2+x,1/2-y,1/2+z
loop_
_atom_site_type_symbol
_atom_site_label
_atom_site_fract_x
_atom_site_fract_y
_atom_site_fract_z
Si Si1 0.184530 0.781000 0.742883
Si Si2 0.500000 0.090022 0.750000
Si Si3 0.033942 0.240437 0.529304
Si Si4 0.680698 0.090265 0.405721
Si Si5 0.097644 0.868941 0.279844
O O1 0.176241 0.632550 0.888066
O O2 0.253057 0.851687 0.693686
O O3 0.173527 0.670288 0.585538
O O4 0.080533 0.128468 0.606499
O O5 0.460952 0.218131 0.658090
O O6 0.534538 0.946158 0.614699
O O7 0.968023 0.150332 0.599174
O O8 0.142181 0.039894 0.282091
O O9 0.632417 0.187852 0.322456
#
# Coordination Sequence:
#
# PCOD9293673 Si02
#       5
#     8   4   8   8   8
#     4  11  25  47  75 108 151 196 260 311 378 450
#     4   8  16  38  70 116 152 208 258 310 376 460
#     4   9  20  40  76 111 159 202 253 314 388 445
#     4  11  25  45  76 107 148 203 250 317 376 444
#     4  10  22  46  72 115 151 198 251 314 376 455
#
# _framework density 26.687601999999998
#
# number of rings (size 3 to 8) (size 9 to 14) (size 15 to 20)
#    0.000    2.222    2.222    0.000    0.000    9.778 
#    0.000   13.333    0.000    5.333    0.000    3.111 
#    0.000    0.000    0.000    0.000    0.000    0.000 
#
# Total GULP energy -101040.304126 kJ/mol
# GULP energy per Si atom -5613.350229 kJ/mol
# Density = 2.662686 g / cm^3
# Si number density = 26.687602 Si / 1000 Ang^3
#
#
#
# Elastic Constant Matrix: (Units=GPa)
#
#
# Indices 1 2 3 4 5 6 
#
# 1 161.3335 38.1917 52.4670 0.0000 -6.4042 0.0000
# 2 38.1917 115.6075 27.7785 0.0000 -25.7485 0.0000
# 3 52.4670 27.7785 112.7392 0.0000 -4.8288 0.0000
# 4 0.0000 0.0000 0.0000 41.4734 0.0000 8.0688
# 5 -6.4042 -25.7485 -4.8288 0.0000 46.2548 0.0000
# 6 0.0000 0.0000 0.0000 8.0688 0.0000 68.1153
#
#
#
# Elastic Compliance Matrix: (Units=1/GPa)
#
#
# Indices 1 2 3 4 5 6 
#
# 1 0.007634 -0.001839 -0.003112 0.000000 -0.000292 0.000000
# 2 -0.001839 0.010896 -0.001587 0.000000 0.005645 0.000000
# 3 -0.003112 -0.001587 0.010701 0.000000 -0.000197 0.000000
# 4 0.000000 0.000000 0.000000 0.024681 0.000000 -0.002924
# 5 -0.000292 0.005645 -0.000197 0.000000 0.024701 0.000000
# 6 0.000000 0.000000 0.000000 -0.002924 0.000000 0.015027
#
#
# Mechanical properties :
#
#
# Convention : Reuss Voigt Hill
#
# Bulk Modulus (GPa) = 61.90194 69.61718 65.75956
# Shear Modulus (GPa) = 44.60222 49.25157 46.92689
#
# Velocity S-wave (km/s) = 4.09255 4.30057 4.19785
# Velocity P-wave (km/s) = 6.75110 7.12759 6.94190
#
# Compressibility (1/GPa) = 0.01615458
#
# Stress axis : x y z
#
# Youngs Moduli (GPa) = 130.98863 91.77496 93.44932
#
# Poissons Ratio (x) = 0.16879 0.29083
# Poissons Ratio (y) = 0.24091 0.14831
# Poissons Ratio (z) = 0.40766 0.14565
#
# Static dielectric constant tensor:
#      x y z
#    x 2.030360 0.000000 -0.047070 
#    y 0.000000 2.114800 0.000000 
#    z -0.047070 0.000000 2.126130 
# 
# From -- ./inp_files/110276.got.cif
#   From: 2010.05.17/outbox.cif.g08.bks.cpg/sg15_56_cif.got.tgz:110276.got - 2010.06.03 18:47:42.
