data_PCOD9293482
_publ_section_title
;
Structure prediction by ZEFSAII (Michael W. Deem and Ramdas Pophale) SiO2 
 PCOD9293482
Probable space group: C 2/C
;
_chemical_formula_sum "Si O2"
_cell_formula_units_Z 44
_cell_length_a 13.134273
_cell_length_b 6.354135
_cell_length_c 19.140360
_cell_angle_alpha 90.000000
_cell_angle_beta 92.840473
_cell_angle_gamma 90.000000
_cell_volume 1595.433358
_symmetry_space_group_name_H-M "C 2/C"
_symmetry_group_IT_number 15
_symmetry_cell_setting 'monoclinic'
loop_
_space_group_symop_operation_xyz
x,y,z
-x,y,1/2-z
-x,-y,-z
x,-y,1/2+z
1/2+x,1/2+y,z
1/2-x,1/2+y,1/2-z
1/2-x,1/2-y,-z
1/2+x,1/2-y,1/2+z
loop_
_atom_site_type_symbol
_atom_site_label
_atom_site_fract_x
_atom_site_fract_y
_atom_site_fract_z
Si Si1 0.154739 0.328416 0.207693
Si Si2 0.399343 0.774593 0.540410
Si Si3 0.997699 0.003178 0.362183
Si Si4 0.500000 0.178160 0.250000
Si Si5 0.825008 0.342321 0.130412
Si Si6 0.284873 0.995669 0.430252
O O1 0.199175 0.329579 0.287516
O O2 0.225176 0.397731 0.147227
O O3 0.073917 0.519229 0.212429
O O4 0.099500 0.116143 0.177275
O O5 0.498312 0.644518 0.568704
O O6 0.388558 0.909444 0.468740
O O7 0.310804 0.598329 0.531179
O O8 0.360625 0.942039 0.597044
O O9 0.042686 0.840373 0.307434
O O10 0.077423 0.190518 0.374373
O O11 0.733356 0.240724 0.083281
#
# Coordination Sequence:
#
# PCOD9293482 Si02
#       6
#     8   8   8   4   8   8
#     4  12  23  38  64 101 122 166 223 274 323 388
#     4  10  22  46  63  87 133 176 205 266 335 391
#     4  11  21  40  67  88 126 169 212 263 328 388
#     4  12  20  40  60  92 124 164 204 274 330 376
#     4  11  21  39  65  90 126 168 214 266 323 382
#     4  10  26  39  63  96 128 168 217 263 329 400
#
# _framework density 27.578714000000002
#
# number of rings (size 3 to 8) (size 9 to 14) (size 15 to 20)
#    0.000    1.091    5.455    0.545    2.545    2.182 
#    0.000    3.636    0.000    0.000    0.000    0.000 
#    0.000    0.000    0.000    0.000    0.000    0.000 
#
# Total GULP energy -123012.206775 kJ/mol
# GULP energy per Si atom -5591.463944 kJ/mol
# Density = 2.751594 g / cm^3
# Si number density = 27.578714 Si / 1000 Ang^3
#
#
#
# Elastic Constant Matrix: (Units=GPa)
#
#
# Indices 1 2 3 4 5 6 
#
# 1 71.7507 41.6445 22.1209 0.0000 17.0925 0.0000
# 2 41.6445 166.2040 69.9829 0.0000 18.3812 0.0000
# 3 22.1209 69.9829 156.2233 0.0000 21.6989 0.0000
# 4 0.0000 0.0000 0.0000 59.5325 0.0000 15.8817
# 5 17.0925 18.3812 21.6989 0.0000 31.0899 0.0000
# 6 0.0000 0.0000 0.0000 15.8817 0.0000 34.4339
#
#
#
# Elastic Compliance Matrix: (Units=1/GPa)
#
#
# Indices 1 2 3 4 5 6 
#
# 1 0.017878 -0.003707 0.000210 0.000000 -0.007784 0.000000
# 2 -0.003707 0.008334 -0.003108 0.000000 -0.000720 0.000000
# 3 0.000210 -0.003108 0.008332 0.000000 -0.004093 0.000000
# 4 0.000000 0.000000 0.000000 0.019154 0.000000 -0.008834
# 5 -0.007784 -0.000720 -0.004093 0.000000 0.039727 0.000000
# 6 0.000000 0.000000 0.000000 -0.008834 0.000000 0.033116
#
#
# Mechanical properties :
#
#
# Convention : Reuss Voigt Hill
#
# Bulk Modulus (GPa) = 46.87370 73.51939 60.19654
# Shear Modulus (GPa) = 34.04516 42.37324 38.20920
#
# Velocity S-wave (km/s) = 3.51732 3.92401 3.72621
# Velocity P-wave (km/s) = 5.79039 6.87360 6.35511
#
# Compressibility (1/GPa) = 0.02133392
#
# Stress axis : x y z
#
# Youngs Moduli (GPa) = 55.93345 119.98894 120.01409
#
# Poissons Ratio (x) = 0.44485 -0.02525
# Poissons Ratio (y) = 0.20737 0.37306
# Poissons Ratio (z) = -0.01177 0.37299
#
# Static dielectric constant tensor:
#      x y z
#    x 2.126160 0.000000 0.058890 
#    y 0.000000 2.115770 0.000000 
#    z 0.058890 0.000000 2.256340 
# 
# From -- ./inp_files/212896.got.cif
#   From: 2010.05.17/outbox.cif.g08.bks.cpg/sg15_107_cif.got.tgz:212896.got - 2010.06.03 18:47:42.
