data_PCOD9293072
_publ_section_title
;
Structure prediction by ZEFSAII (Michael W. Deem and Ramdas Pophale) SiO2 
 PCOD9293072
Probable space group: C 2/C
;
_chemical_formula_sum "Si O2"
_cell_formula_units_Z 36
_cell_length_a 13.881522
_cell_length_b 8.981094
_cell_length_c 19.516544
_cell_angle_alpha 90.000000
_cell_angle_beta 41.696945
_cell_angle_gamma 90.000000
_cell_volume 1618.509709
_symmetry_space_group_name_H-M "C 2/C"
_symmetry_group_IT_number 15
_symmetry_cell_setting 'monoclinic'
loop_
_space_group_symop_operation_xyz
x,y,z
-x,y,1/2-z
-x,-y,-z
x,-y,1/2+z
1/2+x,1/2+y,z
1/2-x,1/2+y,1/2-z
1/2-x,1/2-y,-z
1/2+x,1/2-y,1/2+z
loop_
_atom_site_type_symbol
_atom_site_label
_atom_site_fract_x
_atom_site_fract_y
_atom_site_fract_z
Si Si1 0.650801 0.252209 0.261757
Si Si2 0.500000 0.331167 0.750000
Si Si3 0.431653 0.439353 0.641196
Si Si4 0.770570 0.156631 0.560035
Si Si5 0.338877 0.178137 0.392698
O O1 0.617957 0.388480 0.330431
O O2 0.787505 0.157245 0.211641
O O3 0.502462 0.161342 0.332430
O O4 0.676448 0.282122 0.166634
O O5 0.499669 0.424865 0.680932
O O6 0.650263 0.237508 0.671209
O O7 0.554845 0.368425 0.526155
O O8 0.750000 0.250000 0.500000
O O9 0.719794 0.986070 0.588537
O O10 0.250000 0.250000 0.500000
#
# Coordination Sequence:
#
# PCOD9293072 Si02
#       5
#     8   4   8   8   8
#     4  11  26  42  69  99 139 174 227 280 333 404
#     4  10  22  44  72  92 136 180 228 276 338 398
#     4  11  25  44  67 102 134 178 225 279 339 399
#     4  10  23  41  72  96 132 174 231 273 335 393
#     4  11  23  45  68  95 134 182 222 273 338 397
#
# _framework density 22.242683
#
# number of rings (size 3 to 8) (size 9 to 14) (size 15 to 20)
#    0.000    1.333    2.222    2.667   12.444    2.667 
#    0.000    2.222    0.000    0.000    0.000    0.000 
#    0.000    0.000    0.000    0.000    0.000    0.000 
#
# Total GULP energy -100327.625295 kJ/mol
# GULP energy per Si atom -5573.756961 kJ/mol
# Density = 2.219206 g / cm^3
# Si number density = 22.242683 Si / 1000 Ang^3
#
#
#
# Elastic Constant Matrix: (Units=GPa)
#
#
# Indices 1 2 3 4 5 6 
#
# 1 89.7859 10.1654 26.1499 0.0000 -24.4652 0.0000
# 2 10.1654 53.0600 1.4024 0.0000 -6.2063 0.0000
# 3 26.1499 1.4024 100.4131 0.0000 -3.9746 0.0000
# 4 0.0000 0.0000 0.0000 38.5751 0.0000 -10.7391
# 5 -24.4652 -6.2063 -3.9746 0.0000 43.9851 0.0000
# 6 0.0000 0.0000 0.0000 -10.7391 0.0000 38.2296
#
#
#
# Elastic Compliance Matrix: (Units=1/GPa)
#
#
# Indices 1 2 3 4 5 6 
#
# 1 0.014360 -0.001792 -0.003421 0.000000 0.007425 0.000000
# 2 -0.001792 0.019389 0.000266 0.000000 0.001763 0.000000
# 3 -0.003421 0.000266 0.010811 0.000000 -0.000888 0.000000
# 4 0.000000 0.000000 0.000000 0.028123 0.000000 0.007900
# 5 0.007425 0.001763 -0.000888 0.000000 0.027033 0.000000
# 6 0.000000 0.000000 0.000000 0.007900 0.000000 0.028377
#
#
# Mechanical properties :
#
#
# Convention : Reuss Voigt Hill
#
# Bulk Modulus (GPa) = 28.84711 35.41049 32.12880
# Shear Modulus (GPa) = 33.43525 37.86075 35.64800
#
# Velocity S-wave (km/s) = 3.88132 4.13021 4.00770
# Velocity P-wave (km/s) = 5.75184 6.22089 5.99095
#
# Compressibility (1/GPa) = 0.03466552
#
# Stress axis : x y z
#
# Youngs Moduli (GPa) = 69.63756 51.57531 92.49989
#
# Poissons Ratio (x) = 0.09243 0.31642
# Poissons Ratio (y) = 0.12481 -0.02458
# Poissons Ratio (z) = 0.23821 -0.01370
#
# Static dielectric constant tensor:
#      x y z
#    x 1.881190 0.000000 0.034340 
#    y 0.000000 1.778080 0.000000 
#    z 0.034340 0.000000 1.907550 
# 
# From -- ./inp_files/150153.got.cif
#   From: 2010.05.17/outbox.cif.g08.bks.cpg/sg15_76_cif.got.tgz:150153.got - 2010.06.03 18:47:42.
