data_PCOD9293141
_publ_section_title
;
Structure prediction by ZEFSAII (Michael W. Deem and Ramdas Pophale) SiO2 
 PCOD9293141
Probable space group: C 2/C
;
_chemical_formula_sum "Si O2"
_cell_formula_units_Z 44
_cell_length_a 23.675357
_cell_length_b 9.445814
_cell_length_c 20.182500
_cell_angle_alpha 90.000000
_cell_angle_beta 154.413075
_cell_angle_gamma 90.000000
_cell_volume 1949.278610
_symmetry_space_group_name_H-M "C 2/C"
_symmetry_group_IT_number 15
_symmetry_cell_setting 'monoclinic'
loop_
_space_group_symop_operation_xyz
x,y,z
-x,y,1/2-z
-x,-y,-z
x,-y,1/2+z
1/2+x,1/2+y,z
1/2-x,1/2+y,1/2-z
1/2-x,1/2-y,-z
1/2+x,1/2-y,1/2+z
loop_
_atom_site_type_symbol
_atom_site_label
_atom_site_fract_x
_atom_site_fract_y
_atom_site_fract_z
Si Si1 0.280736 0.177613 0.928166
Si Si2 0.621337 0.971838 0.578936
Si Si3 0.218376 0.027011 0.129365
Si Si4 0.500000 0.931841 0.750000
Si Si5 0.047364 0.023329 0.224876
Si Si6 0.575198 0.842161 0.219945
O O1 0.237830 0.335074 0.865719
O O2 0.162468 0.082156 0.827851
O O3 0.342198 0.106144 0.927354
O O4 0.393594 0.165400 0.102040
O O5 0.745725 0.939621 0.756523
O O6 0.500000 0.000000 0.500000
O O7 0.560929 0.855783 0.465202
O O8 0.305139 0.893359 0.198920
O O9 0.070177 0.002002 0.951352
O O10 0.435921 0.040334 0.734522
O O11 0.093271 0.185647 0.266130
O O12 0.000000 0.002910 0.250000
#
# Coordination Sequence:
#
# PCOD9293141 Si02
#       6
#     8   8   8   4   8   8
#     4  11  27  45  73 107 140 187 237 295 355 421
#     4   9  23  46  73  98 141 186 232 285 358 413
#     4  11  27  45  71 104 146 185 236 296 350 420
#     4  10  22  44  74  92 144 184 232 290 348 404
#     4  12  28  44  73 107 139 189 242 287 359 422
#     4  10  23  45  71 100 139 189 234 291 346 421
#
# _framework density 22.572451999999998
#
# number of rings (size 3 to 8) (size 9 to 14) (size 15 to 20)
#    0.000    1.455    0.909    1.091   16.545    5.091 
#    0.000    0.000    0.000    0.000    0.000    0.000 
#    0.000    0.000    0.000    0.000    0.000    0.000 
#
# Total GULP energy -123141.431125 kJ/mol
# GULP energy per Si atom -5597.337778 kJ/mol
# Density = 2.252108 g / cm^3
# Si number density = 22.572452 Si / 1000 Ang^3
#
#
#
# Elastic Constant Matrix: (Units=GPa)
#
#
# Indices 1 2 3 4 5 6 
#
# 1 86.3192 34.6820 32.5632 0.0000 -1.4917 0.0000
# 2 34.6820 116.0092 27.0690 0.0000 1.3595 0.0000
# 3 32.5632 27.0690 158.1627 0.0000 -22.0498 0.0000
# 4 0.0000 0.0000 0.0000 27.4048 0.0000 11.6561
# 5 -1.4917 1.3595 -22.0498 0.0000 37.1178 0.0000
# 6 0.0000 0.0000 0.0000 11.6561 0.0000 16.7019
#
#
#
# Elastic Compliance Matrix: (Units=1/GPa)
#
#
# Indices 1 2 3 4 5 6 
#
# 1 0.013904 -0.003602 -0.002344 0.000000 -0.000702 0.000000
# 2 -0.003602 0.009974 -0.001130 0.000000 -0.001181 0.000000
# 3 -0.002344 -0.001130 0.007623 0.000000 0.004475 0.000000
# 4 0.000000 0.000000 0.000000 0.051894 0.000000 -0.036216
# 5 -0.000702 -0.001181 0.004475 0.000000 0.029615 0.000000
# 6 0.000000 0.000000 0.000000 -0.036216 0.000000 0.085149
#
#
# Mechanical properties :
#
#
# Convention : Reuss Voigt Hill
#
# Bulk Modulus (GPa) = 57.63974 61.01327 59.32651
# Shear Modulus (GPa) = 22.92596 33.99003 28.45800
#
# Velocity S-wave (km/s) = 3.19040 3.88470 3.55454
# Velocity P-wave (km/s) = 6.25799 6.87094 6.57161
#
# Compressibility (1/GPa) = 0.01734914
#
# Stress axis : x y z
#
# Youngs Moduli (GPa) = 71.92109 100.25762 131.18919
#
# Poissons Ratio (x) = 0.36109 0.30752
# Poissons Ratio (y) = 0.25903 0.14828
# Poissons Ratio (z) = 0.16859 0.11332
#
# Static dielectric constant tensor:
#      x y z
#    x 1.853240 0.000000 -0.015730 
#    y 0.000000 1.792110 0.000000 
#    z -0.015730 0.000000 1.840970 
# 
# From -- ./inp_files/257552.got.cif
#   From: 2010.05.17/outbox.cif.g08.bks.cpg/sg15_129_cif.got.tgz:257552.got - 2010.06.03 18:47:42.
