data_PCOD9293740
_publ_section_title
;
Structure prediction by ZEFSAII (Michael W. Deem and Ramdas Pophale) SiO2 
 PCOD9293740
Probable space group: C 2/C
;
_chemical_formula_sum "Si O2"
_cell_formula_units_Z 40
_cell_length_a 16.632386
_cell_length_b 9.029353
_cell_length_c 17.672067
_cell_angle_alpha 90.000000
_cell_angle_beta 140.126970
_cell_angle_gamma 90.000000
_cell_volume 1701.439400
_symmetry_space_group_name_H-M "C 2/C"
_symmetry_group_IT_number 15
_symmetry_cell_setting 'monoclinic'
loop_
_space_group_symop_operation_xyz
x,y,z
-x,y,1/2-z
-x,-y,-z
x,-y,1/2+z
1/2+x,1/2+y,z
1/2-x,1/2+y,1/2-z
1/2-x,1/2-y,-z
1/2+x,1/2-y,1/2+z
loop_
_atom_site_type_symbol
_atom_site_label
_atom_site_fract_x
_atom_site_fract_y
_atom_site_fract_z
Si Si1 0.648969 0.081010 0.359902
Si Si2 0.226473 0.605660 0.588426
Si Si3 0.183828 0.167206 0.519787
Si Si4 0.062434 0.997366 0.658794
Si Si5 0.508918 0.256186 0.504818
O O1 0.500000 0.081645 0.250000
O O2 0.707857 0.232337 0.371904
O O3 0.686721 0.065959 0.475211
O O4 0.713780 0.939374 0.367319
O O5 0.329206 0.503491 0.702194
O O6 0.102585 0.628154 0.549545
O O7 0.250000 0.250000 0.500000
O O8 0.109513 0.269772 0.525865
O O9 0.071579 0.060692 0.408300
O O10 0.040010 0.157669 0.604826
O O11 0.086594 0.881521 0.608148
#
# Coordination Sequence:
#
# PCOD9293740 Si02
#       5
#     8   8   8   8   8
#     4  11  24  40  68 100 135 179 231 279 336 397
#     4  11  21  41  71 104 132 174 233 281 333 410
#     4  10  22  47  65  95 137 181 221 276 347 398
#     4   9  19  40  70  94 133 180 221 272 347 390
#     4   9  19  44  65  93 134 178 213 279 335 394
#
# _framework density 23.509505000000001
#
# number of rings (size 3 to 8) (size 9 to 14) (size 15 to 20)
#    1.200    0.800    2.000    1.200    2.800    0.000 
#   14.400    1.000    0.000    0.000    0.000    0.000 
#    0.000    0.000    0.000    0.000    0.000    0.000 
#
# Total GULP energy -111798.120490 kJ/mol
# GULP energy per Si atom -5589.906024 kJ/mol
# Density = 2.345600 g / cm^3
# Si number density = 23.509505 Si / 1000 Ang^3
#
#
#
# Elastic Constant Matrix: (Units=GPa)
#
#
# Indices 1 2 3 4 5 6 
#
# 1 159.4892 31.6085 59.1661 0.0000 38.1130 0.0000
# 2 31.6085 51.9573 16.9904 0.0000 15.6374 0.0000
# 3 59.1661 16.9904 130.1155 0.0000 3.9622 0.0000
# 4 0.0000 0.0000 0.0000 13.6626 0.0000 9.0374
# 5 38.1130 15.6374 3.9622 0.0000 39.3650 0.0000
# 6 0.0000 0.0000 0.0000 9.0374 0.0000 48.2389
#
#
#
# Elastic Compliance Matrix: (Units=1/GPa)
#
#
# Indices 1 2 3 4 5 6 
#
# 1 0.010335 -0.002328 -0.004132 0.000000 -0.008665 0.000000
# 2 -0.002328 0.023297 -0.001776 0.000000 -0.006822 0.000000
# 3 -0.004132 -0.001776 0.009682 0.000000 0.003731 0.000000
# 4 0.000000 0.000000 0.000000 0.083546 0.000000 -0.015652
# 5 -0.008665 -0.006822 0.003731 0.000000 0.036127 0.000000
# 6 0.000000 0.000000 0.000000 -0.015652 0.000000 0.023663
#
#
# Mechanical properties :
#
#
# Convention : Reuss Voigt Hill
#
# Bulk Modulus (GPa) = 37.25354 61.89912 49.57633
# Shear Modulus (GPa) = 23.57727 35.83977 29.70852
#
# Velocity S-wave (km/s) = 3.17027 3.90869 3.55869
# Velocity P-wave (km/s) = 5.41123 6.83792 6.16597
#
# Compressibility (1/GPa) = 0.02684309
#
# Stress axis : x y z
#
# Youngs Moduli (GPa) = 96.75928 42.92462 103.27968
#
# Poissons Ratio (x) = 0.09994 0.42671
# Poissons Ratio (y) = 0.22528 0.18339
# Poissons Ratio (z) = 0.39977 0.07622
#
# Static dielectric constant tensor:
#      x y z
#    x 1.899510 0.000000 0.003450 
#    y 0.000000 1.998970 0.000000 
#    z 0.003450 0.000000 1.838790 
# 
# From -- ./inp_files/204255.got.cif
#   From: 2010.05.17/outbox.cif.g08.bks.cpg/sg15_103_cif.got.tgz:204255.got - 2010.06.03 18:47:42.
