data_PCOD9293573
_publ_section_title
;
Structure prediction by ZEFSAII (Michael W. Deem and Ramdas Pophale) SiO2 
 PCOD9293573
Probable space group: C 2/C
;
_chemical_formula_sum "Si O2"
_cell_formula_units_Z 40
_cell_length_a 5.533661
_cell_length_b 25.159136
_cell_length_c 13.969870
_cell_angle_alpha 90.000000
_cell_angle_beta 110.289079
_cell_angle_gamma 90.000000
_cell_volume 1824.242888
_symmetry_space_group_name_H-M "C 2/C"
_symmetry_group_IT_number 15
_symmetry_cell_setting 'monoclinic'
loop_
_space_group_symop_operation_xyz
x,y,z
-x,y,1/2-z
-x,-y,-z
x,-y,1/2+z
1/2+x,1/2+y,z
1/2-x,1/2+y,1/2-z
1/2-x,1/2-y,-z
1/2+x,1/2-y,1/2+z
loop_
_atom_site_type_symbol
_atom_site_label
_atom_site_fract_x
_atom_site_fract_y
_atom_site_fract_z
Si Si1 0.048686 0.618758 0.144270
Si Si2 0.198621 0.166214 0.693435
Si Si3 0.050991 0.919453 0.461104
Si Si4 0.058586 0.264947 0.561791
Si Si5 0.262303 0.481295 0.587381
O O1 0.000000 0.628376 0.250000
O O2 0.120511 0.674799 0.104187
O O3 0.216372 0.563918 0.160471
O O4 0.806492 0.602801 0.045116
O O5 0.500000 0.158461 0.750000
O O6 0.142452 0.226644 0.659008
O O7 0.000000 0.151624 0.750000
O O8 0.119392 0.129198 0.595029
O O9 0.913741 0.950409 0.526642
O O10 0.097588 0.961870 0.381410
O O11 0.250000 0.250000 0.500000
O O12 0.750000 0.250000 0.500000
O O13 0.000000 0.500000 0.500000
#
# Coordination Sequence:
#
# PCOD9293573 Si02
#       5
#     8   8   8   8   8
#     4  11  24  43  72 105 141 187 244 303 371 438
#     4  12  27  46  73 108 140 186 246 292 359 439
#     4  10  22  46  68  99 144 188 236 304 363 434
#     4  12  25  47  77 100 148 193 234 303 372 429
#     4   9  21  43  69  95 143 186 240 294 367 435
#
# _framework density 21.926907
#
# number of rings (size 3 to 8) (size 9 to 14) (size 15 to 20)
#    0.000    1.200    2.000    3.000    5.600    0.800 
#   10.800    0.000    0.000    0.000    0.000    0.000 
#    0.000    0.000    0.000    0.000    0.000    0.000 
#
# Total GULP energy -111488.530618 kJ/mol
# GULP energy per Si atom -5574.426531 kJ/mol
# Density = 2.187700 g / cm^3
# Si number density = 21.926907 Si / 1000 Ang^3
#
#
#
# Elastic Constant Matrix: (Units=GPa)
#
#
# Indices 1 2 3 4 5 6 
#
# 1 97.5877 38.0935 32.9766 0.0000 2.9061 0.0000
# 2 38.0935 161.2854 42.4875 0.0000 -9.3512 0.0000
# 3 32.9766 42.4875 76.1718 0.0000 -4.6706 0.0000
# 4 0.0000 0.0000 0.0000 16.8615 0.0000 -26.1303
# 5 2.9061 -9.3512 -4.6706 0.0000 39.6318 0.0000
# 6 0.0000 0.0000 0.0000 -26.1303 0.0000 23.4609
#
#
#
# Elastic Compliance Matrix: (Units=1/GPa)
#
#
# Indices 1 2 3 4 5 6 
#
# 1 0.012563 -0.001892 -0.004500 0.000000 -0.001898 0.000000
# 2 -0.001892 0.007615 -0.003334 0.000000 0.001543 0.000000
# 3 -0.004500 -0.003334 0.017031 0.000000 0.001550 0.000000
# 4 0.000000 0.000000 0.000000 -0.081687 0.000000 -0.090981
# 5 -0.001898 0.001543 0.001550 0.000000 0.025918 0.000000
# 6 0.000000 0.000000 0.000000 -0.090981 0.000000 -0.058709
#
#
# Mechanical properties :
#
#
# Convention : Reuss Voigt Hill
#
# Bulk Modulus (GPa) = 56.31433 62.46224 59.38829
# Shear Modulus (GPa) = -96.33937 30.75667 -32.79135
#
# Velocity S-wave (km/s) = -6.63566 3.74931 -3.87134
# Velocity P-wave (km/s) = 5.74202 6.87689 2.67589
#
# Compressibility (1/GPa) = 0.01775747
#
# Stress axis : x y z
#
# Youngs Moduli (GPa) = 79.60032 131.32573 58.71680
#
# Poissons Ratio (x) = 0.24844 0.26422
# Poissons Ratio (y) = 0.15059 0.19575
# Poissons Ratio (z) = 0.35819 0.43781
#
# Static dielectric constant tensor:
#      x y z
#    x 1.876310 0.000000 0.014330 
#    y 0.000000 1.859700 0.000000 
#    z 0.014330 0.000000 1.810010 
# 
# From -- ./inp_files/129547.got.cif
#   From: 2010.05.17/outbox.cif.g08.bks.cpg/sg15_65_cif.got.tgz:129547.got - 2010.06.03 18:47:42.
