data_PCOD9293527
_publ_section_title
;
Structure prediction by ZEFSAII (Michael W. Deem and Ramdas Pophale) SiO2 
 PCOD9293527
Probable space group: C 2/C
;
_chemical_formula_sum "Si O2"
_cell_formula_units_Z 44
_cell_length_a 10.790090
_cell_length_b 8.330179
_cell_length_c 25.553917
_cell_angle_alpha 90.000000
_cell_angle_beta 46.817232
_cell_angle_gamma 90.000000
_cell_volume 1674.820772
_symmetry_space_group_name_H-M "C 2/C"
_symmetry_group_IT_number 15
_symmetry_cell_setting 'monoclinic'
loop_
_space_group_symop_operation_xyz
x,y,z
-x,y,1/2-z
-x,-y,-z
x,-y,1/2+z
1/2+x,1/2+y,z
1/2-x,1/2+y,1/2-z
1/2-x,1/2-y,-z
1/2+x,1/2-y,1/2+z
loop_
_atom_site_type_symbol
_atom_site_label
_atom_site_fract_x
_atom_site_fract_y
_atom_site_fract_z
Si Si1 0.412397 0.238245 0.888507
Si Si2 0.500000 0.293446 0.750000
Si Si3 0.225908 0.065268 0.323695
Si Si4 0.657267 0.206351 0.312494
Si Si5 0.757799 0.693149 0.431030
Si Si6 0.178387 0.481449 0.000645
O O1 0.451655 0.199260 0.817475
O O2 0.536698 0.381998 0.864728
O O3 0.448820 0.100378 0.920238
O O4 0.234014 0.325454 0.951208
O O5 0.677855 0.390869 0.710740
O O6 0.340410 0.163228 0.249408
O O7 0.249482 0.117966 0.376357
O O8 0.227222 0.881264 0.307001
O O9 0.460190 0.209515 0.385619
O O10 0.695586 0.562112 0.491704
O O11 0.663262 0.864293 0.466962
#
# Coordination Sequence:
#
# PCOD9293527 Si02
#       6
#     8   4   8   8   8   8
#     4  10  22  46  67 103 144 186 241 294 357 425
#     4  10  24  44  72  96 140 184 230 302 352 412
#     4  11  25  43  72 103 144 188 239 302 356 426
#     4  11  25  45  70 107 139 186 244 296 362 428
#     4  11  24  45  70 101 141 189 240 294 357 433
#     4  10  23  45  66 102 144 187 239 288 361 432
#
# _framework density 26.271467999999999
#
# number of rings (size 3 to 8) (size 9 to 14) (size 15 to 20)
#    0.000    1.455    1.818    1.636    7.636    4.364 
#   13.091    0.000    0.000    0.000    0.000    0.000 
#    0.000    0.000    0.000    0.000    0.000    0.000 
#
# Total GULP energy -122525.403533 kJ/mol
# GULP energy per Si atom -5569.336524 kJ/mol
# Density = 2.621167 g / cm^3
# Si number density = 26.271468 Si / 1000 Ang^3
#
#
#
# Elastic Constant Matrix: (Units=GPa)
#
#
# Indices 1 2 3 4 5 6 
#
# 1 83.9166 7.5079 29.3986 0.0000 10.0478 0.0000
# 2 7.5079 131.9605 51.3364 0.0000 18.3031 0.0000
# 3 29.3986 51.3364 175.2344 0.0000 22.7846 0.0000
# 4 0.0000 0.0000 0.0000 40.7252 0.0000 -7.8738
# 5 10.0478 18.3031 22.7846 0.0000 42.6455 0.0000
# 6 0.0000 0.0000 0.0000 -7.8738 0.0000 14.5137
#
#
#
# Elastic Compliance Matrix: (Units=1/GPa)
#
#
# Indices 1 2 3 4 5 6 
#
# 1 0.012832 0.000331 -0.001975 0.000000 -0.002110 0.000000
# 2 0.000331 0.008818 -0.002296 0.000000 -0.002636 0.000000
# 3 -0.001975 -0.002296 0.007009 0.000000 -0.002294 0.000000
# 4 0.000000 0.000000 0.000000 0.027432 0.000000 0.014882
# 5 -0.002110 -0.002636 -0.002294 0.000000 0.026303 0.000000
# 6 0.000000 0.000000 0.000000 0.014882 0.000000 0.076974
#
#
# Mechanical properties :
#
#
# Convention : Reuss Voigt Hill
#
# Bulk Modulus (GPa) = 48.12833 63.06639 55.59736
# Shear Modulus (GPa) = 28.70676 39.76811 34.23743
#
# Velocity S-wave (km/s) = 3.30918 3.89490 3.61393
# Velocity P-wave (km/s) = 5.74111 6.65468 6.21470
#
# Compressibility (1/GPa) = 0.02077778
#
# Stress axis : x y z
#
# Youngs Moduli (GPa) = 77.93227 113.40378 142.67418
#
# Poissons Ratio (x) = -0.03755 0.28184
# Poissons Ratio (y) = -0.02580 0.32760
# Poissons Ratio (z) = 0.15395 0.26039
#
# Static dielectric constant tensor:
#      x y z
#    x 2.181470 0.000000 -0.069510 
#    y 0.000000 2.218740 0.000000 
#    z -0.069510 0.000000 2.139570 
# 
# From -- ./inp_files/272545.got.cif
#   From: 2010.05.17/outbox.cif.g08.bks.cpg/sg15_137_cif.got.tgz:272545.got - 2010.06.03 18:47:42.
