data_PCOD9293596
_publ_section_title
;
Structure prediction by ZEFSAII (Michael W. Deem and Ramdas Pophale) SiO2 
 PCOD9293596
Probable space group: C 2/C
;
_chemical_formula_sum "Si O2"
_cell_formula_units_Z 48
_cell_length_a 17.454709
_cell_length_b 7.545353
_cell_length_c 23.440345
_cell_angle_alpha 90.000000
_cell_angle_beta 142.488660
_cell_angle_gamma 90.000000
_cell_volume 1879.815816
_symmetry_space_group_name_H-M "C 2/C"
_symmetry_group_IT_number 15
_symmetry_cell_setting 'monoclinic'
loop_
_space_group_symop_operation_xyz
x,y,z
-x,y,1/2-z
-x,-y,-z
x,-y,1/2+z
1/2+x,1/2+y,z
1/2-x,1/2+y,1/2-z
1/2-x,1/2-y,-z
1/2+x,1/2-y,1/2+z
loop_
_atom_site_type_symbol
_atom_site_label
_atom_site_fract_x
_atom_site_fract_y
_atom_site_fract_z
Si Si1 0.876355 0.357596 0.581081
Si Si2 0.500000 0.999780 0.750000
Si Si3 0.365388 0.125922 0.474310
Si Si4 0.866017 0.722546 0.897236
Si Si5 0.881510 0.131720 0.812572
Si Si6 0.103489 0.173124 0.269496
Si Si7 0.000000 0.000000 0.000000
O O1 0.750000 0.250000 0.500000
O O2 0.893632 0.388354 0.658363
O O3 0.865092 0.531921 0.534979
O O4 0.004981 0.258829 0.639154
O O5 0.450555 0.130609 0.770337
O O6 0.372368 0.965840 0.432108
O O7 0.486937 0.256345 0.538826
O O8 0.230606 0.203478 0.379990
O O9 0.753009 0.716599 0.785785
O O10 0.876944 0.878664 0.948919
O O11 0.885350 0.951632 0.777709
O O12 0.905786 0.085413 0.892249
O O13 0.000000 0.084203 0.250000
#
# Coordination Sequence:
#
# PCOD9293596 Si02
#       7
#     8   4   8   8   8   8   4
#     4  12  27  45  71 110 145 192 237 307 372 452
#     4  10  28  44  76 104 138 192 244 290 384 430
#     4  10  22  46  70 101 147 182 243 301 369 433
#     4  10  25  43  71 104 141 196 242 307 358 439
#     4  11  26  45  74 105 156 188 250 305 374 448
#     4   9  22  47  73 108 137 191 238 310 364 445
#     4  12  26  46  74 108 146 202 248 302 380 436
#
# _framework density 25.534416
#
# number of rings (size 3 to 8) (size 9 to 14) (size 15 to 20)
#    0.500    1.000    1.667    1.000   10.500    4.667 
#    0.000    0.000    0.000    0.000    0.000    0.000 
#    0.000    0.000    0.000    0.000    0.000    0.000 
#
# Total GULP energy -133762.091657 kJ/mol
# GULP energy per Si atom -5573.420486 kJ/mol
# Density = 2.547630 g / cm^3
# Si number density = 25.534416 Si / 1000 Ang^3
#
#
#
# Elastic Constant Matrix: (Units=GPa)
#
#
# Indices 1 2 3 4 5 6 
#
# 1 71.2192 8.3991 55.9043 0.0000 10.8140 0.0000
# 2 8.3991 49.3795 59.9323 0.0000 5.1745 -0.0001
# 3 55.9043 59.9323 259.8706 0.0000 -1.2913 0.0000
# 4 0.0000 0.0000 0.0000 41.9333 0.0000 -12.2753
# 5 10.8140 5.1745 -1.2913 0.0000 42.0858 0.0000
# 6 0.0000 -0.0001 0.0000 -12.2753 0.0000 18.7439
#
#
#
# Elastic Compliance Matrix: (Units=1/GPa)
#
#
# Indices 1 2 3 4 5 6 
#
# 1 0.018097 0.003083 -0.004630 0.000000 -0.005171 0.000000
# 2 0.003083 0.029223 -0.007426 0.000000 -0.004613 0.000000
# 3 -0.004630 -0.007426 0.006568 0.000000 0.002304 0.000000
# 4 0.000000 0.000000 0.000000 0.029504 0.000000 0.019322
# 5 -0.005171 -0.004613 0.002304 0.000000 0.025728 0.000000
# 6 0.000000 0.000000 0.000000 0.019322 0.000000 0.066004
#
#
# Mechanical properties :
#
#
# Convention : Reuss Voigt Hill
#
# Bulk Modulus (GPa) = 27.82194 69.88229 48.85212
# Shear Modulus (GPa) = 24.38441 37.63485 31.00963
#
# Velocity S-wave (km/s) = 3.09360 3.84329 3.48864
# Velocity P-wave (km/s) = 4.86621 6.86453 5.94986
#
# Compressibility (1/GPa) = 0.03594286
#
# Stress axis : x y z
#
# Youngs Moduli (GPa) = 55.25792 34.21985 152.25324
#
# Poissons Ratio (x) = -0.10550 0.70490
# Poissons Ratio (y) = -0.17035 1.13057
# Poissons Ratio (z) = 0.25583 0.25410
#
# Static dielectric constant tensor:
#      x y z
#    x 1.936690 0.000000 0.108780 
#    y 0.000000 1.894980 0.000000 
#    z 0.108780 0.000000 1.866360 
# 
# From -- ./inp_files/300584.got.cif
#   From: 2010.05.17/outbox.cif.g08.bks.cpg/sg15_151_cif.got.tgz:300584.got - 2010.06.03 18:47:42.
