data_PCOD9293774
_publ_section_title
;
Structure prediction by ZEFSAII (Michael W. Deem and Ramdas Pophale) SiO2 
 PCOD9293774
Probable space group: C 2/C
;
_chemical_formula_sum "Si O2"
_cell_formula_units_Z 36
_cell_length_a 11.924410
_cell_length_b 15.651901
_cell_length_c 10.665420
_cell_angle_alpha 90.000000
_cell_angle_beta 130.584593
_cell_angle_gamma 90.000000
_cell_volume 1511.746637
_symmetry_space_group_name_H-M "C 2/C"
_symmetry_group_IT_number 15
_symmetry_cell_setting 'monoclinic'
loop_
_space_group_symop_operation_xyz
x,y,z
-x,y,1/2-z
-x,-y,-z
x,-y,1/2+z
1/2+x,1/2+y,z
1/2-x,1/2+y,1/2-z
1/2-x,1/2-y,-z
1/2+x,1/2-y,1/2+z
loop_
_atom_site_type_symbol
_atom_site_label
_atom_site_fract_x
_atom_site_fract_y
_atom_site_fract_z
Si Si1 0.745397 0.013391 0.363478
Si Si2 0.011352 0.752888 0.529031
Si Si3 0.000000 0.372585 0.250000
Si Si4 0.978408 0.924312 0.864824
Si Si5 0.682783 0.203568 0.330791
O O1 0.818817 0.036395 0.280637
O O2 0.680140 0.103222 0.357209
O O3 0.632518 0.936150 0.301589
O O4 0.898066 0.996913 0.547671
O O5 0.962981 0.852204 0.497823
O O6 0.187117 0.768476 0.673206
O O7 0.961382 0.687829 0.601978
O O8 0.962387 0.722201 0.355803
O O9 0.000000 0.877451 0.750000
O O10 0.750000 0.250000 0.500000
#
# Coordination Sequence:
#
# PCOD9293774 Si02
#       5
#     8   8   4   8   8
#     4  10  26  41  69 107 147 186 237 301 365 421
#     4  11  25  44  77 102 145 191 243 295 368 423
#     4  12  26  44  74 118 146 178 242 320 362 420
#     4  10  22  47  71 102 140 199 242 289 352 459
#     4  11  26  48  69 103 144 200 238 295 359 445
#
# _framework density 23.813513
#
# number of rings (size 3 to 8) (size 9 to 14) (size 15 to 20)
#    0.000    1.333    1.111    2.000    9.333    9.778 
#    0.000    0.000    0.000    0.000    0.000    0.000 
#    0.000    0.000    0.000    0.000    0.000    0.000 
#
# Total GULP energy -100212.977121 kJ/mol
# GULP energy per Si atom -5567.387618 kJ/mol
# Density = 2.375931 g / cm^3
# Si number density = 23.813513 Si / 1000 Ang^3
#
#
#
# Elastic Constant Matrix: (Units=GPa)
#
#
# Indices 1 2 3 4 5 6 
#
# 1 105.2310 49.9182 30.0254 0.0000 15.1903 0.0000
# 2 49.9182 149.3201 52.2137 0.0000 -0.7521 0.0000
# 3 30.0254 52.2137 84.4489 0.0000 4.9363 0.0000
# 4 0.0000 0.0000 0.0000 29.6199 0.0000 0.6301
# 5 15.1903 -0.7521 4.9363 0.0000 47.2395 0.0000
# 6 0.0000 0.0000 0.0000 0.6301 0.0000 14.1589
#
#
#
# Elastic Compliance Matrix: (Units=1/GPa)
#
#
# Indices 1 2 3 4 5 6 
#
# 1 0.012241 -0.003402 -0.002028 0.000000 -0.003778 0.000000
# 2 -0.003402 0.009512 -0.004774 0.000000 0.001744 0.000000
# 3 -0.002028 -0.004774 0.015575 0.000000 -0.001051 0.000000
# 4 0.000000 0.000000 0.000000 0.033793 0.000000 -0.001504
# 5 -0.003778 0.001744 -0.001051 0.000000 0.022521 0.000000
# 6 0.000000 0.000000 0.000000 -0.001504 0.000000 0.070694
#
#
# Mechanical properties :
#
#
# Convention : Reuss Voigt Hill
#
# Bulk Modulus (GPa) = 59.09707 67.03496 63.06601
# Shear Modulus (GPa) = 26.26262 31.99318 29.12790
#
# Velocity S-wave (km/s) = 3.32451 3.66934 3.50117
# Velocity P-wave (km/s) = 6.29341 6.79435 6.54867
#
# Compressibility (1/GPa) = 0.01692131
#
# Stress axis : x y z
#
# Youngs Moduli (GPa) = 81.69429 105.12594 64.20350
#
# Poissons Ratio (x) = 0.35765 0.13019
# Poissons Ratio (y) = 0.27793 0.30649
# Poissons Ratio (z) = 0.16566 0.50185
#
# Static dielectric constant tensor:
#      x y z
#    x 2.154050 0.000000 -0.054950 
#    y 0.000000 1.891820 0.000000 
#    z -0.054950 0.000000 1.996920 
# 
# From -- ./inp_files/46874.got.cif
#   From: 2010.05.17/outbox.cif.g08.bks.cpg/sg15_24_cif.got.tgz:46874.got - 2010.06.03 18:47:42.
