data_PCOD9293756
_publ_section_title
;
Structure prediction by ZEFSAII (Michael W. Deem and Ramdas Pophale) SiO2 
 PCOD9293756
Probable space group: C 2/C
;
_chemical_formula_sum "Si O2"
_cell_formula_units_Z 32
_cell_length_a 7.885524
_cell_length_b 21.940825
_cell_length_c 12.555761
_cell_angle_alpha 90.000000
_cell_angle_beta 136.536651
_cell_angle_gamma 90.000000
_cell_volume 1494.327598
_symmetry_space_group_name_H-M "C 2/C"
_symmetry_group_IT_number 15
_symmetry_cell_setting 'monoclinic'
loop_
_space_group_symop_operation_xyz
x,y,z
-x,y,1/2-z
-x,-y,-z
x,-y,1/2+z
1/2+x,1/2+y,z
1/2-x,1/2+y,1/2-z
1/2-x,1/2-y,-z
1/2+x,1/2-y,1/2+z
loop_
_atom_site_type_symbol
_atom_site_label
_atom_site_fract_x
_atom_site_fract_y
_atom_site_fract_z
Si Si1 0.494576 0.789142 0.522096
Si Si2 0.000000 0.136590 0.750000
Si Si3 0.000000 0.353542 0.750000
Si Si4 0.245921 0.677766 0.927750
Si Si5 0.485282 0.570630 0.519715
O O1 0.240176 0.819959 0.367906
O O2 0.530399 0.812269 0.658013
O O3 0.529426 0.716395 0.523007
O O4 0.702512 0.809188 0.531881
O O5 0.012985 0.092159 0.654431
O O6 0.768103 0.398629 0.633987
O O7 0.298416 0.606983 0.940594
O O8 0.000000 0.694264 0.750000
O O9 0.500000 0.500000 0.500000
#
# Coordination Sequence:
#
# PCOD9293756 Si02
#       5
#     8   4   4   8   8
#     4  10  24  43  70  99 132 169 216 276 339 381
#     4  10  22  47  68  98 132 173 218 278 322 393
#     4  10  26  43  68 102 132 171 222 276 324 393
#     4  11  24  43  68  98 134 172 219 272 330 395
#     4  11  26  43  67  95 134 179 220 266 324 390
#
# _framework density 21.414314999999998
#
# number of rings (size 3 to 8) (size 9 to 14) (size 15 to 20)
#    0.000    1.500    2.500    0.000    8.750    8.000 
#    0.000    5.000    0.000    0.000    0.000    0.000 
#    0.000    0.000    0.000    0.000    0.000    0.000 
#
# Total GULP energy -89475.663286 kJ/mol
# GULP energy per Si atom -5592.228955 kJ/mol
# Density = 2.136558 g / cm^3
# Si number density = 21.414315 Si / 1000 Ang^3
#
#
#
# Elastic Constant Matrix: (Units=GPa)
#
#
# Indices 1 2 3 4 5 6 
#
# 1 124.6152 72.9293 55.1973 0.0000 -25.8061 0.0000
# 2 72.9293 208.2657 67.4278 0.0000 -6.1869 0.0000
# 3 55.1973 67.4278 132.5671 0.0000 -8.3411 0.0000
# 4 0.0000 0.0000 0.0000 19.8095 0.0000 2.6106
# 5 -25.8061 -6.1869 -8.3411 0.0000 31.6375 0.0000
# 6 0.0000 0.0000 0.0000 2.6106 0.0000 36.0909
#
#
#
# Elastic Compliance Matrix: (Units=1/GPa)
#
#
# Indices 1 2 3 4 5 6 
#
# 1 0.013380 -0.003345 -0.003279 0.000000 0.009395 0.000000
# 2 -0.003345 0.006588 -0.002083 0.000000 -0.001989 0.000000
# 3 -0.003279 -0.002083 0.009939 0.000000 -0.000461 0.000000
# 4 0.000000 0.000000 0.000000 0.050967 0.000000 -0.003687
# 5 0.009395 -0.001989 -0.000461 0.000000 0.038761 0.000000
# 6 0.000000 0.000000 0.000000 -0.003687 0.000000 0.027974
#
#
# Mechanical properties :
#
#
# Convention : Reuss Voigt Hill
#
# Bulk Modulus (GPa) = 80.04050 95.17297 87.60674
# Shear Modulus (GPa) = 29.55290 35.50050 32.52670
#
# Velocity S-wave (km/s) = 3.71894 4.07602 3.90156
# Velocity P-wave (km/s) = 7.47656 8.16652 7.82914
#
# Compressibility (1/GPa) = 0.01249368
#
# Stress axis : x y z
#
# Youngs Moduli (GPa) = 74.73787 151.78510 100.61156
#
# Poissons Ratio (x) = 0.50768 0.32988
# Poissons Ratio (y) = 0.24998 0.20962
# Poissons Ratio (z) = 0.24504 0.31624
#
# Static dielectric constant tensor:
#      x y z
#    x 1.793200 0.000000 0.007860 
#    y 0.000000 1.755310 0.000000 
#    z 0.007860 0.000000 1.831070 
# 
# From -- ./inp_files/135705.got.cif
#   From: 2010.05.17/outbox.cif.g08.bks.cpg/sg15_68_cif.got.tgz:135705.got - 2010.06.03 18:47:42.
