data_PCOD9293562
_publ_section_title
;
Structure prediction by ZEFSAII (Michael W. Deem and Ramdas Pophale) SiO2 
 PCOD9293562
Probable space group: C 2/C
;
_chemical_formula_sum "Si O2"
_cell_formula_units_Z 56
_cell_length_a 8.851001
_cell_length_b 15.579174
_cell_length_c 26.860124
_cell_angle_alpha 90.000000
_cell_angle_beta 40.547243
_cell_angle_gamma 90.000000
_cell_volume 2407.732159
_symmetry_space_group_name_H-M "C 2/C"
_symmetry_group_IT_number 15
_symmetry_cell_setting 'monoclinic'
loop_
_space_group_symop_operation_xyz
x,y,z
-x,y,1/2-z
-x,-y,-z
x,-y,1/2+z
1/2+x,1/2+y,z
1/2-x,1/2+y,1/2-z
1/2-x,1/2-y,-z
1/2+x,1/2-y,1/2+z
loop_
_atom_site_type_symbol
_atom_site_label
_atom_site_fract_x
_atom_site_fract_y
_atom_site_fract_z
Si Si1 0.307124 0.324298 0.722648
Si Si2 0.798680 0.897698 0.108455
Si Si3 0.000000 0.290041 0.250000
Si Si4 0.919939 0.421049 0.863690
Si Si5 0.189142 0.062084 0.156975
Si Si6 0.000000 0.802129 0.250000
Si Si7 0.125817 0.769579 0.977759
Si Si8 0.842816 0.891413 0.388958
O O1 0.303354 0.272124 0.776428
O O2 0.566818 0.360473 0.657705
O O3 0.122436 0.401901 0.772536
O O4 0.221511 0.259429 0.702834
O O5 0.575084 0.851422 0.187103
O O6 0.984593 0.899172 0.107207
O O7 0.729314 0.993161 0.108219
O O8 0.901780 0.828328 0.044139
O O9 0.775734 0.334117 0.906031
O O10 0.064951 0.427784 0.878326
O O11 0.000000 0.045484 0.250000
O O12 0.223168 0.985764 0.110379
O O13 0.028874 0.855797 0.192669
O O14 0.134739 0.675288 0.951647
O O15 0.250000 0.750000 0.000000
#
# Coordination Sequence:
#
# PCOD9293562 Si02
#       8
#     8   8   4   8   8   4   8   8
#     4  11  23  38  64  98 138 172 221 279 344 396
#     4  11  26  39  72  97 132 174 235 279 347 406
#     4  12  22  44  66  98 130 178 226 284 340 416
#     4  11  22  43  67  96 135 176 221 278 340 409
#     4  10  23  38  60  97 138 170 215 285 342 393
#     4  12  22  38  66  98 134 176 226 284 332 404
#     4  10  22  46  68  93 133 182 228 279 339 412
#     4  11  23  41  64  96 134 175 225 281 339 401
#
# _framework density 23.258400000000002
#
# number of rings (size 3 to 8) (size 9 to 14) (size 15 to 20)
#    0.000    1.143    5.714    1.286    8.000    0.000 
#    0.000    3.571    0.000    0.000    0.000    0.000 
#    0.000    0.000    0.000    0.000    0.000    0.000 
#
# Total GULP energy -156287.870962 kJ/mol
# GULP energy per Si atom -5581.709677 kJ/mol
# Density = 2.320546 g / cm^3
# Si number density = 23.258400 Si / 1000 Ang^3
#
#
#
# Elastic Constant Matrix: (Units=GPa)
#
#
# Indices 1 2 3 4 5 6 
#
# 1 93.1418 39.6319 6.8627 0.0116 -3.7054 -0.0113
# 2 39.6319 109.2145 -5.2874 -0.0450 -1.2193 0.0390
# 3 6.8627 -5.2874 28.0717 -0.0155 -0.0928 0.0059
# 4 0.0116 -0.0450 -0.0155 -119.9466 -0.0526 123.1714
# 5 -3.7054 -1.2193 -0.0928 -0.0526 14.2715 0.0495
# 6 -0.0113 0.0390 0.0059 123.1714 0.0495 -66.7390
#
#
#
# Elastic Compliance Matrix: (Units=1/GPa)
#
#
# Indices 1 2 3 4 5 6 
#
# 1 0.013287 -0.004990 -0.004178 0.000001 0.002996 -0.000001
# 2 -0.004990 0.011124 0.003314 -0.000003 -0.000324 0.000002
# 3 -0.004178 0.003314 0.037267 0.000001 -0.000559 0.000007
# 4 0.000001 -0.000003 0.000001 0.009313 -0.000025 0.017188
# 5 0.002996 -0.000324 -0.000559 -0.000025 0.070816 0.000005
# 6 -0.000001 0.000002 0.000007 0.017188 0.000005 0.016738
#
#
# Mechanical properties :
#
#
# Convention : Reuss Voigt Hill
#
# Bulk Modulus (GPa) = 20.01250 34.76027 27.38638
# Shear Modulus (GPa) = 26.75082 -21.86809 2.44137
#
# Velocity S-wave (km/s) = 3.39508 -3.06963 1.02565
# Velocity P-wave (km/s) = 4.89814 1.55376 3.63359
#
# Compressibility (1/GPa) = 0.04996877
#
# Stress axis : x y z
#
# Youngs Moduli (GPa) = 75.26286 89.89552 26.83349
#
# Poissons Ratio (x) = 0.44861 0.11212
# Poissons Ratio (y) = 0.37559 -0.08893
# Poissons Ratio (z) = 0.31447 -0.29793
#
# Static dielectric constant tensor:
#      x y z
#    x 1.897560 0.000000 -0.003090 
#    y 0.000000 1.888500 0.000000 
#    z -0.003090 0.000000 1.943800 
# 
# From -- ./inp_files/289733.got.cif
#   From: 2010.05.17/outbox.cif.g08.bks.cpg/sg15_145_cif.got.tgz:289733.got - 2010.06.03 18:47:42.
