data_PCOD9293328
_publ_section_title
;
Structure prediction by ZEFSAII (Michael W. Deem and Ramdas Pophale) SiO2 
 PCOD9293328
Probable space group: C 2/C
;
_chemical_formula_sum "Si O2"
_cell_formula_units_Z 40
_cell_length_a 11.608991
_cell_length_b 9.183580
_cell_length_c 22.213763
_cell_angle_alpha 90.000000
_cell_angle_beta 57.811939
_cell_angle_gamma 90.000000
_cell_volume 2004.264854
_symmetry_space_group_name_H-M "C 2/C"
_symmetry_group_IT_number 15
_symmetry_cell_setting 'monoclinic'
loop_
_space_group_symop_operation_xyz
x,y,z
-x,y,1/2-z
-x,-y,-z
x,-y,1/2+z
1/2+x,1/2+y,z
1/2-x,1/2+y,1/2-z
1/2-x,1/2-y,-z
1/2+x,1/2-y,1/2+z
loop_
_atom_site_type_symbol
_atom_site_label
_atom_site_fract_x
_atom_site_fract_y
_atom_site_fract_z
Si Si1 0.867277 0.644208 0.357997
Si Si2 0.925637 0.152620 0.030180
Si Si3 0.595568 0.843068 0.892147
Si Si4 0.684700 0.156944 0.845711
Si Si5 0.351161 0.152281 0.785637
O O1 0.735412 0.635676 0.439044
O O2 0.830312 0.783103 0.327230
O O3 0.861413 0.500351 0.318467
O O4 0.004269 0.656596 0.357053
O O5 0.915506 0.215168 0.101399
O O6 0.002397 0.270988 0.968909
O O7 0.000000 0.000000 0.000000
O O8 0.729917 0.746726 0.846434
O O9 0.641316 0.008427 0.889931
O O10 0.678139 0.133177 0.776804
O O11 0.500000 0.223587 0.750000
#
# Coordination Sequence:
#
# PCOD9293328 Si02
#       5
#     8   8   8   8   8
#     4  10  24  44  70  97 137 177 218 283 338 398
#     4  10  22  45  70 102 136 178 224 280 340 402
#     4  12  22  46  70  96 141 174 229 282 332 406
#     4  10  24  40  68 101 132 178 227 265 344 398
#     4  12  24  45  66  98 138 180 222 282 338 399
#
# _framework density 19.957443000000001
#
# number of rings (size 3 to 8) (size 9 to 14) (size 15 to 20)
#    1.200    0.000    4.000    2.400    0.000    0.000 
#   10.800    2.000    0.000    0.000    0.000    0.000 
#    0.000    0.000    0.000    0.000    0.000    0.000 
#
# Total GULP energy -111528.103246 kJ/mol
# GULP energy per Si atom -5576.405162 kJ/mol
# Density = 1.991202 g / cm^3
# Si number density = 19.957443 Si / 1000 Ang^3
#
#
#
# Elastic Constant Matrix: (Units=GPa)
#
#
# Indices 1 2 3 4 5 6 
#
# 1 104.7177 23.5822 13.4020 0.0000 -21.9027 0.0000
# 2 23.5822 64.2595 15.0911 0.0000 -9.5825 0.0000
# 3 13.4020 15.0911 87.3436 0.0000 -17.8108 0.0000
# 4 0.0000 0.0000 0.0000 8.5160 0.0000 13.3264
# 5 -21.9027 -9.5825 -17.8108 0.0000 32.0458 0.0000
# 6 0.0000 0.0000 0.0000 13.3264 0.0000 18.2036
#
#
#
# Elastic Compliance Matrix: (Units=1/GPa)
#
#
# Indices 1 2 3 4 5 6 
#
# 1 0.011766 -0.003301 0.000230 0.000000 0.007182 0.000000
# 2 -0.003301 0.017548 -0.002160 0.000000 0.001791 0.000000
# 3 0.000230 -0.002160 0.013181 0.000000 0.006837 0.000000
# 4 0.000000 0.000000 0.000000 -0.806523 0.000000 0.590437
# 5 0.007182 0.001791 0.006837 0.000000 0.040450 0.000000
# 6 0.000000 0.000000 0.000000 0.590437 0.000000 -0.377310
#
#
# Mechanical properties :
#
#
# Convention : Reuss Voigt Hill
#
# Bulk Modulus (GPa) = 31.21919 40.05239 35.63579
# Shear Modulus (GPa) = -4.63070 25.36944 10.36937
#
# Velocity S-wave (km/s) = -1.52490 3.56922 2.28189
# Velocity P-wave (km/s) = 3.54632 6.09084 4.98371
#
# Compressibility (1/GPa) = 0.03203158
#
# Stress axis : x y z
#
# Youngs Moduli (GPa) = 84.99323 56.98798 75.86551
#
# Poissons Ratio (x) = 0.18810 -0.01741
# Poissons Ratio (y) = 0.28054 0.16389
# Poissons Ratio (z) = -0.01951 0.12311
#
# Static dielectric constant tensor:
#      x y z
#    x 1.706340 0.000000 -0.010140 
#    y 0.000000 1.696520 0.000000 
#    z -0.010140 0.000000 1.732840 
# 
# From -- ./inp_files/235880.got.cif
#   From: 2010.05.17/outbox.cif.g08.bks.cpg/sg15_118_cif.got.tgz:235880.got - 2010.06.03 18:47:42.
