data_PCOD9293956
_publ_section_title
;
Structure prediction by ZEFSAII (Michael W. Deem and Ramdas Pophale) SiO2 
 PCOD9293956
Probable space group: C 2/C
;
_chemical_formula_sum "Si O2"
_cell_formula_units_Z 56
_cell_length_a 8.112250
_cell_length_b 29.479045
_cell_length_c 15.462842
_cell_angle_alpha 90.000000
_cell_angle_beta 48.898594
_cell_angle_gamma 90.000000
_cell_volume 2786.471143
_symmetry_space_group_name_H-M "C 2/C"
_symmetry_group_IT_number 15
_symmetry_cell_setting 'monoclinic'
loop_
_space_group_symop_operation_xyz
x,y,z
-x,y,1/2-z
-x,-y,-z
x,-y,1/2+z
1/2+x,1/2+y,z
1/2-x,1/2+y,1/2-z
1/2-x,1/2-y,-z
1/2+x,1/2-y,1/2+z
loop_
_atom_site_type_symbol
_atom_site_label
_atom_site_fract_x
_atom_site_fract_y
_atom_site_fract_z
Si Si1 0.136954 0.927158 0.932755
Si Si2 0.500000 0.694207 0.750000
Si Si3 0.853832 0.243657 0.058826
Si Si4 0.369036 0.659942 0.167515
Si Si5 0.256336 0.622894 0.932701
Si Si6 0.836526 0.682144 0.086067
Si Si7 0.248429 0.973762 0.338564
Si Si8 0.500000 0.451926 0.250000
O O1 0.147676 0.892907 0.849094
O O2 0.246554 0.975370 0.876990
O O3 0.244627 0.898822 0.972925
O O4 0.895088 0.940803 0.050605
O O5 0.291395 0.727241 0.822903
O O6 0.448754 0.659911 0.847117
O O7 0.848424 0.192302 0.091558
O O8 0.750000 0.250000 0.000000
O O9 0.087612 0.267777 0.968106
O O10 0.609980 0.669162 0.121046
O O11 0.199230 0.676225 0.298937
O O12 0.311153 0.580948 0.851853
O O13 0.031866 0.648594 0.991912
O O14 0.500000 0.958386 0.250000
O O15 0.115278 0.975890 0.292661
#
# Coordination Sequence:
#
# PCOD9293956 Si02
#       8
#     8   4   8   8   8   8   8   4
#     4  10  23  41  60  92 121 154 209 253 297 376
#     4   9  18  34  58  86 114 154 202 242 296 363
#     4  11  21  37  60  85 120 161 202 246 303 355
#     4  11  23  38  58  86 125 155 206 248 298 369
#     4   9  19  38  62  87 119 157 204 247 300 365
#     4  10  23  37  57  89 121 163 197 248 303 355
#     4  10  23  43  65  92 125 159 204 256 318 366
#     4   9  20  40  66  92 122 158 206 256 306 383
#
# _framework density 20.097104999999999
#
# number of rings (size 3 to 8) (size 9 to 14) (size 15 to 20)
#    0.000    2.000    0.000    3.000    4.000    2.286 
#    0.000    2.143    3.143    0.000    0.000    0.000 
#    0.000    0.000    0.000    0.000    0.000    0.000 
#
# Total GULP energy -156144.551129 kJ/mol
# GULP energy per Si atom -5576.591112 kJ/mol
# Density = 2.005136 g / cm^3
# Si number density = 20.097105 Si / 1000 Ang^3
#
#
#
# Elastic Constant Matrix: (Units=GPa)
#
#
# Indices 1 2 3 4 5 6 
#
# 1 42.1428 5.3784 20.0614 0.0000 -2.4516 0.0000
# 2 5.3784 81.4042 11.7181 0.0000 5.9400 0.0000
# 3 20.0614 11.7181 79.8805 0.0000 -5.9727 0.0000
# 4 0.0000 0.0000 0.0000 19.7657 0.0000 8.6341
# 5 -2.4516 5.9400 -5.9727 0.0000 32.4330 0.0000
# 6 0.0000 0.0000 0.0000 8.6341 0.0000 21.6543
#
#
#
# Elastic Compliance Matrix: (Units=1/GPa)
#
#
# Indices 1 2 3 4 5 6 
#
# 1 0.027036 -0.000912 -0.006582 0.000000 0.000999 0.000000
# 2 -0.000912 0.012813 -0.001857 0.000000 -0.002758 0.000000
# 3 -0.006582 -0.001857 0.014634 0.000000 0.002537 0.000000
# 4 0.000000 0.000000 0.000000 0.061263 0.000000 -0.024427
# 5 0.000999 -0.002758 0.002537 0.000000 0.031881 0.000000
# 6 0.000000 0.000000 0.000000 -0.024427 0.000000 0.055920
#
#
# Mechanical properties :
#
#
# Convention : Reuss Voigt Hill
#
# Bulk Modulus (GPa) = 27.94631 30.86037 29.40334
# Shear Modulus (GPa) = 21.35159 25.85524 23.60342
#
# Velocity S-wave (km/s) = 3.26302 3.59069 3.43077
# Velocity P-wave (km/s) = 5.30398 5.70787 5.50963
#
# Compressibility (1/GPa) = 0.03578290
#
# Stress axis : x y z
#
# Youngs Moduli (GPa) = 36.98722 78.04493 68.33532
#
# Poissons Ratio (x) = 0.07116 0.44975
# Poissons Ratio (y) = 0.03372 0.12689
# Poissons Ratio (z) = 0.24343 0.14492
#
# Static dielectric constant tensor:
#      x y z
#    x 1.715340 0.000000 0.017330 
#    y 0.000000 1.707220 0.000000 
#    z 0.017330 0.000000 1.757170 
# 
# From -- ./inp_files/139484.got.cif
#   From: 2010.05.17/outbox.cif.g08.bks.cpg/sg15_70_cif.got.tgz:139484.got - 2010.06.03 18:47:42.
