data_PCOD9293101
_publ_section_title
;
Structure prediction by ZEFSAII (Michael W. Deem and Ramdas Pophale) SiO2 
 PCOD9293101
Probable space group: C 2/C
;
_chemical_formula_sum "Si O2"
_cell_formula_units_Z 60
_cell_length_a 8.515524
_cell_length_b 17.307843
_cell_length_c 19.450575
_cell_angle_alpha 90.000000
_cell_angle_beta 67.053116
_cell_angle_gamma 90.000000
_cell_volume 2639.876015
_symmetry_space_group_name_H-M "C 2/C"
_symmetry_group_IT_number 15
_symmetry_cell_setting 'monoclinic'
loop_
_space_group_symop_operation_xyz
x,y,z
-x,y,1/2-z
-x,-y,-z
x,-y,1/2+z
1/2+x,1/2+y,z
1/2-x,1/2+y,1/2-z
1/2-x,1/2-y,-z
1/2+x,1/2-y,1/2+z
loop_
_atom_site_type_symbol
_atom_site_label
_atom_site_fract_x
_atom_site_fract_y
_atom_site_fract_z
Si Si1 0.476053 0.614986 0.380848
Si Si2 0.500000 0.731002 0.250000
Si Si3 0.773674 0.862455 0.222431
Si Si4 0.557665 0.070812 0.134152
Si Si5 0.245025 0.206761 0.427940
Si Si6 0.844593 0.135650 0.865080
Si Si7 0.735291 0.974720 0.731220
Si Si8 0.699781 0.999534 0.483832
O O1 0.455646 0.679486 0.324675
O O2 0.589195 0.654033 0.424114
O O3 0.571023 0.546981 0.319406
O O4 0.310993 0.573381 0.442375
O O5 0.657349 0.788219 0.238055
O O6 0.814084 0.892790 0.292858
O O7 0.955923 0.849805 0.157040
O O8 0.690718 0.940914 0.209202
O O9 0.584466 0.154438 0.097522
O O10 0.364994 0.042878 0.180889
O O11 0.645263 0.082152 0.192746
O O12 0.680442 0.015214 0.068567
O O13 0.250000 0.250000 0.500000
O O14 0.257311 0.280767 0.377258
O O15 0.776980 0.075583 0.932500
O O16 0.500000 0.000000 0.500000
#
# Coordination Sequence:
#
# PCOD9293101 Si02
#       8
#     8   4   8   8   8   8   8   8
#     4  11  27  45  72 112 149 197 253 314 373 454
#     4  12  26  44  72 112 156 186 246 316 390 438
#     4  11  24  43  74 102 146 191 246 306 371 451
#     4  10  23  40  72 101 138 185 245 303 366 441
#     4  11  23  46  71 103 151 195 247 302 383 452
#     4  11  24  44  69 107 138 199 246 299 370 457
#     4  10  22  44  73 102 135 186 250 304 359 439
#     4  12  26  45  72 104 149 195 250 307 381 445
#
# _framework density 22.728339999999999
#
# number of rings (size 3 to 8) (size 9 to 14) (size 15 to 20)
#    0.000    1.067    4.000    1.600    5.600    4.267 
#    0.000    0.667    0.000    0.000    0.000    0.000 
#    0.000    0.000    0.000    0.000    0.000    0.000 
#
# Total GULP energy -167062.963613 kJ/mol
# GULP energy per Si atom -5568.765454 kJ/mol
# Density = 2.267661 g / cm^3
# Si number density = 22.728340 Si / 1000 Ang^3
#
#
#
# Elastic Constant Matrix: (Units=GPa)
#
#
# Indices 1 2 3 4 5 6 
#
# 1 88.5802 42.9012 54.6852 0.0000 -23.9945 0.0000
# 2 42.9012 137.3561 59.5074 0.0000 -25.3647 0.0000
# 3 54.6852 59.5074 151.3652 0.0000 -21.4444 0.0000
# 4 0.0000 0.0000 0.0000 39.0064 0.0000 -6.0969
# 5 -23.9945 -25.3647 -21.4444 0.0000 38.1264 0.0000
# 6 0.0000 0.0000 0.0000 -6.0969 0.0000 21.2926
#
#
#
# Elastic Compliance Matrix: (Units=1/GPa)
#
#
# Indices 1 2 3 4 5 6 
#
# 1 0.016789 -0.002152 -0.004265 0.000000 0.006735 0.000000
# 2 -0.002152 0.009729 -0.002523 0.000000 0.003699 0.000000
# 3 -0.004265 -0.002523 0.009259 0.000000 0.000845 0.000000
# 4 0.000000 0.000000 0.000000 0.026838 0.000000 0.007685
# 5 0.006735 0.003699 0.000845 0.000000 0.033403 0.000000
# 6 0.000000 0.000000 0.000000 0.007685 0.000000 0.049165
#
#
# Mechanical properties :
#
#
# Convention : Reuss Voigt Hill
#
# Bulk Modulus (GPa) = 55.87930 76.83212 66.35571
# Shear Modulus (GPa) = 29.58056 34.36559 31.97308
#
# Velocity S-wave (km/s) = 3.61152 3.89268 3.75473
# Velocity P-wave (km/s) = 6.48305 7.35404 6.93224
#
# Compressibility (1/GPa) = 0.01789572
#
# Stress axis : x y z
#
# Youngs Moduli (GPa) = 59.56212 102.78875 108.00133
#
# Poissons Ratio (x) = 0.22123 0.46065
# Poissons Ratio (y) = 0.12819 0.27250
# Poissons Ratio (z) = 0.25405 0.25935
#
# Static dielectric constant tensor:
#      x y z
#    x 1.876250 0.000000 0.160190 
#    y 0.000000 1.944120 0.000000 
#    z 0.160190 0.000000 2.112980 
# 
# From -- ./inp_files/233045.got.cif
#   From: 2010.05.17/outbox.cif.g08.bks.cpg/sg15_117_cif.got.tgz:233045.got - 2010.06.03 18:47:42.
