data_PCOD9293574
_publ_section_title
;
Structure prediction by ZEFSAII (Michael W. Deem and Ramdas Pophale) SiO2 
 PCOD9293574
Probable space group: C 2/C
;
_chemical_formula_sum "Si O2"
_cell_formula_units_Z 36
_cell_length_a 8.863019
_cell_length_b 14.708710
_cell_length_c 17.371168
_cell_angle_alpha 90.000000
_cell_angle_beta 139.345777
_cell_angle_gamma 90.000000
_cell_volume 1475.348745
_symmetry_space_group_name_H-M "C 2/C"
_symmetry_group_IT_number 15
_symmetry_cell_setting 'monoclinic'
loop_
_space_group_symop_operation_xyz
x,y,z
-x,y,1/2-z
-x,-y,-z
x,-y,1/2+z
1/2+x,1/2+y,z
1/2-x,1/2+y,1/2-z
1/2-x,1/2-y,-z
1/2+x,1/2-y,1/2+z
loop_
_atom_site_type_symbol
_atom_site_label
_atom_site_fract_x
_atom_site_fract_y
_atom_site_fract_z
Si Si1 0.130835 0.347944 0.469914
Si Si2 0.500000 0.058805 0.250000
Si Si3 0.467210 0.471470 0.865223
Si Si4 0.880396 0.347414 0.854561
Si Si5 0.887706 0.837239 0.284175
O O1 0.250000 0.250000 0.500000
O O2 0.311944 0.423947 0.513667
O O3 0.084757 0.367420 0.542784
O O4 0.883323 0.354748 0.334325
O O5 0.257569 0.009693 0.169815
O O6 0.464131 0.113737 0.155511
O O7 0.361230 0.394365 0.766294
O O8 0.519275 0.568529 0.849015
O O9 0.898372 0.239041 0.853262
O O10 0.000000 0.797290 0.250000
#
# Coordination Sequence:
#
# PCOD9293574 Si02
#       5
#     8   4   8   8   8
#     4  12  25  45  78 102 139 199 234 283 371 418
#     4   8  20  44  68  94 146 182 216 310 342 390
#     4  10  23  45  69 102 146 176 242 290 340 429
#     4  10  22  46  69 100 148 181 233 299 338 428
#     4  12  25  44  73 105 141 187 237 295 358 411
#
# _framework density 24.401009999999999
#
# number of rings (size 3 to 8) (size 9 to 14) (size 15 to 20)
#    1.333    0.000    3.333    2.000    0.000    6.222 
#    0.000    2.222    0.000    0.000    0.000    0.000 
#    0.000    0.000    0.000    0.000    0.000    0.000 
#
# Total GULP energy -100499.825199 kJ/mol
# GULP energy per Si atom -5583.323622 kJ/mol
# Density = 2.434547 g / cm^3
# Si number density = 24.401010 Si / 1000 Ang^3
#
#
#
# Elastic Constant Matrix: (Units=GPa)
#
#
# Indices 1 2 3 4 5 6 
#
# 1 111.7065 4.6868 26.0345 0.0001 -1.8543 0.0001
# 2 4.6868 103.2805 16.1800 0.0002 -4.9949 0.0001
# 3 26.0345 16.1800 48.2937 0.0004 6.1778 0.0003
# 4 0.0001 0.0002 0.0004 37.1414 0.0002 -6.1475
# 5 -1.8543 -4.9949 6.1778 0.0002 39.3898 0.0001
# 6 0.0001 0.0001 0.0003 -6.1475 0.0001 39.4752
#
#
#
# Elastic Compliance Matrix: (Units=1/GPa)
#
#
# Indices 1 2 3 4 5 6 
#
# 1 0.010339 0.000534 -0.005943 0.000000 0.001486 0.000000
# 2 0.000534 0.010383 -0.004019 0.000000 0.001972 0.000000
# 3 -0.005943 -0.004019 0.025877 0.000000 -0.004848 0.000000
# 4 0.000000 0.000000 0.000000 0.027637 0.000000 0.004304
# 5 0.001486 0.001972 -0.004848 0.000000 0.026468 0.000000
# 6 0.000000 0.000000 0.000000 0.004304 0.000000 0.026003
#
#
# Mechanical properties :
#
#
# Convention : Reuss Voigt Hill
#
# Bulk Modulus (GPa) = 36.04407 39.67593 37.86000
# Shear Modulus (GPa) = 32.29777 37.62656 34.96216
#
# Velocity S-wave (km/s) = 3.64211 3.93110 3.78936
# Velocity P-wave (km/s) = 5.70002 6.07454 5.89026
#
# Compressibility (1/GPa) = 0.02774381
#
# Stress axis : x y z
#
# Youngs Moduli (GPa) = 96.71788 96.31051 38.64460
#
# Poissons Ratio (x) = -0.05140 0.22966
# Poissons Ratio (y) = -0.05162 0.15530
# Poissons Ratio (z) = 0.57477 0.38704
#
# Static dielectric constant tensor:
#      x y z
#    x 1.944940 0.000000 -0.001240 
#    y 0.000000 1.957140 0.000000 
#    z -0.001240 0.000000 1.929320 
# 
# From -- ./inp_files/190753.got.cif
#   From: 2010.05.17/outbox.cif.g08.bks.cpg/sg15_96_cif.got.tgz:190753.got - 2010.06.03 18:47:42.
