data_PCOD9293443
_publ_section_title
;
Structure prediction by ZEFSAII (Michael W. Deem and Ramdas Pophale) SiO2 
 PCOD9293443
Probable space group: C 2/C
;
_chemical_formula_sum "Si O2"
_cell_formula_units_Z 52
_cell_length_a 7.874834
_cell_length_b 27.359045
_cell_length_c 17.124387
_cell_angle_alpha 90.000000
_cell_angle_beta 37.284921
_cell_angle_gamma 90.000000
_cell_volume 2234.969545
_symmetry_space_group_name_H-M "C 2/C"
_symmetry_group_IT_number 15
_symmetry_cell_setting 'monoclinic'
loop_
_space_group_symop_operation_xyz
x,y,z
-x,y,1/2-z
-x,-y,-z
x,-y,1/2+z
1/2+x,1/2+y,z
1/2-x,1/2+y,1/2-z
1/2-x,1/2-y,-z
1/2+x,1/2-y,1/2+z
loop_
_atom_site_type_symbol
_atom_site_label
_atom_site_fract_x
_atom_site_fract_y
_atom_site_fract_z
Si Si1 0.908918 0.131969 0.139063
Si Si2 0.166513 0.047342 0.460677
Si Si3 0.683790 0.400335 0.106044
Si Si4 0.707648 0.939146 0.840480
Si Si5 0.000000 0.719017 0.250000
Si Si6 0.186529 0.699961 0.568425
Si Si7 0.449839 0.700880 0.644913
O O1 0.846705 0.090448 0.097793
O O2 0.811712 0.108552 0.255176
O O3 0.740830 0.181584 0.185720
O O4 0.218891 0.152448 0.014425
O O5 0.047280 0.069850 0.584287
O O6 0.489822 0.034614 0.362545
O O7 0.000000 0.000000 0.500000
O O8 0.500000 0.406019 0.250000
O O9 0.656509 0.344000 0.088155
O O10 0.001225 0.422576 0.986248
O O11 0.000000 0.966135 0.750000
O O12 0.062763 0.751989 0.150749
O O13 0.250000 0.750000 0.500000
O O14 0.357498 0.702335 0.588047
O O15 0.856337 0.694305 0.703441
#
# Coordination Sequence:
#
# PCOD9293443 Si02
#       7
#     8   8   8   8   4   8   8
#     4  12  23  46  69 106 148 202 258 319 378 465
#     4  10  23  48  80 109 147 203 260 322 400 467
#     4  10  22  45  75 114 156 196 252 319 397 459
#     4  10  24  44  79 111 149 195 254 322 385 459
#     4  12  22  40  66 100 154 204 250 316 380 476
#     4  11  24  42  60 101 153 202 260 312 386 461
#     4  11  24  40  65 107 151 206 256 316 389 469
#
# _framework density 23.266535999999999
#
# number of rings (size 3 to 8) (size 9 to 14) (size 15 to 20)
#    0.923    0.308    5.385    0.000    2.154    1.846 
#    2.769    4.615    0.000    0.000    2.000    0.000 
#    0.000    0.000    0.000    0.000    0.000    0.000 
#
# Total GULP energy -145183.734911 kJ/mol
# GULP energy per Si atom -5583.989804 kJ/mol
# Density = 2.321358 g / cm^3
# Si number density = 23.266536 Si / 1000 Ang^3
#
#
#
# Elastic Constant Matrix: (Units=GPa)
#
#
# Indices 1 2 3 4 5 6 
#
# 1 85.9464 45.6483 27.0232 0.0000 -7.2388 0.0000
# 2 45.6483 106.4527 10.6334 0.0000 3.2022 0.0000
# 3 27.0232 10.6334 112.9127 0.0000 2.8290 0.0000
# 4 0.0000 0.0000 0.0000 1.9371 0.0000 -14.1264
# 5 -7.2388 3.2022 2.8290 0.0000 47.4501 0.0000
# 6 0.0000 0.0000 0.0000 -14.1264 0.0000 35.6535
#
#
#
# Elastic Compliance Matrix: (Units=1/GPa)
#
#
# Indices 1 2 3 4 5 6 
#
# 1 0.016638 -0.006890 -0.003413 0.000000 0.003207 0.000000
# 2 -0.006890 0.012353 0.000534 0.000000 -0.001917 0.000000
# 3 -0.003413 0.000534 0.009651 0.000000 -0.001132 0.000000
# 4 0.000000 0.000000 0.000000 -0.273221 0.000000 -0.108254
# 5 0.003207 -0.001917 -0.001132 0.000000 0.021761 0.000000
# 6 0.000000 0.000000 0.000000 -0.108254 0.000000 -0.014844
#
#
# Mechanical properties :
#
#
# Convention : Reuss Voigt Hill
#
# Bulk Modulus (GPa) = 52.34900 52.43575 52.39238
# Shear Modulus (GPa) = -24.78246 31.80860 3.51307
#
# Velocity S-wave (km/s) = -3.26721 3.70150 1.23012
# Velocity P-wave (km/s) = 2.88369 6.39171 4.95831
#
# Compressibility (1/GPa) = 0.01910256
#
# Stress axis : x y z
#
# Youngs Moduli (GPa) = 60.10349 80.95374 103.61161
#
# Poissons Ratio (x) = 0.55778 0.35367
# Poissons Ratio (y) = 0.41412 -0.05530
# Poissons Ratio (z) = 0.20516 -0.04321
#
# Static dielectric constant tensor:
#      x y z
#    x 1.823200 0.000000 0.013850 
#    y 0.000000 1.843460 0.000000 
#    z 0.013850 0.000000 1.956820 
# 
# From -- ./inp_files/193669.got.cif
#   From: 2010.05.17/outbox.cif.g08.bks.cpg/sg15_97_cif.got.tgz:193669.got - 2010.06.03 18:47:42.
