data_PCOD9293354
_publ_section_title
;
Structure prediction by ZEFSAII (Michael W. Deem and Ramdas Pophale) SiO2 
 PCOD9293354
Probable space group: C 2/C
;
_chemical_formula_sum "Si O2"
_cell_formula_units_Z 56
_cell_length_a 20.165280
_cell_length_b 24.651166
_cell_length_c 7.948507
_cell_angle_alpha 90.000000
_cell_angle_beta 35.496516
_cell_angle_gamma 90.000000
_cell_volume 2294.268779
_symmetry_space_group_name_H-M "C 2/C"
_symmetry_group_IT_number 15
_symmetry_cell_setting 'monoclinic'
loop_
_space_group_symop_operation_xyz
x,y,z
-x,y,1/2-z
-x,-y,-z
x,-y,1/2+z
1/2+x,1/2+y,z
1/2-x,1/2+y,1/2-z
1/2-x,1/2-y,-z
1/2+x,1/2-y,1/2+z
loop_
_atom_site_type_symbol
_atom_site_label
_atom_site_fract_x
_atom_site_fract_y
_atom_site_fract_z
Si Si1 0.500000 0.036883 0.750000
Si Si2 0.500000 0.309094 0.250000
Si Si3 0.004360 0.376159 0.948589
Si Si4 0.633016 0.224661 0.798947
Si Si5 0.880086 0.114975 0.766861
Si Si6 0.784607 0.306837 0.009785
Si Si7 0.240002 0.977902 0.780246
Si Si8 0.592581 0.452086 0.773963
O O1 0.494008 0.071878 0.589022
O O2 0.625983 0.009751 0.487830
O O3 0.461476 0.271485 0.485885
O O4 0.601888 0.346826 0.105898
O O5 0.120551 0.345835 0.767843
O O6 0.000000 0.385640 0.750000
O O7 0.909286 0.331104 0.193794
O O8 0.750000 0.250000 0.500000
O O9 0.656152 0.208106 0.941228
O O10 0.822316 0.153483 0.750726
O O11 0.008061 0.098078 0.452583
O O12 0.801922 0.064264 0.988038
O O13 0.750000 0.250000 0.000000
O O14 0.190554 0.951613 0.712864
O O15 0.162474 0.031635 0.965123
O O16 0.500000 0.500000 0.000000
#
# Coordination Sequence:
#
# PCOD9293354 Si02
#       8
#     4   4   8   8   8   8   8   8
#     4  12  26  44  78 104 145 193 250 294 382 462
#     4  12  20  40  62  96 141 181 242 294 348 434
#     4  10  23  44  61  99 147 194 243 299 356 435
#     4  11  24  39  61  97 146 195 243 297 358 427
#     4  11  20  38  72  99 134 188 238 292 366 431
#     4  11  20  38  64  97 142 186 234 298 355 424
#     4  11  24  45  71 107 133 188 232 305 381 445
#     4  10  22  45  71 101 138 172 238 304 379 437
#
# _framework density 24.408647999999999
#
# number of rings (size 3 to 8) (size 9 to 14) (size 15 to 20)
#    0.000    1.143    6.429    1.286    4.000    0.571 
#    2.571    8.571    0.000    0.000    0.000    0.000 
#    0.000    0.000    0.000    0.000    0.000    0.000 
#
# Total GULP energy -156349.672407 kJ/mol
# GULP energy per Si atom -5583.916872 kJ/mol
# Density = 2.435309 g / cm^3
# Si number density = 24.408648 Si / 1000 Ang^3
#
#
#
# Elastic Constant Matrix: (Units=GPa)
#
#
# Indices 1 2 3 4 5 6 
#
# 1 66.6774 20.0347 26.1137 0.0000 -21.2926 0.0000
# 2 20.0347 60.5717 21.4516 0.0000 -10.0650 0.0000
# 3 26.1137 21.4516 121.7821 0.0000 -27.8628 0.0000
# 4 0.0000 0.0000 0.0000 42.9694 0.0000 -13.3054
# 5 -21.2926 -10.0650 -27.8628 0.0000 42.4080 0.0000
# 6 0.0000 0.0000 0.0000 -13.3054 0.0000 36.9050
#
#
#
# Elastic Compliance Matrix: (Units=1/GPa)
#
#
# Indices 1 2 3 4 5 6 
#
# 1 0.019441 -0.004593 -0.001619 0.000000 0.007607 0.000000
# 2 -0.004593 0.018925 -0.002176 0.000000 0.000756 0.000000
# 3 -0.001619 -0.002176 0.010166 0.000000 0.005350 0.000000
# 4 0.000000 0.000000 0.000000 0.026197 0.000000 0.009445
# 5 0.007607 0.000756 0.005350 0.000000 0.031094 0.000000
# 6 0.000000 0.000000 0.000000 0.009445 0.000000 0.030502
#
#
# Mechanical properties :
#
#
# Convention : Reuss Voigt Hill
#
# Bulk Modulus (GPa) = 31.49016 42.69236 37.09126
# Shear Modulus (GPa) = 30.54644 36.55191 33.54918
#
# Velocity S-wave (km/s) = 3.54144 3.87395 3.71142
# Velocity P-wave (km/s) = 5.44533 6.12688 5.79613
#
# Compressibility (1/GPa) = 0.03175596
#
# Stress axis : x y z
#
# Youngs Moduli (GPa) = 51.43768 52.84116 98.36878
#
# Poissons Ratio (x) = 0.24269 0.15929
# Poissons Ratio (y) = 0.23624 0.21402
# Poissons Ratio (z) = 0.08329 0.11497
#
# Static dielectric constant tensor:
#      x y z
#    x 1.977460 0.000000 0.064570 
#    y 0.000000 1.991960 0.000000 
#    z 0.064570 0.000000 1.982470 
# 
# From -- ./inp_files/59363.got.cif
#   From: 2010.05.17/outbox.cif.g08.bks.cpg/sg15_30_cif.got.tgz:59363.got - 2010.06.03 18:47:42.
