data_PCOD9293560
_publ_section_title
;
Structure prediction by ZEFSAII (Michael W. Deem and Ramdas Pophale) SiO2 
 PCOD9293560
Probable space group: C 2/C
;
_chemical_formula_sum "Si O2"
_cell_formula_units_Z 60
_cell_length_a 24.149638
_cell_length_b 8.064213
_cell_length_c 26.054960
_cell_angle_alpha 90.000000
_cell_angle_beta 150.022398
_cell_angle_gamma 90.000000
_cell_volume 2535.355367
_symmetry_space_group_name_H-M "C 2/C"
_symmetry_group_IT_number 15
_symmetry_cell_setting 'monoclinic'
loop_
_space_group_symop_operation_xyz
x,y,z
-x,y,1/2-z
-x,-y,-z
x,-y,1/2+z
1/2+x,1/2+y,z
1/2-x,1/2+y,1/2-z
1/2-x,1/2-y,-z
1/2+x,1/2-y,1/2+z
loop_
_atom_site_type_symbol
_atom_site_label
_atom_site_fract_x
_atom_site_fract_y
_atom_site_fract_z
Si Si1 0.606224 0.711829 0.437550
Si Si2 0.557857 0.305449 0.600309
Si Si3 0.464083 0.681163 0.910835
Si Si4 0.348412 0.282657 0.118034
Si Si5 0.346353 0.000984 0.770933
Si Si6 0.000000 0.077960 0.250000
Si Si7 0.199973 0.922330 0.566527
Si Si8 0.969214 0.496021 0.168734
O O1 0.542434 0.721913 0.440110
O O2 0.523827 0.653565 0.325733
O O3 0.697575 0.575074 0.524239
O O4 0.633487 0.895021 0.438687
O O5 0.591268 0.498035 0.635650
O O6 0.508893 0.286739 0.504242
O O7 0.644230 0.161526 0.684918
O O8 0.387955 0.832655 0.831536
O O9 0.578748 0.661412 0.970014
O O10 0.392194 0.460982 0.167457
O O11 0.298712 0.196956 0.128607
O O12 0.442383 0.184707 0.160875
O O13 0.250000 0.250000 0.000000
O O14 0.230372 0.981979 0.648186
O O15 0.433940 0.026562 0.794441
O O16 0.000000 0.428304 0.250000
#
# Coordination Sequence:
#
# PCOD9293560 Si02
#       8
#     8   8   8   8   8   4   8   8
#     4  10  23  41  62  89 127 167 206 262 315 371
#     4   9  22  43  68  90 122 168 212 262 322 377
#     4  10  22  46  68  91 129 167 211 273 320 370
#     4  12  23  37  58  91 125 162 210 252 304 380
#     4  11  22  42  67  92 128 172 210 264 323 378
#     4  12  22  38  62  88 126 172 206 252 316 372
#     4  11  23  39  61  98 127 160 220 262 305 387
#     4  11  21  39  61  86 126 170 203 250 320 375
#
# _framework density 23.665323000000001
#
# number of rings (size 3 to 8) (size 9 to 14) (size 15 to 20)
#    0.000    1.333    4.000    1.200    5.600    0.533 
#   12.000    4.000    0.000    0.000    0.000    0.000 
#    0.000    0.000    0.000    0.000    0.000    0.000 
#
# Total GULP energy -167369.714369 kJ/mol
# GULP energy per Si atom -5578.990479 kJ/mol
# Density = 2.361146 g / cm^3
# Si number density = 23.665323 Si / 1000 Ang^3
#
#
#
# Elastic Constant Matrix: (Units=GPa)
#
#
# Indices 1 2 3 4 5 6 
#
# 1 87.4962 18.4754 4.7028 0.0000 -14.6884 0.0000
# 2 18.4754 88.3251 44.3605 0.0000 -22.8610 0.0001
# 3 4.7028 44.3605 105.0876 0.0000 -24.1205 0.0000
# 4 0.0000 0.0000 0.0000 38.3790 0.0000 -10.9939
# 5 -14.6884 -22.8610 -24.1205 0.0000 40.1461 0.0000
# 6 0.0000 0.0001 0.0000 -10.9939 0.0000 24.9432
#
#
#
# Elastic Compliance Matrix: (Units=1/GPa)
#
#
# Indices 1 2 3 4 5 6 
#
# 1 0.012516 -0.002217 0.001319 0.000000 0.004109 0.000000
# 2 -0.002217 0.015788 -0.005438 0.000000 0.004912 0.000000
# 3 0.001319 -0.005438 0.012936 0.000000 0.005158 0.000000
# 4 0.000000 0.000000 0.000000 0.029821 0.000000 0.013144
# 5 0.004109 0.004912 0.005158 0.000000 0.032309 0.000000
# 6 0.000000 0.000000 0.000000 0.013144 0.000000 0.045884
#
#
# Mechanical properties :
#
#
# Convention : Reuss Voigt Hill
#
# Bulk Modulus (GPa) = 35.00322 46.22069 40.61196
# Shear Modulus (GPa) = 29.16310 34.91834 32.04072
#
# Velocity S-wave (km/s) = 3.51424 3.84540 3.68354
# Velocity P-wave (km/s) = 5.59371 6.26813 5.94050
#
# Compressibility (1/GPa) = 0.02856880
#
# Stress axis : x y z
#
# Youngs Moduli (GPa) = 79.89681 63.33908 77.30173
#
# Poissons Ratio (x) = 0.14041 -0.10195
# Poissons Ratio (y) = 0.17712 0.42036
# Poissons Ratio (z) = -0.10538 0.34443
#
# Static dielectric constant tensor:
#      x y z
#    x 1.932930 0.000000 0.047480 
#    y 0.000000 2.036910 0.000000 
#    z 0.047480 0.000000 1.986660 
# 
# From -- ./inp_files/303117.got.cif
#   From: 2010.05.17/outbox.cif.g08.bks.cpg/sg15_152_cif.got.tgz:303117.got - 2010.06.03 18:47:42.
