data_PCOD9293266
_publ_section_title
;
Structure prediction by ZEFSAII (Michael W. Deem and Ramdas Pophale) SiO2 
 PCOD9293266
Probable space group: C 2/C
;
_chemical_formula_sum "Si O2"
_cell_formula_units_Z 40
_cell_length_a 12.842437
_cell_length_b 14.030143
_cell_length_c 17.062185
_cell_angle_alpha 90.000000
_cell_angle_beta 144.289529
_cell_angle_gamma 90.000000
_cell_volume 1794.428477
_symmetry_space_group_name_H-M "C 2/C"
_symmetry_group_IT_number 15
_symmetry_cell_setting 'monoclinic'
loop_
_space_group_symop_operation_xyz
x,y,z
-x,y,1/2-z
-x,-y,-z
x,-y,1/2+z
1/2+x,1/2+y,z
1/2-x,1/2+y,1/2-z
1/2-x,1/2-y,-z
1/2+x,1/2-y,1/2+z
loop_
_atom_site_type_symbol
_atom_site_label
_atom_site_fract_x
_atom_site_fract_y
_atom_site_fract_z
Si Si1 0.500000 0.004233 0.250000
Si Si2 0.727989 0.901744 0.022203
Si Si3 0.341882 0.433295 0.367551
Si Si4 0.500000 0.263299 0.250000
Si Si5 0.792608 0.464319 0.865846
Si Si6 0.602443 0.781013 0.647158
O O1 0.650480 0.946505 0.294363
O O2 0.623454 0.069495 0.380871
O O3 0.892723 0.831734 0.124752
O O4 0.778468 0.000950 0.094100
O O5 0.586369 0.833882 0.979784
O O6 0.500000 0.500000 0.500000
O O7 0.302599 0.471851 0.256949
O O8 0.386652 0.321947 0.385771
O O9 0.374769 0.217938 0.242949
O O10 0.773974 0.357011 0.823732
O O11 0.000000 0.500000 0.000000
#
# Coordination Sequence:
#
# PCOD9293266 Si02
#       6
#     4   8   8   4   8   8
#     4  12  25  48  71 106 148 182 237 294 341 422
#     4  11  24  45  69 103 141 182 230 296 354 416
#     4  12  26  44  70 108 141 185 231 296 350 418
#     4  12  23  40  73 114 130 178 239 296 355 424
#     4  10  22  45  67  93 143 185 223 286 362 407
#     4  11  24  40  71 100 139 179 230 283 360 409
#
# _framework density 22.291219999999999
#
# number of rings (size 3 to 8) (size 9 to 14) (size 15 to 20)
#    0.000    0.800    6.000    2.400    2.800    0.000 
#    0.000    2.000    0.000    0.000    0.000    0.000 
#    0.000    0.000    0.000    0.000    0.000    0.000 
#
# Total GULP energy -111346.661761 kJ/mol
# GULP energy per Si atom -5567.333088 kJ/mol
# Density = 2.224048 g / cm^3
# Si number density = 22.291220 Si / 1000 Ang^3
#
#
#
# Elastic Constant Matrix: (Units=GPa)
#
#
# Indices 1 2 3 4 5 6 
#
# 1 50.5650 23.6229 19.8190 0.0003 -3.0025 0.0001
# 2 23.6229 173.1304 44.8432 0.0004 -18.3624 0.0002
# 3 19.8190 44.8432 125.6552 0.0010 -24.0003 0.0005
# 4 0.0003 0.0004 0.0010 33.0986 0.0006 -12.3126
# 5 -3.0025 -18.3624 -24.0003 0.0006 30.2045 0.0002
# 6 0.0001 0.0002 0.0005 -12.3126 0.0002 2.0188
#
#
#
# Elastic Compliance Matrix: (Units=1/GPa)
#
#
# Indices 1 2 3 4 5 6 
#
# 1 0.021947 -0.002411 -0.002905 0.000000 -0.001593 0.000000
# 2 -0.002411 0.006785 -0.001531 0.000000 0.002668 0.000001
# 3 -0.002905 -0.001531 0.010292 0.000001 0.006958 0.000004
# 4 0.000000 0.000000 0.000001 -0.023812 0.000003 -0.145230
# 5 -0.001593 0.002668 0.006958 0.000003 0.040100 0.000009
# 6 0.000000 0.000001 0.000004 -0.145230 0.000009 -0.390404
#
#
# Mechanical properties :
#
#
# Convention : Reuss Voigt Hill
#
# Bulk Modulus (GPa) = 39.48153 58.43563 48.95858
# Shear Modulus (GPa) = -15.97679 30.46877 7.24599
#
# Velocity S-wave (km/s) = -2.68009 3.70111 1.80490
# Velocity P-wave (km/s) = 2.85885 6.67351 5.13365
#
# Compressibility (1/GPa) = 0.02532830
#
# Stress axis : x y z
#
# Youngs Moduli (GPa) = 45.56415 147.39290 97.16214
#
# Poissons Ratio (x) = 0.35536 0.28229
# Poissons Ratio (y) = 0.10985 0.14879
# Poissons Ratio (z) = 0.13238 0.22571
#
# Static dielectric constant tensor:
#      x y z
#    x 1.916610 0.000000 0.049750 
#    y 0.000000 2.348240 0.000000 
#    z 0.049750 0.000000 1.853380 
# 
# From -- ./inp_files/204273.got.cif
#   From: 2010.05.17/outbox.cif.g08.bks.cpg/sg15_103_cif.got.tgz:204273.got - 2010.06.03 18:47:42.
