data_PCOD9293295
_publ_section_title
;
Structure prediction by ZEFSAII (Michael W. Deem and Ramdas Pophale) SiO2 
 PCOD9293295
Probable space group: C 2/C
;
_chemical_formula_sum "Si O2"
_cell_formula_units_Z 44
_cell_length_a 7.729949
_cell_length_b 27.123291
_cell_length_c 13.174184
_cell_angle_alpha 90.000000
_cell_angle_beta 39.473721
_cell_angle_gamma 90.000000
_cell_volume 1755.947434
_symmetry_space_group_name_H-M "C 2/C"
_symmetry_group_IT_number 15
_symmetry_cell_setting 'monoclinic'
loop_
_space_group_symop_operation_xyz
x,y,z
-x,y,1/2-z
-x,-y,-z
x,-y,1/2+z
1/2+x,1/2+y,z
1/2-x,1/2+y,1/2-z
1/2-x,1/2-y,-z
1/2+x,1/2-y,1/2+z
loop_
_atom_site_type_symbol
_atom_site_label
_atom_site_fract_x
_atom_site_fract_y
_atom_site_fract_z
Si Si1 0.089330 0.701273 0.362836
Si Si2 0.262511 0.976826 0.236004
Si Si3 0.654540 0.448485 0.508085
Si Si4 0.528209 0.313845 0.393367
Si Si5 0.000000 0.101594 0.750000
Si Si6 0.187886 0.164258 0.037430
O O1 0.369861 0.675680 0.204719
O O2 0.114279 0.692266 0.473700
O O3 0.803312 0.681773 0.448973
O O4 0.086868 0.758337 0.331409
O O5 0.134067 0.948354 0.393802
O O6 0.582314 0.983043 0.100382
O O7 0.232063 0.940480 0.153396
O O8 0.099281 0.027647 0.318839
O O9 0.718797 0.394484 0.520712
O O10 0.589595 0.359460 0.294095
O O11 0.701567 0.318047 0.416418
#
# Coordination Sequence:
#
# PCOD9293295 Si02
#       6
#     8   8   8   8   4   8
#     4  10  25  41  68  98 139 183 241 288 359 411
#     4  10  23  43  68 102 137 184 232 295 359 428
#     4  10  22  45  69 100 141 182 235 295 361 426
#     4  11  24  43  64 101 142 184 236 294 346 432
#     4  12  24  40  66 102 138 192 230 290 364 422
#     4  11  22  46  70 103 135 191 230 301 354 428
#
# _framework density 25.057697000000001
#
# number of rings (size 3 to 8) (size 9 to 14) (size 15 to 20)
#    0.000    1.455    1.818    2.182    5.091    3.636 
#   13.091    0.000    0.000    0.000    0.000    0.000 
#    0.000    0.000    0.000    0.000    0.000    0.000 
#
# Total GULP energy -122762.479011 kJ/mol
# GULP energy per Si atom -5580.112682 kJ/mol
# Density = 2.500066 g / cm^3
# Si number density = 25.057697 Si / 1000 Ang^3
#
#
#
# Elastic Constant Matrix: (Units=GPa)
#
#
# Indices 1 2 3 4 5 6 
#
# 1 128.4674 25.1049 25.4406 0.0000 7.4147 0.0000
# 2 25.1049 114.9606 21.9548 0.0000 -2.4242 0.0000
# 3 25.4406 21.9548 74.5425 0.0000 -28.2149 0.0000
# 4 0.0000 0.0000 0.0000 25.1814 0.0000 -5.9131
# 5 7.4147 -2.4242 -28.2149 0.0000 51.8493 0.0000
# 6 0.0000 0.0000 0.0000 -5.9131 0.0000 50.5715
#
#
#
# Elastic Compliance Matrix: (Units=1/GPa)
#
#
# Indices 1 2 3 4 5 6 
#
# 1 0.009042 -0.001275 -0.004059 0.000000 -0.003561 0.000000
# 2 -0.001275 0.009469 -0.002666 0.000000 -0.000826 0.000000
# 3 -0.004059 -0.002666 0.019846 0.000000 0.011255 0.000000
# 4 0.000000 0.000000 0.000000 0.040833 0.000000 0.004774
# 5 -0.003561 -0.000826 0.011255 0.000000 0.025882 0.000000
# 6 0.000000 0.000000 0.000000 0.004774 0.000000 0.020332
#
#
# Mechanical properties :
#
#
# Convention : Reuss Voigt Hill
#
# Bulk Modulus (GPa) = 44.72748 51.44124 48.08436
# Shear Modulus (GPa) = 33.58936 41.88510 37.73723
#
# Velocity S-wave (km/s) = 3.66523 4.09289 3.88495
# Velocity P-wave (km/s) = 5.98335 6.55052 6.27335
#
# Compressibility (1/GPa) = 0.02235762
#
# Stress axis : x y z
#
# Youngs Moduli (GPa) = 110.58933 105.60995 50.38823
#
# Poissons Ratio (x) = 0.13462 0.20451
# Poissons Ratio (y) = 0.14096 0.13436
# Poissons Ratio (z) = 0.44885 0.28160
#
# Static dielectric constant tensor:
#      x y z
#    x 2.199570 0.000000 0.190450 
#    y 0.000000 1.877130 0.000000 
#    z 0.190450 0.000000 2.222430 
# 
# From -- ./inp_files/138414.got.cif
#   From: 2010.05.17/outbox.cif.g08.bks.cpg/sg15_70_cif.got.tgz:138414.got - 2010.06.03 18:47:42.
