data_PCOD9293008
_publ_section_title
;
Structure prediction by ZEFSAII (Michael W. Deem and Ramdas Pophale) SiO2 
 PCOD9293008
Probable space group: C 2/C
;
_chemical_formula_sum "Si O2"
_cell_formula_units_Z 40
_cell_length_a 20.193246
_cell_length_b 9.593172
_cell_length_c 18.979261
_cell_angle_alpha 90.000000
_cell_angle_beta 153.381259
_cell_angle_gamma 90.000000
_cell_volume 1647.311137
_symmetry_space_group_name_H-M "C 2/C"
_symmetry_group_IT_number 15
_symmetry_cell_setting 'monoclinic'
loop_
_space_group_symop_operation_xyz
x,y,z
-x,y,1/2-z
-x,-y,-z
x,-y,1/2+z
1/2+x,1/2+y,z
1/2-x,1/2+y,1/2-z
1/2-x,1/2-y,-z
1/2+x,1/2-y,1/2+z
loop_
_atom_site_type_symbol
_atom_site_label
_atom_site_fract_x
_atom_site_fract_y
_atom_site_fract_z
Si Si1 0.792728 0.190090 0.150452
Si Si2 0.662356 0.064235 0.159322
Si Si3 0.886853 0.080572 0.785857
Si Si4 0.204564 0.816147 0.573283
Si Si5 0.837891 0.540861 0.610091
O O1 0.689470 0.173192 0.120915
O O2 0.843542 0.343257 0.178129
O O3 0.920261 0.074946 0.288117
O O4 0.711828 0.125549 0.005723
O O5 0.700181 0.127896 0.270189
O O6 0.790586 0.950642 0.263881
O O7 0.500000 0.000000 0.000000
O O8 0.768703 0.161890 0.624605
O O9 0.034554 0.168347 0.932582
O O10 0.233394 0.917358 0.535794
O O11 0.000000 0.481960 0.750000
#
# Coordination Sequence:
#
# PCOD9293008 Si02
#       5
#     8   8   8   8   8
#     4   9  25  43  68 100 143 176 242 282 358 412
#     4  10  22  44  71 101 142 181 232 294 351 423
#     4  10  26  45  68 106 138 187 236 294 355 415
#     4  12  25  45  73 101 145 184 242 287 358 418
#     4  11  25  45  72 102 138 192 233 292 361 424
#
# _framework density 24.281995999999999
#
# number of rings (size 3 to 8) (size 9 to 14) (size 15 to 20)
#    1.200    0.400    0.000    3.000   11.200    0.800 
#    7.200    0.000    0.000    0.000    0.000    0.000 
#    0.000    0.000    0.000    0.000    0.000    0.000 
#
# Total GULP energy -111765.599647 kJ/mol
# GULP energy per Si atom -5588.279982 kJ/mol
# Density = 2.422673 g / cm^3
# Si number density = 24.281996 Si / 1000 Ang^3
#
#
#
# Elastic Constant Matrix: (Units=GPa)
#
#
# Indices 1 2 3 4 5 6 
#
# 1 110.8337 17.9858 29.3927 0.0000 -0.0752 0.0000
# 2 17.9858 85.6394 -3.7432 0.0000 8.1933 0.0000
# 3 29.3927 -3.7432 80.1923 0.0000 26.9547 0.0000
# 4 0.0000 0.0000 0.0000 29.7671 0.0000 -9.3465
# 5 -0.0752 8.1933 26.9547 0.0000 44.6211 0.0000
# 6 0.0000 0.0000 0.0000 -9.3465 0.0000 11.4426
#
#
#
# Elastic Compliance Matrix: (Units=1/GPa)
#
#
# Indices 1 2 3 4 5 6 
#
# 1 0.010936 -0.002901 -0.005432 0.000000 0.003833 0.000000
# 2 -0.002901 0.012825 0.003081 0.000000 -0.004221 0.000000
# 3 -0.005432 0.003081 0.018568 0.000000 -0.011792 0.000000
# 4 0.000000 0.000000 0.000000 0.045182 0.000000 0.036906
# 5 0.003833 -0.004221 -0.011792 0.000000 0.030315 0.000000
# 6 0.000000 0.000000 0.000000 0.036906 0.000000 0.117538
#
#
# Mechanical properties :
#
#
# Convention : Reuss Voigt Hill
#
# Bulk Modulus (GPa) = 31.42253 40.43732 35.92993
# Shear Modulus (GPa) = 19.49484 32.70150 26.09817
#
# Velocity S-wave (km/s) = 2.83654 3.67378 3.28196
# Velocity P-wave (km/s) = 4.86792 5.88939 5.40285
#
# Compressibility (1/GPa) = 0.03182430
#
# Stress axis : x y z
#
# Youngs Moduli (GPa) = 91.43716 77.97530 53.85518
#
# Poissons Ratio (x) = 0.22620 0.29255
# Poissons Ratio (y) = 0.26526 -0.16591
# Poissons Ratio (z) = 0.49670 -0.24021
#
# Static dielectric constant tensor:
#      x y z
#    x 1.921680 0.000000 -0.031060 
#    y 0.000000 2.007970 0.000000 
#    z -0.031060 0.000000 1.891630 
# 
# From -- ./inp_files/252313.got.cif
#   From: 2010.05.17/outbox.cif.g08.bks.cpg/sg15_127_cif.got.tgz:252313.got - 2010.06.03 18:47:42.
