data_PCOD9294635
_publ_section_title
;
Structure prediction by ZEFSAII (Michael W. Deem and Ramdas Pophale) SiO2 
 PCOD9294635
Probable space group: C 2/C
;
_chemical_formula_sum "Si O2"
_cell_formula_units_Z 56
_cell_length_a 8.315539
_cell_length_b 24.999842
_cell_length_c 17.751224
_cell_angle_alpha 90.000000
_cell_angle_beta 52.144647
_cell_angle_gamma 90.000000
_cell_volume 2913.684321
_symmetry_space_group_name_H-M "C 2/C"
_symmetry_group_IT_number 15
_symmetry_cell_setting 'monoclinic'
loop_
_space_group_symop_operation_xyz
x,y,z
-x,y,1/2-z
-x,-y,-z
x,-y,1/2+z
1/2+x,1/2+y,z
1/2-x,1/2+y,1/2-z
1/2-x,1/2-y,-z
1/2+x,1/2-y,1/2+z
loop_
_atom_site_type_symbol
_atom_site_label
_atom_site_fract_x
_atom_site_fract_y
_atom_site_fract_z
Si Si1 0.948685 0.509075 0.602335
Si Si2 0.807228 0.422882 0.744616
Si Si3 0.666635 0.457863 0.931804
Si Si4 0.846710 0.846729 0.475948
Si Si5 0.543174 0.192492 0.325872
Si Si6 0.224061 0.881257 0.171719
Si Si7 0.759669 0.301519 0.300939
O O1 0.792786 0.465533 0.681624
O O2 0.880227 0.569939 0.632711
O O3 0.000000 0.500000 0.500000
O O4 0.134973 0.492164 0.602239
O O5 0.638171 0.437225 0.854648
O O6 0.837314 0.363984 0.702354
O O7 0.000000 0.425375 0.750000
O O8 0.500000 0.500000 0.000000
O O9 0.663602 0.405116 0.983654
O O10 0.674945 0.812216 0.568886
O O11 0.775747 0.854083 0.410127
O O12 0.081991 0.826780 0.406215
O O13 0.500000 0.200768 0.250000
O O14 0.679808 0.241312 0.313920
O O15 0.246347 0.836065 0.228287
O O16 0.000000 0.905636 0.250000
O O17 0.000000 0.302697 0.250000
#
# Coordination Sequence:
#
# PCOD9294635 Si02
#       7
#     8   8   8   8   8   8   8
#     4  11  20  37  62  91 127 163 209 259 304 381
#     4   9  19  36  61  88 124 162 208 257 303 370
#     4  11  23  37  61  98 128 167 211 252 320 384
#     4  11  21  44  67  94 124 177 217 253 322 395
#     4  11  19  44  70  89 122 172 225 256 313 394
#     4  10  23  41  62  91 128 169 215 257 322 384
#     4  11  27  42  64  96 127 163 213 281 328 372
#
# _framework density 19.219652
#
# number of rings (size 3 to 8) (size 9 to 14) (size 15 to 20)
#    0.000    1.429    5.714    1.714    6.000    0.571 
#    0.000    6.429    0.000    0.000    0.000    0.000 
#    0.000    0.000    0.000    0.000    0.000    0.000 
#
# Total GULP energy -155910.765682 kJ/mol
# GULP energy per Si atom -5568.241632 kJ/mol
# Density = 1.917591 g / cm^3
# Si number density = 19.219652 Si / 1000 Ang^3
#
#
#
# Elastic Constant Matrix: (Units=GPa)
#
#
# Indices 1 2 3 4 5 6 
#
# 1 60.5894 44.2369 46.0730 0.0000 -16.5634 0.0000
# 2 44.2369 106.4460 60.8864 0.0000 -12.4781 0.0000
# 3 46.0730 60.8864 144.9687 0.0000 -5.5002 0.0000
# 4 0.0000 0.0000 0.0000 28.6285 0.0000 -16.8622
# 5 -16.5634 -12.4781 -5.5002 0.0000 25.0962 0.0000
# 6 0.0000 0.0000 0.0000 -16.8622 0.0000 24.9169
#
#
#
# Elastic Compliance Matrix: (Units=1/GPa)
#
#
# Indices 1 2 3 4 5 6 
#
# 1 0.030765 -0.007552 -0.006028 0.000000 0.015229 0.000000
# 2 -0.007552 0.014888 -0.003793 0.000000 0.001587 0.000000
# 3 -0.006028 -0.003793 0.010270 0.000000 -0.003613 0.000000
# 4 0.000000 0.000000 0.000000 0.058081 0.000000 0.039306
# 5 0.015229 0.001587 -0.003613 0.000000 0.049895 0.000000
# 6 0.000000 0.000000 0.000000 0.039306 0.000000 0.066733
#
#
# Mechanical properties :
#
#
# Convention : Reuss Voigt Hill
#
# Bulk Modulus (GPa) = 47.21974 68.26632 57.74303
# Shear Modulus (GPa) = 18.35286 26.44885 22.40085
#
# Velocity S-wave (km/s) = 3.09350 3.71365 3.41767
# Velocity P-wave (km/s) = 6.11404 7.34741 6.75892
#
# Compressibility (1/GPa) = 0.02117759
#
# Stress axis : x y z
#
# Youngs Moduli (GPa) = 32.50405 67.16610 97.37484
#
# Poissons Ratio (x) = 0.50727 0.58696
# Poissons Ratio (y) = 0.24548 0.36931
# Poissons Ratio (z) = 0.19593 0.25474
#
# Static dielectric constant tensor:
#      x y z
#    x 1.725310 0.000000 -0.126830 
#    y 0.000000 1.674100 0.000000 
#    z -0.126830 0.000000 1.903600 
# 
# From -- ./inp_files/193215.got.cif
#   From: 2010.05.17/outbox.cif.g08.bks.cpg/sg15_97_cif.got.tgz:193215.got - 2010.06.03 18:47:42.
