data_PCOD9294174
_publ_section_title
;
Structure prediction by ZEFSAII (Michael W. Deem and Ramdas Pophale) SiO2 
 PCOD9294174
Probable space group: C 2/C
;
_chemical_formula_sum "Si O2"
_cell_formula_units_Z 36
_cell_length_a 10.463698
_cell_length_b 25.233640
_cell_length_c 5.555085
_cell_angle_alpha 90.000000
_cell_angle_beta 93.089293
_cell_angle_gamma 90.000000
_cell_volume 1464.617485
_symmetry_space_group_name_H-M "C 2/C"
_symmetry_group_IT_number 15
_symmetry_cell_setting 'monoclinic'
loop_
_space_group_symop_operation_xyz
x,y,z
-x,y,1/2-z
-x,-y,-z
x,-y,1/2+z
1/2+x,1/2+y,z
1/2-x,1/2+y,1/2-z
1/2-x,1/2-y,-z
1/2+x,1/2-y,1/2+z
loop_
_atom_site_type_symbol
_atom_site_label
_atom_site_fract_x
_atom_site_fract_y
_atom_site_fract_z
Si Si1 0.500000 0.034783 0.250000
Si Si2 0.611402 0.301688 0.573289
Si Si3 0.277718 0.204709 0.698308
Si Si4 0.145999 0.979927 0.006679
Si Si5 0.217359 0.616969 0.138327
O O1 0.618543 0.075726 0.239517
O O2 0.500000 0.000000 0.500000
O O3 0.500000 0.314698 0.750000
O O4 0.634970 0.238383 0.611095
O O5 0.637431 0.308697 0.292543
O O6 0.726059 0.340468 0.673219
O O7 0.250000 0.250000 0.500000
O O8 0.335836 0.152645 0.585341
O O9 0.165738 0.918966 0.946833
O O10 0.202164 0.010222 0.778172
O O11 0.000000 0.000000 0.000000
#
# Coordination Sequence:
#
# PCOD9294174 Si02
#       5
#     4   8   8   8   8
#     4  12  30  52  74 106 148 200 260 316 362 450
#     4  10  23  41  71 107 145 180 240 304 373 446
#     4   9  22  42  63 102 141 187 234 291 364 452
#     4  10  23  39  62  96 137 173 227 290 351 417
#     4  11  25  42  72  98 140 192 242 299 373 433
#
# _framework density 24.579796000000002
#
# number of rings (size 3 to 8) (size 9 to 14) (size 15 to 20)
#    0.000    1.778    0.000    1.333    9.333   10.667 
#    0.000    0.000    0.000    0.000    0.000    0.000 
#    0.000    0.000    0.000    0.000    0.000    0.000 
#
# Total GULP energy -100280.843854 kJ/mol
# GULP energy per Si atom -5571.157992 kJ/mol
# Density = 2.452385 g / cm^3
# Si number density = 24.579796 Si / 1000 Ang^3
#
#
#
# Elastic Constant Matrix: (Units=GPa)
#
#
# Indices 1 2 3 4 5 6 
#
# 1 93.0009 47.1923 26.0713 0.0000 -33.8647 0.0000
# 2 47.1923 165.2179 49.6812 0.0000 -23.5494 0.0000
# 3 26.0713 49.6812 165.8141 0.0000 -37.7563 0.0000
# 4 0.0000 0.0000 0.0000 54.1058 0.0000 -9.0843
# 5 -33.8647 -23.5494 -37.7563 0.0000 25.4066 0.0000
# 6 0.0000 0.0000 0.0000 -9.0843 0.0000 38.8222
#
#
#
# Elastic Compliance Matrix: (Units=1/GPa)
#
#
# Indices 1 2 3 4 5 6 
#
# 1 0.025041 -0.003373 0.005988 0.000000 0.039150 0.000000
# 2 -0.003373 0.007525 -0.001753 0.000000 -0.000126 0.000000
# 3 0.005988 -0.001753 0.010674 0.000000 0.022219 0.000000
# 4 0.000000 0.000000 0.000000 0.019238 0.000000 0.004502
# 5 0.039150 -0.000126 0.022219 0.000000 0.124445 0.000000
# 6 0.000000 0.000000 0.000000 0.004502 0.000000 0.026812
#
#
# Mechanical properties :
#
#
# Convention : Reuss Voigt Hill
#
# Bulk Modulus (GPa) = 22.23997 74.43582 48.33789
# Shear Modulus (GPa) = 22.02639 43.73944 32.88291
#
# Velocity S-wave (km/s) = 2.99677 4.22297 3.66157
# Velocity P-wave (km/s) = 4.58714 7.35711 6.13062
#
# Compressibility (1/GPa) = 0.04496410
#
# Stress axis : x y z
#
# Youngs Moduli (GPa) = 39.93381 132.88560 93.68686
#
# Poissons Ratio (x) = 0.44823 -0.56099
# Poissons Ratio (y) = 0.13470 0.16424
# Poissons Ratio (z) = -0.23912 0.23296
#
# Static dielectric constant tensor:
#      x y z
#    x 2.131090 0.000000 0.092630 
#    y 0.000000 1.873320 0.000000 
#    z 0.092630 0.000000 2.247640 
# 
# From -- ./inp_files/4267.got.cif
#   From: 2010.05.17/outbox.cif.g08.bks.cpg/sg15_3_cif.got.tgz:4267.got - 2010.06.03 18:47:42.
