data_PCOD9294740
_publ_section_title
;
Structure prediction by ZEFSAII (Michael W. Deem and Ramdas Pophale) SiO2 
 PCOD9294740
Probable space group: C 2/C
;
_chemical_formula_sum "Si O2"
_cell_formula_units_Z 56
_cell_length_a 17.298835
_cell_length_b 18.657670
_cell_length_c 13.576138
_cell_angle_alpha 90.000000
_cell_angle_beta 35.183991
_cell_angle_gamma 90.000000
_cell_volume 2524.798700
_symmetry_space_group_name_H-M "C 2/C"
_symmetry_group_IT_number 15
_symmetry_cell_setting 'monoclinic'
loop_
_space_group_symop_operation_xyz
x,y,z
-x,y,1/2-z
-x,-y,-z
x,-y,1/2+z
1/2+x,1/2+y,z
1/2-x,1/2+y,1/2-z
1/2-x,1/2-y,-z
1/2+x,1/2-y,1/2+z
loop_
_atom_site_type_symbol
_atom_site_label
_atom_site_fract_x
_atom_site_fract_y
_atom_site_fract_z
Si Si1 0.968218 0.172986 0.183240
Si Si2 0.180166 0.040068 0.702195
Si Si3 0.284544 0.746234 0.630874
Si Si4 0.852709 0.645233 0.210946
Si Si5 0.870164 0.399831 0.163750
Si Si6 0.134440 0.479837 0.665977
Si Si7 0.066436 0.083888 0.462238
O O1 0.817467 0.198759 0.317260
O O2 0.007397 0.127710 0.046935
O O3 0.000000 0.130737 0.250000
O O4 0.079353 0.235505 0.071893
O O5 0.299001 0.082018 0.633917
O O6 0.241632 0.011852 0.537656
O O7 0.127483 0.983304 0.838512
O O8 0.038800 0.080098 0.839510
O O9 0.335976 0.774048 0.685004
O O10 0.200098 0.672873 0.725550
O O11 0.882414 0.603441 0.282205
O O12 0.700328 0.621428 0.356423
O O13 0.971419 0.613407 0.018509
O O14 0.850059 0.466916 0.257604
O O15 0.000000 0.502087 0.750000
#
# Coordination Sequence:
#
# PCOD9294740 Si02
#       7
#     8   8   8   8   8   8   8
#     4  11  23  40  64  96 131 178 231 276 341 418
#     4  11  23  42  67 101 134 176 225 284 353 406
#     4  11  24  43  67  94 139 185 222 284 350 404
#     4  11  23  46  67  97 136 186 231 282 341 411
#     4  12  23  45  70  99 141 180 228 288 347 411
#     4  12  25  41  75 106 133 182 238 285 342 417
#     4  10  23  41  65  94 141 178 213 286 354 404
#
# _framework density 22.179986
#
# number of rings (size 3 to 8) (size 9 to 14) (size 15 to 20)
#    0.000    0.857    5.714    1.714    2.000    1.143 
#    0.000    0.714    0.000    0.000    0.000    0.000 
#    0.000    0.000    0.000    0.000    0.000    0.000 
#
# Total GULP energy -155914.266639 kJ/mol
# GULP energy per Si atom -5568.366666 kJ/mol
# Density = 2.212950 g / cm^3
# Si number density = 22.179986 Si / 1000 Ang^3
#
#
#
# Elastic Constant Matrix: (Units=GPa)
#
#
# Indices 1 2 3 4 5 6 
#
# 1 66.4651 19.7298 31.5633 -0.0002 -6.9960 0.0001
# 2 19.7298 45.0959 15.5816 -0.0001 -1.3940 0.0001
# 3 31.5633 15.5816 167.8232 -0.0008 -13.3189 0.0002
# 4 -0.0002 -0.0001 -0.0008 -11.3546 0.0004 -0.6211
# 5 -6.9960 -1.3940 -13.3189 0.0004 22.3238 -0.0001
# 6 0.0001 0.0001 0.0002 -0.6211 -0.0001 23.2429
#
#
#
# Elastic Compliance Matrix: (Units=1/GPa)
#
#
# Indices 1 2 3 4 5 6 
#
# 1 0.018818 -0.007228 -0.002557 0.000000 0.003920 0.000000
# 2 -0.007228 0.025687 -0.001132 0.000000 -0.001336 0.000000
# 3 -0.002557 -0.001132 0.006797 0.000000 0.003183 0.000000
# 4 0.000000 0.000000 0.000000 -0.087942 0.000002 -0.002350
# 5 0.003920 -0.001336 0.003183 0.000002 0.047840 0.000000
# 6 0.000000 0.000000 0.000000 -0.002350 0.000000 0.042961
#
#
# Mechanical properties :
#
#
# Convention : Reuss Voigt Hill
#
# Bulk Modulus (GPa) = 33.93425 45.90375 39.91900
# Shear Modulus (GPa) = 58.26255 21.00971 39.63613
#
# Velocity S-wave (km/s) = 5.13080 3.08106 4.23190
# Velocity P-wave (km/s) = 7.10161 5.77912 6.47422
#
# Compressibility (1/GPa) = 0.02946875
#
# Stress axis : x y z
#
# Youngs Moduli (GPa) = 53.14025 38.93003 147.11834
#
# Poissons Ratio (x) = 0.28140 0.37618
# Poissons Ratio (y) = 0.38412 0.16647
# Poissons Ratio (z) = 0.13588 0.04405
#
# Static dielectric constant tensor:
#      x y z
#    x 1.908510 0.000000 0.051920 
#    y 0.000000 2.057670 0.000000 
#    z 0.051920 0.000000 1.950030 
# 
# From -- ./inp_files/163742.got.cif
#   From: 2010.05.17/outbox.cif.g08.bks.cpg/sg15_82_cif.got.tgz:163742.got - 2010.06.03 18:47:42.
