data_PCOD9294321
_publ_section_title
;
Structure prediction by ZEFSAII (Michael W. Deem and Ramdas Pophale) SiO2 
 PCOD9294321
Probable space group: C 2/C
;
_chemical_formula_sum "Si O2"
_cell_formula_units_Z 40
_cell_length_a 7.690237
_cell_length_b 7.330945
_cell_length_c 27.008594
_cell_angle_alpha 90.000000
_cell_angle_beta 95.862517
_cell_angle_gamma 90.000000
_cell_volume 1514.691808
_symmetry_space_group_name_H-M "C 2/C"
_symmetry_group_IT_number 15
_symmetry_cell_setting 'monoclinic'
loop_
_space_group_symop_operation_xyz
x,y,z
-x,y,1/2-z
-x,-y,-z
x,-y,1/2+z
1/2+x,1/2+y,z
1/2-x,1/2+y,1/2-z
1/2-x,1/2-y,-z
1/2+x,1/2-y,1/2+z
loop_
_atom_site_type_symbol
_atom_site_label
_atom_site_fract_x
_atom_site_fract_y
_atom_site_fract_z
Si Si1 0.687015 0.522723 0.188402
Si Si2 0.691056 0.508662 0.027672
Si Si3 0.849873 0.877828 0.212862
Si Si4 0.842666 0.251220 0.896906
Si Si5 0.750854 0.638555 0.924465
O O1 0.753491 0.724813 0.179145
O O2 0.475551 0.518580 0.188158
O O3 0.754222 0.473105 0.245945
O O4 0.728739 0.360775 0.151972
O O5 0.752027 0.325516 0.056490
O O6 0.675794 0.657484 0.071151
O O7 0.500000 0.500000 0.000000
O O8 0.796608 0.573089 0.982687
O O9 0.000000 0.777659 0.250000
O O10 0.822190 0.469034 0.894600
O O11 0.044257 0.184446 0.909965
#
# Coordination Sequence:
#
# PCOD9294321 Si02
#       5
#     8   8   8   8   8
#     4   9  21  43  65  96 126 170 216 265 333 389
#     4   9  21  40  61  90 126 172 207 263 324 380
#     4   8  21  42  61  91 125 166 203 268 326 393
#     4  11  23  39  62  94 121 168 214 270 310 394
#     4  10  23  40  60  90 130 164 213 263 322 380
#
# _framework density 26.408011999999999
#
# number of rings (size 3 to 8) (size 9 to 14) (size 15 to 20)
#    1.200    1.200    0.000    0.600    2.800   13.600 
#    7.200    0.000    0.000    0.000    0.000    0.000 
#    0.000    0.000    0.000    0.000    0.000    0.000 
#
# Total GULP energy -111500.824955 kJ/mol
# GULP energy per Si atom -5575.041248 kJ/mol
# Density = 2.634791 g / cm^3
# Si number density = 26.408012 Si / 1000 Ang^3
#
#
#
# Elastic Constant Matrix: (Units=GPa)
#
#
# Indices 1 2 3 4 5 6 
#
# 1 60.9873 45.3917 12.3448 0.0000 12.0453 0.0000
# 2 45.3917 162.9412 4.9965 0.0000 11.0487 0.0000
# 3 12.3448 4.9965 43.4810 0.0000 0.2703 0.0000
# 4 0.0000 0.0000 0.0000 50.5926 0.0000 9.9403
# 5 12.0453 11.0487 0.2703 0.0000 23.2216 0.0000
# 6 0.0000 0.0000 0.0000 9.9403 0.0000 49.0350
#
#
#
# Elastic Compliance Matrix: (Units=1/GPa)
#
#
# Indices 1 2 3 4 5 6 
#
# 1 0.023820 -0.005805 -0.006037 0.000000 -0.009524 0.000000
# 2 -0.005805 0.007778 0.000759 0.000000 -0.000699 0.000000
# 3 -0.006037 0.000759 0.024610 0.000000 0.002484 0.000000
# 4 0.000000 0.000000 0.000000 0.020586 0.000000 -0.004173
# 5 -0.009524 -0.000699 0.002484 0.000000 0.048307 0.000000
# 6 0.000000 0.000000 0.000000 -0.004173 0.000000 0.021240
#
#
# Mechanical properties :
#
#
# Convention : Reuss Voigt Hill
#
# Bulk Modulus (GPa) = 29.37495 43.65284 36.51390
# Shear Modulus (GPa) = 27.80034 38.21493 33.00764
#
# Velocity S-wave (km/s) = 3.24809 3.80820 3.53924
# Velocity P-wave (km/s) = 5.02140 5.99187 5.52797
#
# Compressibility (1/GPa) = 0.03404261
#
# Stress axis : x y z
#
# Youngs Moduli (GPa) = 41.98116 128.56107 40.63424
#
# Poissons Ratio (x) = 0.74628 0.24529
# Poissons Ratio (y) = 0.24370 -0.03082
# Poissons Ratio (z) = 0.25342 -0.09753
#
# Static dielectric constant tensor:
#      x y z
#    x 2.138300 0.000000 -0.178620 
#    y 0.000000 2.054620 0.000000 
#    z -0.178620 0.000000 2.396690 
# 
# From -- ./inp_files/309470.got.cif
#   From: 2010.05.17/outbox.cif.g08.bks.cpg/sg15_155_cif.got.tgz:309470.got - 2010.06.03 18:47:42.
