data_PCOD9294047
_publ_section_title
;
Structure prediction by ZEFSAII (Michael W. Deem and Ramdas Pophale) SiO2 
 PCOD9294047
Probable space group: C 2/C
;
_chemical_formula_sum "Si O2"
_cell_formula_units_Z 64
_cell_length_a 15.412875
_cell_length_b 7.674426
_cell_length_c 24.570942
_cell_angle_alpha 90.000000
_cell_angle_beta 113.770306
_cell_angle_gamma 90.000000
_cell_volume 2659.821653
_symmetry_space_group_name_H-M "C 2/C"
_symmetry_group_IT_number 15
_symmetry_cell_setting 'monoclinic'
loop_
_space_group_symop_operation_xyz
x,y,z
-x,y,1/2-z
-x,-y,-z
x,-y,1/2+z
1/2+x,1/2+y,z
1/2-x,1/2+y,1/2-z
1/2-x,1/2-y,-z
1/2+x,1/2-y,1/2+z
loop_
_atom_site_type_symbol
_atom_site_label
_atom_site_fract_x
_atom_site_fract_y
_atom_site_fract_z
Si Si1 0.458633 0.313456 0.623670
Si Si2 0.879376 0.688972 0.371738
Si Si3 0.556351 0.291468 0.357761
Si Si4 0.829565 0.334398 0.712168
Si Si5 0.697819 0.924191 0.970001
Si Si6 0.219386 0.384896 0.377467
Si Si7 0.570156 0.154271 0.001629
Si Si8 0.353894 0.138691 0.803137
O O1 0.423218 0.510331 0.621052
O O2 0.385612 0.188445 0.637565
O O3 0.455950 0.257565 0.559465
O O4 0.563468 0.282103 0.674795
O O5 0.772736 0.749686 0.352946
O O6 0.922752 0.754769 0.439804
O O7 0.875080 0.482900 0.361111
O O8 0.944493 0.765863 0.340598
O O9 0.591494 0.257210 0.305323
O O10 0.608812 0.152475 0.411460
O O11 0.769450 0.433795 0.650729
O O12 0.752556 0.212735 0.721955
O O13 0.863523 0.497983 0.757041
O O14 0.754719 0.059356 0.946309
O O15 0.664489 0.043662 0.011197
O O16 0.750000 0.750000 0.000000
O O17 0.500000 0.000000 0.000000
#
# Coordination Sequence:
#
# PCOD9294047 Si02
#       8
#     8   8   8   8   8   8   8   8
#     4  11  25  44  70 105 143 187 237 286 348 418
#     4  12  24  42  70 101 145 189 231 287 342 414
#     4  11  25  44  66 104 142 183 237 285 345 423
#     4  11  26  48  72 102 134 173 236 294 358 423
#     4  10  23  38  62  96 140 187 233 284 338 399
#     4  10  24  43  65 102 137 180 233 284 344 409
#     4  11  22  41  64 102 147 191 236 281 343 412
#     4  12  25  47  74  99 134 176 230 293 360 417
#
# _framework density 24.061762999999999
#
# number of rings (size 3 to 8) (size 9 to 14) (size 15 to 20)
#    0.000    1.000    2.500    3.750    7.000    4.500 
#    0.000    1.250    0.000    0.000    0.000    0.000 
#    0.000    0.000    0.000    0.000    0.000    0.000 
#
# Total GULP energy -178643.851648 kJ/mol
# GULP energy per Si atom -5582.620364 kJ/mol
# Density = 2.400700 g / cm^3
# Si number density = 24.061763 Si / 1000 Ang^3
#
#
#
# Elastic Constant Matrix: (Units=GPa)
#
#
# Indices 1 2 3 4 5 6 
#
# 1 119.2275 31.6910 44.7372 0.0000 -26.5742 0.0000
# 2 31.6910 102.6896 6.8702 0.0000 -15.4551 0.0000
# 3 44.7372 6.8702 77.1755 0.0000 -24.3200 0.0000
# 4 0.0000 0.0000 0.0000 36.5809 0.0000 -2.9174
# 5 -26.5742 -15.4551 -24.3200 0.0000 38.1956 0.0000
# 6 0.0000 0.0000 0.0000 -2.9174 0.0000 45.8980
#
#
#
# Elastic Compliance Matrix: (Units=1/GPa)
#
#
# Indices 1 2 3 4 5 6 
#
# 1 0.012042 -0.002786 -0.005564 0.000000 0.003708 0.000000
# 2 -0.002786 0.011030 0.001787 0.000000 0.003663 0.000000
# 3 -0.005564 0.001787 0.018805 0.000000 0.008826 0.000000
# 4 0.000000 0.000000 0.000000 0.027476 0.000000 0.001746
# 5 0.003708 0.003663 0.008826 0.000000 0.035862 0.000000
# 6 0.000000 0.000000 0.000000 0.001746 0.000000 0.021898
#
#
# Mechanical properties :
#
#
# Convention : Reuss Voigt Hill
#
# Bulk Modulus (GPa) = 34.78127 51.74326 43.26226
# Shear Modulus (GPa) = 33.37284 38.52120 35.94702
#
# Velocity S-wave (km/s) = 3.72824 4.00550 3.86936
# Velocity P-wave (km/s) = 5.74625 6.55310 6.16289
#
# Compressibility (1/GPa) = 0.02875111
#
# Stress axis : x y z
#
# Youngs Moduli (GPa) = 83.04190 90.66580 53.17750
#
# Poissons Ratio (x) = 0.25259 0.29588
# Poissons Ratio (y) = 0.23135 -0.09504
# Poissons Ratio (z) = 0.46205 -0.16205
#
# Static dielectric constant tensor:
#      x y z
#    x 1.978320 0.000000 0.061600 
#    y 0.000000 1.896470 0.000000 
#    z 0.061600 0.000000 2.038520 
# 
# From -- ./inp_files/295211.got.cif
#   From: 2010.05.17/outbox.cif.g08.bks.cpg/sg15_148_cif.got.tgz:295211.got - 2010.06.03 18:47:42.
