data_PCOD9294127
_publ_section_title
;
Structure prediction by ZEFSAII (Michael W. Deem and Ramdas Pophale) SiO2 
 PCOD9294127
Probable space group: C 2/C
;
_chemical_formula_sum "Si O2"
_cell_formula_units_Z 48
_cell_length_a 13.159032
_cell_length_b 32.918262
_cell_length_c 5.356282
_cell_angle_alpha 90.000000
_cell_angle_beta 77.165946
_cell_angle_gamma 90.000000
_cell_volume 2262.229632
_symmetry_space_group_name_H-M "C 2/C"
_symmetry_group_IT_number 15
_symmetry_cell_setting 'monoclinic'
loop_
_space_group_symop_operation_xyz
x,y,z
-x,y,1/2-z
-x,-y,-z
x,-y,1/2+z
1/2+x,1/2+y,z
1/2-x,1/2+y,1/2-z
1/2-x,1/2-y,-z
1/2+x,1/2-y,1/2+z
loop_
_atom_site_type_symbol
_atom_site_label
_atom_site_fract_x
_atom_site_fract_y
_atom_site_fract_z
Si Si1 0.611966 0.325413 0.866535
Si Si2 0.000000 0.236374 0.750000
Si Si3 0.828587 0.896773 0.005044
Si Si4 0.500000 0.390947 0.250000
Si Si5 0.374121 0.476888 0.785861
Si Si6 0.887272 0.360735 0.249352
Si Si7 0.848782 0.690622 0.271141
O O1 0.626871 0.352344 0.606417
O O2 0.724590 0.307157 0.861023
O O3 0.529558 0.291120 0.994725
O O4 0.580138 0.361750 0.065853
O O5 0.903993 0.266069 0.748481
O O6 0.715352 0.888968 0.181698
O O7 0.921281 0.915081 0.122739
O O8 0.826915 0.931204 0.795593
O O9 0.500000 0.476340 0.750000
O O10 0.339190 0.500337 0.556663
O O11 0.872156 0.329780 0.490890
O O12 0.000000 0.380069 0.250000
O O13 0.887296 0.336747 0.985161
#
# Coordination Sequence:
#
# PCOD9294127 Si02
#       7
#     8   4   8   4   8   8   8
#     4  10  23  39  59  90 121 172 210 258 324 373
#     4  11  22  42  62  84 130 166 214 278 322 376
#     4  11  24  40  67  92 133 165 217 257 314 391
#     4  11  20  38  60  90 130 154 218 254 312 372
#     4  10  23  39  64  98 136 167 201 250 318 381
#     4  11  22  43  68  90 120 170 220 265 313 371
#     4  11  22  43  61  88 124 165 218 274 321 373
#
# _framework density 21.218007
#
# number of rings (size 3 to 8) (size 9 to 14) (size 15 to 20)
#    0.000    1.333    3.333    2.000    5.833    0.000 
#   13.500    2.500    0.000    1.000    0.000    0.000 
#    0.000    0.000    0.000    0.000    0.000    0.000 
#
# Total GULP energy -133858.819369 kJ/mol
# GULP energy per Si atom -5577.450807 kJ/mol
# Density = 2.116971 g / cm^3
# Si number density = 21.218007 Si / 1000 Ang^3
#
#
#
# Elastic Constant Matrix: (Units=GPa)
#
#
# Indices 1 2 3 4 5 6 
#
# 1 97.8884 46.6878 44.0074 0.0000 -9.1345 0.0000
# 2 46.6878 93.6302 24.7695 0.0000 -5.1486 0.0000
# 3 44.0074 24.7695 89.1525 0.0000 6.7591 0.0000
# 4 0.0000 0.0000 0.0000 8.2029 0.0000 2.5013
# 5 -9.1345 -5.1486 6.7591 0.0000 29.6857 0.0000
# 6 0.0000 0.0000 0.0000 2.5013 0.0000 11.6924
#
#
#
# Elastic Compliance Matrix: (Units=1/GPa)
#
#
# Indices 1 2 3 4 5 6 
#
# 1 0.016892 -0.006247 -0.007036 0.000000 0.005716 0.000000
# 2 -0.006247 0.014067 -0.000879 0.000000 0.000718 0.000000
# 3 -0.007036 -0.000879 0.015375 0.000000 -0.005818 0.000000
# 4 0.000000 0.000000 0.000000 0.130415 0.000000 -0.027899
# 5 0.005716 0.000718 -0.005818 0.000000 0.036894 0.000000
# 6 0.000000 0.000000 0.000000 -0.027899 0.000000 0.091494
#
#
# Mechanical properties :
#
#
# Convention : Reuss Voigt Hill
#
# Bulk Modulus (GPa) = 55.52437 56.84449 56.18443
# Shear Modulus (GPa) = 14.72903 20.92994 17.82948
#
# Velocity S-wave (km/s) = 2.63758 3.14415 2.90194
# Velocity P-wave (km/s) = 5.95828 6.32690 6.14536
#
# Compressibility (1/GPa) = 0.01801011
#
# Stress axis : x y z
#
# Youngs Moduli (GPa) = 59.20003 71.08584 65.04027
#
# Poissons Ratio (x) = 0.44410 0.45761
# Poissons Ratio (y) = 0.36984 0.05717
# Poissons Ratio (z) = 0.41652 0.06248
#
# Static dielectric constant tensor:
#      x y z
#    x 1.808930 0.000000 0.040870 
#    y 0.000000 1.727270 0.000000 
#    z 0.040870 0.000000 1.887220 
# 
# From -- ./inp_files/8676.got.cif
#   From: 2010.05.17/outbox.cif.g08.bks.cpg/sg15_5_cif.got.tgz:8676.got - 2010.06.03 18:47:42.
