data_PCOD9294551
_publ_section_title
;
Structure prediction by ZEFSAII (Michael W. Deem and Ramdas Pophale) SiO2 
 PCOD9294551
Probable space group: C 2/C
;
_chemical_formula_sum "Si O2"
_cell_formula_units_Z 56
_cell_length_a 30.547094
_cell_length_b 10.552918
_cell_length_c 9.147933
_cell_angle_alpha 90.000000
_cell_angle_beta 63.585223
_cell_angle_gamma 90.000000
_cell_volume 2641.058963
_symmetry_space_group_name_H-M "C 2/C"
_symmetry_group_IT_number 15
_symmetry_cell_setting 'monoclinic'
loop_
_space_group_symop_operation_xyz
x,y,z
-x,y,1/2-z
-x,-y,-z
x,-y,1/2+z
1/2+x,1/2+y,z
1/2-x,1/2+y,1/2-z
1/2-x,1/2-y,-z
1/2+x,1/2-y,1/2+z
loop_
_atom_site_type_symbol
_atom_site_label
_atom_site_fract_x
_atom_site_fract_y
_atom_site_fract_z
Si Si1 0.615596 0.220101 0.519999
Si Si2 0.503880 0.330721 0.395359
Si Si3 0.169589 0.904047 0.236269
Si Si4 0.076760 0.066726 0.289781
Si Si5 0.215472 0.643396 0.484844
Si Si6 0.472127 0.898434 0.442387
Si Si7 0.763734 0.951376 0.625200
O O1 0.640055 0.286215 0.343610
O O2 0.584310 0.328935 0.651917
O O3 0.659251 0.181103 0.563028
O O4 0.584730 0.097637 0.516820
O O5 0.500000 0.257102 0.250000
O O6 0.539248 0.450804 0.311948
O O7 0.450832 0.370901 0.532080
O O8 0.525099 0.237782 0.483585
O O9 0.129239 0.009726 0.253285
O O10 0.202722 0.956928 0.321415
O O11 0.201088 0.880333 0.043048
O O12 0.250000 0.750000 0.500000
O O13 0.227099 0.525144 0.571883
O O14 0.233793 0.624175 0.291291
O O15 0.500000 0.894160 0.250000
O O16 0.500000 0.000000 0.500000
#
# Coordination Sequence:
#
# PCOD9294551 Si02
#       7
#     8   8   8   8   8   8   8
#     4  12  23  41  72 102 136 192 230 294 357 425
#     4  11  24  39  68 105 142 170 223 296 358 413
#     4  11  19  38  66 104 137 170 230 289 359 417
#     4  11  22  38  70 109 138 172 226 295 367 415
#     4  11  23  46  67  99 143 183 237 295 361 418
#     4  12  27  49  69  93 141 191 238 280 337 425
#     4  10  23  40  68  98 138 185 226 298 347 424
#
# _framework density 21.203616
#
# number of rings (size 3 to 8) (size 9 to 14) (size 15 to 20)
#    0.000    0.857    5.714    2.143    2.000    1.714 
#    0.000    0.000    0.000    0.000    0.000    0.000 
#    0.000    0.000    0.000    0.000    0.000    0.000 
#
# Total GULP energy -156351.467466 kJ/mol
# GULP energy per Si atom -5583.980981 kJ/mol
# Density = 2.115536 g / cm^3
# Si number density = 21.203616 Si / 1000 Ang^3
#
#
#
# Elastic Constant Matrix: (Units=GPa)
#
#
# Indices 1 2 3 4 5 6 
#
# 1 112.5505 49.8432 37.8212 0.0000 4.1277 0.0000
# 2 49.8432 57.4664 44.8037 0.0000 -4.9141 0.0000
# 3 37.8212 44.8037 160.1037 0.0000 15.5603 0.0000
# 4 0.0000 0.0000 0.0000 16.3850 0.0000 5.0375
# 5 4.1277 -4.9141 15.5603 0.0000 28.2756 0.0000
# 6 0.0000 0.0000 0.0000 5.0375 0.0000 36.3970
#
#
#
# Elastic Compliance Matrix: (Units=1/GPa)
#
#
# Indices 1 2 3 4 5 6 
#
# 1 0.015067 -0.014236 0.000928 0.000000 -0.005184 0.000000
# 2 -0.014236 0.037420 -0.008392 0.000000 0.013200 0.000000
# 3 0.000928 -0.008392 0.009012 0.000000 -0.006553 0.000000
# 4 0.000000 0.000000 0.000000 0.063744 0.000000 -0.008822
# 5 -0.005184 0.013200 -0.006553 0.000000 0.042023 0.000000
# 6 0.000000 0.000000 0.000000 -0.008822 0.000000 0.028696
#
#
# Mechanical properties :
#
#
# Convention : Reuss Voigt Hill
#
# Bulk Modulus (GPa) = 55.24507 66.11742 60.68125
# Shear Modulus (GPa) = 20.37535 29.38834 24.88184
#
# Velocity S-wave (km/s) = 3.10326 3.72695 3.42931
# Velocity P-wave (km/s) = 6.24111 7.05479 6.66039
#
# Compressibility (1/GPa) = 0.01810116
#
# Stress axis : x y z
#
# Youngs Moduli (GPa) = 66.36824 26.72359 110.96416
#
# Poissons Ratio (x) = 0.38043 -0.10300
# Poissons Ratio (y) = 0.94480 0.93118
# Poissons Ratio (z) = -0.06161 0.22426
#
# Static dielectric constant tensor:
#      x y z
#    x 1.822010 0.000000 0.028690 
#    y 0.000000 1.912150 0.000000 
#    z 0.028690 0.000000 1.758970 
# 
# From -- ./inp_files/69045.got.cif
#   From: 2010.05.17/outbox.cif.g08.bks.cpg/sg15_35_cif.got.tgz:69045.got - 2010.06.03 18:47:42.
