data_PCOD9294227
_publ_section_title
;
Structure prediction by ZEFSAII (Michael W. Deem and Ramdas Pophale) SiO2 
 PCOD9294227
Probable space group: C 2/C
;
_chemical_formula_sum "Si O2"
_cell_formula_units_Z 52
_cell_length_a 14.861808
_cell_length_b 12.430973
_cell_length_c 11.778981
_cell_angle_alpha 90.000000
_cell_angle_beta 100.810001
_cell_angle_gamma 90.000000
_cell_volume 2137.511847
_symmetry_space_group_name_H-M "C 2/C"
_symmetry_group_IT_number 15
_symmetry_cell_setting 'monoclinic'
loop_
_space_group_symop_operation_xyz
x,y,z
-x,y,1/2-z
-x,-y,-z
x,-y,1/2+z
1/2+x,1/2+y,z
1/2-x,1/2+y,1/2-z
1/2-x,1/2-y,-z
1/2+x,1/2-y,1/2+z
loop_
_atom_site_type_symbol
_atom_site_label
_atom_site_fract_x
_atom_site_fract_y
_atom_site_fract_z
Si Si1 0.000000 0.198616 0.250000
Si Si2 0.240629 0.654309 0.281342
Si Si3 0.344275 0.463326 0.414814
Si Si4 0.911939 0.367754 0.564196
Si Si5 0.108381 0.535342 0.135296
Si Si6 0.170780 0.347481 0.307285
Si Si7 0.968804 0.136456 0.495076
O O1 0.916973 0.274493 0.183218
O O2 0.980552 0.131691 0.360150
O O3 0.306752 0.551560 0.314965
O O4 0.166850 0.653482 0.364094
O O5 0.183974 0.627667 0.155056
O O6 0.284360 0.770363 0.277726
O O7 0.254862 0.387270 0.406771
O O8 0.390915 0.549516 0.513090
O O9 0.434656 0.389211 0.420344
O O10 0.882640 0.461640 0.472077
O O11 0.933419 0.254948 0.510263
O O12 0.010384 0.411152 0.626596
O O13 0.128022 0.454115 0.242961
#
# Coordination Sequence:
#
# PCOD9294227 Si02
#       7
#     4   8   8   8   8   8   8
#     4  12  24  44  68  88 140 176 220 288 330 396
#     4  11  23  43  66 102 134 175 225 281 323 406
#     4  10  24  44  67  96 134 171 225 268 340 400
#     4  11  23  41  70  98 135 178 220 282 325 407
#     4  10  23  39  65 101 134 172 224 262 349 386
#     4  11  24  43  66  99 134 177 219 279 334 398
#     4  11  24  47  64  99 132 177 220 277 339 402
#
# _framework density 24.327351
#
# number of rings (size 3 to 8) (size 9 to 14) (size 15 to 20)
#    0.000    1.231    3.077    1.385    4.308    4.308 
#    5.538    0.000    0.000    0.000    0.000    0.000 
#    0.000    0.000    0.000    0.000    0.000    0.000 
#
# Total GULP energy -145002.997825 kJ/mol
# GULP energy per Si atom -5577.038378 kJ/mol
# Density = 2.427198 g / cm^3
# Si number density = 24.327351 Si / 1000 Ang^3
#
#
#
# Elastic Constant Matrix: (Units=GPa)
#
#
# Indices 1 2 3 4 5 6 
#
# 1 147.1787 50.0110 57.6522 0.0000 27.0065 0.0000
# 2 50.0110 93.3391 28.5051 0.0000 -8.5341 0.0000
# 3 57.6522 28.5051 64.2878 0.0000 12.9545 0.0000
# 4 0.0000 0.0000 0.0000 3.7752 0.0000 2.6348
# 5 27.0065 -8.5341 12.9545 0.0000 41.8017 0.0000
# 6 0.0000 0.0000 0.0000 2.6348 0.0000 35.4289
#
#
#
# Elastic Compliance Matrix: (Units=1/GPa)
#
#
# Indices 1 2 3 4 5 6 
#
# 1 0.012908 -0.005139 -0.007899 0.000000 -0.006941 0.000000
# 2 -0.005139 0.015291 -0.003701 0.000000 0.007588 0.000000
# 3 -0.007899 -0.003701 0.024962 0.000000 -0.003388 0.000000
# 4 0.000000 0.000000 0.000000 0.279389 0.000000 -0.020778
# 5 -0.006941 0.007588 -0.003388 0.000000 0.031006 0.000000
# 6 0.000000 0.000000 0.000000 -0.020778 0.000000 0.029771
#
#
# Mechanical properties :
#
#
# Convention : Reuss Voigt Hill
#
# Bulk Modulus (GPa) = 50.80050 64.12689 57.46370
# Shear Modulus (GPa) = 11.53762 27.44365 19.49064
#
# Velocity S-wave (km/s) = 2.18013 3.36236 2.83359
# Velocity P-wave (km/s) = 5.22156 6.44137 5.86327
#
# Compressibility (1/GPa) = 0.01968485
#
# Stress axis : x y z
#
# Youngs Moduli (GPa) = 77.47024 65.39839 40.06034
#
# Poissons Ratio (x) = 0.33605 0.31643
# Poissons Ratio (y) = 0.39808 0.14826
# Poissons Ratio (z) = 0.61192 0.24204
#
# Static dielectric constant tensor:
#      x y z
#    x 2.007140 0.000000 0.064310 
#    y 0.000000 1.917710 0.000000 
#    z 0.064310 0.000000 2.004810 
# 
# From -- ./inp_files/152679.got.cif
#   From: 2010.05.17/outbox.cif.g08.bks.cpg/sg15_77_cif.got.tgz:152679.got - 2010.06.03 18:47:42.
