data_PCOD9294657
_publ_section_title
;
Structure prediction by ZEFSAII (Michael W. Deem and Ramdas Pophale) SiO2 
 PCOD9294657
Probable space group: C 2/C
;
_chemical_formula_sum "Si O2"
_cell_formula_units_Z 48
_cell_length_a 12.034066
_cell_length_b 12.173317
_cell_length_c 21.361879
_cell_angle_alpha 90.000000
_cell_angle_beta 138.846412
_cell_angle_gamma 90.000000
_cell_volume 2059.393333
_symmetry_space_group_name_H-M "C 2/C"
_symmetry_group_IT_number 15
_symmetry_cell_setting 'monoclinic'
loop_
_space_group_symop_operation_xyz
x,y,z
-x,y,1/2-z
-x,-y,-z
x,-y,1/2+z
1/2+x,1/2+y,z
1/2-x,1/2+y,1/2-z
1/2-x,1/2-y,-z
1/2+x,1/2-y,1/2+z
loop_
_atom_site_type_symbol
_atom_site_label
_atom_site_fract_x
_atom_site_fract_y
_atom_site_fract_z
Si Si1 0.804584 0.216145 0.671435
Si Si2 0.836919 0.937981 0.863951
Si Si3 0.698243 0.724396 0.391450
Si Si4 0.300860 0.275081 0.746867
Si Si5 0.221633 0.042932 0.542198
Si Si6 0.828149 0.517448 0.964368
O O1 0.681017 0.319851 0.607543
O O2 0.765410 0.191804 0.728251
O O3 0.000000 0.249398 0.750000
O O4 0.766189 0.117736 0.608532
O O5 0.780574 0.895270 0.771691
O O6 0.734527 0.016375 0.866935
O O7 0.026193 0.984755 0.944156
O O8 0.773874 0.735225 0.353195
O O9 0.498807 0.741264 0.317655
O O10 0.775295 0.825415 0.462027
O O11 0.728494 0.596821 0.416735
O O12 0.339829 0.976434 0.544603
O O13 0.000000 0.500000 0.000000
#
# Coordination Sequence:
#
# PCOD9294657 Si02
#       6
#     8   8   8   8   8   8
#     4  10  23  41  63  90 133 165 210 263 323 380
#     4   9  22  44  62  92 124 166 209 259 316 384
#     4  11  22  40  67  89 123 165 212 265 301 382
#     4   9  22  43  60  90 121 166 213 251 317 377
#     4  11  22  40  69  90 128 163 213 263 314 376
#     4  12  24  37  64  97 129 167 212 267 314 385
#
# _framework density 23.307835000000001
#
# number of rings (size 3 to 8) (size 9 to 14) (size 15 to 20)
#    1.000    0.667    1.667    2.500    2.333    6.000 
#    3.000    0.000    0.000    0.000    0.000    0.000 
#    0.000    0.000    0.000    0.000    0.000    0.000 
#
# Total GULP energy -133704.615984 kJ/mol
# GULP energy per Si atom -5571.025666 kJ/mol
# Density = 2.325479 g / cm^3
# Si number density = 23.307835 Si / 1000 Ang^3
#
#
#
# Elastic Constant Matrix: (Units=GPa)
#
#
# Indices 1 2 3 4 5 6 
#
# 1 161.5654 16.4803 22.2131 0.0000 -15.9111 0.0000
# 2 16.4803 71.7785 0.5809 0.0000 -14.3063 0.0000
# 3 22.2131 0.5809 17.7422 0.0000 -1.4333 0.0000
# 4 0.0000 0.0000 0.0000 18.9791 0.0000 -9.0428
# 5 -15.9111 -14.3063 -1.4333 0.0000 39.7470 0.0000
# 6 0.0000 0.0000 0.0000 -9.0428 0.0000 33.6571
#
#
#
# Elastic Compliance Matrix: (Units=1/GPa)
#
#
# Indices 1 2 3 4 5 6 
#
# 1 0.007873 -0.001261 -0.009626 0.000000 0.002351 0.000000
# 2 -0.001261 0.015211 0.001487 0.000000 0.005024 0.000000
# 3 -0.009626 0.001487 0.068296 0.000000 -0.000855 0.000000
# 4 0.000000 0.000000 0.000000 0.060425 0.000000 0.016235
# 5 0.002351 0.005024 -0.000855 0.000000 0.027877 0.000000
# 6 0.000000 0.000000 0.000000 0.016235 0.000000 0.034073
#
#
# Mechanical properties :
#
#
# Convention : Reuss Voigt Hill
#
# Bulk Modulus (GPa) = 13.77799 36.62609 25.20204
# Shear Modulus (GPa) = 19.47432 32.59743 26.03588
#
# Velocity S-wave (km/s) = 2.89368 3.74379 3.34585
# Velocity P-wave (km/s) = 4.13385 5.86823 5.07567
#
# Compressibility (1/GPa) = 0.07257952
#
# Stress axis : x y z
#
# Youngs Moduli (GPa) = 127.01665 65.74392 14.64211
#
# Poissons Ratio (x) = 0.08292 0.14094
# Poissons Ratio (y) = 0.16020 -0.02177
# Poissons Ratio (z) = 1.22262 -0.09775
#
# Static dielectric constant tensor:
#      x y z
#    x 1.940490 0.000000 -0.085840 
#    y 0.000000 1.902250 0.000000 
#    z -0.085840 0.000000 1.959250 
# 
# From -- ./inp_files/269034.got.cif
#   From: 2010.05.17/outbox.cif.g08.bks.cpg/sg15_135_cif.got.tgz:269034.got - 2010.06.03 18:47:42.
