data_PCOD9294894
_publ_section_title
;
Structure prediction by ZEFSAII (Michael W. Deem and Ramdas Pophale) SiO2 
 PCOD9294894
Probable space group: C 2/C
;
_chemical_formula_sum "Si O2"
_cell_formula_units_Z 52
_cell_length_a 19.603779
_cell_length_b 16.259771
_cell_length_c 9.734606
_cell_angle_alpha 90.000000
_cell_angle_beta 127.881053
_cell_angle_gamma 90.000000
_cell_volume 2449.106376
_symmetry_space_group_name_H-M "C 2/C"
_symmetry_group_IT_number 15
_symmetry_cell_setting 'monoclinic'
loop_
_space_group_symop_operation_xyz
x,y,z
-x,y,1/2-z
-x,-y,-z
x,-y,1/2+z
1/2+x,1/2+y,z
1/2-x,1/2+y,1/2-z
1/2-x,1/2-y,-z
1/2+x,1/2-y,1/2+z
loop_
_atom_site_type_symbol
_atom_site_label
_atom_site_fract_x
_atom_site_fract_y
_atom_site_fract_z
Si Si1 0.161279 0.829216 0.605869
Si Si2 0.788061 0.185380 0.723109
Si Si3 0.463684 0.072457 0.358836
Si Si4 0.185992 0.119864 0.443354
Si Si5 0.000000 0.145530 0.250000
Si Si6 0.480624 0.737141 0.940849
Si Si7 0.236642 0.447243 0.946004
O O1 0.221337 0.758670 0.616852
O O2 0.183447 0.833180 0.795736
O O3 0.193403 0.913173 0.576618
O O4 0.060978 0.806207 0.464045
O O5 0.883262 0.209105 0.785705
O O6 0.754231 0.104178 0.605955
O O7 0.792952 0.170111 0.893067
O O8 0.500000 0.060900 0.250000
O O9 0.489028 0.164700 0.437485
O O10 0.359742 0.068833 0.226013
O O11 0.500000 0.000000 0.500000
O O12 0.086182 0.092439 0.341048
O O13 0.248648 0.042869 0.511095
O O14 0.008622 0.205029 0.390639
#
# Coordination Sequence:
#
# PCOD9294894 Si02
#       7
#     8   8   8   8   4   8   8
#     4  11  23  42  69  98 132 183 223 278 336 405
#     4  11  23  43  67  98 136 180 231 277 327 415
#     4  12  30  47  67  98 139 179 223 279 341 402
#     4  10  23  41  68  96 136 174 225 275 343 397
#     4   8  20  44  68 102 128 180 222 284 328 412
#     4  10  23  43  71  97 136 176 233 276 341 396
#     4  12  26  43  68 101 137 171 222 281 345 395
#
# _framework density 21.232233999999998
#
# number of rings (size 3 to 8) (size 9 to 14) (size 15 to 20)
#    0.000    1.231    1.538    2.769    9.692    1.231 
#    0.000    4.615    0.000    0.000    0.000    0.000 
#    0.000    0.000    0.000    0.000    0.000    0.000 
#
# Total GULP energy -145364.580958 kJ/mol
# GULP energy per Si atom -5590.945421 kJ/mol
# Density = 2.118391 g / cm^3
# Si number density = 21.232234 Si / 1000 Ang^3
#
#
#
# Elastic Constant Matrix: (Units=GPa)
#
#
# Indices 1 2 3 4 5 6 
#
# 1 122.8957 33.6270 40.5883 0.0000 14.1893 0.0000
# 2 33.6270 71.9282 19.0584 0.0000 13.7089 0.0000
# 3 40.5883 19.0584 87.0898 0.0000 2.8890 0.0000
# 4 0.0000 0.0000 0.0000 20.2348 0.0000 2.9765
# 5 14.1893 13.7089 2.8890 0.0000 39.4046 0.0000
# 6 0.0000 0.0000 0.0000 2.9765 0.0000 21.8797
#
#
#
# Elastic Compliance Matrix: (Units=1/GPa)
#
#
# Indices 1 2 3 4 5 6 
#
# 1 0.010733 -0.003465 -0.004166 0.000000 -0.002354 0.000000
# 2 -0.003465 0.016890 -0.001932 0.000000 -0.004486 0.000000
# 3 -0.004166 -0.001932 0.013808 0.000000 0.001160 0.000000
# 4 0.000000 0.000000 0.000000 0.050429 0.000000 -0.006860
# 5 -0.002354 -0.004486 0.001160 0.000000 0.027701 0.000000
# 6 0.000000 0.000000 0.000000 -0.006860 0.000000 0.046638
#
#
# Mechanical properties :
#
#
# Convention : Reuss Voigt Hill
#
# Bulk Modulus (GPa) = 44.83415 52.05125 48.44270
# Shear Modulus (GPa) = 25.93906 28.87983 27.40944
#
# Velocity S-wave (km/s) = 3.49905 3.69207 3.59686
# Velocity P-wave (km/s) = 6.12261 6.53786 6.33364
#
# Compressibility (1/GPa) = 0.02230443
#
# Stress axis : x y z
#
# Youngs Moduli (GPa) = 93.17345 59.20713 72.42106
#
# Poissons Ratio (x) = 0.20517 0.30167
# Poissons Ratio (y) = 0.32287 0.13994
# Poissons Ratio (z) = 0.38812 0.11440
#
# Static dielectric constant tensor:
#      x y z
#    x 1.784380 0.000000 -0.018260 
#    y 0.000000 1.708750 0.000000 
#    z -0.018260 0.000000 1.766010 
# 
# From -- ./inp_files/49228.got.cif
#   From: 2010.05.17/outbox.cif.g08.bks.cpg/sg15_25_cif.got.tgz:49228.got - 2010.06.03 18:47:42.
