data_PCOD9294804
_publ_section_title
;
Structure prediction by ZEFSAII (Michael W. Deem and Ramdas Pophale) SiO2 
 PCOD9294804
Probable space group: C 2/C
;
_chemical_formula_sum "Si O2"
_cell_formula_units_Z 32
_cell_length_a 13.140127
_cell_length_b 11.413340
_cell_length_c 9.717492
_cell_angle_alpha 90.000000
_cell_angle_beta 109.345306
_cell_angle_gamma 90.000000
_cell_volume 1375.075380
_symmetry_space_group_name_H-M "C 2/C"
_symmetry_group_IT_number 15
_symmetry_cell_setting 'monoclinic'
loop_
_space_group_symop_operation_xyz
x,y,z
-x,y,1/2-z
-x,-y,-z
x,-y,1/2+z
1/2+x,1/2+y,z
1/2-x,1/2+y,1/2-z
1/2-x,1/2-y,-z
1/2+x,1/2-y,1/2+z
loop_
_atom_site_type_symbol
_atom_site_label
_atom_site_fract_x
_atom_site_fract_y
_atom_site_fract_z
Si Si1 0.357558 0.760917 0.464005
Si Si2 0.856922 0.463446 0.934083
Si Si3 0.500000 0.994203 0.750000
Si Si4 0.879333 0.921298 0.735375
Si Si5 0.500000 0.351690 0.250000
O O1 0.250000 0.750000 0.500000
O O2 0.361683 0.895148 0.420930
O O3 0.352163 0.660809 0.348838
O O4 0.453821 0.723306 0.606535
O O5 0.914547 0.428133 0.814891
O O6 0.733403 0.422476 0.898677
O O7 0.925771 0.438390 0.103606
O O8 0.000000 0.876423 0.750000
O O9 0.908541 0.058836 0.767631
#
# Coordination Sequence:
#
# PCOD9294804 Si02
#       5
#     8   8   4   8   4
#     4  12  22  41  68  98 130 180 222 266 340 406
#     4  11  23  45  70  97 139 178 231 275 339 407
#     4  10  25  43  66  98 142 182 217 285 340 400
#     4  10  24  42  68 102 133 171 219 288 332 385
#     4  10  23  41  66  98 134 170 221 281 332 394
#
# _framework density 23.271450999999999
#
# number of rings (size 3 to 8) (size 9 to 14) (size 15 to 20)
#    0.750    0.500    2.500    3.000    1.750    2.000 
#    0.000    1.250    0.000    0.000    0.000    0.000 
#    0.000    0.000    0.000    0.000    0.000    0.000 
#
# Total GULP energy -89129.903706 kJ/mol
# GULP energy per Si atom -5570.618982 kJ/mol
# Density = 2.321848 g / cm^3
# Si number density = 23.271451 Si / 1000 Ang^3
#
#
#
# Elastic Constant Matrix: (Units=GPa)
#
#
# Indices 1 2 3 4 5 6 
#
# 1 181.2884 18.4772 66.6589 0.0000 17.8300 0.0000
# 2 18.4772 92.9351 28.1302 0.0000 -6.6116 0.0000
# 3 66.6589 28.1302 138.3590 0.0000 28.5003 0.0000
# 4 0.0000 0.0000 0.0000 13.7613 0.0000 10.4527
# 5 17.8300 -6.6116 28.5003 0.0000 51.1450 0.0000
# 6 0.0000 0.0000 0.0000 10.4527 0.0000 24.0442
#
#
#
# Elastic Compliance Matrix: (Units=1/GPa)
#
#
# Indices 1 2 3 4 5 6 
#
# 1 0.006740 -0.000486 -0.002995 0.000000 -0.000743 0.000000
# 2 -0.000486 0.011966 -0.002883 0.000000 0.003323 0.000000
# 3 -0.002995 -0.002883 0.010301 0.000000 -0.005069 0.000000
# 4 0.000000 0.000000 0.000000 0.108493 0.000000 -0.047165
# 5 -0.000743 0.003323 -0.005069 0.000000 0.023065 0.000000
# 6 0.000000 0.000000 0.000000 -0.047165 0.000000 0.062094
#
#
# Mechanical properties :
#
#
# Convention : Reuss Voigt Hill
#
# Bulk Modulus (GPa) = 61.43362 71.01280 66.22321
# Shear Modulus (GPa) = 20.76284 37.74451 29.25367
#
# Velocity S-wave (km/s) = 2.99022 4.03168 3.54935
# Velocity P-wave (km/s) = 6.19499 7.22868 6.73170
#
# Compressibility (1/GPa) = 0.01627773
#
# Stress axis : x y z
#
# Youngs Moduli (GPa) = 148.36577 83.57048 97.07943
#
# Poissons Ratio (x) = 0.04064 0.29078
# Poissons Ratio (y) = 0.07215 0.27988
# Poissons Ratio (z) = 0.44439 0.24094
#
# Static dielectric constant tensor:
#      x y z
#    x 1.978360 0.000000 0.048250 
#    y 0.000000 1.820640 0.000000 
#    z 0.048250 0.000000 1.915830 
# 
# From -- ./inp_files/28046.got.cif
#   From: 2010.05.17/outbox.cif.g08.bks.cpg/sg15_15_cif.got.tgz:28046.got - 2010.06.03 18:47:42.
