data_PCOD9294769
_publ_section_title
;
Structure prediction by ZEFSAII (Michael W. Deem and Ramdas Pophale) SiO2 
 PCOD9294769
Probable space group: C 2/C
;
_chemical_formula_sum "Si O2"
_cell_formula_units_Z 32
_cell_length_a 20.995299
_cell_length_b 7.087910
_cell_length_c 12.066168
_cell_angle_alpha 90.000000
_cell_angle_beta 127.021078
_cell_angle_gamma 90.000000
_cell_volume 1433.632383
_symmetry_space_group_name_H-M "C 2/C"
_symmetry_group_IT_number 15
_symmetry_cell_setting 'monoclinic'
loop_
_space_group_symop_operation_xyz
x,y,z
-x,y,1/2-z
-x,-y,-z
x,-y,1/2+z
1/2+x,1/2+y,z
1/2-x,1/2+y,1/2-z
1/2-x,1/2-y,-z
1/2+x,1/2-y,1/2+z
loop_
_atom_site_type_symbol
_atom_site_label
_atom_site_fract_x
_atom_site_fract_y
_atom_site_fract_z
Si Si1 0.423565 0.627749 0.442800
Si Si2 0.866664 0.625549 0.071731
Si Si3 0.186336 0.087338 0.816449
Si Si4 0.415818 0.729329 0.202380
O O1 0.500000 0.500000 0.500000
O O2 0.419707 0.737203 0.552491
O O3 0.348641 0.488918 0.336154
O O4 0.422541 0.775390 0.340012
O O5 0.899507 0.416590 0.117917
O O6 0.852490 0.722218 0.176424
O O7 0.780346 0.611689 0.922025
O O8 0.154671 0.925327 0.869328
O O9 0.500000 0.646595 0.250000
#
# Coordination Sequence:
#
# PCOD9294769 Si02
#       4
#     8   8   8   8
#     4  10  24  43  66  99 136 172 217 285 327 386
#     4  11  22  44  70  89 135 178 217 272 333 394
#     4   9  24  44  62  98 133 170 221 278 323 386
#     4  10  23  41  66 101 131 170 223 268 329 399
#
# _framework density 22.320924000000002
#
# number of rings (size 3 to 8) (size 9 to 14) (size 15 to 20)
#    1.500    0.500    0.000    2.250    3.500    5.000 
#    9.000    0.000    0.000    0.000    0.000    0.000 
#    0.000    0.000    0.000    0.000    0.000    0.000 
#
# Total GULP energy -89227.155568 kJ/mol
# GULP energy per Si atom -5576.697223 kJ/mol
# Density = 2.227012 g / cm^3
# Si number density = 22.320924 Si / 1000 Ang^3
#
#
#
# Elastic Constant Matrix: (Units=GPa)
#
#
# Indices 1 2 3 4 5 6 
#
# 1 68.6242 23.9114 -2.0714 0.0000 12.2072 0.0000
# 2 23.9114 88.0733 11.4464 0.0000 17.2795 0.0000
# 3 -2.0714 11.4464 21.9512 0.0000 1.0677 0.0000
# 4 0.0000 0.0000 0.0000 8.7551 0.0000 10.9036
# 5 12.2072 17.2795 1.0677 0.0000 23.6606 0.0000
# 6 0.0000 0.0000 0.0000 10.9036 0.0000 27.9733
#
#
#
# Elastic Compliance Matrix: (Units=1/GPa)
#
#
# Indices 1 2 3 4 5 6 
#
# 1 0.017169 -0.003977 0.003992 0.000000 -0.006134 0.000000
# 2 -0.003977 0.015154 -0.007856 0.000000 -0.008661 0.000000
# 3 0.003992 -0.007856 0.049960 0.000000 0.001423 0.000000
# 4 0.000000 0.000000 0.000000 0.221976 0.000000 -0.086523
# 5 -0.006134 -0.008661 0.001423 0.000000 0.051690 0.000000
# 6 0.000000 0.000000 0.000000 -0.086523 0.000000 0.069474
#
#
# Mechanical properties :
#
#
# Convention : Reuss Voigt Hill
#
# Bulk Modulus (GPa) = 15.01459 27.24685 21.13072
# Shear Modulus (GPa) = 10.79202 21.76863 16.28033
#
# Velocity S-wave (km/s) = 2.20123 3.12630 2.70362
# Velocity P-wave (km/s) = 3.63344 5.02643 4.38559
#
# Compressibility (1/GPa) = 0.06660190
#
# Stress axis : x y z
#
# Youngs Moduli (GPa) = 58.24303 65.98885 20.01616
#
# Poissons Ratio (x) = 0.26242 -0.07991
# Poissons Ratio (y) = 0.23162 0.15725
# Poissons Ratio (z) = -0.23252 0.51841
#
# Static dielectric constant tensor:
#      x y z
#    x 1.821670 0.000000 -0.013970 
#    y 0.000000 1.792350 0.000000 
#    z -0.013970 0.000000 1.882020 
# 
# From -- ./inp_files/116037.got.cif
#   From: 2010.05.17/outbox.cif.g08.bks.cpg/sg15_59_cif.got.tgz:116037.got - 2010.06.03 18:47:42.
