data_PCOD9294852
_publ_section_title
;
Structure prediction by ZEFSAII (Michael W. Deem and Ramdas Pophale) SiO2 
 PCOD9294852
Probable space group: C 2/C
;
_chemical_formula_sum "Si O2"
_cell_formula_units_Z 40
_cell_length_a 17.843722
_cell_length_b 10.260473
_cell_length_c 25.749234
_cell_angle_alpha 90.000000
_cell_angle_beta 156.739790
_cell_angle_gamma 90.000000
_cell_volume 1861.712483
_symmetry_space_group_name_H-M "C 2/C"
_symmetry_group_IT_number 15
_symmetry_cell_setting 'monoclinic'
loop_
_space_group_symop_operation_xyz
x,y,z
-x,y,1/2-z
-x,-y,-z
x,-y,1/2+z
1/2+x,1/2+y,z
1/2-x,1/2+y,1/2-z
1/2-x,1/2-y,-z
1/2+x,1/2-y,1/2+z
loop_
_atom_site_type_symbol
_atom_site_label
_atom_site_fract_x
_atom_site_fract_y
_atom_site_fract_z
Si Si1 0.055019 0.031429 0.666110
Si Si2 0.826112 0.201498 0.994270
Si Si3 0.957312 0.368376 0.441819
Si Si4 0.707381 0.694029 0.077550
Si Si5 0.000000 0.506986 0.750000
Si Si6 0.000000 0.914505 0.250000
O O1 0.260158 0.095458 0.788014
O O2 0.906977 0.124585 0.541447
O O3 0.023319 0.020602 0.708346
O O4 0.015836 0.887020 0.619575
O O5 0.875475 0.322766 0.989260
O O6 0.750000 0.250000 0.000000
O O7 0.661355 0.103828 0.872046
O O8 0.922050 0.247883 0.458658
O O9 0.000000 0.500000 0.500000
O O10 0.872768 0.594811 0.202753
O O11 0.817461 0.821100 0.127774
#
# Coordination Sequence:
#
# PCOD9294852 Si02
#       6
#     8   8   8   8   4   4
#     4  10  23  41  67  97 134 178 226 277 347 405
#     4  11  27  42  69 100 136 181 225 290 346 407
#     4  11  27  43  67 101 139 183 227 288 340 420
#     4   9  20  42  68  97 130 181 225 276 339 410
#     4   9  22  45  68  98 133 174 231 282 334 409
#     4   9  18  37  68 102 135 164 219 282 336 413
#
# _framework density 21.485596000000001
#
# number of rings (size 3 to 8) (size 9 to 14) (size 15 to 20)
#    0.000    2.000    0.000    0.600   11.200    6.400 
#    0.000    0.000    0.000    0.000    0.000    0.000 
#    0.000    0.000    0.000    0.000    0.000    0.000 
#
# Total GULP energy -111499.007565 kJ/mol
# GULP energy per Si atom -5574.950378 kJ/mol
# Density = 2.143669 g / cm^3
# Si number density = 21.485596 Si / 1000 Ang^3
#
#
#
# Elastic Constant Matrix: (Units=GPa)
#
#
# Indices 1 2 3 4 5 6 
#
# 1 113.8983 52.0267 20.9108 0.0000 13.8218 -0.0003
# 2 52.0267 102.2802 31.1670 0.0012 -5.7903 0.0004
# 3 20.9108 31.1670 90.9049 0.0072 -1.9908 0.0007
# 4 0.0000 0.0012 0.0072 35.1423 -0.0005 2.6379
# 5 13.8218 -5.7903 -1.9908 -0.0005 18.3952 -0.0001
# 6 -0.0003 0.0004 0.0007 2.6379 -0.0001 28.4996
#
#
#
# Elastic Compliance Matrix: (Units=1/GPa)
#
#
# Indices 1 2 3 4 5 6 
#
# 1 0.013980 -0.007570 -0.000905 0.000000 -0.012985 0.000000
# 2 -0.007570 0.015189 -0.003245 0.000000 0.010118 0.000000
# 3 -0.000905 -0.003245 0.012343 -0.000002 0.000994 0.000000
# 4 0.000000 0.000000 -0.000002 0.028655 0.000000 -0.002652
# 5 -0.012985 0.010118 0.000994 0.000000 0.067411 0.000000
# 6 0.000000 0.000000 0.000000 -0.002652 0.000000 0.035334
#
#
# Mechanical properties :
#
#
# Convention : Reuss Voigt Hill
#
# Bulk Modulus (GPa) = 55.33286 57.25474 56.29380
# Shear Modulus (GPa) = 24.70658 29.93934 27.32296
#
# Velocity S-wave (km/s) = 3.39472 3.73696 3.56994
# Velocity P-wave (km/s) = 6.41676 6.73243 6.57649
#
# Compressibility (1/GPa) = 0.01807244
#
# Stress axis : x y z
#
# Youngs Moduli (GPa) = 71.53266 65.83501 81.01874
#
# Poissons Ratio (x) = 0.49840 0.07328
# Poissons Ratio (y) = 0.54154 0.26289
# Poissons Ratio (z) = 0.06470 0.21362
#
# Static dielectric constant tensor:
#      x y z
#    x 1.763750 0.000000 -0.012290 
#    y 0.000000 -0.960560 0.000050 
#    z -0.012290 0.000050 1.810770 
# 
# From -- ./inp_files/317635.got.cif
#   From: 2010.05.17/outbox.cif.g08.bks.cpg/sg15_159_cif.got.tgz:317635.got - 2010.06.03 18:47:42.
