data_PCOD9294020
_publ_section_title
;
Structure prediction by ZEFSAII (Michael W. Deem and Ramdas Pophale) SiO2 
 PCOD9294020
Probable space group: C 2/C
;
_chemical_formula_sum "Si O2"
_cell_formula_units_Z 40
_cell_length_a 9.184650
_cell_length_b 25.911744
_cell_length_c 9.136733
_cell_angle_alpha 90.000000
_cell_angle_beta 102.522947
_cell_angle_gamma 90.000000
_cell_volume 2122.721924
_symmetry_space_group_name_H-M "C 2/C"
_symmetry_group_IT_number 15
_symmetry_cell_setting 'monoclinic'
loop_
_space_group_symop_operation_xyz
x,y,z
-x,y,1/2-z
-x,-y,-z
x,-y,1/2+z
1/2+x,1/2+y,z
1/2-x,1/2+y,1/2-z
1/2-x,1/2-y,-z
1/2+x,1/2-y,1/2+z
loop_
_atom_site_type_symbol
_atom_site_label
_atom_site_fract_x
_atom_site_fract_y
_atom_site_fract_z
Si Si1 0.454564 0.051571 0.905981
Si Si2 0.884228 0.293145 0.359827
Si Si3 0.065037 0.641263 0.112995
Si Si4 0.841046 0.880257 0.136790
Si Si5 0.138207 0.827226 0.673173
O O1 0.500000 0.043968 0.750000
O O2 0.284152 0.073817 0.884436
O O3 0.557505 0.097103 0.992092
O O4 0.500000 0.000000 0.000000
O O5 0.742306 0.330656 0.307404
O O6 0.852072 0.232904 0.368444
O O7 0.000000 0.299609 0.250000
O O8 0.962752 0.313672 0.524598
O O9 0.223308 0.661365 0.192540
O O10 0.000000 0.619532 0.250000
O O11 0.000000 0.890927 0.250000
O O12 0.864625 0.862613 0.972731
O O13 0.000000 0.835108 0.750000
#
# Coordination Sequence:
#
# PCOD9294020 Si02
#       5
#     8   8   8   8   8
#     4  11  25  47  75  94 120 169 214 270 332 398
#     4  10  23  38  59  92 131 189 221 253 315 383
#     4  11  21  40  64  91 131 171 230 257 315 394
#     4  11  24  41  64  97 135 163 215 274 326 375
#     4  11  25  36  61  95 136 180 214 269 315 375
#
# _framework density 18.843730999999998
#
# number of rings (size 3 to 8) (size 9 to 14) (size 15 to 20)
#    0.000    1.200    4.000    3.600    8.400    1.600 
#    0.000    2.000    0.000    0.000    0.000    0.000 
#    0.000    0.000    0.000    0.000    0.000    0.000 
#
# Total GULP energy -111611.042912 kJ/mol
# GULP energy per Si atom -5580.552146 kJ/mol
# Density = 1.880084 g / cm^3
# Si number density = 18.843731 Si / 1000 Ang^3
#
#
#
# Elastic Constant Matrix: (Units=GPa)
#
#
# Indices 1 2 3 4 5 6 
#
# 1 106.4169 73.6986 59.7489 0.0000 8.2614 0.0000
# 2 73.6986 121.2685 72.6127 0.0000 12.2366 0.0000
# 3 59.7489 72.6127 138.7888 0.0000 8.0109 0.0000
# 4 0.0000 0.0000 0.0000 47.8245 0.0000 -30.9209
# 5 8.2614 12.2366 8.0109 0.0000 44.7805 0.0000
# 6 0.0000 0.0000 0.0000 -30.9209 0.0000 38.3525
#
#
#
# Elastic Compliance Matrix: (Units=1/GPa)
#
#
# Indices 1 2 3 4 5 6 
#
# 1 0.016933 -0.008602 -0.002773 0.000000 -0.000277 0.000000
# 2 -0.008602 0.016592 -0.004858 0.000000 -0.002078 0.000000
# 3 -0.002773 -0.004858 0.010947 0.000000 -0.000119 0.000000
# 4 0.000000 0.000000 0.000000 0.043677 0.000000 0.035214
# 5 -0.000277 -0.002078 -0.000119 0.000000 0.022971 0.000000
# 6 0.000000 0.000000 0.000000 0.035214 0.000000 0.054464
#
#
# Mechanical properties :
#
#
# Convention : Reuss Voigt Hill
#
# Bulk Modulus (GPa) = 83.28717 86.51051 84.89884
# Shear Modulus (GPa) = 24.74581 36.88576 30.81578
#
# Velocity S-wave (km/s) = 3.62776 4.42911 4.04831
# Velocity P-wave (km/s) = 7.86399 8.49501 8.18558
#
# Compressibility (1/GPa) = 0.01200665
#
# Stress axis : x y z
#
# Youngs Moduli (GPa) = 59.05639 60.26857 91.34593
#
# Poissons Ratio (x) = 0.51845 0.25331
# Poissons Ratio (y) = 0.50802 0.44373
# Poissons Ratio (z) = 0.16377 0.29277
#
# Static dielectric constant tensor:
#      x y z
#    x 1.861890 0.000000 -0.045360 
#    y 0.000000 1.677820 0.000000 
#    z -0.045360 0.000000 1.651540 
# 
# From -- ./inp_files/23419.got.cif
#   From: 2010.05.17/outbox.cif.g08.bks.cpg/sg15_12_cif.got.tgz:23419.got - 2010.06.03 18:47:42.
