data_PCOD9294016
_publ_section_title
;
Structure prediction by ZEFSAII (Michael W. Deem and Ramdas Pophale) SiO2 
 PCOD9294016
Probable space group: C 2/C
;
_chemical_formula_sum "Si O2"
_cell_formula_units_Z 44
_cell_length_a 20.627099
_cell_length_b 18.279269
_cell_length_c 17.200460
_cell_angle_alpha 90.000000
_cell_angle_beta 19.603031
_cell_angle_gamma 90.000000
_cell_volume 2175.862172
_symmetry_space_group_name_H-M "C 2/C"
_symmetry_group_IT_number 15
_symmetry_cell_setting 'monoclinic'
loop_
_space_group_symop_operation_xyz
x,y,z
-x,y,1/2-z
-x,-y,-z
x,-y,1/2+z
1/2+x,1/2+y,z
1/2-x,1/2+y,1/2-z
1/2-x,1/2-y,-z
1/2+x,1/2-y,1/2+z
loop_
_atom_site_type_symbol
_atom_site_label
_atom_site_fract_x
_atom_site_fract_y
_atom_site_fract_z
Si Si1 0.000000 0.549129 0.250000
Si Si2 0.528552 0.074208 0.386844
Si Si3 0.198475 0.040572 0.299886
Si Si4 0.121757 0.170414 0.277253
Si Si5 0.724537 0.420237 0.517647
Si Si6 0.325617 0.840853 0.250824
O O1 0.988003 0.594986 0.184314
O O2 0.820122 0.492852 0.444718
O O3 0.740421 0.049383 0.178440
O O4 0.453862 0.132694 0.533907
O O5 0.375620 0.007853 0.568004
O O6 0.195825 0.119976 0.263457
O O7 0.000000 0.000000 0.500000
O O8 0.225592 0.142681 0.081934
O O9 0.141280 0.256366 0.266829
O O10 0.896559 0.151990 0.523322
O O11 0.500000 0.432171 0.750000
O O12 0.838630 0.390398 0.313542
#
# Coordination Sequence:
#
# PCOD9294016 Si02
#       6
#     4   8   8   8   8   8
#     4  12  24  38  64  88 128 166 212 270 298 368
#     4  11  24  39  62  90 125 166 218 253 311 365
#     4  11  21  40  63  91 120 162 206 263 311 375
#     4  11  22  38  65  90 132 161 206 253 318 388
#     4  10  23  38  58  96 128 164 200 249 321 383
#     4  11  23  40  60  94 129 172 201 258 316 383
#
# _framework density 20.221869999999999
#
# number of rings (size 3 to 8) (size 9 to 14) (size 15 to 20)
#    0.000    1.091    3.636    3.818    5.091    0.000 
#    0.000    0.000    0.000    4.364    0.000    0.000 
#    0.000    0.000    0.000    0.000    0.000    0.000 
#
# Total GULP energy -122924.504091 kJ/mol
# GULP energy per Si atom -5587.477459 kJ/mol
# Density = 2.017584 g / cm^3
# Si number density = 20.221870 Si / 1000 Ang^3
#
#
#
# Elastic Constant Matrix: (Units=GPa)
#
#
# Indices 1 2 3 4 5 6 
#
# 1 179.3669 33.2716 59.9110 -0.0004 3.6500 -0.0001
# 2 33.2716 67.8794 27.5439 -0.0180 10.0147 0.0061
# 3 59.9110 27.5439 75.0032 0.0001 -9.1240 0.0069
# 4 -0.0004 -0.0180 0.0001 28.4513 0.0025 2.5246
# 5 3.6500 10.0147 -9.1240 0.0025 40.4316 -0.0018
# 6 -0.0001 0.0061 0.0069 2.5246 -0.0018 36.7255
#
#
#
# Elastic Compliance Matrix: (Units=1/GPa)
#
#
# Indices 1 2 3 4 5 6 
#
# 1 0.007849 -0.001114 -0.006081 -0.000001 -0.001805 0.000001
# 2 -0.001114 0.018947 -0.006814 0.000013 -0.006130 -0.000003
# 3 -0.006081 -0.006814 0.021556 -0.000005 0.007101 -0.000002
# 4 -0.000001 0.000013 -0.000005 0.035364 -0.000007 -0.002431
# 5 -0.001805 -0.006130 0.007101 -0.000007 0.028017 0.000001
# 6 0.000001 -0.000003 -0.000002 -0.002431 0.000001 0.027396
#
#
# Mechanical properties :
#
#
# Convention : Reuss Voigt Hill
#
# Bulk Modulus (GPa) = 49.17438 62.63364 55.90401
# Shear Modulus (GPa) = 28.74794 34.55654 31.65224
#
# Velocity S-wave (km/s) = 3.77454 4.13833 3.96061
# Velocity P-wave (km/s) = 6.58532 7.33995 6.97285
#
# Compressibility (1/GPa) = 0.02033579
#
# Stress axis : x y z
#
# Youngs Moduli (GPa) = 127.39688 52.77743 46.39073
#
# Poissons Ratio (x) = 0.05879 0.28208
# Poissons Ratio (y) = 0.14190 0.31612
# Poissons Ratio (z) = 0.77464 0.35964
#
# Static dielectric constant tensor:
#      x y z
#    x 1.775600 -0.000010 -0.004460 
#    y -0.000010 1.711260 0.000010 
#    z -0.004460 0.000010 1.754420 
# 
# From -- ./inp_files/216112.got.cif
#   From: 2010.05.17/outbox.cif.g08.bks.cpg/sg15_109_cif.got.tgz:216112.got - 2010.06.03 18:47:42.
