data_PCOD9294278
_publ_section_title
;
Structure prediction by ZEFSAII (Michael W. Deem and Ramdas Pophale) SiO2 
 PCOD9294278
Probable space group: C 2/C
;
_chemical_formula_sum "Si O2"
_cell_formula_units_Z 56
_cell_length_a 22.692151
_cell_length_b 5.239446
_cell_length_c 20.336682
_cell_angle_alpha 90.000000
_cell_angle_beta 68.077484
_cell_angle_gamma 90.000000
_cell_volume 2243.075139
_symmetry_space_group_name_H-M "C 2/C"
_symmetry_group_IT_number 15
_symmetry_cell_setting 'monoclinic'
loop_
_space_group_symop_operation_xyz
x,y,z
-x,y,1/2-z
-x,-y,-z
x,-y,1/2+z
1/2+x,1/2+y,z
1/2-x,1/2+y,1/2-z
1/2-x,1/2-y,-z
1/2+x,1/2-y,1/2+z
loop_
_atom_site_type_symbol
_atom_site_label
_atom_site_fract_x
_atom_site_fract_y
_atom_site_fract_z
Si Si1 0.550479 0.711846 0.367748
Si Si2 0.948620 0.121980 0.323580
Si Si3 0.377071 0.852081 0.879269
Si Si4 0.752230 0.326848 0.859190
Si Si5 0.448334 0.981168 0.963615
Si Si6 0.875006 0.888618 0.075037
Si Si7 0.670166 0.006717 0.301265
O O1 0.499454 0.523359 0.358051
O O2 0.501502 0.947736 0.386565
O O3 0.574079 0.609820 0.428933
O O4 0.616835 0.793167 0.308308
O O5 0.911650 0.863491 0.320813
O O6 0.000000 0.218336 0.250000
O O7 0.898455 0.353538 0.356510
O O8 0.303552 0.805229 0.894840
O O9 0.399269 0.800859 0.945372
O O10 0.693988 0.498210 0.907572
O O11 0.717420 0.085785 0.839730
O O12 0.790434 0.439249 0.780245
O O13 0.401405 0.206184 0.008366
O O14 0.500000 0.000000 0.000000
O O15 0.867618 0.735796 0.147667
#
# Coordination Sequence:
#
# PCOD9294278 Si02
#       7
#     8   8   8   8   8   8   8
#     4  10  23  39  69 101 127 176 230 282 351 408
#     4  11  24  42  67 103 138 180 223 288 357 408
#     4  11  27  43  69 101 142 184 225 292 339 415
#     4  11  25  42  65  99 137 181 235 277 349 411
#     4  11  22  45  70  99 138 176 235 282 347 416
#     4  11  23  40  69  93 133 182 226 285 337 406
#     4  11  22  40  67  98 130 178 224 289 336 412
#
# _framework density 24.965727000000001
#
# number of rings (size 3 to 8) (size 9 to 14) (size 15 to 20)
#    0.000    1.143    2.857    2.571    6.000    1.714 
#    0.000    0.714    0.000    0.000    0.000    0.000 
#    0.000    0.000    0.000    0.000    0.000    0.000 
#
# Total GULP energy -155920.066710 kJ/mol
# GULP energy per Si atom -5568.573811 kJ/mol
# Density = 2.490890 g / cm^3
# Si number density = 24.965727 Si / 1000 Ang^3
#
#
#
# Elastic Constant Matrix: (Units=GPa)
#
#
# Indices 1 2 3 4 5 6 
#
# 1 190.8617 28.8529 26.3040 -0.0131 1.8767 0.0476
# 2 28.8529 73.9253 2.0442 -0.0076 -13.3729 0.0496
# 3 26.3040 2.0442 44.2912 0.0048 -7.3933 0.0023
# 4 -0.0131 -0.0076 0.0048 26.2160 -0.0031 3.2578
# 5 1.8767 -13.3729 -7.3933 -0.0031 38.3676 0.0241
# 6 0.0476 0.0496 0.0023 3.2578 0.0241 -7.1122
#
#
#
# Elastic Compliance Matrix: (Units=1/GPa)
#
#
# Indices 1 2 3 4 5 6 
#
# 1 0.006199 -0.002671 -0.003889 0.000001 -0.001983 0.000015
# 2 -0.002671 0.015589 0.001855 -0.000010 0.005922 0.000107
# 3 -0.003889 0.001855 0.025771 -0.000007 0.005803 0.000012
# 4 0.000001 -0.000010 -0.000007 0.036090 -0.000012 0.016531
# 5 -0.001983 0.005922 0.005803 -0.000012 0.029343 0.000124
# 6 0.000015 0.000107 0.000012 0.016531 0.000124 -0.133030
#
#
# Mechanical properties :
#
#
# Convention : Reuss Voigt Hill
#
# Bulk Modulus (GPa) = 26.21296 47.05337 36.63317
# Shear Modulus (GPa) = 2395.27930 28.28610 1211.78270
#
# Velocity S-wave (km/s) = 31.00822 3.36965 22.05521
# Velocity P-wave (km/s) = 35.95185 5.83331 25.75425
#
# Compressibility (1/GPa) = 0.03814906
#
# Stress axis : x y z
#
# Youngs Moduli (GPa) = 161.32707 64.14646 38.80401
#
# Poissons Ratio (x) = 0.17131 0.15091
# Poissons Ratio (y) = 0.43083 -0.07198
# Poissons Ratio (z) = 0.62742 -0.11899
#
# Static dielectric constant tensor:
#      x y z
#    x 1.989140 0.000000 0.170540 
#    y 0.000000 2.180970 -0.000010 
#    z 0.170540 -0.000010 2.174350 
# 
# From -- ./inp_files/278923.got.cif
#   From: 2010.05.17/outbox.cif.g08.bks.cpg/sg15_140_cif.got.tgz:278923.got - 2010.06.03 18:47:42.
