data_PCOD9294618
_publ_section_title
;
Structure prediction by ZEFSAII (Michael W. Deem and Ramdas Pophale) SiO2 
 PCOD9294618
Probable space group: C 2/C
;
_chemical_formula_sum "Si O2"
_cell_formula_units_Z 40
_cell_length_a 8.479367
_cell_length_b 27.044362
_cell_length_c 8.963611
_cell_angle_alpha 90.000000
_cell_angle_beta 86.330584
_cell_angle_gamma 90.000000
_cell_volume 2051.312956
_symmetry_space_group_name_H-M "C 2/C"
_symmetry_group_IT_number 15
_symmetry_cell_setting 'monoclinic'
loop_
_space_group_symop_operation_xyz
x,y,z
-x,y,1/2-z
-x,-y,-z
x,-y,1/2+z
1/2+x,1/2+y,z
1/2-x,1/2+y,1/2-z
1/2-x,1/2-y,-z
1/2+x,1/2-y,1/2+z
loop_
_atom_site_type_symbol
_atom_site_label
_atom_site_fract_x
_atom_site_fract_y
_atom_site_fract_z
Si Si1 0.437480 0.951996 0.419257
Si Si2 0.566028 0.252015 0.070340
Si Si3 0.059216 0.950546 0.416265
Si Si4 0.440672 0.147090 0.083514
Si Si5 0.063266 0.850043 0.579343
O O1 0.500000 0.953364 0.250000
O O2 0.248295 0.951648 0.420217
O O3 0.495094 0.901792 0.494541
O O4 0.500000 0.000000 0.500000
O O5 0.500000 0.253559 0.250000
O O6 0.501450 0.199242 0.017981
O O7 0.750000 0.250000 0.000000
O O8 0.492473 0.300752 0.001079
O O9 0.006158 0.899647 0.498853
O O10 0.000000 0.950472 0.250000
O O11 0.000000 0.000000 0.500000
O O12 0.500000 0.143105 0.250000
O O13 0.252123 0.148650 0.081991
O O14 0.000000 0.849630 0.750000
#
# Coordination Sequence:
#
# PCOD9294618 Si02
#       5
#     8   8   8   8   8
#     4  11  24  40  63  90 121 161 204 252 308 371
#     4  11  24  42  66  95 128 168 211 263 319 379
#     4  11  24  41  63  91 124 162 207 259 315 375
#     4  10  23  41  61  89 124 163 206 255 309 369
#     4  11  23  40  64  93 126 166 210 259 315 378
#
# _framework density 19.499707999999998
#
# number of rings (size 3 to 8) (size 9 to 14) (size 15 to 20)
#    0.000    1.200    0.000    6.000    0.000   13.600 
#    0.000    0.000    0.000    0.000    0.000    0.000 
#    0.000    0.000    0.000    0.000    0.000    0.000 
#
# Total GULP energy -111640.602306 kJ/mol
# GULP energy per Si atom -5582.030115 kJ/mol
# Density = 1.945533 g / cm^3
# Si number density = 19.499708 Si / 1000 Ang^3
#
#
#
# Elastic Constant Matrix: (Units=GPa)
#
#
# Indices 1 2 3 4 5 6 
#
# 1 74.8693 59.5482 44.3452 0.0000 -0.0040 0.0000
# 2 59.5482 248.9222 115.8964 0.0000 9.5106 0.0000
# 3 44.3452 115.8964 148.6306 0.0000 2.5235 0.0000
# 4 0.0000 0.0000 0.0000 44.2587 0.0000 5.8916
# 5 -0.0040 9.5106 2.5235 0.0000 37.1412 0.0000
# 6 0.0000 0.0000 0.0000 5.8916 0.0000 37.8801
#
#
#
# Elastic Compliance Matrix: (Units=1/GPa)
#
#
# Indices 1 2 3 4 5 6 
#
# 1 0.017360 -0.002778 -0.003029 0.000000 0.000919 0.000000
# 2 -0.002778 0.006813 -0.004459 0.000000 -0.001442 0.000000
# 3 -0.003029 -0.004459 0.011103 0.000000 0.000387 0.000000
# 4 0.000000 0.000000 0.000000 0.023072 0.000000 -0.003588
# 5 0.000919 -0.001442 0.000387 0.000000 0.027267 0.000000
# 6 0.000000 0.000000 0.000000 -0.003588 0.000000 0.026957
#
#
# Mechanical properties :
#
#
# Convention : Reuss Voigt Hill
#
# Bulk Modulus (GPa) = 67.82763 101.33352 84.58058
# Shear Modulus (GPa) = 36.22676 40.69817 38.46246
#
# Velocity S-wave (km/s) = 4.31491 4.57345 4.44606
# Velocity P-wave (km/s) = 7.72554 8.94249 8.35620
#
# Compressibility (1/GPa) = 0.01474325
#
# Stress axis : x y z
#
# Youngs Moduli (GPa) = 57.60324 146.77433 90.06915
#
# Poissons Ratio (x) = 0.40770 0.27284
# Poissons Ratio (y) = 0.16000 0.40166
# Poissons Ratio (z) = 0.17449 0.65453
#
# Static dielectric constant tensor:
#      x y z
#    x 1.474650 0.000000 -0.008590 
#    y 0.000000 1.677770 0.000000 
#    z -0.008590 0.000000 1.669370 
# 
# From -- ./inp_files/23397.got.cif
#   From: 2010.05.17/outbox.cif.g08.bks.cpg/sg15_12_cif.got.tgz:23397.got - 2010.06.03 18:47:42.
