data_PCOD9294832
_publ_section_title
;
Structure prediction by ZEFSAII (Michael W. Deem and Ramdas Pophale) SiO2 
 PCOD9294832
Probable space group: C 2/C
;
_chemical_formula_sum "Si O2"
_cell_formula_units_Z 52
_cell_length_a 12.343820
_cell_length_b 14.761555
_cell_length_c 14.049276
_cell_angle_alpha 90.000000
_cell_angle_beta 117.502679
_cell_angle_gamma 90.000000
_cell_volume 2270.669811
_symmetry_space_group_name_H-M "C 2/C"
_symmetry_group_IT_number 15
_symmetry_cell_setting 'monoclinic'
loop_
_space_group_symop_operation_xyz
x,y,z
-x,y,1/2-z
-x,-y,-z
x,-y,1/2+z
1/2+x,1/2+y,z
1/2-x,1/2+y,1/2-z
1/2-x,1/2-y,-z
1/2+x,1/2-y,1/2+z
loop_
_atom_site_type_symbol
_atom_site_label
_atom_site_fract_x
_atom_site_fract_y
_atom_site_fract_z
Si Si1 0.274538 0.471243 0.898883
Si Si2 0.149246 0.171656 0.567555
Si Si3 0.368159 0.284829 0.650581
Si Si4 0.140217 0.028408 0.273647
Si Si5 0.547465 0.774534 0.905760
Si Si6 0.265740 0.356755 0.088942
Si Si7 0.000000 0.570254 0.250000
O O1 0.336496 0.566628 0.947179
O O2 0.342706 0.443666 0.829267
O O3 0.128725 0.480039 0.818375
O O4 0.286417 0.404397 0.993282
O O5 0.278279 0.210021 0.655005
O O6 0.121572 0.223839 0.458361
O O7 0.045836 0.199024 0.598512
O O8 0.500000 0.281248 0.750000
O O9 0.313815 0.384448 0.649767
O O10 0.000000 0.013279 0.250000
O O11 0.212174 0.936046 0.326502
O O12 0.638207 0.725335 0.867825
O O13 0.485600 0.861707 0.833614
O O14 0.632825 0.812023 0.025709
#
# Coordination Sequence:
#
# PCOD9294832 Si02
#       7
#     8   8   8   8   8   8   4
#     4  11  24  42  68  93 137 170 222 276 338 391
#     4  11  23  42  66  95 128 178 216 279 332 398
#     4  10  24  42  62  92 133 165 223 273 333 401
#     4  11  23  40  65  97 129 173 222 274 332 403
#     4  10  23  41  67  92 134 168 219 272 332 391
#     4  10  23  43  62 100 129 172 221 276 330 397
#     4  10  24  46  64 100 132 176 220 276 326 412
#
# _framework density 22.900731
#
# number of rings (size 3 to 8) (size 9 to 14) (size 15 to 20)
#    0.000    1.538    1.538    1.846    8.615    2.462 
#    2.769    2.308    0.000    0.000    0.000    0.000 
#    0.000    0.000    0.000    0.000    0.000    0.000 
#
# Total GULP energy -145396.133565 kJ/mol
# GULP energy per Si atom -5592.158983 kJ/mol
# Density = 2.284861 g / cm^3
# Si number density = 22.900731 Si / 1000 Ang^3
#
#
#
# Elastic Constant Matrix: (Units=GPa)
#
#
# Indices 1 2 3 4 5 6 
#
# 1 78.3403 6.5763 18.5382 0.0000 3.7215 0.0000
# 2 6.5763 63.6139 -1.9806 0.0000 1.4683 0.0000
# 3 18.5382 -1.9806 48.4951 0.0000 3.4035 0.0000
# 4 0.0000 0.0000 0.0000 34.8519 0.0000 5.9358
# 5 3.7215 1.4683 3.4035 0.0000 20.6801 0.0000
# 6 0.0000 0.0000 0.0000 5.9358 0.0000 30.5170
#
#
#
# Elastic Compliance Matrix: (Units=1/GPa)
#
#
# Indices 1 2 3 4 5 6 
#
# 1 0.014253 -0.001606 -0.005404 0.000000 -0.001561 0.000000
# 2 -0.001606 0.015952 0.001340 0.000000 -0.001064 0.000000
# 3 -0.005404 0.001340 0.022945 0.000000 -0.002899 0.000000
# 4 0.000000 0.000000 0.000000 0.029676 0.000000 -0.005772
# 5 -0.001561 -0.001064 -0.002899 0.000000 0.049189 0.000000
# 6 0.000000 0.000000 0.000000 -0.005772 0.000000 0.033891
#
#
# Mechanical properties :
#
#
# Convention : Reuss Voigt Hill
#
# Bulk Modulus (GPa) = 23.91806 26.30193 25.10999
# Shear Modulus (GPa) = 26.15300 28.36415 27.25857
#
# Velocity S-wave (km/s) = 3.38304 3.52315 3.45380
# Velocity P-wave (km/s) = 5.07216 5.29719 5.18590
#
# Compressibility (1/GPa) = 0.04180942
#
# Stress axis : x y z
#
# Youngs Moduli (GPa) = 70.16241 62.68765 43.58302
#
# Poissons Ratio (x) = 0.10065 0.23554
# Poissons Ratio (y) = 0.11266 -0.05840
# Poissons Ratio (z) = 0.37918 -0.08400
#
# Static dielectric constant tensor:
#      x y z
#    x 1.863350 0.000000 -0.009790 
#    y 0.000000 1.844060 0.000000 
#    z -0.009790 0.000000 1.907780 
# 
# From -- ./inp_files/144335.got.cif
#   From: 2010.05.17/outbox.cif.g08.bks.cpg/sg15_73_cif.got.tgz:144335.got - 2010.06.03 18:47:42.
