data_PCOD9294144
_publ_section_title
;
Structure prediction by ZEFSAII (Michael W. Deem and Ramdas Pophale) SiO2 
 PCOD9294144
Probable space group: C 2/C
;
_chemical_formula_sum "Si O2"
_cell_formula_units_Z 40
_cell_length_a 27.341898
_cell_length_b 7.754499
_cell_length_c 18.774921
_cell_angle_alpha 90.000000
_cell_angle_beta 29.037342
_cell_angle_gamma 90.000000
_cell_volume 1932.155117
_symmetry_space_group_name_H-M "C 2/C"
_symmetry_group_IT_number 15
_symmetry_cell_setting 'monoclinic'
loop_
_space_group_symop_operation_xyz
x,y,z
-x,y,1/2-z
-x,-y,-z
x,-y,1/2+z
1/2+x,1/2+y,z
1/2-x,1/2+y,1/2-z
1/2-x,1/2-y,-z
1/2+x,1/2-y,1/2+z
loop_
_atom_site_type_symbol
_atom_site_label
_atom_site_fract_x
_atom_site_fract_y
_atom_site_fract_z
Si Si1 0.047201 0.182981 0.961573
Si Si2 0.382310 0.106541 0.388524
Si Si3 0.343439 0.153970 0.683828
Si Si4 0.337064 0.119906 0.072966
Si Si5 0.796026 0.643582 0.342833
O O1 0.096686 0.227821 0.975157
O O2 0.131673 0.234066 0.796278
O O3 0.952968 0.311078 0.074882
O O4 0.000000 0.000000 0.000000
O O5 0.500000 0.145651 0.250000
O O6 0.307578 0.257584 0.510452
O O7 0.352652 0.092787 0.343520
O O8 0.357934 0.934304 0.465523
O O9 0.277725 0.325952 0.765194
O O10 0.356321 0.054311 0.593459
O O11 0.283299 0.026636 0.812420
#
# Coordination Sequence:
#
# PCOD9294144 Si02
#       5
#     8   8   8   8   8
#     4  11  22  39  64  92 119 153 200 253 304 353
#     4  11  22  40  59  83 123 164 199 240 301 360
#     4  11  21  39  61  89 119 148 198 251 298 352
#     4  11  22  37  62  88 117 157 199 245 299 363
#     4  10  23  39  61  89 121 159 197 247 301 360
#
# _framework density 20.702271
#
# number of rings (size 3 to 8) (size 9 to 14) (size 15 to 20)
#    0.000    1.200    0.000    9.600    0.000    2.400 
#    0.000    5.000    0.000    2.400    0.000    0.000 
#    0.000    0.000    0.000    0.000    0.000    0.000 
#
# Total GULP energy -111715.767176 kJ/mol
# GULP energy per Si atom -5585.788359 kJ/mol
# Density = 2.065515 g / cm^3
# Si number density = 20.702271 Si / 1000 Ang^3
#
#
#
# Elastic Constant Matrix: (Units=GPa)
#
#
# Indices 1 2 3 4 5 6 
#
# 1 110.6304 34.6947 27.5313 0.0001 -1.9676 -0.0008
# 2 34.6947 66.2598 20.8932 0.0066 7.2489 -0.0037
# 3 27.5313 20.8932 74.2517 0.0025 -19.8758 -0.0012
# 4 0.0001 0.0066 0.0025 29.3683 -0.0012 -2.8375
# 5 -1.9676 7.2489 -19.8758 -0.0012 42.4852 0.0004
# 6 -0.0008 -0.0037 -0.0012 -2.8375 0.0004 33.8108
#
#
#
# Elastic Compliance Matrix: (Units=1/GPa)
#
#
# Indices 1 2 3 4 5 6 
#
# 1 0.011313 -0.005072 -0.002739 0.000001 0.000108 0.000000
# 2 -0.005072 0.020149 -0.005455 -0.000004 -0.006225 0.000002
# 3 -0.002739 -0.005455 0.018557 0.000000 0.009486 0.000000
# 4 0.000001 -0.000004 0.000000 0.034329 0.000002 0.002881
# 5 0.000108 -0.006225 0.009486 0.000002 0.029042 -0.000001
# 6 0.000000 0.000002 0.000000 0.002881 -0.000001 0.029818
#
#
# Mechanical properties :
#
#
# Convention : Reuss Voigt Hill
#
# Bulk Modulus (GPa) = 42.57550 46.37559 44.47554
# Shear Modulus (GPa) = 28.15793 32.33436 30.24615
#
# Velocity S-wave (km/s) = 3.69200 3.95634 3.82646
# Velocity P-wave (km/s) = 6.22774 6.58180 6.40722
#
# Compressibility (1/GPa) = 0.02348769
#
# Stress axis : x y z
#
# Youngs Moduli (GPa) = 88.39237 49.63006 53.88724
#
# Poissons Ratio (x) = 0.25173 0.14758
# Poissons Ratio (y) = 0.44833 0.29397
# Poissons Ratio (z) = 0.24207 0.27075
#
# Static dielectric constant tensor:
#      x y z
#    x 1.770140 0.000000 0.000350 
#    y 0.000000 1.794340 0.000000 
#    z 0.000350 0.000000 1.715200 
# 
# From -- ./inp_files/102679.got.cif
#   From: 2010.05.17/outbox.cif.g08.bks.cpg/sg15_52_cif.got.tgz:102679.got - 2010.06.03 18:47:42.
