data_PCOD9294048
_publ_section_title
;
Structure prediction by ZEFSAII (Michael W. Deem and Ramdas Pophale) SiO2 
 PCOD9294048
Probable space group: C 2/C
;
_chemical_formula_sum "Si O2"
_cell_formula_units_Z 56
_cell_length_a 17.251611
_cell_length_b 17.327943
_cell_length_c 8.548800
_cell_angle_alpha 90.000000
_cell_angle_beta 123.496284
_cell_angle_gamma 90.000000
_cell_volume 2131.115835
_symmetry_space_group_name_H-M "C 2/C"
_symmetry_group_IT_number 15
_symmetry_cell_setting 'monoclinic'
loop_
_space_group_symop_operation_xyz
x,y,z
-x,y,1/2-z
-x,-y,-z
x,-y,1/2+z
1/2+x,1/2+y,z
1/2-x,1/2+y,1/2-z
1/2-x,1/2-y,-z
1/2+x,1/2-y,1/2+z
loop_
_atom_site_type_symbol
_atom_site_label
_atom_site_fract_x
_atom_site_fract_y
_atom_site_fract_z
Si Si1 0.000000 0.763836 0.750000
Si Si2 0.161029 0.108063 0.142566
Si Si3 0.771166 0.109191 0.705603
Si Si4 0.885631 0.403784 0.850199
Si Si5 0.934416 0.775026 0.332320
Si Si6 0.000000 0.485269 0.250000
Si Si7 0.173034 0.726836 0.783266
Si Si8 0.159489 0.988055 0.926411
O O1 0.085810 0.713551 0.793116
O O2 0.971199 0.801615 0.549050
O O3 0.273392 0.093047 0.254432
O O4 0.157667 0.198713 0.158506
O O5 0.120820 0.068648 0.254200
O O6 0.107581 0.059164 0.950869
O O7 0.840584 0.173982 0.714200
O O8 0.686722 0.156308 0.682008
O O9 0.762887 0.038707 0.578220
O O10 0.811584 0.067635 0.903321
O O11 0.909390 0.315274 0.828840
O O12 0.928591 0.459898 0.765844
O O13 0.939961 0.434278 0.063006
O O14 0.000000 0.782398 0.250000
O O15 0.250000 0.750000 0.000000
#
# Coordination Sequence:
#
# PCOD9294048 Si02
#       8
#     4   8   8   8   8   4   8   8
#     4  12  27  46  76 116 155 198 252 324 397 446
#     4  11  21  40  69  99 138 185 247 297 375 453
#     4  11  24  50  75 106 149 198 255 322 392 467
#     4  11  21  41  62 100 147 198 246 306 372 466
#     4  12  26  46  75 112 155 197 270 322 376 467
#     4  10  23  38  62  96 157 206 240 310 395 444
#     4  12  23  46  79 106 148 203 253 316 388 467
#     4  10  24  41  72 103 138 190 252 314 382 460
#
# _framework density 26.277314000000001
#
# number of rings (size 3 to 8) (size 9 to 14) (size 15 to 20)
#    0.000    0.857    5.000    1.286    2.000    1.714 
#   10.286    0.714    6.286    0.857    0.000    0.000 
#    0.000    0.000    0.000    0.000    0.000    0.000 
#
# Total GULP energy -156393.162774 kJ/mol
# GULP energy per Si atom -5585.470099 kJ/mol
# Density = 2.621751 g / cm^3
# Si number density = 26.277314 Si / 1000 Ang^3
#
#
#
# Elastic Constant Matrix: (Units=GPa)
#
#
# Indices 1 2 3 4 5 6 
#
# 1 151.7135 44.7887 39.9605 0.0000 -17.7979 0.0000
# 2 44.7887 163.5161 19.0844 0.0000 -11.5227 0.0000
# 3 39.9605 19.0844 91.6821 0.0000 -26.8574 0.0000
# 4 0.0000 0.0000 0.0000 33.4684 0.0000 -25.0969
# 5 -17.7979 -11.5227 -26.8574 0.0000 45.7961 0.0000
# 6 0.0000 0.0000 0.0000 -25.0969 0.0000 34.3183
#
#
#
# Elastic Compliance Matrix: (Units=1/GPa)
#
#
# Indices 1 2 3 4 5 6 
#
# 1 0.007977 -0.001786 -0.002811 0.000000 0.001002 0.000000
# 2 -0.001786 0.006705 -0.000394 0.000000 0.000762 0.000000
# 3 -0.002811 -0.000394 0.014327 0.000000 0.007210 0.000000
# 4 0.000000 0.000000 0.000000 0.066159 0.000000 0.048382
# 5 0.001002 0.000762 0.007210 0.000000 0.026645 0.000000
# 6 0.000000 0.000000 0.000000 0.048382 0.000000 0.064521
#
#
# Mechanical properties :
#
#
# Convention : Reuss Voigt Hill
#
# Bulk Modulus (GPa) = 52.56252 68.28655 60.42454
# Shear Modulus (GPa) = 24.67205 42.92175 33.79690
#
# Velocity S-wave (km/s) = 3.06749 4.04594 3.59020
# Velocity P-wave (km/s) = 5.70898 6.91877 6.34279
#
# Compressibility (1/GPa) = 0.01902496
#
# Stress axis : x y z
#
# Youngs Moduli (GPa) = 125.36464 149.15334 69.79898
#
# Poissons Ratio (x) = 0.26641 0.19624
# Poissons Ratio (y) = 0.22392 0.02750
# Poissons Ratio (z) = 0.35246 0.05876
#
# Static dielectric constant tensor:
#      x y z
#    x 2.082780 0.000000 0.015960 
#    y 0.000000 1.631870 0.000000 
#    z 0.015960 0.000000 2.260130 
# 
# From -- ./inp_files/49186.got.cif
#   From: 2010.05.17/outbox.cif.g08.bks.cpg/sg15_25_cif.got.tgz:49186.got - 2010.06.03 18:47:42.
