data_PCOD9294415
_publ_section_title
;
Structure prediction by ZEFSAII (Michael W. Deem and Ramdas Pophale) SiO2 
 PCOD9294415
Probable space group: C 2/C
;
_chemical_formula_sum "Si O2"
_cell_formula_units_Z 32
_cell_length_a 24.810050
_cell_length_b 12.718759
_cell_length_c 9.792178
_cell_angle_alpha 90.000000
_cell_angle_beta 153.654806
_cell_angle_gamma 90.000000
_cell_volume 1371.253120
_symmetry_space_group_name_H-M "C 2/C"
_symmetry_group_IT_number 15
_symmetry_cell_setting 'monoclinic'
loop_
_space_group_symop_operation_xyz
x,y,z
-x,y,1/2-z
-x,-y,-z
x,-y,1/2+z
1/2+x,1/2+y,z
1/2-x,1/2+y,1/2-z
1/2-x,1/2-y,-z
1/2+x,1/2-y,1/2+z
loop_
_atom_site_type_symbol
_atom_site_label
_atom_site_fract_x
_atom_site_fract_y
_atom_site_fract_z
Si Si1 0.213198 0.493803 0.125850
Si Si2 0.500000 0.206419 0.250000
Si Si3 0.265491 0.870580 0.077644
Si Si4 0.375115 0.785839 0.716849
Si Si5 0.000000 0.358432 0.250000
O O1 0.288609 0.428793 0.410965
O O2 0.270418 0.563463 0.136370
O O3 0.145421 0.404071 0.883979
O O4 0.117807 0.570859 0.985078
O O5 0.593061 0.135862 0.550679
O O6 0.577906 0.269770 0.314411
O O7 0.250000 0.750000 0.000000
O O8 0.250000 0.750000 0.500000
O O9 0.473830 0.788043 0.059134
#
# Coordination Sequence:
#
# PCOD9294415 Si02
#       5
#     8   4   8   8   4
#     4  11  22  38  63  97 136 168 227 279 346 397
#     4  10  23  40  64  97 138 168 227 278 348 403
#     4  11  24  39  65 101 136 177 225 290 347 407
#     4  11  24  38  64 102 134 174 220 282 350 409
#     4  12  21  40  66 101 134 166 231 292 344 409
#
# _framework density 23.336319
#
# number of rings (size 3 to 8) (size 9 to 14) (size 15 to 20)
#    0.000    1.000    5.000    3.750    7.000    0.000 
#    0.000    0.000    0.000    7.500    0.000    0.000 
#    0.000    0.000    0.000    0.000    0.000    0.000 
#
# Total GULP energy -89195.138844 kJ/mol
# GULP energy per Si atom -5574.696178 kJ/mol
# Density = 2.328320 g / cm^3
# Si number density = 23.336319 Si / 1000 Ang^3
#
#
#
# Elastic Constant Matrix: (Units=GPa)
#
#
# Indices 1 2 3 4 5 6 
#
# 1 184.1695 40.3915 49.7977 0.0000 -44.4318 0.0000
# 2 40.3915 82.5070 40.5042 0.0000 -31.9516 0.0000
# 3 49.7977 40.5042 61.9065 0.0000 -33.3368 0.0000
# 4 0.0000 0.0000 0.0000 33.1843 0.0000 -6.8699
# 5 -44.4318 -31.9516 -33.3368 0.0000 47.1827 0.0000
# 6 0.0000 0.0000 0.0000 -6.8699 0.0000 27.8592
#
#
#
# Elastic Compliance Matrix: (Units=1/GPa)
#
#
# Indices 1 2 3 4 5 6 
#
# 1 0.007494 -0.000243 -0.003483 0.000000 0.004432 0.000000
# 2 -0.000243 0.019060 -0.008794 0.000000 0.006466 0.000000
# 3 -0.003483 -0.008794 0.031856 0.000000 0.013273 0.000000
# 4 0.000000 0.000000 0.000000 0.031756 0.000000 0.007831
# 5 0.004432 0.006466 0.013273 0.000000 0.039124 0.000000
# 6 0.000000 0.000000 0.000000 0.007831 0.000000 0.037826
#
#
# Mechanical properties :
#
#
# Convention : Reuss Voigt Hill
#
# Bulk Modulus (GPa) = 29.96542 65.55218 47.75880
# Shear Modulus (GPa) = 24.59695 34.83789 29.71742
#
# Velocity S-wave (km/s) = 3.25009 3.86795 3.57240
# Velocity P-wave (km/s) = 5.19160 6.93536 6.12584
#
# Compressibility (1/GPa) = 0.03337180
#
# Stress axis : x y z
#
# Youngs Moduli (GPa) = 133.44124 52.46679 31.39129
#
# Poissons Ratio (x) = 0.01273 0.10933
# Poissons Ratio (y) = 0.03237 0.27604
# Poissons Ratio (z) = 0.46475 0.46137
#
# Static dielectric constant tensor:
#      x y z
#    x 2.058430 0.000000 0.015470 
#    y 0.000000 1.921950 0.000000 
#    z 0.015470 0.000000 1.906650 
# 
# From -- ./inp_files/27923.got.cif
#   From: 2010.05.17/outbox.cif.g08.bks.cpg/sg15_14_cif.got.tgz:27923.got - 2010.06.03 18:47:42.
