data_PCOD9294447
_publ_section_title
;
Structure prediction by ZEFSAII (Michael W. Deem and Ramdas Pophale) SiO2 
 PCOD9294447
Probable space group: C 2/C
;
_chemical_formula_sum "Si O2"
_cell_formula_units_Z 32
_cell_length_a 15.903044
_cell_length_b 9.288951
_cell_length_c 12.963993
_cell_angle_alpha 90.000000
_cell_angle_beta 40.771833
_cell_angle_gamma 90.000000
_cell_volume 1250.636437
_symmetry_space_group_name_H-M "C 2/C"
_symmetry_group_IT_number 15
_symmetry_cell_setting 'monoclinic'
loop_
_space_group_symop_operation_xyz
x,y,z
-x,y,1/2-z
-x,-y,-z
x,-y,1/2+z
1/2+x,1/2+y,z
1/2-x,1/2+y,1/2-z
1/2-x,1/2-y,-z
1/2+x,1/2-y,1/2+z
loop_
_atom_site_type_symbol
_atom_site_label
_atom_site_fract_x
_atom_site_fract_y
_atom_site_fract_z
Si Si1 0.211163 0.774097 0.294550
Si Si2 0.517792 0.162354 0.850439
Si Si3 0.867117 0.077346 0.831027
Si Si4 0.652668 0.098068 0.167536
O O1 0.342469 0.801404 0.232491
O O2 0.161334 0.902720 0.264043
O O3 0.234240 0.645162 0.191548
O O4 0.094913 0.724034 0.475081
O O5 0.500000 0.211616 0.750000
O O6 0.530712 0.987920 0.825389
O O7 0.873889 0.246880 0.857892
O O8 0.000000 0.015555 0.750000
O O9 0.744567 0.011922 0.004166
#
# Coordination Sequence:
#
# PCOD9294447 Si02
#       4
#     8   8   8   8
#     4  10  23  40  65  96 138 169 223 271 329 394
#     4  12  24  42  64  96 133 184 214 271 330 393
#     4   9  18  38  65  98 132 164 220 287 314 391
#     4   9  21  37  68  96 130 168 228 267 332 382
#
# _framework density 25.586970999999998
#
# number of rings (size 3 to 8) (size 9 to 14) (size 15 to 20)
#    1.500    0.500    0.000    3.750    0.000    2.000 
#    0.000    8.750    0.000    0.000    0.000    0.000 
#    0.000    0.000    0.000    0.000    0.000    0.000 
#
# Total GULP energy -89274.895016 kJ/mol
# GULP energy per Si atom -5579.680938 kJ/mol
# Density = 2.552873 g / cm^3
# Si number density = 25.586971 Si / 1000 Ang^3
#
#
#
# Elastic Constant Matrix: (Units=GPa)
#
#
# Indices 1 2 3 4 5 6 
#
# 1 202.8717 9.6433 80.5261 0.0000 -5.6201 0.0000
# 2 9.6433 66.2143 16.6861 0.0000 3.1340 0.0000
# 3 80.5261 16.6861 163.2152 0.0000 7.7052 0.0000
# 4 0.0000 0.0000 0.0000 -5.4196 0.0000 -7.5338
# 5 -5.6201 3.1340 7.7052 0.0000 49.9380 0.0000
# 6 0.0000 0.0000 0.0000 -7.5338 0.0000 28.2470
#
#
#
# Elastic Compliance Matrix: (Units=1/GPa)
#
#
# Indices 1 2 3 4 5 6 
#
# 1 0.006200 -0.000179 -0.003097 0.000000 0.001187 0.000000
# 2 -0.000179 0.015534 -0.001464 0.000000 -0.000769 0.000000
# 3 -0.003097 -0.001464 0.007874 0.000000 -0.001472 0.000000
# 4 0.000000 0.000000 0.000000 -0.134608 0.000000 -0.035902
# 5 0.001187 -0.000769 -0.001472 0.000000 0.020434 0.000000
# 6 0.000000 0.000000 0.000000 -0.035902 0.000000 0.025827
#
#
# Mechanical properties :
#
#
# Convention : Reuss Voigt Hill
#
# Bulk Modulus (GPa) = 49.67840 71.77913 60.72877
# Shear Modulus (GPa) = -117.49988 36.24945 -40.62522
#
# Velocity S-wave (km/s) = -6.78391 3.76801 -3.98896
# Velocity P-wave (km/s) = 6.47335 6.85890 1.60315
#
# Compressibility (1/GPa) = 0.02012947
#
# Stress axis : x y z
#
# Youngs Moduli (GPa) = 161.29806 64.37600 127.00480
#
# Poissons Ratio (x) = 0.01151 0.39327
# Poissons Ratio (y) = 0.02883 0.18588
# Poissons Ratio (z) = 0.49946 0.09422
#
# Static dielectric constant tensor:
#      x y z
#    x 2.109210 0.000000 -0.048770 
#    y 0.000000 2.104840 0.000000 
#    z -0.048770 0.000000 2.022290 
# 
# From -- ./inp_files/94283.got.cif
#   From: 2010.05.17/outbox.cif.g08.bks.cpg/sg15_48_cif.got.tgz:94283.got - 2010.06.03 18:47:42.
