data_PCOD9294610
_publ_section_title
;
Structure prediction by ZEFSAII (Michael W. Deem and Ramdas Pophale) SiO2 
 PCOD9294610
Probable space group: C 2/C
;
_chemical_formula_sum "Si O2"
_cell_formula_units_Z 28
_cell_length_a 13.647619
_cell_length_b 4.709426
_cell_length_c 29.091319
_cell_angle_alpha 90.000000
_cell_angle_beta 143.756513
_cell_angle_gamma 90.000000
_cell_volume 1105.441865
_symmetry_space_group_name_H-M "C 2/C"
_symmetry_group_IT_number 15
_symmetry_cell_setting 'monoclinic'
loop_
_space_group_symop_operation_xyz
x,y,z
-x,y,1/2-z
-x,-y,-z
x,-y,1/2+z
1/2+x,1/2+y,z
1/2-x,1/2+y,1/2-z
1/2-x,1/2-y,-z
1/2+x,1/2-y,1/2+z
loop_
_atom_site_type_symbol
_atom_site_label
_atom_site_fract_x
_atom_site_fract_y
_atom_site_fract_z
Si Si1 0.307332 0.275318 0.093726
Si Si2 0.833688 0.947238 0.379297
Si Si3 0.541063 0.943638 0.431881
Si Si4 0.000000 0.728551 0.250000
O O1 0.183371 0.071222 0.075741
O O2 0.409772 0.077028 0.098010
O O3 0.429186 0.394946 0.179253
O O4 0.197412 0.495558 0.023838
O O5 0.976276 0.125293 0.407305
O O6 0.653321 0.031378 0.291827
O O7 0.887933 0.625115 0.394819
#
# Coordination Sequence:
#
# PCOD9294610 Si02
#       4
#     8   8   8   4
#     4   9  22  41  59  98 111 163 195 255 275 384
#     4  10  23  41  60  93 116 163 188 262 277 366
#     4  11  22  40  69  80 125 155 208 227 316 331
#     4   8  22  42  56  92 126 146 206 240 304 336
#
# _framework density 25.329235000000001
#
# number of rings (size 3 to 8) (size 9 to 14) (size 15 to 20)
#    1.714    0.571    0.000    1.714    0.000   10.286 
#    0.000    0.000    0.000    0.000    0.000    0.000 
#    0.000    0.000    0.000    0.000    0.000    0.000 
#
# Total GULP energy -78356.064404 kJ/mol
# GULP energy per Si atom -5596.861743 kJ/mol
# Density = 2.527158 g / cm^3
# Si number density = 25.329235 Si / 1000 Ang^3
#
#
#
# Elastic Constant Matrix: (Units=GPa)
#
#
# Indices 1 2 3 4 5 6 
#
# 1 126.3834 23.1359 34.5974 -0.0052 10.5242 0.0036
# 2 23.1359 80.7549 4.6545 -0.0183 4.0230 0.0107
# 3 34.5974 4.6545 170.7129 -0.0092 -1.5944 0.0042
# 4 -0.0052 -0.0183 -0.0092 13.3563 -0.0006 6.2959
# 5 10.5242 4.0230 -1.5944 -0.0006 36.5732 0.0010
# 6 0.0036 0.0107 0.0042 6.2959 0.0010 36.0253
#
#
#
# Elastic Compliance Matrix: (Units=1/GPa)
#
#
# Indices 1 2 3 4 5 6 
#
# 1 0.009037 -0.002365 -0.001790 -0.000001 -0.002418 0.000000
# 2 -0.002365 0.013092 0.000115 0.000020 -0.000754 -0.000007
# 3 -0.001790 0.000115 0.006225 0.000004 0.000774 -0.000001
# 4 -0.000001 0.000020 0.000004 0.081593 0.000000 -0.014259
# 5 -0.002418 -0.000754 0.000774 0.000000 0.028155 0.000000
# 6 0.000000 -0.000007 -0.000001 -0.014259 0.000000 0.030250
#
#
# Mechanical properties :
#
#
# Convention : Reuss Voigt Hill
#
# Bulk Modulus (GPa) = 49.32423 55.84742 52.58583
# Shear Modulus (GPa) = 27.29435 38.22185 32.75810
#
# Velocity S-wave (km/s) = 3.28622 3.88880 3.60014
# Velocity P-wave (km/s) = 5.82361 6.50078 6.17149
#
# Compressibility (1/GPa) = 0.02027401
#
# Stress axis : x y z
#
# Youngs Moduli (GPa) = 110.66012 76.38399 160.65451
#
# Poissons Ratio (x) = 0.18068 0.28749
# Poissons Ratio (y) = 0.26175 -0.01854
# Poissons Ratio (z) = 0.19803 -0.00881
#
# Static dielectric constant tensor:
#      x y z
#    x 1.988770 0.000000 0.002780 
#    y 0.000000 1.959270 0.000000 
#    z 0.002780 0.000000 2.014430 
# 
# From -- ./inp_files/157922.got.cif
#   From: 2010.05.17/outbox.cif.g08.bks.cpg/sg15_79_cif.got.tgz:157922.got - 2010.06.03 18:47:42.
