data_PCOD9294275
_publ_section_title
;
Structure prediction by ZEFSAII (Michael W. Deem and Ramdas Pophale) SiO2 
 PCOD9294275
Probable space group: C 2/C
;
_chemical_formula_sum "Si O2"
_cell_formula_units_Z 52
_cell_length_a 12.976572
_cell_length_b 11.956594
_cell_length_c 18.492077
_cell_angle_alpha 90.000000
_cell_angle_beta 58.460719
_cell_angle_gamma 90.000000
_cell_volume 2445.323628
_symmetry_space_group_name_H-M "C 2/C"
_symmetry_group_IT_number 15
_symmetry_cell_setting 'monoclinic'
loop_
_space_group_symop_operation_xyz
x,y,z
-x,y,1/2-z
-x,-y,-z
x,-y,1/2+z
1/2+x,1/2+y,z
1/2-x,1/2+y,1/2-z
1/2-x,1/2-y,-z
1/2+x,1/2-y,1/2+z
loop_
_atom_site_type_symbol
_atom_site_label
_atom_site_fract_x
_atom_site_fract_y
_atom_site_fract_z
Si Si1 0.402184 0.357185 0.486547
Si Si2 0.500000 0.996245 0.250000
Si Si3 0.242926 0.647163 0.674371
Si Si4 0.588030 0.609898 0.026789
Si Si5 0.642539 0.615360 0.713332
Si Si6 0.868418 0.681403 0.384530
Si Si7 0.637791 0.373655 0.669567
O O1 0.444174 0.479873 0.447046
O O2 0.466342 0.335491 0.539449
O O3 0.257772 0.365495 0.540298
O O4 0.431940 0.258468 0.420880
O O5 0.454642 0.082600 0.327825
O O6 0.383772 0.920084 0.275780
O O7 0.316211 0.617122 0.574136
O O8 0.318668 0.618869 0.717945
O O9 0.213058 0.778540 0.682050
O O10 0.633194 0.655857 0.086150
O O11 0.500000 0.610793 0.750000
O O12 0.674353 0.731707 0.662238
O O13 0.689444 0.498653 0.662317
O O14 0.500000 0.371088 0.750000
#
# Coordination Sequence:
#
# PCOD9294275 Si02
#       7
#     8   4   8   8   8   8   8
#     4  10  23  39  69 100 134 185 228 288 336 405
#     4  12  26  42  68 104 140 180 226 282 354 400
#     4  12  27  45  70 100 144 181 225 290 351 407
#     4  11  23  43  68  99 137 182 234 274 346 408
#     4  11  25  41  69 101 131 182 233 283 336 409
#     4  11  22  42  66 101 141 175 231 286 339 407
#     4  11  26  45  68  99 140 178 235 282 340 416
#
# _framework density 21.265077999999999
#
# number of rings (size 3 to 8) (size 9 to 14) (size 15 to 20)
#    0.000    0.923    4.615    1.385   10.769    0.000 
#    0.000    0.000    0.000    4.615    0.000    0.000 
#    0.000    0.000    0.000    0.000    0.000    0.000 
#
# Total GULP energy -145256.705478 kJ/mol
# GULP energy per Si atom -5586.796365 kJ/mol
# Density = 2.121668 g / cm^3
# Si number density = 21.265078 Si / 1000 Ang^3
#
#
#
# Elastic Constant Matrix: (Units=GPa)
#
#
# Indices 1 2 3 4 5 6 
#
# 1 122.5616 30.2653 45.7088 0.0000 20.8266 0.0000
# 2 30.2653 76.4816 8.8744 0.0000 4.0762 0.0000
# 3 45.7088 8.8744 68.6559 0.0000 16.8386 0.0000
# 4 0.0000 0.0000 0.0000 14.3440 0.0000 1.3452
# 5 20.8266 4.0762 16.8386 0.0000 40.1954 0.0000
# 6 0.0000 0.0000 0.0000 1.3452 0.0000 23.4917
#
#
#
# Elastic Compliance Matrix: (Units=1/GPa)
#
#
# Indices 1 2 3 4 5 6 
#
# 1 0.012194 -0.003866 -0.006871 0.000000 -0.003048 0.000000
# 2 -0.003866 0.014517 0.000632 0.000000 0.000266 0.000000
# 3 -0.006871 0.000632 0.020285 0.000000 -0.005002 0.000000
# 4 0.000000 0.000000 0.000000 0.070092 0.000000 -0.004014
# 5 -0.003048 0.000266 -0.005002 0.000000 0.028526 0.000000
# 6 0.000000 0.000000 0.000000 -0.004014 0.000000 0.042798
#
#
# Mechanical properties :
#
#
# Convention : Reuss Voigt Hill
#
# Bulk Modulus (GPa) = 37.33248 48.59956 42.96602
# Shear Modulus (GPa) = 22.98301 27.79626 25.38963
#
# Velocity S-wave (km/s) = 3.29110 3.61935 3.45912
# Velocity P-wave (km/s) = 5.66000 6.35374 6.01688
#
# Compressibility (1/GPa) = 0.02678633
#
# Stress axis : x y z
#
# Youngs Moduli (GPa) = 82.00542 68.88332 49.29714
#
# Poissons Ratio (x) = 0.26629 0.33874
# Poissons Ratio (y) = 0.31702 -0.03115
# Poissons Ratio (z) = 0.56349 -0.04353
#
# Static dielectric constant tensor:
#      x y z
#    x 1.764300 0.000000 0.001760 
#    y 0.000000 1.794730 0.000000 
#    z 0.001760 0.000000 1.821360 
# 
# From -- ./inp_files/237484.got.cif
#   From: 2010.05.17/outbox.cif.g08.bks.cpg/sg15_119_cif.got.tgz:237484.got - 2010.06.03 18:47:42.
