data_PCOD9294001
_publ_section_title
;
Structure prediction by ZEFSAII (Michael W. Deem and Ramdas Pophale) SiO2 
 PCOD9294001
Probable space group: C 2/C
;
_chemical_formula_sum "Si O2"
_cell_formula_units_Z 40
_cell_length_a 10.981861
_cell_length_b 8.506446
_cell_length_c 21.072790
_cell_angle_alpha 90.000000
_cell_angle_beta 53.597297
_cell_angle_gamma 90.000000
_cell_volume 1584.417409
_symmetry_space_group_name_H-M "C 2/C"
_symmetry_group_IT_number 15
_symmetry_cell_setting 'monoclinic'
loop_
_space_group_symop_operation_xyz
x,y,z
-x,y,1/2-z
-x,-y,-z
x,-y,1/2+z
1/2+x,1/2+y,z
1/2-x,1/2+y,1/2-z
1/2-x,1/2-y,-z
1/2+x,1/2-y,1/2+z
loop_
_atom_site_type_symbol
_atom_site_label
_atom_site_fract_x
_atom_site_fract_y
_atom_site_fract_z
Si Si1 0.895429 0.073284 0.977669
Si Si2 0.303217 0.136922 0.680644
Si Si3 0.322410 0.698915 0.306017
Si Si4 0.630132 0.225669 0.126184
Si Si5 0.629957 0.883449 0.086097
O O1 0.953604 0.150304 0.894219
O O2 0.799545 0.209620 0.042815
O O3 0.766897 0.942821 0.999984
O O4 0.000000 0.000000 0.000000
O O5 0.296946 0.181989 0.756070
O O6 0.169748 0.226136 0.684751
O O7 0.474654 0.184732 0.607204
O O8 0.273538 0.956472 0.673870
O O9 0.500000 0.654498 0.250000
O O10 0.298045 0.782614 0.380207
O O11 0.574498 0.047812 0.136481
#
# Coordination Sequence:
#
# PCOD9294001 Si02
#       5
#     8   8   8   8   8
#     4   9  20  39  62  84 120 153 195 236 288 347
#     4  11  22  39  61  85 120 149 197 240 288 348
#     4  10  23  38  56  90 115 153 194 239 292 350
#     4   9  21  38  58  89 113 156 195 232 291 348
#     4   9  21  38  60  85 119 150 192 237 287 341
#
# _framework density 25.245874000000001
#
# number of rings (size 3 to 8) (size 9 to 14) (size 15 to 20)
#    1.200    1.200    0.000    1.200    2.800    5.600 
#    0.000    2.000    0.000    0.000    0.000    0.000 
#    0.000    0.000    0.000    0.000    0.000    0.000 
#
# Total GULP energy -111689.581632 kJ/mol
# GULP energy per Si atom -5584.479082 kJ/mol
# Density = 2.518841 g / cm^3
# Si number density = 25.245874 Si / 1000 Ang^3
#
#
#
# Elastic Constant Matrix: (Units=GPa)
#
#
# Indices 1 2 3 4 5 6 
#
# 1 157.9063 46.6790 41.7779 0.0000 24.5155 0.0000
# 2 46.6790 58.4020 29.9673 0.0000 24.9058 0.0000
# 3 41.7779 29.9673 43.9139 0.0000 14.6616 0.0000
# 4 0.0000 0.0000 0.0000 26.2100 0.0000 9.7147
# 5 24.5155 24.9058 14.6616 0.0000 47.1353 0.0000
# 6 0.0000 0.0000 0.0000 9.7147 0.0000 53.8240
#
#
#
# Elastic Compliance Matrix: (Units=1/GPa)
#
#
# Indices 1 2 3 4 5 6 
#
# 1 0.009163 -0.004047 -0.005667 0.000000 -0.000865 0.000000
# 2 -0.004047 0.032373 -0.014766 0.000000 -0.010407 0.000000
# 3 -0.005667 -0.014766 0.038666 0.000000 -0.001278 0.000000
# 4 0.000000 0.000000 0.000000 0.040889 0.000000 -0.007380
# 5 -0.000865 -0.010407 -0.001278 0.000000 0.027562 0.000000
# 6 0.000000 0.000000 0.000000 -0.007380 0.000000 0.019911
#
#
# Mechanical properties :
#
#
# Convention : Reuss Voigt Hill
#
# Bulk Modulus (GPa) = 32.00909 55.23006 43.61958
# Shear Modulus (GPa) = 21.93587 34.88706 28.41146
#
# Velocity S-wave (km/s) = 2.95089 3.72141 3.35832
# Velocity P-wave (km/s) = 4.93121 6.35528 5.68799
#
# Compressibility (1/GPa) = 0.03124112
#
# Stress axis : x y z
#
# Youngs Moduli (GPa) = 109.13803 30.89024 25.86242
#
# Poissons Ratio (x) = 0.12502 0.14655
# Poissons Ratio (y) = 0.44170 0.38190
# Poissons Ratio (z) = 0.61844 0.45614
#
# Static dielectric constant tensor:
#      x y z
#    x 2.017880 0.000000 -0.058030 
#    y 0.000000 2.015210 0.000000 
#    z -0.058030 0.000000 2.032960 
# 
# From -- ./inp_files/235725.got.cif
#   From: 2010.05.17/outbox.cif.g08.bks.cpg/sg15_118_cif.got.tgz:235725.got - 2010.06.03 18:47:42.
