data_PCOD9294443
_publ_section_title
;
Structure prediction by ZEFSAII (Michael W. Deem and Ramdas Pophale) SiO2 
 PCOD9294443
Probable space group: C 2/C
;
_chemical_formula_sum "Si O2"
_cell_formula_units_Z 44
_cell_length_a 14.530199
_cell_length_b 12.065863
_cell_length_c 10.067376
_cell_angle_alpha 90.000000
_cell_angle_beta 90.272891
_cell_angle_gamma 90.000000
_cell_volume 1764.986205
_symmetry_space_group_name_H-M "C 2/C"
_symmetry_group_IT_number 15
_symmetry_cell_setting 'monoclinic'
loop_
_space_group_symop_operation_xyz
x,y,z
-x,y,1/2-z
-x,-y,-z
x,-y,1/2+z
1/2+x,1/2+y,z
1/2-x,1/2+y,1/2-z
1/2-x,1/2-y,-z
1/2+x,1/2-y,1/2+z
loop_
_atom_site_type_symbol
_atom_site_label
_atom_site_fract_x
_atom_site_fract_y
_atom_site_fract_z
Si Si1 0.171139 0.957302 0.620144
Si Si2 0.891049 0.693227 0.572990
Si Si3 0.000000 0.920817 0.250000
Si Si4 0.438033 0.035861 0.126556
Si Si5 0.745789 0.611455 0.385156
Si Si6 0.913049 0.235433 0.528443
O O1 0.235573 0.953779 0.749396
O O2 0.155425 0.835317 0.560790
O O3 0.071907 0.004819 0.667587
O O4 0.209322 0.036850 0.506103
O O5 0.894385 0.582761 0.660697
O O6 0.844588 0.656270 0.432141
O O7 0.822644 0.784759 0.627816
O O8 0.991630 0.742648 0.550446
O O9 0.941376 0.842827 0.151706
O O10 0.500000 0.071561 0.250000
O O11 0.382202 0.143112 0.077221
O O12 0.500000 0.000000 0.000000
#
# Coordination Sequence:
#
# PCOD9294443 Si02
#       6
#     8   8   4   8   8   8
#     4  12  24  43  70 104 132 186 228 293 336 416
#     4  10  24  45  65  99 135 186 220 282 345 421
#     4  12  20  40  68 100 138 166 238 288 334 388
#     4  10  23  40  65  96 127 172 228 279 330 406
#     4  11  25  44  69  98 145 176 226 283 360 401
#     4  11  22  42  70  99 133 177 236 285 332 406
#
# _framework density 24.929372999999998
#
# number of rings (size 3 to 8) (size 9 to 14) (size 15 to 20)
#    0.000    1.091    4.545    1.636    5.091    2.909 
#    3.273    0.909    0.000    0.000    0.000    0.000 
#    0.000    0.000    0.000    0.000    0.000    0.000 
#
# Total GULP energy -123306.133025 kJ/mol
# GULP energy per Si atom -5604.824228 kJ/mol
# Density = 2.487263 g / cm^3
# Si number density = 24.929373 Si / 1000 Ang^3
#
#
#
# Elastic Constant Matrix: (Units=GPa)
#
#
# Indices 1 2 3 4 5 6 
#
# 1 75.8169 22.2212 13.0549 0.0000 -14.7247 0.0000
# 2 22.2212 148.2962 31.3394 0.0000 -14.6805 0.0000
# 3 13.0549 31.3394 122.1089 0.0000 -2.8122 0.0000
# 4 0.0000 0.0000 0.0000 44.5277 0.0000 12.1989
# 5 -14.7247 -14.6805 -2.8122 0.0000 25.9423 0.0000
# 6 0.0000 0.0000 0.0000 12.1989 0.0000 39.3301
#
#
#
# Elastic Compliance Matrix: (Units=1/GPa)
#
#
# Indices 1 2 3 4 5 6 
#
# 1 0.015278 -0.001277 -0.001125 0.000000 0.007827 0.000000
# 2 -0.001277 0.007641 -0.001746 0.000000 0.003410 0.000000
# 3 -0.001125 -0.001746 0.008742 0.000000 -0.000679 0.000000
# 4 0.000000 0.000000 0.000000 0.024543 0.000000 -0.007613
# 5 0.007827 0.003410 -0.000679 0.000000 0.044846 0.000000
# 6 0.000000 0.000000 0.000000 -0.007613 0.000000 0.027787
#
#
# Mechanical properties :
#
#
# Convention : Reuss Voigt Hill
#
# Bulk Modulus (GPa) = 42.79931 53.27255 48.03593
# Shear Modulus (GPa) = 34.50133 40.60047 37.55090
#
# Velocity S-wave (km/s) = 3.72420 4.03999 3.88531
# Velocity P-wave (km/s) = 5.97481 6.57099 6.27998
#
# Compressibility (1/GPa) = 0.02336486
#
# Stress axis : x y z
#
# Youngs Moduli (GPa) = 65.45457 130.87057 114.38731
#
# Poissons Ratio (x) = 0.16707 0.12874
# Poissons Ratio (y) = 0.08356 0.19973
# Poissons Ratio (z) = 0.07367 0.22851
#
# Static dielectric constant tensor:
#      x y z
#    x 2.022460 0.000000 -0.000620 
#    y 0.000000 1.954430 0.000000 
#    z -0.000620 0.000000 1.961370 
# 
# From -- ./inp_files/95073.got.cif
#   From: 2010.05.17/outbox.cif.g08.bks.cpg/sg15_48_cif.got.tgz:95073.got - 2010.06.03 18:47:42.
