data_PCOD9294675
_publ_section_title
;
Structure prediction by ZEFSAII (Michael W. Deem and Ramdas Pophale) SiO2 
 PCOD9294675
Probable space group: C 2/C
;
_chemical_formula_sum "Si O2"
_cell_formula_units_Z 32
_cell_length_a 14.690075
_cell_length_b 16.853625
_cell_length_c 9.002002
_cell_angle_alpha 90.000000
_cell_angle_beta 33.882019
_cell_angle_gamma 90.000000
_cell_volume 1242.479752
_symmetry_space_group_name_H-M "C 2/C"
_symmetry_group_IT_number 15
_symmetry_cell_setting 'monoclinic'
loop_
_space_group_symop_operation_xyz
x,y,z
-x,y,1/2-z
-x,-y,-z
x,-y,1/2+z
1/2+x,1/2+y,z
1/2-x,1/2+y,1/2-z
1/2-x,1/2-y,-z
1/2+x,1/2-y,1/2+z
loop_
_atom_site_type_symbol
_atom_site_label
_atom_site_fract_x
_atom_site_fract_y
_atom_site_fract_z
Si Si1 0.692878 0.173781 0.665286
Si Si2 0.898590 0.374335 0.741605
Si Si3 0.761921 0.060593 0.312352
Si Si4 0.883890 0.881513 0.185562
O O1 0.750000 0.250000 0.500000
O O2 0.680523 0.103070 0.562745
O O3 0.829764 0.151839 0.600499
O O4 0.522507 0.182705 0.984819
O O5 0.846963 0.438053 0.687535
O O6 0.000000 0.401857 0.750000
O O7 0.729212 0.341371 0.036893
O O8 0.823048 0.973398 0.269902
O O9 0.923655 0.112970 0.057192
#
# Coordination Sequence:
#
# PCOD9294675 Si02
#       4
#     8   8   8   8
#     4  11  25  44  67 100 141 183 231 291 356 421
#     4  10  23  41  63  96 135 177 229 280 341 416
#     4  11  22  41  71 103 138 183 230 287 352 424
#     4  10  23  43  69 102 139 179 233 291 352 424
#
# _framework density 25.754947999999999
#
# number of rings (size 3 to 8) (size 9 to 14) (size 15 to 20)
#    0.000    1.500    0.000    3.750    0.000   19.000 
#    0.000   13.750    0.000    0.000    0.000    0.000 
#    0.000    0.000    0.000    0.000    0.000    0.000 
#
# Total GULP energy -89643.618588 kJ/mol
# GULP energy per Si atom -5602.726162 kJ/mol
# Density = 2.569633 g / cm^3
# Si number density = 25.754948 Si / 1000 Ang^3
#
#
#
# Elastic Constant Matrix: (Units=GPa)
#
#
# Indices 1 2 3 4 5 6 
#
# 1 147.9053 33.7256 65.9025 -0.0004 25.7276 0.0001
# 2 33.7256 95.6636 40.3710 -0.0002 17.0603 0.0002
# 3 65.9025 40.3710 217.4701 -0.0001 -5.7554 0.0001
# 4 -0.0004 -0.0002 -0.0001 31.7208 0.0002 8.2334
# 5 25.7276 17.0603 -5.7554 0.0002 47.3521 0.0000
# 6 0.0001 0.0002 0.0001 8.2334 0.0000 31.3206
#
#
#
# Elastic Compliance Matrix: (Units=1/GPa)
#
#
# Indices 1 2 3 4 5 6 
#
# 1 0.009052 -0.001220 -0.002644 0.000000 -0.004800 0.000000
# 2 -0.001220 0.012479 -0.002055 0.000000 -0.004083 0.000000
# 3 -0.002644 -0.002055 0.005857 0.000000 0.002889 0.000000
# 4 0.000000 0.000000 0.000000 0.033834 0.000000 -0.008894
# 5 -0.004800 -0.004083 0.002889 0.000000 0.025549 0.000000
# 6 0.000000 0.000000 0.000000 -0.008894 0.000000 0.034266
#
#
# Mechanical properties :
#
#
# Convention : Reuss Voigt Hill
#
# Bulk Modulus (GPa) = 64.30231 82.33748 73.31990
# Shear Modulus (GPa) = 36.21695 43.48136 39.84916
#
# Velocity S-wave (km/s) = 3.75402 4.11332 3.93777
# Velocity P-wave (km/s) = 6.61902 7.38906 7.01461
#
# Compressibility (1/GPa) = 0.01555154
#
# Stress axis : x y z
#
# Youngs Moduli (GPa) = 110.47081 80.13702 170.72208
#
# Poissons Ratio (x) = 0.09773 0.45136
# Poissons Ratio (y) = 0.13472 0.35084
# Poissons Ratio (z) = 0.29207 0.16468
#
# Static dielectric constant tensor:
#      x y z
#    x 1.966360 0.000000 -0.023940 
#    y 0.000000 2.032830 0.000000 
#    z -0.023940 0.000000 2.079750 
# 
# From -- ./inp_files/40097.got.cif
#   From: 2010.05.17/outbox.cif.g08.bks.cpg/sg15_21_cif.got.tgz:40097.got - 2010.06.03 18:47:42.
