data_PCOD9294738
_publ_section_title
;
Structure prediction by ZEFSAII (Michael W. Deem and Ramdas Pophale) SiO2 
 PCOD9294738
Probable space group: C 2/C
;
_chemical_formula_sum "Si O2"
_cell_formula_units_Z 64
_cell_length_a 24.962038
_cell_length_b 11.921229
_cell_length_c 11.556429
_cell_angle_alpha 90.000000
_cell_angle_beta 72.138332
_cell_angle_gamma 90.000000
_cell_volume 3273.183428
_symmetry_space_group_name_H-M "C 2/C"
_symmetry_group_IT_number 15
_symmetry_cell_setting 'monoclinic'
loop_
_space_group_symop_operation_xyz
x,y,z
-x,y,1/2-z
-x,-y,-z
x,-y,1/2+z
1/2+x,1/2+y,z
1/2-x,1/2+y,1/2-z
1/2-x,1/2-y,-z
1/2+x,1/2-y,1/2+z
loop_
_atom_site_type_symbol
_atom_site_label
_atom_site_fract_x
_atom_site_fract_y
_atom_site_fract_z
Si Si1 0.938044 0.252247 0.287006
Si Si2 0.266784 0.379142 0.999785
Si Si3 0.723937 0.780540 0.392687
Si Si4 0.441965 0.994366 0.725476
Si Si5 0.166089 0.863938 0.320906
Si Si6 0.400097 0.838161 0.561771
Si Si7 0.838297 0.109792 0.235889
Si Si8 0.335962 0.987257 0.963893
O O1 0.941456 0.370338 0.214567
O O2 0.926062 0.286957 0.427906
O O3 0.887722 0.181124 0.264352
O O4 0.000000 0.198168 0.250000
O O5 0.288665 0.412345 0.860379
O O6 0.217109 0.462326 0.070895
O O7 0.250000 0.250000 0.000000
O O8 0.316643 0.381287 0.057645
O O9 0.750000 0.750000 0.500000
O O10 0.776129 0.826512 0.281394
O O11 0.690505 0.680940 0.348935
O O12 0.680627 0.879441 0.451910
O O13 0.500000 0.965239 0.750000
O O14 0.437020 0.924452 0.611191
O O15 0.388408 0.968527 0.843875
O O16 0.122931 0.761333 0.343288
O O17 0.141571 0.984104 0.303054
O O18 0.349697 0.913555 0.544727
#
# Coordination Sequence:
#
# PCOD9294738 Si02
#       8
#     8   8   8   8   8   8   8   8
#     4  10  23  44  69  94 122 166 227 274 319 384
#     4  12  20  39  62  92 123 170 208 252 326 384
#     4  12  25  38  58  97 135 168 207 264 320 390
#     4  10  23  41  65  94 129 170 210 270 322 378
#     4  12  25  39  64  91 133 169 211 262 317 400
#     4  11  22  41  65  91 126 167 216 262 327 384
#     4  12  24  42  64  92 130 174 218 265 328 383
#     4  11  22  36  63  93 127 161 214 257 317 381
#
# _framework density 19.55283
#
# number of rings (size 3 to 8) (size 9 to 14) (size 15 to 20)
#    0.000    0.750    5.000    3.000    1.750    5.500 
#    0.000    1.250    0.000    0.000    0.000    0.000 
#    0.000    0.000    0.000    0.000    0.000    0.000 
#
# Total GULP energy -178675.588853 kJ/mol
# GULP energy per Si atom -5583.612152 kJ/mol
# Density = 1.950833 g / cm^3
# Si number density = 19.552830 Si / 1000 Ang^3
#
#
#
# Elastic Constant Matrix: (Units=GPa)
#
#
# Indices 1 2 3 4 5 6 
#
# 1 91.1831 29.2318 26.5454 0.0000 -1.7468 0.0000
# 2 29.2318 92.7156 31.6272 0.0000 0.9271 0.0000
# 3 26.5454 31.6272 60.3302 0.0000 4.1184 0.0000
# 4 0.0000 0.0000 0.0000 23.0744 0.0000 6.9023
# 5 -1.7468 0.9271 4.1184 0.0000 26.3482 0.0000
# 6 0.0000 0.0000 0.0000 6.9023 0.0000 16.5726
#
#
#
# Elastic Compliance Matrix: (Units=1/GPa)
#
#
# Indices 1 2 3 4 5 6 
#
# 1 0.013158 -0.002620 -0.004530 0.000000 0.001673 0.000000
# 2 -0.002620 0.013666 -0.006031 0.000000 0.000288 0.000000
# 3 -0.004530 -0.006031 0.021971 0.000000 -0.003522 0.000000
# 4 0.000000 0.000000 0.000000 0.049506 0.000000 -0.020619
# 5 0.001673 0.000288 -0.003522 0.000000 0.038605 0.000000
# 6 0.000000 0.000000 0.000000 -0.020619 0.000000 0.068928
#
#
# Mechanical properties :
#
#
# Convention : Reuss Voigt Hill
#
# Bulk Modulus (GPa) = 44.57845 46.55974 45.56910
# Shear Modulus (GPa) = 20.86177 23.65401 22.25789
#
# Velocity S-wave (km/s) = 3.26995 3.48192 3.37760
# Velocity P-wave (km/s) = 6.09141 6.32685 6.21024
#
# Compressibility (1/GPa) = 0.02243236
#
# Stress axis : x y z
#
# Youngs Moduli (GPa) = 76.00119 73.17351 45.51466
#
# Poissons Ratio (x) = 0.19170 0.20619
# Poissons Ratio (y) = 0.19911 0.27451
# Poissons Ratio (z) = 0.34430 0.44133
#
# Static dielectric constant tensor:
#      x y z
#    x 1.695440 0.000000 -0.004310 
#    y 0.000000 1.722880 0.000000 
#    z -0.004310 0.000000 1.708380 
# 
# From -- ./inp_files/117995.got.cif
#   From: 2010.05.17/outbox.cif.g08.bks.cpg/sg15_59_cif.got.tgz:117995.got - 2010.06.03 18:47:42.
