data_PCOD9294884
_publ_section_title
;
Structure prediction by ZEFSAII (Michael W. Deem and Ramdas Pophale) SiO2 
 PCOD9294884
Probable space group: C 2/C
;
_chemical_formula_sum "Si O2"
_cell_formula_units_Z 52
_cell_length_a 14.407483
_cell_length_b 5.466573
_cell_length_c 27.970490
_cell_angle_alpha 90.000000
_cell_angle_beta 94.231616
_cell_angle_gamma 90.000000
_cell_volume 2196.938000
_symmetry_space_group_name_H-M "C 2/C"
_symmetry_group_IT_number 15
_symmetry_cell_setting 'monoclinic'
loop_
_space_group_symop_operation_xyz
x,y,z
-x,y,1/2-z
-x,-y,-z
x,-y,1/2+z
1/2+x,1/2+y,z
1/2-x,1/2+y,1/2-z
1/2-x,1/2-y,-z
1/2+x,1/2-y,1/2+z
loop_
_atom_site_type_symbol
_atom_site_label
_atom_site_fract_x
_atom_site_fract_y
_atom_site_fract_z
Si Si1 0.874054 0.009544 0.896041
Si Si2 0.500000 0.455814 0.250000
Si Si3 0.089376 0.948246 0.395851
Si Si4 0.549926 0.933788 0.828892
Si Si5 0.170876 0.827860 0.800532
Si Si6 0.692272 0.499434 0.999024
Si Si7 0.152001 0.529963 0.658690
O O1 0.851326 0.280804 0.874133
O O2 0.983306 0.969041 0.892980
O O3 0.822207 0.779809 0.868513
O O4 0.858050 0.003419 0.951888
O O5 0.489552 0.290933 0.203201
O O6 0.401527 0.591850 0.243179
O O7 0.082894 0.661208 0.381519
O O8 0.141892 0.071481 0.352849
O O9 0.132529 0.996954 0.448479
O O10 0.638983 0.048080 0.806251
O O11 0.453739 0.081338 0.828027
O O12 0.272596 0.943696 0.798828
O O13 0.750000 0.250000 0.000000
O O14 0.750000 0.750000 0.000000
#
# Coordination Sequence:
#
# PCOD9294884 Si02
#       7
#     8   4   8   8   8   8   8
#     4  11  23  45  64 101 137 178 236 277 337 410
#     4  10  24  44  66 100 132 174 220 284 346 416
#     4  10  23  41  68  92 137 183 221 285 345 396
#     4  10  23  46  66 100 135 176 232 277 352 420
#     4  11  22  44  70  94 137 177 224 283 350 408
#     4  12  26  40  63 102 137 179 237 282 333 410
#     4  11  25  43  73 101 135 183 228 281 340 415
#
# _framework density 23.669308999999998
#
# number of rings (size 3 to 8) (size 9 to 14) (size 15 to 20)
#    0.000    1.231    1.538    3.692    8.615    0.000 
#    5.538    3.846    0.000    0.000    0.000    0.000 
#    0.000    0.000    0.000    0.000    0.000    0.000 
#
# Total GULP energy -145111.064471 kJ/mol
# GULP energy per Si atom -5581.194787 kJ/mol
# Density = 2.361544 g / cm^3
# Si number density = 23.669309 Si / 1000 Ang^3
#
#
#
# Elastic Constant Matrix: (Units=GPa)
#
#
# Indices 1 2 3 4 5 6 
#
# 1 88.3335 34.0441 21.4130 0.0000 14.1217 0.0000
# 2 34.0441 117.6573 53.1857 0.0000 24.8979 0.0000
# 3 21.4130 53.1857 108.4073 0.0000 24.6726 0.0000
# 4 0.0000 0.0000 0.0000 32.6881 0.0000 1.6229
# 5 14.1217 24.8979 24.6726 0.0000 45.9893 0.0000
# 6 0.0000 0.0000 0.0000 1.6229 0.0000 24.2626
#
#
#
# Elastic Compliance Matrix: (Units=1/GPa)
#
#
# Indices 1 2 3 4 5 6 
#
# 1 0.012965 -0.003053 -0.000607 0.000000 -0.002002 0.000000
# 2 -0.003053 0.012146 -0.004639 0.000000 -0.003149 0.000000
# 3 -0.000607 -0.004639 0.012537 0.000000 -0.004028 0.000000
# 4 0.000000 0.000000 0.000000 0.030694 0.000000 -0.002053
# 5 -0.002002 -0.003149 -0.004028 0.000000 0.026225 0.000000
# 6 0.000000 0.000000 0.000000 -0.002053 0.000000 0.041353
#
#
# Mechanical properties :
#
#
# Convention : Reuss Voigt Hill
#
# Bulk Modulus (GPa) = 47.50820 59.07595 53.29208
# Shear Modulus (GPa) = 31.34094 34.30503 32.82298
#
# Velocity S-wave (km/s) = 3.64279 3.81116 3.72792
# Velocity P-wave (km/s) = 6.14886 6.66180 6.41046
#
# Compressibility (1/GPa) = 0.02104900
#
# Stress axis : x y z
#
# Youngs Moduli (GPa) = 77.13233 82.32996 79.76273
#
# Poissons Ratio (x) = 0.25136 0.04844
# Poissons Ratio (y) = 0.23549 0.37004
# Poissons Ratio (z) = 0.04684 0.38195
#
# Static dielectric constant tensor:
#      x y z
#    x 2.006700 0.000000 -0.042830 
#    y 0.000000 2.037810 0.000000 
#    z -0.042830 0.000000 1.942750 
# 
# From -- ./inp_files/312404.got.cif
#   From: 2010.05.17/outbox.cif.g08.bks.cpg/sg15_157_cif.got.tgz:312404.got - 2010.06.03 18:47:42.
