data_PCOD9294380
_publ_section_title
;
Structure prediction by ZEFSAII (Michael W. Deem and Ramdas Pophale) SiO2 
 PCOD9294380
Probable space group: C 2/C
;
_chemical_formula_sum "Si O2"
_cell_formula_units_Z 48
_cell_length_a 7.168114
_cell_length_b 13.159641
_cell_length_c 23.067895
_cell_angle_alpha 90.000000
_cell_angle_beta 104.551305
_cell_angle_gamma 90.000000
_cell_volume 2106.190959
_symmetry_space_group_name_H-M "C 2/C"
_symmetry_group_IT_number 15
_symmetry_cell_setting 'monoclinic'
loop_
_space_group_symop_operation_xyz
x,y,z
-x,y,1/2-z
-x,-y,-z
x,-y,1/2+z
1/2+x,1/2+y,z
1/2-x,1/2+y,1/2-z
1/2-x,1/2-y,-z
1/2+x,1/2-y,1/2+z
loop_
_atom_site_type_symbol
_atom_site_label
_atom_site_fract_x
_atom_site_fract_y
_atom_site_fract_z
Si Si1 0.000000 0.827654 0.250000
Si Si2 0.992535 0.392960 0.031336
Si Si3 0.707431 0.971025 0.381221
Si Si4 0.276669 0.343607 0.718737
Si Si5 0.402842 0.392092 0.123741
Si Si6 0.000000 0.511427 0.750000
Si Si7 0.470120 0.830616 0.904523
O O1 0.834067 0.754629 0.263199
O O2 0.908318 0.896375 0.193202
O O3 0.193631 0.395208 0.080509
O O4 0.833679 0.394712 0.068864
O O5 0.000000 0.500000 0.000000
O O6 0.964829 0.321930 0.973662
O O7 0.934959 0.968554 0.387307
O O8 0.592889 0.936295 0.314045
O O9 0.618100 0.080242 0.394037
O O10 0.500000 0.339266 0.750000
O O11 0.226308 0.352870 0.646251
O O12 0.170372 0.437619 0.741301
O O13 0.466183 0.277653 0.113786
#
# Coordination Sequence:
#
# PCOD9294380 Si02
#       7
#     4   8   8   8   8   4   8
#     4   9  22  38  58 100 127 150 228 268 313 398
#     4  10  23  42  63  94 131 166 221 267 314 402
#     4  10  23  40  63  92 128 169 211 270 325 393
#     4   9  18  38  66  89 123 171 205 265 334 381
#     4  11  23  41  66  92 126 176 208 274 334 376
#     4   9  20  36  56  92 129 156 216 264 313 394
#     4   9  21  43  62  94 130 163 223 269 319 397
#
# _framework density 22.789954999999999
#
# number of rings (size 3 to 8) (size 9 to 14) (size 15 to 20)
#    0.000    2.333    0.000    1.500    2.333   10.000 
#    1.500    8.333    0.000    0.000    0.000    0.000 
#    0.000    0.000    0.000    0.000    0.000    0.000 
#
# Total GULP energy -134064.820678 kJ/mol
# GULP energy per Si atom -5586.034195 kJ/mol
# Density = 2.273808 g / cm^3
# Si number density = 22.789955 Si / 1000 Ang^3
#
#
#
# Elastic Constant Matrix: (Units=GPa)
#
#
# Indices 1 2 3 4 5 6 
#
# 1 103.8276 11.1420 32.3584 0.0000 8.9317 0.0000
# 2 11.1420 41.7572 5.6719 0.0000 -2.0649 0.0000
# 3 32.3584 5.6719 171.7056 0.0000 -3.9506 0.0000
# 4 0.0000 0.0000 0.0000 11.0226 0.0000 3.1947
# 5 8.9317 -2.0649 -3.9506 0.0000 31.4931 0.0000
# 6 0.0000 0.0000 0.0000 3.1947 0.0000 23.8753
#
#
#
# Elastic Compliance Matrix: (Units=1/GPa)
#
#
# Indices 1 2 3 4 5 6 
#
# 1 0.010869 -0.002798 -0.002037 0.000000 -0.003522 0.000000
# 2 -0.002798 0.024845 -0.000238 0.000000 0.002393 0.000000
# 3 -0.002037 -0.000238 0.006247 0.000000 0.001346 0.000000
# 4 0.000000 0.000000 0.000000 0.094383 0.000000 -0.012629
# 5 -0.003522 0.002393 0.001346 0.000000 0.033077 0.000000
# 6 0.000000 0.000000 0.000000 -0.012629 0.000000 0.043574
#
#
# Mechanical properties :
#
#
# Convention : Reuss Voigt Hill
#
# Bulk Modulus (GPa) = 31.43175 46.18168 38.80671
# Shear Modulus (GPa) = 21.39067 31.15275 26.27171
#
# Velocity S-wave (km/s) = 3.06698 3.70124 3.39894
# Velocity P-wave (km/s) = 5.13456 6.21077 5.69813
#
# Compressibility (1/GPa) = 0.03181497
#
# Stress axis : x y z
#
# Youngs Moduli (GPa) = 92.00177 40.24923 160.08629
#
# Poissons Ratio (x) = 0.11261 0.32609
# Poissons Ratio (y) = 0.25740 0.03817
# Poissons Ratio (z) = 0.18741 0.00960
#
# Static dielectric constant tensor:
#      x y z
#    x 1.810710 0.000000 -0.045250 
#    y 0.000000 1.868380 0.000000 
#    z -0.045250 0.000000 1.965160 
# 
# From -- ./inp_files/260778.got.cif
#   From: 2010.05.17/outbox.cif.g08.bks.cpg/sg15_131_cif.got.tgz:260778.got - 2010.06.03 18:47:42.
