data_PCOD9294061
_publ_section_title
;
Structure prediction by ZEFSAII (Michael W. Deem and Ramdas Pophale) SiO2 
 PCOD9294061
Probable space group: C 2/C
;
_chemical_formula_sum "Si O2"
_cell_formula_units_Z 56
_cell_length_a 24.075176
_cell_length_b 19.269572
_cell_length_c 9.034113
_cell_angle_alpha 90.000000
_cell_angle_beta 135.828765
_cell_angle_gamma 90.000000
_cell_volume 2920.373338
_symmetry_space_group_name_H-M "C 2/C"
_symmetry_group_IT_number 15
_symmetry_cell_setting 'monoclinic'
loop_
_space_group_symop_operation_xyz
x,y,z
-x,y,1/2-z
-x,-y,-z
x,-y,1/2+z
1/2+x,1/2+y,z
1/2-x,1/2+y,1/2-z
1/2-x,1/2-y,-z
1/2+x,1/2-y,1/2+z
loop_
_atom_site_type_symbol
_atom_site_label
_atom_site_fract_x
_atom_site_fract_y
_atom_site_fract_z
Si Si1 0.771012 0.323392 0.367125
Si Si2 0.173756 0.226218 0.256683
Si Si3 0.956915 0.941109 0.508358
Si Si4 0.238890 0.597807 0.218393
Si Si5 0.496736 0.709175 0.421185
Si Si6 0.271422 0.535695 0.609821
Si Si7 0.145644 0.288234 0.671155
O O1 0.831866 0.287708 0.372820
O O2 0.764408 0.405390 0.350256
O O3 0.799593 0.308097 0.586542
O O4 0.686655 0.282443 0.186360
O O5 0.250000 0.250000 0.500000
O O6 0.196396 0.155439 0.211758
O O7 0.092067 0.218393 0.189138
O O8 0.864594 0.961156 0.329159
O O9 0.000000 0.939645 0.750000
O O10 0.968951 0.864849 0.460766
O O11 0.000000 0.000000 0.500000
O O12 0.259582 0.559881 0.415409
O O13 0.236513 0.538739 0.088531
O O14 0.160243 0.646575 0.090385
O O15 0.500000 0.707001 0.250000
O O16 0.559114 0.770846 0.568447
#
# Coordination Sequence:
#
# PCOD9294061 Si02
#       7
#     8   8   8   8   8   8   8
#     4   9  19  36  59  83 116 158 199 255 295 368
#     4  11  24  38  61  93 120 157 216 253 311 375
#     4  11  23  35  53  82 124 161 197 245 308 373
#     4  10  23  38  64  94 122 165 208 254 306 386
#     4  11  22  37  59  86 120 162 199 263 304 362
#     4  11  21  39  61  87 129 165 203 253 321 363
#     4   9  18  39  58  85 118 157 207 245 304 358
#
# _framework density 19.175630000000002
#
# number of rings (size 3 to 8) (size 9 to 14) (size 15 to 20)
#    0.000    1.714    1.429    4.286    4.000    0.571 
#    0.000    0.000    0.000    0.857    7.429    0.000 
#    0.000    0.000    0.000    0.000    0.000    0.000 
#
# Total GULP energy -156015.371088 kJ/mol
# GULP energy per Si atom -5571.977539 kJ/mol
# Density = 1.913199 g / cm^3
# Si number density = 19.175630 Si / 1000 Ang^3
#
#
#
# Elastic Constant Matrix: (Units=GPa)
#
#
# Indices 1 2 3 4 5 6 
#
# 1 126.8653 70.4541 8.9348 0.0000 4.8718 0.0000
# 2 70.4541 125.0957 21.6383 0.0000 10.8049 0.0000
# 3 8.9348 21.6383 28.8921 0.0000 -1.3367 0.0000
# 4 0.0000 0.0000 0.0000 17.7805 0.0000 -10.5663
# 5 4.8718 10.8049 -1.3367 0.0000 23.7101 0.0000
# 6 0.0000 0.0000 0.0000 -10.5663 0.0000 39.8302
#
#
#
# Elastic Compliance Matrix: (Units=1/GPa)
#
#
# Indices 1 2 3 4 5 6 
#
# 1 0.011541 -0.006849 0.001599 0.000000 0.000840 0.000000
# 2 -0.006849 0.013774 -0.008445 0.000000 -0.005346 0.000000
# 3 0.001599 -0.008445 0.040711 0.000000 0.005815 0.000000
# 4 0.000000 0.000000 0.000000 0.066767 0.000000 0.017712
# 5 0.000840 -0.005346 0.005815 0.000000 0.044767 0.000000
# 6 0.000000 0.000000 0.000000 0.017712 0.000000 0.029805
#
#
# Mechanical properties :
#
#
# Convention : Reuss Voigt Hill
#
# Bulk Modulus (GPa) = 25.88245 53.65640 39.76942
# Shear Modulus (GPa) = 20.19111 28.25255 24.22183
#
# Velocity S-wave (km/s) = 3.24845 3.84260 3.55795
# Velocity P-wave (km/s) = 5.25326 6.90867 6.13704
#
# Compressibility (1/GPa) = 0.03863622
#
# Stress axis : x y z
#
# Youngs Moduli (GPa) = 86.64649 72.60146 24.56356
#
# Poissons Ratio (x) = 0.49726 -0.03929
# Poissons Ratio (y) = 0.59346 0.20744
# Poissons Ratio (z) = -0.13858 0.61311
#
# Static dielectric constant tensor:
#      x y z
#    x 0.000000 0.000000 0.000000 
#    y 0.000000 0.000000 0.000000 
#    z 0.000000 0.000000 0.000000 
# 
# From -- ./inp_files/62791.got.cif
#   From: 2010.05.17/outbox.cif.g08.bks.cpg/sg15_32_cif.got.tgz:62791.got - 2010.06.03 18:47:42.
