data_PCOD9294371
_publ_section_title
;
Structure prediction by ZEFSAII (Michael W. Deem and Ramdas Pophale) SiO2 
 PCOD9294371
Probable space group: C 2/C
;
_chemical_formula_sum "Si O2"
_cell_formula_units_Z 48
_cell_length_a 23.238652
_cell_length_b 14.976722
_cell_length_c 13.211858
_cell_angle_alpha 90.000000
_cell_angle_beta 24.827981
_cell_angle_gamma 90.000000
_cell_volume 1930.779454
_symmetry_space_group_name_H-M "C 2/C"
_symmetry_group_IT_number 15
_symmetry_cell_setting 'monoclinic'
loop_
_space_group_symop_operation_xyz
x,y,z
-x,y,1/2-z
-x,-y,-z
x,-y,1/2+z
1/2+x,1/2+y,z
1/2-x,1/2+y,1/2-z
1/2-x,1/2-y,-z
1/2+x,1/2-y,1/2+z
loop_
_atom_site_type_symbol
_atom_site_label
_atom_site_fract_x
_atom_site_fract_y
_atom_site_fract_z
Si Si1 0.917279 0.428928 0.278410
Si Si2 0.749330 0.399058 0.252591
Si Si3 0.446960 0.892103 0.651618
Si Si4 0.857183 0.862692 0.853915
Si Si5 0.966215 0.041414 0.918588
Si Si6 0.077214 0.797791 0.374271
O O1 0.018102 0.413314 0.021652
O O2 0.783744 0.367396 0.482732
O O3 0.000000 0.423310 0.250000
O O4 0.862068 0.529235 0.339168
O O5 0.909180 0.395971 0.018492
O O6 0.678954 0.363557 0.469422
O O7 0.685980 0.497922 0.334237
O O8 0.704357 0.336501 0.232906
O O9 0.392857 0.792271 0.732915
O O10 0.958600 0.787294 0.650098
O O11 0.939773 0.955615 0.705177
O O12 0.000000 0.063918 0.750000
O O13 0.008168 0.127552 0.913913
#
# Coordination Sequence:
#
# PCOD9294371 Si02
#       6
#     8   8   8   8   8   8
#     4  10  23  40  63  78 124 168 197 234 312 371
#     4   9  19  38  59  84 123 151 201 253 295 364
#     4  10  24  41  54  96 123 154 204 253 296 371
#     4   9  19  37  61  88 110 158 207 247 291 367
#     4   9  19  36  60  86 112 154 202 246 296 357
#     4  11  21  35  64  90 119 153 205 254 307 340
#
# _framework density 24.860424999999999
#
# number of rings (size 3 to 8) (size 9 to 14) (size 15 to 20)
#    0.000    2.333    0.000    3.500    4.667    6.000 
#    9.000    0.833    0.000    0.000    0.000    0.000 
#    0.000    0.000    0.000    0.000    0.000    0.000 
#
# Total GULP energy -134377.342130 kJ/mol
# GULP energy per Si atom -5599.055922 kJ/mol
# Density = 2.480384 g / cm^3
# Si number density = 24.860425 Si / 1000 Ang^3
#
#
#
# Elastic Constant Matrix: (Units=GPa)
#
#
# Indices 1 2 3 4 5 6 
#
# 1 154.5627 39.2409 16.9660 0.0000 -13.0357 0.0000
# 2 39.2409 83.8568 3.9059 0.0000 -4.0423 0.0000
# 3 16.9660 3.9059 56.4036 0.0001 -3.3390 0.0000
# 4 0.0000 0.0000 0.0001 13.6981 0.0000 3.8104
# 5 -13.0357 -4.0423 -3.3390 0.0000 28.6872 0.0000
# 6 0.0000 0.0000 0.0000 3.8104 0.0000 20.8156
#
#
#
# Elastic Compliance Matrix: (Units=1/GPa)
#
#
# Indices 1 2 3 4 5 6 
#
# 1 0.007789 -0.003418 -0.001939 0.000000 0.002832 0.000000
# 2 -0.003418 0.013537 0.000112 0.000000 0.000367 0.000000
# 3 -0.001939 0.000112 0.018380 0.000000 0.001274 0.000000
# 4 0.000000 0.000000 0.000000 0.076920 0.000000 -0.014081
# 5 0.002832 0.000367 0.001274 0.000000 0.036346 0.000000
# 6 0.000000 0.000000 0.000000 -0.014081 0.000000 0.050618
#
#
# Mechanical properties :
#
#
# Convention : Reuss Voigt Hill
#
# Bulk Modulus (GPa) = 34.22557 46.11651 40.17104
# Shear Modulus (GPa) = 22.33952 28.28753 25.31353
#
# Velocity S-wave (km/s) = 3.00091 3.37687 3.19443
# Velocity P-wave (km/s) = 5.07979 5.81333 5.45889
#
# Compressibility (1/GPa) = 0.02921792
#
# Stress axis : x y z
#
# Youngs Moduli (GPa) = 128.38017 73.87095 54.40653
#
# Poissons Ratio (x) = 0.25251 0.10547
# Poissons Ratio (y) = 0.43883 -0.00612
# Poissons Ratio (z) = 0.24888 -0.00831
#
# Static dielectric constant tensor:
#      x y z
#    x 1.967160 0.000000 0.065410 
#    y 0.000000 2.037530 0.000000 
#    z 0.065410 0.000000 2.025940 
# 
# From -- ./inp_files/97207.got.cif
#   From: 2010.05.17/outbox.cif.g08.bks.cpg/sg15_49_cif.got.tgz:97207.got - 2010.06.03 18:47:42.
