data_PCOD9294223
_publ_section_title
;
Structure prediction by ZEFSAII (Michael W. Deem and Ramdas Pophale) SiO2 
 PCOD9294223
Probable space group: C 2/C
;
_chemical_formula_sum "Si O2"
_cell_formula_units_Z 60
_cell_length_a 18.566290
_cell_length_b 8.892314
_cell_length_c 22.317760
_cell_angle_alpha 90.000000
_cell_angle_beta 135.756823
_cell_angle_gamma 90.000000
_cell_volume 2570.765448
_symmetry_space_group_name_H-M "C 2/C"
_symmetry_group_IT_number 15
_symmetry_cell_setting 'monoclinic'
loop_
_space_group_symop_operation_xyz
x,y,z
-x,y,1/2-z
-x,-y,-z
x,-y,1/2+z
1/2+x,1/2+y,z
1/2-x,1/2+y,1/2-z
1/2-x,1/2-y,-z
1/2+x,1/2-y,1/2+z
loop_
_atom_site_type_symbol
_atom_site_label
_atom_site_fract_x
_atom_site_fract_y
_atom_site_fract_z
Si Si1 0.959017 0.083050 0.562848
Si Si2 0.896525 0.194176 0.646891
Si Si3 0.647020 0.720230 0.113802
Si Si4 0.264054 0.982178 0.889553
Si Si5 0.500000 0.815330 0.250000
Si Si6 0.914754 0.870338 0.800767
Si Si7 0.683945 0.704422 0.518586
Si Si8 0.177068 0.522836 0.327293
O O1 0.904056 0.920434 0.538107
O O2 0.068358 0.031936 0.655089
O O3 0.917945 0.195155 0.589157
O O4 0.933343 0.144734 0.481887
O O5 0.815751 0.060792 0.611745
O O6 0.844507 0.347760 0.636852
O O7 0.000000 0.173143 0.750000
O O8 0.679090 0.880693 0.107748
O O9 0.604716 0.737180 0.154924
O O10 0.748417 0.610065 0.174321
O O11 0.187974 0.894631 0.799307
O O12 0.340754 0.862838 0.965260
O O13 0.499016 0.693093 0.194433
O O14 0.569258 0.938711 0.254279
O O15 0.750000 0.750000 0.500000
O O16 0.761404 0.613509 0.607100
#
# Coordination Sequence:
#
# PCOD9294223 Si02
#       8
#     8   8   8   8   4   8   8   8
#     4  11  23  41  68  96 136 182 226 279 346 407
#     4  11  20  38  64 102 127 166 229 281 330 397
#     4  10  27  43  65  98 141 181 222 284 355 411
#     4  11  23  40  67  98 130 180 227 279 338 408
#     4  12  22  40  70 106 128 172 240 286 326 406
#     4  12  24  44  71  97 136 180 235 282 344 411
#     4  11  21  37  63  97 136 172 220 278 343 400
#     4  10  23  39  64  99 133 173 220 279 341 399
#
# _framework density 23.339351000000001
#
# number of rings (size 3 to 8) (size 9 to 14) (size 15 to 20)
#    0.000    1.067    4.667    2.000    3.733    1.600 
#    0.000    0.667    5.867    0.000    0.000    0.000 
#    0.000    0.000    0.000    0.000    0.000    0.000 
#
# Total GULP energy -167136.771338 kJ/mol
# GULP energy per Si atom -5571.225711 kJ/mol
# Density = 2.328623 g / cm^3
# Si number density = 23.339351 Si / 1000 Ang^3
#
#
#
# Elastic Constant Matrix: (Units=GPa)
#
#
# Indices 1 2 3 4 5 6 
#
# 1 80.3975 25.5056 13.8812 0.0000 -26.3277 0.0000
# 2 25.5056 118.7652 19.4686 0.0000 -9.6902 0.0000
# 3 13.8812 19.4686 47.8205 0.0000 -17.9385 0.0000
# 4 0.0000 0.0000 0.0000 7.0724 0.0000 -5.5325
# 5 -26.3277 -9.6902 -17.9385 0.0000 27.5849 0.0000
# 6 0.0000 0.0000 0.0000 -5.5325 0.0000 22.0911
#
#
#
# Elastic Compliance Matrix: (Units=1/GPa)
#
#
# Indices 1 2 3 4 5 6 
#
# 1 0.019146 -0.003019 0.002815 0.000000 0.019044 0.000000
# 2 -0.003019 0.009521 -0.003738 0.000000 -0.001968 0.000000
# 3 0.002815 -0.003738 0.029272 0.000000 0.020410 0.000000
# 4 0.000000 0.000000 0.000000 0.175844 0.000000 0.044038
# 5 0.019044 -0.001968 0.020410 0.000000 0.067009 0.000000
# 6 0.000000 0.000000 0.000000 0.044038 0.000000 0.056296
#
#
# Mechanical properties :
#
#
# Convention : Reuss Voigt Hill
#
# Bulk Modulus (GPa) = 19.97803 40.52155 30.24979
# Shear Modulus (GPa) = 13.10079 23.89155 18.49617
#
# Velocity S-wave (km/s) = 2.37178 3.20294 2.81817
# Velocity P-wave (km/s) = 4.00985 5.57477 4.85576
#
# Compressibility (1/GPa) = 0.05005499
#
# Stress axis : x y z
#
# Youngs Moduli (GPa) = 52.22960 105.03583 34.16218
#
# Poissons Ratio (x) = 0.31715 -0.09618
# Poissons Ratio (y) = 0.15771 0.12769
# Poissons Ratio (z) = -0.14704 0.39260
#
# Static dielectric constant tensor:
#      x y z
#    x 1.950580 0.000000 0.086680 
#    y 0.000000 1.868220 0.000000 
#    z 0.086680 0.000000 1.960290 
# 
# From -- ./inp_files/252123.got.cif
#   From: 2010.05.17/outbox.cif.g08.bks.cpg/sg15_127_cif.got.tgz:252123.got - 2010.06.03 18:47:42.
