data_PCOD9294408
_publ_section_title
;
Structure prediction by ZEFSAII (Michael W. Deem and Ramdas Pophale) SiO2 
 PCOD9294408
Probable space group: C 2/C
;
_chemical_formula_sum "Si O2"
_cell_formula_units_Z 36
_cell_length_a 10.652097
_cell_length_b 17.851815
_cell_length_c 16.794007
_cell_angle_alpha 90.000000
_cell_angle_beta 147.194017
_cell_angle_gamma 90.000000
_cell_volume 1730.244988
_symmetry_space_group_name_H-M "C 2/C"
_symmetry_group_IT_number 15
_symmetry_cell_setting 'monoclinic'
loop_
_space_group_symop_operation_xyz
x,y,z
-x,y,1/2-z
-x,-y,-z
x,-y,1/2+z
1/2+x,1/2+y,z
1/2-x,1/2+y,1/2-z
1/2-x,1/2-y,-z
1/2+x,1/2-y,1/2+z
loop_
_atom_site_type_symbol
_atom_site_label
_atom_site_fract_x
_atom_site_fract_y
_atom_site_fract_z
Si Si1 0.959015 0.102411 0.038803
Si Si2 0.000000 0.334807 0.250000
Si Si3 0.004191 0.062585 0.881264
Si Si4 0.693622 0.688107 0.292213
Si Si5 0.884099 0.418481 0.450042
O O1 0.682145 0.116730 0.896740
O O2 0.020153 0.093447 0.978949
O O3 0.102981 0.167724 0.156875
O O4 0.021321 0.026650 0.118772
O O5 0.166528 0.276720 0.291750
O O6 0.784318 0.092483 0.715166
O O7 0.225654 0.077723 0.944524
O O8 0.500000 0.655868 0.250000
O O9 0.930455 0.647500 0.439931
O O10 0.000000 0.500000 0.500000
#
# Coordination Sequence:
#
# PCOD9294408 Si02
#       5
#     8   4   8   8   8
#     4  11  22  42  59 101 131 162 229 264 323 388
#     4  10  26  38  70  92 136 176 220 266 316 394
#     4  10  25  37  66 100 125 176 206 276 340 365
#     4  10  23  40  64  96 124 177 219 258 329 380
#     4  11  21  42  64  92 139 164 216 270 327 402
#
# _framework density 20.806301999999999
#
# number of rings (size 3 to 8) (size 9 to 14) (size 15 to 20)
#    0.667    0.889    2.222    2.000    6.222    0.889 
#    0.000    1.111    0.000    0.000    0.000    0.000 
#    0.000    0.000    0.000    0.000    0.000    0.000 
#
# Total GULP energy -100523.427869 kJ/mol
# GULP energy per Si atom -5584.634882 kJ/mol
# Density = 2.075895 g / cm^3
# Si number density = 20.806302 Si / 1000 Ang^3
#
#
#
# Elastic Constant Matrix: (Units=GPa)
#
#
# Indices 1 2 3 4 5 6 
#
# 1 100.2738 14.1309 35.4818 -0.0001 1.3660 -0.0009
# 2 14.1309 37.6979 15.4851 -0.0003 -0.7387 -0.0008
# 3 35.4818 15.4851 109.8878 -0.0014 6.3190 -0.0021
# 4 -0.0001 -0.0003 -0.0014 26.0536 -0.0005 14.9709
# 5 1.3660 -0.7387 6.3190 -0.0005 31.2298 -0.0010
# 6 -0.0009 -0.0008 -0.0021 14.9709 -0.0010 21.0443
#
#
#
# Elastic Compliance Matrix: (Units=1/GPa)
#
#
# Indices 1 2 3 4 5 6 
#
# 1 0.011565 -0.002969 -0.003321 0.000000 0.000096 0.000000
# 2 -0.002969 0.028987 -0.003210 0.000000 0.001465 0.000001
# 3 -0.003321 -0.003210 0.010746 0.000000 -0.002105 0.000001
# 4 0.000000 0.000000 0.000000 0.064921 -0.000001 -0.046185
# 5 0.000096 0.001465 -0.002105 -0.000001 0.032477 0.000002
# 6 0.000000 0.000001 0.000001 -0.046185 0.000002 0.080375
#
#
# Mechanical properties :
#
#
# Convention : Reuss Voigt Hill
#
# Bulk Modulus (GPa) = 30.96285 42.00609 36.48447
# Shear Modulus (GPa) = 19.31708 27.84964 23.58336
#
# Velocity S-wave (km/s) = 3.05031 3.66255 3.37036
# Velocity P-wave (km/s) = 5.22682 6.17403 5.72006
#
# Compressibility (1/GPa) = 0.03229677
#
# Stress axis : x y z
#
# Youngs Moduli (GPa) = 86.46742 34.49822 93.05711
#
# Poissons Ratio (x) = 0.10242 0.30908
# Poissons Ratio (y) = 0.25671 0.29875
# Poissons Ratio (z) = 0.28719 0.11075
#
# Static dielectric constant tensor:
#      x y z
#    x 1.757840 0.000000 -0.008900 
#    y 0.000000 1.749300 0.000000 
#    z -0.008900 0.000000 1.745920 
# 
# From -- ./inp_files/29762.got.cif
#   From: 2010.05.17/outbox.cif.g08.bks.cpg/sg15_15_cif.got.tgz:29762.got - 2010.06.03 18:47:42.
