data_PCOD9294934
_publ_section_title
;
Structure prediction by ZEFSAII (Michael W. Deem and Ramdas Pophale) SiO2 
 PCOD9294934
Probable space group: C 2/C
;
_chemical_formula_sum "Si O2"
_cell_formula_units_Z 56
_cell_length_a 5.235717
_cell_length_b 28.319761
_cell_length_c 18.850942
_cell_angle_alpha 90.000000
_cell_angle_beta 68.043873
_cell_angle_gamma 90.000000
_cell_volume 2592.381283
_symmetry_space_group_name_H-M "C 2/C"
_symmetry_group_IT_number 15
_symmetry_cell_setting 'monoclinic'
loop_
_space_group_symop_operation_xyz
x,y,z
-x,y,1/2-z
-x,-y,-z
x,-y,1/2+z
1/2+x,1/2+y,z
1/2-x,1/2+y,1/2-z
1/2-x,1/2-y,-z
1/2+x,1/2-y,1/2+z
loop_
_atom_site_type_symbol
_atom_site_label
_atom_site_fract_x
_atom_site_fract_y
_atom_site_fract_z
Si Si1 0.485091 0.695773 0.462792
Si Si2 0.253324 0.869605 0.103138
Si Si3 0.357682 0.113686 0.433744
Si Si4 0.507008 0.268077 0.106362
Si Si5 0.681692 0.994288 0.552019
Si Si6 0.234885 0.186160 0.171951
Si Si7 0.343817 0.919090 0.339158
O O1 0.566375 0.640833 0.461510
O O2 0.352448 0.714678 0.549481
O O3 0.761589 0.727903 0.433662
O O4 0.353553 0.697089 0.399691
O O5 0.151400 0.815815 0.115678
O O6 0.470384 0.879675 0.141805
O O7 0.975185 0.902152 0.135368
O O8 0.412413 0.879700 0.012251
O O9 0.360046 0.058946 0.416031
O O10 0.548757 0.143863 0.361115
O O11 0.336766 0.238789 0.182194
O O12 0.500000 0.000000 0.500000
O O13 0.626409 0.034879 0.614593
O O14 0.000000 0.000000 0.500000
O O15 0.000000 0.171284 0.250000
O O16 0.500000 0.928791 0.250000
#
# Coordination Sequence:
#
# PCOD9294934 Si02
#       7
#     8   8   8   8   8   8   8
#     4   9  20  40  63  92 130 171 233 278 342 413
#     4  11  24  43  74 102 140 185 235 285 350 421
#     4  10  23  41  69  98 130 182 239 284 344 426
#     4   9  21  38  65  97 123 183 228 279 333 424
#     4  12  24  45  75 105 133 187 240 289 349 430
#     4  11  24  41  64 100 143 180 225 297 348 418
#     4  12  26  47  67 108 146 177 233 306 358 409
#
# _framework density 21.601759999999999
#
# number of rings (size 3 to 8) (size 9 to 14) (size 15 to 20)
#    0.000    1.429    2.857    1.714    8.000    2.857 
#    5.143    0.000    0.000    0.000    0.000    0.000 
#    0.000    0.000    0.000    0.000    0.000    0.000 
#
# Total GULP energy -156207.837256 kJ/mol
# GULP energy per Si atom -5578.851331 kJ/mol
# Density = 2.155259 g / cm^3
# Si number density = 21.601760 Si / 1000 Ang^3
#
#
#
# Elastic Constant Matrix: (Units=GPa)
#
#
# Indices 1 2 3 4 5 6 
#
# 1 80.7941 14.1610 26.1639 0.0000 -3.3369 0.0000
# 2 14.1610 148.7779 35.4540 0.0000 -11.9243 0.0000
# 3 26.1639 35.4540 88.8815 0.0000 -24.3748 0.0000
# 4 0.0000 0.0000 0.0000 26.7865 0.0000 -3.4516
# 5 -3.3369 -11.9243 -24.3748 0.0000 33.2887 0.0000
# 6 0.0000 0.0000 0.0000 -3.4516 0.0000 19.2661
#
#
#
# Elastic Compliance Matrix: (Units=1/GPa)
#
#
# Indices 1 2 3 4 5 6 
#
# 1 0.013809 -0.000415 -0.004455 0.000000 -0.002027 0.000000
# 2 -0.000415 0.007450 -0.002664 0.000000 0.000676 0.000000
# 3 -0.004455 -0.002664 0.016568 0.000000 0.010730 0.000000
# 4 0.000000 0.000000 0.000000 0.038214 0.000000 0.006846
# 5 -0.002027 0.000676 0.010730 0.000000 0.037936 0.000000
# 6 0.000000 0.000000 0.000000 0.006846 0.000000 0.053131
#
#
# Mechanical properties :
#
#
# Convention : Reuss Voigt Hill
#
# Bulk Modulus (GPa) = 43.94040 52.22348 48.08194
# Shear Modulus (GPa) = 26.34864 32.04658 29.19761
#
# Velocity S-wave (km/s) = 3.49627 3.85582 3.68044
# Velocity P-wave (km/s) = 6.05672 6.63711 6.35354
#
# Compressibility (1/GPa) = 0.02275810
#
# Stress axis : x y z
#
# Youngs Moduli (GPa) = 72.41702 134.22829 60.35835
#
# Poissons Ratio (x) = 0.05572 0.26890
# Poissons Ratio (y) = 0.03006 0.16080
# Poissons Ratio (z) = 0.32262 0.35759
#
# Static dielectric constant tensor:
#      x y z
#    x 1.893510 0.000000 0.019080 
#    y 0.000000 1.821460 0.000000 
#    z 0.019080 0.000000 1.832950 
# 
# From -- ./inp_files/186116.got.cif
#   From: 2010.05.17/outbox.cif.g08.bks.cpg/sg15_94_cif.got.tgz:186116.got - 2010.06.03 18:47:42.
