data_PCOD9294268
_publ_section_title
;
Structure prediction by ZEFSAII (Michael W. Deem and Ramdas Pophale) SiO2 
 PCOD9294268
Probable space group: C 2/C
;
_chemical_formula_sum "Si O2"
_cell_formula_units_Z 40
_cell_length_a 15.639606
_cell_length_b 10.021624
_cell_length_c 25.563802
_cell_angle_alpha 90.000000
_cell_angle_beta 25.154921
_cell_angle_gamma 90.000000
_cell_volume 1703.126929
_symmetry_space_group_name_H-M "C 2/C"
_symmetry_group_IT_number 15
_symmetry_cell_setting 'monoclinic'
loop_
_space_group_symop_operation_xyz
x,y,z
-x,y,1/2-z
-x,-y,-z
x,-y,1/2+z
1/2+x,1/2+y,z
1/2-x,1/2+y,1/2-z
1/2-x,1/2-y,-z
1/2+x,1/2-y,1/2+z
loop_
_atom_site_type_symbol
_atom_site_label
_atom_site_fract_x
_atom_site_fract_y
_atom_site_fract_z
Si Si1 0.052220 0.637157 0.497818
Si Si2 0.500000 0.438815 0.750000
Si Si3 0.574832 0.611036 0.498395
Si Si4 0.998178 0.655005 0.647253
Si Si5 0.543242 0.544062 0.116612
Si Si6 0.500000 0.993931 0.750000
O O1 0.294791 0.645868 0.369480
O O2 0.956589 0.629032 0.608780
O O3 0.000000 0.500000 0.500000
O O4 0.981069 0.751992 0.498286
O O5 0.489849 0.522643 0.808824
O O6 0.500000 0.500000 0.500000
O O7 0.489049 0.559797 0.601498
O O8 0.814389 0.596771 0.370080
O O9 0.233623 0.604400 0.519012
O O10 0.936755 0.811771 0.683087
O O11 0.927312 0.581529 0.739707
#
# Coordination Sequence:
#
# PCOD9294268 Si02
#       6
#     8   4   8   8   8   4
#     4  11  25  45  66 100 138 177 230 285 343 415
#     4  10  23  43  70  96 134 186 220 280 350 402
#     4  11  23  41  66 103 134 174 235 280 331 412
#     4   9  18  37  64  96 132 173 221 269 338 407
#     4   9  18  36  65  97 128 172 226 274 324 410
#     4  10  23  39  68 102 142 182 220 294 346 398
#
# _framework density 23.486212999999999
#
# number of rings (size 3 to 8) (size 9 to 14) (size 15 to 20)
#    0.000    2.000    2.000    0.600    5.600    2.400 
#    0.000    9.000    0.000    0.000    0.000    0.000 
#    0.000    0.000    0.000    0.000    0.000    0.000 
#
# Total GULP energy -111443.853657 kJ/mol
# GULP energy per Si atom -5572.192683 kJ/mol
# Density = 2.343276 g / cm^3
# Si number density = 23.486213 Si / 1000 Ang^3
#
#
#
# Elastic Constant Matrix: (Units=GPa)
#
#
# Indices 1 2 3 4 5 6 
#
# 1 173.5049 83.1139 51.8209 -0.0001 53.0786 -0.0002
# 2 83.1139 147.1126 22.0547 0.0001 12.8284 0.0000
# 3 51.8209 22.0547 110.2669 -0.0037 24.1998 0.0010
# 4 -0.0001 0.0001 -0.0037 13.1778 0.0002 5.4999
# 5 53.0786 12.8284 24.1998 0.0002 56.7349 0.0002
# 6 -0.0002 0.0000 0.0010 5.4999 0.0002 41.2517
#
#
#
# Elastic Compliance Matrix: (Units=1/GPa)
#
#
# Indices 1 2 3 4 5 6 
#
# 1 0.011865 -0.005558 -0.002542 -0.000001 -0.008759 0.000000
# 2 -0.005558 0.009673 0.000018 0.000000 0.003005 0.000000
# 3 -0.002542 0.000018 0.010745 0.000003 -0.002209 -0.000001
# 4 -0.000001 0.000000 0.000003 0.080356 -0.000001 -0.010714
# 5 -0.008759 0.003005 -0.002209 -0.000001 0.026083 0.000000
# 6 0.000000 0.000000 -0.000001 -0.010714 0.000000 0.025670
#
#
# Mechanical properties :
#
#
# Convention : Reuss Voigt Hill
#
# Bulk Modulus (GPa) = 62.04280 82.76261 72.40270
# Shear Modulus (GPa) = 26.89184 40.49255 33.69219
#
# Velocity S-wave (km/s) = 3.38746 4.15673 3.79166
# Velocity P-wave (km/s) = 6.46327 7.63893 7.07556
#
# Compressibility (1/GPa) = 0.01611791
#
# Stress axis : x y z
#
# Youngs Moduli (GPa) = 84.28119 103.37944 93.06891
#
# Poissons Ratio (x) = 0.57463 0.23658
# Poissons Ratio (y) = 0.46847 -0.00167
# Poissons Ratio (z) = 0.21424 -0.00185
#
# Static dielectric constant tensor:
#      x y z
#    x 1.977430 0.000000 -0.031390 
#    y 0.000000 1.859220 0.000000 
#    z -0.031390 0.000000 2.003800 
# 
# From -- ./inp_files/273761.got.cif
#   From: 2010.05.17/outbox.cif.g08.bks.cpg/sg15_137_cif.got.tgz:273761.got - 2010.06.03 18:47:42.
