data_PCOD9294347
_publ_section_title
;
Structure prediction by ZEFSAII (Michael W. Deem and Ramdas Pophale) SiO2 
 PCOD9294347
Probable space group: C 2/C
;
_chemical_formula_sum "Si O2"
_cell_formula_units_Z 56
_cell_length_a 10.956578
_cell_length_b 30.899876
_cell_length_c 13.848227
_cell_angle_alpha 90.000000
_cell_angle_beta 33.370903
_cell_angle_gamma 90.000000
_cell_volume 2578.892893
_symmetry_space_group_name_H-M "C 2/C"
_symmetry_group_IT_number 15
_symmetry_cell_setting 'monoclinic'
loop_
_space_group_symop_operation_xyz
x,y,z
-x,y,1/2-z
-x,-y,-z
x,-y,1/2+z
1/2+x,1/2+y,z
1/2-x,1/2+y,1/2-z
1/2-x,1/2-y,-z
1/2+x,1/2-y,1/2+z
loop_
_atom_site_type_symbol
_atom_site_label
_atom_site_fract_x
_atom_site_fract_y
_atom_site_fract_z
Si Si1 0.484410 0.036651 0.652625
Si Si2 0.482520 0.378092 0.151637
Si Si3 0.182613 0.299740 0.547759
Si Si4 0.125753 0.908476 0.856043
Si Si5 0.488605 0.145575 0.012131
Si Si6 0.665012 0.500103 0.725394
Si Si7 0.189128 0.631578 0.556597
O O1 0.500000 0.017286 0.750000
O O2 0.636601 0.012303 0.477210
O O3 0.591211 0.083893 0.594194
O O4 0.247317 0.032149 0.755970
O O5 0.500000 0.394765 0.250000
O O6 0.219193 0.371287 0.312853
O O7 0.610818 0.331836 0.069571
O O8 0.601498 0.404688 0.987565
O O9 0.250000 0.250000 0.500000
O O10 0.000000 0.306760 0.750000
O O11 0.067097 0.314972 0.525419
O O12 0.361256 0.889497 0.663433
O O13 0.095262 0.955775 0.827602
O O14 0.925082 0.878120 0.948514
O O15 0.316738 0.156105 0.040617
O O16 0.500000 0.514534 0.750000
O O17 0.000000 0.651209 0.750000
#
# Coordination Sequence:
#
# PCOD9294347 Si02
#       7
#     8   8   8   8   8   8   8
#     4  10  23  42  61  90 129 172 224 284 347 413
#     4  10  23  40  62 102 134 167 222 273 330 400
#     4  11  22  42  67  99 140 182 212 265 339 400
#     4  12  21  41  69  94 129 177 222 281 347 388
#     4  11  21  38  65 100 127 169 227 270 320 403
#     4  11  22  42  66  90 123 177 228 279 349 418
#     4  11  21  40  68  91 128 174 222 279 340 399
#
# _framework density 21.714745000000001
#
# number of rings (size 3 to 8) (size 9 to 14) (size 15 to 20)
#    0.000    1.143    5.714    1.714    0.000    0.571 
#    5.143    2.143    0.000    0.857    3.714    0.000 
#    0.000    0.000    0.000    0.000    0.000    0.000 
#
# Total GULP energy -156247.315962 kJ/mol
# GULP energy per Si atom -5580.261284 kJ/mol
# Density = 2.166532 g / cm^3
# Si number density = 21.714745 Si / 1000 Ang^3
#
#
#
# Elastic Constant Matrix: (Units=GPa)
#
#
# Indices 1 2 3 4 5 6 
#
# 1 122.1120 23.8244 33.2559 0.0000 16.5023 0.0000
# 2 23.8244 88.9815 30.4788 0.0000 0.7138 0.0000
# 3 33.2559 30.4788 134.6394 0.0000 15.0361 0.0000
# 4 0.0000 0.0000 0.0000 69.6735 0.0000 -7.3061
# 5 16.5023 0.7138 15.0361 0.0000 46.4823 0.0000
# 6 0.0000 0.0000 0.0000 -7.3061 0.0000 8.0371
#
#
#
# Elastic Compliance Matrix: (Units=1/GPa)
#
#
# Indices 1 2 3 4 5 6 
#
# 1 0.009373 -0.001952 -0.001561 0.000000 -0.002793 0.000000
# 2 -0.001952 0.012614 -0.002520 0.000000 0.001315 0.000000
# 3 -0.001561 -0.002520 0.008629 0.000000 -0.002198 0.000000
# 4 0.000000 0.000000 0.000000 0.015865 0.000000 0.014422
# 5 -0.002793 0.001315 -0.002198 0.000000 0.023196 0.000000
# 6 0.000000 0.000000 0.000000 0.014422 0.000000 0.137533
#
#
# Mechanical properties :
#
#
# Convention : Reuss Voigt Hill
#
# Bulk Modulus (GPa) = 53.91399 57.87234 55.89316
# Shear Modulus (GPa) = 22.17706 42.05018 32.11362
#
# Velocity S-wave (km/s) = 3.19923 4.40532 3.84980
# Velocity P-wave (km/s) = 6.20717 7.25154 6.74958
#
# Compressibility (1/GPa) = 0.01854806
#
# Stress axis : x y z
#
# Youngs Moduli (GPa) = 106.69314 79.27928 115.89064
#
# Poissons Ratio (x) = 0.15478 0.18093
# Poissons Ratio (y) = 0.20830 0.29204
# Poissons Ratio (z) = 0.16657 0.19978
#
# Static dielectric constant tensor:
#      x y z
#    x 1.918840 0.000000 -0.003540 
#    y 0.000000 1.804620 0.000000 
#    z -0.003540 0.000000 1.824040 
# 
# From -- ./inp_files/149266.got.cif
#   From: 2010.05.17/outbox.cif.g08.bks.cpg/sg15_75_cif.got.tgz:149266.got - 2010.06.03 18:47:42.
