data_PCOD9294645
_publ_section_title
;
Structure prediction by ZEFSAII (Michael W. Deem and Ramdas Pophale) SiO2 
 PCOD9294645
Probable space group: C 2/C
;
_chemical_formula_sum "Si O2"
_cell_formula_units_Z 64
_cell_length_a 29.719512
_cell_length_b 18.193077
_cell_length_c 8.413411
_cell_angle_alpha 90.000000
_cell_angle_beta 140.378621
_cell_angle_gamma 90.000000
_cell_volume 2900.976103
_symmetry_space_group_name_H-M "C 2/C"
_symmetry_group_IT_number 15
_symmetry_cell_setting 'monoclinic'
loop_
_space_group_symop_operation_xyz
x,y,z
-x,y,1/2-z
-x,-y,-z
x,-y,1/2+z
1/2+x,1/2+y,z
1/2-x,1/2+y,1/2-z
1/2-x,1/2-y,-z
1/2+x,1/2-y,1/2+z
loop_
_atom_site_type_symbol
_atom_site_label
_atom_site_fract_x
_atom_site_fract_y
_atom_site_fract_z
Si Si1 0.843503 0.381076 0.706636
Si Si2 0.387485 0.529479 0.074799
Si Si3 0.701630 0.256172 0.614471
Si Si4 0.949127 0.304007 0.236234
Si Si5 0.435917 0.601370 0.490352
Si Si6 0.847416 0.228926 0.193102
Si Si7 0.198208 0.083810 0.941899
Si Si8 0.969444 0.574822 0.345741
O O1 0.809308 0.305946 0.545966
O O2 0.779490 0.426430 0.609870
O O3 0.887642 0.419421 0.683472
O O4 0.895779 0.354864 0.989350
O O5 0.424563 0.467261 0.073118
O O6 0.346766 0.582842 0.843376
O O7 0.444624 0.571791 0.336649
O O8 0.332656 0.483155 0.036411
O O9 0.651171 0.236846 0.627117
O O10 0.691692 0.337656 0.514880
O O11 0.777601 0.249371 0.906439
O O12 0.909693 0.251299 0.247568
O O13 0.000000 0.264045 0.250000
O O14 0.996191 0.357217 0.469533
O O15 0.361787 0.644324 0.273586
O O16 0.500000 0.644365 0.750000
O O17 0.000000 0.577965 0.250000
O O18 0.000000 0.500000 0.500000
#
# Coordination Sequence:
#
# PCOD9294645 Si02
#       8
#     8   8   8   8   8   8   8   8
#     4  11  23  40  67  99 129 175 224 268 336 405
#     4  10  24  42  64  95 136 168 228 276 333 407
#     4  11  23  41  69  96 136 173 217 285 340 397
#     4  10  23  41  62  94 134 167 225 269 322 401
#     4  11  23  42  65  92 129 178 220 273 333 397
#     4  11  23  42  66  99 132 171 223 273 340 398
#     4  11  22  43  66  98 134 176 221 284 340 401
#     4  11  24  45  67  93 135 178 219 275 327 394
#
# _framework density 22.061540999999998
#
# number of rings (size 3 to 8) (size 9 to 14) (size 15 to 20)
#    0.000    1.250    2.500    3.375    1.750    4.500 
#    0.000    0.625    0.000    0.000    0.000    0.000 
#    0.000    0.000    0.000    0.000    0.000    0.000 
#
# Total GULP energy -178599.718151 kJ/mol
# GULP energy per Si atom -5581.241192 kJ/mol
# Density = 2.201133 g / cm^3
# Si number density = 22.061541 Si / 1000 Ang^3
#
#
#
# Elastic Constant Matrix: (Units=GPa)
#
#
# Indices 1 2 3 4 5 6 
#
# 1 158.7613 26.8495 43.0582 0.0000 -6.7317 0.0000
# 2 26.8495 60.5614 19.6301 0.0000 -5.1339 0.0000
# 3 43.0582 19.6301 100.1054 0.0000 -18.7843 0.0000
# 4 0.0000 0.0000 0.0000 30.9799 0.0000 -8.2594
# 5 -6.7317 -5.1339 -18.7843 0.0000 31.5843 0.0000
# 6 0.0000 0.0000 0.0000 -8.2594 0.0000 37.4951
#
#
#
# Elastic Compliance Matrix: (Units=1/GPa)
#
#
# Indices 1 2 3 4 5 6 
#
# 1 0.007454 -0.002432 -0.002820 0.000000 -0.000484 0.000000
# 2 -0.002432 0.018450 -0.002371 0.000000 0.001071 0.000000
# 3 -0.002820 -0.002371 0.012925 0.000000 0.006700 0.000000
# 4 0.000000 0.000000 0.000000 0.034293 0.000000 0.007554
# 5 -0.000484 0.001071 0.006700 0.000000 0.035717 0.000000
# 6 0.000000 0.000000 0.000000 0.007554 0.000000 0.028334
#
#
# Mechanical properties :
#
#
# Convention : Reuss Voigt Hill
#
# Bulk Modulus (GPa) = 42.40405 55.38932 48.89669
# Shear Modulus (GPa) = 31.19543 35.33788 33.26665
#
# Velocity S-wave (km/s) = 3.76442 4.00657 3.88738
# Velocity P-wave (km/s) = 6.17714 6.82384 6.50852
#
# Compressibility (1/GPa) = 0.02358265
#
# Stress axis : x y z
#
# Youngs Moduli (GPa) = 134.14901 54.20188 77.37076
#
# Poissons Ratio (x) = 0.13180 0.21821
# Poissons Ratio (y) = 0.32621 0.18345
# Poissons Ratio (z) = 0.37834 0.12851
#
# Static dielectric constant tensor:
#      x y z
#    x 1.914470 0.000000 0.033050 
#    y 0.000000 1.753140 0.000000 
#    z 0.033050 0.000000 1.833630 
# 
# From -- ./inp_files/70634.got.cif
#   From: 2010.05.17/outbox.cif.g08.bks.cpg/sg15_36_cif.got.tgz:70634.got - 2010.06.03 18:47:42.
