data_PCOD9294935
_publ_section_title
;
Structure prediction by ZEFSAII (Michael W. Deem and Ramdas Pophale) SiO2 
 PCOD9294935
Probable space group: C 2/C
;
_chemical_formula_sum "Si O2"
_cell_formula_units_Z 56
_cell_length_a 15.864591
_cell_length_b 16.758302
_cell_length_c 21.080197
_cell_angle_alpha 90.000000
_cell_angle_beta 150.872171
_cell_angle_gamma 90.000000
_cell_volume 2728.024029
_symmetry_space_group_name_H-M "C 2/C"
_symmetry_group_IT_number 15
_symmetry_cell_setting 'monoclinic'
loop_
_space_group_symop_operation_xyz
x,y,z
-x,y,1/2-z
-x,-y,-z
x,-y,1/2+z
1/2+x,1/2+y,z
1/2-x,1/2+y,1/2-z
1/2-x,1/2-y,-z
1/2+x,1/2-y,1/2+z
loop_
_atom_site_type_symbol
_atom_site_label
_atom_site_fract_x
_atom_site_fract_y
_atom_site_fract_z
Si Si1 0.500000 0.484584 0.750000
Si Si2 0.299686 0.664636 0.785939
Si Si3 0.908750 0.140407 0.090260
Si Si4 0.521273 0.174396 0.838288
Si Si5 0.539427 0.409016 0.540782
Si Si6 0.261926 0.879792 0.397861
Si Si7 0.000000 0.740764 0.250000
Si Si8 0.898100 0.339946 0.810572
O O1 0.491172 0.426494 0.804473
O O2 0.335974 0.543451 0.638996
O O3 0.271159 0.623612 0.699346
O O4 0.313640 0.759329 0.783420
O O5 0.138202 0.644563 0.724897
O O6 0.474620 0.639493 0.936800
O O7 0.970453 0.229828 0.146280
O O8 0.934595 0.122871 0.033062
O O9 0.707782 0.139001 0.978955
O O10 0.500000 0.158483 0.750000
O O11 0.500000 0.500000 0.500000
O O12 0.740145 0.396766 0.688579
O O13 0.164697 0.800182 0.359358
O O14 0.460763 0.875241 0.548925
O O15 0.009107 0.687826 0.193202
#
# Coordination Sequence:
#
# PCOD9294935 Si02
#       8
#     4   8   8   8   8   8   4   8
#     4  11  24  44  62  92 139 174 208 272 339 398
#     4  11  22  43  70  98 131 171 227 280 328 402
#     4  11  24  41  65  94 130 172 220 274 331 391
#     4  11  22  41  70  95 121 171 231 276 319 393
#     4  12  26  42  63  98 140 173 216 282 345 389
#     4  10  23  41  69  98 131 171 221 270 333 397
#     4   9  20  40  68 102 123 166 224 280 319 390
#     4  11  23  41  69  97 131 176 226 272 328 404
#
# _framework density 20.527678999999999
#
# number of rings (size 3 to 8) (size 9 to 14) (size 15 to 20)
#    0.000    1.143    3.571    3.000    0.000    5.714 
#    0.000    2.143    0.000    0.000    0.000    0.000 
#    0.000    0.000    0.000    0.000    0.000    0.000 
#
# Total GULP energy -156558.311101 kJ/mol
# GULP energy per Si atom -5591.368254 kJ/mol
# Density = 2.048096 g / cm^3
# Si number density = 20.527679 Si / 1000 Ang^3
#
#
#
# Elastic Constant Matrix: (Units=GPa)
#
#
# Indices 1 2 3 4 5 6 
#
# 1 89.0227 -2.8240 18.8211 -0.0011 -2.7456 0.0005
# 2 -2.8240 55.3503 15.2338 -0.0050 -10.4371 0.0008
# 3 18.8211 15.2338 122.8175 -0.0064 -5.6303 0.0008
# 4 -0.0011 -0.0050 -0.0064 21.3207 -0.0006 -7.4300
# 5 -2.7456 -10.4371 -5.6303 -0.0006 30.4416 0.0005
# 6 0.0005 0.0008 0.0008 -7.4300 0.0005 -6.7233
#
#
#
# Elastic Compliance Matrix: (Units=1/GPa)
#
#
# Indices 1 2 3 4 5 6 
#
# 1 0.011715 0.001342 -0.001908 0.000001 0.001164 0.000000
# 2 0.001342 0.020027 -0.002390 0.000004 0.006546 -0.000001
# 3 -0.001908 -0.002390 0.008760 0.000002 0.000629 -0.000001
# 4 0.000001 0.000004 0.000002 0.033862 0.000003 -0.037421
# 5 0.001164 0.006546 0.000629 0.000003 0.035315 0.000000
# 6 0.000000 -0.000001 -0.000001 -0.037421 0.000000 -0.107381
#
#
# Mechanical properties :
#
#
# Convention : Reuss Voigt Hill
#
# Bulk Modulus (GPa) = 28.90955 36.62804 32.76880
# Shear Modulus (GPa) = 253.29855 24.73844 139.01850
#
# Velocity S-wave (km/s) = 11.12032 3.47526 8.23829
# Velocity P-wave (km/s) = 13.37893 5.82968 10.31942
#
# Compressibility (1/GPa) = 0.03459064
#
# Stress axis : x y z
#
# Youngs Moduli (GPa) = 85.36029 49.93204 114.15711
#
# Poissons Ratio (x) = -0.06703 0.21786
# Poissons Ratio (y) = -0.11459 0.27281
# Poissons Ratio (z) = 0.16290 0.11933
#
# Static dielectric constant tensor:
#      x y z
#    x 1.726080 0.000000 0.003210 
#    y 0.000000 1.723240 0.000000 
#    z 0.003210 0.000000 1.747640 
# 
# From -- ./inp_files/245197.got.cif
#   From: 2010.05.17/outbox.cif.g08.bks.cpg/sg15_123_cif.got.tgz:245197.got - 2010.06.03 18:47:42.
