data_PCOD9294139
_publ_section_title
;
Structure prediction by ZEFSAII (Michael W. Deem and Ramdas Pophale) SiO2 
 PCOD9294139
Probable space group: C 2/C
;
_chemical_formula_sum "Si O2"
_cell_formula_units_Z 40
_cell_length_a 13.270504
_cell_length_b 5.353169
_cell_length_c 29.240773
_cell_angle_alpha 90.000000
_cell_angle_beta 114.077573
_cell_angle_gamma 90.000000
_cell_volume 1896.509903
_symmetry_space_group_name_H-M "C 2/C"
_symmetry_group_IT_number 15
_symmetry_cell_setting 'monoclinic'
loop_
_space_group_symop_operation_xyz
x,y,z
-x,y,1/2-z
-x,-y,-z
x,-y,1/2+z
1/2+x,1/2+y,z
1/2-x,1/2+y,1/2-z
1/2-x,1/2-y,-z
1/2+x,1/2-y,1/2+z
loop_
_atom_site_type_symbol
_atom_site_label
_atom_site_fract_x
_atom_site_fract_y
_atom_site_fract_z
Si Si1 0.204795 0.390264 0.935592
Si Si2 0.724764 0.753649 0.619623
Si Si3 0.484084 0.227270 0.353407
Si Si4 0.872092 0.505509 0.988319
Si Si5 0.969570 0.790519 0.691911
O O1 0.244218 0.479466 0.893023
O O2 0.317505 0.280166 0.977305
O O3 0.095031 0.229858 0.904284
O O4 0.155323 0.579367 0.965039
O O5 0.622329 0.776773 0.634009
O O6 0.838627 0.843637 0.662577
O O7 0.691517 0.878168 0.565258
O O8 0.473388 0.460583 0.317284
O O9 0.499452 0.958451 0.331411
O O10 0.000000 0.500000 0.000000
O O11 0.000000 0.748276 0.750000
#
# Coordination Sequence:
#
# PCOD9294139 Si02
#       5
#     8   8   8   8   8
#     4  10  23  39  60  96 134 175 220 264 320 392
#     4  11  24  40  66  93 136 171 223 270 328 390
#     4  11  24  43  70  97 130 173 219 272 330 395
#     4  11  21  39  62  94 135 178 218 265 324 387
#     4  11  26  46  69  97 130 168 220 280 337 393
#
# _framework density 21.091373000000001
#
# number of rings (size 3 to 8) (size 9 to 14) (size 15 to 20)
#    0.000    1.200    4.000    1.200    2.800    2.400 
#    0.000    0.000    0.000    0.000    0.000    0.000 
#    0.000    0.000    0.000    0.000    0.000    0.000 
#
# Total GULP energy -111445.702736 kJ/mol
# GULP energy per Si atom -5572.285137 kJ/mol
# Density = 2.104337 g / cm^3
# Si number density = 21.091373 Si / 1000 Ang^3
#
#
#
# Elastic Constant Matrix: (Units=GPa)
#
#
# Indices 1 2 3 4 5 6 
#
# 1 205.2761 48.7436 68.7188 0.0000 -15.7433 0.0000
# 2 48.7436 66.4973 15.6191 0.0000 -12.7917 0.0000
# 3 68.7188 15.6191 108.9387 0.0000 -7.7281 0.0000
# 4 0.0000 0.0000 0.0000 29.7951 0.0000 -4.3613
# 5 -15.7433 -12.7917 -7.7281 0.0000 28.3693 0.0000
# 6 0.0000 0.0000 0.0000 -4.3613 0.0000 21.5113
#
#
#
# Elastic Compliance Matrix: (Units=1/GPa)
#
#
# Indices 1 2 3 4 5 6 
#
# 1 0.007255 -0.004196 -0.003899 0.000000 0.001072 0.000000
# 2 -0.004196 0.019276 0.000341 0.000000 0.006456 0.000000
# 3 -0.003899 0.000341 0.011673 0.000000 0.001170 0.000000
# 4 0.000000 0.000000 0.000000 0.034589 0.000000 0.007013
# 5 0.001072 0.006456 0.001170 0.000000 0.039074 0.000000
# 6 0.000000 0.000000 0.000000 0.007013 0.000000 0.047909
#
#
# Mechanical properties :
#
#
# Convention : Reuss Voigt Hill
#
# Bulk Modulus (GPa) = 44.06004 71.87499 57.96752
# Shear Modulus (GPa) = 27.34488 32.44385 29.89436
#
# Velocity S-wave (km/s) = 3.60459 3.92631 3.76889
# Velocity P-wave (km/s) = 6.18543 7.39638 6.81784
#
# Compressibility (1/GPa) = 0.02269630
#
# Stress axis : x y z
#
# Youngs Moduli (GPa) = 137.82888 51.87851 85.66744
#
# Poissons Ratio (x) = 0.21770 0.33402
# Poissons Ratio (y) = 0.57837 -0.02924
# Poissons Ratio (z) = 0.53740 -0.01771
#
# Static dielectric constant tensor:
#      x y z
#    x 1.698180 0.000000 -0.009160 
#    y 0.000000 1.975830 0.000000 
#    z -0.009160 0.000000 1.812030 
# 
# From -- ./inp_files/290509.got.cif
#   From: 2010.05.17/outbox.cif.g08.bks.cpg/sg15_146_cif.got.tgz:290509.got - 2010.06.03 18:47:42.
