data_PCOD9294310
_publ_section_title
;
Structure prediction by ZEFSAII (Michael W. Deem and Ramdas Pophale) SiO2 
 PCOD9294310
Probable space group: C 2/C
;
_chemical_formula_sum "Si O2"
_cell_formula_units_Z 36
_cell_length_a 7.799245
_cell_length_b 14.276881
_cell_length_c 15.776977
_cell_angle_alpha 90.000000
_cell_angle_beta 84.692816
_cell_angle_gamma 90.000000
_cell_volume 1749.217928
_symmetry_space_group_name_H-M "C 2/C"
_symmetry_group_IT_number 15
_symmetry_cell_setting 'monoclinic'
loop_
_space_group_symop_operation_xyz
x,y,z
-x,y,1/2-z
-x,-y,-z
x,-y,1/2+z
1/2+x,1/2+y,z
1/2-x,1/2+y,1/2-z
1/2-x,1/2-y,-z
1/2+x,1/2-y,1/2+z
loop_
_atom_site_type_symbol
_atom_site_label
_atom_site_fract_x
_atom_site_fract_y
_atom_site_fract_z
Si Si1 0.402256 0.058251 0.385724
Si Si2 0.168514 0.758345 0.197293
Si Si3 0.205852 0.428670 0.417371
Si Si4 0.538173 0.518737 0.344765
Si Si5 0.500000 0.696365 0.250000
O O1 0.392155 0.157486 0.337458
O O2 0.374970 0.080023 0.486207
O O3 0.574733 0.995552 0.369791
O O4 0.233293 0.001516 0.362775
O O5 0.251167 0.828462 0.125260
O O6 0.320350 0.748248 0.259067
O O7 0.000000 0.796826 0.250000
O O8 0.391195 0.479172 0.411200
O O9 0.500000 0.487877 0.250000
O O10 0.514269 0.630612 0.332577
#
# Coordination Sequence:
#
# PCOD9294310 Si02
#       5
#     8   8   8   8   4
#     4  10  23  40  59  86 125 159 194 256 306 359
#     4  11  22  39  61  89 121 160 204 253 302 361
#     4  11  22  37  61  91 118 159 205 243 310 369
#     4   9  19  37  61  83 117 159 199 246 295 357
#     4   8  20  38  56  86 118 154 202 250 300 348
#
# _framework density 20.580625999999999
#
# number of rings (size 3 to 8) (size 9 to 14) (size 15 to 20)
#    0.667    1.333    0.000    3.333    0.000    3.556 
#    0.000    0.000    0.000   14.667    0.000    0.000 
#    0.000    0.000    0.000    0.000    0.000    0.000 
#
# Total GULP energy -100292.411816 kJ/mol
# GULP energy per Si atom -5571.800656 kJ/mol
# Density = 2.053378 g / cm^3
# Si number density = 20.580626 Si / 1000 Ang^3
#
#
#
# Elastic Constant Matrix: (Units=GPa)
#
#
# Indices 1 2 3 4 5 6 
#
# 1 139.0298 56.4384 15.6097 0.0000 4.2365 0.0000
# 2 56.4384 80.4340 17.1555 0.0000 -3.6808 0.0000
# 3 15.6097 17.1555 43.6995 0.0000 -6.3470 0.0000
# 4 0.0000 0.0000 0.0000 39.9873 0.0000 -12.3501
# 5 4.2365 -3.6808 -6.3470 0.0000 30.9749 0.0000
# 6 0.0000 0.0000 0.0000 -12.3501 0.0000 3.8409
#
#
#
# Elastic Compliance Matrix: (Units=1/GPa)
#
#
# Indices 1 2 3 4 5 6 
#
# 1 0.010275 -0.007054 -0.001264 0.000000 -0.002503 0.000000
# 2 -0.007054 0.018421 -0.004384 0.000000 0.002255 0.000000
# 3 -0.001264 -0.004384 0.025773 0.000000 0.004933 0.000000
# 4 0.000000 0.000000 0.000000 3.619669 0.000000 11.638862
# 5 -0.002503 0.002255 0.004933 0.000000 0.033905 0.000000
# 6 0.000000 0.000000 0.000000 11.638862 0.000000 37.684531
#
#
# Mechanical properties :
#
#
# Convention : Reuss Voigt Hill
#
# Bulk Modulus (GPa) = 34.40847 49.06339 41.73593
# Shear Modulus (GPa) = 0.12069 26.55793 13.33931
#
# Velocity S-wave (km/s) = 0.24243 3.59616 2.54864
# Velocity P-wave (km/s) = 4.10287 6.41362 5.38368
#
# Compressibility (1/GPa) = 0.02906261
#
# Stress axis : x y z
#
# Youngs Moduli (GPa) = 97.32805 54.28704 38.80068
#
# Poissons Ratio (x) = 0.38295 0.04905
# Poissons Ratio (y) = 0.68657 0.17011
# Poissons Ratio (z) = 0.12305 0.23800
#
# Static dielectric constant tensor:
#      x y z
#    x 1.750030 0.000000 0.003280 
#    y 0.000000 1.784080 0.000000 
#    z 0.003280 0.000000 1.750160 
# 
# From -- ./inp_files/260000.got.cif
#   From: 2010.05.17/outbox.cif.g08.bks.cpg/sg15_130_cif.got.tgz:260000.got - 2010.06.03 18:47:42.
