data_PCOD9294382
_publ_section_title
;
Structure prediction by ZEFSAII (Michael W. Deem and Ramdas Pophale) SiO2 
 PCOD9294382
Probable space group: C 2/C
;
_chemical_formula_sum "Si O2"
_cell_formula_units_Z 44
_cell_length_a 10.244457
_cell_length_b 16.256188
_cell_length_c 14.460685
_cell_angle_alpha 90.000000
_cell_angle_beta 111.492289
_cell_angle_gamma 90.000000
_cell_volume 2240.770838
_symmetry_space_group_name_H-M "C 2/C"
_symmetry_group_IT_number 15
_symmetry_cell_setting 'monoclinic'
loop_
_space_group_symop_operation_xyz
x,y,z
-x,y,1/2-z
-x,-y,-z
x,-y,1/2+z
1/2+x,1/2+y,z
1/2-x,1/2+y,1/2-z
1/2-x,1/2-y,-z
1/2+x,1/2-y,1/2+z
loop_
_atom_site_type_symbol
_atom_site_label
_atom_site_fract_x
_atom_site_fract_y
_atom_site_fract_z
Si Si1 0.000000 0.775444 0.750000
Si Si2 0.494183 0.078911 0.067464
Si Si3 0.890020 0.706287 0.907577
Si Si4 0.121625 0.088988 0.847924
Si Si5 0.686882 0.391918 0.565471
Si Si6 0.295692 0.579792 0.222654
O O1 0.033241 0.721823 0.669082
O O2 0.132157 0.837114 0.795783
O O3 0.345269 0.081451 0.080902
O O4 0.627989 0.080772 0.168792
O O5 0.493334 0.161814 0.005893
O O6 0.500000 0.000000 0.000000
O O7 0.758984 0.644447 0.866880
O O8 0.830453 0.793738 0.926143
O O9 0.000000 0.121889 0.750000
O O10 0.153448 0.997149 0.823060
O O11 0.095337 0.087562 0.951193
O O12 0.656206 0.428709 0.658232
#
# Coordination Sequence:
#
# PCOD9294382 Si02
#       6
#     4   8   8   8   8   8
#     4  10  24  42  58  92 134 156 204 260 312 358
#     4  11  20  38  65  92 120 162 209 252 302 365
#     4  10  23  42  62  93 127 159 205 261 302 371
#     4  11  22  41  66  91 120 161 213 249 304 371
#     4  10  23  40  63  93 127 159 205 258 308 362
#     4  11  22  41  63  90 129 164 201 259 307 364
#
# _framework density 19.636099000000002
#
# number of rings (size 3 to 8) (size 9 to 14) (size 15 to 20)
#    0.000    1.455    4.545    2.727    0.000    8.727 
#    0.000    0.000    0.000    0.000    0.000    0.000 
#    0.000    0.000    0.000    0.000    0.000    0.000 
#
# Total GULP energy -122790.023450 kJ/mol
# GULP energy per Si atom -5581.364702 kJ/mol
# Density = 1.959141 g / cm^3
# Si number density = 19.636099 Si / 1000 Ang^3
#
#
#
# Elastic Constant Matrix: (Units=GPa)
#
#
# Indices 1 2 3 4 5 6 
#
# 1 43.6232 -6.6690 27.1301 0.0000 -0.9011 0.0000
# 2 -6.6690 51.8754 18.6280 0.0000 -9.6738 0.0000
# 3 27.1301 18.6280 136.6327 0.0000 1.5142 0.0000
# 4 0.0000 0.0000 0.0000 34.2719 0.0000 4.4401
# 5 -0.9011 -9.6738 1.5142 0.0000 36.0685 0.0000
# 6 0.0000 0.0000 0.0000 4.4401 0.0000 13.6304
#
#
#
# Elastic Compliance Matrix: (Units=1/GPa)
#
#
# Indices 1 2 3 4 5 6 
#
# 1 0.027978 0.006419 -0.006460 0.000000 0.002692 0.000000
# 2 0.006419 0.022919 -0.004471 0.000000 0.006495 0.000000
# 3 -0.006460 -0.004471 0.009231 0.000000 -0.001748 0.000000
# 4 0.000000 0.000000 0.000000 0.030464 0.000000 -0.009924
# 5 0.002692 0.006495 -0.001748 0.000000 0.029608 0.000000
# 6 0.000000 0.000000 0.000000 -0.009924 0.000000 0.076598
#
#
# Mechanical properties :
#
#
# Convention : Reuss Voigt Hill
#
# Bulk Modulus (GPa) = 19.56872 34.47886 27.02379
# Shear Modulus (GPa) = 22.43589 29.66364 26.04977
#
# Velocity S-wave (km/s) = 3.38388 3.89095 3.64624
# Velocity P-wave (km/s) = 5.02542 6.14679 5.61417
#
# Compressibility (1/GPa) = 0.05110197
#
# Stress axis : x y z
#
# Youngs Moduli (GPa) = 35.74204 43.63218 108.33494
#
# Poissons Ratio (x) = -0.28006 0.69988
# Poissons Ratio (y) = -0.22941 0.48438
# Poissons Ratio (z) = 0.23091 0.19509
#
# Static dielectric constant tensor:
#      x y z
#    x 1.706530 0.000000 0.008820 
#    y 0.000000 1.665310 0.000000 
#    z 0.008820 0.000000 1.718380 
# 
# From -- ./inp_files/143358.got.cif
#   From: 2010.05.17/outbox.cif.g08.bks.cpg/sg15_72_cif.got.tgz:143358.got - 2010.06.03 18:47:42.
