data_PCOD9294483
_publ_section_title
;
Structure prediction by ZEFSAII (Michael W. Deem and Ramdas Pophale) SiO2 
 PCOD9294483
Probable space group: C 2/C
;
_chemical_formula_sum "Si O2"
_cell_formula_units_Z 48
_cell_length_a 11.506647
_cell_length_b 14.925377
_cell_length_c 27.831289
_cell_angle_alpha 90.000000
_cell_angle_beta 154.138160
_cell_angle_gamma 90.000000
_cell_volume 2084.949984
_symmetry_space_group_name_H-M "C 2/C"
_symmetry_group_IT_number 15
_symmetry_cell_setting 'monoclinic'
loop_
_space_group_symop_operation_xyz
x,y,z
-x,y,1/2-z
-x,-y,-z
x,-y,1/2+z
1/2+x,1/2+y,z
1/2-x,1/2+y,1/2-z
1/2-x,1/2-y,-z
1/2+x,1/2-y,1/2+z
loop_
_atom_site_type_symbol
_atom_site_label
_atom_site_fract_x
_atom_site_fract_y
_atom_site_fract_z
Si Si1 0.312299 0.595647 0.378110
Si Si2 0.998928 0.286122 0.042104
Si Si3 0.566876 0.676646 0.875680
Si Si4 0.981144 0.271273 0.300176
Si Si5 0.298341 0.565510 0.485260
Si Si6 0.886840 0.576584 0.830518
O O1 0.435650 0.690876 0.408547
O O2 0.340622 0.593241 0.446340
O O3 0.483945 0.512326 0.422579
O O4 0.000000 0.589639 0.250000
O O5 0.209930 0.293107 0.077493
O O6 0.044162 0.363699 0.097482
O O7 0.708952 0.285270 0.910411
O O8 0.666971 0.644785 0.964388
O O9 0.421748 0.591293 0.795988
O O10 0.319788 0.744280 0.792805
O O11 0.000000 0.266812 0.250000
O O12 0.024573 0.373771 0.335705
O O13 0.009212 0.520089 0.381769
#
# Coordination Sequence:
#
# PCOD9294483 Si02
#       6
#     8   8   8   8   8   8
#     4  11  23  35  63  92 126 164 232 271 320 384
#     4  12  23  45  67  98 128 181 218 272 327 400
#     4  10  24  40  67  96 137 171 217 271 334 389
#     4  10  23  40  66  96 135 169 215 272 333 380
#     4  11  23  40  60  96 130 176 214 277 332 385
#     4  10  23  42  68  90 137 173 217 267 333 388
#
# _framework density 23.022136
#
# number of rings (size 3 to 8) (size 9 to 14) (size 15 to 20)
#    1.000    0.333    1.667    4.000    2.333    3.333 
#    0.000    1.667    0.000    0.000    0.000    0.000 
#    0.000    0.000    0.000    0.000    0.000    0.000 
#
# Total GULP energy -134252.178408 kJ/mol
# GULP energy per Si atom -5593.840767 kJ/mol
# Density = 2.296974 g / cm^3
# Si number density = 23.022136 Si / 1000 Ang^3
#
#
#
# Elastic Constant Matrix: (Units=GPa)
#
#
# Indices 1 2 3 4 5 6 
#
# 1 137.9626 22.3657 46.1545 -0.0005 -1.1537 -0.0004
# 2 22.3657 55.3708 11.7893 -0.0005 -2.4576 -0.0006
# 3 46.1545 11.7893 104.2109 -0.0035 -2.2394 -0.0034
# 4 -0.0005 -0.0005 -0.0035 26.2079 -0.0007 2.2961
# 5 -1.1537 -2.4576 -2.2394 -0.0007 39.1760 -0.0002
# 6 -0.0004 -0.0006 -0.0034 2.2961 -0.0002 27.0427
#
#
#
# Elastic Compliance Matrix: (Units=1/GPa)
#
#
# Indices 1 2 3 4 5 6 
#
# 1 0.008923 -0.002836 -0.003634 0.000000 -0.000123 0.000000
# 2 -0.002836 0.019450 -0.000921 0.000000 0.001084 0.000000
# 3 -0.003634 -0.000921 0.011320 0.000001 0.000482 0.000001
# 4 0.000000 0.000000 0.000001 0.038442 0.000001 -0.003264
# 5 -0.000123 0.001084 0.000482 0.000001 0.025618 0.000000
# 6 0.000000 0.000000 0.000001 -0.003264 0.000000 0.037256
#
#
# Mechanical properties :
#
#
# Convention : Reuss Voigt Hill
#
# Bulk Modulus (GPa) = 40.14273 50.90703 45.52488
# Shear Modulus (GPa) = 30.47054 32.96764 31.71909
#
# Velocity S-wave (km/s) = 3.64198 3.78828 3.71585
# Velocity P-wave (km/s) = 5.92957 6.42612 6.18283
#
# Compressibility (1/GPa) = 0.02491111
#
# Stress axis : x y z
#
# Youngs Moduli (GPa) = 112.07434 51.41454 88.34079
#
# Poissons Ratio (x) = 0.14581 0.32100
# Poissons Ratio (y) = 0.31783 0.08137
# Poissons Ratio (z) = 0.40723 0.04736
#
# Static dielectric constant tensor:
#      x y z
#    x 1.824510 0.000000 0.022280 
#    y 0.000000 1.890220 0.000000 
#    z 0.022280 0.000000 1.900200 
# 
# From -- ./inp_files/311237.got.cif
#   From: 2010.05.17/outbox.cif.g08.bks.cpg/sg15_156_cif.got.tgz:311237.got - 2010.06.03 18:47:42.
