data_PCOD9294171
_publ_section_title
;
Structure prediction by ZEFSAII (Michael W. Deem and Ramdas Pophale) SiO2 
 PCOD9294171
Probable space group: C 2/C
;
_chemical_formula_sum "Si O2"
_cell_formula_units_Z 40
_cell_length_a 22.431354
_cell_length_b 8.433429
_cell_length_c 7.882683
_cell_angle_alpha 90.000000
_cell_angle_beta 85.813763
_cell_angle_gamma 90.000000
_cell_volume 1487.214174
_symmetry_space_group_name_H-M "C 2/C"
_symmetry_group_IT_number 15
_symmetry_cell_setting 'monoclinic'
loop_
_space_group_symop_operation_xyz
x,y,z
-x,y,1/2-z
-x,-y,-z
x,-y,1/2+z
1/2+x,1/2+y,z
1/2-x,1/2+y,1/2-z
1/2-x,1/2-y,-z
1/2+x,1/2-y,1/2+z
loop_
_atom_site_type_symbol
_atom_site_label
_atom_site_fract_x
_atom_site_fract_y
_atom_site_fract_z
Si Si1 0.581139 0.327043 0.881574
Si Si2 0.309910 0.530918 0.050851
Si Si3 0.946410 0.277920 0.455838
Si Si4 0.220129 0.258610 0.756410
Si Si5 0.899535 0.395389 0.816755
O O1 0.619328 0.477562 0.926808
O O2 0.591818 0.308849 0.680828
O O3 0.510861 0.306940 0.930231
O O4 0.606904 0.194448 0.002930
O O5 0.280164 0.653806 0.191741
O O6 0.284107 0.355841 0.080524
O O7 0.294818 0.623526 0.882127
O O8 0.932670 0.305156 0.655993
O O9 0.938141 0.452722 0.367736
O O10 0.167973 0.393379 0.747000
#
# Coordination Sequence:
#
# PCOD9294171 Si02
#       5
#     8   8   8   8   8
#     4  10  23  39  62  94 137 168 229 271 326 399
#     4  10  24  47  65 101 131 180 217 284 331 406
#     4  11  22  37  66  97 134 177 219 273 335 388
#     4  10  25  43  70  97 138 168 231 272 342 398
#     4  11  22  38  65 101 134 173 220 284 325 401
#
# _framework density 26.895923
#
# number of rings (size 3 to 8) (size 9 to 14) (size 15 to 20)
#    0.000    1.600    2.000    1.200    8.400    2.400 
#    0.000    1.000    4.400    0.000    0.000    0.000 
#    0.000    0.000    0.000    0.000    0.000    0.000 
#
# Total GULP energy -111598.274252 kJ/mol
# GULP energy per Si atom -5579.913713 kJ/mol
# Density = 2.683471 g / cm^3
# Si number density = 26.895923 Si / 1000 Ang^3
#
#
#
# Elastic Constant Matrix: (Units=GPa)
#
#
# Indices 1 2 3 4 5 6 
#
# 1 121.9398 53.7729 46.9388 0.0000 -4.3943 0.0000
# 2 53.7729 115.4897 61.5917 0.0000 9.4575 0.0000
# 3 46.9388 61.5917 129.9691 0.0000 -11.5334 0.0000
# 4 0.0000 0.0000 0.0000 26.4784 0.0000 -7.3081
# 5 -4.3943 9.4575 -11.5334 0.0000 26.6683 0.0000
# 6 0.0000 0.0000 0.0000 -7.3081 0.0000 27.6524
#
#
#
# Elastic Compliance Matrix: (Units=1/GPa)
#
#
# Indices 1 2 3 4 5 6 
#
# 1 0.010861 -0.004431 -0.001586 0.000000 0.002675 0.000000
# 2 -0.004431 0.014691 -0.006124 0.000000 -0.008588 0.000000
# 3 -0.001586 -0.006124 0.011791 0.000000 0.007010 0.000000
# 4 0.000000 0.000000 0.000000 0.040738 0.000000 0.010767
# 5 0.002675 -0.008588 0.007010 0.000000 0.044016 0.000000
# 6 0.000000 0.000000 0.000000 0.010767 0.000000 0.039009
#
#
# Mechanical properties :
#
#
# Convention : Reuss Voigt Hill
#
# Bulk Modulus (GPa) = 76.55246 76.88949 76.72097
# Shear Modulus (GPa) = 26.35175 29.83283 28.09229
#
# Velocity S-wave (km/s) = 3.13352 3.33407 3.23535
# Velocity P-wave (km/s) = 6.45106 6.59327 6.52255
#
# Compressibility (1/GPa) = 0.01306294
#
# Stress axis : x y z
#
# Youngs Moduli (GPa) = 92.06995 68.06888 84.81071
#
# Poissons Ratio (x) = 0.30158 0.13447
# Poissons Ratio (y) = 0.40792 0.51938
# Poissons Ratio (z) = 0.14598 0.41685
#
# Static dielectric constant tensor:
#      x y z
#    x 2.118360 0.000000 -0.031510 
#    y 0.000000 2.162550 0.000000 
#    z -0.031510 0.000000 2.104950 
# 
# From -- ./inp_files/60024.got.cif
#   From: 2010.05.17/outbox.cif.g08.bks.cpg/sg15_31_cif.got.tgz:60024.got - 2010.06.03 18:47:42.
