data_PCOD9294972
_publ_section_title
;
Structure prediction by ZEFSAII (Michael W. Deem and Ramdas Pophale) SiO2 
 PCOD9294972
Probable space group: C 2/C
;
_chemical_formula_sum "Si O2"
_cell_formula_units_Z 40
_cell_length_a 17.621466
_cell_length_b 5.516073
_cell_length_c 19.069414
_cell_angle_alpha 90.000000
_cell_angle_beta 74.526445
_cell_angle_gamma 90.000000
_cell_volume 1786.386569
_symmetry_space_group_name_H-M "C 2/C"
_symmetry_group_IT_number 15
_symmetry_cell_setting 'monoclinic'
loop_
_space_group_symop_operation_xyz
x,y,z
-x,y,1/2-z
-x,-y,-z
x,-y,1/2+z
1/2+x,1/2+y,z
1/2-x,1/2+y,1/2-z
1/2-x,1/2-y,-z
1/2+x,1/2-y,1/2+z
loop_
_atom_site_type_symbol
_atom_site_label
_atom_site_fract_x
_atom_site_fract_y
_atom_site_fract_z
Si Si1 0.592654 0.753036 0.228398
Si Si2 0.160459 0.759499 0.152090
Si Si3 0.341551 0.171509 0.636828
Si Si4 0.441465 0.197015 0.047235
Si Si5 0.602515 0.405105 0.023155
O O1 0.500000 0.798779 0.250000
O O2 0.609968 0.493959 0.188403
O O3 0.624697 0.729986 0.299455
O O4 0.632523 0.993627 0.184102
O O5 0.248188 0.810574 0.157738
O O6 0.154262 0.782891 0.069482
O O7 0.372898 0.304322 0.559189
O O8 0.379650 0.904891 0.617625
O O9 0.393788 0.309618 0.993655
O O10 0.509312 0.367984 0.063037
O O11 0.500000 0.000000 0.000000
#
# Coordination Sequence:
#
# PCOD9294972 Si02
#       5
#     8   8   8   8   8
#     4  12  29  48  71  99 141 188 234 283 353 422
#     4  12  28  46  71 105 141 180 234 293 349 410
#     4  11  25  44  71 100 141 183 229 290 350 410
#     4   9  21  39  69 100 136 176 229 276 342 404
#     4  10  23  41  72 102 140 182 235 283 345 413
#
# _framework density 22.391567999999999
#
# number of rings (size 3 to 8) (size 9 to 14) (size 15 to 20)
#    0.000    1.200    0.000    3.600   19.600    0.800 
#    0.000    0.000    0.000    0.000    0.000    0.000 
#    0.000    0.000    0.000    0.000    0.000    0.000 
#
# Total GULP energy -111613.746269 kJ/mol
# GULP energy per Si atom -5580.687313 kJ/mol
# Density = 2.234060 g / cm^3
# Si number density = 22.391568 Si / 1000 Ang^3
#
#
#
# Elastic Constant Matrix: (Units=GPa)
#
#
# Indices 1 2 3 4 5 6 
#
# 1 80.9242 -9.2411 0.1677 0.0000 3.7990 0.0000
# 2 -9.2411 79.5756 25.1466 0.0000 -0.4508 -0.0001
# 3 0.1677 25.1466 76.7597 0.0000 29.2091 0.0000
# 4 0.0000 0.0000 0.0000 45.0845 0.0000 6.6956
# 5 3.7990 -0.4508 29.2091 0.0000 50.0773 0.0000
# 6 0.0000 -0.0001 0.0000 6.6956 0.0000 11.1946
#
#
#
# Elastic Compliance Matrix: (Units=1/GPa)
#
#
# Indices 1 2 3 4 5 6 
#
# 1 0.012570 0.001524 -0.000217 0.000000 -0.000813 0.000000
# 2 0.001524 0.014728 -0.006214 0.000000 0.003641 0.000000
# 3 -0.000217 -0.006214 0.019380 0.000000 -0.011344 0.000000
# 4 0.000000 0.000000 0.000000 0.024343 0.000000 -0.014560
# 5 -0.000813 0.003641 -0.011344 0.000000 0.026680 0.000000
# 6 0.000000 0.000000 0.000000 -0.014560 0.000000 0.098037
#
#
# Mechanical properties :
#
#
# Convention : Reuss Voigt Hill
#
# Bulk Modulus (GPa) = 27.12710 29.93400 28.53055
# Shear Modulus (GPa) = 22.95257 36.01704 29.48481
#
# Velocity S-wave (km/s) = 3.20512 4.01497 3.63269
# Velocity P-wave (km/s) = 5.08313 5.90684 5.51040
#
# Compressibility (1/GPa) = 0.03686351
#
# Stress axis : x y z
#
# Youngs Moduli (GPa) = 79.55527 67.89837 51.59861
#
# Poissons Ratio (x) = -0.10346 0.01121
# Poissons Ratio (y) = -0.12122 0.32063
# Poissons Ratio (z) = 0.01728 0.42191
#
# Static dielectric constant tensor:
#      x y z
#    x 1.819470 0.000000 0.022660 
#    y 0.000000 2.098630 0.000000 
#    z 0.022660 0.000000 1.843390 
# 
# From -- ./inp_files/246194.got.cif
#   From: 2010.05.17/outbox.cif.g08.bks.cpg/sg15_124_cif.got.tgz:246194.got - 2010.06.03 18:47:42.
