data_PCOD9294200
_publ_section_title
;
Structure prediction by ZEFSAII (Michael W. Deem and Ramdas Pophale) SiO2 
 PCOD9294200
Probable space group: C 2/C
;
_chemical_formula_sum "Si O2"
_cell_formula_units_Z 44
_cell_length_a 9.916742
_cell_length_b 13.926293
_cell_length_c 12.436229
_cell_angle_alpha 90.000000
_cell_angle_beta 90.240572
_cell_angle_gamma 90.000000
_cell_volume 1717.471049
_symmetry_space_group_name_H-M "C 2/C"
_symmetry_group_IT_number 15
_symmetry_cell_setting 'monoclinic'
loop_
_space_group_symop_operation_xyz
x,y,z
-x,y,1/2-z
-x,-y,-z
x,-y,1/2+z
1/2+x,1/2+y,z
1/2-x,1/2+y,1/2-z
1/2-x,1/2-y,-z
1/2+x,1/2-y,1/2+z
loop_
_atom_site_type_symbol
_atom_site_label
_atom_site_fract_x
_atom_site_fract_y
_atom_site_fract_z
Si Si1 0.601045 0.260490 0.045794
Si Si2 0.240044 0.868978 0.619189
Si Si3 0.233952 0.643386 0.637457
Si Si4 0.000000 0.651786 0.250000
Si Si5 0.533304 0.084126 0.915400
Si Si6 0.654863 0.562478 0.656296
O O1 0.580836 0.211655 0.161186
O O2 0.574134 0.371833 0.070809
O O3 0.750000 0.250000 0.000000
O O4 0.516421 0.191612 0.968258
O O5 0.221632 0.758122 0.651821
O O6 0.239965 0.873675 0.489192
O O7 0.381916 0.896584 0.679230
O O8 0.133445 0.948902 0.655485
O O9 0.342718 0.602948 0.722420
O O10 0.095322 0.586816 0.662876
O O11 0.689193 0.077858 0.883684
O O12 0.500000 0.000000 0.000000
#
# Coordination Sequence:
#
# PCOD9294200 Si02
#       6
#     8   8   8   4   8   8
#     4  10  23  39  63  99 132 166 221 272 326 389
#     4  11  25  40  66  95 127 176 220 269 332 398
#     4  11  23  40  62  97 130 161 226 275 321 394
#     4  12  20  44  68  90 132 178 210 274 334 390
#     4  11  21  40  65  97 125 167 219 274 326 389
#     4  11  23  39  64  94 130 170 214 274 336 383
#
# _framework density 25.619064000000002
#
# number of rings (size 3 to 8) (size 9 to 14) (size 15 to 20)
#    0.000    1.091    5.455    0.545    5.091    0.000 
#    0.000    0.909    4.000    0.000    0.000    0.000 
#    0.000    0.000    0.000    0.000    0.000    0.000 
#
# Total GULP energy -122826.499393 kJ/mol
# GULP energy per Si atom -5583.022700 kJ/mol
# Density = 2.556075 g / cm^3
# Si number density = 25.619064 Si / 1000 Ang^3
#
#
#
# Elastic Constant Matrix: (Units=GPa)
#
#
# Indices 1 2 3 4 5 6 
#
# 1 85.5161 -0.1619 26.8459 0.0000 -7.0153 0.0000
# 2 -0.1619 160.5326 34.5525 0.0000 13.6072 0.0000
# 3 26.8459 34.5525 69.3340 0.0000 1.5339 0.0000
# 4 0.0000 0.0000 0.0000 39.4919 0.0000 3.1371
# 5 -7.0153 13.6072 1.5339 0.0000 52.8999 0.0000
# 6 0.0000 0.0000 0.0000 3.1371 0.0000 31.2063
#
#
#
# Elastic Compliance Matrix: (Units=1/GPa)
#
#
# Indices 1 2 3 4 5 6 
#
# 1 0.013689 0.001142 -0.005907 0.000000 0.001693 0.000000
# 2 0.001142 0.007228 -0.004009 0.000000 -0.001592 0.000000
# 3 -0.005907 -0.004009 0.018714 0.000000 -0.000295 0.000000
# 4 0.000000 0.000000 0.000000 0.025525 0.000000 -0.002566
# 5 0.001693 -0.001592 -0.000295 0.000000 0.019546 0.000000
# 6 0.000000 0.000000 0.000000 -0.002566 0.000000 0.032303
#
#
# Mechanical properties :
#
#
# Convention : Reuss Voigt Hill
#
# Bulk Modulus (GPa) = 45.28275 48.65065 46.96670
# Shear Modulus (GPa) = 35.23225 41.66270 38.44748
#
# Velocity S-wave (km/s) = 3.71244 4.03704 3.87814
# Velocity P-wave (km/s) = 6.00750 6.38447 6.19885
#
# Compressibility (1/GPa) = 0.02208347
#
# Stress axis : x y z
#
# Youngs Moduli (GPa) = 73.05107 138.34686 53.43473
#
# Poissons Ratio (x) = -0.15794 0.31563
# Poissons Ratio (y) = -0.08340 0.21422
# Poissons Ratio (z) = 0.43150 0.55463
#
# Static dielectric constant tensor:
#      x y z
#    x 2.044340 0.000000 -0.007540 
#    y 0.000000 2.077350 0.000000 
#    z -0.007540 0.000000 2.007820 
# 
# From -- ./inp_files/86192.got.cif
#   From: 2010.05.17/outbox.cif.g08.bks.cpg/sg15_44_cif.got.tgz:86192.got - 2010.06.03 18:47:42.
