data_PCOD9294356
_publ_section_title
;
Structure prediction by ZEFSAII (Michael W. Deem and Ramdas Pophale) SiO2 
 PCOD9294356
Probable space group: C 2/C
;
_chemical_formula_sum "Si O2"
_cell_formula_units_Z 52
_cell_length_a 22.678506
_cell_length_b 7.434001
_cell_length_c 12.350282
_cell_angle_alpha 90.000000
_cell_angle_beta 119.628539
_cell_angle_gamma 90.000000
_cell_volume 1809.914356
_symmetry_space_group_name_H-M "C 2/C"
_symmetry_group_IT_number 15
_symmetry_cell_setting 'monoclinic'
loop_
_space_group_symop_operation_xyz
x,y,z
-x,y,1/2-z
-x,-y,-z
x,-y,1/2+z
1/2+x,1/2+y,z
1/2-x,1/2+y,1/2-z
1/2-x,1/2-y,-z
1/2+x,1/2-y,1/2+z
loop_
_atom_site_type_symbol
_atom_site_label
_atom_site_fract_x
_atom_site_fract_y
_atom_site_fract_z
Si Si1 0.413627 0.799981 0.856794
Si Si2 0.554062 0.249298 0.884514
Si Si3 0.139487 0.681745 0.642661
Si Si4 0.199953 0.910171 0.982848
Si Si5 0.290248 0.534569 0.756768
Si Si6 0.404001 0.158454 0.120503
Si Si7 0.750000 0.250000 0.500000
O O1 0.341367 0.704929 0.815134
O O2 0.435890 0.753394 0.755822
O O3 0.402994 0.017207 0.845473
O O4 0.459478 0.740918 0.999360
O O5 0.500000 0.315821 0.750000
O O6 0.624488 0.345181 0.924165
O O7 0.566764 0.038030 0.874307
O O8 0.166064 0.853051 0.732118
O O9 0.210537 0.586977 0.674568
O O10 0.098752 0.748620 0.499612
O O11 0.250000 0.750000 0.000000
O O12 0.217358 0.014842 0.111059
O O13 0.287715 0.571437 0.591364
O O14 0.323290 0.144288 0.073285
#
# Coordination Sequence:
#
# PCOD9294356 Si02
#       7
#     8   8   8   8   8   8   4
#     4  10  23  40  62  93 129 179 228 277 338 411
#     4  10  24  46  70  98 138 188 232 285 346 413
#     4  11  21  37  55  92 137 172 218 276 344 408
#     4  11  23  38  66 100 132 175 227 282 344 404
#     4  11  21  36  56  92 141 173 210 278 344 407
#     4  11  22  41  66 100 135 182 227 287 342 414
#     4  12  20  36  66 104 130 168 226 278 340 404
#
# _framework density 28.730640999999999
#
# number of rings (size 3 to 8) (size 9 to 14) (size 15 to 20)
#    0.000    1.231    4.615    1.846    0.000    1.846 
#    0.000    0.769    0.000    0.923    0.000    0.000 
#    0.000    0.000    0.000    0.000    0.000    0.000 
#
# Total GULP energy -145207.062821 kJ/mol
# GULP energy per Si atom -5584.887032 kJ/mol
# Density = 2.866525 g / cm^3
# Si number density = 28.730641 Si / 1000 Ang^3
#
#
#
# Elastic Constant Matrix: (Units=GPa)
#
#
# Indices 1 2 3 4 5 6 
#
# 1 114.5834 7.9678 44.7016 0.0000 7.0105 0.0000
# 2 7.9678 140.1695 14.3678 0.0000 25.7816 0.0000
# 3 44.7016 14.3678 218.1174 0.0000 10.8458 0.0000
# 4 0.0000 0.0000 0.0000 17.0798 0.0000 8.8293
# 5 7.0105 25.7816 10.8458 0.0000 30.1840 0.0000
# 6 0.0000 0.0000 0.0000 8.8293 0.0000 13.5492
#
#
#
# Elastic Compliance Matrix: (Units=1/GPa)
#
#
# Indices 1 2 3 4 5 6 
#
# 1 0.009557 -0.000079 -0.001880 0.000000 -0.001477 0.000000
# 2 -0.000079 0.008473 -0.000186 0.000000 -0.007152 0.000000
# 3 -0.001880 -0.000186 0.005043 0.000000 -0.001216 0.000000
# 4 0.000000 0.000000 0.000000 0.088290 0.000000 -0.057534
# 5 -0.001477 -0.007152 -0.001216 0.000000 0.040019 0.000000
# 6 0.000000 0.000000 0.000000 -0.057534 0.000000 0.111297
#
#
# Mechanical properties :
#
#
# Convention : Reuss Voigt Hill
#
# Bulk Modulus (GPa) = 53.24197 67.43830 60.34013
# Shear Modulus (GPa) = 18.29961 39.21813 28.75887
#
# Velocity S-wave (km/s) = 2.52650 3.69864 3.16726
# Velocity P-wave (km/s) = 5.20409 6.46246 5.86711
#
# Compressibility (1/GPa) = 0.01878218
#
# Stress axis : x y z
#
# Youngs Moduli (GPa) = 104.64081 118.01749 198.30603
#
# Poissons Ratio (x) = 0.00932 0.37280
# Poissons Ratio (y) = 0.00826 0.03695
# Poissons Ratio (z) = 0.19672 0.02199
#
# Static dielectric constant tensor:
#      x y z
#    x 2.004730 0.000000 0.198930 
#    y 0.000000 2.190440 0.000000 
#    z 0.198930 0.000000 2.063150 
# 
# From -- ./inp_files/97860.got.cif
#   From: 2010.05.17/outbox.cif.g08.bks.cpg/sg15_49_cif.got.tgz:97860.got - 2010.06.03 18:47:42.
