data_PCOD9294473
_publ_section_title
;
Structure prediction by ZEFSAII (Michael W. Deem and Ramdas Pophale) SiO2 
 PCOD9294473
Probable space group: C 2/C
;
_chemical_formula_sum "Si O2"
_cell_formula_units_Z 48
_cell_length_a 21.844791
_cell_length_b 8.374424
_cell_length_c 17.399592
_cell_angle_alpha 90.000000
_cell_angle_beta 44.475650
_cell_angle_gamma 90.000000
_cell_volume 2230.056186
_symmetry_space_group_name_H-M "C 2/C"
_symmetry_group_IT_number 15
_symmetry_cell_setting 'monoclinic'
loop_
_space_group_symop_operation_xyz
x,y,z
-x,y,1/2-z
-x,-y,-z
x,-y,1/2+z
1/2+x,1/2+y,z
1/2-x,1/2+y,1/2-z
1/2-x,1/2-y,-z
1/2+x,1/2-y,1/2+z
loop_
_atom_site_type_symbol
_atom_site_label
_atom_site_fract_x
_atom_site_fract_y
_atom_site_fract_z
Si Si1 0.017880 0.664978 0.941439
Si Si2 0.145202 0.866146 0.415010
Si Si3 0.256867 0.872700 0.064551
Si Si4 0.290977 0.706874 0.196514
Si Si5 0.434405 0.947110 0.360890
Si Si6 0.338725 0.349457 0.918699
O O1 0.118525 0.710569 0.859753
O O2 0.987030 0.621328 0.884612
O O3 0.000000 0.500000 0.000000
O O4 0.949808 0.804713 0.027196
O O5 0.215822 0.730602 0.327682
O O6 0.143135 0.897500 0.508720
O O7 0.183109 0.024285 0.341900
O O8 0.258017 0.784789 0.145513
O O9 0.179135 0.001582 0.120731
O O10 0.250000 0.750000 0.000000
O O11 0.349672 0.961633 0.967931
O O12 0.500000 0.049446 0.250000
O O13 0.405131 0.791012 0.338801
O O14 0.250000 0.250000 0.000000
#
# Coordination Sequence:
#
# PCOD9294473 Si02
#       6
#     8   8   8   8   8   8
#     4  11  23  43  65  95 135 167 224 272 324 402
#     4  11  25  42  66  98 130 177 222 271 334 397
#     4  11  22  42  65  93 132 166 216 271 322 398
#     4  12  25  41  68  97 132 176 219 274 340 387
#     4  10  23  40  66  93 125 173 213 267 330 386
#     4   9  21  40  64  88 126 163 217 259 320 391
#
# _framework density 21.524121000000001
#
# number of rings (size 3 to 8) (size 9 to 14) (size 15 to 20)
#    0.000    1.333    3.333    1.500    9.333    1.333 
#    0.000    0.833    0.000    0.000    0.000    0.000 
#    0.000    0.000    0.000    0.000    0.000    0.000 
#
# Total GULP energy -133980.308411 kJ/mol
# GULP energy per Si atom -5582.512850 kJ/mol
# Density = 2.147513 g / cm^3
# Si number density = 21.524121 Si / 1000 Ang^3
#
#
#
# Elastic Constant Matrix: (Units=GPa)
#
#
# Indices 1 2 3 4 5 6 
#
# 1 102.1296 20.9389 14.0461 0.0006 -7.5240 -0.0002
# 2 20.9389 57.9896 -3.0858 0.0019 15.5707 -0.0012
# 3 14.0461 -3.0858 75.7752 0.0007 -1.6587 -0.0005
# 4 0.0006 0.0019 0.0007 28.1604 -0.0005 1.1691
# 5 -7.5240 15.5707 -1.6587 -0.0005 19.5367 0.0002
# 6 -0.0002 -0.0012 -0.0005 1.1691 0.0002 40.9948
#
#
#
# Elastic Compliance Matrix: (Units=1/GPa)
#
#
# Indices 1 2 3 4 5 6 
#
# 1 0.012414 -0.007428 -0.002374 0.000000 0.010500 0.000000
# 2 -0.007428 0.026404 0.001933 -0.000002 -0.023741 0.000001
# 3 -0.002374 0.001933 0.013687 0.000000 -0.001292 0.000000
# 4 0.000000 -0.000002 0.000000 0.035553 0.000003 -0.001014
# 5 0.010500 -0.023741 -0.001292 0.000003 0.074041 -0.000001
# 6 0.000000 0.000001 0.000000 -0.001014 -0.000001 0.024422
#
#
# Mechanical properties :
#
#
# Convention : Reuss Voigt Hill
#
# Bulk Modulus (GPa) = 27.19849 33.29920 30.24884
# Shear Modulus (GPa) = 23.30817 31.33807 27.32312
#
# Velocity S-wave (km/s) = 3.29429 3.81983 3.56676
# Velocity P-wave (km/s) = 5.20899 5.91262 5.57192
#
# Compressibility (1/GPa) = 0.03676675
#
# Stress axis : x y z
#
# Youngs Moduli (GPa) = 80.55125 37.87287 73.06008
#
# Poissons Ratio (x) = 0.28133 0.17343
# Poissons Ratio (y) = 0.59835 -0.14119
# Poissons Ratio (z) = 0.19122 -0.07319
#
# Static dielectric constant tensor:
#      x y z
#    x 2.191760 -0.000050 -0.153390 
#    y -0.000050 2.077020 0.000030 
#    z -0.153390 0.000030 1.832530 
# 
# From -- ./inp_files/254787.got.cif
#   From: 2010.05.17/outbox.cif.g08.bks.cpg/sg15_128_cif.got.tgz:254787.got - 2010.06.03 18:47:42.
