data_PCOD9294601
_publ_section_title
;
Structure prediction by ZEFSAII (Michael W. Deem and Ramdas Pophale) SiO2 
 PCOD9294601
Probable space group: C 2/C
;
_chemical_formula_sum "Si O2"
_cell_formula_units_Z 52
_cell_length_a 11.078814
_cell_length_b 8.763898
_cell_length_c 19.975101
_cell_angle_alpha 90.000000
_cell_angle_beta 64.175127
_cell_angle_gamma 90.000000
_cell_volume 1745.760582
_symmetry_space_group_name_H-M "C 2/C"
_symmetry_group_IT_number 15
_symmetry_cell_setting 'monoclinic'
loop_
_space_group_symop_operation_xyz
x,y,z
-x,y,1/2-z
-x,-y,-z
x,-y,1/2+z
1/2+x,1/2+y,z
1/2-x,1/2+y,1/2-z
1/2-x,1/2-y,-z
1/2+x,1/2-y,1/2+z
loop_
_atom_site_type_symbol
_atom_site_label
_atom_site_fract_x
_atom_site_fract_y
_atom_site_fract_z
Si Si1 0.203123 0.715555 0.791302
Si Si2 0.457935 0.699458 0.975894
Si Si3 0.000000 0.544064 0.750000
Si Si4 0.716509 0.441367 0.476257
Si Si5 0.310810 0.675238 0.374665
Si Si6 0.429041 0.522097 0.682224
Si Si7 0.558204 0.048410 0.376046
O O1 0.348904 0.637790 0.750259
O O2 0.182871 0.893441 0.809409
O O3 0.304183 0.854330 0.651749
O O4 0.115008 0.623185 0.868182
O O5 0.573966 0.648295 0.998876
O O6 0.509893 0.615207 0.894724
O O7 0.462832 0.875251 0.953587
O O8 0.321240 0.615913 0.028682
O O9 0.121142 0.657632 0.744020
O O10 0.995289 0.440576 0.817307
O O11 0.747062 0.413255 0.545738
O O12 0.814427 0.346961 0.404060
O O13 0.446990 0.586421 0.326887
#
# Coordination Sequence:
#
# PCOD9294601 Si02
#       7
#     8   8   4   8   8   8   8
#     4  10  23  41  58  87 129 165 218 266 309 395
#     4   9  17  34  66  94 125 168 203 259 321 383
#     4   8  22  42  56  84 130 172 202 274 312 384
#     4   8  16  33  60 101 124 155 219 255 309 380
#     4   9  18  35  68  95 121 169 215 260 304 389
#     4  11  22  38  63  93 125 172 217 255 329 375
#     4   9  19  41  61  90 128 169 209 263 324 370
#
# _framework density 29.786443999999999
#
# number of rings (size 3 to 8) (size 9 to 14) (size 15 to 20)
#    0.923    1.846    0.000    0.923    0.000    4.308 
#    5.538    0.769    0.000   35.077    0.000    0.000 
#    0.000    0.000    0.000    0.000    0.000    0.000 
#
# Total GULP energy -145529.757203 kJ/mol
# GULP energy per Si atom -5597.298354 kJ/mol
# Density = 2.971865 g / cm^3
# Si number density = 29.786444 Si / 1000 Ang^3
#
#
#
# Elastic Constant Matrix: (Units=GPa)
#
#
# Indices 1 2 3 4 5 6 
#
# 1 151.9143 35.2854 45.9760 0.0000 -19.3096 0.0000
# 2 35.2854 161.8770 41.2597 0.0000 -18.1294 0.0000
# 3 45.9760 41.2597 109.6771 0.0000 -3.6016 0.0000
# 4 0.0000 0.0000 0.0000 54.8441 0.0000 -20.7058
# 5 -19.3096 -18.1294 -3.6016 0.0000 54.5223 0.0000
# 6 0.0000 0.0000 0.0000 -20.7058 0.0000 53.7436
#
#
#
# Elastic Compliance Matrix: (Units=1/GPa)
#
#
# Indices 1 2 3 4 5 6 
#
# 1 0.007955 -0.000704 -0.002991 0.000000 0.002385 0.000000
# 2 -0.000704 0.007145 -0.002328 0.000000 0.001973 0.000000
# 3 -0.002991 -0.002328 0.011211 0.000000 -0.001093 0.000000
# 4 0.000000 0.000000 0.000000 0.021337 0.000000 0.008221
# 5 0.002385 0.001973 -0.001093 0.000000 0.019770 0.000000
# 6 0.000000 0.000000 0.000000 0.008221 0.000000 0.021774
#
#
# Mechanical properties :
#
#
# Convention : Reuss Voigt Hill
#
# Bulk Modulus (GPa) = 70.10488 74.27898 72.19193
# Shear Modulus (GPa) = 47.17228 52.68514 49.92871
#
# Velocity S-wave (km/s) = 3.98387 4.21023 4.09861
# Velocity P-wave (km/s) = 6.68943 6.97324 6.83281
#
# Compressibility (1/GPa) = 0.01426434
#
# Stress axis : x y z
#
# Youngs Moduli (GPa) = 125.71076 139.95096 89.19427
#
# Poissons Ratio (x) = 0.09858 0.26681
# Poissons Ratio (y) = 0.08855 0.20764
# Poissons Ratio (z) = 0.37604 0.32580
#
# Static dielectric constant tensor:
#      x y z
#    x 2.340600 0.000000 0.042420 
#    y 0.000000 2.348020 0.000000 
#    z 0.042420 0.000000 2.377910 
# 
# From -- ./inp_files/272603.got.cif
#   From: 2010.05.17/outbox.cif.g08.bks.cpg/sg15_137_cif.got.tgz:272603.got - 2010.06.03 18:47:42.
