data_PCOD9294844
_publ_section_title
;
Structure prediction by ZEFSAII (Michael W. Deem and Ramdas Pophale) SiO2 
 PCOD9294844
Probable space group: C 2/C
;
_chemical_formula_sum "Si O2"
_cell_formula_units_Z 56
_cell_length_a 9.340516
_cell_length_b 29.755017
_cell_length_c 10.933114
_cell_angle_alpha 90.000000
_cell_angle_beta 104.265311
_cell_angle_gamma 90.000000
_cell_volume 2944.914653
_symmetry_space_group_name_H-M "C 2/C"
_symmetry_group_IT_number 15
_symmetry_cell_setting 'monoclinic'
loop_
_space_group_symop_operation_xyz
x,y,z
-x,y,1/2-z
-x,-y,-z
x,-y,1/2+z
1/2+x,1/2+y,z
1/2-x,1/2+y,1/2-z
1/2-x,1/2-y,-z
1/2+x,1/2-y,1/2+z
loop_
_atom_site_type_symbol
_atom_site_label
_atom_site_fract_x
_atom_site_fract_y
_atom_site_fract_z
Si Si1 0.193616 0.800997 0.971219
Si Si2 0.868480 0.622500 0.634566
Si Si3 0.336252 0.590251 0.691661
Si Si4 0.000000 0.248493 0.750000
Si Si5 0.112508 0.819596 0.456020
Si Si6 0.050326 0.551257 0.513409
Si Si7 0.000000 0.599375 0.250000
Si Si8 0.718768 0.179143 0.257277
O O1 0.163221 0.814008 0.824028
O O2 0.250000 0.750000 0.000000
O O3 0.316828 0.836412 0.041240
O O4 0.049993 0.812448 0.021302
O O5 0.736588 0.606439 0.695890
O O6 0.938254 0.581809 0.570689
O O7 0.000000 0.638573 0.750000
O O8 0.500000 0.571211 0.750000
O O9 0.359277 0.633189 0.606332
O O10 0.213312 0.558325 0.605011
O O11 0.888210 0.217762 0.650081
O O12 0.901091 0.283030 0.804753
O O13 0.223004 0.813737 0.592887
O O14 0.047127 0.570382 0.375826
O O15 0.000000 0.500000 0.500000
O O16 0.865040 0.631809 0.260226
#
# Coordination Sequence:
#
# PCOD9294844 Si02
#       8
#     8   8   8   4   8   8   4   8
#     4  12  23  41  58  92 136 176 228 273 325 397
#     4  10  23  41  67  95 132 175 221 274 333 403
#     4  11  22  43  71  97 132 175 219 276 342 405
#     4  11  22  38  58  86 126 176 234 268 313 400
#     4  12  22  40  61  90 129 178 225 279 331 387
#     4  11  25  45  75 103 129 171 225 281 347 427
#     4  11  22  42  68  94 134 168 216 278 343 408
#     4  11  24  39  59  91 131 177 220 276 334 386
#
# _framework density 19.015830999999999
#
# number of rings (size 3 to 8) (size 9 to 14) (size 15 to 20)
#    0.000    0.857    6.429    0.857    3.000    1.143 
#    2.571    0.714    3.143    0.000    0.000    0.000 
#    0.000    0.000    0.000    0.000    0.000    0.000 
#
# Total GULP energy -156270.970397 kJ/mol
# GULP energy per Si atom -5581.106086 kJ/mol
# Density = 1.897255 g / cm^3
# Si number density = 19.015831 Si / 1000 Ang^3
#
#
#
# Elastic Constant Matrix: (Units=GPa)
#
#
# Indices 1 2 3 4 5 6 
#
# 1 106.3720 48.7816 30.0618 0.0000 1.3473 0.0000
# 2 48.7816 140.1336 53.6764 0.0000 14.6238 0.0000
# 3 30.0618 53.6764 111.3557 0.0000 5.4176 0.0000
# 4 0.0000 0.0000 0.0000 12.2118 0.0000 8.8199
# 5 1.3473 14.6238 5.4176 0.0000 38.6891 0.0000
# 6 0.0000 0.0000 0.0000 8.8199 0.0000 22.5950
#
#
#
# Elastic Compliance Matrix: (Units=1/GPa)
#
#
# Indices 1 2 3 4 5 6 
#
# 1 0.011416 -0.003546 -0.001428 0.000000 0.001143 0.000000
# 2 -0.003546 0.010151 -0.003781 0.000000 -0.003184 0.000000
# 3 -0.001428 -0.003781 0.011193 0.000000 -0.000088 0.000000
# 4 0.000000 0.000000 0.000000 0.114039 0.000000 -0.044515
# 5 0.001143 -0.003184 -0.000088 0.000000 0.027023 0.000000
# 6 0.000000 0.000000 0.000000 -0.044515 0.000000 0.061634
#
#
# Mechanical properties :
#
#
# Convention : Reuss Voigt Hill
#
# Bulk Modulus (GPa) = 65.57648 69.21121 67.39385
# Shear Modulus (GPa) = 19.37611 29.72192 24.54902
#
# Velocity S-wave (km/s) = 3.19556 3.95778 3.59692
# Velocity P-wave (km/s) = 6.94086 7.57370 7.26418
#
# Compressibility (1/GPa) = 0.01524937
#
# Stress axis : x y z
#
# Youngs Moduli (GPa) = 87.59280 98.51225 89.34540
#
# Poissons Ratio (x) = 0.34936 0.12760
# Poissons Ratio (y) = 0.31064 0.33779
# Poissons Ratio (z) = 0.12510 0.37245
#
# Static dielectric constant tensor:
#      x y z
#    x 1.725440 0.000000 -0.047100 
#    y 0.000000 1.618600 0.000000 
#    z -0.047100 0.000000 1.717350 
# 
# From -- ./inp_files/81308.got.cif
#   From: 2010.05.17/outbox.cif.g08.bks.cpg/sg15_41_cif.got.tgz:81308.got - 2010.06.03 18:47:42.
