data_PCOD9294135
_publ_section_title
;
Structure prediction by ZEFSAII (Michael W. Deem and Ramdas Pophale) SiO2 
 PCOD9294135
Probable space group: C 2/C
;
_chemical_formula_sum "Si O2"
_cell_formula_units_Z 44
_cell_length_a 5.383124
_cell_length_b 27.130477
_cell_length_c 12.363296
_cell_angle_alpha 90.000000
_cell_angle_beta 106.323017
_cell_angle_gamma 90.000000
_cell_volume 1732.838806
_symmetry_space_group_name_H-M "C 2/C"
_symmetry_group_IT_number 15
_symmetry_cell_setting 'monoclinic'
loop_
_space_group_symop_operation_xyz
x,y,z
-x,y,1/2-z
-x,-y,-z
x,-y,1/2+z
1/2+x,1/2+y,z
1/2-x,1/2+y,1/2-z
1/2-x,1/2-y,-z
1/2+x,1/2-y,1/2+z
loop_
_atom_site_type_symbol
_atom_site_label
_atom_site_fract_x
_atom_site_fract_y
_atom_site_fract_z
Si Si1 0.927825 0.186912 0.522969
Si Si2 0.065617 0.575329 0.051690
Si Si3 0.500000 0.250265 0.250000
Si Si4 0.922349 0.091397 0.626297
Si Si5 0.700943 0.988841 0.373048
Si Si6 0.682189 0.818899 0.613697
O O1 0.024793 0.130543 0.553108
O O2 0.624850 0.187722 0.453833
O O3 0.944150 0.215817 0.638618
O O4 0.125787 0.202329 0.453541
O O5 0.878830 0.545223 0.111487
O O6 0.205201 0.621331 0.124615
O O7 0.879134 0.594218 0.932801
O O8 0.208468 0.534871 0.995990
O O9 0.290100 0.211793 0.272820
O O10 0.000000 0.111967 0.750000
O O11 0.037022 0.036690 0.636191
O O12 0.500000 0.974772 0.250000
#
# Coordination Sequence:
#
# PCOD9294135 Si02
#       6
#     8   8   4   8   8   8
#     4  11  25  45  69 103 133 178 233 284 333 414
#     4  10  23  39  60  92 130 171 214 280 330 407
#     4  12  26  46  74 102 140 184 226 288 352 404
#     4  11  20  39  62  92 125 173 225 277 335 396
#     4  11  21  37  64  90 127 167 226 266 341 394
#     4  11  26  46  70 100 142 176 229 281 348 405
#
# _framework density 25.391862
#
# number of rings (size 3 to 8) (size 9 to 14) (size 15 to 20)
#    0.000    1.091    4.545    1.636    1.273    2.909 
#    0.000    0.000    0.000    0.000    0.000    0.000 
#    0.000    0.000    0.000    0.000    0.000    0.000 
#
# Total GULP energy -122498.339501 kJ/mol
# GULP energy per Si atom -5568.106341 kJ/mol
# Density = 2.533407 g / cm^3
# Si number density = 25.391862 Si / 1000 Ang^3
#
#
#
# Elastic Constant Matrix: (Units=GPa)
#
#
# Indices 1 2 3 4 5 6 
#
# 1 110.1354 20.8332 60.7693 0.0000 -17.4026 0.0000
# 2 20.8332 135.7119 48.8618 0.0000 -6.6786 0.0000
# 3 60.7693 48.8618 117.2229 0.0000 -12.2867 0.0000
# 4 0.0000 0.0000 0.0000 -5.0398 0.0000 -9.0984
# 5 -17.4026 -6.6786 -12.2867 0.0000 45.2117 0.0000
# 6 0.0000 0.0000 0.0000 -9.0984 0.0000 -4.9762
#
#
#
# Elastic Compliance Matrix: (Units=1/GPa)
#
#
# Indices 1 2 3 4 5 6 
#
# 1 0.013218 0.000560 -0.006736 0.000000 0.003340 0.000000
# 2 0.000560 0.008698 -0.003869 0.000000 0.000449 0.000000
# 3 -0.006736 -0.003869 0.013694 0.000000 0.000557 0.000000
# 4 0.000000 0.000000 0.000000 0.086239 0.000000 -0.157679
# 5 0.003340 0.000449 0.000557 0.000000 0.023622 0.000000
# 6 0.000000 0.000000 0.000000 -0.157679 0.000000 0.087342
#
#
# Mechanical properties :
#
#
# Convention : Reuss Voigt Hill
#
# Bulk Modulus (GPa) = 64.42955 69.33322 66.88139
# Shear Modulus (GPa) = 19.37429 22.54620 20.96025
#
# Velocity S-wave (km/s) = 2.76526 2.98305 2.87622
# Velocity P-wave (km/s) = 5.96865 6.26333 6.11777
#
# Compressibility (1/GPa) = 0.01552083
#
# Stress axis : x y z
#
# Youngs Moduli (GPa) = 75.65341 114.97471 73.02588
#
# Poissons Ratio (x) = -0.06444 0.49190
# Poissons Ratio (y) = -0.04240 0.28253
# Poissons Ratio (z) = 0.50960 0.44482
#
# Static dielectric constant tensor:
#      x y z
#    x 2.138250 0.000000 -0.025750 
#    y 0.000000 2.194010 0.000000 
#    z -0.025750 0.000000 2.024560 
# 
# From -- ./inp_files/73853.got.cif
#   From: 2010.05.17/outbox.cif.g08.bks.cpg/sg15_37_cif.got.tgz:73853.got - 2010.06.03 18:47:42.
