data_PCOD9294110
_publ_section_title
;
Structure prediction by ZEFSAII (Michael W. Deem and Ramdas Pophale) SiO2 
 PCOD9294110
Probable space group: C 2/C
;
_chemical_formula_sum "Si O2"
_cell_formula_units_Z 56
_cell_length_a 8.549247
_cell_length_b 18.178482
_cell_length_c 28.418311
_cell_angle_alpha 90.000000
_cell_angle_beta 32.844700
_cell_angle_gamma 90.000000
_cell_volume 2395.380202
_symmetry_space_group_name_H-M "C 2/C"
_symmetry_group_IT_number 15
_symmetry_cell_setting 'monoclinic'
loop_
_space_group_symop_operation_xyz
x,y,z
-x,y,1/2-z
-x,-y,-z
x,-y,1/2+z
1/2+x,1/2+y,z
1/2-x,1/2+y,1/2-z
1/2-x,1/2-y,-z
1/2+x,1/2-y,1/2+z
loop_
_atom_site_type_symbol
_atom_site_label
_atom_site_fract_x
_atom_site_fract_y
_atom_site_fract_z
Si Si1 0.340211 0.707637 0.747077
Si Si2 0.599215 0.561769 0.654741
Si Si3 0.294375 0.902207 0.611616
Si Si4 0.699395 0.673859 0.930056
Si Si5 0.265632 0.385058 0.982751
Si Si6 0.314459 0.751083 0.655178
Si Si7 0.543296 0.545362 0.559894
O O1 0.500000 0.743756 0.750000
O O2 0.399274 0.620287 0.730360
O O3 0.465533 0.740124 0.666940
O O4 0.005707 0.711775 0.843855
O O5 0.611042 0.476405 0.666278
O O6 0.494759 0.562857 0.626981
O O7 0.927220 0.593015 0.575875
O O8 0.225084 0.873498 0.575945
O O9 0.263254 0.835009 0.654595
O O10 0.626660 0.928244 0.530996
O O11 0.645623 0.673210 0.999417
O O12 0.535677 0.712934 0.927575
O O13 0.668749 0.589199 0.920774
O O14 0.455074 0.457789 0.944900
O O15 0.000000 0.717428 0.750000
#
# Coordination Sequence:
#
# PCOD9294110 Si02
#       7
#     8   8   8   8   8   8   8
#     4  11  21  37  60  83 110 157 207 245 279 351
#     4   9  17  36  59  86 107 146 199 233 283 340
#     4   9  20  38  59  82 119 151 186 238 294 354
#     4  11  20  33  57  86 119 149 193 238 291 342
#     4   9  18  34  57  86 116 147 186 240 287 340
#     4  10  23  39  55  83 118 155 191 243 290 346
#     4   9  18  34  57  86 118 144 187 247 288 337
#
# _framework density 23.378333000000001
#
# number of rings (size 3 to 8) (size 9 to 14) (size 15 to 20)
#    0.000    2.286    2.857    2.143    0.000    1.714 
#    0.000    2.857    0.000    0.000    0.000    0.000 
#    0.000    0.000    0.000    0.000    0.000    0.000 
#
# Total GULP energy -156096.730975 kJ/mol
# GULP energy per Si atom -5574.883249 kJ/mol
# Density = 2.332512 g / cm^3
# Si number density = 23.378333 Si / 1000 Ang^3
#
#
#
# Elastic Constant Matrix: (Units=GPa)
#
#
# Indices 1 2 3 4 5 6 
#
# 1 110.6389 32.9307 30.3321 -0.0657 41.7503 -0.1058
# 2 32.9307 90.8545 29.6632 0.0412 24.4067 -0.0718
# 3 30.3321 29.6632 39.8227 -0.0902 23.3386 -0.1602
# 4 -0.0657 0.0412 -0.0902 14.5419 0.1170 -16.3555
# 5 41.7503 24.4067 23.3386 0.1170 43.7453 0.1382
# 6 -0.1058 -0.0718 -0.1602 -16.3555 0.1382 -2.6228
#
#
#
# Elastic Compliance Matrix: (Units=1/GPa)
#
#
# Indices 1 2 3 4 5 6 
#
# 1 0.014687 -0.001037 -0.003696 -0.000115 -0.011466 -0.000226
# 2 -0.001037 0.014972 -0.008797 -0.000006 -0.002671 0.000066
# 3 -0.003696 -0.008797 0.042964 -0.000372 -0.014483 -0.000678
# 4 -0.000115 -0.000006 -0.000372 0.008588 0.000458 -0.053500
# 5 -0.011466 -0.002671 -0.014483 0.000458 0.043015 0.000834
# 6 -0.000226 0.000066 -0.000678 -0.053500 0.000834 -0.047557
#
#
# Mechanical properties :
#
#
# Convention : Reuss Voigt Hill
#
# Bulk Modulus (GPa) = 21.94785 47.46311 34.70548
# Shear Modulus (GPa) = 42.04655 21.02555 31.53605
#
# Velocity S-wave (km/s) = 4.24550 3.00219 3.67678
# Velocity P-wave (km/s) = 5.78281 5.68892 5.73606
#
# Compressibility (1/GPa) = 0.04556255
#
# Stress axis : x y z
#
# Youngs Moduli (GPa) = 68.08964 66.79083 23.27541
#
# Poissons Ratio (x) = 0.06924 0.08602
# Poissons Ratio (y) = 0.07058 0.20476
# Poissons Ratio (z) = 0.25165 0.58759
#
# Static dielectric constant tensor:
#      x y z
#    x 2.065600 0.000000 0.025290 
#    y 0.000000 1.909120 -0.000010 
#    z 0.025290 -0.000010 1.870600 
# 
# From -- ./inp_files/191589.got.cif
#   From: 2010.05.17/outbox.cif.g08.bks.cpg/sg15_96_cif.got.tgz:191589.got - 2010.06.03 18:47:42.
