data_PCOD9294733
_publ_section_title
;
Structure prediction by ZEFSAII (Michael W. Deem and Ramdas Pophale) SiO2 
 PCOD9294733
Probable space group: C 2/C
;
_chemical_formula_sum "Si O2"
_cell_formula_units_Z 56
_cell_length_a 8.086551
_cell_length_b 23.981950
_cell_length_c 16.452101
_cell_angle_alpha 90.000000
_cell_angle_beta 121.091544
_cell_angle_gamma 90.000000
_cell_volume 2732.229010
_symmetry_space_group_name_H-M "C 2/C"
_symmetry_group_IT_number 15
_symmetry_cell_setting 'monoclinic'
loop_
_space_group_symop_operation_xyz
x,y,z
-x,y,1/2-z
-x,-y,-z
x,-y,1/2+z
1/2+x,1/2+y,z
1/2-x,1/2+y,1/2-z
1/2-x,1/2-y,-z
1/2+x,1/2-y,1/2+z
loop_
_atom_site_type_symbol
_atom_site_label
_atom_site_fract_x
_atom_site_fract_y
_atom_site_fract_z
Si Si1 0.212623 0.457526 0.762412
Si Si2 0.557408 0.619922 0.417300
Si Si3 0.450618 0.675126 0.907375
Si Si4 0.581742 0.058473 0.049809
Si Si5 0.304140 0.088672 0.751774
Si Si6 0.160425 0.353149 0.062302
Si Si7 0.715615 0.782156 0.574233
O O1 0.379035 0.419214 0.845121
O O2 0.187925 0.441300 0.662388
O O3 0.258420 0.523879 0.768609
O O4 0.000000 0.451528 0.750000
O O5 0.523114 0.650850 0.494671
O O6 0.755365 0.582814 0.470409
O O7 0.618857 0.671215 0.372594
O O8 0.348058 0.626677 0.832043
O O9 0.653971 0.681515 0.914650
O O10 0.328194 0.732438 0.874386
O O11 0.388650 0.095379 0.008968
O O12 0.500000 0.000000 0.000000
O O13 0.500000 0.092337 0.750000
O O14 0.331294 0.116650 0.847663
O O15 0.978946 0.314719 0.997132
O O16 0.750000 0.750000 0.500000
#
# Coordination Sequence:
#
# PCOD9294733 Si02
#       7
#     8   8   8   8   8   8   8
#     4  11  24  40  63  97 135 171 216 270 325 395
#     4  10  23  41  65  92 128 171 215 264 331 388
#     4  11  23  40  66  95 127 168 220 271 325 382
#     4  11  22  39  63  89 131 172 210 257 323 389
#     4  11  23  39  62  94 133 171 216 262 326 395
#     4  11  22  40  64  96 128 166 220 268 320 389
#     4   9  20  42  66  87 122 168 213 267 325 382
#
# _framework density 20.496085000000001
#
# number of rings (size 3 to 8) (size 9 to 14) (size 15 to 20)
#    0.000    1.429    1.429    4.714    4.000    1.714 
#    0.000   12.857    0.000    0.000    0.000    0.000 
#    0.000    0.000    0.000    0.000    0.000    0.000 
#
# Total GULP energy -156053.132046 kJ/mol
# GULP energy per Si atom -5573.326145 kJ/mol
# Density = 2.044943 g / cm^3
# Si number density = 20.496085 Si / 1000 Ang^3
#
#
#
# Elastic Constant Matrix: (Units=GPa)
#
#
# Indices 1 2 3 4 5 6 
#
# 1 52.1597 -22.1224 -11.4231 0.0000 -15.8579 0.0000
# 2 -22.1224 -34.6160 -35.3773 0.0000 -45.6176 0.0000
# 3 -11.4231 -35.3773 55.5875 0.0000 -20.2773 0.0000
# 4 0.0000 0.0000 0.0000 77.7844 0.0000 14.0699
# 5 -15.8579 -45.6176 -20.2773 0.0000 6.4492 0.0000
# 6 0.0000 0.0000 0.0000 14.0699 0.0000 18.4772
#
#
#
# Elastic Compliance Matrix: (Units=1/GPa)
#
#
# Indices 1 2 3 4 5 6 
#
# 1 0.015820 -0.005369 -0.001153 0.000000 -0.002704 0.000000
# 2 -0.005369 0.002104 -0.005763 0.000000 -0.016444 0.000000
# 3 -0.001153 -0.005763 0.012381 0.000000 -0.004670 0.000000
# 4 0.000000 0.000000 0.000000 0.014910 0.000000 -0.011353
# 5 -0.002704 -0.016444 -0.004670 0.000000 0.017411 0.000000
# 6 0.000000 0.000000 0.000000 -0.011353 0.000000 0.062766
#
#
# Mechanical properties :
#
#
# Convention : Reuss Voigt Hill
#
# Bulk Modulus (GPa) = 174.37230 -7.19046 83.59092
# Shear Modulus (GPa) = 32.92209 30.01243 31.46726
#
# Velocity S-wave (km/s) = 4.01217 3.83077 3.92252
# Velocity P-wave (km/s) = 10.33073 4.00632 7.83500
#
# Compressibility (1/GPa) = 0.00573486
#
# Stress axis : x y z
#
# Youngs Moduli (GPa) = 63.21058 475.38985 80.76571
#
# Poissons Ratio (x) = 2.55258 0.09308
# Poissons Ratio (y) = 0.33941 0.46547
# Poissons Ratio (z) = 0.07285 2.73976
#
# Static dielectric constant tensor:
#      x y z
#    x 1.762720 0.000000 -0.010400 
#    y 0.000000 1.749950 0.000000 
#    z -0.010400 0.000000 1.735990 
# 
# From -- ./inp_files/137479.got.cif
#   From: 2010.05.17/outbox.cif.g08.bks.cpg/sg15_69_cif.got.tgz:137479.got - 2010.06.03 18:47:42.
