data_PCOD9294186
_publ_section_title
;
Structure prediction by ZEFSAII (Michael W. Deem and Ramdas Pophale) SiO2 
 PCOD9294186
Probable space group: C 2/C
;
_chemical_formula_sum "Si O2"
_cell_formula_units_Z 52
_cell_length_a 8.718940
_cell_length_b 25.763084
_cell_length_c 12.040475
_cell_angle_alpha 90.000000
_cell_angle_beta 117.013261
_cell_angle_gamma 90.000000
_cell_volume 2409.543730
_symmetry_space_group_name_H-M "C 2/C"
_symmetry_group_IT_number 15
_symmetry_cell_setting 'monoclinic'
loop_
_space_group_symop_operation_xyz
x,y,z
-x,y,1/2-z
-x,-y,-z
x,-y,1/2+z
1/2+x,1/2+y,z
1/2-x,1/2+y,1/2-z
1/2-x,1/2-y,-z
1/2+x,1/2-y,1/2+z
loop_
_atom_site_type_symbol
_atom_site_label
_atom_site_fract_x
_atom_site_fract_y
_atom_site_fract_z
Si Si1 0.166101 0.002579 0.633207
Si Si2 0.810151 0.364207 0.868944
Si Si3 0.000000 0.925988 0.750000
Si Si4 0.911498 0.455129 0.541815
Si Si5 0.896226 0.692637 0.935507
Si Si6 0.306677 0.399461 0.210407
Si Si7 0.803591 0.705262 0.157224
O O1 0.116705 0.963718 0.715486
O O2 0.329656 0.980198 0.623171
O O3 0.197604 0.060273 0.689577
O O4 0.000000 0.000000 0.500000
O O5 0.636811 0.389717 0.858622
O O6 0.953141 0.408835 0.898614
O O7 0.769735 0.339433 0.735617
O O8 0.904641 0.321140 0.975948
O O9 0.000000 0.500000 0.500000
O O10 0.757385 0.432351 0.416701
O O11 0.817629 0.649891 0.827360
O O12 0.836531 0.749359 0.878693
O O13 0.810600 0.687044 0.031350
O O14 0.500000 0.381863 0.250000
O O15 0.000000 0.724162 0.250000
#
# Coordination Sequence:
#
# PCOD9294186 Si02
#       7
#     8   8   4   8   8   8   8
#     4  12  23  40  62  91 133 175 218 260 323 394
#     4  10  23  39  63  93 124 171 218 268 333 393
#     4  12  26  40  60  94 132 176 220 260 326 412
#     4  11  24  42  64  93 131 171 224 269 315 391
#     4   9  20  36  63  94 126 155 221 272 325 387
#     4  11  21  37  57  94 127 165 211 261 321 382
#     4   9  18  37  64  95 123 163 212 276 333 391
#
# _framework density 21.580849000000001
#
# number of rings (size 3 to 8) (size 9 to 14) (size 15 to 20)
#    0.000    1.538    2.308    2.308    8.615    1.846 
#    0.000    0.769    0.000    3.692    0.000    0.000 
#    0.000    0.000    0.000    0.000    0.000    0.000 
#
# Total GULP energy -145327.543047 kJ/mol
# GULP energy per Si atom -5589.520886 kJ/mol
# Density = 2.153173 g / cm^3
# Si number density = 21.580849 Si / 1000 Ang^3
#
#
#
# Elastic Constant Matrix: (Units=GPa)
#
#
# Indices 1 2 3 4 5 6 
#
# 1 71.8295 19.5486 6.7213 0.0000 6.3594 0.0000
# 2 19.5486 106.3755 36.2094 0.0000 -2.2210 0.0000
# 3 6.7213 36.2094 86.2738 0.0000 11.0822 0.0000
# 4 0.0000 0.0000 0.0000 51.3446 0.0000 10.3244
# 5 6.3594 -2.2210 11.0822 0.0000 25.7870 0.0000
# 6 0.0000 0.0000 0.0000 10.3244 0.0000 15.9064
#
#
#
# Elastic Compliance Matrix: (Units=1/GPa)
#
#
# Indices 1 2 3 4 5 6 
#
# 1 0.015078 -0.003088 0.000670 0.000000 -0.004272 0.000000
# 2 -0.003088 0.011838 -0.005246 0.000000 0.004036 0.000000
# 3 0.000670 -0.005246 0.014627 0.000000 -0.006903 0.000000
# 4 0.000000 0.000000 0.000000 0.022400 0.000000 -0.014539
# 5 -0.004272 0.004036 -0.006903 0.000000 0.043147 0.000000
# 6 0.000000 0.000000 0.000000 -0.014539 0.000000 0.072305
#
#
# Mechanical properties :
#
#
# Convention : Reuss Voigt Hill
#
# Bulk Modulus (GPa) = 38.14616 43.27083 40.70850
# Shear Modulus (GPa) = 24.57455 32.07424 28.32439
#
# Velocity S-wave (km/s) = 3.37815 3.85936 3.62674
# Velocity P-wave (km/s) = 5.73848 6.32089 6.03671
#
# Compressibility (1/GPa) = 0.02621496
#
# Stress axis : x y z
#
# Youngs Moduli (GPa) = 66.32243 84.47169 68.36442
#
# Poissons Ratio (x) = 0.26087 -0.04582
# Poissons Ratio (y) = 0.20482 0.35867
# Poissons Ratio (z) = -0.04446 0.44317
#
# Static dielectric constant tensor:
#      x y z
#    x 1.767870 0.000000 0.011870 
#    y 0.000000 1.799910 0.000000 
#    z 0.011870 0.000000 1.849250 
# 
# From -- ./inp_files/148405.got.cif
#   From: 2010.05.17/outbox.cif.g08.bks.cpg/sg15_75_cif.got.tgz:148405.got - 2010.06.03 18:47:42.
