data_PCOD9294034
_publ_section_title
;
Structure prediction by ZEFSAII (Michael W. Deem and Ramdas Pophale) SiO2 
 PCOD9294034
Probable space group: C 2/C
;
_chemical_formula_sum "Si O2"
_cell_formula_units_Z 40
_cell_length_a 7.391063
_cell_length_b 31.179969
_cell_length_c 8.234357
_cell_angle_alpha 90.000000
_cell_angle_beta 77.214052
_cell_angle_gamma 90.000000
_cell_volume 1850.578865
_symmetry_space_group_name_H-M "C 2/C"
_symmetry_group_IT_number 15
_symmetry_cell_setting 'monoclinic'
loop_
_space_group_symop_operation_xyz
x,y,z
-x,y,1/2-z
-x,-y,-z
x,-y,1/2+z
1/2+x,1/2+y,z
1/2-x,1/2+y,1/2-z
1/2-x,1/2-y,-z
1/2+x,1/2-y,1/2+z
loop_
_atom_site_type_symbol
_atom_site_label
_atom_site_fract_x
_atom_site_fract_y
_atom_site_fract_z
Si Si1 0.000000 0.604480 0.750000
Si Si2 0.790241 0.913480 0.727524
Si Si3 0.744012 0.179633 0.684225
Si Si4 0.000000 0.755995 0.750000
Si Si5 0.155150 0.824059 0.966257
Si Si6 0.940282 0.451451 0.985628
O O1 0.862257 0.638132 0.858102
O O2 0.886381 0.573240 0.658351
O O3 0.780442 0.866047 0.646650
O O4 0.621151 0.925045 0.883716
O O5 0.733312 0.947001 0.598675
O O6 0.000000 0.918388 0.750000
O O7 0.644913 0.222484 0.641792
O O8 0.734575 0.181493 0.885068
O O9 0.948203 0.172871 0.578627
O O10 0.874474 0.785156 0.655192
O O11 0.000000 0.500000 0.000000
#
# Coordination Sequence:
#
# PCOD9294034 Si02
#       6
#     4   8   8   4   8   8
#     4  11  20  40  64  90 132 176 210 276 346 393
#     4  11  23  44  70 101 132 181 222 271 344 400
#     4  10  23  38  61  94 132 173 223 272 334 387
#     4  11  22  38  64  94 130 178 222 284 328 387
#     4  11  21  41  61  93 132 169 227 271 323 408
#     4  11  25  45  69 102 137 169 225 282 341 413
#
# _framework density 21.614857000000001
#
# number of rings (size 3 to 8) (size 9 to 14) (size 15 to 20)
#    0.000    1.200    3.000    3.600    0.000    0.800 
#    0.000    4.000    0.000    0.000    0.000    0.000 
#    0.000    0.000    0.000    0.000    0.000    0.000 
#
# Total GULP energy -111417.809167 kJ/mol
# GULP energy per Si atom -5570.890458 kJ/mol
# Density = 2.156566 g / cm^3
# Si number density = 21.614857 Si / 1000 Ang^3
#
#
#
# Elastic Constant Matrix: (Units=GPa)
#
#
# Indices 1 2 3 4 5 6 
#
# 1 95.2111 33.6029 7.5530 0.0000 8.8942 0.0000
# 2 33.6029 176.9266 46.6385 0.0000 7.6960 0.0000
# 3 7.5530 46.6385 45.5330 0.0000 6.2326 0.0000
# 4 0.0000 0.0000 0.0000 4.8235 0.0000 14.3569
# 5 8.8942 7.6960 6.2326 0.0000 32.9696 0.0000
# 6 0.0000 0.0000 0.0000 14.3569 0.0000 34.8780
#
#
#
# Elastic Compliance Matrix: (Units=1/GPa)
#
#
# Indices 1 2 3 4 5 6 
#
# 1 0.011497 -0.002275 0.000795 0.000000 -0.002721 0.000000
# 2 -0.002275 0.008196 -0.008048 0.000000 0.000222 0.000000
# 3 0.000795 -0.008048 0.030639 0.000000 -0.004128 0.000000
# 4 0.000000 0.000000 0.000000 -0.920611 0.000000 0.378952
# 5 -0.002721 0.000222 -0.004128 0.000000 0.031794 0.000000
# 6 0.000000 0.000000 0.000000 0.378952 0.000000 -0.127317
#
#
# Mechanical properties :
#
#
# Convention : Reuss Voigt Hill
#
# Bulk Modulus (GPa) = 31.97277 54.80663 43.38970
# Shear Modulus (GPa) = -5.34004 29.85930 12.25963
#
# Velocity S-wave (km/s) = -1.57350 3.72078 2.38415
# Velocity P-wave (km/s) = 3.39455 6.62345 5.26274
#
# Compressibility (1/GPa) = 0.03127661
#
# Stress axis : x y z
#
# Youngs Moduli (GPa) = 86.97979 122.01157 32.63860
#
# Poissons Ratio (x) = 0.27756 -0.02596
# Poissons Ratio (y) = 0.19787 0.26267
# Poissons Ratio (z) = -0.06919 0.98194
#
# Static dielectric constant tensor:
#      x y z
#    x 1.819450 0.000000 0.059800 
#    y 0.000000 1.746510 0.000000 
#    z 0.059800 0.000000 1.811680 
# 
# From -- ./inp_files/25062.got.cif
#   From: 2010.05.17/outbox.cif.g08.bks.cpg/sg15_13_cif.got.tgz:25062.got - 2010.06.03 18:47:42.
