data_PCOD9294092
_publ_section_title
;
Structure prediction by ZEFSAII (Michael W. Deem and Ramdas Pophale) SiO2 
 PCOD9294092
Probable space group: C 2/C
;
_chemical_formula_sum "Si O2"
_cell_formula_units_Z 56
_cell_length_a 12.084631
_cell_length_b 29.879333
_cell_length_c 14.336235
_cell_angle_alpha 90.000000
_cell_angle_beta 30.310941
_cell_angle_gamma 90.000000
_cell_volume 2612.559814
_symmetry_space_group_name_H-M "C 2/C"
_symmetry_group_IT_number 15
_symmetry_cell_setting 'monoclinic'
loop_
_space_group_symop_operation_xyz
x,y,z
-x,y,1/2-z
-x,-y,-z
x,-y,1/2+z
1/2+x,1/2+y,z
1/2-x,1/2+y,1/2-z
1/2-x,1/2-y,-z
1/2+x,1/2-y,1/2+z
loop_
_atom_site_type_symbol
_atom_site_label
_atom_site_fract_x
_atom_site_fract_y
_atom_site_fract_z
Si Si1 0.875882 0.299976 0.600472
Si Si2 0.609471 0.066821 0.915335
Si Si3 0.082697 0.196079 0.966872
Si Si4 0.762655 0.144555 0.471784
Si Si5 0.194303 0.840125 0.181388
Si Si6 0.284403 0.055093 0.874385
Si Si7 0.644708 0.474382 0.737236
O O1 0.666236 0.310357 0.816238
O O2 0.879511 0.332852 0.506971
O O3 0.862462 0.248458 0.580647
O O4 0.103881 0.307231 0.486583
O O5 0.702927 0.110162 0.897598
O O6 0.673666 0.070908 0.760366
O O7 0.732745 0.021852 0.858989
O O8 0.345652 0.059683 0.111182
O O9 0.227244 0.176276 0.945522
O O10 0.116871 0.172247 0.842758
O O11 0.718694 0.096618 0.550956
O O12 0.000000 0.142094 0.250000
O O13 0.000000 0.835521 0.250000
O O14 0.500000 0.027225 0.750000
O O15 0.050964 0.030835 0.046539
O O16 0.500000 0.467284 0.750000
#
# Coordination Sequence:
#
# PCOD9294092 Si02
#       7
#     8   8   8   8   8   8   8
#     4  11  24  43  66 102 134 180 227 284 353 408
#     4  11  25  45  68  96 136 180 227 286 344 408
#     4  11  23  44  67 100 138 175 230 288 346 416
#     4  10  23  38  68 103 142 175 218 286 349 418
#     4  12  27  46  68  94 135 189 238 285 341 412
#     4  12  22  38  66 101 137 178 221 272 354 414
#     4  11  24  43  69 101 133 174 229 286 341 417
#
# _framework density 21.434916000000001
#
# number of rings (size 3 to 8) (size 9 to 14) (size 15 to 20)
#    0.000    0.857    4.286    2.571    4.000    1.143 
#    0.000    0.000    0.000    0.000    0.000    0.000 
#    0.000    0.000    0.000    0.000    0.000    0.000 
#
# Total GULP energy -156483.084500 kJ/mol
# GULP energy per Si atom -5588.681589 kJ/mol
# Density = 2.138613 g / cm^3
# Si number density = 21.434916 Si / 1000 Ang^3
#
#
#
# Elastic Constant Matrix: (Units=GPa)
#
#
# Indices 1 2 3 4 5 6 
#
# 1 98.3089 28.3486 46.3497 0.0000 -27.8412 0.0000
# 2 28.3486 80.5926 22.7680 0.0000 -11.0425 0.0000
# 3 46.3497 22.7680 143.8042 0.0000 -21.3784 -0.0001
# 4 0.0000 0.0000 0.0000 22.1053 0.0000 12.0602
# 5 -27.8412 -11.0425 -21.3784 0.0000 36.5532 0.0001
# 6 0.0000 0.0000 -0.0001 12.0602 0.0001 1.6910
#
#
#
# Elastic Compliance Matrix: (Units=1/GPa)
#
#
# Indices 1 2 3 4 5 6 
#
# 1 0.014986 -0.003228 -0.003031 0.000000 0.008667 0.000000
# 2 -0.003228 0.013988 -0.000998 0.000000 0.001183 0.000000
# 3 -0.003031 -0.000998 0.008434 0.000000 0.002323 0.000000
# 4 0.000000 0.000000 0.000000 -0.015647 0.000000 0.111597
# 5 0.008667 0.001183 0.002323 0.000000 0.035675 0.000001
# 6 0.000000 0.000000 0.000000 0.111597 0.000001 -0.204548
#
#
# Mechanical properties :
#
#
# Convention : Reuss Voigt Hill
#
# Bulk Modulus (GPa) = 43.67915 57.51536 50.59726
# Shear Modulus (GPa) = -40.01046 27.08584 -6.46231
#
# Velocity S-wave (km/s) = -4.32511 3.55862 -1.73822
# Velocity P-wave (km/s) = 2.12609 6.61633 4.43033
#
# Compressibility (1/GPa) = 0.02289422
#
# Stress axis : x y z
#
# Youngs Moduli (GPa) = 66.72850 71.49187 118.56598
#
# Poissons Ratio (x) = 0.23075 0.35934
# Poissons Ratio (y) = 0.21538 0.11837
# Poissons Ratio (z) = 0.20224 0.07138
#
# Static dielectric constant tensor:
#      x y z
#    x 1.761730 0.000000 0.003910 
#    y 0.000000 1.796990 0.000000 
#    z 0.003910 0.000000 1.866260 
# 
# From -- ./inp_files/149244.got.cif
#   From: 2010.05.17/outbox.cif.g08.bks.cpg/sg15_75_cif.got.tgz:149244.got - 2010.06.03 18:47:42.
