data_PCOD9294087
_publ_section_title
;
Structure prediction by ZEFSAII (Michael W. Deem and Ramdas Pophale) SiO2 
 PCOD9294087
Probable space group: C 2/C
;
_chemical_formula_sum "Si O2"
_cell_formula_units_Z 36
_cell_length_a 13.196012
_cell_length_b 4.887377
_cell_length_c 22.255568
_cell_angle_alpha 90.000000
_cell_angle_beta 104.735019
_cell_angle_gamma 90.000000
_cell_volume 1388.143012
_symmetry_space_group_name_H-M "C 2/C"
_symmetry_group_IT_number 15
_symmetry_cell_setting 'monoclinic'
loop_
_space_group_symop_operation_xyz
x,y,z
-x,y,1/2-z
-x,-y,-z
x,-y,1/2+z
1/2+x,1/2+y,z
1/2-x,1/2+y,1/2-z
1/2-x,1/2-y,-z
1/2+x,1/2-y,1/2+z
loop_
_atom_site_type_symbol
_atom_site_label
_atom_site_fract_x
_atom_site_fract_y
_atom_site_fract_z
Si Si1 0.500000 0.752995 0.750000
Si Si2 0.423699 0.686539 0.861903
Si Si3 0.677041 0.073032 0.734136
Si Si4 0.130568 0.020614 0.439689
Si Si5 0.245943 0.478525 0.916746
O O1 0.473494 0.585557 0.805703
O O2 0.600060 0.951199 0.773383
O O3 0.391071 0.995221 0.835978
O O4 0.516070 0.612475 0.921192
O O5 0.317453 0.562757 0.872028
O O6 0.775986 0.866699 0.746537
O O7 0.148001 0.322464 0.416239
O O8 0.204349 0.827791 0.409977
O O9 0.179175 0.010651 0.513490
#
# Coordination Sequence:
#
# PCOD9294087 Si02
#       5
#     4   8   8   8   8
#     4   8  24  40  60  94 116 164 196 252 286 370
#     4  10  23  38  67  87 124 159 201 245 299 358
#     4  10  24  41  59  87 123 157 201 244 295 352
#     4  10  23  43  60  94 117 158 203 246 300 353
#     4  10  23  40  66  86 125 155 198 252 297 353
#
# _framework density 25.933926
#
# number of rings (size 3 to 8) (size 9 to 14) (size 15 to 20)
#    1.333    0.889    0.000    0.667    6.222    4.444 
#    0.000    6.667    0.000    0.000    0.000    0.000 
#    0.000    0.000    0.000    0.000    0.000    0.000 
#
# Total GULP energy -100575.278627 kJ/mol
# GULP energy per Si atom -5587.515479 kJ/mol
# Density = 2.587490 g / cm^3
# Si number density = 25.933926 Si / 1000 Ang^3
#
#
#
# Elastic Constant Matrix: (Units=GPa)
#
#
# Indices 1 2 3 4 5 6 
#
# 1 121.5207 -2.2871 11.7304 0.0000 6.7230 0.0000
# 2 -2.2871 73.0727 13.5626 0.0000 4.7482 0.0000
# 3 11.7304 13.5626 52.8525 0.0000 7.4418 0.0000
# 4 0.0000 0.0000 0.0000 25.8070 0.0000 5.6401
# 5 6.7230 4.7482 7.4418 0.0000 56.3361 0.0000
# 6 0.0000 0.0000 0.0000 5.6401 0.0000 29.4761
#
#
#
# Elastic Compliance Matrix: (Units=1/GPa)
#
#
# Indices 1 2 3 4 5 6 
#
# 1 0.008474 0.000678 -0.001940 0.000000 -0.000812 0.000000
# 2 0.000678 0.014454 -0.003746 0.000000 -0.000804 0.000000
# 3 -0.001940 -0.003746 0.020619 0.000000 -0.002176 0.000000
# 4 0.000000 0.000000 0.000000 0.040440 0.000000 -0.007738
# 5 -0.000812 -0.000804 -0.002176 0.000000 0.018203 0.000000
# 6 0.000000 0.000000 0.000000 -0.007738 0.000000 0.035406
#
#
# Mechanical properties :
#
#
# Convention : Reuss Voigt Hill
#
# Bulk Modulus (GPa) = 29.82429 32.60642 31.21535
# Shear Modulus (GPa) = 31.48809 37.28652 34.38731
#
# Velocity S-wave (km/s) = 3.48827 3.79588 3.64532
# Velocity P-wave (km/s) = 5.26774 5.64020 5.45715
#
# Compressibility (1/GPa) = 0.03352971
#
# Stress axis : x y z
#
# Youngs Moduli (GPa) = 118.00730 69.18591 48.49885
#
# Poissons Ratio (x) = -0.04692 0.09411
# Poissons Ratio (y) = -0.08003 0.18169
# Poissons Ratio (z) = 0.22899 0.25919
#
# Static dielectric constant tensor:
#      x y z
#    x 2.014750 0.000000 0.070780 
#    y 0.000000 2.039010 0.000000 
#    z 0.070780 0.000000 2.167950 
# 
# From -- ./inp_files/124738.got.cif
#   From: 2010.05.17/outbox.cif.g08.bks.cpg/sg15_63_cif.got.tgz:124738.got - 2010.06.03 18:47:42.
