data_PCOD9294418
_publ_section_title
;
Structure prediction by ZEFSAII (Michael W. Deem and Ramdas Pophale) SiO2 
 PCOD9294418
Probable space group: C 2/C
;
_chemical_formula_sum "Si O2"
_cell_formula_units_Z 44
_cell_length_a 12.852087
_cell_length_b 6.515694
_cell_length_c 22.767659
_cell_angle_alpha 90.000000
_cell_angle_beta 80.904520
_cell_angle_gamma 90.000000
_cell_volume 1882.597150
_symmetry_space_group_name_H-M "C 2/C"
_symmetry_group_IT_number 15
_symmetry_cell_setting 'monoclinic'
loop_
_space_group_symop_operation_xyz
x,y,z
-x,y,1/2-z
-x,-y,-z
x,-y,1/2+z
1/2+x,1/2+y,z
1/2-x,1/2+y,1/2-z
1/2-x,1/2-y,-z
1/2+x,1/2-y,1/2+z
loop_
_atom_site_type_symbol
_atom_site_label
_atom_site_fract_x
_atom_site_fract_y
_atom_site_fract_z
Si Si1 0.848411 0.270259 0.817404
Si Si2 0.500000 0.477786 0.750000
Si Si3 0.867417 0.388999 0.215739
Si Si4 0.920252 0.808499 0.009997
Si Si5 0.031639 0.428351 0.411926
Si Si6 0.224735 0.143883 0.440833
O O1 0.862716 0.456631 0.770534
O O2 0.747585 0.142633 0.801739
O O3 0.817639 0.342092 0.885112
O O4 0.948046 0.121132 0.803807
O O5 0.588892 0.330404 0.767995
O O6 0.949450 0.461495 0.158326
O O7 0.930554 0.692334 0.946633
O O8 0.956357 0.639608 0.053874
O O9 0.813631 0.914610 0.040989
O O10 0.000000 0.000000 0.000000
O O11 0.128524 0.277563 0.422097
O O12 0.250000 0.250000 0.500000
#
# Coordination Sequence:
#
# PCOD9294418 Si02
#       6
#     8   4   8   8   8   8
#     4  11  25  45  71 102 141 187 238 296 359 424
#     4  12  26  46  70 104 138 190 236 288 368 422
#     4  11  24  45  71 100 140 184 236 301 352 430
#     4   9  19  39  62  93 127 173 220 272 341 410
#     4   9  21  40  66  96 129 182 227 282 356 412
#     4  10  23  40  64  98 137 180 228 290 346 418
#
# _framework density 23.371967000000001
#
# number of rings (size 3 to 8) (size 9 to 14) (size 15 to 20)
#    0.000    1.818    1.818    0.545    5.091    2.182 
#   16.364    0.000    0.000    0.000    0.000    0.000 
#    0.000    0.000    0.000    0.000    0.000    0.000 
#
# Total GULP energy -123117.450954 kJ/mol
# GULP energy per Si atom -5596.247771 kJ/mol
# Density = 2.331877 g / cm^3
# Si number density = 23.371967 Si / 1000 Ang^3
#
#
#
# Elastic Constant Matrix: (Units=GPa)
#
#
# Indices 1 2 3 4 5 6 
#
# 1 41.0562 17.2419 17.3105 0.0000 -22.1373 0.0000
# 2 17.2419 136.8026 68.0057 0.0000 -33.3176 0.0000
# 3 17.3105 68.0057 199.4494 0.0000 -46.9605 0.0000
# 4 0.0000 0.0000 0.0000 241.6810 0.0000 -143.1770
# 5 -22.1373 -33.3176 -46.9605 0.0000 44.4107 0.0000
# 6 0.0000 0.0000 0.0000 -143.1770 0.0000 130.3597
#
#
#
# Elastic Compliance Matrix: (Units=1/GPa)
#
#
# Indices 1 2 3 4 5 6 
#
# 1 0.033629 -0.000633 0.001507 0.000000 0.017882 0.000000
# 2 -0.000633 0.009569 -0.002119 0.000000 0.004622 0.000000
# 3 0.001507 -0.002119 0.007201 0.000000 0.006776 0.000000
# 4 0.000000 0.000000 0.000000 0.011845 0.000000 0.013009
# 5 0.017882 0.004622 0.006776 0.000000 0.042063 0.000000
# 6 0.000000 0.000000 0.000000 0.013009 0.000000 0.021959
#
#
# Mechanical properties :
#
#
# Convention : Reuss Voigt Hill
#
# Bulk Modulus (GPa) = 20.87269 64.71384 42.79326
# Shear Modulus (GPa) = 34.54820 101.60696 68.07758
#
# Velocity S-wave (km/s) = 3.84889 6.60062 5.40288
# Velocity P-wave (km/s) = 5.35743 9.26497 7.56775
#
# Compressibility (1/GPa) = 0.04790950
#
# Stress axis : x y z
#
# Youngs Moduli (GPa) = 29.73624 104.50574 138.86958
#
# Poissons Ratio (x) = 0.06611 -0.20933
# Poissons Ratio (y) = 0.01881 0.29433
# Poissons Ratio (z) = -0.04482 0.22150
#
# Static dielectric constant tensor:
#      x y z
#    x 1.940420 0.000000 0.011160 
#    y 0.000000 1.835990 0.000000 
#    z 0.011160 0.000000 1.849310 
# 
# From -- ./inp_files/271898.got.cif
#   From: 2010.05.17/outbox.cif.g08.bks.cpg/sg15_136_cif.got.tgz:271898.got - 2010.06.03 18:47:42.
