data_PCOD9294528
_publ_section_title
;
Structure prediction by ZEFSAII (Michael W. Deem and Ramdas Pophale) SiO2 
 PCOD9294528
Probable space group: C 2/C
;
_chemical_formula_sum "Si O2"
_cell_formula_units_Z 40
_cell_length_a 11.150263
_cell_length_b 23.644311
_cell_length_c 7.214122
_cell_angle_alpha 90.000000
_cell_angle_beta 69.929012
_cell_angle_gamma 90.000000
_cell_volume 1786.425258
_symmetry_space_group_name_H-M "C 2/C"
_symmetry_group_IT_number 15
_symmetry_cell_setting 'monoclinic'
loop_
_space_group_symop_operation_xyz
x,y,z
-x,y,1/2-z
-x,-y,-z
x,-y,1/2+z
1/2+x,1/2+y,z
1/2-x,1/2+y,1/2-z
1/2-x,1/2-y,-z
1/2+x,1/2-y,1/2+z
loop_
_atom_site_type_symbol
_atom_site_label
_atom_site_fract_x
_atom_site_fract_y
_atom_site_fract_z
Si Si1 0.315748 0.272440 0.778181
Si Si2 0.385666 0.803132 0.932868
Si Si3 0.352697 0.948737 0.365953
Si Si4 0.208791 0.426345 0.499835
Si Si5 0.636122 0.599035 0.243841
O O1 0.394759 0.222745 0.634305
O O2 0.228925 0.287455 0.645386
O O3 0.370775 0.333962 0.791834
O O4 0.250000 0.250000 0.000000
O O5 0.500000 0.780513 0.750000
O O6 0.379355 0.870874 0.943922
O O7 0.500000 0.930215 0.250000
O O8 0.267142 0.921932 0.574432
O O9 0.356154 0.015927 0.398369
O O10 0.269222 0.935881 0.228393
O O11 0.333446 0.414238 0.557500
O O12 0.500000 0.574064 0.250000
#
# Coordination Sequence:
#
# PCOD9294528 Si02
#       5
#     8   8   8   8   8
#     4  10  23  44  65  96 134 184 233 287 352 422
#     4  10  23  40  67  99 133 173 233 299 350 409
#     4  12  25  43  75 104 140 187 234 296 352 415
#     4  11  24  45  69 103 143 182 238 293 351 415
#     4  11  27  46  68 104 146 188 237 282 350 432
#
# _framework density 22.391086999999999
#
# number of rings (size 3 to 8) (size 9 to 14) (size 15 to 20)
#    0.000    1.200    2.000    2.400    8.400    1.600 
#    0.000    0.000    0.000    0.000    0.000    0.000 
#    0.000    0.000    0.000    0.000    0.000    0.000 
#
# Total GULP energy -111430.688285 kJ/mol
# GULP energy per Si atom -5571.534414 kJ/mol
# Density = 2.234012 g / cm^3
# Si number density = 22.391087 Si / 1000 Ang^3
#
#
#
# Elastic Constant Matrix: (Units=GPa)
#
#
# Indices 1 2 3 4 5 6 
#
# 1 68.4720 31.6728 27.9923 0.0000 -6.1353 0.0000
# 2 31.6728 106.8552 47.7504 0.0000 0.4129 0.0000
# 3 27.9923 47.7504 129.7106 0.0000 18.4547 0.0000
# 4 0.0000 0.0000 0.0000 87.9512 0.0000 67.1169
# 5 -6.1353 0.4129 18.4547 0.0000 35.6133 0.0000
# 6 0.0000 0.0000 0.0000 67.1169 0.0000 50.9941
#
#
#
# Elastic Compliance Matrix: (Units=1/GPa)
#
#
# Indices 1 2 3 4 5 6 
#
# 1 0.018166 -0.004005 -0.003128 0.000000 0.004797 0.000000
# 2 -0.004005 0.012241 -0.003804 0.000000 0.001139 0.000000
# 3 -0.003128 -0.003804 0.010640 0.000000 -0.006008 0.000000
# 4 0.000000 0.000000 0.000000 -2.589888 0.000000 3.408734
# 5 0.004797 0.001139 -0.006008 0.000000 0.032006 0.000000
# 6 0.000000 0.000000 0.000000 3.408734 0.000000 -4.466864
#
#
# Mechanical properties :
#
#
# Convention : Reuss Voigt Hill
#
# Bulk Modulus (GPa) = 52.16029 57.76317 54.96173
# Shear Modulus (GPa) = -0.71886 48.08653 23.68384
#
# Velocity S-wave (km/s) = -0.56723 4.63922 3.25581
# Velocity P-wave (km/s) = 4.78714 7.38579 6.22361
#
# Compressibility (1/GPa) = 0.01917167
#
# Stress axis : x y z
#
# Youngs Moduli (GPa) = 55.04815 81.69172 93.98609
#
# Poissons Ratio (x) = 0.32718 0.29403
# Poissons Ratio (y) = 0.22047 0.35753
# Poissons Ratio (z) = 0.17221 0.31077
#
# Static dielectric constant tensor:
#      x y z
#    x 1.151380 0.000000 0.318960 
#    y 0.000000 1.939930 0.000000 
#    z 0.318960 0.000000 1.681020 
# 
# From -- ./inp_files/32959.got.cif
#   From: 2010.05.17/outbox.cif.g08.bks.cpg/sg15_17_cif.got.tgz:32959.got - 2010.06.03 18:47:42.
