data_PCOD9294612
_publ_section_title
;
Structure prediction by ZEFSAII (Michael W. Deem and Ramdas Pophale) SiO2 
 PCOD9294612
Probable space group: C 2/C
;
_chemical_formula_sum "Si O2"
_cell_formula_units_Z 64
_cell_length_a 24.351443
_cell_length_b 13.898679
_cell_length_c 13.506264
_cell_angle_alpha 90.000000
_cell_angle_beta 43.701722
_cell_angle_gamma 90.000000
_cell_volume 3158.284545
_symmetry_space_group_name_H-M "C 2/C"
_symmetry_group_IT_number 15
_symmetry_cell_setting 'monoclinic'
loop_
_space_group_symop_operation_xyz
x,y,z
-x,y,1/2-z
-x,-y,-z
x,-y,1/2+z
1/2+x,1/2+y,z
1/2-x,1/2+y,1/2-z
1/2-x,1/2-y,-z
1/2+x,1/2-y,1/2+z
loop_
_atom_site_type_symbol
_atom_site_label
_atom_site_fract_x
_atom_site_fract_y
_atom_site_fract_z
Si Si1 0.930940 0.740871 0.188697
Si Si2 0.273574 0.133198 0.840550
Si Si3 0.782396 0.046559 0.401056
Si Si4 0.277473 0.251378 0.271020
Si Si5 0.420033 0.429498 0.330249
Si Si6 0.944884 0.409247 0.037013
Si Si7 0.149808 0.389417 0.540840
Si Si8 0.702110 0.437565 0.847889
O O1 0.864258 0.774698 0.197509
O O2 0.945394 0.834243 0.237452
O O3 0.896992 0.659883 0.308619
O O4 0.002753 0.687722 0.040378
O O5 0.244210 0.221836 0.812820
O O6 0.367604 0.112018 0.706121
O O7 0.230241 0.042958 0.842317
O O8 0.241470 0.131398 0.993530
O O9 0.804644 0.069723 0.260286
O O10 0.855507 0.987813 0.352242
O O11 0.705244 0.977424 0.500327
O O12 0.211697 0.308871 0.419931
O O13 0.267654 0.138064 0.298136
O O14 0.500000 0.486689 0.250000
O O15 0.376346 0.408122 0.490600
O O16 0.906806 0.421680 0.976208
O O17 0.000000 0.500000 0.000000
#
# Coordination Sequence:
#
# PCOD9294612 Si02
#       8
#     8   8   8   8   8   8   8   8
#     4  12  21  35  63  96 129 163 211 278 326 371
#     4  10  23  41  60  96 130 169 226 259 322 405
#     4  11  22  41  65  87 127 176 215 262 315 394
#     4  11  21  37  63  90 126 168 221 261 320 383
#     4  11  23  37  61  99 124 158 217 275 328 360
#     4  11  22  36  58  94 136 166 197 268 342 385
#     4  11  20  37  59  95 124 164 218 261 324 389
#     4  11  21  39  67  90 126 170 217 266 319 387
#
# _framework density 20.264165999999999
#
# number of rings (size 3 to 8) (size 9 to 14) (size 15 to 20)
#    0.000    1.000    5.000    4.500    1.750    1.000 
#    0.000    0.000    0.000    0.000    0.000    0.000 
#    0.000    0.000    0.000    0.000    0.000    0.000 
#
# Total GULP energy -178710.997022 kJ/mol
# GULP energy per Si atom -5584.718657 kJ/mol
# Density = 2.021804 g / cm^3
# Si number density = 20.264166 Si / 1000 Ang^3
#
#
#
# Elastic Constant Matrix: (Units=GPa)
#
#
# Indices 1 2 3 4 5 6 
#
# 1 105.3621 13.2955 49.7233 0.0000 -16.6945 0.0000
# 2 13.2955 55.8430 17.1095 0.0000 -5.6976 0.0000
# 3 49.7233 17.1095 97.0294 0.0000 3.4500 0.0000
# 4 0.0000 0.0000 0.0000 25.0717 0.0000 4.8142
# 5 -16.6945 -5.6976 3.4500 0.0000 39.3926 0.0000
# 6 0.0000 0.0000 0.0000 4.8142 0.0000 18.6376
#
#
#
# Elastic Compliance Matrix: (Units=1/GPa)
#
#
# Indices 1 2 3 4 5 6 
#
# 1 0.014054 -0.000424 -0.007360 0.000000 0.006539 0.000000
# 2 -0.000424 0.019313 -0.003291 0.000000 0.002902 0.000000
# 3 -0.007360 -0.003291 0.014832 0.000000 -0.004894 0.000000
# 4 0.000000 0.000000 0.000000 0.041967 0.000000 -0.010840
# 5 0.006539 0.002902 -0.004894 0.000000 0.029005 0.000000
# 6 0.000000 0.000000 0.000000 -0.010840 0.000000 0.056455
#
#
# Mechanical properties :
#
#
# Convention : Reuss Voigt Hill
#
# Bulk Modulus (GPa) = 38.38976 46.49900 42.44438
# Shear Modulus (GPa) = 24.21780 28.49412 26.35596
#
# Velocity S-wave (km/s) = 3.46078 3.75391 3.61032
# Velocity P-wave (km/s) = 5.91228 6.46416 6.19437
#
# Compressibility (1/GPa) = 0.02604861
#
# Stress axis : x y z
#
# Youngs Moduli (GPa) = 71.15397 51.77905 67.42109
#
# Poissons Ratio (x) = 0.02195 0.49621
# Poissons Ratio (y) = 0.03017 0.22191
# Poissons Ratio (z) = 0.52368 0.17043
#
# Static dielectric constant tensor:
#      x y z
#    x 1.732980 0.000000 0.019800 
#    y 0.000000 1.729930 0.000000 
#    z 0.019800 0.000000 1.739730 
# 
# From -- ./inp_files/173664.got.cif
#   From: 2010.05.17/outbox.cif.g08.bks.cpg/sg15_87_cif.got.tgz:173664.got - 2010.06.03 18:47:42.
