data_PCOD9294912
_publ_section_title
;
Structure prediction by ZEFSAII (Michael W. Deem and Ramdas Pophale) SiO2 
 PCOD9294912
Probable space group: C 2/C
;
_chemical_formula_sum "Si O2"
_cell_formula_units_Z 40
_cell_length_a 14.344779
_cell_length_b 17.999967
_cell_length_c 11.130855
_cell_angle_alpha 90.000000
_cell_angle_beta 37.013242
_cell_angle_gamma 90.000000
_cell_volume 1730.176017
_symmetry_space_group_name_H-M "C 2/C"
_symmetry_group_IT_number 15
_symmetry_cell_setting 'monoclinic'
loop_
_space_group_symop_operation_xyz
x,y,z
-x,y,1/2-z
-x,-y,-z
x,-y,1/2+z
1/2+x,1/2+y,z
1/2-x,1/2+y,1/2-z
1/2-x,1/2-y,-z
1/2+x,1/2-y,1/2+z
loop_
_atom_site_type_symbol
_atom_site_label
_atom_site_fract_x
_atom_site_fract_y
_atom_site_fract_z
Si Si1 0.652379 0.675728 0.831390
Si Si2 0.842127 0.544266 0.630569
Si Si3 0.673777 0.400617 0.841620
Si Si4 0.146356 0.697722 0.523036
Si Si5 0.673225 0.850907 0.568905
O O1 0.792439 0.623885 0.740757
O O2 0.604099 0.746280 0.957776
O O3 0.716673 0.695494 0.633459
O O4 0.502201 0.624874 0.972920
O O5 0.706835 0.487433 0.801740
O O6 0.000000 0.500000 0.500000
O O7 0.841823 0.571011 0.492103
O O8 0.755182 0.366693 0.639668
O O9 0.757901 0.368584 0.873178
O O10 0.250000 0.750000 0.500000
O O11 0.000000 0.672302 0.750000
O O12 0.500000 0.820486 0.750000
#
# Coordination Sequence:
#
# PCOD9294912 Si02
#       5
#     8   8   8   8   8
#     4  10  25  46  68 106 139 184 243 286 362 419
#     4  10  23  41  69 103 142 184 235 287 354 420
#     4  12  23  46  73 103 143 183 239 299 350 433
#     4  12  28  48  71 104 141 190 239 294 364 427
#     4  10  23  41  69 101 136 180 234 280 359 405
#
# _framework density 23.119033999999999
#
# number of rings (size 3 to 8) (size 9 to 14) (size 15 to 20)
#    1.200    0.000    4.000    1.200    5.600    3.200 
#    0.000    0.000    0.000    0.000    0.000    0.000 
#    0.000    0.000    0.000    0.000    0.000    0.000 
#
# Total GULP energy -111732.113795 kJ/mol
# GULP energy per Si atom -5586.605690 kJ/mol
# Density = 2.306641 g / cm^3
# Si number density = 23.119034 Si / 1000 Ang^3
#
#
#
# Elastic Constant Matrix: (Units=GPa)
#
#
# Indices 1 2 3 4 5 6 
#
# 1 84.6049 6.4435 34.0692 0.0001 0.9083 0.0001
# 2 6.4435 69.3415 16.8102 0.0000 3.0302 0.0001
# 3 34.0692 16.8102 173.2037 0.0002 -1.0756 0.0000
# 4 0.0001 0.0000 0.0002 40.8711 -0.0001 -2.7292
# 5 0.9083 3.0302 -1.0756 -0.0001 38.4174 -0.0001
# 6 0.0001 0.0001 0.0000 -2.7292 -0.0001 29.1632
#
#
#
# Elastic Compliance Matrix: (Units=1/GPa)
#
#
# Indices 1 2 3 4 5 6 
#
# 1 0.012864 -0.000581 -0.002476 0.000000 -0.000328 0.000000
# 2 -0.000581 0.014851 -0.001335 0.000000 -0.001195 0.000000
# 3 -0.002476 -0.001335 0.006392 0.000000 0.000343 0.000000
# 4 0.000000 0.000000 0.000000 0.024621 0.000000 0.002304
# 5 -0.000328 -0.001195 0.000343 0.000000 0.026141 0.000000
# 6 0.000000 0.000000 0.000000 0.002304 0.000000 0.034505
#
#
# Mechanical properties :
#
#
# Convention : Reuss Voigt Hill
#
# Bulk Modulus (GPa) = 39.48682 49.08841 44.28761
# Shear Modulus (GPa) = 36.60312 39.67881 38.14096
#
# Velocity S-wave (km/s) = 3.98332 4.14730 4.06614
# Velocity P-wave (km/s) = 6.18649 6.64924 6.42204
#
# Compressibility (1/GPa) = 0.02532491
#
# Stress axis : x y z
#
# Youngs Moduli (GPa) = 77.73332 67.33505 156.43943
#
# Poissons Ratio (x) = 0.03911 0.38736
# Poissons Ratio (y) = 0.04515 0.20877
# Poissons Ratio (z) = 0.19248 0.08986
#
# Static dielectric constant tensor:
#      x y z
#    x 1.889930 0.000000 0.006400 
#    y 0.000000 1.921100 0.000000 
#    z 0.006400 0.000000 1.862070 
# 
# From -- ./inp_files/106818.got.cif
#   From: 2010.05.17/outbox.cif.g08.bks.cpg/sg15_54_cif.got.tgz:106818.got - 2010.06.03 18:47:42.
