data_PCOD9294003
_publ_section_title
;
Structure prediction by ZEFSAII (Michael W. Deem and Ramdas Pophale) SiO2 
 PCOD9294003
Probable space group: C 2/C
;
_chemical_formula_sum "Si O2"
_cell_formula_units_Z 40
_cell_length_a 17.361297
_cell_length_b 25.393345
_cell_length_c 17.856995
_cell_angle_alpha 90.000000
_cell_angle_beta 163.800012
_cell_angle_gamma 90.000000
_cell_volume 2196.344710
_symmetry_space_group_name_H-M "C 2/C"
_symmetry_group_IT_number 15
_symmetry_cell_setting 'monoclinic'
loop_
_space_group_symop_operation_xyz
x,y,z
-x,y,1/2-z
-x,-y,-z
x,-y,1/2+z
1/2+x,1/2+y,z
1/2-x,1/2+y,1/2-z
1/2-x,1/2-y,-z
1/2+x,1/2-y,1/2+z
loop_
_atom_site_type_symbol
_atom_site_label
_atom_site_fract_x
_atom_site_fract_y
_atom_site_fract_z
Si Si1 0.689030 0.468163 0.352650
Si Si2 0.500000 0.331389 0.250000
Si Si3 0.807144 0.216639 0.723405
Si Si4 0.795241 0.397335 0.317644
Si Si5 0.000000 0.408681 0.750000
Si Si6 0.383103 0.451601 0.840413
O O1 0.500000 0.469911 0.250000
O O2 0.636394 0.423772 0.240236
O O3 0.977533 0.447661 0.657772
O O4 0.665208 0.522709 0.286122
O O5 0.625340 0.297320 0.299949
O O6 0.742418 0.369279 0.506249
O O7 0.590944 0.264031 0.524311
O O8 0.687072 0.164055 0.648420
O O9 0.087657 0.427439 0.587213
O O10 0.617495 0.408614 0.077032
O O11 0.500000 0.500000 0.000000
#
# Coordination Sequence:
#
# PCOD9294003 Si02
#       6
#     8   4   8   8   4   8
#     4  11  23  35  59  83 116 152 194 225 279 342
#     4  12  24  37  52  78 116 152 194 241 280 304
#     4  12  24  39  58  79 108 151 202 243 281 322
#     4  11  23  40  56  80 118 153 193 236 284 333
#     4  12  22  33  56  80 118 150 190 227 278 324
#     4  10  23  38  57  81 114 154 190 230 286 343
#
# _framework density 18.212077000000001
#
# number of rings (size 3 to 8) (size 9 to 14) (size 15 to 20)
#    0.000    0.800    3.000    5.400   11.200    0.000 
#    0.000    0.000    0.000    0.000    0.000    0.000 
#    0.000   16.000    0.000    0.000    0.000    0.000 
#
# Total GULP energy -111554.298389 kJ/mol
# GULP energy per Si atom -5577.714919 kJ/mol
# Density = 1.817063 g / cm^3
# Si number density = 18.212077 Si / 1000 Ang^3
#
#
#
# Elastic Constant Matrix: (Units=GPa)
#
#
# Indices 1 2 3 4 5 6 
#
# 1 52.6910 36.3440 25.2162 -0.0153 2.9005 0.0006
# 2 36.3440 82.3317 24.8055 -0.0027 4.0848 -0.0014
# 3 25.2162 24.8055 111.4078 0.0177 9.7256 -0.0017
# 4 -0.0153 -0.0027 0.0177 39.9092 0.0008 -2.2416
# 5 2.9005 4.0848 9.7256 0.0008 29.1171 0.0003
# 6 0.0006 -0.0014 -0.0017 -2.2416 0.0003 27.2733
#
#
#
# Elastic Compliance Matrix: (Units=1/GPa)
#
#
# Indices 1 2 3 4 5 6 
#
# 1 0.028827 -0.011535 -0.003963 0.000012 0.000070 0.000000
# 2 -0.011535 0.017657 -0.001241 -0.000003 -0.000914 0.000001
# 3 -0.003963 -0.001241 0.010403 -0.000006 -0.002906 0.000000
# 4 0.000012 -0.000003 -0.000006 0.025173 0.000001 0.002069
# 5 0.000070 -0.000914 -0.002906 0.000001 0.035436 -0.000001
# 6 0.000000 0.000001 0.000000 0.002069 -0.000001 0.036836
#
#
# Mechanical properties :
#
#
# Convention : Reuss Voigt Hill
#
# Bulk Modulus (GPa) = 42.71589 46.57353 44.64471
# Shear Modulus (GPa) = 25.56070 29.93092 27.74581
#
# Velocity S-wave (km/s) = 3.75040 4.05837 3.90742
# Velocity P-wave (km/s) = 6.50074 6.89847 6.70255
#
# Compressibility (1/GPa) = 0.02341049
#
# Stress axis : x y z
#
# Youngs Moduli (GPa) = 34.68915 56.63441 96.12698
#
# Poissons Ratio (x) = 0.65328 0.38092
# Poissons Ratio (y) = 0.40014 0.11928
# Poissons Ratio (z) = 0.13746 0.07027
#
# Static dielectric constant tensor:
#      x y z
#    x 1.649580 -0.000020 0.005860 
#    y -0.000020 1.651810 -0.000030 
#    z 0.005860 -0.000030 1.731300 
# 
# From -- ./inp_files/157160.got.cif
#   From: 2010.05.17/outbox.cif.g08.bks.cpg/sg15_79_cif.got.tgz:157160.got - 2010.06.03 18:47:42.
