data_PCOD9294766
_publ_section_title
;
Structure prediction by ZEFSAII (Michael W. Deem and Ramdas Pophale) SiO2 
 PCOD9294766
Probable space group: C 2/C
;
_chemical_formula_sum "Si O2"
_cell_formula_units_Z 52
_cell_length_a 9.284615
_cell_length_b 10.836979
_cell_length_c 25.005663
_cell_angle_alpha 90.000000
_cell_angle_beta 72.632092
_cell_angle_gamma 90.000000
_cell_volume 2401.288984
_symmetry_space_group_name_H-M "C 2/C"
_symmetry_group_IT_number 15
_symmetry_cell_setting 'monoclinic'
loop_
_space_group_symop_operation_xyz
x,y,z
-x,y,1/2-z
-x,-y,-z
x,-y,1/2+z
1/2+x,1/2+y,z
1/2-x,1/2+y,1/2-z
1/2-x,1/2-y,-z
1/2+x,1/2-y,1/2+z
loop_
_atom_site_type_symbol
_atom_site_label
_atom_site_fract_x
_atom_site_fract_y
_atom_site_fract_z
Si Si1 0.356918 0.636523 0.473175
Si Si2 0.120810 0.270328 0.626947
Si Si3 0.863796 0.137758 0.976168
Si Si4 0.511916 0.007633 0.666266
Si Si5 0.500000 0.334169 0.250000
Si Si6 0.762480 0.976187 0.728300
Si Si7 0.062692 0.216024 0.359707
O O1 0.250000 0.750000 0.500000
O O2 0.496740 0.640071 0.498918
O O3 0.291340 0.498343 0.485378
O O4 0.423718 0.654428 0.406090
O O5 0.075772 0.166007 0.590370
O O6 0.057365 0.404296 0.618221
O O7 0.065692 0.242330 0.693253
O O8 0.300145 0.276732 0.613333
O O9 0.750000 0.250000 0.000000
O O10 0.656338 0.013774 0.690025
O O11 0.362493 0.954923 0.712186
O O12 0.477473 0.145177 0.651832
O O13 0.630669 0.417566 0.260988
O O14 0.870086 0.864758 0.696672
#
# Coordination Sequence:
#
# PCOD9294766 Si02
#       7
#     8   8   8   8   4   8   8
#     4  11  27  45  72 105 136 181 241 292 349 411
#     4  11  23  42  70  98 136 183 227 278 351 413
#     4  11  25  48  72  99 139 184 227 293 351 408
#     4  10  23  42  68  96 139 182 221 285 346 409
#     4  12  22  42  66  98 140 174 228 280 334 422
#     4  10  23  41  65  99 137 179 225 275 345 412
#     4  11  22  44  67 100 139 177 232 286 341 419
#
# _framework density 21.655037
#
# number of rings (size 3 to 8) (size 9 to 14) (size 15 to 20)
#    0.000    1.231    3.077    2.769    2.154    5.538 
#    2.769    0.000    0.000    0.000    0.000    0.000 
#    0.000    0.000    0.000    0.000    0.000    0.000 
#
# Total GULP energy -145246.110221 kJ/mol
# GULP energy per Si atom -5586.388855 kJ/mol
# Density = 2.160575 g / cm^3
# Si number density = 21.655037 Si / 1000 Ang^3
#
#
#
# Elastic Constant Matrix: (Units=GPa)
#
#
# Indices 1 2 3 4 5 6 
#
# 1 56.9388 55.2090 17.7378 0.0000 -24.6369 0.0000
# 2 55.2090 201.6735 59.4010 0.0000 -20.5074 0.0000
# 3 17.7378 59.4010 84.8441 0.0000 -4.6096 0.0000
# 4 0.0000 0.0000 0.0000 13.9706 0.0000 -15.0147
# 5 -24.6369 -20.5074 -4.6096 0.0000 13.9317 0.0000
# 6 0.0000 0.0000 0.0000 -15.0147 0.0000 38.4493
#
#
#
# Elastic Compliance Matrix: (Units=1/GPa)
#
#
# Indices 1 2 3 4 5 6 
#
# 1 0.090365 -0.008425 -0.005077 0.000000 0.145720 0.000000
# 2 -0.008425 0.008018 -0.004094 0.000000 -0.004450 0.000000
# 3 -0.005077 -0.004094 0.015172 0.000000 -0.009984 0.000000
# 4 0.000000 0.000000 0.000000 0.123346 0.000000 0.048168
# 5 0.145720 -0.004450 -0.009984 0.000000 0.319616 0.000000
# 6 0.000000 0.000000 0.000000 0.048168 0.000000 0.044818
#
#
# Mechanical properties :
#
#
# Convention : Reuss Voigt Hill
#
# Bulk Modulus (GPa) = 12.76106 67.57245 40.16675
# Shear Modulus (GPa) = 7.54549 27.34423 17.44486
#
# Velocity S-wave (km/s) = 1.86868 3.55733 2.84135
# Velocity P-wave (km/s) = 3.24987 6.93863 5.41785
#
# Compressibility (1/GPa) = 0.07836342
#
# Stress axis : x y z
#
# Youngs Moduli (GPa) = 11.06628 124.71653 65.91253
#
# Poissons Ratio (x) = 1.05070 0.33461
# Poissons Ratio (y) = 0.09323 0.26986
# Poissons Ratio (z) = 0.05618 0.51061
#
# Static dielectric constant tensor:
#      x y z
#    x 1.756020 0.000000 -0.023690 
#    y 0.000000 1.795880 0.000000 
#    z -0.023690 0.000000 1.852840 
# 
# From -- ./inp_files/287590.got.cif
#   From: 2010.05.17/outbox.cif.g08.bks.cpg/sg15_144_cif.got.tgz:287590.got - 2010.06.03 18:47:42.
