data_PCOD9294764
_publ_section_title
;
Structure prediction by ZEFSAII (Michael W. Deem and Ramdas Pophale) SiO2 
 PCOD9294764
Probable space group: C 2/C
;
_chemical_formula_sum "Si O2"
_cell_formula_units_Z 56
_cell_length_a 8.807703
_cell_length_b 14.339792
_cell_length_c 21.331359
_cell_angle_alpha 90.000000
_cell_angle_beta 84.550261
_cell_angle_gamma 90.000000
_cell_volume 2681.986150
_symmetry_space_group_name_H-M "C 2/C"
_symmetry_group_IT_number 15
_symmetry_cell_setting 'monoclinic'
loop_
_space_group_symop_operation_xyz
x,y,z
-x,y,1/2-z
-x,-y,-z
x,-y,1/2+z
1/2+x,1/2+y,z
1/2-x,1/2+y,1/2-z
1/2-x,1/2-y,-z
1/2+x,1/2-y,1/2+z
loop_
_atom_site_type_symbol
_atom_site_label
_atom_site_fract_x
_atom_site_fract_y
_atom_site_fract_z
Si Si1 0.865501 0.857281 0.598565
Si Si2 0.673261 0.759701 0.098262
Si Si3 0.634866 0.118525 0.486911
Si Si4 0.824228 0.655555 0.771156
Si Si5 0.427424 0.467568 0.184729
Si Si6 0.167238 0.193886 0.645613
Si Si7 0.283546 0.086404 0.521149
O O1 0.711349 0.802254 0.627802
O O2 0.833398 0.886174 0.528440
O O3 0.008580 0.787218 0.594738
O O4 0.919617 0.946036 0.637571
O O5 0.803128 0.697723 0.061205
O O6 0.695196 0.773562 0.170721
O O7 0.672061 0.854207 0.057384
O O8 0.453872 0.107677 0.490158
O O9 0.718262 0.023366 0.466489
O O10 0.746451 0.560836 0.796429
O O11 0.739851 0.683992 0.711261
O O12 0.000000 0.645055 0.750000
O O13 0.500000 0.492150 0.250000
O O14 0.513325 0.371433 0.157798
O O15 0.252146 0.141081 0.585837
#
# Coordination Sequence:
#
# PCOD9294764 Si02
#       7
#     8   8   8   8   8   8   8
#     4  12  24  41  70  98 132 183 223 282 344 417
#     4  11  23  39  68 101 128 180 227 279 345 411
#     4  10  23  41  65  99 137 172 227 283 337 410
#     4  11  22  45  69  94 136 175 222 287 347 404
#     4  10  26  44  67  98 138 179 232 289 350 421
#     4  11  24  43  67  99 137 179 226 285 346 411
#     4  11  23  43  64  99 138 175 224 283 342 408
#
# _framework density 20.880047999999999
#
# number of rings (size 3 to 8) (size 9 to 14) (size 15 to 20)
#    0.000    1.143    2.857    2.143    4.000    4.571 
#    0.000    2.143    0.000    0.000    0.000    0.000 
#    0.000    0.000    0.000    0.000    0.000    0.000 
#
# Total GULP energy -156251.877256 kJ/mol
# GULP energy per Si atom -5580.424188 kJ/mol
# Density = 2.083252 g / cm^3
# Si number density = 20.880048 Si / 1000 Ang^3
#
#
#
# Elastic Constant Matrix: (Units=GPa)
#
#
# Indices 1 2 3 4 5 6 
#
# 1 19.6545 35.5171 38.1334 0.0000 -4.6562 0.0000
# 2 35.5171 31.7333 5.9939 0.0000 8.8819 0.0000
# 3 38.1334 5.9939 101.7487 0.0000 10.6742 0.0000
# 4 0.0000 0.0000 0.0000 27.2861 0.0000 4.4906
# 5 -4.6562 8.8819 10.6742 0.0000 25.4380 0.0000
# 6 0.0000 0.0000 0.0000 4.4906 0.0000 23.3708
#
#
#
# Elastic Compliance Matrix: (Units=1/GPa)
#
#
# Indices 1 2 3 4 5 6 
#
# 1 -0.022939 0.029063 0.008777 0.000000 -0.018029 0.000000
# 2 0.029063 -0.001831 -0.011935 0.000000 0.010967 0.000000
# 3 0.008777 -0.011935 0.006942 0.000000 0.002861 0.000000
# 4 0.000000 0.000000 0.000000 0.037845 0.000000 -0.007272
# 5 -0.018029 0.010967 0.002861 0.000000 0.030981 0.000000
# 6 0.000000 0.000000 0.000000 -0.007272 0.000000 0.044186
#
#
# Mechanical properties :
#
#
# Convention : Reuss Voigt Hill
#
# Bulk Modulus (GPa) = 29.42847 34.71393 32.07120
# Shear Modulus (GPa) = 91.40479 20.11845 55.76162
#
# Velocity S-wave (km/s) = 6.62353 3.10744 5.17336
# Velocity P-wave (km/s) = 8.52171 5.43474 7.14689
#
# Compressibility (1/GPa) = 0.03398070
#
# Stress axis : x y z
#
# Youngs Moduli (GPa) = -43.59330 -546.13150 144.05421
#
# Poissons Ratio (x) = 15.87222 -1.26430
# Poissons Ratio (y) = 1.26695 1.71927
# Poissons Ratio (z) = 0.38260 -6.51803
#
# Static dielectric constant tensor:
#      x y z
#    x 1.776220 0.000000 -0.010290 
#    y 0.000000 1.777600 0.000000 
#    z -0.010290 0.000000 1.728480 
# 
# From -- ./inp_files/231554.got.cif
#   From: 2010.05.17/outbox.cif.g08.bks.cpg/sg15_116_cif.got.tgz:231554.got - 2010.06.03 18:47:42.
