data_PCOD9294210
_publ_section_title
;
Structure prediction by ZEFSAII (Michael W. Deem and Ramdas Pophale) SiO2 
 PCOD9294210
Probable space group: C 2/C
;
_chemical_formula_sum "Si O2"
_cell_formula_units_Z 48
_cell_length_a 5.700996
_cell_length_b 13.183864
_cell_length_c 27.446293
_cell_angle_alpha 90.000000
_cell_angle_beta 113.176251
_cell_angle_gamma 90.000000
_cell_volume 1896.416478
_symmetry_space_group_name_H-M "C 2/C"
_symmetry_group_IT_number 15
_symmetry_cell_setting 'monoclinic'
loop_
_space_group_symop_operation_xyz
x,y,z
-x,y,1/2-z
-x,-y,-z
x,-y,1/2+z
1/2+x,1/2+y,z
1/2-x,1/2+y,1/2-z
1/2-x,1/2-y,-z
1/2+x,1/2-y,1/2+z
loop_
_atom_site_type_symbol
_atom_site_label
_atom_site_fract_x
_atom_site_fract_y
_atom_site_fract_z
Si Si1 0.199707 0.993061 0.853449
Si Si2 0.500000 0.350928 0.750000
Si Si3 0.847495 0.305831 0.383541
Si Si4 0.500000 0.139893 0.250000
Si Si5 0.370898 0.715481 0.958734
Si Si6 0.219404 0.573240 0.365062
Si Si7 0.830249 0.399735 0.490554
O O1 0.505534 0.972048 0.883462
O O2 0.101919 0.919716 0.802844
O O3 0.005487 0.971226 0.882587
O O4 0.198252 0.111837 0.839834
O O5 0.246469 0.298894 0.750781
O O6 0.744965 0.193310 0.374278
O O7 0.823593 0.353272 0.435452
O O8 0.152741 0.298179 0.400752
O O9 0.596333 0.067201 0.301154
O O10 0.532683 0.613212 0.980402
O O11 0.250000 0.750000 0.000000
O O12 0.541470 0.814916 0.963951
O O13 0.000000 0.500000 0.500000
#
# Coordination Sequence:
#
# PCOD9294210 Si02
#       7
#     8   4   8   4   8   8   8
#     4  10  23  39  64  92 128 170 204 261 313 370
#     4   8  16  37  58  87 124 164 212 243 304 379
#     4  11  25  36  64  95 121 161 211 259 321 377
#     4   8  16  37  60  85 122 172 202 247 314 361
#     4   9  22  42  60  89 120 157 208 262 310 390
#     4  10  23  40  63  92 131 164 210 261 306 375
#     4  10  23  41  65  86 123 166 210 260 330 390
#
# _framework density 25.310894999999999
#
# number of rings (size 3 to 8) (size 9 to 14) (size 15 to 20)
#    0.000    2.333    0.000    0.000    7.000    6.000 
#    0.000    0.000    0.000   12.000    0.000    0.000 
#    0.000    0.000    0.000    0.000    0.000    0.000 
#
# Total GULP energy -133848.587650 kJ/mol
# GULP energy per Si atom -5577.024485 kJ/mol
# Density = 2.525329 g / cm^3
# Si number density = 25.310895 Si / 1000 Ang^3
#
#
#
# Elastic Constant Matrix: (Units=GPa)
#
#
# Indices 1 2 3 4 5 6 
#
# 1 224.9395 59.0776 12.1752 0.0000 4.8816 0.0000
# 2 59.0776 152.4445 22.2412 0.0000 11.5202 0.0000
# 3 12.1752 22.2412 48.1486 0.0000 -5.1149 0.0000
# 4 0.0000 0.0000 0.0000 9.9661 0.0000 1.0281
# 5 4.8816 11.5202 -5.1149 0.0000 26.8397 0.0000
# 6 0.0000 0.0000 0.0000 1.0281 0.0000 33.5794
#
#
#
# Elastic Compliance Matrix: (Units=1/GPa)
#
#
# Indices 1 2 3 4 5 6 
#
# 1 0.004957 -0.001845 -0.000421 0.000000 -0.000190 0.000000
# 2 -0.001845 0.008103 -0.003685 0.000000 -0.003845 0.000000
# 3 -0.000421 -0.003685 0.023224 0.000000 0.006084 0.000000
# 4 0.000000 0.000000 0.000000 0.100658 0.000000 -0.003082
# 5 -0.000190 -0.003845 0.006084 0.000000 0.040102 0.000000
# 6 0.000000 0.000000 0.000000 -0.003082 0.000000 0.029875
#
#
# Mechanical properties :
#
#
# Convention : Reuss Voigt Hill
#
# Bulk Modulus (GPa) = 41.01479 68.05785 54.53632
# Shear Modulus (GPa) = 22.03137 36.21294 29.12216
#
# Velocity S-wave (km/s) = 2.95351 3.78660 3.39570
# Velocity P-wave (km/s) = 5.27925 6.78711 6.08011
#
# Compressibility (1/GPa) = 0.02438145
#
# Stress axis : x y z
#
# Youngs Moduli (GPa) = 201.72668 123.41086 43.05885
#
# Poissons Ratio (x) = 0.22773 0.01814
# Poissons Ratio (y) = 0.37224 0.15866
# Poissons Ratio (z) = 0.08499 0.45475
#
# Static dielectric constant tensor:
#      x y z
#    x 2.286610 0.000000 -0.007120 
#    y 0.000000 1.977910 0.000000 
#    z -0.007120 0.000000 2.038540 
# 
# From -- ./inp_files/305246.got.cif
#   From: 2010.05.17/outbox.cif.g08.bks.cpg/sg15_153_cif.got.tgz:305246.got - 2010.06.03 18:47:42.
