data_PCOD9294614
_publ_section_title
;
Structure prediction by ZEFSAII (Michael W. Deem and Ramdas Pophale) SiO2 
 PCOD9294614
Probable space group: C 2/C
;
_chemical_formula_sum "Si O2"
_cell_formula_units_Z 56
_cell_length_a 17.102172
_cell_length_b 10.713935
_cell_length_c 17.825568
_cell_angle_alpha 90.000000
_cell_angle_beta 62.111565
_cell_angle_gamma 90.000000
_cell_volume 2886.869585
_symmetry_space_group_name_H-M "C 2/C"
_symmetry_group_IT_number 15
_symmetry_cell_setting 'monoclinic'
loop_
_space_group_symop_operation_xyz
x,y,z
-x,y,1/2-z
-x,-y,-z
x,-y,1/2+z
1/2+x,1/2+y,z
1/2-x,1/2+y,1/2-z
1/2-x,1/2-y,-z
1/2+x,1/2-y,1/2+z
loop_
_atom_site_type_symbol
_atom_site_label
_atom_site_fract_x
_atom_site_fract_y
_atom_site_fract_z
Si Si1 0.200123 0.161918 0.235001
Si Si2 0.956814 0.634164 0.003038
Si Si3 0.634785 0.739304 0.420828
Si Si4 0.146459 0.831891 0.367838
Si Si5 0.214919 0.496342 0.929553
Si Si6 0.373537 0.499296 0.976492
Si Si7 0.544161 0.492483 0.803750
O O1 0.190101 0.173425 0.329409
O O2 0.253708 0.285117 0.188368
O O3 0.255772 0.056790 0.165109
O O4 0.100306 0.129233 0.255193
O O5 0.920190 0.714827 0.089872
O O6 0.864780 0.593245 0.005006
O O7 0.000000 0.500000 0.000000
O O8 0.038467 0.714379 0.934400
O O9 0.682220 0.862564 0.431599
O O10 0.621527 0.638175 0.491702
O O11 0.111667 0.915088 0.315200
O O12 0.141268 0.908583 0.446945
O O13 0.296278 0.490507 0.949973
O O14 0.466294 0.467021 0.896689
O O15 0.500000 0.549697 0.750000
#
# Coordination Sequence:
#
# PCOD9294614 Si02
#       7
#     8   8   8   8   8   8   8
#     4  11  23  39  63  93 129 167 210 270 324 383
#     4   9  20  39  62  87 124 169 211 255 324 388
#     4  11  21  40  68  89 127 174 219 263 326 387
#     4  11  23  42  63  93 127 171 211 261 330 387
#     4  10  23  41  60  98 128 167 218 269 324 382
#     4  12  23  40  67  96 127 169 221 267 319 390
#     4  12  23  42  65 100 129 163 218 271 318 374
#
# _framework density 19.398175999999999
#
# number of rings (size 3 to 8) (size 9 to 14) (size 15 to 20)
#    0.000    1.143    4.286    2.571    0.000    2.286 
#    2.571    0.000    0.000    0.000    3.714    0.000 
#    0.000    0.000    0.000    0.000    0.000    0.000 
#
# Total GULP energy -156006.127545 kJ/mol
# GULP energy per Si atom -5571.647412 kJ/mol
# Density = 1.935402 g / cm^3
# Si number density = 19.398176 Si / 1000 Ang^3
#
#
#
# Elastic Constant Matrix: (Units=GPa)
#
#
# Indices 1 2 3 4 5 6 
#
# 1 103.5349 77.7150 44.4857 0.0000 -18.4172 0.0000
# 2 77.7150 85.2608 51.9729 0.0000 -0.3889 0.0000
# 3 44.4857 51.9729 97.3500 0.0000 -13.9612 0.0000
# 4 0.0000 0.0000 0.0000 12.9422 0.0000 -14.1364
# 5 -18.4172 -0.3889 -13.9612 0.0000 31.1351 0.0000
# 6 0.0000 0.0000 0.0000 -14.1364 0.0000 24.1406
#
#
#
# Elastic Compliance Matrix: (Units=1/GPa)
#
#
# Indices 1 2 3 4 5 6 
#
# 1 0.049398 -0.050357 0.008990 0.000000 0.032622 0.000000
# 2 -0.050357 0.069256 -0.019355 0.000000 -0.037602 0.000000
# 3 0.008990 -0.019355 0.018409 0.000000 0.013331 0.000000
# 4 0.000000 0.000000 0.000000 0.214399 0.000000 0.125549
# 5 0.032622 -0.037602 0.013331 0.000000 0.056923 0.000000
# 6 0.000000 0.000000 0.000000 0.125549 0.000000 0.114944
#
#
# Mechanical properties :
#
#
# Convention : Reuss Voigt Hill
#
# Bulk Modulus (GPa) = 64.02848 70.49920 67.26384
# Shear Modulus (GPa) = 7.69253 21.10839 14.40046
#
# Velocity S-wave (km/s) = 1.99354 3.30231 2.72759
# Velocity P-wave (km/s) = 6.19500 7.13880 6.68358
#
# Compressibility (1/GPa) = 0.01561805
#
# Stress axis : x y z
#
# Youngs Moduli (GPa) = 20.24370 14.43909 54.32041
#
# Poissons Ratio (x) = 0.72712 -0.48833
# Poissons Ratio (y) = 1.01942 1.05139
# Poissons Ratio (z) = -0.18199 0.27947
#
# Static dielectric constant tensor:
#      x y z
#    x 1.680710 0.000000 -0.033880 
#    y 0.000000 1.710550 0.000000 
#    z -0.033880 0.000000 1.678060 
# 
# From -- ./inp_files/203935.got.cif
#   From: 2010.05.17/outbox.cif.g08.bks.cpg/sg15_102_cif.got.tgz:203935.got - 2010.06.03 18:47:42.
