data_PCOD9294983
_publ_section_title
;
Structure prediction by ZEFSAII (Michael W. Deem and Ramdas Pophale) SiO2 
 PCOD9294983
Probable space group: C 2/C
;
_chemical_formula_sum "Si O2"
_cell_formula_units_Z 48
_cell_length_a 10.750086
_cell_length_b 9.944666
_cell_length_c 19.603661
_cell_angle_alpha 90.000000
_cell_angle_beta 85.839393
_cell_angle_gamma 90.000000
_cell_volume 2090.226125
_symmetry_space_group_name_H-M "C 2/C"
_symmetry_group_IT_number 15
_symmetry_cell_setting 'monoclinic'
loop_
_space_group_symop_operation_xyz
x,y,z
-x,y,1/2-z
-x,-y,-z
x,-y,1/2+z
1/2+x,1/2+y,z
1/2-x,1/2+y,1/2-z
1/2-x,1/2-y,-z
1/2+x,1/2-y,1/2+z
loop_
_atom_site_type_symbol
_atom_site_label
_atom_site_fract_x
_atom_site_fract_y
_atom_site_fract_z
Si Si1 0.719902 0.790531 0.842930
Si Si2 0.044232 0.528945 0.827516
Si Si3 0.652552 0.373362 0.007225
Si Si4 0.783672 0.477455 0.394385
Si Si5 0.333280 0.695029 0.188427
Si Si6 0.448923 0.415134 0.901182
O O1 0.602108 0.887325 0.845814
O O2 0.701140 0.634700 0.859931
O O3 0.785628 0.807786 0.767027
O O4 0.820133 0.839710 0.894042
O O5 0.142608 0.649707 0.830947
O O6 0.000000 0.529239 0.750000
O O7 0.926305 0.560837 0.879246
O O8 0.732611 0.495851 0.971138
O O9 0.535688 0.359295 0.959580
O O10 0.750000 0.250000 0.000000
O O11 0.591365 0.432184 0.078395
O O12 0.765367 0.617511 0.354602
O O13 0.462476 0.616670 0.167119
#
# Coordination Sequence:
#
# PCOD9294983 Si02
#       6
#     8   8   8   8   8   8
#     4  12  23  41  70 106 141 178 230 288 358 417
#     4  12  23  43  66 102 146 179 224 281 344 429
#     4  10  25  48  69  98 140 185 246 290 338 413
#     4  11  25  44  69 103 139 181 234 287 345 418
#     4  11  21  44  71  97 147 180 219 294 349 417
#     4  10  23  41  72  98 134 185 229 289 348 404
#
# _framework density 22.964022
#
# number of rings (size 3 to 8) (size 9 to 14) (size 15 to 20)
#    0.000    1.000    5.000    0.500    4.667    4.667 
#    0.000    2.500    0.000    0.000    0.000    0.000 
#    0.000    0.000    0.000    0.000    0.000    0.000 
#
# Total GULP energy -134057.073375 kJ/mol
# GULP energy per Si atom -5585.711391 kJ/mol
# Density = 2.291176 g / cm^3
# Si number density = 22.964022 Si / 1000 Ang^3
#
#
#
# Elastic Constant Matrix: (Units=GPa)
#
#
# Indices 1 2 3 4 5 6 
#
# 1 58.3642 28.7948 2.4508 0.0000 0.5392 0.0000
# 2 28.7948 121.2694 24.7561 0.0000 -1.1347 0.0000
# 3 2.4508 24.7561 65.9896 0.0000 -22.8228 0.0000
# 4 0.0000 0.0000 0.0000 35.5436 0.0000 -1.7012
# 5 0.5392 -1.1347 -22.8228 0.0000 26.0810 0.0000
# 6 0.0000 0.0000 0.0000 -1.7012 0.0000 49.8707
#
#
#
# Elastic Compliance Matrix: (Units=1/GPa)
#
#
# Indices 1 2 3 4 5 6 
#
# 1 0.019485 -0.004884 0.001285 0.000000 0.000509 0.000000
# 2 -0.004884 0.010403 -0.005062 0.000000 -0.003876 0.000000
# 3 0.001285 -0.005062 0.024263 0.000000 0.020985 0.000000
# 4 0.000000 0.000000 0.000000 0.028180 0.000000 0.000961
# 5 0.000509 -0.003876 0.020985 0.000000 0.056526 0.000000
# 6 0.000000 0.000000 0.000000 0.000961 0.000000 0.020085
#
#
# Mechanical properties :
#
#
# Convention : Reuss Voigt Hill
#
# Bulk Modulus (GPa) = 27.15319 39.73628 33.44473
# Shear Modulus (GPa) = 26.51953 34.94048 30.73001
#
# Velocity S-wave (km/s) = 3.40197 3.90491 3.66208
# Velocity P-wave (km/s) = 5.22313 6.13778 5.69884
#
# Compressibility (1/GPa) = 0.03682809
#
# Stress axis : x y z
#
# Youngs Moduli (GPa) = 51.32214 96.12770 41.21528
#
# Poissons Ratio (x) = 0.46949 -0.05294
# Poissons Ratio (y) = 0.25066 0.20862
# Poissons Ratio (z) = -0.06593 0.48657
#
# Static dielectric constant tensor:
#      x y z
#    x 1.864540 0.000000 -0.013560 
#    y 0.000000 1.891870 0.000000 
#    z -0.013560 0.000000 1.896250 
# 
# From -- ./inp_files/267646.got.cif
#   From: 2010.05.17/outbox.cif.g08.bks.cpg/sg15_134_cif.got.tgz:267646.got - 2010.06.03 18:47:42.
