data_PCOD9294393
_publ_section_title
;
Structure prediction by ZEFSAII (Michael W. Deem and Ramdas Pophale) SiO2 
 PCOD9294393
Probable space group: C 2/C
;
_chemical_formula_sum "Si O2"
_cell_formula_units_Z 48
_cell_length_a 7.708148
_cell_length_b 32.353400
_cell_length_c 13.623355
_cell_angle_alpha 90.000000
_cell_angle_beta 46.038333
_cell_angle_gamma 90.000000
_cell_volume 2445.504901
_symmetry_space_group_name_H-M "C 2/C"
_symmetry_group_IT_number 15
_symmetry_cell_setting 'monoclinic'
loop_
_space_group_symop_operation_xyz
x,y,z
-x,y,1/2-z
-x,-y,-z
x,-y,1/2+z
1/2+x,1/2+y,z
1/2-x,1/2+y,1/2-z
1/2-x,1/2-y,-z
1/2+x,1/2-y,1/2+z
loop_
_atom_site_type_symbol
_atom_site_label
_atom_site_fract_x
_atom_site_fract_y
_atom_site_fract_z
Si Si1 0.416426 0.915647 0.183258
Si Si2 0.256588 0.349145 0.402190
Si Si3 0.280591 0.379216 0.613460
Si Si4 0.608220 0.545338 0.956922
Si Si5 0.099638 0.273411 0.922364
Si Si6 0.063528 0.792643 0.875866
O O1 0.500000 0.890851 0.250000
O O2 0.367099 0.884977 0.115027
O O3 0.639612 0.947332 0.083768
O O4 0.187273 0.940763 0.315095
O O5 0.500000 0.337640 0.250000
O O6 0.308356 0.367349 0.488720
O O7 0.085354 0.310102 0.484725
O O8 0.419672 0.421863 0.573413
O O9 0.395871 0.341224 0.627771
O O10 0.000000 0.382259 0.750000
O O11 0.500000 0.500000 0.000000
O O12 0.331197 0.283026 0.900351
O O13 0.204442 0.274389 0.771694
O O14 0.984023 0.230516 0.003051
#
# Coordination Sequence:
#
# PCOD9294393 Si02
#       6
#     8   8   8   8   8   8
#     4   8  20  39  64  88 121 160 207 254 294 390
#     4  12  22  40  62  93 122 171 203 254 315 372
#     4  12  24  39  63  91 132 158 209 266 315 371
#     4   9  20  40  66  89 119 165 202 253 316 371
#     4  10  23  40  64  84 128 165 219 255 307 374
#     4  10  23  43  58  93 120 169 213 262 311 369
#
# _framework density 19.627848
#
# number of rings (size 3 to 8) (size 9 to 14) (size 15 to 20)
#    1.000    0.667    3.333    1.000    4.667    1.333 
#    3.000    0.833    3.667    0.000    0.000    0.000 
#    0.000    0.000    0.000    0.000    0.000    0.000 
#
# Total GULP energy -133875.626799 kJ/mol
# GULP energy per Si atom -5578.151117 kJ/mol
# Density = 1.958317 g / cm^3
# Si number density = 19.627848 Si / 1000 Ang^3
#
#
#
# Elastic Constant Matrix: (Units=GPa)
#
#
# Indices 1 2 3 4 5 6 
#
# 1 24.3860 13.8655 24.9671 0.0000 -5.5626 0.0000
# 2 13.8655 127.8602 45.4632 0.0000 -29.0533 0.0000
# 3 24.9671 45.4632 122.8042 0.0000 -25.5633 0.0000
# 4 0.0000 0.0000 0.0000 33.1545 0.0000 -9.5867
# 5 -5.5626 -29.0533 -25.5633 0.0000 33.3369 0.0000
# 6 0.0000 0.0000 0.0000 -9.5867 0.0000 18.8006
#
#
#
# Elastic Compliance Matrix: (Units=1/GPa)
#
#
# Indices 1 2 3 4 5 6 
#
# 1 0.052331 -0.002348 -0.009970 0.000000 -0.000959 0.000000
# 2 -0.002348 0.010380 -0.001861 0.000000 0.007227 0.000000
# 3 -0.009970 -0.001861 0.012108 0.000000 0.005999 0.000000
# 4 0.000000 0.000000 0.000000 0.035378 0.000000 0.018040
# 5 -0.000959 0.007227 0.005999 0.000000 0.040735 0.000000
# 6 0.000000 0.000000 0.000000 0.018040 0.000000 0.062389
#
#
# Mechanical properties :
#
#
# Convention : Reuss Voigt Hill
#
# Bulk Modulus (GPa) = 21.52348 49.29354 35.40851
# Shear Modulus (GPa) = 19.44288 29.77538 24.60913
#
# Velocity S-wave (km/s) = 3.15076 3.89909 3.54473
# Velocity P-wave (km/s) = 4.92199 6.74086 5.90191
#
# Compressibility (1/GPa) = 0.04646090
#
# Stress axis : x y z
#
# Youngs Moduli (GPa) = 19.10926 96.34367 82.59248
#
# Poissons Ratio (x) = 0.22621 0.82342
# Poissons Ratio (y) = 0.04487 0.15369
# Poissons Ratio (z) = 0.19051 0.17928
#
# Static dielectric constant tensor:
#      x y z
#    x 1.717910 0.000000 -0.001710 
#    y 0.000000 1.650510 0.000000 
#    z -0.001710 0.000000 1.705850 
# 
# From -- ./inp_files/139385.got.cif
#   From: 2010.05.17/outbox.cif.g08.bks.cpg/sg15_70_cif.got.tgz:139385.got - 2010.06.03 18:47:42.
