data_PCOD9294880
_publ_section_title
;
Structure prediction by ZEFSAII (Michael W. Deem and Ramdas Pophale) SiO2 
 PCOD9294880
Probable space group: C 2/C
;
_chemical_formula_sum "Si O2"
_cell_formula_units_Z 52
_cell_length_a 7.850829
_cell_length_b 17.764374
_cell_length_c 17.753252
_cell_angle_alpha 90.000000
_cell_angle_beta 107.379192
_cell_angle_gamma 90.000000
_cell_volume 2362.928096
_symmetry_space_group_name_H-M "C 2/C"
_symmetry_group_IT_number 15
_symmetry_cell_setting 'monoclinic'
loop_
_space_group_symop_operation_xyz
x,y,z
-x,y,1/2-z
-x,-y,-z
x,-y,1/2+z
1/2+x,1/2+y,z
1/2-x,1/2+y,1/2-z
1/2-x,1/2-y,-z
1/2+x,1/2-y,1/2+z
loop_
_atom_site_type_symbol
_atom_site_label
_atom_site_fract_x
_atom_site_fract_y
_atom_site_fract_z
Si Si1 0.578831 0.744254 0.109163
Si Si2 0.565132 0.380553 0.496323
Si Si3 0.947919 0.192532 0.661512
Si Si4 0.500000 0.656751 0.250000
Si Si5 0.606627 0.012916 0.434961
Si Si6 0.108501 0.642766 0.142263
Si Si7 0.676740 0.858594 0.476578
O O1 0.733544 0.805172 0.132549
O O2 0.566347 0.702830 0.186344
O O3 0.386633 0.781519 0.069410
O O4 0.646695 0.691369 0.050018
O O5 0.507192 0.357871 0.404745
O O6 0.701909 0.448831 0.521019
O O7 0.380170 0.382841 0.517060
O O8 0.000000 0.162901 0.750000
O O9 0.035424 0.277104 0.664363
O O10 0.309900 0.623251 0.195814
O O11 0.515016 0.069171 0.363617
O O12 0.500000 0.000000 0.500000
O O13 0.616719 0.926014 0.413347
O O14 0.096703 0.648728 0.049655
#
# Coordination Sequence:
#
# PCOD9294880 Si02
#       7
#     8   8   8   4   8   8   8
#     4  12  23  39  69  97 131 169 220 275 331 391
#     4  12  22  41  69  97 124 174 223 270 325 398
#     4  12  23  37  64  96 130 164 216 275 328 385
#     4  12  24  38  66  98 134 160 214 282 328 380
#     4  10  23  41  68  92 130 170 223 266 324 404
#     4  11  21  41  62  95 125 169 211 269 328 387
#     4  11  23  41  69  96 127 171 222 272 324 403
#
# _framework density 22.006594
#
# number of rings (size 3 to 8) (size 9 to 14) (size 15 to 20)
#    0.000    0.615    6.154    4.154    0.000    0.000 
#    0.000    0.000   20.308    0.000    0.000    0.000 
#    0.000    0.000    0.000    0.000    0.000    0.000 
#
# Total GULP energy -144822.795552 kJ/mol
# GULP energy per Si atom -5570.107521 kJ/mol
# Density = 2.195651 g / cm^3
# Si number density = 22.006594 Si / 1000 Ang^3
#
#
#
# Elastic Constant Matrix: (Units=GPa)
#
#
# Indices 1 2 3 4 5 6 
#
# 1 74.0191 11.4760 -11.1425 0.0000 5.6039 0.0000
# 2 11.4760 76.1952 26.3092 0.0000 5.1602 0.0000
# 3 -11.1425 26.3092 92.6733 0.0000 -9.1637 0.0000
# 4 0.0000 0.0000 0.0000 8.9533 0.0000 6.2070
# 5 5.6039 5.1602 -9.1637 0.0000 38.1793 0.0000
# 6 0.0000 0.0000 0.0000 6.2070 0.0000 33.9091
#
#
#
# Elastic Compliance Matrix: (Units=1/GPa)
#
#
# Indices 1 2 3 4 5 6 
#
# 1 0.014422 -0.002945 0.002458 0.000000 -0.001129 0.000000
# 2 -0.002945 0.015502 -0.005039 0.000000 -0.002872 0.000000
# 3 0.002458 -0.005039 0.012853 0.000000 0.003405 0.000000
# 4 0.000000 0.000000 0.000000 0.127925 0.000000 -0.023416
# 5 -0.001129 -0.002872 0.003405 0.000000 0.027563 0.000000
# 6 0.000000 0.000000 0.000000 -0.023416 0.000000 0.033777
#
#
# Mechanical properties :
#
#
# Convention : Reuss Voigt Hill
#
# Bulk Modulus (GPa) = 31.51868 32.90811 32.21340
# Shear Modulus (GPa) = 19.71075 30.62466 25.16770
#
# Velocity S-wave (km/s) = 2.99603 3.73448 3.38545
# Velocity P-wave (km/s) = 5.13047 5.79494 5.47280
#
# Compressibility (1/GPa) = 0.03172722
#
# Stress axis : x y z
#
# Youngs Moduli (GPa) = 69.33811 64.50736 77.80028
#
# Poissons Ratio (x) = 0.18994 -0.19126
# Poissons Ratio (y) = 0.20417 0.39204
# Poissons Ratio (z) = -0.17046 0.32505
#
# Static dielectric constant tensor:
#      x y z
#    x 1.924580 0.000000 0.015930 
#    y 0.000000 1.905500 0.000000 
#    z 0.015930 0.000000 1.766710 
# 
# From -- ./inp_files/190553.got.cif
#   From: 2010.05.17/outbox.cif.g08.bks.cpg/sg15_96_cif.got.tgz:190553.got - 2010.06.03 18:47:42.
