data_PCOD9294722
_publ_section_title
;
Structure prediction by ZEFSAII (Michael W. Deem and Ramdas Pophale) SiO2 
 PCOD9294722
Probable space group: C 2/C
;
_chemical_formula_sum "Si O2"
_cell_formula_units_Z 56
_cell_length_a 10.659909
_cell_length_b 10.285433
_cell_length_c 26.043035
_cell_angle_alpha 90.000000
_cell_angle_beta 69.819136
_cell_angle_gamma 90.000000
_cell_volume 2680.106546
_symmetry_space_group_name_H-M "C 2/C"
_symmetry_group_IT_number 15
_symmetry_cell_setting 'monoclinic'
loop_
_space_group_symop_operation_xyz
x,y,z
-x,y,1/2-z
-x,-y,-z
x,-y,1/2+z
1/2+x,1/2+y,z
1/2-x,1/2+y,1/2-z
1/2-x,1/2-y,-z
1/2+x,1/2-y,1/2+z
loop_
_atom_site_type_symbol
_atom_site_label
_atom_site_fract_x
_atom_site_fract_y
_atom_site_fract_z
Si Si1 0.888722 0.338117 0.167410
Si Si2 0.428347 0.093092 0.207423
Si Si3 0.188978 0.002566 0.928633
Si Si4 0.347396 0.752610 0.867451
Si Si5 0.881110 0.029846 0.944002
Si Si6 0.643155 0.329948 0.731201
Si Si7 0.836682 0.225946 0.390782
O O1 0.938492 0.484769 0.162300
O O2 0.748128 0.317616 0.160236
O O3 0.881410 0.291182 0.227517
O O4 0.005940 0.257103 0.124316
O O5 0.500000 0.056978 0.250000
O O6 0.505701 0.219868 0.176224
O O7 0.270317 0.102709 0.238436
O O8 0.278836 0.892022 0.888959
O O9 0.253363 0.146562 0.917373
O O10 0.170815 0.963202 0.990624
O O11 0.041341 0.009468 0.924745
O O12 0.353934 0.659940 0.915680
O O13 0.812835 0.906272 0.925320
O O14 0.500000 0.402310 0.750000
O O15 0.681304 0.296657 0.667670
#
# Coordination Sequence:
#
# PCOD9294722 Si02
#       7
#     8   8   8   8   8   8   8
#     4  11  23  41  66  98 134 177 220 279 329 415
#     4  12  23  43  66 100 138 180 226 271 342 411
#     4  11  24  45  69  94 135 181 228 283 348 398
#     4  12  24  44  68 102 137 174 227 283 344 397
#     4  11  25  43  68 100 131 176 235 286 336 405
#     4  10  23  41  64  99 134 178 219 276 333 409
#     4  11  21  44  68  95 136 182 220 277 346 400
#
# _framework density 20.894691000000002
#
# number of rings (size 3 to 8) (size 9 to 14) (size 15 to 20)
#    0.000    0.857    4.286    3.857    0.000    0.000 
#    7.714    0.714    0.000    0.000    0.000    0.000 
#    0.000    0.000    0.000    0.000    0.000    0.000 
#
# Total GULP energy -156399.278909 kJ/mol
# GULP energy per Si atom -5585.688532 kJ/mol
# Density = 2.084713 g / cm^3
# Si number density = 20.894691 Si / 1000 Ang^3
#
#
#
# Elastic Constant Matrix: (Units=GPa)
#
#
# Indices 1 2 3 4 5 6 
#
# 1 134.2251 30.6663 29.6721 0.0000 6.8328 0.0000
# 2 30.6663 73.3402 7.9110 0.0000 3.2256 0.0000
# 3 29.6721 7.9110 43.9450 0.0000 3.9088 0.0000
# 4 0.0000 0.0000 0.0000 26.7331 0.0000 -4.6955
# 5 6.8328 3.2256 3.9088 0.0000 20.5611 0.0000
# 6 0.0000 0.0000 0.0000 -4.6955 0.0000 27.9078
#
#
#
# Elastic Compliance Matrix: (Units=1/GPa)
#
#
# Indices 1 2 3 4 5 6 
#
# 1 0.009548 -0.003307 -0.005712 0.000000 -0.001568 0.000000
# 2 -0.003307 0.015112 -0.000381 0.000000 -0.001199 0.000000
# 3 -0.005712 -0.000381 0.026963 0.000000 -0.003168 0.000000
# 4 0.000000 0.000000 0.000000 0.038546 0.000000 0.006485
# 5 -0.001568 -0.001199 -0.003168 0.000000 0.049947 0.000000
# 6 0.000000 0.000000 0.000000 0.006485 0.000000 0.036923
#
#
# Mechanical properties :
#
#
# Convention : Reuss Voigt Hill
#
# Bulk Modulus (GPa) = 30.46671 43.11212 36.78941
# Shear Modulus (GPa) = 24.18018 27.25782 25.71900
#
# Velocity S-wave (km/s) = 3.40551 3.61575 3.51221
# Velocity P-wave (km/s) = 5.48417 6.17328 5.83890
#
# Compressibility (1/GPa) = 0.03282271
#
# Stress axis : x y z
#
# Youngs Moduli (GPa) = 104.72937 66.17334 37.08789
#
# Poissons Ratio (x) = 0.21886 0.21186
# Poissons Ratio (y) = 0.34638 0.01411
# Poissons Ratio (z) = 0.59824 0.02518
#
# Static dielectric constant tensor:
#      x y z
#    x 1.771360 0.000000 -0.024690 
#    y 0.000000 1.788050 0.000000 
#    z -0.024690 0.000000 1.735890 
# 
# From -- ./inp_files/291494.got.cif
#   From: 2010.05.17/outbox.cif.g08.bks.cpg/sg15_146_cif.got.tgz:291494.got - 2010.06.03 18:47:42.
