data_PCOD9294180
_publ_section_title
;
Structure prediction by ZEFSAII (Michael W. Deem and Ramdas Pophale) SiO2 
 PCOD9294180
Probable space group: C 2/C
;
_chemical_formula_sum "Si O2"
_cell_formula_units_Z 64
_cell_length_a 8.779515
_cell_length_b 26.866772
_cell_length_c 14.517359
_cell_angle_alpha 90.000000
_cell_angle_beta 70.145389
_cell_angle_gamma 90.000000
_cell_volume 3220.764506
_symmetry_space_group_name_H-M "C 2/C"
_symmetry_group_IT_number 15
_symmetry_cell_setting 'monoclinic'
loop_
_space_group_symop_operation_xyz
x,y,z
-x,y,1/2-z
-x,-y,-z
x,-y,1/2+z
1/2+x,1/2+y,z
1/2-x,1/2+y,1/2-z
1/2-x,1/2-y,-z
1/2+x,1/2-y,1/2+z
loop_
_atom_site_type_symbol
_atom_site_label
_atom_site_fract_x
_atom_site_fract_y
_atom_site_fract_z
Si Si1 0.249041 0.864326 0.594699
Si Si2 0.190677 0.831137 0.235411
Si Si3 0.684135 0.788261 0.750845
Si Si4 0.205316 0.198546 0.463520
Si Si5 0.976895 0.039868 0.355847
Si Si6 0.100349 0.859375 0.436378
Si Si7 0.892277 0.378650 0.026304
Si Si8 0.860862 0.049193 0.003569
O O1 0.276849 0.823455 0.669474
O O2 0.126295 0.909897 0.642039
O O3 0.175535 0.842117 0.516514
O O4 0.418244 0.886695 0.522496
O O5 0.204288 0.771846 0.252338
O O6 0.220343 0.857298 0.326980
O O7 0.312709 0.853864 0.134317
O O8 0.000000 0.841708 0.250000
O O9 0.500000 0.795598 0.750000
O O10 0.807764 0.801731 0.643015
O O11 0.250000 0.250000 0.500000
O O12 0.349923 0.161871 0.457639
O O13 0.047144 0.178835 0.546557
O O14 0.000000 0.016774 0.250000
O O15 0.139982 0.048259 0.384077
O O16 0.888405 0.002251 0.444574
O O17 0.012530 0.912881 0.457440
O O18 0.791330 0.426082 0.014556
#
# Coordination Sequence:
#
# PCOD9294180 Si02
#       8
#     8   8   8   8   8   8   8   8
#     4  11  26  40  56  95 134 162 199 264 325 371
#     4  11  20  37  64  92 114 171 228 246 300 371
#     4  11  22  35  61  90 128 167 210 253 306 376
#     4  11  19  38  60  86 119 164 214 256 293 364
#     4  10  23  41  67  93 120 156 212 260 323 382
#     4  10  23  39  63  88 122 159 213 263 308 369
#     4  11  22  38  64  87 126 163 203 258 314 371
#     4   9  21  42  66  90 117 157 208 266 307 375
#
# _framework density 19.871058000000001
#
# number of rings (size 3 to 8) (size 9 to 14) (size 15 to 20)
#    0.000    1.500    5.000    0.750    7.000    1.500 
#    0.000    1.250    0.000    0.000    0.000    0.000 
#    0.000    0.000    0.000    0.000    0.000    0.000 
#
# Total GULP energy -178151.855865 kJ/mol
# GULP energy per Si atom -5567.245496 kJ/mol
# Density = 1.982583 g / cm^3
# Si number density = 19.871058 Si / 1000 Ang^3
#
#
#
# Elastic Constant Matrix: (Units=GPa)
#
#
# Indices 1 2 3 4 5 6 
#
# 1 63.1918 17.2144 29.4862 0.0000 6.4995 0.0000
# 2 17.2144 52.6963 8.9601 0.0000 10.2641 0.0000
# 3 29.4862 8.9601 134.3764 0.0000 15.0566 0.0000
# 4 0.0000 0.0000 0.0000 19.9720 0.0000 14.2350
# 5 6.4995 10.2641 15.0566 0.0000 27.6139 0.0000
# 6 0.0000 0.0000 0.0000 14.2350 0.0000 12.2992
#
#
#
# Elastic Compliance Matrix: (Units=1/GPa)
#
#
# Indices 1 2 3 4 5 6 
#
# 1 0.019139 -0.005534 -0.003788 0.000000 -0.000383 0.000000
# 2 -0.005534 0.022095 0.000549 0.000000 -0.007210 0.000000
# 3 -0.003788 0.000549 0.008690 0.000000 -0.004051 0.000000
# 4 0.000000 0.000000 0.000000 0.285997 0.000000 -0.331011
# 5 -0.000383 -0.007210 -0.004051 0.000000 0.041192 0.000000
# 6 0.000000 0.000000 0.000000 -0.331011 0.000000 0.464416
#
#
# Mechanical properties :
#
#
# Convention : Reuss Voigt Hill
#
# Bulk Modulus (GPa) = 30.88396 40.17619 35.53008
# Shear Modulus (GPa) = 5.74800 24.95060 15.34930
#
# Velocity S-wave (km/s) = 1.70262 3.54732 2.78230
# Velocity P-wave (km/s) = 4.40921 6.08608 5.31420
#
# Compressibility (1/GPa) = 0.03237926
#
# Stress axis : x y z
#
# Youngs Moduli (GPa) = 52.24914 45.25855 115.07157
#
# Poissons Ratio (x) = 0.25044 0.43587
# Poissons Ratio (y) = 0.28913 -0.06315
# Poissons Ratio (z) = 0.19791 -0.02484
#
# Static dielectric constant tensor:
#      x y z
#    x 1.726940 0.000000 0.013650 
#    y 0.000000 1.735520 0.000000 
#    z 0.013650 0.000000 1.750140 
# 
# From -- ./inp_files/138584.got.cif
#   From: 2010.05.17/outbox.cif.g08.bks.cpg/sg15_70_cif.got.tgz:138584.got - 2010.06.03 18:47:42.
