data_PCOD9294434
_publ_section_title
;
Structure prediction by ZEFSAII (Michael W. Deem and Ramdas Pophale) SiO2 
 PCOD9294434
Probable space group: C 2/C
;
_chemical_formula_sum "Si O2"
_cell_formula_units_Z 44
_cell_length_a 13.898406
_cell_length_b 29.309095
_cell_length_c 13.583411
_cell_angle_alpha 90.000000
_cell_angle_beta 157.883490
_cell_angle_gamma 90.000000
_cell_volume 2083.200681
_symmetry_space_group_name_H-M "C 2/C"
_symmetry_group_IT_number 15
_symmetry_cell_setting 'monoclinic'
loop_
_space_group_symop_operation_xyz
x,y,z
-x,y,1/2-z
-x,-y,-z
x,-y,1/2+z
1/2+x,1/2+y,z
1/2-x,1/2+y,1/2-z
1/2-x,1/2-y,-z
1/2+x,1/2-y,1/2+z
loop_
_atom_site_type_symbol
_atom_site_label
_atom_site_fract_x
_atom_site_fract_y
_atom_site_fract_z
Si Si1 0.134815 0.081479 0.784580
Si Si2 0.468588 0.723093 0.338014
Si Si3 0.336130 0.371345 0.400875
Si Si4 0.576916 0.938711 0.469679
Si Si5 0.500000 0.575995 0.250000
Si Si6 0.175783 0.468229 0.772931
O O1 0.130361 0.111391 0.679878
O O2 0.000000 0.106583 0.750000
O O3 0.926702 0.041886 0.571463
O O4 0.416916 0.058735 0.061779
O O5 0.500000 0.714355 0.250000
O O6 0.671271 0.762489 0.562501
O O7 0.567467 0.679917 0.493641
O O8 0.469508 0.395156 0.621827
O O9 0.044889 0.388385 0.146835
O O10 0.723211 0.947913 0.709583
O O11 0.744770 0.949994 0.534388
O O12 0.363779 0.978020 0.275081
#
# Coordination Sequence:
#
# PCOD9294434 Si02
#       6
#     8   8   8   8   4   8
#     4  11  24  41  64  88 124 171 216 258 302 360
#     4  10  23  40  65  93 125 160 197 248 318 393
#     4  11  24  40  62  92 128 160 207 257 316 373
#     4  10  24  37  61  89 129 166 213 262 314 363
#     4  12  22  36  60  90 124 162 202 260 314 372
#     4  10  23  42  60  88 125 171 220 260 301 357
#
# _framework density 21.121345000000002
#
# number of rings (size 3 to 8) (size 9 to 14) (size 15 to 20)
#    0.000    1.455    2.727    1.091    6.364    5.091 
#    0.000    0.000    0.000    1.091    0.000    0.000 
#    0.000    0.000    0.000    0.000    0.000    0.000 
#
# Total GULP energy -122651.879516 kJ/mol
# GULP energy per Si atom -5575.085433 kJ/mol
# Density = 2.107327 g / cm^3
# Si number density = 21.121345 Si / 1000 Ang^3
#
#
#
# Elastic Constant Matrix: (Units=GPa)
#
#
# Indices 1 2 3 4 5 6 
#
# 1 136.6168 22.4271 38.9283 0.0009 6.0013 0.0001
# 2 22.4271 63.1190 22.5132 0.0007 -6.5570 0.0001
# 3 38.9283 22.5132 106.2176 0.0035 -0.1411 -0.0003
# 4 0.0009 0.0007 0.0035 29.6885 0.0006 -13.4156
# 5 6.0013 -6.5570 -0.1411 0.0006 37.0149 -0.0001
# 6 0.0001 0.0001 -0.0003 -13.4156 -0.0001 13.1115
#
#
#
# Elastic Compliance Matrix: (Units=1/GPa)
#
#
# Indices 1 2 3 4 5 6 
#
# 1 0.008525 -0.002272 -0.002645 0.000000 -0.001795 0.000000
# 2 -0.002272 0.018089 -0.002997 0.000000 0.003561 -0.000001
# 3 -0.002645 -0.002997 0.011019 -0.000002 -0.000060 -0.000002
# 4 0.000000 0.000000 -0.000002 0.062650 -0.000001 0.064103
# 5 -0.001795 0.003561 -0.000060 -0.000001 0.027938 -0.000001
# 6 0.000000 -0.000001 -0.000002 0.064103 -0.000001 0.141858
#
#
# Mechanical properties :
#
#
# Convention : Reuss Voigt Hill
#
# Bulk Modulus (GPa) = 45.85964 52.63229 49.24597
# Shear Modulus (GPa) = 17.05458 30.76864 23.91161
#
# Velocity S-wave (km/s) = 2.84466 3.82089 3.36833
# Velocity P-wave (km/s) = 5.70518 6.66623 6.20434
#
# Compressibility (1/GPa) = 0.02180567
#
# Stress axis : x y z
#
# Youngs Moduli (GPa) = 117.29728 55.28164 90.75079
#
# Poissons Ratio (x) = 0.12561 0.24006
# Poissons Ratio (y) = 0.26651 0.27195
# Poissons Ratio (z) = 0.31029 0.16566
#
# Static dielectric constant tensor:
#      x y z
#    x 1.860580 0.000000 0.016690 
#    y 0.000000 1.761790 0.000000 
#    z 0.016690 0.000000 1.934170 
# 
# From -- ./inp_files/157568.got.cif
#   From: 2010.05.17/outbox.cif.g08.bks.cpg/sg15_79_cif.got.tgz:157568.got - 2010.06.03 18:47:42.
