data_PCOD9294417
_publ_section_title
;
Structure prediction by ZEFSAII (Michael W. Deem and Ramdas Pophale) SiO2 
 PCOD9294417
Probable space group: C 2/C
;
_chemical_formula_sum "Si O2"
_cell_formula_units_Z 36
_cell_length_a 6.572934
_cell_length_b 30.723086
_cell_length_c 10.639247
_cell_angle_alpha 90.000000
_cell_angle_beta 116.222941
_cell_angle_gamma 90.000000
_cell_volume 1927.378056
_symmetry_space_group_name_H-M "C 2/C"
_symmetry_group_IT_number 15
_symmetry_cell_setting 'monoclinic'
loop_
_space_group_symop_operation_xyz
x,y,z
-x,y,1/2-z
-x,-y,-z
x,-y,1/2+z
1/2+x,1/2+y,z
1/2-x,1/2+y,1/2-z
1/2-x,1/2-y,-z
1/2+x,1/2-y,1/2+z
loop_
_atom_site_type_symbol
_atom_site_label
_atom_site_fract_x
_atom_site_fract_y
_atom_site_fract_z
Si Si1 0.046493 0.062018 0.116700
Si Si2 0.500000 0.224292 0.250000
Si Si3 0.252556 0.217530 0.618583
Si Si4 0.927947 0.836707 0.875833
Si Si5 0.637201 0.012082 0.910797
O O1 0.119843 0.112020 0.129774
O O2 0.000000 0.050472 0.250000
O O3 0.224728 0.030539 0.097727
O O4 0.808642 0.051042 0.987371
O O5 0.406220 0.256811 0.328631
O O6 0.290658 0.193037 0.154561
O O7 0.500000 0.211132 0.750000
O O8 0.250000 0.250000 0.500000
O O9 0.129086 0.175323 0.527260
O O10 0.000000 0.827309 0.750000
O O11 0.500000 0.024829 0.750000
O O12 0.500000 0.000000 0.000000
#
# Coordination Sequence:
#
# PCOD9294417 Si02
#       5
#     8   4   8   8   8
#     4  10  23  40  64  98 125 162 214 255 312 383
#     4  12  22  38  70  86 126 168 212 250 322 366
#     4  12  23  42  62  92 125 164 213 261 314 372
#     4  11  24  41  64  95 129 165 213 261 308 379
#     4  11  22  41  68  93 127 168 207 259 322 377
#
# _framework density 18.678224
#
# number of rings (size 3 to 8) (size 9 to 14) (size 15 to 20)
#    0.000    0.889    6.667    0.667    1.556    0.889 
#    0.000    2.222    0.000    0.000    0.000    0.000 
#    0.000    0.000    0.000    0.000    0.000    0.000 
#
# Total GULP energy -100423.239075 kJ/mol
# GULP energy per Si atom -5579.068837 kJ/mol
# Density = 1.863571 g / cm^3
# Si number density = 18.678224 Si / 1000 Ang^3
#
#
#
# Elastic Constant Matrix: (Units=GPa)
#
#
# Indices 1 2 3 4 5 6 
#
# 1 114.9820 35.1424 58.4018 0.0000 -18.5729 0.0000
# 2 35.1424 58.0128 23.1311 0.0000 -7.3084 0.0000
# 3 58.4018 23.1311 159.3370 0.0000 8.9673 0.0000
# 4 0.0000 0.0000 0.0000 28.8728 0.0000 -4.1783
# 5 -18.5729 -7.3084 8.9673 0.0000 37.9759 0.0000
# 6 0.0000 0.0000 0.0000 -4.1783 0.0000 4.9168
#
#
#
# Elastic Compliance Matrix: (Units=1/GPa)
#
#
# Indices 1 2 3 4 5 6 
#
# 1 0.013902 -0.005711 -0.004649 0.000000 0.006798 0.000000
# 2 -0.005711 0.021330 -0.001091 0.000000 0.001569 0.000000
# 3 -0.004649 -0.001091 0.008390 0.000000 -0.004465 0.000000
# 4 0.000000 0.000000 0.000000 0.039491 0.000000 0.033560
# 5 0.006798 0.001569 -0.004465 0.000000 0.031013 0.000000
# 6 0.000000 0.000000 0.000000 0.033560 0.000000 0.231906
#
#
# Mechanical properties :
#
#
# Convention : Reuss Voigt Hill
#
# Bulk Modulus (GPa) = 48.26636 62.85361 55.55998
# Shear Modulus (GPa) = 13.30347 28.73020 21.01683
#
# Velocity S-wave (km/s) = 2.67169 3.92620 3.35805
# Velocity P-wave (km/s) = 5.95099 7.36731 6.69670
#
# Compressibility (1/GPa) = 0.02071836
#
# Stress axis : x y z
#
# Youngs Moduli (GPa) = 71.93273 46.88176 119.19394
#
# Poissons Ratio (x) = 0.26776 0.55412
# Poissons Ratio (y) = 0.41083 0.13010
# Poissons Ratio (z) = 0.33441 0.05117
#
# Static dielectric constant tensor:
#      x y z
#    x 1.613940 0.000000 -0.033290 
#    y 0.000000 1.625800 0.000000 
#    z -0.033290 0.000000 1.520670 
# 
# From -- ./inp_files/73535.got.cif
#   From: 2010.05.17/outbox.cif.g08.bks.cpg/sg15_37_cif.got.tgz:73535.got - 2010.06.03 18:47:42.
