data_PCOD9294976
_publ_section_title
;
Structure prediction by ZEFSAII (Michael W. Deem and Ramdas Pophale) SiO2 
 PCOD9294976
Probable space group: C 2/C
;
_chemical_formula_sum "Si O2"
_cell_formula_units_Z 44
_cell_length_a 25.450973
_cell_length_b 10.866806
_cell_length_c 15.455593
_cell_angle_alpha 90.000000
_cell_angle_beta 27.644679
_cell_angle_gamma 90.000000
_cell_volume 1983.342620
_symmetry_space_group_name_H-M "C 2/C"
_symmetry_group_IT_number 15
_symmetry_cell_setting 'monoclinic'
loop_
_space_group_symop_operation_xyz
x,y,z
-x,y,1/2-z
-x,-y,-z
x,-y,1/2+z
1/2+x,1/2+y,z
1/2-x,1/2+y,1/2-z
1/2-x,1/2-y,-z
1/2+x,1/2-y,1/2+z
loop_
_atom_site_type_symbol
_atom_site_label
_atom_site_fract_x
_atom_site_fract_y
_atom_site_fract_z
Si Si1 0.078202 0.049410 0.209134
Si Si2 0.000000 0.569984 0.250000
Si Si3 0.459550 0.876968 0.007558
Si Si4 0.224061 0.764152 0.391047
Si Si5 0.750010 0.499743 0.584494
Si Si6 0.403036 0.679582 0.586685
O O1 0.184661 0.974676 0.090220
O O2 0.000000 0.988079 0.250000
O O3 0.993235 0.089159 0.409043
O O4 0.134041 0.170927 0.085369
O O5 0.970438 0.628389 0.387078
O O6 0.884736 0.501591 0.391430
O O7 0.534023 0.765923 0.937588
O O8 0.328118 0.855375 0.222366
O O9 0.500000 0.000000 0.000000
O O10 0.276334 0.640365 0.352175
O O11 0.155559 0.739816 0.402923
O O12 0.694578 0.596197 0.730034
#
# Coordination Sequence:
#
# PCOD9294976 Si02
#       6
#     8   4   8   8   8   8
#     4  10  23  41  72 108 137 186 245 297 354 415
#     4  12  28  46  72 106 146 196 234 294 368 436
#     4  12  26  48  72 105 149 189 237 297 366 436
#     4  11  24  44  73 107 139 184 249 296 352 428
#     4  12  24  46  72 104 143 188 245 300 355 428
#     4  11  25  45  71 106 142 188 231 302 366 426
#
# _framework density 22.18477
#
# number of rings (size 3 to 8) (size 9 to 14) (size 15 to 20)
#    0.000    0.727    3.636    3.273    6.364    0.727 
#    1.636    0.000    0.000    0.000    0.000    0.000 
#    0.000    0.000    0.000    0.000    0.000    0.000 
#
# Total GULP energy -122878.922053 kJ/mol
# GULP energy per Si atom -5585.405548 kJ/mol
# Density = 2.213428 g / cm^3
# Si number density = 22.184770 Si / 1000 Ang^3
#
#
#
# Elastic Constant Matrix: (Units=GPa)
#
#
# Indices 1 2 3 4 5 6 
#
# 1 173.4819 8.3903 40.2136 0.0000 -21.7247 0.0000
# 2 8.3903 0.5507 37.2184 0.0000 0.0405 0.0000
# 3 40.2136 37.2184 89.1961 0.0000 -12.5397 0.0000
# 4 0.0000 0.0000 0.0000 14.4512 0.0000 -8.3835
# 5 -21.7247 0.0405 -12.5397 0.0000 43.0840 0.0000
# 6 0.0000 0.0000 0.0000 -8.3835 0.0000 32.5277
#
#
#
# Elastic Compliance Matrix: (Units=1/GPa)
#
#
# Indices 1 2 3 4 5 6 
#
# 1 0.006593 -0.002670 -0.001450 0.000000 0.002905 0.000000
# 2 -0.002670 -0.062808 0.028392 0.000000 0.006976 0.000000
# 3 -0.001450 0.028392 -0.000092 0.000000 -0.000785 0.000000
# 4 0.000000 0.000000 0.000000 0.081364 0.000000 0.020970
# 5 0.002905 0.006976 -0.000785 0.000000 0.024440 0.000000
# 6 0.000000 0.000000 0.000000 0.020970 0.000000 0.036148
#
#
# Mechanical properties :
#
#
# Convention : Reuss Voigt Hill
#
# Bulk Modulus (GPa) = -128.81532 48.31924 -40.24804
# Shear Modulus (GPa) = 144.87306 29.83969 87.35637
#
# Velocity S-wave (km/s) = 8.08979 3.67147 6.28190
# Velocity P-wave (km/s) = 5.39155 6.30877 5.86811
#
# Compressibility (1/GPa) = -0.00776305
#
# Stress axis : x y z
#
# Youngs Moduli (GPa) = 151.66817 -15.92151 -10824.89125
#
# Poissons Ratio (x) = -0.04251 -15.69626
# Poissons Ratio (y) = 0.40497 307.34207
# Poissons Ratio (z) = 0.21992 0.45205
#
# Static dielectric constant tensor:
#      x y z
#    x 1.898290 0.000000 0.007550 
#    y 0.000000 1.780080 0.000000 
#    z 0.007550 0.000000 1.817700 
# 
# From -- ./inp_files/151745.got.cif
#   From: 2010.05.17/outbox.cif.g08.bks.cpg/sg15_76_cif.got.tgz:151745.got - 2010.06.03 18:47:42.
