data_PCOD9294248
_publ_section_title
;
Structure prediction by ZEFSAII (Michael W. Deem and Ramdas Pophale) SiO2 
 PCOD9294248
Probable space group: C 2/C
;
_chemical_formula_sum "Si O2"
_cell_formula_units_Z 60
_cell_length_a 8.977406
_cell_length_b 26.893909
_cell_length_c 16.052693
_cell_angle_alpha 90.000000
_cell_angle_beta 129.574536
_cell_angle_gamma 90.000000
_cell_volume 2987.393334
_symmetry_space_group_name_H-M "C 2/C"
_symmetry_group_IT_number 15
_symmetry_cell_setting 'monoclinic'
loop_
_space_group_symop_operation_xyz
x,y,z
-x,y,1/2-z
-x,-y,-z
x,-y,1/2+z
1/2+x,1/2+y,z
1/2-x,1/2+y,1/2-z
1/2-x,1/2-y,-z
1/2+x,1/2-y,1/2+z
loop_
_atom_site_type_symbol
_atom_site_label
_atom_site_fract_x
_atom_site_fract_y
_atom_site_fract_z
Si Si1 0.500000 0.700013 0.750000
Si Si2 0.026251 0.384954 0.668875
Si Si3 0.200773 0.792853 0.920062
Si Si4 0.354275 0.548454 0.270636
Si Si5 0.123711 0.963848 0.103964
Si Si6 0.131582 0.884968 0.987507
Si Si7 0.607764 0.630283 0.943651
Si Si8 0.259608 0.216785 0.255272
O O1 0.574068 0.665759 0.852905
O O2 0.663579 0.736886 0.770424
O O3 0.176079 0.419566 0.673324
O O4 0.131360 0.333549 0.728470
O O5 0.000000 0.410338 0.750000
O O6 0.828730 0.375065 0.550608
O O7 0.252150 0.847040 0.974886
O O8 0.297011 0.778959 0.867198
O O9 0.968377 0.792507 0.831014
O O10 0.250000 0.750000 0.000000
O O11 0.500000 0.533447 0.250000
O O12 0.283594 0.500649 0.296905
O O13 0.477012 0.585422 0.375313
O O14 0.981751 0.924996 0.100471
O O15 0.237690 0.927113 0.081384
O O16 0.000000 0.000000 0.000000
O O17 0.012954 0.853887 0.016023
#
# Coordination Sequence:
#
# PCOD9294248 Si02
#       8
#     4   8   8   8   8   8   8   8
#     4  12  26  42  60  94 140 178 214 262 340 392
#     4  12  20  39  64  95 124 158 227 275 315 371
#     4  11  22  40  61  89 129 171 214 265 316 385
#     4  11  20  35  65  97 125 159 208 275 324 379
#     4   8  18  37  62  89 120 162 209 252 334 382
#     4   9  18  38  62  91 118 167 209 259 320 371
#     4  10  23  39  66  91 132 170 213 270 326 393
#     4  11  25  38  61  96 125 171 224 263 320 386
#
# _framework density 20.084399000000001
#
# number of rings (size 3 to 8) (size 9 to 14) (size 15 to 20)
#    0.800    0.800    3.333    1.600    2.800    0.533 
#    0.000    0.667    0.000    4.800    0.000    0.000 
#    0.000    0.000    0.000    0.000    0.000    0.000 
#
# Total GULP energy -167122.619470 kJ/mol
# GULP energy per Si atom -5570.753982 kJ/mol
# Density = 2.003869 g / cm^3
# Si number density = 20.084399 Si / 1000 Ang^3
#
#
#
# Elastic Constant Matrix: (Units=GPa)
#
#
# Indices 1 2 3 4 5 6 
#
# 1 62.3563 23.0878 13.2360 0.0000 -22.3914 0.0000
# 2 23.0878 112.5097 24.3620 0.0000 -12.7353 0.0000
# 3 13.2360 24.3620 49.8947 0.0000 -13.8935 0.0000
# 4 0.0000 0.0000 0.0000 24.8765 0.0000 -13.4047
# 5 -22.3914 -12.7353 -13.8935 0.0000 30.7354 0.0000
# 6 0.0000 0.0000 0.0000 -13.4047 0.0000 35.2717
#
#
#
# Elastic Compliance Matrix: (Units=1/GPa)
#
#
# Indices 1 2 3 4 5 6 
#
# 1 0.022598 -0.002840 -0.000402 0.000000 0.015104 0.000000
# 2 -0.002840 0.010428 -0.004246 0.000000 0.000332 0.000000
# 3 -0.000402 -0.004246 0.024768 0.000000 0.009144 0.000000
# 4 0.000000 0.000000 0.000000 0.050551 0.000000 0.019211
# 5 0.015104 0.000332 0.009144 0.000000 0.047811 0.000000
# 6 0.000000 0.000000 0.000000 0.019211 0.000000 0.035653
#
#
# Mechanical properties :
#
#
# Convention : Reuss Voigt Hill
#
# Bulk Modulus (GPa) = 23.35476 38.45912 30.90694
# Shear Modulus (GPa) = 22.61869 29.11503 25.86686
#
# Velocity S-wave (km/s) = 3.35950 3.81154 3.59264
# Velocity P-wave (km/s) = 5.16739 6.20973 5.71238
#
# Compressibility (1/GPa) = 0.04281782
#
# Stress axis : x y z
#
# Youngs Moduli (GPa) = 44.25238 95.89633 40.37461
#
# Poissons Ratio (x) = 0.27239 0.01623
# Poissons Ratio (y) = 0.12570 0.17141
# Poissons Ratio (z) = 0.01778 0.40713
#
# Static dielectric constant tensor:
#      x y z
#    x 1.813840 0.000000 -0.091150 
#    y 0.000000 1.728480 0.000000 
#    z -0.091150 0.000000 1.678910 
# 
# From -- ./inp_files/194012.got.cif
#   From: 2010.05.17/outbox.cif.g08.bks.cpg/sg15_98_cif.got.tgz:194012.got - 2010.06.03 18:47:42.
