data_PCOD9294561
_publ_section_title
;
Structure prediction by ZEFSAII (Michael W. Deem and Ramdas Pophale) SiO2 
 PCOD9294561
Probable space group: C 2/C
;
_chemical_formula_sum "Si O2"
_cell_formula_units_Z 40
_cell_length_a 18.042730
_cell_length_b 7.094805
_cell_length_c 15.909338
_cell_angle_alpha 90.000000
_cell_angle_beta 117.568692
_cell_angle_gamma 90.000000
_cell_volume 1805.312139
_symmetry_space_group_name_H-M "C 2/C"
_symmetry_group_IT_number 15
_symmetry_cell_setting 'monoclinic'
loop_
_space_group_symop_operation_xyz
x,y,z
-x,y,1/2-z
-x,-y,-z
x,-y,1/2+z
1/2+x,1/2+y,z
1/2-x,1/2+y,1/2-z
1/2-x,1/2-y,-z
1/2+x,1/2-y,1/2+z
loop_
_atom_site_type_symbol
_atom_site_label
_atom_site_fract_x
_atom_site_fract_y
_atom_site_fract_z
Si Si1 0.265901 0.528137 0.010751
Si Si2 0.339569 0.590027 0.224248
Si Si3 0.664730 0.030327 0.707877
Si Si4 0.534038 0.704056 0.674108
Si Si5 0.869579 0.264378 0.483731
O O1 0.323380 0.501438 0.124199
O O2 0.181498 0.411630 0.984006
O O3 0.250000 0.750000 0.000000
O O4 0.316226 0.429104 0.962162
O O5 0.340675 0.815677 0.221523
O O6 0.258570 0.533630 0.236228
O O7 0.423497 0.501439 0.305035
O O8 0.632376 0.143184 0.608723
O O9 0.607765 0.851654 0.695053
O O10 0.500000 0.736853 0.750000
O O11 0.460776 0.729826 0.568537
#
# Coordination Sequence:
#
# PCOD9294561 Si02
#       5
#     8   8   8   8   8
#     4  10  23  40  69  96 140 178 223 272 349 401
#     4  11  24  42  68 101 129 184 225 275 336 409
#     4  11  25  42  71  94 136 179 227 275 345 398
#     4  12  25  44  68 100 142 170 229 286 333 399
#     4  10  24  43  63 102 134 177 224 285 330 403
#
# _framework density 22.156834
#
# number of rings (size 3 to 8) (size 9 to 14) (size 15 to 20)
#    0.000    1.200    4.000    0.600    5.600    3.200 
#    0.000    0.000    0.000    0.000    0.000    0.000 
#    0.000    0.000    0.000    0.000    0.000    0.000 
#
# Total GULP energy -111945.095271 kJ/mol
# GULP energy per Si atom -5597.254764 kJ/mol
# Density = 2.210640 g / cm^3
# Si number density = 22.156834 Si / 1000 Ang^3
#
#
#
# Elastic Constant Matrix: (Units=GPa)
#
#
# Indices 1 2 3 4 5 6 
#
# 1 53.4598 -0.2597 9.8148 0.0000 -6.2573 0.0000
# 2 -0.2597 99.9575 -12.6741 0.0000 2.6341 0.0000
# 3 9.8148 -12.6741 65.4305 0.0000 14.7282 0.0000
# 4 0.0000 0.0000 0.0000 32.3560 0.0000 2.6279
# 5 -6.2573 2.6341 14.7282 0.0000 31.8687 0.0000
# 6 0.0000 0.0000 0.0000 2.6279 0.0000 30.3913
#
#
#
# Elastic Compliance Matrix: (Units=1/GPa)
#
#
# Indices 1 2 3 4 5 6 
#
# 1 0.020257 -0.000686 -0.004553 0.000000 0.006138 0.000000
# 2 -0.000686 0.010392 0.002611 0.000000 -0.002200 0.000000
# 3 -0.004553 0.002611 0.018664 0.000000 -0.009735 0.000000
# 4 0.000000 0.000000 0.000000 0.031125 0.000000 -0.002691
# 5 0.006138 -0.002200 -0.009735 0.000000 0.037265 0.000000
# 6 0.000000 0.000000 0.000000 -0.002691 0.000000 0.033137
#
#
# Mechanical properties :
#
#
# Convention : Reuss Voigt Hill
#
# Bulk Modulus (GPa) = 22.69909 23.62333 23.16121
# Shear Modulus (GPa) = 29.27731 33.72099 31.49915
#
# Velocity S-wave (km/s) = 3.63901 3.90541 3.77456
# Velocity P-wave (km/s) = 5.28426 5.56968 5.42885
#
# Compressibility (1/GPa) = 0.04405464
#
# Stress axis : x y z
#
# Youngs Moduli (GPa) = 49.36627 96.23218 53.58021
#
# Poissons Ratio (x) = 0.06606 0.24397
# Poissons Ratio (y) = 0.03389 -0.13991
# Poissons Ratio (z) = 0.22478 -0.25128
#
# Static dielectric constant tensor:
#      x y z
#    x 1.777800 0.000000 -0.029460 
#    y 0.000000 1.803550 0.000000 
#    z -0.029460 0.000000 1.831240 
# 
# From -- ./inp_files/251143.got.cif
#   From: 2010.05.17/outbox.cif.g08.bks.cpg/sg15_126_cif.got.tgz:251143.got - 2010.06.03 18:47:42.
