data_PCOD9294276
_publ_section_title
;
Structure prediction by ZEFSAII (Michael W. Deem and Ramdas Pophale) SiO2 
 PCOD9294276
Probable space group: C 2/C
;
_chemical_formula_sum "Si O2"
_cell_formula_units_Z 40
_cell_length_a 15.255014
_cell_length_b 10.164352
_cell_length_c 9.639296
_cell_angle_alpha 90.000000
_cell_angle_beta 71.080730
_cell_angle_gamma 90.000000
_cell_volume 1413.897443
_symmetry_space_group_name_H-M "C 2/C"
_symmetry_group_IT_number 15
_symmetry_cell_setting 'monoclinic'
loop_
_space_group_symop_operation_xyz
x,y,z
-x,y,1/2-z
-x,-y,-z
x,-y,1/2+z
1/2+x,1/2+y,z
1/2-x,1/2+y,1/2-z
1/2-x,1/2-y,-z
1/2+x,1/2-y,1/2+z
loop_
_atom_site_type_symbol
_atom_site_label
_atom_site_fract_x
_atom_site_fract_y
_atom_site_fract_z
Si Si1 0.888759 0.886268 0.194524
Si Si2 0.391370 0.983706 0.807950
Si Si3 0.064838 0.152522 0.504542
Si Si4 0.272244 0.999979 0.616891
Si Si5 0.609507 0.283345 0.711974
O O1 0.908509 0.872495 0.349962
O O2 0.959446 0.797108 0.075237
O O3 0.780425 0.895108 0.255243
O O4 0.916763 0.020284 0.096489
O O5 0.500000 0.946980 0.750000
O O6 0.386887 0.138517 0.851953
O O7 0.349732 0.947015 0.680708
O O8 0.317046 0.933428 0.959265
O O9 0.115930 0.246840 0.373777
O O10 0.191165 0.887211 0.628091
O O11 0.500000 0.329099 0.750000
#
# Coordination Sequence:
#
# PCOD9294276 Si02
#       5
#     8   8   8   8   8
#     4   9  18  30  56  94 126 165 209 256 330 388
#     4  11  25  46  66  92 131 182 229 267 318 398
#     4   9  18  31  53  92 138 165 193 262 335 396
#     4  11  22  40  70  95 129 178 221 270 330 393
#     4  10  23  39  69 100 136 166 221 270 336 399
#
# _framework density 28.290597000000002
#
# number of rings (size 3 to 8) (size 9 to 14) (size 15 to 20)
#    0.000    2.000    0.000    3.600   19.600    0.000 
#    0.000    4.000   13.200    1.200    0.000    0.000 
#    0.000    0.000    0.000    0.000    0.000    0.000 
#
# Total GULP energy -111412.085523 kJ/mol
# GULP energy per Si atom -5570.604276 kJ/mol
# Density = 2.822621 g / cm^3
# Si number density = 28.290597 Si / 1000 Ang^3
#
#
#
# Elastic Constant Matrix: (Units=GPa)
#
#
# Indices 1 2 3 4 5 6 
#
# 1 174.1184 46.5230 30.9918 0.0000 -27.2084 0.0000
# 2 46.5230 56.6676 22.6992 0.0000 -3.0358 0.0000
# 3 30.9918 22.6992 187.5052 0.0000 -16.4736 0.0000
# 4 0.0000 0.0000 0.0000 6.0813 0.0000 14.7643
# 5 -27.2084 -3.0358 -16.4736 0.0000 58.8296 0.0000
# 6 0.0000 0.0000 0.0000 14.7643 0.0000 26.3427
#
#
#
# Elastic Compliance Matrix: (Units=1/GPa)
#
#
# Indices 1 2 3 4 5 6 
#
# 1 0.007980 -0.006267 -0.000271 0.000000 0.003291 0.000000
# 2 -0.006267 0.023474 -0.002003 0.000000 -0.002248 0.000000
# 3 -0.000271 -0.002003 0.005742 0.000000 0.001379 0.000000
# 4 0.000000 0.000000 0.000000 -0.455852 0.000000 0.255492
# 5 0.003291 -0.002248 0.001379 0.000000 0.018791 0.000000
# 6 0.000000 0.000000 0.000000 0.255492 0.000000 -0.105235
#
#
# Mechanical properties :
#
#
# Convention : Reuss Voigt Hill
#
# Bulk Modulus (GPa) = 49.71898 68.74660 59.23279
# Shear Modulus (GPa) = -10.38823 39.45586 14.53381
#
# Velocity S-wave (km/s) = -1.91832 3.73857 2.26903
# Velocity P-wave (km/s) = 3.56454 6.55658 5.27706
#
# Compressibility (1/GPa) = 0.02011304
#
# Stress axis : x y z
#
# Youngs Moduli (GPa) = 125.30972 42.60098 174.16461
#
# Poissons Ratio (x) = 0.26697 0.04723
# Poissons Ratio (y) = 0.78527 0.34892
# Poissons Ratio (z) = 0.03398 0.08535
#
# Static dielectric constant tensor:
#      x y z
#    x 2.333990 0.000000 0.034470 
#    y 0.000000 2.540350 0.000000 
#    z 0.034470 0.000000 2.138150 
# 
# From -- ./inp_files/37796.got.cif
#   From: 2010.05.17/outbox.cif.g08.bks.cpg/sg15_19_cif.got.tgz:37796.got - 2010.06.03 18:47:42.
