data_PCOD9294364
_publ_section_title
;
Structure prediction by ZEFSAII (Michael W. Deem and Ramdas Pophale) SiO2 
 PCOD9294364
Probable space group: C 2/C
;
_chemical_formula_sum "Si O2"
_cell_formula_units_Z 40
_cell_length_a 22.368916
_cell_length_b 16.014387
_cell_length_c 8.587584
_cell_angle_alpha 90.000000
_cell_angle_beta 140.170938
_cell_angle_gamma 90.000000
_cell_volume 1970.357011
_symmetry_space_group_name_H-M "C 2/C"
_symmetry_group_IT_number 15
_symmetry_cell_setting 'monoclinic'
loop_
_space_group_symop_operation_xyz
x,y,z
-x,y,1/2-z
-x,-y,-z
x,-y,1/2+z
1/2+x,1/2+y,z
1/2-x,1/2+y,1/2-z
1/2-x,1/2-y,-z
1/2+x,1/2-y,1/2+z
loop_
_atom_site_type_symbol
_atom_site_label
_atom_site_fract_x
_atom_site_fract_y
_atom_site_fract_z
Si Si1 0.907872 0.779134 0.173263
Si Si2 0.487465 0.593115 0.408701
Si Si3 0.576696 0.891501 0.638572
Si Si4 0.381052 0.934089 0.132361
Si Si5 0.703870 0.666022 0.340616
O O1 0.884863 0.693357 0.213675
O O2 0.000000 0.764484 0.250000
O O3 0.936665 0.848188 0.356373
O O4 0.829384 0.812679 0.900619
O O5 0.500000 0.592035 0.250000
O O6 0.500000 0.500000 0.500000
O O7 0.387163 0.632848 0.251592
O O8 0.464607 0.885721 0.389051
O O9 0.612797 0.913059 0.537955
O O10 0.598792 0.969025 0.794858
O O11 0.282311 0.904843 0.997788
O O12 0.750000 0.750000 0.500000
#
# Coordination Sequence:
#
# PCOD9294364 Si02
#       5
#     8   8   8   8   8
#     4  10  23  42  68  96 135 180 223 278 346 410
#     4  11  25  48  75  99 138 188 229 283 355 425
#     4  10  23  40  67  93 138 179 223 268 358 400
#     4  10  23  40  62  99 132 176 222 282 331 415
#     4  11  25  44  68 102 137 175 237 288 339 407
#
# _framework density 20.300889000000002
#
# number of rings (size 3 to 8) (size 9 to 14) (size 15 to 20)
#    0.000    1.600    0.000    4.200   14.000    4.000 
#    0.000    0.000    0.000    0.000    0.000    0.000 
#    0.000    0.000    0.000    0.000    0.000    0.000 
#
# Total GULP energy -111871.415042 kJ/mol
# GULP energy per Si atom -5593.570752 kJ/mol
# Density = 2.025468 g / cm^3
# Si number density = 20.300889 Si / 1000 Ang^3
#
#
#
# Elastic Constant Matrix: (Units=GPa)
#
#
# Indices 1 2 3 4 5 6 
#
# 1 79.5590 54.6838 74.5178 0.0000 -20.9353 0.0000
# 2 54.6838 116.6924 61.7360 0.0000 -19.1517 0.0000
# 3 74.5178 61.7360 124.0499 0.0000 -13.5445 0.0000
# 4 0.0000 0.0000 0.0000 42.1522 0.0000 -8.5478
# 5 -20.9353 -19.1517 -13.5445 0.0000 39.6710 0.0000
# 6 0.0000 0.0000 0.0000 -8.5478 0.0000 25.5218
#
#
#
# Elastic Compliance Matrix: (Units=1/GPa)
#
#
# Indices 1 2 3 4 5 6 
#
# 1 0.035333 -0.005795 -0.017253 0.000000 0.009958 0.000000
# 2 -0.005795 0.013155 -0.002811 0.000000 0.002333 0.000000
# 3 -0.017253 -0.002811 0.019406 0.000000 -0.003837 0.000000
# 4 0.000000 0.000000 0.000000 0.025452 0.000000 0.008524
# 5 0.009958 0.002333 -0.003837 0.000000 0.030279 0.000000
# 6 0.000000 0.000000 0.000000 0.008524 0.000000 0.042037
#
#
# Mechanical properties :
#
#
# Convention : Reuss Voigt Hill
#
# Bulk Modulus (GPa) = 61.82610 78.01960 69.92285
# Shear Modulus (GPa) = 22.44435 30.09325 26.26880
#
# Velocity S-wave (km/s) = 3.32864 3.85432 3.60109
# Velocity P-wave (km/s) = 6.73009 7.63693 7.19781
#
# Compressibility (1/GPa) = 0.01617440
#
# Stress axis : x y z
#
# Youngs Moduli (GPa) = 28.30202 76.01456 51.53154
#
# Poissons Ratio (x) = 0.44054 0.88910
# Poissons Ratio (y) = 0.16402 0.14485
# Poissons Ratio (z) = 0.48831 0.21367
#
# Static dielectric constant tensor:
#      x y z
#    x 1.704180 0.000000 -0.003390 
#    y 0.000000 1.700810 0.000000 
#    z -0.003390 0.000000 1.748290 
# 
# From -- ./inp_files/61754.got.cif
#   From: 2010.05.17/outbox.cif.g08.bks.cpg/sg15_31_cif.got.tgz:61754.got - 2010.06.03 18:47:42.
