data_PCOD9294500
_publ_section_title
;
Structure prediction by ZEFSAII (Michael W. Deem and Ramdas Pophale) SiO2 
 PCOD9294500
Probable space group: C 2/C
;
_chemical_formula_sum "Si O2"
_cell_formula_units_Z 40
_cell_length_a 5.329355
_cell_length_b 18.028669
_cell_length_c 22.953059
_cell_angle_alpha 90.000000
_cell_angle_beta 123.815495
_cell_angle_gamma 90.000000
_cell_volume 1832.285509
_symmetry_space_group_name_H-M "C 2/C"
_symmetry_group_IT_number 15
_symmetry_cell_setting 'monoclinic'
loop_
_space_group_symop_operation_xyz
x,y,z
-x,y,1/2-z
-x,-y,-z
x,-y,1/2+z
1/2+x,1/2+y,z
1/2-x,1/2+y,1/2-z
1/2-x,1/2-y,-z
1/2+x,1/2-y,1/2+z
loop_
_atom_site_type_symbol
_atom_site_label
_atom_site_fract_x
_atom_site_fract_y
_atom_site_fract_z
Si Si1 0.148505 0.591433 0.621982
Si Si2 0.744664 0.333359 0.667012
Si Si3 0.550947 0.207749 0.823630
Si Si4 0.760887 0.492011 0.165617
Si Si5 0.786398 0.216246 0.567888
O O1 0.441865 0.543511 0.643920
O O2 0.068897 0.646760 0.557285
O O3 0.194554 0.657538 0.675229
O O4 0.906824 0.540344 0.624762
O O5 0.460877 0.293780 0.660578
O O6 0.720893 0.419866 0.653012
O O7 0.778219 0.283614 0.613466
O O8 0.000000 0.321616 0.750000
O O9 0.500000 0.199182 0.750000
O O10 0.880223 0.181750 0.884356
O O11 0.000000 0.480177 0.250000
O O12 0.750000 0.250000 0.500000
#
# Coordination Sequence:
#
# PCOD9294500 Si02
#       5
#     8   8   8   8   8
#     4  11  24  41  65  98 133 174 221 273 335 393
#     4  10  23  40  67 101 136 176 224 279 337 399
#     4  11  22  40  73  98 135 173 232 279 330 389
#     4  11  24  39  66 101 138 172 219 282 340 394
#     4  11  25  45  70  99 137 181 226 276 335 399
#
# _framework density 21.830658
#
# number of rings (size 3 to 8) (size 9 to 14) (size 15 to 20)
#    0.000    1.200    4.000    1.200    5.600    3.200 
#    0.000    2.000    0.000    0.000    0.000    0.000 
#    0.000    0.000    0.000    0.000    0.000    0.000 
#
# Total GULP energy -111485.157019 kJ/mol
# GULP energy per Si atom -5574.257851 kJ/mol
# Density = 2.178097 g / cm^3
# Si number density = 21.830658 Si / 1000 Ang^3
#
#
#
# Elastic Constant Matrix: (Units=GPa)
#
#
# Indices 1 2 3 4 5 6 
#
# 1 106.2460 56.5641 15.7647 0.0000 -15.3998 0.0000
# 2 56.5641 182.5531 21.6148 0.0000 -22.2783 0.0000
# 3 15.7647 21.6148 64.9392 0.0000 -23.2805 0.0000
# 4 0.0000 0.0000 0.0000 9.0233 0.0000 -2.4300
# 5 -15.3998 -22.2783 -23.2805 0.0000 22.5836 0.0000
# 6 0.0000 0.0000 0.0000 -2.4300 0.0000 45.3399
#
#
#
# Elastic Compliance Matrix: (Units=1/GPa)
#
#
# Indices 1 2 3 4 5 6 
#
# 1 0.011753 -0.003029 -0.000068 0.000000 0.004956 0.000000
# 2 -0.003029 0.007010 0.000223 0.000000 0.005080 0.000000
# 3 -0.000068 0.000223 0.024433 0.000000 0.025361 0.000000
# 4 0.000000 0.000000 0.000000 0.112447 0.000000 0.006027
# 5 0.004956 0.005080 0.025361 0.000000 0.078814 0.000000
# 6 0.000000 0.000000 0.000000 0.006027 0.000000 0.022379
#
#
# Mechanical properties :
#
#
# Convention : Reuss Voigt Hill
#
# Bulk Modulus (GPa) = 26.70358 60.18063 43.44211
# Shear Modulus (GPa) = 18.17742 32.70900 25.44321
#
# Velocity S-wave (km/s) = 2.88871 3.87499 3.41762
# Velocity P-wave (km/s) = 4.83579 6.90273 5.95955
#
# Compressibility (1/GPa) = 0.03744816
#
# Stress axis : x y z
#
# Youngs Moduli (GPa) = 85.08387 142.65697 40.92821
#
# Poissons Ratio (x) = 0.43208 0.00279
# Poissons Ratio (y) = 0.25770 -0.00913
# Poissons Ratio (z) = 0.00581 -0.03183
#
# Static dielectric constant tensor:
#      x y z
#    x 1.886770 0.000000 -0.008340 
#    y 0.000000 1.843470 0.000000 
#    z -0.008340 0.000000 1.797580 
# 
# From -- ./inp_files/184335.got.cif
#   From: 2010.05.17/outbox.cif.g08.bks.cpg/sg15_93_cif.got.tgz:184335.got - 2010.06.03 18:47:42.
