data_PCOD9294816
_publ_section_title
;
Structure prediction by ZEFSAII (Michael W. Deem and Ramdas Pophale) SiO2 
 PCOD9294816
Probable space group: C 2/C
;
_chemical_formula_sum "Si O2"
_cell_formula_units_Z 32
_cell_length_a 11.126130
_cell_length_b 24.966637
_cell_length_c 7.376768
_cell_angle_alpha 90.000000
_cell_angle_beta 39.950729
_cell_angle_gamma 90.000000
_cell_volume 1315.807412
_symmetry_space_group_name_H-M "C 2/C"
_symmetry_group_IT_number 15
_symmetry_cell_setting 'monoclinic'
loop_
_space_group_symop_operation_xyz
x,y,z
-x,y,1/2-z
-x,-y,-z
x,-y,1/2+z
1/2+x,1/2+y,z
1/2-x,1/2+y,1/2-z
1/2-x,1/2-y,-z
1/2+x,1/2-y,1/2+z
loop_
_atom_site_type_symbol
_atom_site_label
_atom_site_fract_x
_atom_site_fract_y
_atom_site_fract_z
Si Si1 0.773541 0.425724 0.976547
Si Si2 0.800224 0.417813 0.524382
Si Si3 0.667244 0.302709 0.686801
Si Si4 0.000000 0.169819 0.750000
Si Si5 0.000000 0.014941 0.250000
O O1 0.750394 0.433330 0.786194
O O2 0.000000 0.425556 0.750000
O O3 0.665014 0.369479 0.136562
O O4 0.635732 0.473509 0.203407
O O5 0.802328 0.353632 0.528702
O O6 0.662964 0.440639 0.532366
O O7 0.000000 0.441004 0.250000
O O8 0.500000 0.319473 0.750000
O O9 0.750000 0.250000 0.500000
O O10 0.587933 0.296880 0.982609
#
# Coordination Sequence:
#
# PCOD9294816 Si02
#       5
#     8   8   8   4   4
#     4  10  23  41  67 100 139 185 230 279 353 424
#     4  11  24  40  66  98 136 181 233 289 346 419
#     4  11  24  46  72 102 138 183 240 293 358 424
#     4   9  24  46  70 104 146 184 228 297 352 420
#     4  11  22  40  64 100 142 182 232 285 348 424
#
# _framework density 24.319669000000001
#
# number of rings (size 3 to 8) (size 9 to 14) (size 15 to 20)
#    0.000    1.500    1.250    2.250    3.500    7.000 
#    0.000    0.000    0.000    0.000    0.000    0.000 
#    0.000    0.000    0.000    0.000    0.000    0.000 
#
# Total GULP energy -89142.290861 kJ/mol
# GULP energy per Si atom -5571.393179 kJ/mol
# Density = 2.426432 g / cm^3
# Si number density = 24.319669 Si / 1000 Ang^3
#
#
#
# Elastic Constant Matrix: (Units=GPa)
#
#
# Indices 1 2 3 4 5 6 
#
# 1 95.4002 51.5071 67.7126 0.0000 -8.4138 0.0000
# 2 51.5071 124.5928 66.6583 0.0000 17.1306 0.0000
# 3 67.7126 66.6583 153.8882 0.0000 -20.9034 0.0000
# 4 0.0000 0.0000 0.0000 -4.1793 0.0000 -4.4428
# 5 -8.4138 17.1306 -20.9034 0.0000 70.2191 0.0000
# 6 0.0000 0.0000 0.0000 -4.4428 0.0000 5.5368
#
#
#
# Elastic Compliance Matrix: (Units=1/GPa)
#
#
# Indices 1 2 3 4 5 6 
#
# 1 0.016665 -0.004261 -0.005289 0.000000 0.001462 0.000000
# 2 -0.004261 0.012780 -0.004329 0.000000 -0.004917 0.000000
# 3 -0.005289 -0.004329 0.011211 0.000000 0.003760 0.000000
# 4 0.000000 0.000000 0.000000 -0.129129 0.000000 -0.103613
# 5 0.001462 -0.004917 0.003760 0.000000 0.016735 0.000000
# 6 0.000000 0.000000 0.000000 -0.103613 0.000000 0.097469
#
#
# Mechanical properties :
#
#
# Convention : Reuss Voigt Hill
#
# Bulk Modulus (GPa) = 77.52332 82.84859 80.18596
# Shear Modulus (GPa) = 86.52490 26.84888 56.68689
#
# Velocity S-wave (km/s) = 5.97121 3.32625 4.83318
# Velocity P-wave (km/s) = 8.91552 6.99231 8.01183
#
# Compressibility (1/GPa) = 0.01289934
#
# Stress axis : x y z
#
# Youngs Moduli (GPa) = 60.00441 78.25015 89.19854
#
# Poissons Ratio (x) = 0.33343 0.47174
# Poissons Ratio (y) = 0.25568 0.38610
# Poissons Ratio (z) = 0.31734 0.33871
#
# Static dielectric constant tensor:
#      x y z
#    x 1.842410 0.000000 -0.043810 
#    y 0.000000 2.024630 0.000000 
#    z -0.043810 0.000000 1.965820 
# 
# From -- ./inp_files/31641.got.cif
#   From: 2010.05.17/outbox.cif.g08.bks.cpg/sg15_16_cif.got.tgz:31641.got - 2010.06.03 18:47:42.
