data_PCOD9294632
_publ_section_title
;
Structure prediction by ZEFSAII (Michael W. Deem and Ramdas Pophale) SiO2 
 PCOD9294632
Probable space group: C 2/C
;
_chemical_formula_sum "Si O2"
_cell_formula_units_Z 40
_cell_length_a 24.018295
_cell_length_b 5.536150
_cell_length_c 24.521924
_cell_angle_alpha 90.000000
_cell_angle_beta 33.507927
_cell_angle_gamma 90.000000
_cell_volume 1800.051076
_symmetry_space_group_name_H-M "C 2/C"
_symmetry_group_IT_number 15
_symmetry_cell_setting 'monoclinic'
loop_
_space_group_symop_operation_xyz
x,y,z
-x,y,1/2-z
-x,-y,-z
x,-y,1/2+z
1/2+x,1/2+y,z
1/2-x,1/2+y,1/2-z
1/2-x,1/2-y,-z
1/2+x,1/2-y,1/2+z
loop_
_atom_site_type_symbol
_atom_site_label
_atom_site_fract_x
_atom_site_fract_y
_atom_site_fract_z
Si Si1 0.091244 0.924826 0.028274
Si Si2 0.404393 0.329644 0.861694
Si Si3 0.244247 0.363867 0.182244
Si Si4 0.641918 0.635054 0.794430
Si Si5 0.782008 0.567589 0.521889
O O1 0.162592 0.689699 0.973168
O O2 0.979201 0.882951 0.097575
O O3 0.074028 0.989237 0.106083
O O4 0.166054 0.110387 0.936081
O O5 0.500000 0.263406 0.750000
O O6 0.359874 0.104806 0.929125
O O7 0.321265 0.423798 0.887020
O O8 0.302721 0.364310 0.192314
O O9 0.174204 0.608870 0.239437
O O10 0.180424 0.114230 0.234367
O O11 0.750000 0.750000 0.500000
#
# Coordination Sequence:
#
# PCOD9294632 Si02
#       5
#     8   8   8   8   8
#     4  11  24  39  69  95 129 177 226 271 337 399
#     4  10  23  41  62  90 132 172 223 277 337 388
#     4  10  24  44  67 100 142 168 227 276 332 402
#     4  10  24  44  68 101 135 181 213 279 339 401
#     4   9  22  42  58  91 125 169 216 280 324 395
#
# _framework density 22.221592000000001
#
# number of rings (size 3 to 8) (size 9 to 14) (size 15 to 20)
#    0.000    2.000    0.000    0.600    8.400    6.400 
#    0.000    6.000    0.000    0.000    0.000    0.000 
#    0.000    0.000    0.000    0.000    0.000    0.000 
#
# Total GULP energy -111554.430282 kJ/mol
# GULP energy per Si atom -5577.721514 kJ/mol
# Density = 2.217101 g / cm^3
# Si number density = 22.221592 Si / 1000 Ang^3
#
#
#
# Elastic Constant Matrix: (Units=GPa)
#
#
# Indices 1 2 3 4 5 6 
#
# 1 58.1325 23.7867 7.1173 -0.0050 -21.5035 0.0458
# 2 23.7867 106.7623 24.8920 -0.0373 -9.1254 0.0134
# 3 7.1173 24.8920 127.0133 0.0369 5.4018 0.0152
# 4 -0.0050 -0.0373 0.0369 76.2399 0.0035 19.9495
# 5 -21.5035 -9.1254 5.4018 0.0035 52.6684 -0.0334
# 6 0.0458 0.0134 0.0152 19.9495 -0.0334 29.2437
#
#
#
# Elastic Compliance Matrix: (Units=1/GPa)
#
#
# Indices 1 2 3 4 5 6 
#
# 1 0.022043 -0.004006 -0.000807 0.000007 0.008388 -0.000027
# 2 -0.004006 0.010737 -0.001898 0.000006 0.000419 -0.000001
# 3 -0.000807 -0.001898 0.008355 -0.000005 -0.001515 -0.000001
# 4 0.000007 0.000006 -0.000005 0.015967 -0.000004 -0.010892
# 5 0.008388 0.000419 -0.001515 -0.000004 0.022640 0.000016
# 6 -0.000027 -0.000001 -0.000001 -0.010892 0.000016 0.041626
#
#
# Mechanical properties :
#
#
# Convention : Reuss Voigt Hill
#
# Bulk Modulus (GPa) = 36.08281 44.83333 40.45807
# Shear Modulus (GPa) = 34.71584 47.37122 41.04353
#
# Velocity S-wave (km/s) = 3.95683 4.62211 4.30235
# Velocity P-wave (km/s) = 6.09494 6.97887 6.55183
#
# Compressibility (1/GPa) = 0.02771403
#
# Stress axis : x y z
#
# Youngs Moduli (GPa) = 45.36590 93.13195 119.69251
#
# Poissons Ratio (x) = 0.37309 0.09657
# Poissons Ratio (y) = 0.18174 0.22714
# Poissons Ratio (z) = 0.03660 0.17673
#
# Static dielectric constant tensor:
#      x y z
#    x -4.610500 2.664500 -4.287620 
#    y 2.664500 -79.735300 1.820340 
#    z -4.287620 1.820340 -1.060070 
# 
# From -- ./inp_files/120720.got.cif
#   From: 2010.05.17/outbox.cif.g08.bks.cpg/sg15_61_cif.got.tgz:120720.got - 2010.06.03 18:47:42.
