data_PCOD9294808
_publ_section_title
;
Structure prediction by ZEFSAII (Michael W. Deem and Ramdas Pophale) SiO2 
 PCOD9294808
Probable space group: C 2/C
;
_chemical_formula_sum "Si O2"
_cell_formula_units_Z 40
_cell_length_a 4.940402
_cell_length_b 13.003156
_cell_length_c 27.445392
_cell_angle_alpha 90.000000
_cell_angle_beta 103.148086
_cell_angle_gamma 90.000000
_cell_volume 1716.895099
_symmetry_space_group_name_H-M "C 2/C"
_symmetry_group_IT_number 15
_symmetry_cell_setting 'monoclinic'
loop_
_space_group_symop_operation_xyz
x,y,z
-x,y,1/2-z
-x,-y,-z
x,-y,1/2+z
1/2+x,1/2+y,z
1/2-x,1/2+y,1/2-z
1/2-x,1/2-y,-z
1/2+x,1/2-y,1/2+z
loop_
_atom_site_type_symbol
_atom_site_label
_atom_site_fract_x
_atom_site_fract_y
_atom_site_fract_z
Si Si1 0.500000 0.448982 0.250000
Si Si2 0.662120 0.839144 0.035187
Si Si3 0.310502 0.577734 0.041994
Si Si4 0.231628 0.125572 0.202272
Si Si5 0.874544 0.336745 0.598969
Si Si6 0.500000 0.201985 0.750000
O O1 0.546748 0.525669 0.206503
O O2 0.754110 0.373378 0.253566
O O3 0.776492 0.782105 0.087972
O O4 0.775306 0.955266 0.037596
O O5 0.750000 0.750000 0.000000
O O6 0.337966 0.864575 0.009824
O O7 0.630519 0.600044 0.062301
O O8 0.151611 0.628634 0.082026
O O9 0.500000 0.127984 0.250000
O O10 0.357316 0.133056 0.154217
O O11 0.020989 0.218827 0.205778
#
# Coordination Sequence:
#
# PCOD9294808 Si02
#       6
#     4   8   8   8   8   4
#     4  11  24  43  66  90 130 175 222 289 340 396
#     4   9  21  43  67  96 135 170 215 274 335 396
#     4  10  23  41  66  99 130 174 215 270 337 402
#     4  11  26  44  69  99 138 180 235 282 336 405
#     4  11  25  40  66  96 134 170 224 272 328 396
#     4  11  24  45  70  94 126 181 232 279 346 388
#
# _framework density 23.297872000000002
#
# number of rings (size 3 to 8) (size 9 to 14) (size 15 to 20)
#    0.000    1.600    2.000    0.600    5.600   13.600 
#    0.000    0.000    0.000    0.000    0.000    0.000 
#    0.000    0.000    0.000    0.000    0.000    0.000 
#
# Total GULP energy -111551.348535 kJ/mol
# GULP energy per Si atom -5577.567427 kJ/mol
# Density = 2.324485 g / cm^3
# Si number density = 23.297872 Si / 1000 Ang^3
#
#
#
# Elastic Constant Matrix: (Units=GPa)
#
#
# Indices 1 2 3 4 5 6 
#
# 1 71.7496 27.9781 14.0039 0.0000 -17.5334 0.0000
# 2 27.9781 183.5019 16.0316 0.0000 -1.1422 0.0000
# 3 14.0039 16.0316 85.6154 0.0000 -20.9235 0.0000
# 4 0.0000 0.0000 0.0000 14.5561 0.0000 -15.0952
# 5 -17.5334 -1.1422 -20.9235 0.0000 34.7023 0.0000
# 6 0.0000 0.0000 0.0000 -15.0952 0.0000 41.0751
#
#
#
# Elastic Compliance Matrix: (Units=1/GPa)
#
#
# Indices 1 2 3 4 5 6 
#
# 1 0.017012 -0.002518 -0.000271 0.000000 0.008350 0.000000
# 2 -0.002518 0.005921 -0.001126 0.000000 -0.001756 0.000000
# 3 -0.000271 -0.001126 0.013948 0.000000 0.008236 0.000000
# 4 0.000000 0.000000 0.000000 0.111005 0.000000 0.040795
# 5 0.008350 -0.001756 0.008236 0.000000 0.037943 0.000000
# 6 0.000000 0.000000 0.000000 0.040795 0.000000 0.039338
#
#
# Mechanical properties :
#
#
# Convention : Reuss Voigt Hill
#
# Bulk Modulus (GPa) = 34.42140 50.76602 42.59371
# Shear Modulus (GPa) = 20.60314 36.92361 28.76338
#
# Velocity S-wave (km/s) = 2.97700 3.98534 3.51749
# Velocity P-wave (km/s) = 5.15978 6.55854 5.90075
#
# Compressibility (1/GPa) = 0.02905170
#
# Stress axis : x y z
#
# Youngs Moduli (GPa) = 58.78033 168.89246 71.69449
#
# Poissons Ratio (x) = 0.42531 0.01940
# Poissons Ratio (y) = 0.14802 0.08073
# Poissons Ratio (z) = 0.01591 0.19018
#
# Static dielectric constant tensor:
#      x y z
#    x 1.912560 0.000000 0.003750 
#    y 0.000000 1.918000 0.000000 
#    z 0.003750 0.000000 2.007420 
# 
# From -- ./inp_files/285199.got.cif
#   From: 2010.05.17/outbox.cif.g08.bks.cpg/sg15_143_cif.got.tgz:285199.got - 2010.06.03 18:47:42.
