data_PCOD9294963
_publ_section_title
;
Structure prediction by ZEFSAII (Michael W. Deem and Ramdas Pophale) SiO2 
 PCOD9294963
Probable space group: C 2/C
;
_chemical_formula_sum "Si O2"
_cell_formula_units_Z 60
_cell_length_a 28.390737
_cell_length_b 11.548830
_cell_length_c 11.137278
_cell_angle_alpha 90.000000
_cell_angle_beta 133.938608
_cell_angle_gamma 90.000000
_cell_volume 2629.521347
_symmetry_space_group_name_H-M "C 2/C"
_symmetry_group_IT_number 15
_symmetry_cell_setting 'monoclinic'
loop_
_space_group_symop_operation_xyz
x,y,z
-x,y,1/2-z
-x,-y,-z
x,-y,1/2+z
1/2+x,1/2+y,z
1/2-x,1/2+y,1/2-z
1/2-x,1/2-y,-z
1/2+x,1/2-y,1/2+z
loop_
_atom_site_type_symbol
_atom_site_label
_atom_site_fract_x
_atom_site_fract_y
_atom_site_fract_z
Si Si1 0.338586 0.147432 0.136687
Si Si2 0.117118 0.404610 0.334957
Si Si3 0.298694 0.529908 0.612224
Si Si4 0.404837 0.592512 0.002208
Si Si5 0.500000 0.770521 0.250000
Si Si6 0.878754 0.133539 0.559921
Si Si7 0.679125 0.720529 0.266912
Si Si8 0.807455 0.718190 0.351351
O O1 0.320579 0.197521 0.235133
O O2 0.383710 0.033904 0.216246
O O3 0.267218 0.098080 0.965548
O O4 0.377264 0.249241 0.135525
O O5 0.049583 0.350799 0.263208
O O6 0.151791 0.321914 0.299161
O O7 0.164997 0.396039 0.534941
O O8 0.362840 0.557935 0.809038
O O9 0.314487 0.571978 0.505240
O O10 0.293721 0.391589 0.614105
O O11 0.421792 0.482746 0.116490
O O12 0.353257 0.677009 0.976148
O O13 0.464535 0.681574 0.094643
O O14 0.877098 0.178322 0.421556
O O15 0.736333 0.748251 0.273411
#
# Coordination Sequence:
#
# PCOD9294963 Si02
#       8
#     8   8   8   8   4   8   8   8
#     4  12  24  39  68 108 152 179 225 300 379 436
#     4  11  26  43  71  99 139 199 246 287 357 426
#     4  11  20  38  61 103 144 180 219 294 364 426
#     4  10  23  41  71  91 136 190 239 290 346 416
#     4  10  24  54  72  96 138 200 260 290 332 420
#     4  11  23  40  63 104 142 179 225 287 367 424
#     4  11  23  38  68 106 141 184 237 287 363 440
#     4  11  21  40  65 104 143 184 221 297 369 427
#
# _framework density 22.817841999999999
#
# number of rings (size 3 to 8) (size 9 to 14) (size 15 to 20)
#    0.000    1.067    4.000    3.200    3.733    0.000 
#    0.000    9.333    0.000    0.000    0.000    0.000 
#    0.000    0.000    0.000    0.000    0.000    0.000 
#
# Total GULP energy -167074.297498 kJ/mol
# GULP energy per Si atom -5569.143250 kJ/mol
# Density = 2.276591 g / cm^3
# Si number density = 22.817842 Si / 1000 Ang^3
#
#
#
# Elastic Constant Matrix: (Units=GPa)
#
#
# Indices 1 2 3 4 5 6 
#
# 1 108.2539 82.3920 37.8027 0.0000 -1.0128 0.0000
# 2 82.3920 200.3911 30.2336 0.0000 -10.6356 0.0000
# 3 37.8027 30.2336 43.8798 0.0000 -9.6690 0.0000
# 4 0.0000 0.0000 0.0000 16.5362 0.0000 -5.7310
# 5 -1.0128 -10.6356 -9.6690 0.0000 34.5770 0.0000
# 6 0.0000 0.0000 0.0000 -5.7310 0.0000 44.4660
#
#
#
# Elastic Compliance Matrix: (Units=1/GPa)
#
#
# Indices 1 2 3 4 5 6 
#
# 1 0.017941 -0.005735 -0.012551 0.000000 -0.004748 0.000000
# 2 -0.005735 0.007417 0.000315 0.000000 0.002202 0.000000
# 3 -0.012551 0.000315 0.035514 0.000000 0.009660 0.000000
# 4 0.000000 0.000000 0.000000 0.063301 0.000000 0.008159
# 5 -0.004748 0.002202 0.009660 0.000000 0.032160 0.000000
# 6 0.000000 0.000000 0.000000 0.008159 0.000000 0.023541
#
#
# Mechanical properties :
#
#
# Convention : Reuss Voigt Hill
#
# Bulk Modulus (GPa) = 40.11146 72.59793 56.35470
# Shear Modulus (GPa) = 22.30887 32.58893 27.44890
#
# Velocity S-wave (km/s) = 3.13020 3.78328 3.47213
# Velocity P-wave (km/s) = 5.53908 7.13930 6.38948
#
# Compressibility (1/GPa) = 0.02493053
#
# Stress axis : x y z
#
# Youngs Moduli (GPa) = 55.73887 134.81655 28.15799
#
# Poissons Ratio (x) = 0.77316 0.35341
# Poissons Ratio (y) = 0.31966 -0.00887
# Poissons Ratio (z) = 0.69958 -0.04247
#
# Static dielectric constant tensor:
#      x y z
#    x 1.820300 0.000000 0.021320 
#    y 0.000000 1.897240 0.000000 
#    z 0.021320 0.000000 2.019650 
# 
# From -- ./inp_files/122676.got.cif
#   From: 2010.05.17/outbox.cif.g08.bks.cpg/sg15_62_cif.got.tgz:122676.got - 2010.06.03 18:47:42.
