data_PCOD9294187
_publ_section_title
;
Structure prediction by ZEFSAII (Michael W. Deem and Ramdas Pophale) SiO2 
 PCOD9294187
Probable space group: C 2/C
;
_chemical_formula_sum "Si O2"
_cell_formula_units_Z 36
_cell_length_a 23.427535
_cell_length_b 13.569373
_cell_length_c 5.195208
_cell_angle_alpha 90.000000
_cell_angle_beta 110.826807
_cell_angle_gamma 90.000000
_cell_volume 1543.628215
_symmetry_space_group_name_H-M "C 2/C"
_symmetry_group_IT_number 15
_symmetry_cell_setting 'monoclinic'
loop_
_space_group_symop_operation_xyz
x,y,z
-x,y,1/2-z
-x,-y,-z
x,-y,1/2+z
1/2+x,1/2+y,z
1/2-x,1/2+y,1/2-z
1/2-x,1/2-y,-z
1/2+x,1/2-y,1/2+z
loop_
_atom_site_type_symbol
_atom_site_label
_atom_site_fract_x
_atom_site_fract_y
_atom_site_fract_z
Si Si1 0.000000 0.569253 0.750000
Si Si2 0.126254 0.323100 0.558342
Si Si3 0.649231 0.697419 0.099553
Si Si4 0.242450 0.440756 0.875302
Si Si5 0.472417 0.389372 0.959051
O O1 0.000000 0.500000 0.500000
O O2 0.938819 0.633738 0.626630
O O3 0.153264 0.271700 0.345336
O O4 0.172945 0.407669 0.723201
O O5 0.124939 0.249216 0.800211
O O6 0.712748 0.647667 0.129522
O O7 0.599766 0.616444 0.121036
O O8 0.254467 0.526439 0.686121
O O9 0.500000 0.342207 0.750000
O O10 0.500000 0.337035 0.250000
O O11 0.500000 0.500000 0.000000
#
# Coordination Sequence:
#
# PCOD9294187 Si02
#       5
#     4   8   8   8   8
#     4  12  26  48  74 100 136 182 238 288 348 408
#     4  12  26  47  71 105 139 181 237 295 349 404
#     4  12  26  43  72 103 145 182 229 288 355 411
#     4  12  26  46  74 102 140 187 235 284 349 420
#     4  10  23  39  63  93 144 178 227 270 333 408
#
# _framework density 23.321676
#
# number of rings (size 3 to 8) (size 9 to 14) (size 15 to 20)
#    0.000    0.444    0.000    8.000   10.889    0.000 
#    0.000    0.000    0.000    0.000    0.000    0.000 
#    0.000    0.000    0.000    0.000    0.000    0.000 
#
# Total GULP energy -100763.724869 kJ/mol
# GULP energy per Si atom -5597.984715 kJ/mol
# Density = 2.326859 g / cm^3
# Si number density = 23.321676 Si / 1000 Ang^3
#
#
#
# Elastic Constant Matrix: (Units=GPa)
#
#
# Indices 1 2 3 4 5 6 
#
# 1 100.2527 26.2673 32.3587 0.0000 -1.3059 0.0000
# 2 26.2673 63.2895 18.6961 0.0000 -3.9745 0.0000
# 3 32.3587 18.6961 124.5772 0.0000 -23.3774 0.0000
# 4 0.0000 0.0000 0.0000 39.9586 0.0000 -11.0621
# 5 -1.3059 -3.9745 -23.3774 0.0000 47.5372 0.0000
# 6 0.0000 0.0000 0.0000 -11.0621 0.0000 36.3139
#
#
#
# Elastic Compliance Matrix: (Units=1/GPa)
#
#
# Indices 1 2 3 4 5 6 
#
# 1 0.011947 -0.004240 -0.002723 0.000000 -0.001365 0.000000
# 2 -0.004240 0.018039 -0.001482 0.000000 0.000663 0.000000
# 3 -0.002723 -0.001482 0.009826 0.000000 0.004634 0.000000
# 4 0.000000 0.000000 0.000000 0.027331 0.000000 0.008326
# 5 -0.001365 0.000663 0.004634 0.000000 0.023333 0.000000
# 6 0.000000 0.000000 0.000000 0.008326 0.000000 0.030074
#
#
# Mechanical properties :
#
#
# Convention : Reuss Voigt Hill
#
# Bulk Modulus (GPa) = 43.62288 49.19596 46.40942
# Shear Modulus (GPa) = 34.46380 38.81510 36.63945
#
# Velocity S-wave (km/s) = 3.84833 4.08405 3.96794
# Velocity P-wave (km/s) = 6.20417 6.58632 6.39810
#
# Compressibility (1/GPa) = 0.02292375
#
# Stress axis : x y z
#
# Youngs Moduli (GPa) = 83.70459 55.43449 101.76722
#
# Poissons Ratio (x) = 0.23502 0.27712
# Poissons Ratio (y) = 0.35488 0.15078
# Poissons Ratio (z) = 0.22794 0.08213
#
# Static dielectric constant tensor:
#      x y z
#    x 1.816530 0.000000 0.088310 
#    y 0.000000 1.852140 0.000000 
#    z 0.088310 0.000000 1.699190 
# 
# From -- ./inp_files/15068.got.cif
#   From: 2010.05.17/outbox.cif.g08.bks.cpg/sg15_8_cif.got.tgz:15068.got - 2010.06.03 18:47:42.
