data_PCOD9294089
_publ_section_title
;
Structure prediction by ZEFSAII (Michael W. Deem and Ramdas Pophale) SiO2 
 PCOD9294089
Probable space group: C 2/C
;
_chemical_formula_sum "Si O2"
_cell_formula_units_Z 52
_cell_length_a 16.409074
_cell_length_b 8.896131
_cell_length_c 18.353509
_cell_angle_alpha 90.000000
_cell_angle_beta 89.348090
_cell_angle_gamma 90.000000
_cell_volume 2679.021753
_symmetry_space_group_name_H-M "C 2/C"
_symmetry_group_IT_number 15
_symmetry_cell_setting 'monoclinic'
loop_
_space_group_symop_operation_xyz
x,y,z
-x,y,1/2-z
-x,-y,-z
x,-y,1/2+z
1/2+x,1/2+y,z
1/2-x,1/2+y,1/2-z
1/2-x,1/2-y,-z
1/2+x,1/2-y,1/2+z
loop_
_atom_site_type_symbol
_atom_site_label
_atom_site_fract_x
_atom_site_fract_y
_atom_site_fract_z
Si Si1 0.093911 0.526549 0.486145
Si Si2 0.500000 0.940637 0.750000
Si Si3 0.276892 0.186622 0.577852
Si Si4 0.302428 0.585460 0.343626
Si Si5 0.623380 0.770447 0.857366
Si Si6 0.697991 0.471696 0.819595
Si Si7 0.869619 0.601576 0.853995
O O1 0.138915 0.401564 0.437470
O O2 0.103255 0.677028 0.439076
O O3 0.132665 0.530353 0.565612
O O4 0.000000 0.500000 0.500000
O O5 0.558329 0.837730 0.800661
O O6 0.444892 0.043125 0.804773
O O7 0.250000 0.250000 0.500000
O O8 0.291775 0.318207 0.635848
O O9 0.211489 0.063972 0.608329
O O10 0.211471 0.656120 0.338963
O O11 0.330347 0.549335 0.262263
O O12 0.361255 0.719974 0.368283
O O13 0.637425 0.592683 0.855309
O O14 0.787710 0.546371 0.815210
#
# Coordination Sequence:
#
# PCOD9294089 Si02
#       7
#     8   4   8   8   8   8   8
#     4  11  23  41  61  92 128 170 206 261 327 381
#     4  12  22  42  66  98 124 172 212 274 332 384
#     4  11  23  39  66  94 126 164 218 262 313 384
#     4  10  23  39  66  95 123 170 218 261 316 385
#     4  10  23  38  67  91 126 165 217 256 320 388
#     4  11  22  41  65  96 127 167 215 271 313 383
#     4  11  23  39  69  90 130 167 215 262 326 381
#
# _framework density 19.410070999999999
#
# number of rings (size 3 to 8) (size 9 to 14) (size 15 to 20)
#    0.000    1.231    4.615    1.846    4.308    1.846 
#    0.000    3.077    0.000    0.000    0.000    0.000 
#    0.000    0.000    0.000    0.000    0.000    0.000 
#
# Total GULP energy -145077.765770 kJ/mol
# GULP energy per Si atom -5579.914068 kJ/mol
# Density = 1.936589 g / cm^3
# Si number density = 19.410071 Si / 1000 Ang^3
#
#
#
# Elastic Constant Matrix: (Units=GPa)
#
#
# Indices 1 2 3 4 5 6 
#
# 1 44.3410 19.6282 -1.7177 0.0000 -14.6666 0.0000
# 2 19.6282 128.2375 37.0938 0.0000 -22.2008 0.0000
# 3 -1.7177 37.0938 75.8003 0.0000 -19.0889 0.0000
# 4 0.0000 0.0000 0.0000 28.1869 0.0000 0.4530
# 5 -14.6666 -22.2008 -19.0889 0.0000 32.3644 0.0000
# 6 0.0000 0.0000 0.0000 0.4530 0.0000 23.5153
#
#
#
# Elastic Compliance Matrix: (Units=1/GPa)
#
#
# Indices 1 2 3 4 5 6 
#
# 1 0.029156 -0.003760 0.006082 0.000000 0.014221 0.000000
# 2 -0.003760 0.010092 -0.004357 0.000000 0.002649 0.000000
# 3 0.006082 -0.004357 0.018091 0.000000 0.010438 0.000000
# 4 0.000000 0.000000 0.000000 0.035488 0.000000 -0.000684
# 5 0.014221 0.002649 0.010438 0.000000 0.045316 0.000000
# 6 0.000000 0.000000 0.000000 -0.000684 0.000000 0.042539
#
#
# Mechanical properties :
#
#
# Convention : Reuss Voigt Hill
#
# Bulk Modulus (GPa) = 18.77231 39.82081 29.29656
# Shear Modulus (GPa) = 24.69016 29.70496 27.19756
#
# Velocity S-wave (km/s) = 3.57042 3.91626 3.74733
# Velocity P-wave (km/s) = 5.16620 6.40387 5.81804
#
# Compressibility (1/GPa) = 0.05326994
#
# Stress axis : x y z
#
# Youngs Moduli (GPa) = 34.29789 99.08362 55.27599
#
# Poissons Ratio (x) = 0.37256 -0.33619
# Poissons Ratio (y) = 0.12896 0.24083
# Poissons Ratio (z) = -0.20860 0.43170
#
# Static dielectric constant tensor:
#      x y z
#    x 1.811940 0.000000 -0.109200 
#    y 0.000000 1.730780 0.000000 
#    z -0.109200 0.000000 2.626840 
# 
# From -- ./inp_files/209074.got.cif
#   From: 2010.05.17/outbox.cif.g08.bks.cpg/sg15_105_cif.got.tgz:209074.got - 2010.06.03 18:47:42.
