data_PCOD9294980
_publ_section_title
;
Structure prediction by ZEFSAII (Michael W. Deem and Ramdas Pophale) SiO2 
 PCOD9294980
Probable space group: C 2/C
;
_chemical_formula_sum "Si O2"
_cell_formula_units_Z 56
_cell_length_a 16.712843
_cell_length_b 9.316643
_cell_length_c 16.935343
_cell_angle_alpha 90.000000
_cell_angle_beta 58.266495
_cell_angle_gamma 90.000000
_cell_volume 2242.745444
_symmetry_space_group_name_H-M "C 2/C"
_symmetry_group_IT_number 15
_symmetry_cell_setting 'monoclinic'
loop_
_space_group_symop_operation_xyz
x,y,z
-x,y,1/2-z
-x,-y,-z
x,-y,1/2+z
1/2+x,1/2+y,z
1/2-x,1/2+y,1/2-z
1/2-x,1/2-y,-z
1/2+x,1/2-y,1/2+z
loop_
_atom_site_type_symbol
_atom_site_label
_atom_site_fract_x
_atom_site_fract_y
_atom_site_fract_z
Si Si1 0.607624 0.398309 0.510842
Si Si2 0.073682 0.944509 0.348264
Si Si3 0.728231 0.996093 0.959571
Si Si4 0.308020 0.258853 0.310367
Si Si5 0.974728 0.422738 0.432755
Si Si6 0.198225 0.195076 0.211055
Si Si7 0.603579 0.966139 0.228227
O O1 0.619664 0.416556 0.410396
O O2 0.533594 0.518788 0.578428
O O3 0.699696 0.427353 0.515122
O O4 0.555879 0.244530 0.549031
O O5 0.093523 0.818923 0.275666
O O6 0.123924 0.079266 0.281075
O O7 0.729717 0.889497 0.882501
O O8 0.766873 0.145270 0.902354
O O9 0.621589 0.001032 0.045794
O O10 0.243516 0.263487 0.265564
O O11 0.324670 0.094060 0.321001
O O12 0.000000 0.500000 0.500000
O O13 0.071232 0.442224 0.335274
O O14 0.146863 0.313181 0.184451
O O15 0.500000 0.994368 0.250000
#
# Coordination Sequence:
#
# PCOD9294980 Si02
#       7
#     8   8   8   8   8   8   8
#     4  11  23  43  70 105 135 185 236 293 350 421
#     4  10  23  41  72  93 141 183 234 282 358 421
#     4  11  26  43  76 100 142 179 247 288 346 423
#     4  11  25  45  68 101 138 189 229 287 349 423
#     4  12  24  45  71 106 139 182 228 297 356 415
#     4  11  22  45  69 100 134 194 231 286 349 433
#     4  12  26  43  70 101 141 178 232 289 352 410
#
# _framework density 24.969396
#
# number of rings (size 3 to 8) (size 9 to 14) (size 15 to 20)
#    0.000    0.857    1.429    6.429    2.000    3.429 
#    0.000    1.429    0.000    0.000    0.000    0.000 
#    0.000    0.000    0.000    0.000    0.000    0.000 
#
# Total GULP energy -156790.277329 kJ/mol
# GULP energy per Si atom -5599.652762 kJ/mol
# Density = 2.491256 g / cm^3
# Si number density = 24.969396 Si / 1000 Ang^3
#
#
#
# Elastic Constant Matrix: (Units=GPa)
#
#
# Indices 1 2 3 4 5 6 
#
# 1 108.7419 19.6974 3.2173 0.0000 21.0980 0.0000
# 2 19.6974 116.2427 30.1070 0.0000 0.8864 0.0001
# 3 3.2173 30.1070 66.6866 0.0000 -0.3233 0.0000
# 4 0.0000 0.0000 0.0000 29.5416 0.0000 -1.9048
# 5 21.0980 0.8864 -0.3233 0.0000 25.4236 0.0000
# 6 0.0000 0.0001 0.0000 -1.9048 0.0000 24.2657
#
#
#
# Elastic Compliance Matrix: (Units=1/GPa)
#
#
# Indices 1 2 3 4 5 6 
#
# 1 0.011350 -0.001923 0.000275 0.000000 -0.009348 0.000000
# 2 -0.001923 0.010072 -0.004449 0.000000 0.001188 0.000000
# 3 0.000275 -0.004449 0.016991 0.000000 0.000143 0.000000
# 4 0.000000 0.000000 0.000000 0.034023 0.000000 0.002671
# 5 -0.009348 0.001188 0.000143 0.000000 0.047052 0.000000
# 6 0.000000 0.000000 0.000000 0.002671 0.000000 0.041420
#
#
# Mechanical properties :
#
#
# Convention : Reuss Voigt Hill
#
# Bulk Modulus (GPa) = 38.13847 44.19051 41.16449
# Shear Modulus (GPa) = 27.49659 31.75615 29.62637
#
# Velocity S-wave (km/s) = 3.32205 3.57010 3.44831
# Velocity P-wave (km/s) = 5.47923 5.89326 5.69001
#
# Compressibility (1/GPa) = 0.02622025
#
# Stress axis : x y z
#
# Youngs Moduli (GPa) = 88.10488 99.28805 58.85370
#
# Poissons Ratio (x) = 0.19096 -0.01621
# Poissons Ratio (y) = 0.16945 0.26181
# Poissons Ratio (z) = -0.02427 0.44168
#
# Static dielectric constant tensor:
#      x y z
#    x 1.970550 0.000000 0.048070 
#    y 0.000000 1.985700 0.000000 
#    z 0.048070 0.000000 2.024460 
# 
# From -- ./inp_files/209525.got.cif
#   From: 2010.05.17/outbox.cif.g08.bks.cpg/sg15_105_cif.got.tgz:209525.got - 2010.06.03 18:47:42.
