data_PCOD9294822
_publ_section_title
;
Structure prediction by ZEFSAII (Michael W. Deem and Ramdas Pophale) SiO2 
 PCOD9294822
Probable space group: C 2/C
;
_chemical_formula_sum "Si O2"
_cell_formula_units_Z 24
_cell_length_a 19.640238
_cell_length_b 7.226689
_cell_length_c 17.652535
_cell_angle_alpha 90.000000
_cell_angle_beta 24.042983
_cell_angle_gamma 90.000000
_cell_volume 1020.792630
_symmetry_space_group_name_H-M "C 2/C"
_symmetry_group_IT_number 15
_symmetry_cell_setting 'monoclinic'
loop_
_space_group_symop_operation_xyz
x,y,z
-x,y,1/2-z
-x,-y,-z
x,-y,1/2+z
1/2+x,1/2+y,z
1/2-x,1/2+y,1/2-z
1/2-x,1/2-y,-z
1/2+x,1/2-y,1/2+z
loop_
_atom_site_type_symbol
_atom_site_label
_atom_site_fract_x
_atom_site_fract_y
_atom_site_fract_z
Si Si1 0.647393 0.584346 0.796925
Si Si2 0.517959 0.330044 0.642919
Si Si3 0.351892 0.986614 0.231657
O O1 0.631285 0.456909 0.739531
O O2 0.804168 0.575629 0.694633
O O3 0.623372 0.794703 0.795986
O O4 0.500000 0.500000 0.000000
O O5 0.500000 0.303571 0.750000
O O6 0.497273 0.137919 0.619006
O O7 0.689716 0.432919 0.447068
#
# Coordination Sequence:
#
# PCOD9294822 Si02
#       3
#     8   8   8
#     4  10  23  41  67 103 132 179 230 283 338 406
#     4  11  25  43  68 104 142 181 224 286 343 409
#     4  11  23  43  70 100 137 183 232 278 343 411
#
# _framework density 23.511143000000001
#
# number of rings (size 3 to 8) (size 9 to 14) (size 15 to 20)
#    0.000    1.333    3.333    1.000    0.000   13.333 
#    0.000    0.000    0.000    0.000    0.000    0.000 
#    0.000    0.000    0.000    0.000    0.000    0.000 
#
# Total GULP energy -67196.513106 kJ/mol
# GULP energy per Si atom -5599.709426 kJ/mol
# Density = 2.345763 g / cm^3
# Si number density = 23.511143 Si / 1000 Ang^3
#
#
#
# Elastic Constant Matrix: (Units=GPa)
#
#
# Indices 1 2 3 4 5 6 
#
# 1 181.8759 82.1538 42.9303 -0.0003 18.8226 0.0001
# 2 82.1538 233.5233 43.7538 -0.0022 10.8121 0.0007
# 3 42.9303 43.7538 99.9823 -0.0014 -2.6051 0.0006
# 4 -0.0003 -0.0022 -0.0014 33.0131 0.0005 -4.0382
# 5 18.8226 10.8121 -2.6051 0.0005 30.6476 0.0000
# 6 0.0001 0.0007 0.0006 -4.0382 0.0000 34.4437
#
#
#
# Elastic Compliance Matrix: (Units=1/GPa)
#
#
# Indices 1 2 3 4 5 6 
#
# 1 0.007369 -0.001953 -0.002415 0.000000 -0.004042 0.000000
# 2 -0.001953 0.005286 -0.001495 0.000000 -0.000793 0.000000
# 3 -0.002415 -0.001495 0.011771 0.000000 0.003011 0.000000
# 4 0.000000 0.000000 0.000000 0.030732 -0.000001 0.003603
# 5 -0.004042 -0.000793 0.003011 -0.000001 0.035647 0.000000
# 6 0.000000 0.000000 0.000000 0.003603 0.000000 0.029455
#
#
# Mechanical properties :
#
#
# Convention : Reuss Voigt Hill
#
# Bulk Modulus (GPa) = 78.73765 94.78415 86.76090
# Shear Modulus (GPa) = 36.70551 42.72377 39.71464
#
# Velocity S-wave (km/s) = 3.95548 4.26745 4.11443
# Velocity P-wave (km/s) = 7.37722 8.04261 7.71709
#
# Compressibility (1/GPa) = 0.01270040
#
# Stress axis : x y z
#
# Youngs Moduli (GPa) = 135.71180 189.17551 84.95106
#
# Poissons Ratio (x) = 0.36940 0.20513
# Poissons Ratio (y) = 0.26501 0.12704
# Poissons Ratio (z) = 0.32770 0.28291
#
# Static dielectric constant tensor:
#      x y z
#    x 1.866880 0.000000 -0.075180 
#    y 0.000000 1.860460 0.000000 
#    z -0.075180 0.000000 2.025150 
# 
# From -- ./inp_files/53060.got.cif
#   From: 2010.05.17/outbox.cif.g08.bks.cpg/sg15_27_cif.got.tgz:53060.got - 2010.06.03 18:47:42.
