data_PCOD9294735
_publ_section_title
;
Structure prediction by ZEFSAII (Michael W. Deem and Ramdas Pophale) SiO2 
 PCOD9294735
Probable space group: C 2/C
;
_chemical_formula_sum "Si O2"
_cell_formula_units_Z 32
_cell_length_a 14.860887
_cell_length_b 19.175661
_cell_length_c 14.223486
_cell_angle_alpha 90.000000
_cell_angle_beta 19.921715
_cell_angle_gamma 90.000000
_cell_volume 1381.080552
_symmetry_space_group_name_H-M "C 2/C"
_symmetry_group_IT_number 15
_symmetry_cell_setting 'monoclinic'
loop_
_space_group_symop_operation_xyz
x,y,z
-x,y,1/2-z
-x,-y,-z
x,-y,1/2+z
1/2+x,1/2+y,z
1/2-x,1/2+y,1/2-z
1/2-x,1/2-y,-z
1/2+x,1/2-y,1/2+z
loop_
_atom_site_type_symbol
_atom_site_label
_atom_site_fract_x
_atom_site_fract_y
_atom_site_fract_z
Si Si1 0.498880 0.418801 0.143395
Si Si2 0.662334 0.052412 0.500139
Si Si3 0.335141 0.206059 0.029232
Si Si4 0.490756 0.115955 0.035411
O O1 0.500000 0.394148 0.250000
O O2 0.394532 0.498827 0.249690
O O3 0.275460 0.379173 0.302473
O O4 0.779533 0.410856 0.818277
O O5 0.500000 0.027348 0.750000
O O6 0.745626 0.132385 0.437105
O O7 0.494864 0.064409 0.569335
O O8 0.621140 0.235084 0.722569
O O9 0.370703 0.184804 0.104283
#
# Coordination Sequence:
#
# PCOD9294735 Si02
#       4
#     8   8   8   8
#     4  12  23  42  66  98 128 167 214 269 327 382
#     4  10  24  40  67 100 136 165 211 257 327 394
#     4  10  23  41  65  92 130 174 216 255 310 383
#     4  10  24  41  67  91 137 166 211 266 325 369
#
# _framework density 23.170264
#
# number of rings (size 3 to 8) (size 9 to 14) (size 15 to 20)
#    1.500    0.000    0.000    5.250    0.000    7.000 
#    0.000    0.000    0.000   15.000    0.000    0.000 
#    0.000    0.000    0.000    0.000    0.000    0.000 
#
# Total GULP energy -89416.569134 kJ/mol
# GULP energy per Si atom -5588.535571 kJ/mol
# Density = 2.311753 g / cm^3
# Si number density = 23.170264 Si / 1000 Ang^3
#
#
#
# Elastic Constant Matrix: (Units=GPa)
#
#
# Indices 1 2 3 4 5 6 
#
# 1 151.4907 -10.1382 16.1731 -0.0688 -3.0215 -0.0379
# 2 -10.1382 59.0514 -4.7824 0.0074 -2.2395 0.0595
# 3 16.1731 -4.7824 78.5227 -0.3265 9.6412 -0.0860
# 4 -0.0688 0.0074 -0.3265 24.4640 0.0091 9.6304
# 5 -3.0215 -2.2395 9.6412 0.0091 46.3029 -0.0472
# 6 -0.0379 0.0595 -0.0860 9.6304 -0.0472 21.5887
#
#
#
# Elastic Compliance Matrix: (Units=1/GPa)
#
#
# Indices 1 2 3 4 5 6 
#
# 1 0.006844 0.001089 -0.001441 -0.000003 0.000799 0.000006
# 2 0.001089 0.017209 0.000732 0.000028 0.000751 -0.000054
# 3 -0.001441 0.000732 0.013428 0.000193 -0.002855 -0.000043
# 4 -0.000003 0.000028 0.000193 0.049587 -0.000071 -0.022119
# 5 0.000799 0.000751 -0.002855 -0.000071 0.022280 0.000069
# 6 0.000006 -0.000054 -0.000043 -0.022119 0.000069 0.056188
#
#
# Mechanical properties :
#
#
# Convention : Reuss Voigt Hill
#
# Bulk Modulus (GPa) = 26.15171 32.39666 29.27418
# Shear Modulus (GPa) = 28.16530 37.65860 32.91195
#
# Velocity S-wave (km/s) = 3.49030 4.03587 3.77296
# Velocity P-wave (km/s) = 5.24921 5.97746 5.62513
#
# Compressibility (1/GPa) = 0.03823842
#
# Stress axis : x y z
#
# Youngs Moduli (GPa) = 146.11888 58.10886 74.47190
#
# Poissons Ratio (x) = -0.06325 0.10735
# Poissons Ratio (y) = -0.15905 -0.05450
# Poissons Ratio (z) = 0.21062 -0.04252
#
# Static dielectric constant tensor:
#      x y z
#    x 1.937970 0.000070 -0.003050 
#    y 0.000070 1.896010 0.000020 
#    z -0.003050 0.000020 1.814940 
# 
# From -- ./inp_files/156320.got.cif
#   From: 2010.05.17/outbox.cif.g08.bks.cpg/sg15_79_cif.got.tgz:156320.got - 2010.06.03 18:47:42.
