data_PCOD9294359
_publ_section_title
;
Structure prediction by ZEFSAII (Michael W. Deem and Ramdas Pophale) SiO2 
 PCOD9294359
Probable space group: C 2/C
;
_chemical_formula_sum "Si O2"
_cell_formula_units_Z 40
_cell_length_a 22.331132
_cell_length_b 9.402673
_cell_length_c 7.754917
_cell_angle_alpha 90.000000
_cell_angle_beta 79.891256
_cell_angle_gamma 90.000000
_cell_volume 1603.040658
_symmetry_space_group_name_H-M "C 2/C"
_symmetry_group_IT_number 15
_symmetry_cell_setting 'monoclinic'
loop_
_space_group_symop_operation_xyz
x,y,z
-x,y,1/2-z
-x,-y,-z
x,-y,1/2+z
1/2+x,1/2+y,z
1/2-x,1/2+y,1/2-z
1/2-x,1/2-y,-z
1/2+x,1/2-y,1/2+z
loop_
_atom_site_type_symbol
_atom_site_label
_atom_site_fract_x
_atom_site_fract_y
_atom_site_fract_z
Si Si1 0.476022 0.808598 0.510068
Si Si2 0.916902 0.546010 0.713509
Si Si3 0.624094 0.361615 0.529946
Si Si4 0.814214 0.347261 0.779800
Si Si5 0.329008 0.336374 0.610279
O O1 0.448604 0.889778 0.685307
O O2 0.446864 0.655446 0.494216
O O3 0.544753 0.848794 0.431819
O O4 0.436227 0.893367 0.386367
O O5 0.847113 0.499713 0.737378
O O6 0.662556 0.261404 0.379764
O O7 0.637414 0.318661 0.721987
O O8 0.644764 0.522113 0.491366
O O9 0.741868 0.359987 0.808912
O O10 0.830657 0.283488 0.960183
#
# Coordination Sequence:
#
# PCOD9294359 Si02
#       5
#     8   8   8   8   8
#     4   9  20  37  64  92 122 162 217 274 333 378
#     4   9  19  38  61  91 125 159 215 279 322 380
#     4  11  22  42  63  92 134 174 219 268 329 405
#     4  10  23  40  62  94 133 175 222 270 331 400
#     4  11  23  39  62  94 136 177 216 267 337 404
#
# _framework density 24.952580999999999
#
# number of rings (size 3 to 8) (size 9 to 14) (size 15 to 20)
#    0.000    2.000    2.000    0.600    2.800    4.800 
#    0.000    0.000    0.000    9.600    0.000    0.000 
#    0.000    0.000    0.000    0.000    0.000    0.000 
#
# Total GULP energy -111669.453189 kJ/mol
# GULP energy per Si atom -5583.472659 kJ/mol
# Density = 2.489579 g / cm^3
# Si number density = 24.952581 Si / 1000 Ang^3
#
#
#
# Elastic Constant Matrix: (Units=GPa)
#
#
# Indices 1 2 3 4 5 6 
#
# 1 136.6084 41.4585 31.5065 0.0000 -18.4453 0.0000
# 2 41.4585 81.9111 26.4849 0.0000 -3.7369 0.0000
# 3 31.5065 26.4849 141.8887 0.0000 4.7469 0.0000
# 4 0.0000 0.0000 0.0000 76.0472 0.0000 -37.1008
# 5 -18.4453 -3.7369 4.7469 0.0000 36.5326 0.0000
# 6 0.0000 0.0000 0.0000 -37.1008 0.0000 77.7352
#
#
#
# Elastic Compliance Matrix: (Units=1/GPa)
#
#
# Indices 1 2 3 4 5 6 
#
# 1 0.009541 -0.004134 -0.001500 0.000000 0.004589 0.000000
# 2 -0.004134 0.014884 -0.001849 0.000000 -0.000325 0.000000
# 3 -0.001500 -0.001849 0.007792 0.000000 -0.001959 0.000000
# 4 0.000000 0.000000 0.000000 0.017141 0.000000 0.008181
# 5 0.004589 -0.000325 -0.001959 0.000000 0.029911 0.000000
# 6 0.000000 0.000000 0.000000 0.008181 0.000000 0.016769
#
#
# Mechanical properties :
#
#
# Convention : Reuss Voigt Hill
#
# Bulk Modulus (GPa) = 57.97697 62.14534 60.06115
# Shear Modulus (GPa) = 42.82486 55.46021 49.14253
#
# Velocity S-wave (km/s) = 4.14726 4.71959 4.44265
# Velocity P-wave (km/s) = 6.79840 7.39316 7.10201
#
# Compressibility (1/GPa) = 0.01724823
#
# Stress axis : x y z
#
# Youngs Moduli (GPa) = 104.81543 67.18574 128.34236
#
# Poissons Ratio (x) = 0.27777 0.19255
# Poissons Ratio (y) = 0.43335 0.23735
# Poissons Ratio (z) = 0.15725 0.12425
#
# Static dielectric constant tensor:
#      x y z
#    x 2.022720 0.000000 0.036540 
#    y 0.000000 2.062590 0.000000 
#    z 0.036540 0.000000 2.017720 
# 
# From -- ./inp_files/46203.got.cif
#   From: 2010.05.17/outbox.cif.g08.bks.cpg/sg15_24_cif.got.tgz:46203.got - 2010.06.03 18:47:42.
