data_PCOD9294646
_publ_section_title
;
Structure prediction by ZEFSAII (Michael W. Deem and Ramdas Pophale) SiO2 
 PCOD9294646
Probable space group: C 2/C
;
_chemical_formula_sum "Si O2"
_cell_formula_units_Z 56
_cell_length_a 19.720376
_cell_length_b 19.039015
_cell_length_c 15.459976
_cell_angle_alpha 90.000000
_cell_angle_beta 149.981833
_cell_angle_gamma 90.000000
_cell_volume 2903.868255
_symmetry_space_group_name_H-M "C 2/C"
_symmetry_group_IT_number 15
_symmetry_cell_setting 'monoclinic'
loop_
_space_group_symop_operation_xyz
x,y,z
-x,y,1/2-z
-x,-y,-z
x,-y,1/2+z
1/2+x,1/2+y,z
1/2-x,1/2+y,1/2-z
1/2-x,1/2-y,-z
1/2+x,1/2-y,1/2+z
loop_
_atom_site_type_symbol
_atom_site_label
_atom_site_fract_x
_atom_site_fract_y
_atom_site_fract_z
Si Si1 0.291146 0.629609 0.244881
Si Si2 0.896810 0.854854 0.457215
Si Si3 0.801027 0.520070 0.783341
Si Si4 0.141007 0.726721 0.950254
Si Si5 0.063608 0.696595 0.228635
Si Si6 0.516718 0.036168 0.167059
Si Si7 0.221667 0.739294 0.643187
O O1 0.445802 0.630068 0.383923
O O2 0.251156 0.555877 0.242744
O O3 0.275364 0.689885 0.298447
O O4 0.195451 0.659292 0.062941
O O5 0.880660 0.795508 0.513284
O O6 0.820592 0.818288 0.293071
O O7 0.816480 0.927627 0.377241
O O8 0.896834 0.511198 0.804395
O O9 0.880806 0.546426 0.958210
O O10 0.000000 0.709156 0.750000
O O11 0.250000 0.750000 0.000000
O O12 0.085422 0.612956 0.250595
O O13 0.198629 0.737988 0.354644
O O14 0.000000 0.716052 0.250000
O O15 0.933632 0.714031 0.024925
O O16 0.500000 0.012531 0.250000
#
# Coordination Sequence:
#
# PCOD9294646 Si02
#       7
#     8   8   8   8   8   8   8
#     4  11  23  39  66  91 125 172 217 263 334 403
#     4  11  23  40  64  90 131 170 213 271 334 397
#     4  11  23  41  67  91 133 181 215 269 341 397
#     4  11  24  43  68  98 131 170 226 287 340 394
#     4  11  21  38  63  89 125 157 206 266 315 373
#     4  10  23  41  62  96 126 168 222 270 323 398
#     4  11  21  38  62  91 120 163 210 260 315 385
#
# _framework density 19.284621000000001
#
# number of rings (size 3 to 8) (size 9 to 14) (size 15 to 20)
#    0.000    1.143    5.714    0.857    0.000    4.000 
#    0.000    0.000    0.000    0.000    0.000    0.000 
#    0.000    0.000    0.000    0.000    0.000    0.000 
#
# Total GULP energy -156063.206429 kJ/mol
# GULP energy per Si atom -5573.685944 kJ/mol
# Density = 1.924073 g / cm^3
# Si number density = 19.284621 Si / 1000 Ang^3
#
#
#
# Elastic Constant Matrix: (Units=GPa)
#
#
# Indices 1 2 3 4 5 6 
#
# 1 104.2904 17.3014 39.3570 0.0000 -1.7049 0.0000
# 2 17.3014 85.8317 30.6438 0.0000 1.0402 0.0000
# 3 39.3570 30.6438 110.6152 0.0000 7.3044 0.0000
# 4 0.0000 0.0000 0.0000 28.6175 0.0000 11.1083
# 5 -1.7049 1.0402 7.3044 0.0000 31.1777 0.0000
# 6 0.0000 0.0000 0.0000 11.1083 0.0000 16.5734
#
#
#
# Elastic Compliance Matrix: (Units=1/GPa)
#
#
# Indices 1 2 3 4 5 6 
#
# 1 0.011214 -0.000908 -0.003840 0.000000 0.001543 0.000000
# 2 -0.000908 0.013008 -0.003300 0.000000 0.000289 0.000000
# 3 -0.003840 -0.003300 0.011505 0.000000 -0.002795 0.000000
# 4 0.000000 0.000000 0.000000 0.047232 0.000000 -0.031657
# 5 0.001543 0.000289 -0.002795 0.000000 0.032804 0.000000
# 6 0.000000 0.000000 0.000000 -0.031657 0.000000 0.081556
#
#
# Mechanical properties :
#
#
# Convention : Reuss Voigt Hill
#
# Bulk Modulus (GPa) = 50.93857 52.81572 51.87715
# Shear Modulus (GPa) = 22.73156 29.50274 26.11715
#
# Velocity S-wave (km/s) = 3.43700 3.91558 3.68407
# Velocity P-wave (km/s) = 6.49785 6.92021 6.71236
#
# Compressibility (1/GPa) = 0.01963149
#
# Stress axis : x y z
#
# Youngs Moduli (GPa) = 89.17681 76.87388 86.91571
#
# Poissons Ratio (x) = 0.06981 0.33377
# Poissons Ratio (y) = 0.08098 0.28680
# Poissons Ratio (z) = 0.34245 0.25366
#
# Static dielectric constant tensor:
#      x y z
#    x 1.696740 0.000000 -0.016240 
#    y 0.000000 1.661550 0.000000 
#    z -0.016240 0.000000 1.739420 
# 
# From -- ./inp_files/57795.got.cif
#   From: 2010.05.17/outbox.cif.g08.bks.cpg/sg15_29_cif.got.tgz:57795.got - 2010.06.03 18:47:42.
