data_PCOD9294895
_publ_section_title
;
Structure prediction by ZEFSAII (Michael W. Deem and Ramdas Pophale) SiO2 
 PCOD9294895
Probable space group: C 2/C
;
_chemical_formula_sum "Si O2"
_cell_formula_units_Z 48
_cell_length_a 12.064144
_cell_length_b 15.326467
_cell_length_c 12.271616
_cell_angle_alpha 90.000000
_cell_angle_beta 82.086515
_cell_angle_gamma 90.000000
_cell_volume 2247.422670
_symmetry_space_group_name_H-M "C 2/C"
_symmetry_group_IT_number 15
_symmetry_cell_setting 'monoclinic'
loop_
_space_group_symop_operation_xyz
x,y,z
-x,y,1/2-z
-x,-y,-z
x,-y,1/2+z
1/2+x,1/2+y,z
1/2-x,1/2+y,1/2-z
1/2-x,1/2-y,-z
1/2+x,1/2-y,1/2+z
loop_
_atom_site_type_symbol
_atom_site_label
_atom_site_fract_x
_atom_site_fract_y
_atom_site_fract_z
Si Si1 0.000000 0.752613 0.250000
Si Si2 0.635906 0.056288 0.926850
Si Si3 0.868859 0.760113 0.929285
Si Si4 0.500000 0.849880 0.250000
Si Si5 0.995928 0.077475 0.377834
Si Si6 0.610476 0.391448 0.072752
Si Si7 0.449650 0.128816 0.085826
O O1 0.937598 0.812822 0.347085
O O2 0.922700 0.682987 0.197321
O O3 0.561754 0.091080 0.833888
O O4 0.761631 0.091347 0.911676
O O5 0.633722 0.951251 0.921492
O O6 0.570646 0.084703 0.046480
O O7 0.902018 0.713129 0.811760
O O8 0.895503 0.861545 0.931008
O O9 0.750000 0.750000 0.000000
O O10 0.947911 0.704478 0.997033
O O11 0.000000 0.096382 0.250000
O O12 0.096353 0.110813 0.442577
O O13 0.967363 0.975867 0.392057
#
# Coordination Sequence:
#
# PCOD9294895 Si02
#       7
#     4   8   8   4   8   8   8
#     4  12  23  43  68 110 142 178 236 307 339 432
#     4  10  23  47  66  99 138 192 227 291 365 420
#     4  11  22  40  67  98 133 182 233 285 348 419
#     4  10  23  41  68  96 138 176 240 283 343 442
#     4  11  23  47  67 100 144 186 236 294 350 441
#     4  11  25  44  71 102 144 182 234 292 361 420
#     4  10  23  44  64  97 141 174 234 294 341 427
#
# _framework density 21.357797000000001
#
# number of rings (size 3 to 8) (size 9 to 14) (size 15 to 20)
#    0.000    1.333    3.333    1.500    2.333    0.667 
#   15.000    0.000    0.000    0.000    0.000    0.000 
#    0.000    0.000    0.000    0.000    0.000    0.000 
#
# Total GULP energy -133607.290270 kJ/mol
# GULP energy per Si atom -5566.970428 kJ/mol
# Density = 2.130919 g / cm^3
# Si number density = 21.357797 Si / 1000 Ang^3
#
#
#
# Elastic Constant Matrix: (Units=GPa)
#
#
# Indices 1 2 3 4 5 6 
#
# 1 97.1262 25.8637 35.4552 0.0000 -0.2902 0.0000
# 2 25.8637 126.2853 43.7173 0.0000 -1.5935 0.0000
# 3 35.4552 43.7173 101.0952 0.0000 16.2903 0.0000
# 4 0.0000 0.0000 0.0000 37.3482 0.0000 1.5665
# 5 -0.2902 -1.5935 16.2903 0.0000 25.4702 0.0000
# 6 0.0000 0.0000 0.0000 1.5665 0.0000 19.0774
#
#
#
# Elastic Compliance Matrix: (Units=1/GPa)
#
#
# Indices 1 2 3 4 5 6 
#
# 1 0.012127 -0.000962 -0.004292 0.000000 0.002823 0.000000
# 2 -0.000962 0.009681 -0.004398 0.000000 0.003408 0.000000
# 3 -0.004292 -0.004398 0.014885 0.000000 -0.009844 0.000000
# 4 0.000000 0.000000 0.000000 0.026868 0.000000 -0.002206
# 5 0.002823 0.003408 -0.009844 0.000000 0.045803 0.000000
# 6 0.000000 0.000000 0.000000 -0.002206 0.000000 0.052599
#
#
# Mechanical properties :
#
#
# Convention : Reuss Voigt Hill
#
# Bulk Modulus (GPa) = 57.50807 59.39769 58.45288
# Shear Modulus (GPa) = 26.72874 31.01053 28.86963
#
# Velocity S-wave (km/s) = 3.54146 3.81458 3.68055
# Velocity P-wave (km/s) = 6.61113 6.87550 6.74461
#
# Compressibility (1/GPa) = 0.01738886
#
# Stress axis : x y z
#
# Youngs Moduli (GPa) = 82.45850 103.29299 67.18130
#
# Poissons Ratio (x) = 0.09940 0.28834
# Poissons Ratio (y) = 0.07935 0.29547
# Poissons Ratio (z) = 0.35391 0.45430
#
# Static dielectric constant tensor:
#      x y z
#    x 1.669490 0.000000 0.059850 
#    y 0.000000 1.642460 0.000000 
#    z 0.059850 0.000000 1.942780 
# 
# From -- ./inp_files/96336.got.cif
#   From: 2010.05.17/outbox.cif.g08.bks.cpg/sg15_49_cif.got.tgz:96336.got - 2010.06.03 18:47:42.
