data_PCOD9294569
_publ_section_title
;
Structure prediction by ZEFSAII (Michael W. Deem and Ramdas Pophale) SiO2 
 PCOD9294569
Probable space group: C 2/C
;
_chemical_formula_sum "Si O2"
_cell_formula_units_Z 56
_cell_length_a 22.575055
_cell_length_b 12.248410
_cell_length_c 9.524409
_cell_angle_alpha 90.000000
_cell_angle_beta 66.991610
_cell_angle_gamma 90.000000
_cell_volume 2424.072763
_symmetry_space_group_name_H-M "C 2/C"
_symmetry_group_IT_number 15
_symmetry_cell_setting 'monoclinic'
loop_
_space_group_symop_operation_xyz
x,y,z
-x,y,1/2-z
-x,-y,-z
x,-y,1/2+z
1/2+x,1/2+y,z
1/2-x,1/2+y,1/2-z
1/2-x,1/2-y,-z
1/2+x,1/2-y,1/2+z
loop_
_atom_site_type_symbol
_atom_site_label
_atom_site_fract_x
_atom_site_fract_y
_atom_site_fract_z
Si Si1 0.006483 0.249572 0.601198
Si Si2 0.534957 0.079111 0.572299
Si Si3 0.335309 0.685817 0.478588
Si Si4 0.320491 0.931633 0.597102
Si Si5 0.433077 0.564645 0.582595
Si Si6 0.245999 0.028020 0.428806
Si Si7 0.861140 0.850550 0.637973
O O1 0.077644 0.210880 0.488080
O O2 0.000000 0.318087 0.750000
O O3 0.974656 0.307534 0.498640
O O4 0.955165 0.151723 0.676983
O O5 0.500000 0.086824 0.750000
O O6 0.607861 0.041612 0.515908
O O7 0.500000 0.000000 0.500000
O O8 0.316516 0.802377 0.562814
O O9 0.400327 0.628821 0.482229
O O10 0.283849 0.592603 0.565038
O O11 0.340279 0.703069 0.305047
O O12 0.306639 0.949414 0.772908
O O13 0.271193 0.012822 0.563498
O O14 0.500000 0.500000 0.500000
O O15 0.384077 0.470535 0.669513
O O16 0.193770 0.118668 0.425982
#
# Coordination Sequence:
#
# PCOD9294569 Si02
#       7
#     8   8   8   8   8   8   8
#     4  11  24  40  68 106 148 183 235 297 368 432
#     4  12  26  49  75 101 141 192 248 297 359 432
#     4  11  22  45  73  99 146 189 247 291 366 446
#     4  12  25  48  74 102 142 192 243 302 359 437
#     4   9  21  36  65 101 141 180 227 288 364 422
#     4  11  25  43  71 103 142 185 243 297 360 423
#     4  10  23  40  70 104 142 186 231 298 359 436
#
# _framework density 23.101617000000001
#
# number of rings (size 3 to 8) (size 9 to 14) (size 15 to 20)
#    0.000    1.143    2.857    2.571    6.000    1.143 
#    0.000    0.714    0.000    0.000    0.000    0.000 
#    0.000    0.000    0.000    0.000    0.000    0.000 
#
# Total GULP energy -156159.177744 kJ/mol
# GULP energy per Si atom -5577.113491 kJ/mol
# Density = 2.304904 g / cm^3
# Si number density = 23.101617 Si / 1000 Ang^3
#
#
#
# Elastic Constant Matrix: (Units=GPa)
#
#
# Indices 1 2 3 4 5 6 
#
# 1 102.8396 9.5306 7.3612 0.0000 -3.8058 0.0000
# 2 9.5306 39.9634 26.3001 0.0000 4.5105 0.0000
# 3 7.3612 26.3001 107.2602 0.0000 2.9345 0.0000
# 4 0.0000 0.0000 0.0000 29.1952 0.0000 0.3343
# 5 -3.8058 4.5105 2.9345 0.0000 32.7476 0.0000
# 6 0.0000 0.0000 0.0000 0.3343 0.0000 31.2035
#
#
#
# Elastic Compliance Matrix: (Units=1/GPa)
#
#
# Indices 1 2 3 4 5 6 
#
# 1 0.010019 -0.002481 -0.000121 0.000000 0.001517 0.000000
# 2 -0.002481 0.030849 -0.007288 0.000000 -0.003884 0.000000
# 3 -0.000121 -0.007288 0.011119 0.000000 -0.000007 0.000000
# 4 0.000000 0.000000 0.000000 0.034256 0.000000 -0.000367
# 5 0.001517 -0.003884 -0.000007 0.000000 0.031248 0.000000
# 6 0.000000 0.000000 0.000000 -0.000367 0.000000 0.032052
#
#
# Mechanical properties :
#
#
# Convention : Reuss Voigt Hill
#
# Bulk Modulus (GPa) = 31.04879 37.38300 34.21590
# Shear Modulus (GPa) = 27.76896 32.42067 30.09482
#
# Velocity S-wave (km/s) = 3.47080 3.75025 3.61323
# Velocity P-wave (km/s) = 5.43426 5.91351 5.67895
#
# Compressibility (1/GPa) = 0.03220737
#
# Stress axis : x y z
#
# Youngs Moduli (GPa) = 99.81445 32.41596 89.94013
#
# Poissons Ratio (x) = 0.08043 0.01086
# Poissons Ratio (y) = 0.24764 0.65545
# Poissons Ratio (z) = 0.01205 0.23623
#
# Static dielectric constant tensor:
#      x y z
#    x 1.950290 0.000000 0.019830 
#    y 0.000000 1.734090 0.000000 
#    z 0.019830 0.000000 1.858480 
# 
# From -- ./inp_files/61819.got.cif
#   From: 2010.05.17/outbox.cif.g08.bks.cpg/sg15_31_cif.got.tgz:61819.got - 2010.06.03 18:47:42.
