data_PCOD9294496
_publ_section_title
;
Structure prediction by ZEFSAII (Michael W. Deem and Ramdas Pophale) SiO2 
 PCOD9294496
Probable space group: C 2/C
;
_chemical_formula_sum "Si O2"
_cell_formula_units_Z 40
_cell_length_a 13.784935
_cell_length_b 18.217043
_cell_length_c 13.435329
_cell_angle_alpha 90.000000
_cell_angle_beta 30.817739
_cell_angle_gamma 90.000000
_cell_volume 1728.473433
_symmetry_space_group_name_H-M "C 2/C"
_symmetry_group_IT_number 15
_symmetry_cell_setting 'monoclinic'
loop_
_space_group_symop_operation_xyz
x,y,z
-x,y,1/2-z
-x,-y,-z
x,-y,1/2+z
1/2+x,1/2+y,z
1/2-x,1/2+y,1/2-z
1/2-x,1/2-y,-z
1/2+x,1/2-y,1/2+z
loop_
_atom_site_type_symbol
_atom_site_label
_atom_site_fract_x
_atom_site_fract_y
_atom_site_fract_z
Si Si1 0.049824 0.834889 0.455493
Si Si2 0.260755 0.429755 0.796129
Si Si3 0.639919 0.910059 0.453006
Si Si4 0.887256 0.298353 0.443924
Si Si5 0.808918 0.168499 0.975299
O O1 0.973992 0.907977 0.577341
O O2 0.878405 0.827157 0.527113
O O3 0.246639 0.854740 0.224302
O O4 0.051596 0.762455 0.524817
O O5 0.243009 0.511985 0.850509
O O6 0.209010 0.366366 0.919163
O O7 0.081041 0.421024 0.878667
O O8 0.662177 0.881524 0.545264
O O9 0.750000 0.250000 0.500000
O O10 0.000000 0.331358 0.250000
O O11 0.000000 0.147328 0.750000
O O12 0.750000 0.250000 0.000000
#
# Coordination Sequence:
#
# PCOD9294496 Si02
#       5
#     8   8   8   8   8
#     4  11  24  44  71  98 137 177 230 281 341 411
#     4  11  24  45  71  97 142 179 224 285 342 409
#     4  10  24  46  66 106 139 175 227 277 347 414
#     4  12  24  44  67 101 132 182 235 282 337 408
#     4  10  23  40  67 100 135 173 221 275 334 407
#
# _framework density 23.141807
#
# number of rings (size 3 to 8) (size 9 to 14) (size 15 to 20)
#    0.000    1.200    2.000    3.000    8.400    0.000 
#   21.600    0.000    0.000    0.000    0.000    0.000 
#    0.000    0.000    0.000    0.000    0.000    0.000 
#
# Total GULP energy -111392.650558 kJ/mol
# GULP energy per Si atom -5569.632528 kJ/mol
# Density = 2.308914 g / cm^3
# Si number density = 23.141807 Si / 1000 Ang^3
#
#
#
# Elastic Constant Matrix: (Units=GPa)
#
#
# Indices 1 2 3 4 5 6 
#
# 1 121.6521 56.1674 8.9506 0.0132 20.2374 -0.0097
# 2 56.1674 126.9116 18.9456 0.0193 8.3373 -0.0126
# 3 8.9506 18.9456 88.5783 0.0144 7.7762 -0.0096
# 4 0.0132 0.0193 0.0144 26.9103 -0.0058 1.0457
# 5 20.2374 8.3373 7.7762 -0.0058 16.9020 0.0054
# 6 -0.0097 -0.0126 -0.0096 1.0457 0.0054 30.9912
#
#
#
# Elastic Compliance Matrix: (Units=1/GPa)
#
#
# Indices 1 2 3 4 5 6 
#
# 1 0.012561 -0.004837 0.000913 -0.000006 -0.013074 0.000005
# 2 -0.004837 0.010188 -0.001831 -0.000004 0.001608 0.000002
# 3 0.000913 -0.001831 0.012094 -0.000007 -0.005754 0.000005
# 4 -0.000006 -0.000004 -0.000007 0.037209 0.000026 -0.001255
# 5 -0.013074 0.001608 -0.005754 0.000026 0.076672 -0.000020
# 6 0.000005 0.000002 0.000005 -0.001255 -0.000020 0.032310
#
#
# Mechanical properties :
#
#
# Convention : Reuss Voigt Hill
#
# Bulk Modulus (GPa) = 42.85831 56.14101 49.49966
# Shear Modulus (GPa) = 24.95986 31.83261 28.39624
#
# Velocity S-wave (km/s) = 3.28771 3.71286 3.50673
# Velocity P-wave (km/s) = 5.74213 6.53396 6.15080
#
# Compressibility (1/GPa) = 0.02333270
#
# Stress axis : x y z
#
# Youngs Moduli (GPa) = 79.61175 98.15698 82.68526
#
# Poissons Ratio (x) = 0.47474 -0.07549
# Poissons Ratio (y) = 0.38504 0.15144
# Poissons Ratio (z) = -0.07268 0.17977
#
# Static dielectric constant tensor:
#      x y z
#    x 1.931700 0.000000 -0.013340 
#    y 0.000000 1.807070 0.000000 
#    z -0.013340 0.000000 1.844660 
# 
# From -- ./inp_files/48295.got.cif
#   From: 2010.05.17/outbox.cif.g08.bks.cpg/sg15_25_cif.got.tgz:48295.got - 2010.06.03 18:47:42.
