data_PCOD9294237
_publ_section_title
;
Structure prediction by ZEFSAII (Michael W. Deem and Ramdas Pophale) SiO2 
 PCOD9294237
Probable space group: C 2/C
;
_chemical_formula_sum "Si O2"
_cell_formula_units_Z 44
_cell_length_a 13.251323
_cell_length_b 17.618701
_cell_length_c 20.304592
_cell_angle_alpha 90.000000
_cell_angle_beta 154.715245
_cell_angle_gamma 90.000000
_cell_volume 2024.764646
_symmetry_space_group_name_H-M "C 2/C"
_symmetry_group_IT_number 15
_symmetry_cell_setting 'monoclinic'
loop_
_space_group_symop_operation_xyz
x,y,z
-x,y,1/2-z
-x,-y,-z
x,-y,1/2+z
1/2+x,1/2+y,z
1/2-x,1/2+y,1/2-z
1/2-x,1/2-y,-z
1/2+x,1/2-y,1/2+z
loop_
_atom_site_type_symbol
_atom_site_label
_atom_site_fract_x
_atom_site_fract_y
_atom_site_fract_z
Si Si1 0.100919 0.888208 0.203161
Si Si2 0.630129 0.122162 0.501522
Si Si3 0.126923 0.164958 0.491633
Si Si4 0.769658 0.031493 0.300506
Si Si5 0.253550 0.252727 0.305390
Si Si6 0.000000 0.443981 0.250000
O O1 0.253788 0.895818 0.359746
O O2 0.214758 0.824784 0.223590
O O3 0.096557 0.967477 0.162154
O O4 0.839912 0.865228 0.073175
O O5 0.463136 0.055380 0.377185
O O6 0.462957 0.194772 0.410888
O O7 0.926843 0.106718 0.401013
O O8 0.994523 0.210543 0.355919
O O9 0.205464 0.220637 0.596201
O O10 0.352487 0.110676 0.613449
O O11 0.679545 0.995145 0.314904
#
# Coordination Sequence:
#
# PCOD9294237 Si02
#       6
#     8   8   8   8   8   4
#     4  11  21  41  65  93 133 163 217 264 322 384
#     4  10  23  39  65  95 127 169 209 267 331 374
#     4  11  25  43  68  94 132 169 218 264 322 381
#     4  11  24  41  66  96 130 167 217 266 318 383
#     4  11  22  43  63  96 130 166 211 270 315 384
#     4  12  24  42  66  96 130 176 212 262 320 384
#
# _framework density 21.730920000000001
#
# number of rings (size 3 to 8) (size 9 to 14) (size 15 to 20)
#    0.000    1.091    3.636    2.727    2.545    0.727 
#    0.000    0.000    0.000    0.000    0.000    0.000 
#    0.000    0.000    0.000    0.000    0.000    0.000 
#
# Total GULP energy -123113.262291 kJ/mol
# GULP energy per Si atom -5596.057377 kJ/mol
# Density = 2.168146 g / cm^3
# Si number density = 21.730920 Si / 1000 Ang^3
#
#
#
# Elastic Constant Matrix: (Units=GPa)
#
#
# Indices 1 2 3 4 5 6 
#
# 1 74.7699 31.7550 30.9195 -0.0059 -2.1701 0.0002
# 2 31.7550 99.8557 42.1861 0.0118 -9.7268 0.0009
# 3 30.9195 42.1861 132.2241 0.0253 -7.1377 0.0021
# 4 -0.0059 0.0118 0.0253 43.9407 -0.0058 -7.5085
# 5 -2.1701 -9.7268 -7.1377 -0.0058 30.0325 -0.0040
# 6 0.0002 0.0009 0.0021 -7.5085 -0.0040 22.8487
#
#
#
# Elastic Compliance Matrix: (Units=1/GPa)
#
#
# Indices 1 2 3 4 5 6 
#
# 1 0.016148 -0.004158 -0.002491 0.000005 -0.000772 0.000002
# 2 -0.004158 0.012902 -0.002973 -0.000002 0.003172 0.000000
# 3 -0.002491 -0.002973 0.009150 -0.000005 0.001032 -0.000002
# 4 0.000005 -0.000002 -0.000005 0.024112 0.000004 0.007924
# 5 -0.000772 0.003172 0.001032 0.000004 0.034514 0.000007
# 6 0.000002 0.000000 -0.000002 0.007924 0.000007 0.046370
#
#
# Mechanical properties :
#
#
# Convention : Reuss Voigt Hill
#
# Bulk Modulus (GPa) = 52.75518 57.39676 55.07597
# Shear Modulus (GPa) = 29.62839 32.83034 31.22936
#
# Velocity S-wave (km/s) = 3.69646 3.89107 3.79501
# Velocity P-wave (km/s) = 6.52286 6.83060 6.67850
#
# Compressibility (1/GPa) = 0.01895548
#
# Stress axis : x y z
#
# Youngs Moduli (GPa) = 61.92711 77.51010 109.29443
#
# Poissons Ratio (x) = 0.32228 0.27227
# Poissons Ratio (y) = 0.25749 0.32490
# Poissons Ratio (z) = 0.15427 0.23042
#
# Static dielectric constant tensor:
#      x y z
#    x 1.744610 0.000000 0.005980 
#    y 0.000000 1.771330 0.000000 
#    z 0.005980 0.000000 1.812760 
# 
# From -- ./inp_files/274879.got.cif
#   From: 2010.05.17/outbox.cif.g08.bks.cpg/sg15_138_cif.got.tgz:274879.got - 2010.06.03 18:47:42.
