data_PCOD9294518
_publ_section_title
;
Structure prediction by ZEFSAII (Michael W. Deem and Ramdas Pophale) SiO2 
 PCOD9294518
Probable space group: C 2/C
;
_chemical_formula_sum "Si O2"
_cell_formula_units_Z 48
_cell_length_a 21.424109
_cell_length_b 12.012796
_cell_length_c 10.511192
_cell_angle_alpha 90.000000
_cell_angle_beta 69.365532
_cell_angle_gamma 90.000000
_cell_volume 2531.652074
_symmetry_space_group_name_H-M "C 2/C"
_symmetry_group_IT_number 15
_symmetry_cell_setting 'monoclinic'
loop_
_space_group_symop_operation_xyz
x,y,z
-x,y,1/2-z
-x,-y,-z
x,-y,1/2+z
1/2+x,1/2+y,z
1/2-x,1/2+y,1/2-z
1/2-x,1/2-y,-z
1/2+x,1/2-y,1/2+z
loop_
_atom_site_type_symbol
_atom_site_label
_atom_site_fract_x
_atom_site_fract_y
_atom_site_fract_z
Si Si1 0.222938 0.557968 0.863378
Si Si2 0.405092 0.927876 0.499143
Si Si3 0.806281 0.987306 0.049319
Si Si4 0.521072 0.149942 0.099026
Si Si5 0.645999 0.277049 0.900335
Si Si6 0.670576 0.268251 0.583798
O O1 0.156050 0.487398 0.884788
O O2 0.268309 0.544684 0.706599
O O3 0.200748 0.684996 0.903181
O O4 0.257059 0.509813 0.965418
O O5 0.457212 0.872015 0.557162
O O6 0.371952 0.836826 0.432161
O O7 0.443532 0.029590 0.403497
O O8 0.843777 0.102722 0.045865
O O9 0.848595 0.879822 0.978488
O O10 0.500000 0.197239 0.250000
O O11 0.574906 0.225844 0.989007
O O12 0.657202 0.285936 0.741573
O O13 0.750000 0.250000 0.500000
#
# Coordination Sequence:
#
# PCOD9294518 Si02
#       6
#     8   8   8   8   8   8
#     4  11  22  37  66  97 133 166 210 270 323 386
#     4  10  23  40  67  96 129 167 214 267 322 372
#     4  12  23  40  62  99 135 167 210 262 333 393
#     4  10  25  42  66  94 127 169 223 268 308 372
#     4  11  24  41  63  94 129 173 216 260 322 389
#     4  12  22  41  65  97 135 165 208 262 339 392
#
# _framework density 18.959951
#
# number of rings (size 3 to 8) (size 9 to 14) (size 15 to 20)
#    0.000    1.000    5.000    0.500   11.667    1.333 
#    0.000    0.833    0.000    0.000    0.000    0.000 
#    0.000    0.000    0.000    0.000    0.000    0.000 
#
# Total GULP energy -134071.694847 kJ/mol
# GULP energy per Si atom -5586.320619 kJ/mol
# Density = 1.891680 g / cm^3
# Si number density = 18.959951 Si / 1000 Ang^3
#
#
#
# Elastic Constant Matrix: (Units=GPa)
#
#
# Indices 1 2 3 4 5 6 
#
# 1 82.9317 39.1709 35.8714 0.0000 0.4713 0.0000
# 2 39.1709 114.9942 26.0644 0.0000 4.4961 0.0000
# 3 35.8714 26.0644 109.1512 0.0000 -6.1629 0.0000
# 4 0.0000 0.0000 0.0000 24.1743 0.0000 12.4085
# 5 0.4713 4.4961 -6.1629 0.0000 16.2055 0.0000
# 6 0.0000 0.0000 0.0000 12.4085 0.0000 24.5077
#
#
#
# Elastic Compliance Matrix: (Units=1/GPa)
#
#
# Indices 1 2 3 4 5 6 
#
# 1 0.016003 -0.004457 -0.004243 0.000000 -0.000842 0.000000
# 2 -0.004457 0.010629 -0.001260 0.000000 -0.003298 0.000000
# 3 -0.004243 -0.001260 0.011122 0.000000 0.004703 0.000000
# 4 0.000000 0.000000 0.000000 0.055892 0.000000 -0.028298
# 5 -0.000842 -0.003298 0.004703 0.000000 0.064435 0.000000
# 6 0.000000 0.000000 0.000000 -0.028298 0.000000 0.055131
#
#
# Mechanical properties :
#
#
# Convention : Reuss Voigt Hill
#
# Bulk Modulus (GPa) = 56.06589 56.58784 56.32687
# Shear Modulus (GPa) = 20.91393 26.70887 23.81140
#
# Velocity S-wave (km/s) = 3.32483 3.75734 3.54768
# Velocity P-wave (km/s) = 6.66140 6.98099 6.82307
#
# Compressibility (1/GPa) = 0.01783616
#
# Stress axis : x y z
#
# Youngs Moduli (GPa) = 62.48846 94.08565 89.91032
#
# Poissons Ratio (x) = 0.41930 0.38145
# Poissons Ratio (y) = 0.27849 0.11325
# Poissons Ratio (z) = 0.26511 0.11851
#
# Static dielectric constant tensor:
#      x y z
#    x 1.649800 0.000000 0.002410 
#    y 0.000000 1.688940 0.000000 
#    z 0.002410 0.000000 1.633740 
# 
# From -- ./inp_files/60836.got.cif
#   From: 2010.05.17/outbox.cif.g08.bks.cpg/sg15_31_cif.got.tgz:60836.got - 2010.06.03 18:47:42.
