data_PCOD9294622
_publ_section_title
;
Structure prediction by ZEFSAII (Michael W. Deem and Ramdas Pophale) SiO2 
 PCOD9294622
Probable space group: C 2/C
;
_chemical_formula_sum "Si O2"
_cell_formula_units_Z 32
_cell_length_a 24.708359
_cell_length_b 11.417698
_cell_length_c 5.225910
_cell_angle_alpha 90.000000
_cell_angle_beta 59.229437
_cell_angle_gamma 90.000000
_cell_volume 1266.747927
_symmetry_space_group_name_H-M "C 2/C"
_symmetry_group_IT_number 15
_symmetry_cell_setting 'monoclinic'
loop_
_space_group_symop_operation_xyz
x,y,z
-x,y,1/2-z
-x,-y,-z
x,-y,1/2+z
1/2+x,1/2+y,z
1/2-x,1/2+y,1/2-z
1/2-x,1/2-y,-z
1/2+x,1/2-y,1/2+z
loop_
_atom_site_type_symbol
_atom_site_label
_atom_site_fract_x
_atom_site_fract_y
_atom_site_fract_z
Si Si1 0.071018 0.950959 0.366585
Si Si2 0.147173 0.256541 0.672041
Si Si3 0.431274 0.921069 0.956213
Si Si4 0.760388 0.578978 0.280747
O O1 0.086646 0.819171 0.410208
O O2 0.099988 0.029717 0.517955
O O3 0.000000 0.000000 0.500000
O O4 0.122711 0.331634 0.492560
O O5 0.178393 0.342986 0.801188
O O6 0.201822 0.165755 0.466496
O O7 0.500000 0.863142 0.750000
O O8 0.428988 0.020735 0.739519
O O9 0.759191 0.479921 0.505839
#
# Coordination Sequence:
#
# PCOD9294622 Si02
#       4
#     8   8   8   8
#     4  10  23  41  61  96 132 167 214 272 321 396
#     4  11  24  42  73  94 133 183 215 277 344 383
#     4  10  23  42  62  96 132 171 223 268 319 400
#     4  11  26  45  66 101 133 171 231 276 327 399
#
# _framework density 25.261538999999999
#
# number of rings (size 3 to 8) (size 9 to 14) (size 15 to 20)
#    0.000    1.500    0.000    3.000    3.500   10.000 
#    9.000    0.000    0.000    0.000    0.000    0.000 
#    0.000    0.000    0.000    0.000    0.000    0.000 
#
# Total GULP energy -89512.412497 kJ/mol
# GULP energy per Si atom -5594.525781 kJ/mol
# Density = 2.520404 g / cm^3
# Si number density = 25.261539 Si / 1000 Ang^3
#
#
#
# Elastic Constant Matrix: (Units=GPa)
#
#
# Indices 1 2 3 4 5 6 
#
# 1 141.8217 46.3118 40.2463 0.0000 -14.3256 0.0000
# 2 46.3118 69.0267 11.7031 0.0000 -31.0357 0.0000
# 3 40.2463 11.7031 73.5297 0.0000 8.8891 0.0000
# 4 0.0000 0.0000 0.0000 11.2158 0.0000 -19.8173
# 5 -14.3256 -31.0357 8.8891 0.0000 35.1632 0.0000
# 6 0.0000 0.0000 0.0000 -19.8173 0.0000 57.7242
#
#
#
# Elastic Compliance Matrix: (Units=1/GPa)
#
#
# Indices 1 2 3 4 5 6 
#
# 1 0.010408 -0.006208 -0.004702 0.000000 -0.000051 0.000000
# 2 -0.006208 0.031272 -0.004755 0.000000 0.026274 0.000000
# 3 -0.004702 -0.004755 0.018227 0.000000 -0.010721 0.000000
# 4 0.000000 0.000000 0.000000 0.226638 0.000000 0.077807
# 5 -0.000051 0.026274 -0.010721 0.000000 0.054318 0.000000
# 6 0.000000 0.000000 0.000000 0.077807 0.000000 0.044036
#
#
# Mechanical properties :
#
#
# Convention : Reuss Voigt Hill
#
# Bulk Modulus (GPa) = 34.99672 53.43338 44.21505
# Shear Modulus (GPa) = 11.74382 33.22843 22.48613
#
# Velocity S-wave (km/s) = 2.15847 3.63075 2.98675
# Velocity P-wave (km/s) = 4.48284 6.22691 5.42541
#
# Compressibility (1/GPa) = 0.02857410
#
# Stress axis : x y z
#
# Youngs Moduli (GPa) = 96.08193 31.97732 54.86445
#
# Poissons Ratio (x) = 0.19853 0.25800
# Poissons Ratio (y) = 0.59651 0.26091
# Poissons Ratio (z) = 0.45182 0.15207
#
# Static dielectric constant tensor:
#      x y z
#    x 2.615940 0.000000 -0.830940 
#    y 0.000000 2.011590 0.000000 
#    z -0.830940 0.000000 2.982170 
# 
# From -- ./inp_files/14851.got.cif
#   From: 2010.05.17/outbox.cif.g08.bks.cpg/sg15_8_cif.got.tgz:14851.got - 2010.06.03 18:47:42.
