data_PCOD9294541
_publ_section_title
;
Structure prediction by ZEFSAII (Michael W. Deem and Ramdas Pophale) SiO2 
 PCOD9294541
Probable space group: C 2/C
;
_chemical_formula_sum "Si O2"
_cell_formula_units_Z 40
_cell_length_a 8.001636
_cell_length_b 23.605956
_cell_length_c 9.140616
_cell_angle_alpha 90.000000
_cell_angle_beta 88.655869
_cell_angle_gamma 90.000000
_cell_volume 1726.061761
_symmetry_space_group_name_H-M "C 2/C"
_symmetry_group_IT_number 15
_symmetry_cell_setting 'monoclinic'
loop_
_space_group_symop_operation_xyz
x,y,z
-x,y,1/2-z
-x,-y,-z
x,-y,1/2+z
1/2+x,1/2+y,z
1/2-x,1/2+y,1/2-z
1/2-x,1/2-y,-z
1/2+x,1/2-y,1/2+z
loop_
_atom_site_type_symbol
_atom_site_label
_atom_site_fract_x
_atom_site_fract_y
_atom_site_fract_z
Si Si1 0.803318 0.193648 0.080254
Si Si2 0.876645 0.900274 0.376484
Si Si3 0.706502 0.692790 0.086926
Si Si4 0.308865 0.567786 0.451807
Si Si5 0.808178 0.499580 0.288815
O O1 0.734799 0.194043 0.245943
O O2 0.004667 0.190558 0.089086
O O3 0.750000 0.250000 0.000000
O O4 0.764302 0.141739 0.973301
O O5 0.766710 0.944499 0.290577
O O6 0.000000 0.872274 0.250000
O O7 0.005590 0.930707 0.484577
O O8 0.761590 0.631471 0.023599
O O9 0.750000 0.750000 0.000000
O O10 0.294417 0.551274 0.281884
O O11 0.213701 0.518841 0.543205
O O12 0.000000 0.510032 0.250000
#
# Coordination Sequence:
#
# PCOD9294541 Si02
#       5
#     8   8   8   8   8
#     4  10  23  40  68  93 124 167 215 262 314 379
#     4   9  21  41  66  93 125 168 213 259 316 388
#     4  10  24  45  63  94 131 165 215 261 321 380
#     4  10  23  43  65  89 128 172 210 262 311 392
#     4  11  23  40  64  94 128 161 214 266 322 369
#
# _framework density 23.174142
#
# number of rings (size 3 to 8) (size 9 to 14) (size 15 to 20)
#    0.000    2.000    0.000    1.200   11.200    1.600 
#   10.800    0.000    0.000    0.000    0.000    0.000 
#    0.000    0.000    0.000    0.000    0.000    0.000 
#
# Total GULP energy -111739.519060 kJ/mol
# GULP energy per Si atom -5586.975953 kJ/mol
# Density = 2.312140 g / cm^3
# Si number density = 23.174142 Si / 1000 Ang^3
#
#
#
# Elastic Constant Matrix: (Units=GPa)
#
#
# Indices 1 2 3 4 5 6 
#
# 1 38.4736 -11.9555 10.0532 0.0000 5.6652 0.0000
# 2 -11.9555 95.3331 48.5707 0.0000 -5.3426 0.0000
# 3 10.0532 48.5707 133.2100 0.0000 -5.6688 0.0000
# 4 0.0000 0.0000 0.0000 44.9491 0.0000 1.3949
# 5 5.6652 -5.3426 -5.6688 0.0000 28.3308 0.0000
# 6 0.0000 0.0000 0.0000 1.3949 0.0000 32.2188
#
#
#
# Elastic Compliance Matrix: (Units=1/GPa)
#
#
# Indices 1 2 3 4 5 6 
#
# 1 0.029837 0.005760 -0.004599 0.000000 -0.005800 0.000000
# 2 0.005760 0.014058 -0.005544 0.000000 0.000390 0.000000
# 3 -0.004599 -0.005544 0.009955 0.000000 0.001866 0.000000
# 4 0.000000 0.000000 0.000000 0.022277 0.000000 -0.000965
# 5 -0.005800 0.000390 0.001866 0.000000 0.036904 0.000000
# 6 0.000000 0.000000 0.000000 -0.000965 0.000000 0.031080
#
#
# Mechanical properties :
#
#
# Convention : Reuss Voigt Hill
#
# Bulk Modulus (GPa) = 22.18050 40.03927 31.10988
# Shear Modulus (GPa) = 29.77863 35.78963 32.78413
#
# Velocity S-wave (km/s) = 3.58857 3.93412 3.76531
# Velocity P-wave (km/s) = 5.17324 6.16048 5.68832
#
# Compressibility (1/GPa) = 0.04508465
#
# Stress axis : x y z
#
# Youngs Moduli (GPa) = 33.51495 71.13242 100.45355
#
# Poissons Ratio (x) = -0.40971 0.46196
# Poissons Ratio (y) = -0.19304 0.55691
# Poissons Ratio (z) = 0.15413 0.39436
#
# Static dielectric constant tensor:
#      x y z
#    x 1.866460 0.000000 -0.091510 
#    y 0.000000 1.888830 0.000000 
#    z -0.091510 0.000000 2.195170 
# 
# From -- ./inp_files/23463.got.cif
#   From: 2010.05.17/outbox.cif.g08.bks.cpg/sg15_12_cif.got.tgz:23463.got - 2010.06.03 18:47:42.
