data_PCOD9294820
_publ_section_title
;
Structure prediction by ZEFSAII (Michael W. Deem and Ramdas Pophale) SiO2 
 PCOD9294820
Probable space group: C 2/C
;
_chemical_formula_sum "Si O2"
_cell_formula_units_Z 56
_cell_length_a 24.510175
_cell_length_b 5.666873
_cell_length_c 17.642112
_cell_angle_alpha 90.000000
_cell_angle_beta 105.190504
_cell_angle_gamma 90.000000
_cell_volume 2364.801831
_symmetry_space_group_name_H-M "C 2/C"
_symmetry_group_IT_number 15
_symmetry_cell_setting 'monoclinic'
loop_
_space_group_symop_operation_xyz
x,y,z
-x,y,1/2-z
-x,-y,-z
x,-y,1/2+z
1/2+x,1/2+y,z
1/2-x,1/2+y,1/2-z
1/2-x,1/2-y,-z
1/2+x,1/2-y,1/2+z
loop_
_atom_site_type_symbol
_atom_site_label
_atom_site_fract_x
_atom_site_fract_y
_atom_site_fract_z
Si Si1 0.971903 0.382374 0.172754
Si Si2 0.718441 0.935160 0.542127
Si Si3 0.579748 0.585073 0.468531
Si Si4 0.830097 0.813546 0.065807
Si Si5 0.470485 0.737031 0.896998
Si Si6 0.604364 0.751952 0.763043
Si Si7 0.717573 0.865154 0.717606
O O1 0.928360 0.249317 0.105944
O O2 0.939628 0.577926 0.210173
O O3 0.000000 0.231148 0.250000
O O4 0.014837 0.503319 0.128785
O O5 0.750000 0.750000 0.500000
O O6 0.705967 0.857668 0.622842
O O7 0.766885 0.135278 0.569322
O O8 0.670271 0.057349 0.473641
O O9 0.641740 0.475641 0.488426
O O10 0.564984 0.720117 0.539665
O O11 0.530309 0.388645 0.436734
O O12 0.866619 0.865901 0.153857
O O13 0.432267 0.625583 0.815805
O O14 0.657489 0.871610 0.739539
O O15 0.749037 0.613358 0.750506
#
# Coordination Sequence:
#
# PCOD9294820 Si02
#       7
#     8   8   8   8   8   8   8
#     4  10  23  41  67 101 141 186 236 290 370 441
#     4  11  27  48  74 101 148 193 247 308 383 449
#     4  11  24  42  73 101 138 191 242 301 368 441
#     4  11  25  45  71 103 138 188 249 298 377 445
#     4  10  24  45  65 103 144 179 241 304 365 440
#     4  11  24  46  69 104 143 188 237 309 368 447
#     4  12  28  50  77 113 154 196 254 314 379 454
#
# _framework density 23.680630000000001
#
# number of rings (size 3 to 8) (size 9 to 14) (size 15 to 20)
#    0.000    1.143    2.857    1.286   10.000    0.000 
#   12.857    0.000    0.000    0.000    0.000    0.000 
#    0.000    0.000    0.000    0.000    0.000    0.000 
#
# Total GULP energy -156214.336264 kJ/mol
# GULP energy per Si atom -5579.083438 kJ/mol
# Density = 2.362673 g / cm^3
# Si number density = 23.680630 Si / 1000 Ang^3
#
#
#
# Elastic Constant Matrix: (Units=GPa)
#
#
# Indices 1 2 3 4 5 6 
#
# 1 111.3104 18.4645 33.1521 0.0000 -23.9179 0.0000
# 2 18.4645 63.7063 48.1769 0.0000 -9.5788 0.0000
# 3 33.1521 48.1769 152.8953 0.0000 -31.1079 0.0000
# 4 0.0000 0.0000 0.0000 15.0748 0.0000 -15.1707
# 5 -23.9179 -9.5788 -31.1079 0.0000 46.1005 0.0000
# 6 0.0000 0.0000 0.0000 -15.1707 0.0000 16.7880
#
#
#
# Elastic Compliance Matrix: (Units=1/GPa)
#
#
# Indices 1 2 3 4 5 6 
#
# 1 0.010488 -0.001754 -0.000798 0.000000 0.004538 0.000000
# 2 -0.001754 0.020901 -0.006384 0.000000 -0.000875 0.000000
# 3 -0.000798 -0.006384 0.009703 0.000000 0.004807 0.000000
# 4 0.000000 0.000000 0.000000 0.732320 0.000000 0.661771
# 5 0.004538 -0.000875 0.004807 0.000000 0.027108 0.000000
# 6 0.000000 0.000000 0.000000 0.661771 0.000000 0.657585
#
#
# Mechanical properties :
#
#
# Convention : Reuss Voigt Hill
#
# Bulk Modulus (GPa) = 43.06452 58.61099 50.83776
# Shear Modulus (GPa) = 3.36992 30.80055 17.08523
#
# Velocity S-wave (km/s) = 1.19422 3.61038 2.68896
# Velocity P-wave (km/s) = 4.48626 6.49493 5.58170
#
# Compressibility (1/GPa) = 0.02322097
#
# Stress axis : x y z
#
# Youngs Moduli (GPa) = 95.34998 47.84371 103.06146
#
# Poissons Ratio (x) = 0.08391 0.08225
# Poissons Ratio (y) = 0.16723 0.65791
# Poissons Ratio (z) = 0.07609 0.30542
#
# Static dielectric constant tensor:
#      x y z
#    x 1.946220 0.000000 0.107990 
#    y 0.000000 1.981640 0.000000 
#    z 0.107990 0.000000 1.939110 
# 
# From -- ./inp_files/221299.got.cif
#   From: 2010.05.17/outbox.cif.g08.bks.cpg/sg15_111_cif.got.tgz:221299.got - 2010.06.03 18:47:42.
