data_PCOD9294574
_publ_section_title
;
Structure prediction by ZEFSAII (Michael W. Deem and Ramdas Pophale) SiO2 
 PCOD9294574
Probable space group: C 2/C
;
_chemical_formula_sum "Si O2"
_cell_formula_units_Z 52
_cell_length_a 11.705319
_cell_length_b 13.983566
_cell_length_c 16.251756
_cell_angle_alpha 90.000000
_cell_angle_beta 65.274839
_cell_angle_gamma 90.000000
_cell_volume 2416.253820
_symmetry_space_group_name_H-M "C 2/C"
_symmetry_group_IT_number 15
_symmetry_cell_setting 'monoclinic'
loop_
_space_group_symop_operation_xyz
x,y,z
-x,y,1/2-z
-x,-y,-z
x,-y,1/2+z
1/2+x,1/2+y,z
1/2-x,1/2+y,1/2-z
1/2-x,1/2-y,-z
1/2+x,1/2-y,1/2+z
loop_
_atom_site_type_symbol
_atom_site_label
_atom_site_fract_x
_atom_site_fract_y
_atom_site_fract_z
Si Si1 0.376997 0.538389 0.924706
Si Si2 0.391557 0.586557 0.110875
Si Si3 0.268594 0.779981 0.732938
Si Si4 0.014463 0.565896 0.613664
Si Si5 0.641423 0.076043 0.427755
Si Si6 0.500000 0.678153 0.750000
Si Si7 0.297517 0.917709 0.296561
O O1 0.466610 0.444958 0.910173
O O2 0.242366 0.499975 0.933571
O O3 0.439370 0.609893 0.839060
O O4 0.373109 0.585925 0.017242
O O5 0.338637 0.680268 0.172747
O O6 0.309739 0.496558 0.170273
O O7 0.292927 0.864654 0.662324
O O8 0.389753 0.745553 0.747904
O O9 0.245531 0.689897 0.680318
O O10 0.083456 0.629371 0.524610
O O11 0.107462 0.553644 0.660752
O O12 0.981501 0.466663 0.580185
O O13 0.878421 0.592885 0.688963
#
# Coordination Sequence:
#
# PCOD9294574 Si02
#       7
#     8   8   8   8   8   4   8
#     4  11  24  47  74  94 143 178 234 275 343 410
#     4  11  24  46  72  98 132 190 221 283 340 404
#     4  12  27  41  72 102 140 177 231 279 350 400
#     4  10  23  40  70  93 140 170 228 272 339 396
#     4  11  23  41  70 103 127 189 220 279 339 409
#     4  12  26  42  68 106 140 176 226 288 332 422
#     4  11  22  46  64 101 135 179 222 286 328 410
#
# _framework density 21.520918000000002
#
# number of rings (size 3 to 8) (size 9 to 14) (size 15 to 20)
#    0.000    0.923    4.615    1.846    2.154    4.923 
#    0.000    0.000    0.000    0.000    0.000    0.000 
#    0.000    0.000    0.000    0.000    0.000    0.000 
#
# Total GULP energy -144971.501518 kJ/mol
# GULP energy per Si atom -5575.826981 kJ/mol
# Density = 2.147194 g / cm^3
# Si number density = 21.520918 Si / 1000 Ang^3
#
#
#
# Elastic Constant Matrix: (Units=GPa)
#
#
# Indices 1 2 3 4 5 6 
#
# 1 109.2429 8.0305 12.5436 0.0000 10.7751 0.0000
# 2 8.0305 34.6425 9.7007 0.0000 5.3361 0.0000
# 3 12.5436 9.7007 129.4995 0.0000 1.1200 0.0000
# 4 0.0000 0.0000 0.0000 18.1048 0.0000 0.3568
# 5 10.7751 5.3361 1.1200 0.0000 24.9943 0.0000
# 6 0.0000 0.0000 0.0000 0.3568 0.0000 30.0838
#
#
#
# Elastic Compliance Matrix: (Units=1/GPa)
#
#
# Indices 1 2 3 4 5 6 
#
# 1 0.009732 -0.001438 -0.000802 0.000000 -0.003852 0.000000
# 2 -0.001438 0.030689 -0.002109 0.000000 -0.005838 0.000000
# 3 -0.000802 -0.002109 0.007954 0.000000 0.000439 0.000000
# 4 0.000000 0.000000 0.000000 0.055247 0.000000 -0.000655
# 5 -0.003852 -0.005838 0.000439 0.000000 0.042897 0.000000
# 6 0.000000 0.000000 0.000000 -0.000655 0.000000 0.033248
#
#
# Mechanical properties :
#
#
# Convention : Reuss Voigt Hill
#
# Bulk Modulus (GPa) = 25.20327 37.10384 31.15355
# Shear Modulus (GPa) = 24.79051 30.84391 27.81721
#
# Velocity S-wave (km/s) = 3.39769 3.78988 3.59913
# Velocity P-wave (km/s) = 5.20854 6.03566 5.63729
#
# Compressibility (1/GPa) = 0.03967739
#
# Stress axis : x y z
#
# Youngs Moduli (GPa) = 102.75758 32.58454 125.72489
#
# Poissons Ratio (x) = 0.04686 0.10078
# Poissons Ratio (y) = 0.14777 0.26517
# Poissons Ratio (z) = 0.08237 0.06873
#
# Static dielectric constant tensor:
#      x y z
#    x 1.784990 0.000000 -0.037790 
#    y 0.000000 1.806770 0.000000 
#    z -0.037790 0.000000 1.925180 
# 
# From -- ./inp_files/144179.got.cif
#   From: 2010.05.17/outbox.cif.g08.bks.cpg/sg15_73_cif.got.tgz:144179.got - 2010.06.03 18:47:42.
