data_PCOD9294456
_publ_section_title
;
Structure prediction by ZEFSAII (Michael W. Deem and Ramdas Pophale) SiO2 
 PCOD9294456
Probable space group: C 2/C
;
_chemical_formula_sum "Si O2"
_cell_formula_units_Z 44
_cell_length_a 12.587633
_cell_length_b 20.908036
_cell_length_c 10.614609
_cell_angle_alpha 90.000000
_cell_angle_beta 49.637588
_cell_angle_gamma 90.000000
_cell_volume 2128.606506
_symmetry_space_group_name_H-M "C 2/C"
_symmetry_group_IT_number 15
_symmetry_cell_setting 'monoclinic'
loop_
_space_group_symop_operation_xyz
x,y,z
-x,y,1/2-z
-x,-y,-z
x,-y,1/2+z
1/2+x,1/2+y,z
1/2-x,1/2+y,1/2-z
1/2-x,1/2-y,-z
1/2+x,1/2-y,1/2+z
loop_
_atom_site_type_symbol
_atom_site_label
_atom_site_fract_x
_atom_site_fract_y
_atom_site_fract_z
Si Si1 0.440790 0.820674 0.544044
Si Si2 0.608165 0.716777 0.553832
Si Si3 0.771740 0.507183 0.414593
Si Si4 0.000000 0.046685 0.250000
Si Si5 0.000000 0.397819 0.250000
Si Si6 0.000000 0.398801 0.750000
Si Si7 0.179948 0.113011 0.310169
O O1 0.525888 0.756175 0.507418
O O2 0.497014 0.855366 0.377685
O O3 0.460960 0.856003 0.662515
O O4 0.274405 0.834420 0.663938
O O5 0.500000 0.711385 0.750000
O O6 0.750000 0.750000 0.500000
O O7 0.642290 0.648302 0.468458
O O8 0.627907 0.494401 0.596102
O O9 0.862882 0.442649 0.342961
O O10 0.877464 0.556864 0.397538
O O11 0.748429 0.544411 0.299238
O O12 0.053716 0.091586 0.320836
#
# Coordination Sequence:
#
# PCOD9294456 Si02
#       7
#     8   8   8   4   4   4   8
#     4  11  22  46  69 102 134 176 236 281 332 413
#     4  12  24  46  72 100 130 177 232 282 335 409
#     4  10  23  40  65  98 137 176 221 276 342 417
#     4  12  24  43  59 101 143 172 218 286 358 398
#     4  11  24  41  76 102 133 184 227 280 350 405
#     4   9  20  40  71  93 128 178 229 276 330 407
#     4  11  25  44  66  98 141 179 226 284 343 409
#
# _framework density 20.670801000000001
#
# number of rings (size 3 to 8) (size 9 to 14) (size 15 to 20)
#    0.000    1.091    4.545    1.636    3.818    4.364 
#    0.000    1.818    0.000    0.000    0.000    0.000 
#    0.000    0.000    0.000    0.000    0.000    0.000 
#
# Total GULP energy -122548.032498 kJ/mol
# GULP energy per Si atom -5570.365114 kJ/mol
# Density = 2.062375 g / cm^3
# Si number density = 20.670801 Si / 1000 Ang^3
#
#
#
# Elastic Constant Matrix: (Units=GPa)
#
#
# Indices 1 2 3 4 5 6 
#
# 1 71.6247 34.0687 19.3511 0.0000 -5.1714 0.0000
# 2 34.0687 70.0450 26.1508 0.0000 2.1046 0.0000
# 3 19.3511 26.1508 100.4422 0.0000 -17.1333 0.0000
# 4 0.0000 0.0000 0.0000 1.8036 0.0000 -46.8662
# 5 -5.1714 2.1046 -17.1333 0.0000 41.4132 0.0000
# 6 0.0000 0.0000 0.0000 -46.8662 0.0000 -53.8994
#
#
#
# Elastic Compliance Matrix: (Units=1/GPa)
#
#
# Indices 1 2 3 4 5 6 
#
# 1 0.018540 -0.008760 -0.000883 0.000000 0.002395 0.000000
# 2 -0.008760 0.020238 -0.004243 0.000000 -0.003878 0.000000
# 3 -0.000883 -0.004243 0.012103 0.000000 0.005112 0.000000
# 4 0.000000 0.000000 0.000000 0.023499 0.000000 -0.020433
# 5 0.002395 -0.003878 0.005112 0.000000 0.026758 0.000000
# 6 0.000000 0.000000 0.000000 -0.020433 0.000000 -0.000786
#
#
# Mechanical properties :
#
#
# Convention : Reuss Voigt Hill
#
# Bulk Modulus (GPa) = 43.27197 44.58369 43.92783
# Shear Modulus (GPa) = 36.81203 8.69958 22.75581
#
# Velocity S-wave (km/s) = 4.22462 2.05372 3.32153
# Velocity P-wave (km/s) = 6.69147 5.21910 6.00062
#
# Compressibility (1/GPa) = 0.02310965
#
# Stress axis : x y z
#
# Youngs Moduli (GPa) = 53.93817 49.41262 82.62595
#
# Poissons Ratio (x) = 0.43285 0.07292
# Poissons Ratio (y) = 0.47249 0.35057
# Poissons Ratio (z) = 0.04761 0.20965
#
# Static dielectric constant tensor:
#      x y z
#    x 1.848440 0.000000 -0.090360 
#    y 0.000000 1.755140 0.000000 
#    z -0.090360 0.000000 1.773980 
# 
# From -- ./inp_files/99680.got.cif
#   From: 2010.05.17/outbox.cif.g08.bks.cpg/sg15_50_cif.got.tgz:99680.got - 2010.06.03 18:47:42.
