data_PCOD9294440
_publ_section_title
;
Structure prediction by ZEFSAII (Michael W. Deem and Ramdas Pophale) SiO2 
 PCOD9294440
Probable space group: C 2/C
;
_chemical_formula_sum "Si O2"
_cell_formula_units_Z 52
_cell_length_a 6.492288
_cell_length_b 18.728858
_cell_length_c 21.040889
_cell_angle_alpha 90.000000
_cell_angle_beta 70.329900
_cell_angle_gamma 90.000000
_cell_volume 2409.134116
_symmetry_space_group_name_H-M "C 2/C"
_symmetry_group_IT_number 15
_symmetry_cell_setting 'monoclinic'
loop_
_space_group_symop_operation_xyz
x,y,z
-x,y,1/2-z
-x,-y,-z
x,-y,1/2+z
1/2+x,1/2+y,z
1/2-x,1/2+y,1/2-z
1/2-x,1/2-y,-z
1/2+x,1/2-y,1/2+z
loop_
_atom_site_type_symbol
_atom_site_label
_atom_site_fract_x
_atom_site_fract_y
_atom_site_fract_z
Si Si1 0.932957 0.514649 0.826757
Si Si2 0.854147 0.887302 0.631187
Si Si3 0.871954 0.135008 0.621402
Si Si4 0.500000 0.636316 0.250000
Si Si5 0.251955 0.405805 0.991059
Si Si6 0.800437 0.550939 0.577868
Si Si7 0.449495 0.777416 0.684324
O O1 0.756283 0.461487 0.877096
O O2 0.827185 0.592219 0.825751
O O3 0.000000 0.485957 0.750000
O O4 0.108963 0.520608 0.864674
O O5 0.936127 0.904346 0.693559
O O6 0.658575 0.828872 0.648593
O O7 0.075322 0.865746 0.572055
O O8 0.834292 0.117028 0.551580
O O9 0.903072 0.216204 0.638176
O O10 0.094860 0.097228 0.616773
O O11 0.279006 0.680282 0.287236
O O12 0.264380 0.487435 0.963691
O O13 0.988375 0.400523 0.024589
O O14 0.500000 0.747335 0.750000
#
# Coordination Sequence:
#
# PCOD9294440 Si02
#       7
#     8   8   8   4   8   8   8
#     4  11  25  37  65 102 125 163 227 267 325 393
#     4  11  24  42  66  96 129 171 220 269 322 395
#     4  11  24  42  65  96 131 171 215 272 326 394
#     4  10  24  46  68  88 132 174 206 272 328 376
#     4  10  23  40  66  96 130 174 220 262 334 388
#     4  10  23  40  65  94 136 172 204 281 333 373
#     4  10  25  43  65  92 132 172 215 266 337 388
#
# _framework density 21.584517000000002
#
# number of rings (size 3 to 8) (size 9 to 14) (size 15 to 20)
#    0.000    1.538    1.538    1.846   11.846    4.308 
#    0.000    1.538    0.000    0.000    0.000    0.000 
#    0.000    0.000    0.000    0.000    0.000    0.000 
#
# Total GULP energy -144938.568812 kJ/mol
# GULP energy per Si atom -5574.560339 kJ/mol
# Density = 2.153539 g / cm^3
# Si number density = 21.584517 Si / 1000 Ang^3
#
#
#
# Elastic Constant Matrix: (Units=GPa)
#
#
# Indices 1 2 3 4 5 6 
#
# 1 112.0197 26.4094 46.1773 0.0000 5.0034 0.0000
# 2 26.4094 42.5772 14.6084 0.0000 5.0896 0.0000
# 3 46.1773 14.6084 92.6055 0.0000 -11.2612 0.0000
# 4 0.0000 0.0000 0.0000 -14.6830 0.0000 -8.2269
# 5 5.0034 5.0896 -11.2612 0.0000 9.6317 0.0000
# 6 0.0000 0.0000 0.0000 -8.2269 0.0000 20.7835
#
#
#
# Elastic Compliance Matrix: (Units=1/GPa)
#
#
# Indices 1 2 3 4 5 6 
#
# 1 0.013836 -0.004123 -0.007994 0.000000 -0.014355 0.000000
# 2 -0.004123 0.030158 -0.005105 0.000000 -0.019763 0.000000
# 3 -0.007994 -0.005105 0.019145 0.000000 0.029234 0.000000
# 4 0.000000 0.000000 0.000000 -0.055743 0.000000 -0.022065
# 5 -0.014355 -0.019763 0.029234 0.000000 0.155904 0.000000
# 6 0.000000 0.000000 0.000000 -0.022065 0.000000 0.039381
#
#
# Mechanical properties :
#
#
# Convention : Reuss Voigt Hill
#
# Bulk Modulus (GPa) = 34.84967 46.84361 40.84664
# Shear Modulus (GPa) = 20.26841 13.81361 17.04101
#
# Velocity S-wave (km/s) = 3.06768 2.53252 2.81286
# Velocity P-wave (km/s) = 5.35987 5.50464 5.43274
#
# Compressibility (1/GPa) = 0.02869468
#
# Stress axis : x y z
#
# Youngs Moduli (GPa) = 72.27687 33.15878 52.23260
#
# Poissons Ratio (x) = 0.13671 0.41757
# Poissons Ratio (y) = 0.29799 0.26663
# Poissons Ratio (z) = 0.57781 0.16927
#
# Static dielectric constant tensor:
#      x y z
#    x 1.823060 0.000000 -0.061880 
#    y 0.000000 1.769920 0.000000 
#    z -0.061880 0.000000 1.881060 
# 
# From -- ./inp_files/227471.got.cif
#   From: 2010.05.17/outbox.cif.g08.bks.cpg/sg15_114_cif.got.tgz:227471.got - 2010.06.03 18:47:42.
