data_PCOD9294538
_publ_section_title
;
Structure prediction by ZEFSAII (Michael W. Deem and Ramdas Pophale) SiO2 
 PCOD9294538
Probable space group: C 2/C
;
_chemical_formula_sum "Si O2"
_cell_formula_units_Z 44
_cell_length_a 5.116841
_cell_length_b 21.760132
_cell_length_c 17.320354
_cell_angle_alpha 90.000000
_cell_angle_beta 79.863018
_cell_angle_gamma 90.000000
_cell_volume 1898.398181
_symmetry_space_group_name_H-M "C 2/C"
_symmetry_group_IT_number 15
_symmetry_cell_setting 'monoclinic'
loop_
_space_group_symop_operation_xyz
x,y,z
-x,y,1/2-z
-x,-y,-z
x,-y,1/2+z
1/2+x,1/2+y,z
1/2-x,1/2+y,1/2-z
1/2-x,1/2-y,-z
1/2+x,1/2-y,1/2+z
loop_
_atom_site_type_symbol
_atom_site_label
_atom_site_fract_x
_atom_site_fract_y
_atom_site_fract_z
Si Si1 0.000000 0.325289 0.750000
Si Si2 0.000000 0.541762 0.750000
Si Si3 0.691228 0.884860 0.979298
Si Si4 0.659363 0.681071 0.510370
Si Si5 0.715736 0.635577 0.855974
Si Si6 0.253201 0.564880 0.322756
Si Si7 0.000000 0.740767 0.750000
O O1 0.084923 0.373546 0.812006
O O2 0.259897 0.282406 0.729162
O O3 0.760672 0.586191 0.787319
O O4 0.910772 0.495637 0.688024
O O5 0.902269 0.828817 0.969993
O O6 0.806108 0.931813 0.911026
O O7 0.396415 0.863720 0.975794
O O8 0.690743 0.898963 0.070518
O O9 0.750000 0.750000 0.500000
O O10 0.566298 0.661638 0.601573
O O11 0.880593 0.695540 0.821601
O O12 0.500000 0.566063 0.250000
#
# Coordination Sequence:
#
# PCOD9294538 Si02
#       7
#     4   4   8   8   8   8   4
#     4  11  26  39  66 101 140 177 234 280 352 425
#     4  10  24  50  70 102 138 190 242 292 350 416
#     4  10  25  41  68 102 137 178 241 281 352 410
#     4  10  23  40  68 105 144 182 221 289 351 425
#     4   9  25  44  69 107 139 187 230 291 353 423
#     4  11  26  45  71  98 137 191 236 301 344 414
#     4  11  24  41  70 101 146 181 226 286 360 429
#
# _framework density 23.177434999999999
#
# number of rings (size 3 to 8) (size 9 to 14) (size 15 to 20)
#    1.091    0.727    0.909    0.545   10.182    2.182 
#    3.273    1.818    0.000    0.000    0.000    0.000 
#    0.000    0.000    0.000    0.000    0.000    0.000 
#
# Total GULP energy -122674.316794 kJ/mol
# GULP energy per Si atom -5576.105309 kJ/mol
# Density = 2.312468 g / cm^3
# Si number density = 23.177435 Si / 1000 Ang^3
#
#
#
# Elastic Constant Matrix: (Units=GPa)
#
#
# Indices 1 2 3 4 5 6 
#
# 1 101.5435 34.0767 29.6540 0.0000 -28.5969 0.0000
# 2 34.0767 119.9850 40.6842 0.0000 -12.5063 0.0000
# 3 29.6540 40.6842 93.4427 0.0000 -21.6134 0.0000
# 4 0.0000 0.0000 0.0000 -11.7052 0.0000 -33.0575
# 5 -28.5969 -12.5063 -21.6134 0.0000 27.0990 0.0000
# 6 0.0000 0.0000 0.0000 -33.0575 0.0000 -29.7522
#
#
#
# Elastic Compliance Matrix: (Units=1/GPa)
#
#
# Indices 1 2 3 4 5 6 
#
# 1 0.014809 -0.002635 -0.000269 0.000000 0.014197 0.000000
# 2 -0.002635 0.010288 -0.003909 0.000000 -0.001151 0.000000
# 3 -0.000269 -0.003909 0.014722 0.000000 0.009654 0.000000
# 4 0.000000 0.000000 0.000000 0.039960 0.000000 -0.044400
# 5 0.014197 -0.001151 0.009654 0.000000 0.059053 0.000000
# 6 0.000000 0.000000 0.000000 -0.044400 0.000000 0.015721
#
#
# Mechanical properties :
#
#
# Convention : Reuss Voigt Hill
#
# Bulk Modulus (GPa) = 38.17710 58.20010 48.18860
# Shear Modulus (GPa) = 28.26279 11.16541 19.71410
#
# Velocity S-wave (km/s) = 3.49579 2.19723 2.91962
# Velocity P-wave (km/s) = 5.72726 5.62159 5.67467
#
# Compressibility (1/GPa) = 0.02619371
#
# Stress axis : x y z
#
# Youngs Moduli (GPa) = 67.52670 97.19688 67.92487
#
# Poissons Ratio (x) = 0.25611 0.01824
# Poissons Ratio (y) = 0.17793 0.26554
# Poissons Ratio (z) = 0.01813 0.37998
#
# Static dielectric constant tensor:
#      x y z
#    x 0.756840 0.000000 -0.519970 
#    y 0.000000 1.802540 0.000000 
#    z -0.519970 0.000000 1.657590 
# 
# From -- ./inp_files/185200.got.cif
#   From: 2010.05.17/outbox.cif.g08.bks.cpg/sg15_93_cif.got.tgz:185200.got - 2010.06.03 18:47:42.
