data_PCOD9294817
_publ_section_title
;
Structure prediction by ZEFSAII (Michael W. Deem and Ramdas Pophale) SiO2 
 PCOD9294817
Probable space group: C 2/C
;
_chemical_formula_sum "Si O2"
_cell_formula_units_Z 48
_cell_length_a 20.600169
_cell_length_b 11.720960
_cell_length_c 12.529665
_cell_angle_alpha 90.000000
_cell_angle_beta 140.739844
_cell_angle_gamma 90.000000
_cell_volume 1914.560621
_symmetry_space_group_name_H-M "C 2/C"
_symmetry_group_IT_number 15
_symmetry_cell_setting 'monoclinic'
loop_
_space_group_symop_operation_xyz
x,y,z
-x,y,1/2-z
-x,-y,-z
x,-y,1/2+z
1/2+x,1/2+y,z
1/2-x,1/2+y,1/2-z
1/2-x,1/2-y,-z
1/2+x,1/2-y,1/2+z
loop_
_atom_site_type_symbol
_atom_site_label
_atom_site_fract_x
_atom_site_fract_y
_atom_site_fract_z
Si Si1 0.105819 0.008523 0.442713
Si Si2 0.803032 0.075730 0.236630
Si Si3 0.616514 0.279681 0.858574
Si Si4 0.930999 0.448566 0.261007
Si Si5 0.888123 0.351644 0.862692
Si Si6 0.684777 0.347437 0.360896
O O1 0.140698 0.911280 0.406992
O O2 0.000000 0.037116 0.250000
O O3 0.111610 0.961265 0.567543
O O4 0.160595 0.132227 0.502660
O O5 0.766652 0.953294 0.142336
O O6 0.859112 0.155049 0.220870
O O7 0.710369 0.132268 0.185725
O O8 0.500000 0.254890 0.750000
O O9 0.648406 0.147969 0.881665
O O10 0.880961 0.552354 0.260921
O O11 0.000000 0.492028 0.250000
O O12 0.008647 0.384387 0.442051
O O13 0.888144 0.226407 0.810342
O O14 0.750000 0.250000 0.500000
#
# Coordination Sequence:
#
# PCOD9294817 Si02
#       6
#     8   8   8   8   8   8
#     4  10  23  41  67 101 133 177 223 287 344 403
#     4  11  25  43  71 100 138 181 236 282 344 420
#     4   9  22  43  67  97 135 172 224 282 343 400
#     4  10  25  46  69  97 140 178 234 286 348 419
#     4  11  26  44  69 101 133 188 231 287 350 415
#     4  11  25  44  65  99 140 173 233 285 345 410
#
# _framework density 25.071026
#
# number of rings (size 3 to 8) (size 9 to 14) (size 15 to 20)
#    0.000    1.667    1.667    0.000   14.000    4.000 
#    0.000    4.167    0.000    0.000    0.000    0.000 
#    0.000    0.000    0.000    0.000    0.000    0.000 
#
# Total GULP energy -134025.231578 kJ/mol
# GULP energy per Si atom -5584.384649 kJ/mol
# Density = 2.501396 g / cm^3
# Si number density = 25.071026 Si / 1000 Ang^3
#
#
#
# Elastic Constant Matrix: (Units=GPa)
#
#
# Indices 1 2 3 4 5 6 
#
# 1 133.6934 61.5418 31.5841 0.0000 -23.0088 0.0000
# 2 61.5418 187.3426 22.4933 0.0000 -20.0020 0.0000
# 3 31.5841 22.4933 82.5638 0.0000 -18.5441 0.0000
# 4 0.0000 0.0000 0.0000 35.7270 0.0000 -20.0397
# 5 -23.0088 -20.0020 -18.5441 0.0000 44.3236 0.0000
# 6 0.0000 0.0000 0.0000 -20.0397 0.0000 17.8969
#
#
#
# Elastic Compliance Matrix: (Units=1/GPa)
#
#
# Indices 1 2 3 4 5 6 
#
# 1 0.009735 -0.002606 -0.002366 0.000000 0.002888 0.000000
# 2 -0.002606 0.006391 -0.000442 0.000000 0.001346 0.000000
# 3 -0.002366 -0.000442 0.014146 0.000000 0.004491 0.000000
# 4 0.000000 0.000000 0.000000 0.075257 0.000000 0.084267
# 5 0.002888 0.001346 0.004491 0.000000 0.026547 0.000000
# 6 0.000000 0.000000 0.000000 0.084267 0.000000 0.150232
#
#
# Mechanical properties :
#
#
# Convention : Reuss Voigt Hill
#
# Bulk Modulus (GPa) = 51.42592 70.53757 60.98174
# Shear Modulus (GPa) = 16.68808 38.78821 27.73814
#
# Velocity S-wave (km/s) = 2.58278 3.93763 3.32984
# Velocity P-wave (km/s) = 5.42688 6.99066 6.25781
#
# Compressibility (1/GPa) = 0.01944545
#
# Stress axis : x y z
#
# Youngs Moduli (GPa) = 102.72118 156.48089 70.69225
#
# Poissons Ratio (x) = 0.40773 0.16723
# Poissons Ratio (y) = 0.26765 0.03124
# Poissons Ratio (z) = 0.24299 0.06914
#
# Static dielectric constant tensor:
#      x y z
#    x 1.957820 0.000000 0.036240 
#    y 0.000000 2.515340 0.000000 
#    z 0.036240 0.000000 2.110040 
# 
# From -- ./inp_files/111782.got.cif
#   From: 2010.05.17/outbox.cif.g08.bks.cpg/sg15_56_cif.got.tgz:111782.got - 2010.06.03 18:47:42.
