data_PCOD9294068
_publ_section_title
;
Structure prediction by ZEFSAII (Michael W. Deem and Ramdas Pophale) SiO2 
 PCOD9294068
Probable space group: C 2/C
;
_chemical_formula_sum "Si O2"
_cell_formula_units_Z 48
_cell_length_a 21.398743
_cell_length_b 8.586196
_cell_length_c 11.226412
_cell_angle_alpha 90.000000
_cell_angle_beta 56.118121
_cell_angle_gamma 90.000000
_cell_volume 1712.406331
_symmetry_space_group_name_H-M "C 2/C"
_symmetry_group_IT_number 15
_symmetry_cell_setting 'monoclinic'
loop_
_space_group_symop_operation_xyz
x,y,z
-x,y,1/2-z
-x,-y,-z
x,-y,1/2+z
1/2+x,1/2+y,z
1/2-x,1/2+y,1/2-z
1/2-x,1/2-y,-z
1/2+x,1/2-y,1/2+z
loop_
_atom_site_type_symbol
_atom_site_label
_atom_site_fract_x
_atom_site_fract_y
_atom_site_fract_z
Si Si1 0.885877 0.054679 0.242085
Si Si2 0.179765 0.645573 0.621255
Si Si3 0.100280 0.247231 0.868427
Si Si4 0.752481 0.401298 0.770877
Si Si5 0.117249 0.805342 0.078511
Si Si6 0.561602 0.997007 0.583869
O O1 0.886192 0.237616 0.262549
O O2 0.800201 0.040580 0.280862
O O3 0.924653 0.934215 0.107690
O O4 0.901960 0.979359 0.354764
O O5 0.250000 0.750000 0.500000
O O6 0.205748 0.539203 0.703356
O O7 0.142063 0.541297 0.558900
O O8 0.184401 0.274864 0.828302
O O9 0.113234 0.272176 0.713720
O O10 0.054599 0.380881 0.983754
O O11 0.694786 0.324440 0.927060
O O12 0.065567 0.689796 0.057161
O O13 0.500000 0.023239 0.750000
#
# Coordination Sequence:
#
# PCOD9294068 Si02
#       6
#     8   8   8   8   8   8
#     4  10  23  38  65 107 142 177 233 299 376 427
#     4  12  22  40  72 106 144 181 236 312 370 430
#     4  10  24  40  65 100 139 183 238 294 358 435
#     4  12  21  38  69 109 142 177 232 303 379 424
#     4  10  25  43  67 102 148 183 237 308 356 436
#     4  12  28  49  70  99 147 206 252 291 365 449
#
# _framework density 28.030730999999999
#
# number of rings (size 3 to 8) (size 9 to 14) (size 15 to 20)
#    1.000    0.000    3.333    3.500    7.000    0.667 
#    0.000    1.667    0.000    0.000    0.000    0.000 
#    0.000    0.000    0.000    0.000    0.000    0.000 
#
# Total GULP energy -133934.476338 kJ/mol
# GULP energy per Si atom -5580.603181 kJ/mol
# Density = 2.796693 g / cm^3
# Si number density = 28.030731 Si / 1000 Ang^3
#
#
#
# Elastic Constant Matrix: (Units=GPa)
#
#
# Indices 1 2 3 4 5 6 
#
# 1 97.1588 36.5460 7.9761 0.0000 7.7117 0.0000
# 2 36.5460 156.2716 47.3542 0.0000 1.5215 0.0000
# 3 7.9761 47.3542 129.8665 0.0000 -6.6203 0.0000
# 4 0.0000 0.0000 0.0000 43.1720 0.0000 -5.4781
# 5 7.7117 1.5215 -6.6203 0.0000 41.6200 0.0000
# 6 0.0000 0.0000 0.0000 -5.4781 0.0000 22.6319
#
#
#
# Elastic Compliance Matrix: (Units=1/GPa)
#
#
# Indices 1 2 3 4 5 6 
#
# 1 0.011457 -0.002716 0.000185 0.000000 -0.001994 0.000000
# 2 -0.002716 0.007857 -0.002709 0.000000 -0.000215 0.000000
# 3 0.000185 -0.002709 0.008751 0.000000 0.001457 0.000000
# 4 0.000000 0.000000 0.000000 0.023897 0.000000 0.005784
# 5 -0.001994 -0.000215 0.001457 0.000000 0.024636 0.000000
# 6 0.000000 0.000000 0.000000 0.005784 0.000000 0.045586
#
#
# Mechanical properties :
#
#
# Convention : Reuss Voigt Hill
#
# Bulk Modulus (GPa) = 56.86654 63.00550 59.93602
# Shear Modulus (GPa) = 36.09423 40.91282 38.50352
#
# Velocity S-wave (km/s) = 3.59230 3.82458 3.71026
# Velocity P-wave (km/s) = 6.12678 6.48300 6.30740
#
# Compressibility (1/GPa) = 0.01758503
#
# Stress axis : x y z
#
# Youngs Moduli (GPa) = 87.28176 127.26932 114.27274
#
# Poissons Ratio (x) = 0.34567 -0.02115
# Poissons Ratio (y) = 0.23706 0.30959
# Poissons Ratio (z) = -0.01615 0.34480
#
# Static dielectric constant tensor:
#      x y z
#    x 2.233560 0.000000 0.042170 
#    y 0.000000 2.288690 0.000000 
#    z 0.042170 0.000000 2.226690 
# 
# From -- ./inp_files/180728.got.cif
#   From: 2010.05.17/outbox.cif.g08.bks.cpg/sg15_91_cif.got.tgz:180728.got - 2010.06.03 18:47:42.
