data_PCOD9294739
_publ_section_title
;
Structure prediction by ZEFSAII (Michael W. Deem and Ramdas Pophale) SiO2 
 PCOD9294739
Probable space group: C 2/C
;
_chemical_formula_sum "Si O2"
_cell_formula_units_Z 64
_cell_length_a 29.402191
_cell_length_b 15.242562
_cell_length_c 8.848289
_cell_angle_alpha 90.000000
_cell_angle_beta 50.249799
_cell_angle_gamma 90.000000
_cell_volume 3048.826436
_symmetry_space_group_name_H-M "C 2/C"
_symmetry_group_IT_number 15
_symmetry_cell_setting 'monoclinic'
loop_
_space_group_symop_operation_xyz
x,y,z
-x,y,1/2-z
-x,-y,-z
x,-y,1/2+z
1/2+x,1/2+y,z
1/2-x,1/2+y,1/2-z
1/2-x,1/2-y,-z
1/2+x,1/2-y,1/2+z
loop_
_atom_site_type_symbol
_atom_site_label
_atom_site_fract_x
_atom_site_fract_y
_atom_site_fract_z
Si Si1 0.857943 0.130866 0.487334
Si Si2 0.112043 0.349678 0.531434
Si Si3 0.472516 0.099273 0.042079
Si Si4 0.908719 0.307870 0.258976
Si Si5 0.837466 0.009845 0.784969
Si Si6 0.234302 0.090006 0.304868
Si Si7 0.262160 0.780387 0.146733
Si Si8 0.136533 0.553271 0.433922
O O1 0.892225 0.221507 0.387662
O O2 0.861691 0.073202 0.326929
O O3 0.790165 0.158275 0.677020
O O4 0.876564 0.066504 0.585318
O O5 0.052434 0.353289 0.755991
O O6 0.103962 0.298458 0.391949
O O7 0.172005 0.318285 0.483999
O O8 0.122041 0.452335 0.480251
O O9 0.413557 0.091397 0.068100
O O10 0.524380 0.158727 0.866243
O O11 0.500000 0.000000 0.000000
O O12 0.869894 0.390216 0.399820
O O13 0.784299 0.969983 0.795884
O O14 0.814916 0.074957 0.962856
O O15 0.238430 0.191336 0.254008
O O16 0.295568 0.063050 0.252787
O O17 0.250000 0.750000 0.000000
#
# Coordination Sequence:
#
# PCOD9294739 Si02
#       8
#     8   8   8   8   8   8   8   8
#     4  11  24  44  68  98 137 176 234 289 355 409
#     4  12  25  40  66  95 141 189 226 275 337 419
#     4  12  25  44  64  96 143 189 233 270 329 418
#     4  12  26  41  65  98 137 186 232 286 337 407
#     4  10  23  41  65  94 135 180 226 287 348 411
#     4  11  23  38  62  96 138 176 222 278 342 407
#     4  12  24  40  63 101 142 174 229 283 346 426
#     4  12  24  39  66  98 141 189 231 269 335 411
#
# _framework density 20.991683999999999
#
# number of rings (size 3 to 8) (size 9 to 14) (size 15 to 20)
#    0.000    0.500    5.000    3.750    5.250    1.000 
#    0.000    0.000    0.000    0.000    0.000   29.750 
#    0.000    0.000    0.000    0.000    0.000    0.000 
#
# Total GULP energy -178762.873288 kJ/mol
# GULP energy per Si atom -5586.339790 kJ/mol
# Density = 2.094391 g / cm^3
# Si number density = 20.991684 Si / 1000 Ang^3
#
#
#
# Elastic Constant Matrix: (Units=GPa)
#
#
# Indices 1 2 3 4 5 6 
#
# 1 70.8339 -0.6804 21.6259 0.0000 8.1300 0.0000
# 2 -0.6804 91.1549 27.9211 0.0000 -1.4654 0.0000
# 3 21.6259 27.9211 85.1568 0.0000 2.0619 0.0000
# 4 0.0000 0.0000 0.0000 12.1420 0.0000 1.3423
# 5 8.1300 -1.4654 2.0619 0.0000 29.3359 0.0000
# 6 0.0000 0.0000 0.0000 1.3423 0.0000 36.4442
#
#
#
# Elastic Compliance Matrix: (Units=1/GPa)
#
#
# Indices 1 2 3 4 5 6 
#
# 1 0.015941 0.001405 -0.004411 0.000000 -0.004038 0.000000
# 2 0.001405 0.012342 -0.004417 0.000000 0.000537 0.000000
# 3 -0.004411 -0.004417 0.014312 0.000000 -0.000004 0.000000
# 4 0.000000 0.000000 0.000000 0.082695 0.000000 -0.003046
# 5 -0.004038 0.000537 -0.000004 0.000000 0.035234 0.000000
# 6 0.000000 0.000000 0.000000 -0.003046 0.000000 0.027551
#
#
# Mechanical properties :
#
#
# Convention : Reuss Voigt Hill
#
# Bulk Modulus (GPa) = 36.03645 38.31984 37.17815
# Shear Modulus (GPa) = 23.56588 28.80303 26.18446
#
# Velocity S-wave (km/s) = 3.35420 3.70823 3.53565
# Velocity P-wave (km/s) = 5.67496 6.05219 5.86661
#
# Compressibility (1/GPa) = 0.02774968
#
# Stress axis : x y z
#
# Youngs Moduli (GPa) = 62.73026 81.02215 69.87362
#
# Poissons Ratio (x) = -0.11386 0.30824
# Poissons Ratio (y) = -0.08815 0.30861
# Poissons Ratio (z) = 0.27673 0.35785
#
# Static dielectric constant tensor:
#      x y z
#    x 1.804220 0.000000 0.001430 
#    y 0.000000 1.744160 0.000000 
#    z 0.001430 0.000000 2.004160 
# 
# From -- ./inp_files/70123.got.cif
#   From: 2010.05.17/outbox.cif.g08.bks.cpg/sg15_36_cif.got.tgz:70123.got - 2010.06.03 18:47:42.
