data_PCOD9294605
_publ_section_title
;
Structure prediction by ZEFSAII (Michael W. Deem and Ramdas Pophale) SiO2 
 PCOD9294605
Probable space group: C 2/C
;
_chemical_formula_sum "Si O2"
_cell_formula_units_Z 60
_cell_length_a 19.213121
_cell_length_b 21.488325
_cell_length_c 9.630410
_cell_angle_alpha 90.000000
_cell_angle_beta 58.408642
_cell_angle_gamma 90.000000
_cell_volume 3386.771778
_symmetry_space_group_name_H-M "C 2/C"
_symmetry_group_IT_number 15
_symmetry_cell_setting 'monoclinic'
loop_
_space_group_symop_operation_xyz
x,y,z
-x,y,1/2-z
-x,-y,-z
x,-y,1/2+z
1/2+x,1/2+y,z
1/2-x,1/2+y,1/2-z
1/2-x,1/2-y,-z
1/2+x,1/2-y,1/2+z
loop_
_atom_site_type_symbol
_atom_site_label
_atom_site_fract_x
_atom_site_fract_y
_atom_site_fract_z
Si Si1 0.167974 0.239944 0.491561
Si Si2 0.169273 0.440454 0.590178
Si Si3 0.821905 0.417006 0.466576
Si Si4 0.000000 0.176462 0.750000
Si Si5 0.798963 0.889130 0.665571
Si Si6 0.632625 0.866509 0.366759
Si Si7 0.036542 0.569912 0.452945
Si Si8 0.473261 0.555035 0.927118
O O1 0.250000 0.250000 0.500000
O O2 0.083208 0.216994 0.654892
O O3 0.183719 0.183642 0.368724
O O4 0.150567 0.302854 0.426668
O O5 0.183354 0.513554 0.587782
O O6 0.238072 0.405130 0.603537
O O7 0.167629 0.420037 0.432534
O O8 0.085007 0.424906 0.757426
O O9 0.744948 0.403347 0.644143
O O10 0.832438 0.372037 0.324549
O O11 0.899980 0.418520 0.488289
O O12 0.992327 0.126801 0.628349
O O13 0.878970 0.930252 0.556035
O O14 0.536751 0.881774 0.459179
O O15 0.000000 0.500000 0.500000
O O16 0.500000 0.529096 0.750000
O O17 0.500000 0.500000 0.000000
#
# Coordination Sequence:
#
# PCOD9294605 Si02
#       8
#     8   8   8   4   8   8   8   8
#     4  11  23  43  63  87 125 169 221 253 302 380
#     4  11  21  37  59  95 122 167 202 253 313 379
#     4  11  23  37  57  96 130 158 203 258 318 374
#     4   8  22  40  64  94 122 156 210 258 304 386
#     4  10  23  41  60  86 125 159 205 263 307 370
#     4  12  23  34  63  90 121 176 208 246 306 364
#     4  11  21  37  57  87 137 162 201 250 310 375
#     4   9  20  41  65  90 116 152 195 263 328 365
#
# _framework density 17.715986000000001
#
# number of rings (size 3 to 8) (size 9 to 14) (size 15 to 20)
#    0.400    1.067    4.000    1.600    3.733    0.533 
#    2.400    0.000    0.000    6.400    0.000    0.000 
#    0.000    0.000    0.000    0.000    0.000    0.000 
#
# Total GULP energy -167131.742821 kJ/mol
# GULP energy per Si atom -5571.058094 kJ/mol
# Density = 1.767566 g / cm^3
# Si number density = 17.715986 Si / 1000 Ang^3
#
#
#
# Elastic Constant Matrix: (Units=GPa)
#
#
# Indices 1 2 3 4 5 6 
#
# 1 74.5639 51.9905 64.1842 0.0000 -13.2530 0.0000
# 2 51.9905 90.7957 38.5185 0.0000 -5.2963 0.0000
# 3 64.1842 38.5185 147.0251 0.0000 -6.6976 0.0000
# 4 0.0000 0.0000 0.0000 23.1897 0.0000 4.6471
# 5 -13.2530 -5.2963 -6.6976 0.0000 28.6057 0.0000
# 6 0.0000 0.0000 0.0000 4.6471 0.0000 33.7384
#
#
#
# Elastic Compliance Matrix: (Units=1/GPa)
#
#
# Indices 1 2 3 4 5 6 
#
# 1 0.035124 -0.014828 -0.010949 0.000000 0.010964 0.000000
# 2 -0.014828 0.018719 0.001429 0.000000 -0.003069 0.000000
# 3 -0.010949 0.001429 0.011107 0.000000 -0.002208 0.000000
# 4 0.000000 0.000000 0.000000 0.044347 0.000000 -0.006108
# 5 0.010964 -0.003069 -0.002208 0.000000 0.038953 0.000000
# 6 0.000000 0.000000 0.000000 -0.006108 0.000000 0.030481
#
#
# Mechanical properties :
#
#
# Convention : Reuss Voigt Hill
#
# Bulk Modulus (GPa) = 61.52478 69.08568 65.30523
# Shear Modulus (GPa) = 21.47369 27.61952 24.54660
#
# Velocity S-wave (km/s) = 3.48531 3.95272 3.72635
# Velocity P-wave (km/s) = 7.14145 7.74034 7.44692
#
# Compressibility (1/GPa) = 0.01625361
#
# Stress axis : x y z
#
# Youngs Moduli (GPa) = 28.47066 53.42204 90.03715
#
# Poissons Ratio (x) = 0.79212 0.98585
# Poissons Ratio (y) = 0.42215 -0.12868
# Poissons Ratio (z) = 0.31173 -0.07635
#
# Static dielectric constant tensor:
#      x y z
#    x 1.620860 0.000000 -0.016070 
#    y 0.000000 1.414250 0.000000 
#    z -0.016070 0.000000 1.605050 
# 
# From -- ./inp_files/50660.got.cif
#   From: 2010.05.17/outbox.cif.g08.bks.cpg/sg15_26_cif.got.tgz:50660.got - 2010.06.03 18:47:42.
