data_PCOD9294317
_publ_section_title
;
Structure prediction by ZEFSAII (Michael W. Deem and Ramdas Pophale) SiO2 
 PCOD9294317
Probable space group: C 2/C
;
_chemical_formula_sum "Si O2"
_cell_formula_units_Z 32
_cell_length_a 8.826213
_cell_length_b 15.497105
_cell_length_c 14.391903
_cell_angle_alpha 90.000000
_cell_angle_beta 39.360696
_cell_angle_gamma 90.000000
_cell_volume 1248.445628
_symmetry_space_group_name_H-M "C 2/C"
_symmetry_group_IT_number 15
_symmetry_cell_setting 'monoclinic'
loop_
_space_group_symop_operation_xyz
x,y,z
-x,y,1/2-z
-x,-y,-z
x,-y,1/2+z
1/2+x,1/2+y,z
1/2-x,1/2+y,1/2-z
1/2-x,1/2-y,-z
1/2+x,1/2-y,1/2+z
loop_
_atom_site_type_symbol
_atom_site_label
_atom_site_fract_x
_atom_site_fract_y
_atom_site_fract_z
Si Si1 0.918336 0.510844 0.182936
Si Si2 0.660666 0.244133 0.393625
Si Si3 0.276930 0.880761 0.102223
Si Si4 0.500364 0.651850 0.378575
O O1 0.868592 0.421676 0.155281
O O2 0.673805 0.569313 0.290837
O O3 0.000000 0.506884 0.250000
O O4 0.133184 0.552379 0.019953
O O5 0.401462 0.205114 0.506461
O O6 0.629520 0.333609 0.461625
O O7 0.815528 0.231727 0.228736
O O8 0.798101 0.175382 0.398024
O O9 0.000000 0.871787 0.250000
#
# Coordination Sequence:
#
# PCOD9294317 Si02
#       4
#     8   8   8   8
#     4  10  23  40  60  88 119 159 196 243 295 348
#     4   9  19  38  60  87 115 156 193 241 294 345
#     4  10  23  40  60  86 123 156 195 245 294 348
#     4   9  19  37  62  84 118 152 195 242 291 347
#
# _framework density 25.631872999999999
#
# number of rings (size 3 to 8) (size 9 to 14) (size 15 to 20)
#    0.000    2.500    0.000    0.000   10.500    4.000 
#    9.000    5.000    0.000    0.000    0.000    0.000 
#    0.000    0.000    0.000    0.000    0.000    0.000 
#
# Total GULP energy -89343.885948 kJ/mol
# GULP energy per Si atom -5583.992872 kJ/mol
# Density = 2.557353 g / cm^3
# Si number density = 25.631873 Si / 1000 Ang^3
#
#
#
# Elastic Constant Matrix: (Units=GPa)
#
#
# Indices 1 2 3 4 5 6 
#
# 1 91.9885 23.3693 46.6229 -0.0017 0.7520 0.0014
# 2 23.3693 59.1892 15.9768 -0.0009 -11.2017 0.0006
# 3 46.6229 15.9768 132.8184 -0.0024 -14.3875 -0.0001
# 4 -0.0017 -0.0009 -0.0024 26.0968 0.0012 0.4955
# 5 0.7520 -11.2017 -14.3875 0.0012 56.8869 -0.0002
# 6 0.0014 0.0006 -0.0001 0.4955 -0.0002 12.6413
#
#
#
# Elastic Compliance Matrix: (Units=1/GPa)
#
#
# Indices 1 2 3 4 5 6 
#
# 1 0.014557 -0.004906 -0.004776 0.000000 -0.002367 -0.000002
# 2 -0.004906 0.019624 -0.000219 0.000000 0.003874 0.000000
# 3 -0.004776 -0.000219 0.009494 0.000000 0.002421 0.000001
# 4 0.000000 0.000000 0.000000 0.038347 -0.000001 -0.001503
# 5 -0.002367 0.003874 0.002421 -0.000001 0.018985 0.000000
# 6 -0.000002 0.000000 0.000001 -0.001503 0.000000 0.079165
#
#
# Mechanical properties :
#
#
# Convention : Reuss Voigt Hill
#
# Bulk Modulus (GPa) = 41.88752 50.65935 46.27344
# Shear Modulus (GPa) = 24.04615 32.32681 28.18648
#
# Velocity S-wave (km/s) = 3.06622 3.55518 3.31972
# Velocity P-wave (km/s) = 5.37709 6.05471 5.72593
#
# Compressibility (1/GPa) = 0.02387346
#
# Stress axis : x y z
#
# Youngs Moduli (GPa) = 68.69339 50.95739 105.32673
#
# Poissons Ratio (x) = 0.25001 0.50307
# Poissons Ratio (y) = 0.33703 0.02304
# Poissons Ratio (z) = 0.32810 0.01115
#
# Static dielectric constant tensor:
#      x y z
#    x 2.049060 0.000000 0.008290 
#    y 0.000000 1.994240 0.000000 
#    z 0.008290 0.000000 2.034940 
# 
# From -- ./inp_files/22262.got.cif
#   From: 2010.05.17/outbox.cif.g08.bks.cpg/sg15_12_cif.got.tgz:22262.got - 2010.06.03 18:47:42.
