data_PCOD9294166
_publ_section_title
;
Structure prediction by ZEFSAII (Michael W. Deem and Ramdas Pophale) SiO2 
 PCOD9294166
Probable space group: C 2/C
;
_chemical_formula_sum "Si O2"
_cell_formula_units_Z 36
_cell_length_a 19.127737
_cell_length_b 5.295253
_cell_length_c 14.518049
_cell_angle_alpha 90.000000
_cell_angle_beta 109.749734
_cell_angle_gamma 90.000000
_cell_volume 1383.981037
_symmetry_space_group_name_H-M "C 2/C"
_symmetry_group_IT_number 15
_symmetry_cell_setting 'monoclinic'
loop_
_space_group_symop_operation_xyz
x,y,z
-x,y,1/2-z
-x,-y,-z
x,-y,1/2+z
1/2+x,1/2+y,z
1/2-x,1/2+y,1/2-z
1/2-x,1/2-y,-z
1/2+x,1/2-y,1/2+z
loop_
_atom_site_type_symbol
_atom_site_label
_atom_site_fract_x
_atom_site_fract_y
_atom_site_fract_z
Si Si1 0.406801 0.301306 0.055779
Si Si2 0.500000 0.962313 0.750000
Si Si3 0.522144 0.335313 0.608813
Si Si4 0.343574 0.342508 0.300439
Si Si5 0.214552 0.342391 0.121310
O O1 0.434488 0.594386 0.074697
O O2 0.440251 0.176135 0.160513
O O3 0.452447 0.243116 0.980189
O O4 0.325159 0.203350 0.994165
O O5 0.541946 0.140720 0.696229
O O6 0.569846 0.586171 0.655954
O O7 0.302072 0.356190 0.183262
O O8 0.309398 0.584841 0.337961
O O9 0.321151 0.090780 0.346084
#
# Coordination Sequence:
#
# PCOD9294166 Si02
#       5
#     8   4   8   8   8
#     4  10  23  39  64  89 125 165 208 259 312 372
#     4  12  24  38  58  94 126 162 212 264 306 370
#     4  10  23  39  62  91 126 164 209 258 313 371
#     4   9  19  36  62  92 121 160 209 255 308 372
#     4   9  19  36  62  92 121 160 209 255 308 372
#
# _framework density 26.011918000000001
#
# number of rings (size 3 to 8) (size 9 to 14) (size 15 to 20)
#    0.000    2.222    0.000    1.333   15.556    0.000 
#    0.000    1.111    0.000    5.333    0.000    0.000 
#    0.000    0.000    0.000    0.000    0.000    0.000 
#
# Total GULP energy -100484.032797 kJ/mol
# GULP energy per Si atom -5582.446266 kJ/mol
# Density = 2.595271 g / cm^3
# Si number density = 26.011918 Si / 1000 Ang^3
#
#
#
# Elastic Constant Matrix: (Units=GPa)
#
#
# Indices 1 2 3 4 5 6 
#
# 1 83.0903 37.9524 46.7389 0.0000 33.1925 0.0000
# 2 37.9524 126.8601 47.8154 0.0000 -3.5702 -0.0001
# 3 46.7389 47.8154 274.4693 0.0000 20.0215 0.0000
# 4 0.0000 0.0000 0.0000 34.0553 0.0000 -24.3442
# 5 33.1925 -3.5702 20.0215 0.0000 53.6382 0.0000
# 6 0.0000 -0.0001 0.0000 -24.3442 0.0000 -101.6778
#
#
#
# Elastic Compliance Matrix: (Units=1/GPa)
#
#
# Indices 1 2 3 4 5 6 
#
# 1 0.020665 -0.005947 -0.001564 0.000000 -0.012600 0.000000
# 2 -0.005947 0.010217 -0.001116 0.000000 0.004777 0.000000
# 3 -0.001564 -0.001116 0.004152 0.000000 -0.000656 0.000000
# 4 0.000000 0.000000 0.000000 0.025073 0.000000 -0.006003
# 5 -0.012600 0.004777 -0.000656 0.000000 0.027003 0.000000
# 6 0.000000 0.000000 0.000000 -0.006003 0.000000 -0.008398
#
#
# Mechanical properties :
#
#
# Convention : Reuss Voigt Hill
#
# Bulk Modulus (GPa) = 56.24294 83.27035 69.75664
# Shear Modulus (GPa) = 49.07163 20.66400 34.86781
#
# Velocity S-wave (km/s) = 4.34810 2.82158 3.66519
# Velocity P-wave (km/s) = 6.84667 6.53429 6.69230
#
# Compressibility (1/GPa) = 0.01778001
#
# Stress axis : x y z
#
# Youngs Moduli (GPa) = 48.39200 97.87740 240.85349
#
# Poissons Ratio (x) = 0.58211 0.37663
# Poissons Ratio (y) = 0.28781 0.26869
# Poissons Ratio (z) = 0.07567 0.10919
#
# Static dielectric constant tensor:
#      x y z
#    x 2.210170 0.000000 0.048770 
#    y 0.000000 2.056820 0.000000 
#    z 0.048770 0.000000 2.074160 
# 
# From -- ./inp_files/170649.got.cif
#   From: 2010.05.17/outbox.cif.g08.bks.cpg/sg15_86_cif.got.tgz:170649.got - 2010.06.03 18:47:42.
