data_PCOD9294928
_publ_section_title
;
Structure prediction by ZEFSAII (Michael W. Deem and Ramdas Pophale) SiO2 
 PCOD9294928
Probable space group: C 2/C
;
_chemical_formula_sum "Si O2"
_cell_formula_units_Z 56
_cell_length_a 13.162907
_cell_length_b 19.519852
_cell_length_c 18.127238
_cell_angle_alpha 90.000000
_cell_angle_beta 30.093808
_cell_angle_gamma 90.000000
_cell_volume 2335.388995
_symmetry_space_group_name_H-M "C 2/C"
_symmetry_group_IT_number 15
_symmetry_cell_setting 'monoclinic'
loop_
_space_group_symop_operation_xyz
x,y,z
-x,y,1/2-z
-x,-y,-z
x,-y,1/2+z
1/2+x,1/2+y,z
1/2-x,1/2+y,1/2-z
1/2-x,1/2-y,-z
1/2+x,1/2-y,1/2+z
loop_
_atom_site_type_symbol
_atom_site_label
_atom_site_fract_x
_atom_site_fract_y
_atom_site_fract_z
Si Si1 0.586547 0.769262 0.364125
Si Si2 0.173867 0.528585 0.586528
Si Si3 0.765899 0.162433 0.622885
Si Si4 0.554965 0.108760 0.999328
Si Si5 0.406599 0.169898 0.231362
Si Si6 0.729176 0.472396 0.631327
Si Si7 0.935276 0.932397 0.495183
O O1 0.594611 0.797166 0.275575
O O2 0.406602 0.716526 0.493386
O O3 0.565905 0.830403 0.434832
O O4 0.790574 0.728063 0.257855
O O5 0.224328 0.601126 0.592173
O O6 0.127726 0.540175 0.530680
O O7 0.349229 0.471009 0.477838
O O8 0.000000 0.501480 0.750000
O O9 0.883918 0.121742 0.614874
O O10 0.567782 0.137312 0.074181
O O11 0.330565 0.074431 0.130140
O O12 0.722656 0.050805 0.879620
O O13 0.500000 0.194764 0.250000
O O14 0.244166 0.111439 0.355082
O O15 0.500000 0.456280 0.750000
O O16 0.000000 0.000000 0.500000
#
# Coordination Sequence:
#
# PCOD9294928 Si02
#       7
#     8   8   8   8   8   8   8
#     4  11  23  44  68  97 139 186 225 280 357 413
#     4  11  22  43  66  99 133 173 238 281 347 414
#     4  10  23  41  69  95 134 182 226 280 338 415
#     4  11  25  47  69  99 151 176 231 306 358 410
#     4  11  23  42  67  97 135 181 232 287 355 428
#     4  11  27  42  72 107 137 184 234 297 359 420
#     4   9  20  35  66  92 127 172 223 277 341 403
#
# _framework density 23.978874000000001
#
# number of rings (size 3 to 8) (size 9 to 14) (size 15 to 20)
#    0.000    1.429    1.429    3.000    8.000    3.429 
#    0.000    3.571    0.000    0.000    0.000    0.000 
#    0.000    0.000    0.000    0.000    0.000    0.000 
#
# Total GULP energy -156512.952340 kJ/mol
# GULP energy per Si atom -5589.748298 kJ/mol
# Density = 2.392430 g / cm^3
# Si number density = 23.978874 Si / 1000 Ang^3
#
#
#
# Elastic Constant Matrix: (Units=GPa)
#
#
# Indices 1 2 3 4 5 6 
#
# 1 68.9346 19.7941 6.6179 -0.0070 5.7669 0.0038
# 2 19.7941 127.2602 16.7018 0.0140 -7.9818 -0.0001
# 3 6.6179 16.7018 55.8613 0.0256 -3.3162 -0.0061
# 4 -0.0070 0.0140 0.0256 22.3946 -0.0312 -6.4673
# 5 5.7669 -7.9818 -3.3162 -0.0312 30.8478 0.0089
# 6 0.0038 -0.0001 -0.0061 -6.4673 0.0089 44.4992
#
#
#
# Elastic Compliance Matrix: (Units=1/GPa)
#
#
# Indices 1 2 3 4 5 6 
#
# 1 0.015661 -0.002494 -0.001330 0.000003 -0.003716 0.000000
# 2 -0.002494 0.008684 -0.002154 0.000000 0.002482 -0.000001
# 3 -0.001330 -0.002154 0.018805 -0.000018 0.001713 0.000000
# 4 0.000003 0.000000 -0.000018 0.046610 0.000043 0.006774
# 5 -0.003716 0.002482 0.001713 0.000043 0.033938 0.000000
# 6 0.000000 -0.000001 0.000000 0.006774 0.000000 0.023457
#
#
# Mechanical properties :
#
#
# Convention : Reuss Voigt Hill
#
# Bulk Modulus (GPa) = 32.05781 37.58708 34.82244
# Shear Modulus (GPa) = 29.49683 33.47782 31.48732
#
# Velocity S-wave (km/s) = 3.51111 3.74055 3.62764
# Velocity P-wave (km/s) = 5.46218 5.86214 5.66569
#
# Compressibility (1/GPa) = 0.03119365
#
# Stress axis : x y z
#
# Youngs Moduli (GPa) = 63.85139 115.15147 53.17830
#
# Poissons Ratio (x) = 0.28724 0.07074
# Poissons Ratio (y) = 0.15928 0.11453
# Poissons Ratio (z) = 0.08494 0.24799
#
# Static dielectric constant tensor:
#      x y z
#    x 1.893880 0.000090 -0.196680 
#    y 0.000090 1.887700 0.000250 
#    z -0.196680 0.000250 1.735640 
# 
# From -- ./inp_files/245132.got.cif
#   From: 2010.05.17/outbox.cif.g08.bks.cpg/sg15_123_cif.got.tgz:245132.got - 2010.06.03 18:47:42.
