data_PCOD9294985
_publ_section_title
;
Structure prediction by ZEFSAII (Michael W. Deem and Ramdas Pophale) SiO2 
 PCOD9294985
Probable space group: C 2/C
;
_chemical_formula_sum "Si O2"
_cell_formula_units_Z 56
_cell_length_a 16.194375
_cell_length_b 14.507589
_cell_length_c 24.675349
_cell_angle_alpha 90.000000
_cell_angle_beta 26.204998
_cell_angle_gamma 90.000000
_cell_volume 2559.977726
_symmetry_space_group_name_H-M "C 2/C"
_symmetry_group_IT_number 15
_symmetry_cell_setting 'monoclinic'
loop_
_space_group_symop_operation_xyz
x,y,z
-x,y,1/2-z
-x,-y,-z
x,-y,1/2+z
1/2+x,1/2+y,z
1/2-x,1/2+y,1/2-z
1/2-x,1/2-y,-z
1/2+x,1/2-y,1/2+z
loop_
_atom_site_type_symbol
_atom_site_label
_atom_site_fract_x
_atom_site_fract_y
_atom_site_fract_z
Si Si1 0.899573 0.512737 0.186797
Si Si2 0.494765 0.099526 0.530266
Si Si3 0.230358 0.771754 0.868825
Si Si4 0.286413 0.084391 0.855898
Si Si5 0.359834 0.172790 0.403443
Si Si6 0.853463 0.216344 0.288409
Si Si7 0.050734 0.123768 0.374710
O O1 0.786502 0.489508 0.308387
O O2 0.732099 0.562572 0.253149
O O3 0.961122 0.425747 0.113804
O O4 0.070120 0.581067 0.105182
O O5 0.344811 0.166754 0.588465
O O6 0.690655 0.148473 0.403402
O O7 0.500000 0.000000 0.500000
O O8 0.444923 0.777894 0.725300
O O9 0.237295 0.832310 0.920134
O O10 0.114922 0.817758 0.888658
O O11 0.500000 0.079684 0.750000
O O12 0.263629 0.182297 0.839036
O O13 0.139597 0.076698 0.991610
O O14 0.250000 0.250000 0.500000
O O15 0.962715 0.188263 0.169760
O O16 0.000000 0.219539 0.250000
#
# Coordination Sequence:
#
# PCOD9294985 Si02
#       7
#     8   8   8   8   8   8   8
#     4  11  25  43  71 109 141 181 241 300 355 437
#     4  12  23  46  70 104 141 186 246 296 353 439
#     4  10  23  41  72  99 140 187 237 287 368 433
#     4  11  26  42  70  99 139 182 234 294 358 427
#     4  10  23  45  69 104 146 188 230 297 368 432
#     4  11  26  46  70  99 139 191 234 297 364 434
#     4  11  23  46  69  99 139 185 237 291 370 431
#
# _framework density 21.87519
#
# number of rings (size 3 to 8) (size 9 to 14) (size 15 to 20)
#    0.000    1.143    2.857    2.143    8.000    2.286 
#    7.714    0.000    0.000    0.000    0.000    0.000 
#    0.000    0.000    0.000    0.000    0.000    0.000 
#
# Total GULP energy -156054.667899 kJ/mol
# GULP energy per Si atom -5573.380996 kJ/mol
# Density = 2.182540 g / cm^3
# Si number density = 21.875190 Si / 1000 Ang^3
#
#
#
# Elastic Constant Matrix: (Units=GPa)
#
#
# Indices 1 2 3 4 5 6 
#
# 1 104.1689 15.6395 41.1798 0.0113 9.8464 -0.0129
# 2 15.6395 75.0567 7.2883 -0.0045 -3.2993 -0.0057
# 3 41.1798 7.2883 71.8008 -0.0271 21.0923 0.0007
# 4 0.0113 -0.0045 -0.0271 24.9216 -0.0094 13.7605
# 5 9.8464 -3.2993 21.0923 -0.0094 29.8669 0.0065
# 6 -0.0129 -0.0057 0.0007 13.7605 0.0065 21.8321
#
#
#
# Elastic Compliance Matrix: (Units=1/GPa)
#
#
# Indices 1 2 3 4 5 6 
#
# 1 0.012707 -0.001903 -0.007321 -0.000027 0.000771 0.000024
# 2 -0.001903 0.013971 -0.001217 0.000004 0.003030 -0.000001
# 3 -0.007321 -0.001217 0.022182 0.000035 -0.013386 -0.000024
# 4 -0.000027 0.000004 0.000035 0.061544 0.000012 -0.038790
# 5 0.000771 0.003030 -0.013386 0.000012 0.043016 -0.000019
# 6 0.000024 -0.000001 -0.000024 -0.038790 -0.000019 0.070253
#
#
# Mechanical properties :
#
#
# Convention : Reuss Voigt Hill
#
# Bulk Modulus (GPa) = 35.74193 42.13795 38.93994
# Shear Modulus (GPa) = 19.69428 27.78538 23.73983
#
# Velocity S-wave (km/s) = 3.00376 3.56782 3.29787
# Velocity P-wave (km/s) = 5.32960 6.02305 5.68690
#
# Compressibility (1/GPa) = 0.02797834
#
# Stress axis : x y z
#
# Youngs Moduli (GPa) = 78.69834 71.57613 45.08142
#
# Poissons Ratio (x) = 0.13620 0.33004
# Poissons Ratio (y) = 0.14976 0.05486
# Poissons Ratio (z) = 0.57615 0.08710
#
# Static dielectric constant tensor:
#      x y z
#    x 2.220000 0.000090 0.011780 
#    y 0.000090 1.866430 0.000000 
#    z 0.011780 0.000000 1.851830 
# 
# From -- ./inp_files/274437.got.cif
#   From: 2010.05.17/outbox.cif.g08.bks.cpg/sg15_138_cif.got.tgz:274437.got - 2010.06.03 18:47:42.
