data_PCOD9294656
_publ_section_title
;
Structure prediction by ZEFSAII (Michael W. Deem and Ramdas Pophale) SiO2 
 PCOD9294656
Probable space group: C 2/C
;
_chemical_formula_sum "Si O2"
_cell_formula_units_Z 64
_cell_length_a 18.036120
_cell_length_b 13.142158
_cell_length_c 16.855030
_cell_angle_alpha 90.000000
_cell_angle_beta 130.616923
_cell_angle_gamma 90.000000
_cell_volume 3032.678283
_symmetry_space_group_name_H-M "C 2/C"
_symmetry_group_IT_number 15
_symmetry_cell_setting 'monoclinic'
loop_
_space_group_symop_operation_xyz
x,y,z
-x,y,1/2-z
-x,-y,-z
x,-y,1/2+z
1/2+x,1/2+y,z
1/2-x,1/2+y,1/2-z
1/2-x,1/2-y,-z
1/2+x,1/2-y,1/2+z
loop_
_atom_site_type_symbol
_atom_site_label
_atom_site_fract_x
_atom_site_fract_y
_atom_site_fract_z
Si Si1 0.221964 0.478296 0.448674
Si Si2 0.601511 0.405063 0.841736
Si Si3 0.391591 0.728122 0.669834
Si Si4 0.612107 0.203445 0.947082
Si Si5 0.661888 0.907513 0.754790
Si Si6 0.907767 0.384532 0.359319
Si Si7 0.674339 0.845587 0.026800
Si Si8 0.270939 0.711654 0.193032
O O1 0.330929 0.473256 0.556767
O O2 0.173079 0.368857 0.429693
O O3 0.219017 0.526407 0.360453
O O4 0.165773 0.552513 0.469421
O O5 0.500000 0.453526 0.750000
O O6 0.582066 0.303004 0.878399
O O7 0.660461 0.368680 0.805477
O O8 0.500000 0.681849 0.750000
O O9 0.397547 0.826823 0.732869
O O10 0.365679 0.759621 0.560981
O O11 0.290231 0.672809 0.625168
O O12 0.515872 0.147507 0.909802
O O13 0.682112 0.230397 0.069728
O O14 0.728131 0.842810 0.741169
O O15 0.606040 0.995604 0.667587
O O16 0.884911 0.358012 0.434289
O O17 0.831556 0.312363 0.257854
#
# Coordination Sequence:
#
# PCOD9294656 Si02
#       8
#     8   8   8   8   8   8   8   8
#     4  10  23  41  63  90 129 169 217 254 321 385
#     4  11  21  41  65  92 129 173 209 262 325 384
#     4  10  23  43  65  87 127 170 209 255 323 375
#     4  11  24  39  66  97 129 166 208 269 327 378
#     4  11  24  40  65  95 130 165 212 271 318 377
#     4  12  23  38  67  97 128 161 216 266 322 375
#     4  10  23  42  62  91 126 168 210 262 306 384
#     4  11  23  42  61  95 132 164 209 269 321 377
#
# _framework density 21.103459000000001
#
# number of rings (size 3 to 8) (size 9 to 14) (size 15 to 20)
#    0.000    1.250    2.500    4.500    5.250    1.500 
#    0.000    0.625    2.750    0.000    0.000    0.000 
#    0.000    0.000    0.000    0.000    0.000    0.000 
#
# Total GULP energy -178856.315147 kJ/mol
# GULP energy per Si atom -5589.259848 kJ/mol
# Density = 2.105543 g / cm^3
# Si number density = 21.103459 Si / 1000 Ang^3
#
#
#
# Elastic Constant Matrix: (Units=GPa)
#
#
# Indices 1 2 3 4 5 6 
#
# 1 118.4426 14.0878 62.4212 0.0000 -7.5983 0.0000
# 2 14.0878 55.9379 20.0117 0.0000 -1.2339 0.0000
# 3 62.4212 20.0117 80.9763 0.0000 8.1832 0.0000
# 4 0.0000 0.0000 0.0000 23.6136 0.0000 -8.0638
# 5 -7.5983 -1.2339 8.1832 0.0000 42.2883 0.0000
# 6 0.0000 0.0000 0.0000 -8.0638 0.0000 17.9778
#
#
#
# Elastic Compliance Matrix: (Units=1/GPa)
#
#
# Indices 1 2 3 4 5 6 
#
# 1 0.015257 0.000731 -0.012464 0.000000 0.005175 0.000000
# 2 0.000731 0.019745 -0.005624 0.000000 0.001796 0.000000
# 3 -0.012464 -0.005624 0.024061 0.000000 -0.007060 0.000000
# 4 0.000000 0.000000 0.000000 0.050008 0.000000 0.022431
# 5 0.005175 0.001796 -0.007060 0.000000 0.025996 0.000000
# 6 0.000000 0.000000 0.000000 0.022431 0.000000 0.065685
#
#
# Mechanical properties :
#
#
# Convention : Reuss Voigt Hill
#
# Bulk Modulus (GPa) = 41.07343 49.82201 45.44772
# Shear Modulus (GPa) = 20.52686 27.36502 23.94594
#
# Velocity S-wave (km/s) = 3.12216 3.60489 3.37217
# Velocity P-wave (km/s) = 5.70108 6.40208 6.06172
#
# Compressibility (1/GPa) = 0.02434664
#
# Stress axis : x y z
#
# Youngs Moduli (GPa) = 65.54396 50.64668 41.56095
#
# Poissons Ratio (x) = -0.03702 0.51804
# Poissons Ratio (y) = -0.04790 0.23375
# Poissons Ratio (z) = 0.81697 0.28486
#
# Static dielectric constant tensor:
#      x y z
#    x 1.726930 0.000000 0.001300 
#    y 0.000000 1.795970 0.000000 
#    z 0.001300 0.000000 1.786090 
# 
# From -- ./inp_files/205727.got.cif
#   From: 2010.05.17/outbox.cif.g08.bks.cpg/sg15_103_cif.got.tgz:205727.got - 2010.06.03 18:47:42.
