data_PCOD9294993
_publ_section_title
;
Structure prediction by ZEFSAII (Michael W. Deem and Ramdas Pophale) SiO2 
 PCOD9294993
Probable space group: C 2/C
;
_chemical_formula_sum "Si O2"
_cell_formula_units_Z 44
_cell_length_a 13.307538
_cell_length_b 11.686834
_cell_length_c 25.642120
_cell_angle_alpha 90.000000
_cell_angle_beta 29.158309
_cell_angle_gamma 90.000000
_cell_volume 1943.021050
_symmetry_space_group_name_H-M "C 2/C"
_symmetry_group_IT_number 15
_symmetry_cell_setting 'monoclinic'
loop_
_space_group_symop_operation_xyz
x,y,z
-x,y,1/2-z
-x,-y,-z
x,-y,1/2+z
1/2+x,1/2+y,z
1/2-x,1/2+y,1/2-z
1/2-x,1/2-y,-z
1/2+x,1/2-y,1/2+z
loop_
_atom_site_type_symbol
_atom_site_label
_atom_site_fract_x
_atom_site_fract_y
_atom_site_fract_z
Si Si1 0.500000 0.457255 0.750000
Si Si2 0.581173 0.701350 0.034070
Si Si3 0.139228 0.791623 0.768315
Si Si4 0.566991 0.949795 0.160920
Si Si5 0.892058 0.356526 0.947331
Si Si6 0.348981 0.898033 0.078280
O O1 0.479375 0.365881 0.806049
O O2 0.328356 0.545576 0.807419
O O3 0.398087 0.665078 0.155949
O O4 0.471404 0.793931 0.047169
O O5 0.750000 0.750000 0.000000
O O6 0.705453 0.608838 0.944409
O O7 0.373561 0.817063 0.645519
O O8 0.083587 0.656990 0.786967
O O9 0.500000 0.985867 0.250000
O O10 0.582240 0.048763 0.109889
O O11 0.750000 0.250000 0.000000
O O12 0.771499 0.390972 0.054520
O O13 0.500000 0.000000 0.000000
#
# Coordination Sequence:
#
# PCOD9294993 Si02
#       6
#     4   8   8   8   8   8
#     4  12  24  40  78 104 148 202 254 310 366 438
#     4  10  23  41  73 108 145 189 245 297 369 438
#     4  11  23  44  71 107 145 195 250 306 373 438
#     4  11  23  47  74 104 147 194 247 308 376 444
#     4  12  29  46  71 107 151 193 252 306 373 449
#     4  12  23  44  71 108 144 194 249 309 359 440
#
# _framework density 22.645147999999999
#
# number of rings (size 3 to 8) (size 9 to 14) (size 15 to 20)
#    0.000    0.727    2.727    6.545    2.545    2.909 
#    0.000    2.727    0.000    0.000    0.000    0.000 
#    0.000    0.000    0.000    0.000    0.000    0.000 
#
# Total GULP energy -122479.072256 kJ/mol
# GULP energy per Si atom -5567.230557 kJ/mol
# Density = 2.259361 g / cm^3
# Si number density = 22.645148 Si / 1000 Ang^3
#
#
#
# Elastic Constant Matrix: (Units=GPa)
#
#
# Indices 1 2 3 4 5 6 
#
# 1 77.0827 64.7282 24.2128 0.0002 28.0537 0.0001
# 2 64.7282 130.4234 28.0722 0.0001 9.8417 0.0000
# 3 24.2128 28.0722 85.9721 0.0018 15.4279 -0.0005
# 4 0.0002 0.0001 0.0018 33.2709 -0.0002 -2.8067
# 5 28.0537 9.8417 15.4279 -0.0002 50.6711 0.0001
# 6 0.0001 0.0000 -0.0005 -2.8067 0.0001 53.3599
#
#
#
# Elastic Compliance Matrix: (Units=1/GPa)
#
#
# Indices 1 2 3 4 5 6 
#
# 1 0.029424 -0.013264 -0.001581 0.000000 -0.013233 0.000000
# 2 -0.013264 0.014259 -0.001842 0.000000 0.005135 0.000000
# 3 -0.001581 -0.001842 0.013177 -0.000001 -0.002779 0.000000
# 4 0.000000 0.000000 -0.000001 0.030190 0.000000 0.001588
# 5 -0.013233 0.005135 -0.002779 0.000000 0.026910 0.000000
# 6 0.000000 0.000000 0.000000 0.001588 0.000000 0.018824
#
#
# Mechanical properties :
#
#
# Convention : Reuss Voigt Hill
#
# Bulk Modulus (GPa) = 42.57834 58.61162 50.59498
# Shear Modulus (GPa) = 28.73782 39.22472 33.98127
#
# Velocity S-wave (km/s) = 3.56624 4.16642 3.87796
# Velocity P-wave (km/s) = 5.98336 7.00602 6.51479
#
# Compressibility (1/GPa) = 0.02348612
#
# Stress axis : x y z
#
# Youngs Moduli (GPa) = 33.98623 70.13070 75.88941
#
# Poissons Ratio (x) = 0.93021 0.11999
# Poissons Ratio (y) = 0.45079 0.13977
# Poissons Ratio (z) = 0.05374 0.12917
#
# Static dielectric constant tensor:
#      x y z
#    x 1.855730 0.000000 -0.003110 
#    y 0.000000 1.792420 0.000000 
#    z -0.003110 0.000000 1.894730 
# 
# From -- ./inp_files/295867.got.cif
#   From: 2010.05.17/outbox.cif.g08.bks.cpg/sg15_148_cif.got.tgz:295867.got - 2010.06.03 18:47:42.
