data_PCOD9294836
_publ_section_title
;
Structure prediction by ZEFSAII (Michael W. Deem and Ramdas Pophale) SiO2 
 PCOD9294836
Probable space group: C 2/C
;
_chemical_formula_sum "Si O2"
_cell_formula_units_Z 48
_cell_length_a 22.254331
_cell_length_b 15.432087
_cell_length_c 12.230454
_cell_angle_alpha 90.000000
_cell_angle_beta 142.573339
_cell_angle_gamma 90.000000
_cell_volume 2552.721808
_symmetry_space_group_name_H-M "C 2/C"
_symmetry_group_IT_number 15
_symmetry_cell_setting 'monoclinic'
loop_
_space_group_symop_operation_xyz
x,y,z
-x,y,1/2-z
-x,-y,-z
x,-y,1/2+z
1/2+x,1/2+y,z
1/2-x,1/2+y,1/2-z
1/2-x,1/2-y,-z
1/2+x,1/2-y,1/2+z
loop_
_atom_site_type_symbol
_atom_site_label
_atom_site_fract_x
_atom_site_fract_y
_atom_site_fract_z
Si Si1 0.806618 0.650165 0.702500
Si Si2 0.597374 0.285094 0.827063
Si Si3 0.257395 0.026399 0.014797
Si Si4 0.883445 0.660860 0.060200
Si Si5 0.887361 0.859898 0.051415
Si Si6 0.410214 0.565439 0.350759
O O1 0.693720 0.688226 0.538260
O O2 0.866812 0.714572 0.709683
O O3 0.805471 0.555820 0.644395
O O4 0.851427 0.644483 0.888300
O O5 0.500000 0.254960 0.750000
O O6 0.567998 0.372045 0.719360
O O7 0.185852 0.073873 0.996963
O O8 0.187235 0.988266 0.818842
O O9 0.328970 0.095892 0.063276
O O10 0.859568 0.762323 0.044299
O O11 0.000000 0.651519 0.250000
O O12 0.000000 0.876506 0.250000
O O13 0.888009 0.875006 0.922940
O O14 0.500000 0.500000 0.500000
#
# Coordination Sequence:
#
# PCOD9294836 Si02
#       6
#     8   8   8   8   8   8
#     4  10  23  45  62  95 131 162 224 264 306 400
#     4  10  23  41  67  94 127 171 205 264 332 376
#     4  11  24  39  67  93 126 175 215 261 319 384
#     4  11  25  45  63  90 135 172 215 267 319 378
#     4  11  22  40  62  97 131 161 210 269 333 381
#     4  11  22  37  65  99 129 160 208 270 324 384
#
# _framework density 18.803460000000001
#
# number of rings (size 3 to 8) (size 9 to 14) (size 15 to 20)
#    0.000    1.333    3.333    1.500    7.000    1.333 
#    3.000    0.000    0.000    0.000    0.000    0.000 
#    0.000    0.000    0.000    0.000    0.000    0.000 
#
# Total GULP energy -134070.898706 kJ/mol
# GULP energy per Si atom -5586.287446 kJ/mol
# Density = 1.876066 g / cm^3
# Si number density = 18.803460 Si / 1000 Ang^3
#
#
#
# Elastic Constant Matrix: (Units=GPa)
#
#
# Indices 1 2 3 4 5 6 
#
# 1 75.4197 32.4008 37.8323 0.0000 8.7481 0.0000
# 2 32.4008 108.0137 32.6850 0.0000 16.5016 0.0000
# 3 37.8323 32.6850 105.1440 0.0000 -9.1341 0.0000
# 4 0.0000 0.0000 0.0000 34.1052 0.0000 4.8632
# 5 8.7481 16.5016 -9.1341 0.0000 19.9676 0.0000
# 6 0.0000 0.0000 0.0000 4.8632 0.0000 36.8812
#
#
#
# Elastic Compliance Matrix: (Units=1/GPa)
#
#
# Indices 1 2 3 4 5 6 
#
# 1 0.018751 -0.002035 -0.006958 0.000000 -0.009717 0.000000
# 2 -0.002035 0.012985 -0.004331 0.000000 -0.011821 0.000000
# 3 -0.006958 -0.004331 0.014514 0.000000 0.013267 0.000000
# 4 0.000000 0.000000 0.000000 0.029883 0.000000 -0.003940
# 5 -0.009717 -0.011821 0.013267 0.000000 0.070176 0.000000
# 6 0.000000 0.000000 0.000000 -0.003940 0.000000 0.027634
#
#
# Mechanical properties :
#
#
# Convention : Reuss Voigt Hill
#
# Bulk Modulus (GPa) = 51.01902 54.93486 52.97694
# Shear Modulus (GPa) = 24.14006 30.56808 27.35407
#
# Velocity S-wave (km/s) = 3.58692 4.03632 3.81824
# Velocity P-wave (km/s) = 6.65930 7.14152 6.90462
#
# Compressibility (1/GPa) = 0.01960053
#
# Stress axis : x y z
#
# Youngs Moduli (GPa) = 53.33113 77.01191 68.90135
#
# Poissons Ratio (x) = 0.15669 0.47944
# Poissons Ratio (y) = 0.10851 0.29844
# Poissons Ratio (z) = 0.37110 0.33357
#
# Static dielectric constant tensor:
#      x y z
#    x 1.641460 0.000000 -0.013320 
#    y 0.000000 1.654610 0.000000 
#    z -0.013320 0.000000 1.652550 
# 
# From -- ./inp_files/96826.got.cif
#   From: 2010.05.17/outbox.cif.g08.bks.cpg/sg15_49_cif.got.tgz:96826.got - 2010.06.03 18:47:42.
