data_PCOD9294947
_publ_section_title
;
Structure prediction by ZEFSAII (Michael W. Deem and Ramdas Pophale) SiO2 
 PCOD9294947
Probable space group: C 2/C
;
_chemical_formula_sum "Si O2"
_cell_formula_units_Z 52
_cell_length_a 8.312080
_cell_length_b 18.548177
_cell_length_c 21.438556
_cell_angle_alpha 90.000000
_cell_angle_beta 134.382172
_cell_angle_gamma 90.000000
_cell_volume 2362.242041
_symmetry_space_group_name_H-M "C 2/C"
_symmetry_group_IT_number 15
_symmetry_cell_setting 'monoclinic'
loop_
_space_group_symop_operation_xyz
x,y,z
-x,y,1/2-z
-x,-y,-z
x,-y,1/2+z
1/2+x,1/2+y,z
1/2-x,1/2+y,1/2-z
1/2-x,1/2-y,-z
1/2+x,1/2-y,1/2+z
loop_
_atom_site_type_symbol
_atom_site_label
_atom_site_fract_x
_atom_site_fract_y
_atom_site_fract_z
Si Si1 0.002608 0.014984 0.072971
Si Si2 0.500000 0.489481 0.750000
Si Si3 0.812991 0.750731 0.751709
Si Si4 0.884589 0.315524 0.564882
Si Si5 0.249036 0.147323 0.158892
Si Si6 0.239265 0.416871 0.277160
Si Si7 0.147290 0.430188 0.556030
O O1 0.201645 0.063368 0.155809
O O2 0.795979 0.069237 0.033320
O O3 0.051554 0.938471 0.120065
O O4 0.000000 0.000000 0.000000
O O5 0.685932 0.536357 0.762771
O O6 0.343147 0.444063 0.660606
O O7 0.597648 0.785481 0.660348
O O8 0.879712 0.795017 0.832395
O O9 0.766098 0.665882 0.747359
O O10 0.000000 0.757424 0.750000
O O11 0.750000 0.250000 0.500000
O O12 0.731889 0.346404 0.579706
O O13 0.983007 0.369980 0.539556
O O14 0.500000 0.160729 0.250000
O O15 0.000000 0.427764 0.250000
O O16 0.000000 0.500000 0.500000
#
# Coordination Sequence:
#
# PCOD9294947 Si02
#       7
#     8   4   8   8   8   8   8
#     4  11  24  42  68 102 140 178 238 300 368 436
#     4  10  26  42  76  98 146 180 254 292 370 438
#     4  10  23  44  66  95 136 184 239 285 364 443
#     4  11  26  42  70  99 143 180 237 301 368 441
#     4  10  23  41  70  94 132 184 232 283 360 444
#     4  10  24  41  69 100 136 184 233 305 356 435
#     4  11  26  44  69 104 138 189 235 305 363 440
#
# _framework density 22.012985
#
# number of rings (size 3 to 8) (size 9 to 14) (size 15 to 20)
#    0.000    1.538    0.000    2.308   23.692    0.000 
#    2.769    1.538    0.000    0.000    0.000    0.000 
#    0.000    0.000    0.000    0.000    0.000    0.000 
#
# Total GULP energy -144751.968145 kJ/mol
# GULP energy per Si atom -5567.383390 kJ/mol
# Density = 2.196288 g / cm^3
# Si number density = 22.012985 Si / 1000 Ang^3
#
#
#
# Elastic Constant Matrix: (Units=GPa)
#
#
# Indices 1 2 3 4 5 6 
#
# 1 128.3508 68.3768 28.0235 -0.0001 -34.7464 -0.0001
# 2 68.3768 133.7392 37.7478 -0.0001 -17.7721 0.0000
# 3 28.0235 37.7478 58.3464 -0.0001 -17.3833 -0.0002
# 4 -0.0001 -0.0001 -0.0001 26.2183 -0.0001 6.4807
# 5 -34.7464 -17.7721 -17.3833 -0.0001 31.8520 -0.0001
# 6 -0.0001 0.0000 -0.0002 6.4807 -0.0001 41.0411
#
#
#
# Elastic Compliance Matrix: (Units=1/GPa)
#
#
# Indices 1 2 3 4 5 6 
#
# 1 0.014091 -0.005728 0.000675 0.000000 0.012544 0.000000
# 2 -0.005728 0.011612 -0.005604 0.000000 -0.002828 0.000000
# 3 0.000675 -0.005604 0.023559 0.000000 0.010467 0.000000
# 4 0.000000 0.000000 0.000000 0.039690 0.000000 -0.006267
# 5 0.012544 -0.002828 0.010467 0.000000 0.049214 0.000000
# 6 0.000000 0.000000 0.000000 -0.006267 0.000000 0.025355
#
#
# Mechanical properties :
#
#
# Convention : Reuss Voigt Hill
#
# Bulk Modulus (GPa) = 35.78035 65.41475 50.59755
# Shear Modulus (GPa) = 25.75331 32.24150 28.99741
#
# Velocity S-wave (km/s) = 3.42411 3.83124 3.63338
# Velocity P-wave (km/s) = 5.64997 7.02511 6.37473
#
# Compressibility (1/GPa) = 0.02794830
#
# Stress axis : x y z
#
# Youngs Moduli (GPa) = 70.96699 86.12057 42.44748
#
# Poissons Ratio (x) = 0.49330 -0.02866
# Poissons Ratio (y) = 0.40650 0.23786
# Poissons Ratio (z) = -0.04792 0.48259
#
# Static dielectric constant tensor:
#      x y z
#    x 0.507070 -0.000010 0.344700 
#    y -0.000010 1.763970 0.000000 
#    z 0.344700 0.000000 1.770850 
# 
# From -- ./inp_files/233129.got.cif
#   From: 2010.05.17/outbox.cif.g08.bks.cpg/sg15_117_cif.got.tgz:233129.got - 2010.06.03 18:47:42.
