data_PCOD9294849
_publ_section_title
;
Structure prediction by ZEFSAII (Michael W. Deem and Ramdas Pophale) SiO2 
 PCOD9294849
Probable space group: C 2/C
;
_chemical_formula_sum "Si O2"
_cell_formula_units_Z 56
_cell_length_a 20.679928
_cell_length_b 8.206793
_cell_length_c 17.649268
_cell_angle_alpha 90.000000
_cell_angle_beta 54.120910
_cell_angle_gamma 90.000000
_cell_volume 2427.008131
_symmetry_space_group_name_H-M "C 2/C"
_symmetry_group_IT_number 15
_symmetry_cell_setting 'monoclinic'
loop_
_space_group_symop_operation_xyz
x,y,z
-x,y,1/2-z
-x,-y,-z
x,-y,1/2+z
1/2+x,1/2+y,z
1/2-x,1/2+y,1/2-z
1/2-x,1/2-y,-z
1/2+x,1/2-y,1/2+z
loop_
_atom_site_type_symbol
_atom_site_label
_atom_site_fract_x
_atom_site_fract_y
_atom_site_fract_z
Si Si1 0.707679 0.395981 0.075287
Si Si2 0.554952 0.221599 0.138730
Si Si3 0.340986 0.896818 0.430169
Si Si4 0.008363 0.224419 0.154479
Si Si5 0.211147 0.977124 0.244202
Si Si6 0.041267 0.082617 0.899970
Si Si7 0.845732 0.344862 0.247734
O O1 0.616138 0.370144 0.115059
O O2 0.715239 0.385049 0.160694
O O3 0.750000 0.250000 0.000000
O O4 0.753603 0.562526 0.022351
O O5 0.500000 0.199405 0.250000
O O6 0.607186 0.060736 0.092109
O O7 0.503072 0.259055 0.100228
O O8 0.399537 0.761971 0.426613
O O9 0.334870 0.877655 0.344108
O O10 0.976625 0.047620 0.154316
O O11 0.940533 0.342406 0.165752
O O12 0.000000 0.245926 0.250000
O O13 0.136074 0.903063 0.341895
O O14 0.188521 0.164631 0.245375
O O15 0.292924 0.963132 0.233390
O O16 0.000000 0.000000 0.000000
#
# Coordination Sequence:
#
# PCOD9294849 Si02
#       7
#     8   8   8   8   8   8   8
#     4  10  24  40  65  98 134 167 227 278 329 397
#     4  11  21  40  69  92 128 170 227 263 329 400
#     4  10  23  41  67  97 126 173 222 274 324 403
#     4   9  20  43  64  89 130 168 212 271 323 389
#     4  11  25  43  63  99 138 178 215 283 342 393
#     4  11  25  40  65  97 131 171 220 273 330 399
#     4  10  24  40  67  93 137 173 220 272 341 391
#
# _framework density 23.073675999999999
#
# number of rings (size 3 to 8) (size 9 to 14) (size 15 to 20)
#    0.000    1.714    1.429    1.714   10.000    6.286 
#    0.000    1.429    0.000    0.000    0.000    0.000 
#    0.000    0.000    0.000    0.000    0.000    0.000 
#
# Total GULP energy -156497.724453 kJ/mol
# GULP energy per Si atom -5589.204445 kJ/mol
# Density = 2.302116 g / cm^3
# Si number density = 23.073676 Si / 1000 Ang^3
#
#
#
# Elastic Constant Matrix: (Units=GPa)
#
#
# Indices 1 2 3 4 5 6 
#
# 1 93.2248 12.7225 -4.4497 0.0000 -9.1675 -0.0001
# 2 12.7225 53.8582 -12.6607 0.0003 -0.0346 -0.0006
# 3 -4.4497 -12.6607 53.7432 -0.0001 -5.9631 0.0001
# 4 0.0000 0.0003 -0.0001 24.1234 0.0000 -6.0384
# 5 -9.1675 -0.0346 -5.9631 0.0000 31.6823 0.0000
# 6 -0.0001 -0.0006 0.0001 -6.0384 0.0000 46.8149
#
#
#
# Elastic Compliance Matrix: (Units=1/GPa)
#
#
# Indices 1 2 3 4 5 6 
#
# 1 0.011446 -0.002529 0.000734 0.000000 0.003447 0.000000
# 2 -0.002529 0.020240 0.004576 0.000000 0.000152 0.000000
# 3 0.000734 0.004576 0.020192 0.000000 0.004018 0.000000
# 4 0.000000 0.000000 0.000000 0.042837 0.000000 0.005525
# 5 0.003447 0.000152 0.004018 0.000000 0.033317 0.000000
# 6 0.000000 0.000000 0.000000 0.005525 0.000000 0.022073
#
#
# Mechanical properties :
#
#
# Convention : Reuss Voigt Hill
#
# Bulk Modulus (GPa) = 17.40945 21.33894 19.37420
# Shear Modulus (GPa) = 30.54562 34.20506 32.37534
#
# Velocity S-wave (km/s) = 3.64239 3.85441 3.74990
# Velocity P-wave (km/s) = 5.02503 5.39230 5.21190
#
# Compressibility (1/GPa) = 0.05744006
#
# Stress axis : x y z
#
# Youngs Moduli (GPa) = 87.36717 49.40618 49.52573
#
# Poissons Ratio (x) = 0.12494 -0.03637
# Poissons Ratio (y) = 0.22095 -0.22661
# Poissons Ratio (z) = -0.06416 -0.22606
#
# Static dielectric constant tensor:
#      x y z
#    x 1.688830 0.000000 -0.156570 
#    y 0.000000 1.948040 0.000000 
#    z -0.156570 0.000000 1.801910 
# 
# From -- ./inp_files/213787.got.cif
#   From: 2010.05.17/outbox.cif.g08.bks.cpg/sg15_107_cif.got.tgz:213787.got - 2010.06.03 18:47:42.
