data_PCOD9294039
_publ_section_title
;
Structure prediction by ZEFSAII (Michael W. Deem and Ramdas Pophale) SiO2 
 PCOD9294039
Probable space group: C 2/C
;
_chemical_formula_sum "Si O2"
_cell_formula_units_Z 56
_cell_length_a 12.548907
_cell_length_b 14.641405
_cell_length_c 26.580222
_cell_angle_alpha 90.000000
_cell_angle_beta 141.395165
_cell_angle_gamma 90.000000
_cell_volume 3047.150792
_symmetry_space_group_name_H-M "C 2/C"
_symmetry_group_IT_number 15
_symmetry_cell_setting 'monoclinic'
loop_
_space_group_symop_operation_xyz
x,y,z
-x,y,1/2-z
-x,-y,-z
x,-y,1/2+z
1/2+x,1/2+y,z
1/2-x,1/2+y,1/2-z
1/2-x,1/2-y,-z
1/2+x,1/2-y,1/2+z
loop_
_atom_site_type_symbol
_atom_site_label
_atom_site_fract_x
_atom_site_fract_y
_atom_site_fract_z
Si Si1 0.039813 0.358968 0.156201
Si Si2 0.191279 0.883224 0.162251
Si Si3 0.821872 0.821971 0.458328
Si Si4 0.298282 0.925928 0.666500
Si Si5 0.680808 0.666456 0.940411
Si Si6 0.774873 0.491755 0.546800
Si Si7 0.171125 0.271791 0.110550
O O1 0.144999 0.352083 0.245927
O O2 0.157049 0.338934 0.152143
O O3 0.869689 0.295027 0.095045
O O4 0.957823 0.459228 0.119696
O O5 0.191922 0.846730 0.105559
O O6 0.021092 0.847274 0.126197
O O7 0.203772 0.993153 0.161487
O O8 0.849172 0.919539 0.496875
O O9 0.976583 0.754102 0.523387
O O10 0.500000 0.940884 0.750000
O O11 0.253452 0.821862 0.661259
O O12 0.250012 0.937128 0.589535
O O13 0.733404 0.688151 0.902756
O O14 0.750000 0.750000 0.000000
O O15 0.757717 0.573944 0.993292
#
# Coordination Sequence:
#
# PCOD9294039 Si02
#       7
#     8   8   8   8   8   8   8
#     4  10  23  38  62  87 124 164 201 256 306 364
#     4  11  20  40  63  88 121 158 209 254 308 355
#     4   9  19  40  62  84 116 161 210 245 301 362
#     4  11  20  37  64  92 113 157 208 259 296 350
#     4  12  23  36  59  93 125 160 199 256 309 361
#     4   9  20  39  60  82 118 158 206 236 304 365
#     4  12  24  36  61  95 127 153 203 260 308 364
#
# _framework density 18.377824
#
# number of rings (size 3 to 8) (size 9 to 14) (size 15 to 20)
#    0.857    0.571    4.286    1.714    2.000    2.857 
#    0.000    0.000    0.000    0.000    0.000    0.000 
#    0.000    0.000    0.000    0.000    0.000    0.000 
#
# Total GULP energy -156081.084750 kJ/mol
# GULP energy per Si atom -5574.324455 kJ/mol
# Density = 1.833600 g / cm^3
# Si number density = 18.377824 Si / 1000 Ang^3
#
#
#
# Elastic Constant Matrix: (Units=GPa)
#
#
# Indices 1 2 3 4 5 6 
#
# 1 110.3061 27.8311 11.1340 0.0000 5.4324 0.0000
# 2 27.8311 40.3189 4.5302 0.0000 2.5699 0.0000
# 3 11.1340 4.5302 51.9197 0.0000 11.1373 0.0000
# 4 0.0000 0.0000 0.0000 8.6321 0.0000 5.0413
# 5 5.4324 2.5699 11.1373 0.0000 26.8003 0.0000
# 6 0.0000 0.0000 0.0000 5.0413 0.0000 26.4683
#
#
#
# Elastic Compliance Matrix: (Units=1/GPa)
#
#
# Indices 1 2 3 4 5 6 
#
# 1 0.011150 -0.007465 -0.001546 0.000000 -0.000902 0.000000
# 2 -0.007465 0.030112 -0.000803 0.000000 -0.001040 0.000000
# 3 -0.001546 -0.000803 0.021495 0.000000 -0.008542 0.000000
# 4 0.000000 0.000000 0.000000 0.130346 0.000000 -0.024826
# 5 -0.000902 -0.001040 -0.008542 0.000000 0.041145 0.000000
# 6 0.000000 0.000000 0.000000 -0.024826 0.000000 0.042510
#
#
# Mechanical properties :
#
#
# Convention : Reuss Voigt Hill
#
# Bulk Modulus (GPa) = 23.18750 32.17059 27.67905
# Shear Modulus (GPa) = 16.08949 22.98343 19.53646
#
# Velocity S-wave (km/s) = 2.96207 3.54023 3.26397
# Velocity P-wave (km/s) = 4.93386 5.85270 5.41281
#
# Compressibility (1/GPa) = 0.04312668
#
# Stress axis : x y z
#
# Youngs Moduli (GPa) = 89.68884 33.20952 46.52339
#
# Poissons Ratio (x) = 0.24791 0.07194
# Poissons Ratio (y) = 0.66954 0.03737
# Poissons Ratio (z) = 0.13868 0.02668
#
# Static dielectric constant tensor:
#      x y z
#    x 1.631440 0.000000 0.029350 
#    y 0.000000 1.634870 0.000000 
#    z 0.029350 0.000000 1.657290 
# 
# From -- ./inp_files/311081.got.cif
#   From: 2010.05.17/outbox.cif.g08.bks.cpg/sg15_156_cif.got.tgz:311081.got - 2010.06.03 18:47:42.
