data_PCOD9294027
_publ_section_title
;
Structure prediction by ZEFSAII (Michael W. Deem and Ramdas Pophale) SiO2 
 PCOD9294027
Probable space group: C 2/C
;
_chemical_formula_sum "Si O2"
_cell_formula_units_Z 32
_cell_length_a 20.052358
_cell_length_b 14.297881
_cell_length_c 13.869273
_cell_angle_alpha 90.000000
_cell_angle_beta 18.539085
_cell_angle_gamma 90.000000
_cell_volume 1264.304527
_symmetry_space_group_name_H-M "C 2/C"
_symmetry_group_IT_number 15
_symmetry_cell_setting 'monoclinic'
loop_
_space_group_symop_operation_xyz
x,y,z
-x,y,1/2-z
-x,-y,-z
x,-y,1/2+z
1/2+x,1/2+y,z
1/2-x,1/2+y,1/2-z
1/2-x,1/2-y,-z
1/2+x,1/2-y,1/2+z
loop_
_atom_site_type_symbol
_atom_site_label
_atom_site_fract_x
_atom_site_fract_y
_atom_site_fract_z
Si Si1 0.770879 0.857044 0.033573
Si Si2 0.215137 0.943385 0.696167
Si Si3 0.660693 0.790869 0.822199
Si Si4 0.091106 0.607175 0.971561
O O1 0.579517 0.783888 0.307882
O O2 0.705134 0.922835 0.214509
O O3 0.000000 0.823305 0.750000
O O4 0.765549 0.905026 0.938081
O O5 0.392220 0.017225 0.486180
O O6 0.224913 0.859016 0.759467
O O7 0.000000 0.000000 0.000000
O O8 0.774804 0.691888 0.665061
O O9 0.623075 0.844376 0.772248
#
# Coordination Sequence:
#
# PCOD9294027 Si02
#       4
#     8   8   8   8
#     4  10  23  38  60  94 128 169 204 258 318 370
#     4  12  21  40  60  91 131 167 204 263 317 374
#     4  10  23  41  61  97 129 161 212 263 316 371
#     4  10  23  38  64  94 127 162 211 258 316 366
#
# _framework density 25.310358999999998
#
# number of rings (size 3 to 8) (size 9 to 14) (size 15 to 20)
#    1.500    0.000    2.500    3.000    0.000    4.000 
#    0.000    0.000    0.000    1.500    6.500    0.000 
#    0.000    0.000    0.000    0.000    0.000    0.000 
#
# Total GULP energy -89477.497225 kJ/mol
# GULP energy per Si atom -5592.343577 kJ/mol
# Density = 2.525275 g / cm^3
# Si number density = 25.310359 Si / 1000 Ang^3
#
#
#
# Elastic Constant Matrix: (Units=GPa)
#
#
# Indices 1 2 3 4 5 6 
#
# 1 151.5985 54.8188 4.7730 -0.0037 -16.3048 -0.0006
# 2 54.8188 136.0228 5.4336 -0.0129 -6.3564 0.0015
# 3 4.7730 5.4336 45.9839 -0.0110 -22.7890 0.0014
# 4 -0.0037 -0.0129 -0.0110 25.8270 0.0021 -16.0065
# 5 -16.3048 -6.3564 -22.7890 0.0021 39.0517 0.0014
# 6 -0.0006 0.0015 0.0014 -16.0065 0.0014 64.7391
#
#
#
# Elastic Compliance Matrix: (Units=1/GPa)
#
#
# Indices 1 2 3 4 5 6 
#
# 1 0.008082 -0.003140 0.001338 0.000000 0.003644 0.000000
# 2 -0.003140 0.008633 -0.000911 0.000004 -0.000437 0.000001
# 3 0.001338 -0.000911 0.030837 0.000013 0.018406 0.000002
# 4 0.000000 0.000004 0.000013 0.045726 0.000005 0.011305
# 5 0.003644 -0.000437 0.018406 0.000005 0.037798 0.000000
# 6 0.000000 0.000001 0.000002 0.011305 0.000000 0.018242
#
#
# Mechanical properties :
#
#
# Convention : Reuss Voigt Hill
#
# Bulk Modulus (GPa) = 23.73840 51.51732 37.62786
# Shear Modulus (GPa) = 29.62336 43.82889 36.72612
#
# Velocity S-wave (km/s) = 3.42483 4.16583 3.81337
# Velocity P-wave (km/s) = 5.00385 6.59828 5.85559
#
# Compressibility (1/GPa) = 0.04212584
#
# Stress axis : x y z
#
# Youngs Moduli (GPa) = 123.73687 115.83219 32.42848
#
# Poissons Ratio (x) = 0.36373 -0.04339
# Poissons Ratio (y) = 0.38855 0.02954
# Poissons Ratio (z) = -0.16557 0.10552
#
# Static dielectric constant tensor:
#      x y z
#    x 2.037340 0.000000 -0.001470 
#    y 0.000000 2.013070 0.000000 
#    z -0.001470 0.000000 2.052550 
# 
# From -- ./inp_files/28021.got.cif
#   From: 2010.05.17/outbox.cif.g08.bks.cpg/sg15_15_cif.got.tgz:28021.got - 2010.06.03 18:47:42.
