data_PCOD9294444
_publ_section_title
;
Structure prediction by ZEFSAII (Michael W. Deem and Ramdas Pophale) SiO2 
 PCOD9294444
Probable space group: C 2/C
;
_chemical_formula_sum "Si O2"
_cell_formula_units_Z 56
_cell_length_a 14.721993
_cell_length_b 17.312141
_cell_length_c 12.153758
_cell_angle_alpha 90.000000
_cell_angle_beta 64.732427
_cell_angle_gamma 90.000000
_cell_volume 2801.251869
_symmetry_space_group_name_H-M "C 2/C"
_symmetry_group_IT_number 15
_symmetry_cell_setting 'monoclinic'
loop_
_space_group_symop_operation_xyz
x,y,z
-x,y,1/2-z
-x,-y,-z
x,-y,1/2+z
1/2+x,1/2+y,z
1/2-x,1/2+y,1/2-z
1/2-x,1/2-y,-z
1/2+x,1/2-y,1/2+z
loop_
_atom_site_type_symbol
_atom_site_label
_atom_site_fract_x
_atom_site_fract_y
_atom_site_fract_z
Si Si1 0.686430 0.235475 0.423207
Si Si2 0.247249 0.429502 0.819120
Si Si3 0.923531 0.929355 0.557097
Si Si4 0.794172 0.650565 0.726486
Si Si5 0.738097 0.439027 0.033421
Si Si6 0.615558 0.999884 0.720700
Si Si7 0.479666 0.265988 0.629704
O O1 0.750000 0.250000 0.500000
O O2 0.734119 0.160496 0.342488
O O3 0.701753 0.307037 0.333282
O O4 0.572809 0.225175 0.520983
O O5 0.335108 0.451480 0.688711
O O6 0.274064 0.473679 0.916132
O O7 0.142458 0.460418 0.823401
O O8 0.862240 0.912846 0.476690
O O9 0.970267 0.851403 0.582697
O O10 0.000000 0.000000 0.500000
O O11 0.764644 0.612031 0.625854
O O12 0.837071 0.584884 0.786618
O O13 0.880544 0.714540 0.665140
O O14 0.827932 0.447588 0.899205
O O15 0.500000 0.005950 0.750000
O O16 0.500000 0.272327 0.750000
#
# Coordination Sequence:
#
# PCOD9294444 Si02
#       7
#     8   8   8   8   8   8   8
#     4  12  24  42  68  94 137 169 223 280 334 392
#     4  10  23  44  63  96 130 174 217 279 330 390
#     4  11  26  44  68  95 133 177 226 274 338 400
#     4  11  24  44  68  99 134 174 226 279 339 402
#     4  10  25  43  67  94 138 173 218 284 332 403
#     4  10  23  40  65  96 130 172 219 264 336 403
#     4  12  26  43  70 101 129 179 225 277 334 407
#
# _framework density 19.991061999999999
#
# number of rings (size 3 to 8) (size 9 to 14) (size 15 to 20)
#    0.000    1.143    2.857    1.286   14.000    1.714 
#    0.000    0.000    0.000    0.000    0.000    0.000 
#    0.000    0.000    0.000    0.000    0.000    0.000 
#
# Total GULP energy -156406.922911 kJ/mol
# GULP energy per Si atom -5585.961533 kJ/mol
# Density = 1.994556 g / cm^3
# Si number density = 19.991062 Si / 1000 Ang^3
#
#
#
# Elastic Constant Matrix: (Units=GPa)
#
#
# Indices 1 2 3 4 5 6 
#
# 1 84.8178 31.0146 45.4366 0.0000 1.7197 0.0000
# 2 31.0146 102.3440 29.7773 0.0000 5.7934 0.0000
# 3 45.4366 29.7773 87.0273 0.0000 1.0173 0.0000
# 4 0.0000 0.0000 0.0000 40.9678 0.0000 0.4601
# 5 1.7197 5.7934 1.0173 0.0000 29.7178 0.0000
# 6 0.0000 0.0000 0.0000 0.4601 0.0000 23.7499
#
#
#
# Elastic Compliance Matrix: (Units=1/GPa)
#
#
# Indices 1 2 3 4 5 6 
#
# 1 0.017095 -0.002860 -0.007945 0.000000 -0.000160 0.000000
# 2 -0.002860 0.011449 -0.002401 0.000000 -0.001984 0.000000
# 3 -0.007945 -0.002401 0.016456 0.000000 0.000364 0.000000
# 4 0.000000 0.000000 0.000000 0.024415 0.000000 -0.000473
# 5 -0.000160 -0.001984 0.000364 0.000000 0.034033 0.000000
# 6 0.000000 0.000000 0.000000 -0.000473 0.000000 0.042115
#
#
# Mechanical properties :
#
#
# Convention : Reuss Voigt Hill
#
# Bulk Modulus (GPa) = 53.79781 54.07179 53.93480
# Shear Modulus (GPa) = 28.06322 30.08449 29.07385
#
# Velocity S-wave (km/s) = 3.75078 3.88351 3.81772
# Velocity P-wave (km/s) = 6.76219 6.87136 6.81699
#
# Compressibility (1/GPa) = 0.01858812
#
# Stress axis : x y z
#
# Youngs Moduli (GPa) = 58.49678 87.34762 60.76874
#
# Poissons Ratio (x) = 0.24981 0.48280
# Poissons Ratio (y) = 0.16729 0.14590
# Poissons Ratio (z) = 0.46474 0.20971
#
# Static dielectric constant tensor:
#      x y z
#    x 1.715040 0.000000 -0.017510 
#    y 0.000000 1.716700 0.000000 
#    z -0.017510 0.000000 1.728520 
# 
# From -- ./inp_files/98656.got.cif
#   From: 2010.05.17/outbox.cif.g08.bks.cpg/sg15_50_cif.got.tgz:98656.got - 2010.06.03 18:47:42.
