data_PCOD9294116
_publ_section_title
;
Structure prediction by ZEFSAII (Michael W. Deem and Ramdas Pophale) SiO2 
 PCOD9294116
Probable space group: C 2/C
;
_chemical_formula_sum "Si O2"
_cell_formula_units_Z 48
_cell_length_a 17.035962
_cell_length_b 14.089538
_cell_length_c 11.643839
_cell_angle_alpha 90.000000
_cell_angle_beta 121.234716
_cell_angle_gamma 90.000000
_cell_volume 2389.743194
_symmetry_space_group_name_H-M "C 2/C"
_symmetry_group_IT_number 15
_symmetry_cell_setting 'monoclinic'
loop_
_space_group_symop_operation_xyz
x,y,z
-x,y,1/2-z
-x,-y,-z
x,-y,1/2+z
1/2+x,1/2+y,z
1/2-x,1/2+y,1/2-z
1/2-x,1/2-y,-z
1/2+x,1/2-y,1/2+z
loop_
_atom_site_type_symbol
_atom_site_label
_atom_site_fract_x
_atom_site_fract_y
_atom_site_fract_z
Si Si1 0.290455 0.251864 0.399352
Si Si2 0.419309 0.550754 0.510450
Si Si3 0.905532 0.871030 0.635107
Si Si4 0.735881 0.568970 0.287042
Si Si5 0.238776 0.352311 0.136384
Si Si6 0.593591 0.741075 0.877193
O O1 0.250000 0.250000 0.500000
O O2 0.376249 0.319074 0.496371
O O3 0.313996 0.149674 0.359610
O O4 0.232554 0.308301 0.259728
O O5 0.500000 0.500000 0.500000
O O6 0.412445 0.482227 0.613291
O O7 0.319819 0.553224 0.372541
O O8 0.439295 0.657035 0.562972
O O9 0.837384 0.873930 0.690593
O O10 0.000000 0.829618 0.750000
O O11 0.760019 0.466118 0.353521
O O12 0.333783 0.310381 0.154739
O O13 0.155855 0.315383 0.994295
O O14 0.500000 0.779315 0.750000
#
# Coordination Sequence:
#
# PCOD9294116 Si02
#       6
#     8   8   8   8   8   8
#     4  10  23  39  57  87 126 166 209 255 314 389
#     4  12  20  32  61  91 124 151 199 270 317 371
#     4  11  21  34  56  90 120 158 201 263 321 365
#     4  11  21  37  57  86 120 159 209 248 313 382
#     4  11  22  41  65  88 128 173 204 265 324 381
#     4  11  24  39  61  96 127 162 214 258 321 385
#
# _framework density 20.085839
#
# number of rings (size 3 to 8) (size 9 to 14) (size 15 to 20)
#    0.000    1.000    6.667    1.500    0.000    0.000 
#    0.000    0.833    0.000    1.000    0.000    0.000 
#    0.000    0.000    0.000    0.000    0.000    0.000 
#
# Total GULP energy -133653.778851 kJ/mol
# GULP energy per Si atom -5568.907452 kJ/mol
# Density = 2.004012 g / cm^3
# Si number density = 20.085839 Si / 1000 Ang^3
#
#
#
# Elastic Constant Matrix: (Units=GPa)
#
#
# Indices 1 2 3 4 5 6 
#
# 1 41.0741 11.1531 20.0239 0.0000 4.0516 0.0000
# 2 11.1531 120.7524 51.0895 0.0000 15.1332 0.0000
# 3 20.0239 51.0895 126.2087 0.0000 31.7195 0.0000
# 4 0.0000 0.0000 0.0000 37.1624 0.0000 -3.3909
# 5 4.0516 15.1332 31.7195 0.0000 31.4981 0.0000
# 6 0.0000 0.0000 0.0000 -3.3909 0.0000 3.8543
#
#
#
# Elastic Compliance Matrix: (Units=1/GPa)
#
#
# Indices 1 2 3 4 5 6 
#
# 1 0.026485 -0.000834 -0.004162 0.000000 0.001186 0.000000
# 2 -0.000834 0.010041 -0.003678 0.000000 -0.001014 0.000000
# 3 -0.004162 -0.003678 0.012711 0.000000 -0.010498 0.000000
# 4 0.000000 0.000000 0.000000 0.029258 0.000000 0.025741
# 5 0.001186 -0.001014 -0.010498 0.000000 0.042654 0.000000
# 6 0.000000 0.000000 0.000000 0.025741 0.000000 0.282099
#
#
# Mechanical properties :
#
#
# Convention : Reuss Voigt Hill
#
# Bulk Modulus (GPa) = 31.35840 50.28534 40.82187
# Shear Modulus (GPa) = 11.59484 28.22088 19.90786
#
# Velocity S-wave (km/s) = 2.40524 3.75242 3.15165
# Velocity P-wave (km/s) = 4.83318 6.62297 5.79756
#
# Compressibility (1/GPa) = 0.03188938
#
# Stress axis : x y z
#
# Youngs Moduli (GPa) = 37.75734 99.58683 78.67226
#
# Poissons Ratio (x) = 0.08302 0.32747
# Poissons Ratio (y) = 0.03148 0.28934
# Poissons Ratio (z) = 0.15716 0.36626
#
# Static dielectric constant tensor:
#      x y z
#    x 1.990510 0.000000 0.074760 
#    y 0.000000 1.868440 0.000000 
#    z 0.074760 0.000000 1.775770 
# 
# From -- ./inp_files/111216.got.cif
#   From: 2010.05.17/outbox.cif.g08.bks.cpg/sg15_56_cif.got.tgz:111216.got - 2010.06.03 18:47:42.
