data_PCOD9294608
_publ_section_title
;
Structure prediction by ZEFSAII (Michael W. Deem and Ramdas Pophale) SiO2 
 PCOD9294608
Probable space group: C 2/C
;
_chemical_formula_sum "Si O2"
_cell_formula_units_Z 40
_cell_length_a 12.948539
_cell_length_b 5.054276
_cell_length_c 27.938327
_cell_angle_alpha 90.000000
_cell_angle_beta 60.224852
_cell_angle_gamma 90.000000
_cell_volume 1587.048887
_symmetry_space_group_name_H-M "C 2/C"
_symmetry_group_IT_number 15
_symmetry_cell_setting 'monoclinic'
loop_
_space_group_symop_operation_xyz
x,y,z
-x,y,1/2-z
-x,-y,-z
x,-y,1/2+z
1/2+x,1/2+y,z
1/2-x,1/2+y,1/2-z
1/2-x,1/2-y,-z
1/2+x,1/2-y,1/2+z
loop_
_atom_site_type_symbol
_atom_site_label
_atom_site_fract_x
_atom_site_fract_y
_atom_site_fract_z
Si Si1 0.161866 0.786653 0.956220
Si Si2 0.912905 0.288769 0.467682
Si Si3 0.703697 0.247067 0.323385
Si Si4 0.903116 0.758313 0.696798
Si Si5 0.343556 0.582130 0.379753
O O1 0.357239 0.428610 0.016345
O O2 0.289100 0.706352 0.904829
O O3 0.053750 0.732861 0.944365
O O4 0.133792 0.573174 0.004769
O O5 0.876915 0.212840 0.422698
O O6 0.819563 0.227312 0.262624
O O7 0.610895 0.032472 0.323191
O O8 0.741891 0.199899 0.368843
O O9 0.653233 0.536870 0.327662
O O10 0.033764 0.870898 0.676609
#
# Coordination Sequence:
#
# PCOD9294608 Si02
#       5
#     8   8   8   8   8
#     4  10  23  41  60  89 129 166 206 258 312 368
#     4  10  23  41  60  89 129 166 206 258 312 368
#     4  10  24  44  64  93 130 163 204 260 317 375
#     4  10  24  44  64  93 130 163 204 260 317 375
#     4  12  23  40  70  96 120 168 217 256 310 374
#
# _framework density 25.204011000000001
#
# number of rings (size 3 to 8) (size 9 to 14) (size 15 to 20)
#    0.000    1.600    0.000    3.000    0.000   12.800 
#    0.000    6.000    0.000    0.000    0.000    0.000 
#    0.000    0.000    0.000    0.000    0.000    0.000 
#
# Total GULP energy -112064.173773 kJ/mol
# GULP energy per Si atom -5603.208689 kJ/mol
# Density = 2.514665 g / cm^3
# Si number density = 25.204011 Si / 1000 Ang^3
#
#
#
# Elastic Constant Matrix: (Units=GPa)
#
#
# Indices 1 2 3 4 5 6 
#
# 1 114.4720 3.7807 31.0643 0.0003 0.3671 -0.0013
# 2 3.7807 90.4690 37.3685 -0.0002 -3.9285 0.0001
# 3 31.0643 37.3685 79.3114 0.0005 8.6712 -0.0008
# 4 0.0003 -0.0002 0.0005 34.1415 0.0001 3.8637
# 5 0.3671 -3.9285 8.6712 0.0001 62.2552 -0.0004
# 6 -0.0013 0.0001 -0.0008 3.8637 -0.0004 25.7710
#
#
#
# Elastic Compliance Matrix: (Units=1/GPa)
#
#
# Indices 1 2 3 4 5 6 
#
# 1 0.009961 0.001561 -0.004713 0.000000 0.000696 0.000000
# 2 0.001561 0.014169 -0.007498 0.000000 0.001929 0.000000
# 3 -0.004713 -0.007498 0.018315 0.000000 -0.002996 0.000000
# 4 0.000000 0.000000 0.000000 0.029795 0.000000 -0.004467
# 5 0.000696 0.001929 -0.002996 0.000000 0.016598 0.000000
# 6 0.000000 0.000000 0.000000 -0.004467 0.000000 0.039473
#
#
# Mechanical properties :
#
#
# Convention : Reuss Voigt Hill
#
# Bulk Modulus (GPa) = 47.29435 47.63106 47.46270
# Shear Modulus (GPa) = 31.91618 38.56946 35.24282
#
# Velocity S-wave (km/s) = 3.56239 3.91614 3.74344
# Velocity P-wave (km/s) = 5.97714 6.27594 6.12836
#
# Compressibility (1/GPa) = 0.02114418
#
# Stress axis : x y z
#
# Youngs Moduli (GPa) = 100.39234 70.57545 54.60028
#
# Poissons Ratio (x) = -0.11014 0.25732
# Poissons Ratio (y) = -0.15668 0.40940
# Poissons Ratio (z) = 0.47314 0.52919
#
# Static dielectric constant tensor:
#      x y z
#    x 2.008800 0.000000 -0.059260 
#    y 0.000000 1.943680 0.000000 
#    z -0.059260 0.000000 2.030800 
# 
# From -- ./inp_files/309396.got.cif
#   From: 2010.05.17/outbox.cif.g08.bks.cpg/sg15_155_cif.got.tgz:309396.got - 2010.06.03 18:47:42.
