data_PCOD9294908
_publ_section_title
;
Structure prediction by ZEFSAII (Michael W. Deem and Ramdas Pophale) SiO2 
 PCOD9294908
Probable space group: C 2/C
;
_chemical_formula_sum "Si O2"
_cell_formula_units_Z 56
_cell_length_a 17.653824
_cell_length_b 19.347636
_cell_length_c 14.814672
_cell_angle_alpha 90.000000
_cell_angle_beta 150.388809
_cell_angle_gamma 90.000000
_cell_volume 2500.252483
_symmetry_space_group_name_H-M "C 2/C"
_symmetry_group_IT_number 15
_symmetry_cell_setting 'monoclinic'
loop_
_space_group_symop_operation_xyz
x,y,z
-x,y,1/2-z
-x,-y,-z
x,-y,1/2+z
1/2+x,1/2+y,z
1/2-x,1/2+y,1/2-z
1/2-x,1/2-y,-z
1/2+x,1/2-y,1/2+z
loop_
_atom_site_type_symbol
_atom_site_label
_atom_site_fract_x
_atom_site_fract_y
_atom_site_fract_z
Si Si1 0.170496 0.469998 0.687446
Si Si2 0.814962 0.596763 0.568384
Si Si3 0.171751 0.850294 0.752550
Si Si4 0.663535 0.221633 0.607707
Si Si5 0.823607 0.554276 0.095328
Si Si6 0.118551 0.701527 0.300764
Si Si7 0.829574 0.897538 0.383473
O O1 0.207661 0.401676 0.670779
O O2 0.195663 0.454976 0.818352
O O3 0.288164 0.531736 0.789650
O O4 0.000000 0.500000 0.500000
O O5 0.736640 0.652444 0.421435
O O6 0.759605 0.517230 0.486571
O O7 0.763172 0.606413 0.618008
O O8 0.000000 0.599936 0.750000
O O9 0.148604 0.781194 0.669192
O O10 0.007872 0.887635 0.585858
O O11 0.754363 0.255006 0.618175
O O12 0.504299 0.187721 0.408328
O O13 0.769109 0.163103 0.758347
O O14 0.798210 0.636690 0.062667
O O15 0.000000 0.550581 0.250000
O O16 0.000000 0.733463 0.250000
#
# Coordination Sequence:
#
# PCOD9294908 Si02
#       7
#     8   8   8   8   8   8   8
#     4  11  21  38  67  93 128 181 232 286 341 417
#     4  10  23  41  69 100 132 180 237 286 347 420
#     4  12  24  43  66  98 146 176 233 295 354 415
#     4  12  25  43  68 102 139 186 228 282 354 422
#     4   9  18  36  62  95 123 165 225 279 329 394
#     4  11  23  43  69  96 138 179 230 284 342 417
#     4  11  25  42  66 100 141 182 231 288 360 414
#
# _framework density 22.397738
#
# number of rings (size 3 to 8) (size 9 to 14) (size 15 to 20)
#    0.000    1.143    2.857    4.714    2.000    1.714 
#    0.000    0.000    0.000    0.000    0.000    0.000 
#    0.000    0.000    0.000    0.000    0.000    0.000 
#
# Total GULP energy -156172.612700 kJ/mol
# GULP energy per Si atom -5577.593311 kJ/mol
# Density = 2.234676 g / cm^3
# Si number density = 22.397738 Si / 1000 Ang^3
#
#
#
# Elastic Constant Matrix: (Units=GPa)
#
#
# Indices 1 2 3 4 5 6 
#
# 1 51.5499 4.8040 -13.6209 0.0000 0.5785 0.0000
# 2 4.8040 63.7095 5.6746 0.0000 -2.1310 0.0000
# 3 -13.6209 5.6746 93.9530 0.0000 5.3902 0.0000
# 4 0.0000 0.0000 0.0000 30.9537 0.0000 -6.5211
# 5 0.5785 -2.1310 5.3902 0.0000 29.3287 0.0000
# 6 0.0000 0.0000 0.0000 -6.5211 0.0000 30.9261
#
#
#
# Elastic Compliance Matrix: (Units=1/GPa)
#
#
# Indices 1 2 3 4 5 6 
#
# 1 0.020413 -0.001856 0.003135 0.000000 -0.001114 0.000000
# 2 -0.001856 0.016002 -0.001318 0.000000 0.001442 0.000000
# 3 0.003135 -0.001318 0.011306 0.000000 -0.002235 0.000000
# 4 0.000000 0.000000 0.000000 0.033808 0.000000 0.007129
# 5 -0.001114 0.001442 -0.002235 0.000000 0.034634 0.000000
# 6 0.000000 0.000000 0.000000 0.007129 0.000000 0.033838
#
#
# Mechanical properties :
#
#
# Convention : Reuss Voigt Hill
#
# Bulk Modulus (GPa) = 20.98941 22.54755 21.76848
# Shear Modulus (GPa) = 30.12792 32.39869 31.26330
#
# Velocity S-wave (km/s) = 3.67158 3.80744 3.74013
# Velocity P-wave (km/s) = 5.23121 5.42379 5.32837
#
# Compressibility (1/GPa) = 0.04764308
#
# Stress axis : x y z
#
# Youngs Moduli (GPa) = 48.98948 62.49289 88.44840
#
# Poissons Ratio (x) = 0.11597 -0.27731
# Poissons Ratio (y) = 0.09091 0.11659
# Poissons Ratio (z) = -0.15360 0.08238
#
# Static dielectric constant tensor:
#      x y z
#    x 1.818240 0.000000 -0.034630 
#    y 0.000000 1.955490 0.000000 
#    z -0.034630 0.000000 1.831720 
# 
# From -- ./inp_files/163807.got.cif
#   From: 2010.05.17/outbox.cif.g08.bks.cpg/sg15_82_cif.got.tgz:163807.got - 2010.06.03 18:47:42.
