data_PCOD9294672
_publ_section_title
;
Structure prediction by ZEFSAII (Michael W. Deem and Ramdas Pophale) SiO2 
 PCOD9294672
Probable space group: C 2/C
;
_chemical_formula_sum "Si O2"
_cell_formula_units_Z 48
_cell_length_a 13.163376
_cell_length_b 11.053782
_cell_length_c 19.139875
_cell_angle_alpha 90.000000
_cell_angle_beta 49.096091
_cell_angle_gamma 90.000000
_cell_volume 2104.889114
_symmetry_space_group_name_H-M "C 2/C"
_symmetry_group_IT_number 15
_symmetry_cell_setting 'monoclinic'
loop_
_space_group_symop_operation_xyz
x,y,z
-x,y,1/2-z
-x,-y,-z
x,-y,1/2+z
1/2+x,1/2+y,z
1/2-x,1/2+y,1/2-z
1/2-x,1/2-y,-z
1/2+x,1/2-y,1/2+z
loop_
_atom_site_type_symbol
_atom_site_label
_atom_site_fract_x
_atom_site_fract_y
_atom_site_fract_z
Si Si1 0.640877 0.137411 0.390591
Si Si2 0.860747 0.522260 0.475326
Si Si3 0.648141 0.977240 0.672252
Si Si4 0.754602 0.724780 0.613570
Si Si5 0.188382 0.959976 0.262912
Si Si6 0.990815 0.881843 0.051840
O O1 0.626821 0.083388 0.474183
O O2 0.537347 0.429312 0.356110
O O3 0.510853 0.083294 0.406257
O O4 0.775430 0.080572 0.297180
O O5 0.809419 0.480610 0.423709
O O6 0.759398 0.622641 0.551878
O O7 0.500000 0.025449 0.750000
O O8 0.646221 0.830673 0.665686
O O9 0.736983 0.012667 0.697737
O O10 0.748430 0.648914 0.688486
O O11 0.886176 0.801992 0.533271
O O12 0.626896 0.719757 0.899241
O O13 0.000000 0.000000 0.000000
#
# Coordination Sequence:
#
# PCOD9294672 Si02
#       6
#     8   8   8   8   8   8
#     4   9  19  39  61  91 124 170 209 261 331 393
#     4   9  19  37  63  89 127 163 210 271 332 378
#     4  12  22  36  64 101 124 163 227 274 322 388
#     4  10  23  41  63  94 132 170 215 275 326 391
#     4  11  22  40  64  95 127 174 216 266 333 389
#     4  11  22  37  64  92 125 171 225 256 316 399
#
# _framework density 22.804051999999999
#
# number of rings (size 3 to 8) (size 9 to 14) (size 15 to 20)
#    0.000    1.667    3.333    2.500    2.333    0.000 
#    0.000    0.833    0.000    0.000    0.000    0.000 
#    0.000    0.000    0.000    0.000    0.000    0.000 
#
# Total GULP energy -133787.424257 kJ/mol
# GULP energy per Si atom -5574.476011 kJ/mol
# Density = 2.275215 g / cm^3
# Si number density = 22.804052 Si / 1000 Ang^3
#
#
#
# Elastic Constant Matrix: (Units=GPa)
#
#
# Indices 1 2 3 4 5 6 
#
# 1 43.4594 1.2547 31.2814 0.0000 12.2625 0.0000
# 2 1.2547 105.5802 51.2723 0.0000 -7.9670 0.0000
# 3 31.2814 51.2723 177.9885 0.0000 3.7425 0.0000
# 4 0.0000 0.0000 0.0000 36.1508 0.0000 -0.9426
# 5 12.2625 -7.9670 3.7425 0.0000 42.4680 0.0000
# 6 0.0000 0.0000 0.0000 -0.9426 0.0000 19.0270
#
#
#
# Elastic Compliance Matrix: (Units=1/GPa)
#
#
# Indices 1 2 3 4 5 6 
#
# 1 0.029010 0.001723 -0.005436 0.000000 -0.007574 0.000000
# 2 0.001723 0.011353 -0.003614 0.000000 0.001951 0.000000
# 3 -0.005436 -0.003614 0.007610 0.000000 0.000221 0.000000
# 4 0.000000 0.000000 0.000000 0.027698 0.000000 0.001372
# 5 -0.007574 0.001951 0.000221 0.000000 0.026081 0.000000
# 6 0.000000 0.000000 0.000000 0.001372 0.000000 0.052625
#
#
# Mechanical properties :
#
#
# Convention : Reuss Voigt Hill
#
# Bulk Modulus (GPa) = 30.01190 54.96054 42.48622
# Shear Modulus (GPa) = 27.75668 35.74382 31.75025
#
# Velocity S-wave (km/s) = 3.49260 3.96338 3.73541
# Velocity P-wave (km/s) = 5.42712 6.71551 6.10539
#
# Compressibility (1/GPa) = 0.03332012
#
# Stress axis : x y z
#
# Youngs Moduli (GPa) = 34.47102 88.07889 131.40240
#
# Poissons Ratio (x) = -0.15180 0.71426
# Poissons Ratio (y) = -0.05941 0.47495
# Poissons Ratio (z) = 0.18737 0.31836
#
# Static dielectric constant tensor:
#      x y z
#    x 1.924650 0.000000 -0.053390 
#    y 0.000000 1.828460 0.000000 
#    z -0.053390 0.000000 1.930500 
# 
# From -- ./inp_files/247261.got.cif
#   From: 2010.05.17/outbox.cif.g08.bks.cpg/sg15_124_cif.got.tgz:247261.got - 2010.06.03 18:47:42.
