data_PCOD9294173
_publ_section_title
;
Structure prediction by ZEFSAII (Michael W. Deem and Ramdas Pophale) SiO2 
 PCOD9294173
Probable space group: C 2/C
;
_chemical_formula_sum "Si O2"
_cell_formula_units_Z 56
_cell_length_a 20.394580
_cell_length_b 20.126933
_cell_length_c 16.940979
_cell_angle_alpha 90.000000
_cell_angle_beta 158.525528
_cell_angle_gamma 90.000000
_cell_volume 2545.744164
_symmetry_space_group_name_H-M "C 2/C"
_symmetry_group_IT_number 15
_symmetry_cell_setting 'monoclinic'
loop_
_space_group_symop_operation_xyz
x,y,z
-x,y,1/2-z
-x,-y,-z
x,-y,1/2+z
1/2+x,1/2+y,z
1/2-x,1/2+y,1/2-z
1/2-x,1/2-y,-z
1/2+x,1/2-y,1/2+z
loop_
_atom_site_type_symbol
_atom_site_label
_atom_site_fract_x
_atom_site_fract_y
_atom_site_fract_z
Si Si1 0.883090 0.174737 0.793030
Si Si2 0.248073 0.955765 0.155950
Si Si3 0.715672 0.070958 0.978578
Si Si4 0.581201 0.387450 0.648336
Si Si5 0.617182 0.088119 0.144920
Si Si6 0.761688 0.184639 0.410540
Si Si7 0.711871 0.917862 0.995855
O O1 0.771458 0.237047 0.634069
O O2 0.770414 0.109243 0.646575
O O3 0.965305 0.170319 0.973794
O O4 0.057101 0.170866 0.932849
O O5 0.240129 0.918528 0.063565
O O6 0.423709 0.931137 0.398131
O O7 0.294960 0.033382 0.198580
O O8 0.068705 0.943238 0.003323
O O9 0.500000 0.074980 0.750000
O O10 0.776584 0.993810 0.060420
O O11 0.819365 0.118461 0.155828
O O12 0.742362 0.406566 0.769696
O O13 0.605162 0.155139 0.180517
O O14 0.765967 0.140635 0.494412
O O15 0.500000 0.921729 0.750000
#
# Coordination Sequence:
#
# PCOD9294173 Si02
#       7
#     8   8   8   8   8   8   8
#     4  11  26  40  64  91 127 175 216 268 309 392
#     4  11  22  38  66  91 131 162 206 269 333 387
#     4  11  23  41  63  97 135 167 213 268 335 394
#     4  11  25  39  64  96 128 172 216 265 325 393
#     4  10  23  39  62  96 125 163 212 269 323 382
#     4  11  23  43  60  89 129 169 219 261 318 377
#     4  11  24  38  64  94 132 173 208 261 325 393
#
# _framework density 21.997496999999999
#
# number of rings (size 3 to 8) (size 9 to 14) (size 15 to 20)
#    0.000    1.143    2.857    2.571   10.000    1.143 
#    0.000    0.000    0.000    0.857    3.714    0.000 
#    0.000    0.000    0.000    0.000    0.000    0.000 
#
# Total GULP energy -156214.277531 kJ/mol
# GULP energy per Si atom -5579.081340 kJ/mol
# Density = 2.194743 g / cm^3
# Si number density = 21.997497 Si / 1000 Ang^3
#
#
#
# Elastic Constant Matrix: (Units=GPa)
#
#
# Indices 1 2 3 4 5 6 
#
# 1 87.7546 3.4618 24.9346 0.0000 -18.8765 0.0000
# 2 3.4618 32.9921 7.0753 0.0000 -4.5259 0.0000
# 3 24.9346 7.0753 85.8512 -0.0001 -8.6781 -0.0001
# 4 0.0000 0.0000 -0.0001 -41.9612 0.0000 -53.0009
# 5 -18.8765 -4.5259 -8.6781 0.0000 29.7780 0.0000
# 6 0.0000 0.0000 -0.0001 -53.0009 0.0000 -7.3565
#
#
#
# Elastic Compliance Matrix: (Units=1/GPa)
#
#
# Indices 1 2 3 4 5 6 
#
# 1 0.014037 0.000330 -0.003297 0.000000 0.007988 0.000000
# 2 0.000330 0.031349 -0.002243 0.000000 0.004320 0.000000
# 3 -0.003297 -0.002243 0.012925 0.000000 0.001336 0.000000
# 4 0.000000 0.000000 0.000000 0.002942 0.000000 -0.021197
# 5 0.007988 0.004320 0.001336 0.000000 0.039691 0.000000
# 6 0.000000 0.000000 0.000000 -0.021197 0.000000 0.016782
#
#
# Mechanical properties :
#
#
# Convention : Reuss Voigt Hill
#
# Bulk Modulus (GPa) = 20.87991 30.83793 25.85892
# Shear Modulus (GPa) = 34.69549 7.50047 21.09798
#
# Velocity S-wave (km/s) = 3.97577 1.84854 3.10031
# Velocity P-wave (km/s) = 5.53066 4.31340 4.95951
#
# Compressibility (1/GPa) = 0.04789294
#
# Stress axis : x y z
#
# Youngs Moduli (GPa) = 71.23847 31.89859 77.36663
#
# Poissons Ratio (x) = -0.01052 0.25506
# Poissons Ratio (y) = -0.02350 0.17351
# Poissons Ratio (z) = 0.23486 0.07154
#
# Static dielectric constant tensor:
#      x y z
#    x 1.841500 0.000000 -0.027810 
#    y 0.000000 1.862660 0.000000 
#    z -0.027810 0.000000 1.821610 
# 
# From -- ./inp_files/156891.got.cif
#   From: 2010.05.17/outbox.cif.g08.bks.cpg/sg15_79_cif.got.tgz:156891.got - 2010.06.03 18:47:42.
