data_PCOD9294035
_publ_section_title
;
Structure prediction by ZEFSAII (Michael W. Deem and Ramdas Pophale) SiO2 
 PCOD9294035
Probable space group: C 2/C
;
_chemical_formula_sum "Si O2"
_cell_formula_units_Z 56
_cell_length_a 23.425333
_cell_length_b 17.819882
_cell_length_c 7.793526
_cell_angle_alpha 90.000000
_cell_angle_beta 131.435803
_cell_angle_gamma 90.000000
_cell_volume 2438.994124
_symmetry_space_group_name_H-M "C 2/C"
_symmetry_group_IT_number 15
_symmetry_cell_setting 'monoclinic'
loop_
_space_group_symop_operation_xyz
x,y,z
-x,y,1/2-z
-x,-y,-z
x,-y,1/2+z
1/2+x,1/2+y,z
1/2-x,1/2+y,1/2-z
1/2-x,1/2-y,-z
1/2+x,1/2-y,1/2+z
loop_
_atom_site_type_symbol
_atom_site_label
_atom_site_fract_x
_atom_site_fract_y
_atom_site_fract_z
Si Si1 0.411748 0.888788 0.109190
Si Si2 0.868669 0.216379 0.021916
Si Si3 0.065188 0.776540 0.497804
Si Si4 0.929891 0.601827 0.008457
Si Si5 0.739027 0.060116 0.247233
Si Si6 0.318923 0.302561 0.067598
Si Si7 0.759663 0.600943 0.654523
O O1 0.500000 0.874274 0.250000
O O2 0.371099 0.806849 0.038146
O O3 0.418232 0.933158 0.300063
O O4 0.350877 0.935573 0.878278
O O5 0.922214 0.191639 0.286762
O O6 0.880526 0.198532 0.845049
O O7 0.789950 0.173993 0.906778
O O8 0.045858 0.688332 0.482446
O O9 0.140667 0.779286 0.529627
O O10 0.000000 0.811956 0.250000
O O11 0.000000 0.567775 0.250000
O O12 0.844078 0.607997 0.904760
O O13 0.784238 0.116458 0.458602
O O14 0.770549 0.976516 0.326265
O O15 0.740844 0.087639 0.052672
O O16 0.250000 0.250000 0.000000
#
# Coordination Sequence:
#
# PCOD9294035 Si02
#       7
#     8   8   8   8   8   8   8
#     4  10  23  38  61  96 133 170 224 279 333 405
#     4  11  23  39  67  95 135 171 222 281 335 398
#     4  10  23  40  62  95 134 169 217 279 338 400
#     4   9  21  36  60  88 130 176 208 271 330 397
#     4  11  24  42  63  94 132 175 224 277 334 407
#     4  12  23  37  67  98 127 172 223 280 336 395
#     4  11  23  42  63  93 135 178 223 273 340 401
#
# _framework density 22.960287000000001
#
# number of rings (size 3 to 8) (size 9 to 14) (size 15 to 20)
#    0.000    1.429    2.857    1.714    6.000    5.143 
#    0.000    2.857    0.000    1.714    0.000    0.000 
#    0.000    0.000    0.000    0.000    0.000    0.000 
#
# Total GULP energy -156137.055204 kJ/mol
# GULP energy per Si atom -5576.323400 kJ/mol
# Density = 2.290803 g / cm^3
# Si number density = 22.960287 Si / 1000 Ang^3
#
#
#
# Elastic Constant Matrix: (Units=GPa)
#
#
# Indices 1 2 3 4 5 6 
#
# 1 47.7198 31.8229 3.3286 0.0000 -4.1427 0.0000
# 2 31.8229 79.6048 30.7939 0.0000 7.3210 0.0000
# 3 3.3286 30.7939 138.8714 0.0000 -20.8847 0.0000
# 4 0.0000 0.0000 0.0000 11.3420 0.0000 -5.6229
# 5 -4.1427 7.3210 -20.8847 0.0000 38.6127 0.0000
# 6 0.0000 0.0000 0.0000 -5.6229 0.0000 24.3497
#
#
#
# Elastic Compliance Matrix: (Units=1/GPa)
#
#
# Indices 1 2 3 4 5 6 
#
# 1 0.031173 -0.014651 0.003725 0.000000 0.008137 0.000000
# 2 -0.014651 0.021432 -0.005713 0.000000 -0.008726 0.000000
# 3 0.003725 -0.005713 0.009363 0.000000 0.006547 0.000000
# 4 0.000000 0.000000 0.000000 0.099566 0.000000 0.022992
# 5 0.008137 -0.008726 0.006547 0.000000 0.031967 0.000000
# 6 0.000000 0.000000 0.000000 0.022992 0.000000 0.046378
#
#
# Mechanical properties :
#
#
# Convention : Reuss Voigt Hill
#
# Bulk Modulus (GPa) = 34.85635 44.23188 39.54411
# Shear Modulus (GPa) = 17.68538 28.21092 22.94815
#
# Velocity S-wave (km/s) = 2.77837 3.50906 3.16487
# Velocity P-wave (km/s) = 5.05040 5.97698 5.53312
#
# Compressibility (1/GPa) = 0.02868918
#
# Stress axis : x y z
#
# Youngs Moduli (GPa) = 32.07947 46.66009 106.80155
#
# Poissons Ratio (x) = 0.68362 -0.39788
# Poissons Ratio (y) = 0.47000 0.61020
# Poissons Ratio (z) = -0.11951 0.26659
#
# Static dielectric constant tensor:
#      x y z
#    x 1.999420 0.000000 -0.004280 
#    y 0.000000 1.848070 0.000000 
#    z -0.004280 0.000000 1.959450 
# 
# From -- ./inp_files/67211.got.cif
#   From: 2010.05.17/outbox.cif.g08.bks.cpg/sg15_34_cif.got.tgz:67211.got - 2010.06.03 18:47:42.
