data_PCOD9294841
_publ_section_title
;
Structure prediction by ZEFSAII (Michael W. Deem and Ramdas Pophale) SiO2 
 PCOD9294841
Probable space group: C 2/C
;
_chemical_formula_sum "Si O2"
_cell_formula_units_Z 40
_cell_length_a 9.130008
_cell_length_b 11.618771
_cell_length_c 16.964295
_cell_angle_alpha 90.000000
_cell_angle_beta 111.172995
_cell_angle_gamma 90.000000
_cell_volume 1678.082382
_symmetry_space_group_name_H-M "C 2/C"
_symmetry_group_IT_number 15
_symmetry_cell_setting 'monoclinic'
loop_
_space_group_symop_operation_xyz
x,y,z
-x,y,1/2-z
-x,-y,-z
x,-y,1/2+z
1/2+x,1/2+y,z
1/2-x,1/2+y,1/2-z
1/2-x,1/2-y,-z
1/2+x,1/2-y,1/2+z
loop_
_atom_site_type_symbol
_atom_site_label
_atom_site_fract_x
_atom_site_fract_y
_atom_site_fract_z
Si Si1 0.723122 0.566493 0.785884
Si Si2 0.167444 0.651737 0.536240
Si Si3 0.625717 0.211249 0.911518
Si Si4 0.000000 0.265547 0.750000
Si Si5 0.929857 0.474726 0.633998
Si Si6 0.000000 0.130276 0.250000
O O1 0.717024 0.584985 0.880640
O O2 0.634212 0.681899 0.740052
O O3 0.902921 0.530283 0.807270
O O4 0.625737 0.457434 0.738092
O O5 0.250000 0.750000 0.500000
O O6 0.035751 0.700653 0.569739
O O7 0.084268 0.566443 0.458757
O O8 0.588046 0.294937 0.832224
O O9 0.677639 0.087802 0.884876
O O10 0.750000 0.250000 0.000000
O O11 0.913226 0.354807 0.675711
#
# Coordination Sequence:
#
# PCOD9294841 Si02
#       6
#     8   8   8   4   8   4
#     4  10  23  41  67  94 139 179 228 295 354 411
#     4  11  22  44  69  96 136 183 232 292 352 428
#     4  11  24  45  69 104 142 186 236 295 361 424
#     4  11  23  42  64 104 133 181 248 276 360 439
#     4  11  23  41  70  94 139 184 230 294 357 422
#     4  11  23  42  68 102 139 181 236 294 354 423
#
# _framework density 23.836732000000001
#
# number of rings (size 3 to 8) (size 9 to 14) (size 15 to 20)
#    0.000    1.200    2.000    5.400    5.600    0.000 
#    3.600    4.000    0.000    0.000    0.000    0.000 
#    0.000    0.000    0.000    0.000    0.000    0.000 
#
# Total GULP energy -111653.329248 kJ/mol
# GULP energy per Si atom -5582.666462 kJ/mol
# Density = 2.378248 g / cm^3
# Si number density = 23.836732 Si / 1000 Ang^3
#
#
#
# Elastic Constant Matrix: (Units=GPa)
#
#
# Indices 1 2 3 4 5 6 
#
# 1 64.8398 39.9073 10.0721 0.0000 8.9454 0.0000
# 2 39.9073 196.4582 67.0736 0.0000 -0.1645 0.0000
# 3 10.0721 67.0736 121.1892 0.0000 17.3069 0.0000
# 4 0.0000 0.0000 0.0000 39.9925 0.0000 13.2036
# 5 8.9454 -0.1645 17.3069 0.0000 33.4734 0.0000
# 6 0.0000 0.0000 0.0000 13.2036 0.0000 21.2498
#
#
#
# Elastic Compliance Matrix: (Units=1/GPa)
#
#
# Indices 1 2 3 4 5 6 
#
# 1 0.018667 -0.004383 0.001717 0.000000 -0.005898 0.000000
# 2 -0.004383 0.007428 -0.004232 0.000000 0.003396 0.000000
# 3 0.001717 -0.004232 0.011358 0.000000 -0.006352 0.000000
# 4 0.000000 0.000000 0.000000 0.031458 0.000000 -0.019546
# 5 -0.005898 0.003396 -0.006352 0.000000 0.034752 0.000000
# 6 0.000000 0.000000 0.000000 -0.019546 0.000000 0.059204
#
#
# Mechanical properties :
#
#
# Convention : Reuss Voigt Hill
#
# Bulk Modulus (GPa) = 42.27058 68.51036 55.39047
# Shear Modulus (GPa) = 27.09298 36.63874 31.86586
#
# Velocity S-wave (km/s) = 3.37502 3.92480 3.66025
# Velocity P-wave (km/s) = 5.74104 7.02443 6.41491
#
# Compressibility (1/GPa) = 0.02365712
#
# Stress axis : x y z
#
# Youngs Moduli (GPa) = 53.56978 134.62344 88.04208
#
# Poissons Ratio (x) = 0.59005 -0.15113
# Poissons Ratio (y) = 0.23479 0.37258
# Poissons Ratio (z) = -0.09196 0.56971
#
# Static dielectric constant tensor:
#      x y z
#    x 2.005250 0.000000 0.045100 
#    y 0.000000 1.941130 0.000000 
#    z 0.045100 0.000000 2.089150 
# 
# From -- ./inp_files/196366.got.cif
#   From: 2010.05.17/outbox.cif.g08.bks.cpg/sg15_99_cif.got.tgz:196366.got - 2010.06.03 18:47:42.
