data_PCOD9294233
_publ_section_title
;
Structure prediction by ZEFSAII (Michael W. Deem and Ramdas Pophale) SiO2 
 PCOD9294233
Probable space group: C 2/C
;
_chemical_formula_sum "Si O2"
_cell_formula_units_Z 56
_cell_length_a 13.118025
_cell_length_b 28.284479
_cell_length_c 8.417924
_cell_angle_alpha 90.000000
_cell_angle_beta 127.309499
_cell_angle_gamma 90.000000
_cell_volume 2484.233903
_symmetry_space_group_name_H-M "C 2/C"
_symmetry_group_IT_number 15
_symmetry_cell_setting 'monoclinic'
loop_
_space_group_symop_operation_xyz
x,y,z
-x,y,1/2-z
-x,-y,-z
x,-y,1/2+z
1/2+x,1/2+y,z
1/2-x,1/2+y,1/2-z
1/2-x,1/2-y,-z
1/2+x,1/2-y,1/2+z
loop_
_atom_site_type_symbol
_atom_site_label
_atom_site_fract_x
_atom_site_fract_y
_atom_site_fract_z
Si Si1 0.268894 0.397281 0.791584
Si Si2 0.726211 0.570865 0.726402
Si Si3 0.365318 0.653312 0.691883
Si Si4 0.821039 0.287454 0.292186
Si Si5 0.513638 0.875048 0.073528
Si Si6 0.356564 0.309155 0.678934
Si Si7 0.353227 0.479979 0.666419
O O1 0.327797 0.359408 0.725572
O O2 0.329814 0.446954 0.798511
O O3 0.116236 0.393882 0.625456
O O4 0.302078 0.378030 0.995101
O O5 0.627643 0.614899 0.657353
O O6 0.865119 0.594668 0.869014
O O7 0.699249 0.530726 0.830882
O O8 0.715373 0.546269 0.544685
O O9 0.500000 0.669184 0.750000
O O10 0.275720 0.695709 0.663194
O O11 0.947692 0.320235 0.423476
O O12 0.844180 0.232039 0.299051
O O13 0.747875 0.300697 0.058185
O O14 0.500000 0.879581 0.250000
O O15 0.500000 0.305686 0.750000
O O16 0.500000 0.483713 0.750000
#
# Coordination Sequence:
#
# PCOD9294233 Si02
#       7
#     8   8   8   8   8   8   8
#     4  12  24  40  70  95 132 176 217 264 339 383
#     4  11  24  41  66  93 134 173 217 272 328 379
#     4  11  23  44  65  97 134 171 213 277 325 393
#     4  10  23  39  65  92 129 168 214 268 325 378
#     4  11  21  45  64  94 133 173 216 270 320 401
#     4  11  22  39  67  97 120 170 221 269 320 387
#     4  12  23  41  66 100 128 174 223 276 322 391
#
# _framework density 22.542159000000002
#
# number of rings (size 3 to 8) (size 9 to 14) (size 15 to 20)
#    0.000    0.857    2.857    5.143    2.000    3.429 
#    0.000    0.000    0.000    0.000    0.000    0.000 
#    0.000    0.000    0.000    0.000    0.000    0.000 
#
# Total GULP energy -156790.177148 kJ/mol
# GULP energy per Si atom -5599.649184 kJ/mol
# Density = 2.249085 g / cm^3
# Si number density = 22.542159 Si / 1000 Ang^3
#
#
#
# Elastic Constant Matrix: (Units=GPa)
#
#
# Indices 1 2 3 4 5 6 
#
# 1 140.5339 40.0156 4.9886 0.0000 6.4065 0.0000
# 2 40.0156 83.4580 -19.9239 0.0000 6.6166 0.0000
# 3 4.9886 -19.9239 42.9737 0.0000 -1.3652 0.0000
# 4 0.0000 0.0000 0.0000 16.8158 0.0000 -4.9481
# 5 6.4065 6.6166 -1.3652 0.0000 29.9650 0.0000
# 6 0.0000 0.0000 0.0000 -4.9481 0.0000 16.8336
#
#
#
# Elastic Compliance Matrix: (Units=1/GPa)
#
#
# Indices 1 2 3 4 5 6 
#
# 1 0.008660 -0.004864 -0.003290 0.000000 -0.000927 0.000000
# 2 -0.004864 0.016426 0.008110 0.000000 -0.002218 0.000000
# 3 -0.003290 0.008110 0.027417 0.000000 0.000162 0.000000
# 4 0.000000 0.000000 0.000000 0.065098 0.000000 0.019135
# 5 -0.000927 -0.002218 0.000162 0.000000 0.034068 0.000000
# 6 0.000000 0.000000 0.000000 0.019135 0.000000 0.065030
#
#
# Mechanical properties :
#
#
# Convention : Reuss Voigt Hill
#
# Bulk Modulus (GPa) = 19.07853 35.23623 27.15738
# Shear Modulus (GPa) = 21.34399 28.84857 25.09628
#
# Velocity S-wave (km/s) = 3.08043 3.58126 3.34024
# Velocity P-wave (km/s) = 4.59716 5.72413 5.19132
#
# Compressibility (1/GPa) = 0.05241495
#
# Stress axis : x y z
#
# Youngs Moduli (GPa) = 115.47706 60.87893 36.47367
#
# Poissons Ratio (x) = 0.29611 0.11999
# Poissons Ratio (y) = 0.56167 -0.29579
# Poissons Ratio (z) = 0.37989 -0.49371
#
# Static dielectric constant tensor:
#      x y z
#    x 1.822740 0.000000 -0.031050 
#    y 0.000000 1.807370 0.000000 
#    z -0.031050 0.000000 1.880290 
# 
# From -- ./inp_files/35800.got.cif
#   From: 2010.05.17/outbox.cif.g08.bks.cpg/sg15_18_cif.got.tgz:35800.got - 2010.06.03 18:47:42.
