data_PCOD9294448
_publ_section_title
;
Structure prediction by ZEFSAII (Michael W. Deem and Ramdas Pophale) SiO2 
 PCOD9294448
Probable space group: C 2/C
;
_chemical_formula_sum "Si O2"
_cell_formula_units_Z 60
_cell_length_a 18.081830
_cell_length_b 29.630528
_cell_length_c 13.611268
_cell_angle_alpha 90.000000
_cell_angle_beta 156.826132
_cell_angle_gamma 90.000000
_cell_volume 2869.789904
_symmetry_space_group_name_H-M "C 2/C"
_symmetry_group_IT_number 15
_symmetry_cell_setting 'monoclinic'
loop_
_space_group_symop_operation_xyz
x,y,z
-x,y,1/2-z
-x,-y,-z
x,-y,1/2+z
1/2+x,1/2+y,z
1/2-x,1/2+y,1/2-z
1/2-x,1/2-y,-z
1/2+x,1/2-y,1/2+z
loop_
_atom_site_type_symbol
_atom_site_label
_atom_site_fract_x
_atom_site_fract_y
_atom_site_fract_z
Si Si1 0.060698 0.603528 0.437825
Si Si2 0.211926 0.561669 0.034805
Si Si3 0.500000 0.383883 0.750000
Si Si4 0.264225 0.322004 0.318116
Si Si5 0.918267 0.185455 0.546711
Si Si6 0.942850 0.743832 0.421469
Si Si7 0.868432 0.970800 0.264696
Si Si8 0.803549 0.090007 0.367075
O O1 0.163794 0.646781 0.612718
O O2 0.216795 0.563240 0.628731
O O3 0.870832 0.593229 0.269607
O O4 0.000000 0.611058 0.250000
O O5 0.369848 0.587210 0.164505
O O6 0.249417 0.508525 0.062867
O O7 0.231601 0.572518 0.174206
O O8 0.000000 0.574302 0.750000
O O9 0.360270 0.353558 0.514574
O O10 0.409901 0.286153 0.451917
O O11 0.108447 0.286828 0.164943
O O12 0.715580 0.207828 0.294768
O O13 0.895607 0.139120 0.460474
O O14 0.000000 0.171126 0.750000
O O15 0.034477 0.228106 0.650871
O O16 0.021164 0.941952 0.391154
O O17 0.000000 0.000000 0.500000
#
# Coordination Sequence:
#
# PCOD9294448 Si02
#       8
#     8   8   4   8   8   8   8   8
#     4  12  26  43  70 104 142 180 230 287 349 419
#     4  11  25  45  71  99 133 181 233 290 348 411
#     4  12  26  48  76 100 138 186 238 296 350 418
#     4  11  24  45  67 102 137 181 232 289 351 410
#     4  11  22  38  63  97 134 182 219 274 340 412
#     4  10  23  40  65  96 140 172 232 282 339 415
#     4  10  24  44  67  99 137 182 229 286 343 413
#     4  11  25  44  67 100 138 180 226 280 342 411
#
# _framework density 20.907453
#
# number of rings (size 3 to 8) (size 9 to 14) (size 15 to 20)
#    0.000    1.067    1.333    4.800    3.733    6.933 
#    0.000    0.000    0.000    0.000    0.000    0.000 
#    0.000    0.000    0.000    0.000    0.000    0.000 
#
# Total GULP energy -167312.787573 kJ/mol
# GULP energy per Si atom -5577.092919 kJ/mol
# Density = 2.085987 g / cm^3
# Si number density = 20.907453 Si / 1000 Ang^3
#
#
#
# Elastic Constant Matrix: (Units=GPa)
#
#
# Indices 1 2 3 4 5 6 
#
# 1 103.6914 44.7064 50.8712 0.0001 13.7055 0.0000
# 2 44.7064 143.6752 38.3630 0.0001 13.1170 0.0000
# 3 50.8712 38.3630 130.3873 0.0003 30.2565 0.0000
# 4 0.0001 0.0001 0.0003 18.1992 0.0001 25.8775
# 5 13.7055 13.1170 30.2565 0.0001 39.5816 0.0001
# 6 0.0000 0.0000 0.0000 25.8775 0.0001 30.5777
#
#
#
# Elastic Compliance Matrix: (Units=1/GPa)
#
#
# Indices 1 2 3 4 5 6 
#
# 1 0.012964 -0.002900 -0.004116 0.000000 -0.000381 0.000000
# 2 -0.002900 0.008234 -0.001083 0.000000 -0.000896 0.000000
# 3 -0.004116 -0.001083 0.011160 0.000001 -0.006746 -0.000001
# 4 0.000000 0.000000 0.000001 -0.270233 0.000000 0.228694
# 5 -0.000381 -0.000896 -0.006746 0.000000 0.030850 0.000000
# 6 0.000000 0.000000 -0.000001 0.228694 0.000000 -0.160837
#
#
# Mechanical properties :
#
#
# Convention : Reuss Voigt Hill
#
# Bulk Modulus (GPa) = 61.88633 71.73724 66.81178
# Shear Modulus (GPa) = -14.43932 33.92593 9.74331
#
# Velocity S-wave (km/s) = -2.63084 4.03261 2.16109
# Velocity P-wave (km/s) = 4.52062 7.48792 6.18486
#
# Compressibility (1/GPa) = 0.01615866
#
# Stress axis : x y z
#
# Youngs Moduli (GPa) = 77.13533 121.45415 89.60935
#
# Poissons Ratio (x) = 0.35223 0.36886
# Poissons Ratio (y) = 0.22370 0.09705
# Poissons Ratio (z) = 0.31751 0.13153
#
# Static dielectric constant tensor:
#      x y z
#    x 1.867640 0.000000 0.062190 
#    y 0.000000 1.705950 0.000000 
#    z 0.062190 0.000000 1.762240 
# 
# From -- ./inp_files/169970.got.cif
#   From: 2010.05.17/outbox.cif.g08.bks.cpg/sg15_85_cif.got.tgz:169970.got - 2010.06.03 18:47:42.
