data_PCOD9294747
_publ_section_title
;
Structure prediction by ZEFSAII (Michael W. Deem and Ramdas Pophale) SiO2 
 PCOD9294747
Probable space group: C 2/C
;
_chemical_formula_sum "Si O2"
_cell_formula_units_Z 36
_cell_length_a 4.953236
_cell_length_b 13.145290
_cell_length_c 21.562288
_cell_angle_alpha 90.000000
_cell_angle_beta 93.629024
_cell_angle_gamma 90.000000
_cell_volume 1401.142512
_symmetry_space_group_name_H-M "C 2/C"
_symmetry_group_IT_number 15
_symmetry_cell_setting 'monoclinic'
loop_
_space_group_symop_operation_xyz
x,y,z
-x,y,1/2-z
-x,-y,-z
x,-y,1/2+z
1/2+x,1/2+y,z
1/2-x,1/2+y,1/2-z
1/2-x,1/2-y,-z
1/2+x,1/2-y,1/2+z
loop_
_atom_site_type_symbol
_atom_site_label
_atom_site_fract_x
_atom_site_fract_y
_atom_site_fract_z
Si Si1 0.288427 0.869731 0.438431
Si Si2 0.743005 0.861912 0.354649
Si Si3 0.000000 0.991721 0.250000
Si Si4 0.338758 0.366411 0.930602
Si Si5 0.797436 0.627111 0.349698
O O1 0.486608 0.908059 0.387172
O O2 0.393121 0.752423 0.446858
O O3 0.269328 0.913811 0.507194
O O4 0.987799 0.863528 0.407246
O O5 0.705359 0.743902 0.336231
O O6 0.836928 0.923184 0.296297
O O7 0.210083 0.061120 0.290463
O O8 0.613553 0.408636 0.905615
O O9 0.108151 0.370434 0.874790
#
# Coordination Sequence:
#
# PCOD9294747 Si02
#       5
#     8   8   4   8   8
#     4   9  18  38  67  96 127 165 213 274 341 396
#     4  10  23  41  65  95 130 174 219 271 330 391
#     4  12  28  46  66  96 140 186 232 272 320 396
#     4   9  18  38  67  96 127 165 213 274 341 396
#     4  10  23  41  65  95 130 174 219 271 330 391
#
# _framework density 25.693314999999998
#
# number of rings (size 3 to 8) (size 9 to 14) (size 15 to 20)
#    0.000    2.222    0.000    1.333    0.000   16.000 
#    0.000    6.667    0.000    0.000    0.000    0.000 
#    0.000    0.000    0.000    0.000    0.000    0.000 
#
# Total GULP energy -100953.419024 kJ/mol
# GULP energy per Si atom -5608.523279 kJ/mol
# Density = 2.563484 g / cm^3
# Si number density = 25.693315 Si / 1000 Ang^3
#
#
#
# Elastic Constant Matrix: (Units=GPa)
#
#
# Indices 1 2 3 4 5 6 
#
# 1 138.2687 -1.4745 36.2727 0.0000 -16.0902 0.0000
# 2 -1.4745 104.0864 39.6804 0.0000 -14.7541 0.0000
# 3 36.2727 39.6804 152.1570 0.0000 -11.7041 0.0000
# 4 0.0000 0.0000 0.0000 35.6410 0.0000 -4.2709
# 5 -16.0902 -14.7541 -11.7041 0.0000 31.2460 0.0000
# 6 0.0000 0.0000 0.0000 -4.2709 0.0000 23.1597
#
#
#
# Elastic Compliance Matrix: (Units=1/GPa)
#
#
# Indices 1 2 3 4 5 6 
#
# 1 0.008271 0.001489 -0.002037 0.000000 0.004199 0.000000
# 2 0.001489 0.011476 -0.002957 0.000000 0.005078 0.000000
# 3 -0.002037 -0.002957 0.007868 0.000000 0.000502 0.000000
# 4 0.000000 0.000000 0.000000 0.028692 0.000000 0.005291
# 5 0.004199 0.005078 0.000502 0.000000 0.036752 0.000000
# 6 0.000000 0.000000 0.000000 0.005291 0.000000 0.044154
#
#
# Mechanical properties :
#
#
# Convention : Reuss Voigt Hill
#
# Bulk Modulus (GPa) = 48.53396 60.38546 54.45971
# Shear Modulus (GPa) = 33.09275 39.34492 36.21883
#
# Velocity S-wave (km/s) = 3.59275 3.91747 3.75862
# Velocity P-wave (km/s) = 6.01176 6.63442 6.33075
#
# Compressibility (1/GPa) = 0.02060413
#
# Stress axis : x y z
#
# Youngs Moduli (GPa) = 120.90077 87.14171 127.10480
#
# Poissons Ratio (x) = -0.12975 0.25892
# Poissons Ratio (y) = -0.18002 0.37585
# Poissons Ratio (z) = 0.24628 0.25768
#
# Static dielectric constant tensor:
#      x y z
#    x 1.976580 0.000000 -0.057250 
#    y 0.000000 2.128840 0.000000 
#    z -0.057250 0.000000 1.954620 
# 
# From -- ./inp_files/226545.got.cif
#   From: 2010.05.17/outbox.cif.g08.bks.cpg/sg15_114_cif.got.tgz:226545.got - 2010.06.03 18:47:42.
