data_PCOD9294028
_publ_section_title
;
Structure prediction by ZEFSAII (Michael W. Deem and Ramdas Pophale) SiO2 
 PCOD9294028
Probable space group: C 2/C
;
_chemical_formula_sum "Si O2"
_cell_formula_units_Z 56
_cell_length_a 6.317496
_cell_length_b 21.507814
_cell_length_c 22.765284
_cell_angle_alpha 90.000000
_cell_angle_beta 123.800702
_cell_angle_gamma 90.000000
_cell_volume 2570.417475
_symmetry_space_group_name_H-M "C 2/C"
_symmetry_group_IT_number 15
_symmetry_cell_setting 'monoclinic'
loop_
_space_group_symop_operation_xyz
x,y,z
-x,y,1/2-z
-x,-y,-z
x,-y,1/2+z
1/2+x,1/2+y,z
1/2-x,1/2+y,1/2-z
1/2-x,1/2-y,-z
1/2+x,1/2-y,1/2+z
loop_
_atom_site_type_symbol
_atom_site_label
_atom_site_fract_x
_atom_site_fract_y
_atom_site_fract_z
Si Si1 0.801737 0.962924 0.307164
Si Si2 0.000000 0.140475 0.750000
Si Si3 0.454823 0.335850 0.559373
Si Si4 0.500000 0.559049 0.250000
Si Si5 0.943464 0.124633 0.926707
Si Si6 0.616193 0.790365 0.030566
Si Si7 0.510372 0.209227 0.683674
Si Si8 0.714370 0.658460 0.212637
O O1 0.500000 0.977476 0.250000
O O2 0.878829 0.903400 0.280236
O O3 0.855258 0.939189 0.381665
O O4 0.982141 0.014891 0.304288
O O5 0.233088 0.183126 0.805400
O O6 0.484883 0.373823 0.503189
O O7 0.569041 0.265621 0.569351
O O8 0.605747 0.369196 0.635058
O O9 0.157123 0.321428 0.524940
O O10 0.716614 0.609196 0.266196
O O11 0.725531 0.176890 0.883727
O O12 0.190268 0.152554 0.932050
O O13 0.750000 0.750000 0.000000
O O14 0.500000 0.189072 0.750000
O O15 0.525802 0.283249 0.689999
O O16 0.000000 0.681672 0.250000
#
# Coordination Sequence:
#
# PCOD9294028 Si02
#       8
#     8   4   8   4   8   8   8   8
#     4  11  23  43  68  95 126 168 220 276 326 377
#     4  11  20  36  62 102 138 155 204 264 328 389
#     4  10  23  38  60  94 133 176 206 254 333 390
#     4  11  28  46  64  88 124 179 228 276 318 367
#     4  11  22  37  66 101 136 162 208 267 332 394
#     4   9  19  36  57  95 141 170 198 244 318 404
#     4  12  22  35  63 108 134 165 209 256 333 392
#     4  12  26  43  66  89 131 175 218 268 313 397
#
# _framework density 21.786342999999999
#
# number of rings (size 3 to 8) (size 9 to 14) (size 15 to 20)
#    0.000    1.143    4.286    3.000    6.000    2.286 
#    0.000    0.714    0.000    2.571    0.000    0.000 
#    0.000    0.000    0.000    0.000    0.000    0.000 
#
# Total GULP energy -156025.558660 kJ/mol
# GULP energy per Si atom -5572.341381 kJ/mol
# Density = 2.173676 g / cm^3
# Si number density = 21.786343 Si / 1000 Ang^3
#
#
#
# Elastic Constant Matrix: (Units=GPa)
#
#
# Indices 1 2 3 4 5 6 
#
# 1 101.6243 22.3460 44.6468 0.0000 5.0433 0.0000
# 2 22.3460 76.4832 17.1940 0.0000 -4.6697 0.0000
# 3 44.6468 17.1940 88.3402 0.0000 -6.8119 0.0000
# 4 0.0000 0.0000 0.0000 16.9427 0.0000 -21.4612
# 5 5.0433 -4.6697 -6.8119 0.0000 33.2204 0.0000
# 6 0.0000 0.0000 0.0000 -21.4612 0.0000 13.1783
#
#
#
# Elastic Compliance Matrix: (Units=1/GPa)
#
#
# Indices 1 2 3 4 5 6 
#
# 1 0.013521 -0.002698 -0.006600 0.000000 -0.003785 0.000000
# 2 -0.002698 0.014276 -0.001249 0.000000 0.002160 0.000000
# 3 -0.006600 -0.001249 0.015203 0.000000 0.003944 0.000000
# 4 0.000000 0.000000 0.000000 -0.055532 0.000000 -0.090436
# 5 -0.003785 0.002160 0.003944 0.000000 0.031789 0.000000
# 6 0.000000 0.000000 0.000000 -0.090436 0.000000 -0.071395
#
#
# Mechanical properties :
#
#
# Convention : Reuss Voigt Hill
#
# Bulk Modulus (GPa) = 45.64910 48.31348 46.98129
# Shear Modulus (GPa) = -210.57324 24.81900 -92.87712
#
# Velocity S-wave (km/s) = -9.84193 3.37887 -6.53632
# Velocity P-wave (km/s) = 10.39966 6.11935 5.94586
#
# Compressibility (1/GPa) = 0.02190624
#
# Stress axis : x y z
#
# Youngs Moduli (GPa) = 73.95956 70.04994 65.77776
#
# Poissons Ratio (x) = 0.18898 0.43415
# Poissons Ratio (y) = 0.19952 0.08212
# Poissons Ratio (z) = 0.48815 0.08746
#
# Static dielectric constant tensor:
#      x y z
#    x 1.847590 0.000000 -0.076860 
#    y 0.000000 1.807510 0.000000 
#    z -0.076860 0.000000 1.865300 
# 
# From -- ./inp_files/261764.got.cif
#   From: 2010.05.17/outbox.cif.g08.bks.cpg/sg15_131_cif.got.tgz:261764.got - 2010.06.03 18:47:42.
