data_PCOD9294504
_publ_section_title
;
Structure prediction by ZEFSAII (Michael W. Deem and Ramdas Pophale) SiO2 
 PCOD9294504
Probable space group: C 2/C
;
_chemical_formula_sum "Si O2"
_cell_formula_units_Z 24
_cell_length_a 10.220109
_cell_length_b 16.356290
_cell_length_c 5.877795
_cell_angle_alpha 90.000000
_cell_angle_beta 61.787574
_cell_angle_gamma 90.000000
_cell_volume 865.824200
_symmetry_space_group_name_H-M "C 2/C"
_symmetry_group_IT_number 15
_symmetry_cell_setting 'monoclinic'
loop_
_space_group_symop_operation_xyz
x,y,z
-x,y,1/2-z
-x,-y,-z
x,-y,1/2+z
1/2+x,1/2+y,z
1/2-x,1/2+y,1/2-z
1/2-x,1/2-y,-z
1/2+x,1/2-y,1/2+z
loop_
_atom_site_type_symbol
_atom_site_label
_atom_site_fract_x
_atom_site_fract_y
_atom_site_fract_z
Si Si1 0.000000 0.753303 0.250000
Si Si2 0.807043 0.995555 0.023619
Si Si3 0.500000 0.958910 0.750000
Si Si4 0.777625 0.682440 0.781668
O O1 0.928699 0.701300 0.516318
O O2 0.865527 0.806067 0.263546
O O3 0.730345 0.905911 0.098420
O O4 0.877482 0.004754 0.215414
O O5 0.676108 0.064434 0.116007
O O6 0.500000 0.000000 0.500000
O O7 0.750000 0.750000 0.000000
#
# Coordination Sequence:
#
# PCOD9294504 Si02
#       4
#     4   8   4   8
#     4  10  26  45  72 104 139 192 250 290 360 437
#     4  10  23  40  67 104 141 184 237 301 365 426
#     4   8  16  31  52  88 127 162 210 272 342 401
#     4  11  25  46  74 102 146 190 244 297 362 436
#
# _framework density 27.719256000000001
#
# number of rings (size 3 to 8) (size 9 to 14) (size 15 to 20)
#    0.000    2.000    0.000    1.000   14.000    5.333 
#    0.000    1.667    0.000    0.000    0.000    0.000 
#    0.000    0.000    0.000    0.000    0.000    0.000 
#
# Total GULP energy -66945.316862 kJ/mol
# GULP energy per Si atom -5578.776405 kJ/mol
# Density = 2.765617 g / cm^3
# Si number density = 27.719256 Si / 1000 Ang^3
#
#
#
# Elastic Constant Matrix: (Units=GPa)
#
#
# Indices 1 2 3 4 5 6 
#
# 1 160.0478 19.0169 83.2666 0.0000 27.3106 0.0000
# 2 19.0169 145.0928 57.5258 0.0000 -19.3917 0.0000
# 3 83.2666 57.5258 327.3457 0.0000 -16.7670 0.0000
# 4 0.0000 0.0000 0.0000 31.0783 0.0000 22.1201
# 5 27.3106 -19.3917 -16.7670 0.0000 84.0728 0.0000
# 6 0.0000 0.0000 0.0000 22.1201 0.0000 4.4787
#
#
#
# Elastic Compliance Matrix: (Units=1/GPa)
#
#
# Indices 1 2 3 4 5 6 
#
# 1 0.007935 -0.000640 -0.002067 0.000000 -0.003137 0.000000
# 2 -0.000640 0.007643 -0.001091 0.000000 0.001753 0.000000
# 3 -0.002067 -0.001091 0.003833 0.000000 0.001184 0.000000
# 4 0.000000 0.000000 0.000000 -0.012792 0.000000 0.063181
# 5 -0.003137 0.001753 0.001184 0.000000 0.013554 0.000000
# 6 0.000000 0.000000 0.000000 0.063181 0.000000 -0.088767
#
#
# Mechanical properties :
#
#
# Convention : Reuss Voigt Hill
#
# Bulk Modulus (GPa) = 84.62957 105.78942 95.20950
# Shear Modulus (GPa) = -87.62352 55.43775 -16.09289
#
# Velocity S-wave (km/s) = -5.62847 4.47696 -2.41211
# Velocity P-wave (km/s) = 3.41209 8.06050 5.16378
#
# Compressibility (1/GPa) = 0.01181620
#
# Stress axis : x y z
#
# Youngs Moduli (GPa) = 126.02912 130.84395 260.90314
#
# Poissons Ratio (x) = 0.08373 0.53918
# Poissons Ratio (y) = 0.08065 0.28452
# Poissons Ratio (z) = 0.26045 0.14269
#
# Static dielectric constant tensor:
#      x y z
#    x 2.148810 0.000000 -0.052830 
#    y 0.000000 2.529010 0.000000 
#    z -0.052830 0.000000 2.195670 
# 
# From -- ./inp_files/3238.got.cif
#   From: 2010.05.17/outbox.cif.g08.bks.cpg/sg15_2_cif.got.tgz:3238.got - 2010.06.03 18:47:42.
