data_PCOD9294956
_publ_section_title
;
Structure prediction by ZEFSAII (Michael W. Deem and Ramdas Pophale) SiO2 
 PCOD9294956
Probable space group: C 2/C
;
_chemical_formula_sum "Si O2"
_cell_formula_units_Z 48
_cell_length_a 28.804271
_cell_length_b 14.482034
_cell_length_c 9.090787
_cell_angle_alpha 90.000000
_cell_angle_beta 144.218075
_cell_angle_gamma 90.000000
_cell_volume 2217.289242
_symmetry_space_group_name_H-M "C 2/C"
_symmetry_group_IT_number 15
_symmetry_cell_setting 'monoclinic'
loop_
_space_group_symop_operation_xyz
x,y,z
-x,y,1/2-z
-x,-y,-z
x,-y,1/2+z
1/2+x,1/2+y,z
1/2-x,1/2+y,1/2-z
1/2-x,1/2-y,-z
1/2+x,1/2-y,1/2+z
loop_
_atom_site_type_symbol
_atom_site_label
_atom_site_fract_x
_atom_site_fract_y
_atom_site_fract_z
Si Si1 0.808998 0.144593 0.815031
Si Si2 0.604231 0.723154 0.741312
Si Si3 0.971667 0.090058 0.344640
Si Si4 0.415032 0.074091 0.451514
Si Si5 0.266470 0.297642 0.697083
Si Si6 0.817076 0.516129 0.476817
O O1 0.842777 0.161279 0.737306
O O2 0.787982 0.244683 0.824077
O O3 0.733752 0.077856 0.639902
O O4 0.878104 0.102986 0.094529
O O5 0.517532 0.678052 0.526558
O O6 0.595843 0.824076 0.647288
O O7 0.646988 0.717165 0.008820
O O8 0.000000 0.082602 0.250000
O O9 0.000000 0.000000 0.500000
O O10 0.347057 0.047430 0.394644
O O11 0.396615 0.000331 0.276256
O O12 0.500000 0.069060 0.750000
O O13 0.250000 0.250000 0.500000
O O14 0.240541 0.403102 0.616081
#
# Coordination Sequence:
#
# PCOD9294956 Si02
#       6
#     8   8   8   8   8   8
#     4  11  22  45  69 101 136 176 233 276 348 413
#     4  11  23  46  72  95 138 189 223 280 352 416
#     4  10  23  41  71 102 134 179 222 278 345 406
#     4  12  25  46  70 100 140 185 233 277 348 422
#     4  12  25  42  64 102 137 175 235 291 344 400
#     4  12  25  41  71 101 138 182 231 292 336 417
#
# _framework density 21.648053999999998
#
# number of rings (size 3 to 8) (size 9 to 14) (size 15 to 20)
#    0.000    0.667    3.333    5.500    0.000    5.333 
#    0.000    0.000    0.000    0.000    0.000    0.000 
#    0.000    0.000    0.000    0.000    0.000    0.000 
#
# Total GULP energy -134154.480034 kJ/mol
# GULP energy per Si atom -5589.770001 kJ/mol
# Density = 2.159878 g / cm^3
# Si number density = 21.648054 Si / 1000 Ang^3
#
#
#
# Elastic Constant Matrix: (Units=GPa)
#
#
# Indices 1 2 3 4 5 6 
#
# 1 24.1105 -2.0973 17.6174 0.0000 -5.3239 0.0000
# 2 -2.0973 68.6803 33.5818 0.0000 -13.8536 0.0000
# 3 17.6174 33.5818 179.1331 0.0000 -9.3542 0.0000
# 4 0.0000 0.0000 0.0000 39.5302 0.0000 2.7862
# 5 -5.3239 -13.8536 -9.3542 0.0000 32.5166 0.0000
# 6 0.0000 0.0000 0.0000 2.7862 0.0000 18.6773
#
#
#
# Elastic Compliance Matrix: (Units=1/GPa)
#
#
# Indices 1 2 3 4 5 6 
#
# 1 0.047826 0.005844 -0.005340 0.000000 0.008784 0.000000
# 2 0.005844 0.018011 -0.003554 0.000000 0.007608 0.000000
# 3 -0.005340 -0.003554 0.006751 0.000000 -0.000447 0.000000
# 4 0.000000 0.000000 0.000000 0.025566 0.000000 -0.003814
# 5 0.008784 0.007608 -0.000447 0.000000 0.035305 0.000000
# 6 0.000000 0.000000 0.000000 -0.003814 0.000000 0.054110
#
#
# Mechanical properties :
#
#
# Convention : Reuss Voigt Hill
#
# Bulk Modulus (GPa) = 15.04079 41.12528 28.08303
# Shear Modulus (GPa) = 23.16624 32.99961 28.08293
#
# Velocity S-wave (km/s) = 3.27483 3.90855 3.60564
# Velocity P-wave (km/s) = 4.61111 6.27754 5.50771
#
# Compressibility (1/GPa) = 0.06648586
#
# Stress axis : x y z
#
# Youngs Moduli (GPa) = 20.90921 55.52168 148.13533
#
# Poissons Ratio (x) = -0.32444 0.79110
# Poissons Ratio (y) = -0.12218 0.52646
# Poissons Ratio (z) = 0.11166 0.19732
#
# Static dielectric constant tensor:
#      x y z
#    x 1.811970 0.000000 0.019380 
#    y 0.000000 1.752490 0.000000 
#    z 0.019380 0.000000 1.853140 
# 
# From -- ./inp_files/66487.got.cif
#   From: 2010.05.17/outbox.cif.g08.bks.cpg/sg15_34_cif.got.tgz:66487.got - 2010.06.03 18:47:42.
