data_PCOD9294867
_publ_section_title
;
Structure prediction by ZEFSAII (Michael W. Deem and Ramdas Pophale) SiO2 
 PCOD9294867
Probable space group: C 2/C
;
_chemical_formula_sum "Si O2"
_cell_formula_units_Z 56
_cell_length_a 23.162484
_cell_length_b 10.346695
_cell_length_c 28.079882
_cell_angle_alpha 90.000000
_cell_angle_beta 160.108857
_cell_angle_gamma 90.000000
_cell_volume 2289.602102
_symmetry_space_group_name_H-M "C 2/C"
_symmetry_group_IT_number 15
_symmetry_cell_setting 'monoclinic'
loop_
_space_group_symop_operation_xyz
x,y,z
-x,y,1/2-z
-x,-y,-z
x,-y,1/2+z
1/2+x,1/2+y,z
1/2-x,1/2+y,1/2-z
1/2-x,1/2-y,-z
1/2+x,1/2-y,1/2+z
loop_
_atom_site_type_symbol
_atom_site_label
_atom_site_fract_x
_atom_site_fract_y
_atom_site_fract_z
Si Si1 0.079287 0.449520 0.167372
Si Si2 0.113562 0.320686 0.105098
Si Si3 0.808698 0.208014 0.597297
Si Si4 0.307055 0.878903 0.108073
Si Si5 0.091996 0.907075 0.033136
Si Si6 0.475006 0.234224 0.393015
Si Si7 0.234854 0.906261 0.945091
O O1 0.040946 0.433116 0.081845
O O2 0.244620 0.369567 0.308811
O O3 0.093939 0.602989 0.185524
O O4 0.933846 0.401318 0.088667
O O5 0.318140 0.330453 0.261756
O O6 0.052263 0.197118 0.088696
O O7 0.023322 0.293751 0.985182
O O8 0.750000 0.250000 0.500000
O O9 0.659360 0.263442 0.514333
O O10 0.000000 0.256148 0.750000
O O11 0.813533 0.051394 0.608610
O O12 0.500000 0.930261 0.250000
O O13 0.190826 0.937154 0.060222
O O14 0.210350 0.895874 0.982659
O O15 0.327535 0.722411 0.130430
O O16 0.000000 0.000000 0.000000
#
# Coordination Sequence:
#
# PCOD9294867 Si02
#       7
#     8   8   8   8   8   8   8
#     4  11  22  43  64  98 136 176 231 287 352 425
#     4  12  23  42  65  97 136 180 228 287 355 423
#     4  11  25  48  69  98 138 185 242 300 353 429
#     4  11  22  40  68 102 141 186 233 295 361 430
#     4  12  24  40  66 102 144 184 233 292 353 430
#     4  11  25  42  69  96 133 183 230 291 355 428
#     4  10  23  41  68 103 137 182 238 295 358 428
#
# _framework density 24.458397999999999
#
# number of rings (size 3 to 8) (size 9 to 14) (size 15 to 20)
#    0.000    0.857    5.714    1.714    0.000    1.714 
#    2.571    0.000    0.000    0.000    0.000    0.000 
#    0.000    0.000    0.000    0.000    0.000    0.000 
#
# Total GULP energy -156154.821368 kJ/mol
# GULP energy per Si atom -5576.957906 kJ/mol
# Density = 2.440273 g / cm^3
# Si number density = 24.458398 Si / 1000 Ang^3
#
#
#
# Elastic Constant Matrix: (Units=GPa)
#
#
# Indices 1 2 3 4 5 6 
#
# 1 161.4210 14.8085 40.9997 0.0064 21.2657 0.0017
# 2 14.8085 81.5130 2.6268 -0.0039 16.3716 0.0007
# 3 40.9997 2.6268 133.1790 -0.0143 26.4354 0.0002
# 4 0.0064 -0.0039 -0.0143 12.6349 0.0017 -3.9403
# 5 21.2657 16.3716 26.4354 0.0017 50.8223 0.0008
# 6 0.0017 0.0007 0.0002 -3.9403 0.0008 18.4747
#
#
#
# Elastic Compliance Matrix: (Units=1/GPa)
#
#
# Indices 1 2 3 4 5 6 
#
# 1 0.006952 -0.000864 -0.001785 -0.000006 -0.001702 -0.000002
# 2 -0.000864 0.013274 0.000871 0.000006 -0.004368 0.000001
# 3 -0.001785 0.000871 0.008864 0.000013 -0.004144 0.000003
# 4 -0.000006 0.000006 0.000013 0.084786 -0.000009 0.018083
# 5 -0.001702 -0.004368 -0.004144 -0.000009 0.023951 -0.000003
# 6 -0.000002 0.000001 0.000003 0.018083 -0.000003 0.057985
#
#
# Mechanical properties :
#
#
# Convention : Reuss Voigt Hill
#
# Bulk Modulus (GPa) = 39.16354 54.77589 46.96971
# Shear Modulus (GPa) = 24.05253 37.56490 30.80872
#
# Velocity S-wave (km/s) = 3.13933 3.92327 3.55299
# Velocity P-wave (km/s) = 5.40256 6.55491 6.00643
#
# Compressibility (1/GPa) = 0.02553396
#
# Stress axis : x y z
#
# Youngs Moduli (GPa) = 143.84592 75.33500 112.81985
#
# Poissons Ratio (x) = 0.06506 0.20141
# Poissons Ratio (y) = 0.12422 -0.09827
# Poissons Ratio (z) = 0.25680 -0.06562
#
# Static dielectric constant tensor:
#      x y z
#    x 2.090340 -0.000010 -0.147400 
#    y -0.000010 2.083290 0.000000 
#    z -0.147400 0.000000 2.107740 
# 
# From -- ./inp_files/318800.got.cif
#   From: 2010.05.17/outbox.cif.g08.bks.cpg/sg15_160_cif.got.tgz:318800.got - 2010.06.03 18:47:42.
