data_PCOD9294786
_publ_section_title
;
Structure prediction by ZEFSAII (Michael W. Deem and Ramdas Pophale) SiO2 
 PCOD9294786
Probable space group: C 2/C
;
_chemical_formula_sum "Si O2"
_cell_formula_units_Z 36
_cell_length_a 8.967817
_cell_length_b 12.678798
_cell_length_c 28.712566
_cell_angle_alpha 90.000000
_cell_angle_beta 145.043107
_cell_angle_gamma 90.000000
_cell_volume 1870.514647
_symmetry_space_group_name_H-M "C 2/C"
_symmetry_group_IT_number 15
_symmetry_cell_setting 'monoclinic'
loop_
_space_group_symop_operation_xyz
x,y,z
-x,y,1/2-z
-x,-y,-z
x,-y,1/2+z
1/2+x,1/2+y,z
1/2-x,1/2+y,1/2-z
1/2-x,1/2-y,-z
1/2+x,1/2-y,1/2+z
loop_
_atom_site_type_symbol
_atom_site_label
_atom_site_fract_x
_atom_site_fract_y
_atom_site_fract_z
Si Si1 0.235366 0.437819 0.536397
Si Si2 0.000000 0.906209 0.750000
Si Si3 0.411335 0.744328 0.146182
Si Si4 0.255694 0.942299 0.152468
Si Si5 0.490122 0.052593 0.874149
O O1 0.275169 0.327295 0.572780
O O2 0.502506 0.503944 0.608379
O O3 0.000000 0.500000 0.500000
O O4 0.162514 0.428255 0.463596
O O5 0.952049 0.832618 0.782391
O O6 0.247761 0.979206 0.823084
O O7 0.219474 0.820020 0.127372
O O8 0.589286 0.832897 0.167084
O O9 0.500000 0.946261 0.250000
O O10 0.342623 0.995400 0.125811
#
# Coordination Sequence:
#
# PCOD9294786 Si02
#       5
#     8   4   8   8   8
#     4  12  23  42  69  96 132 172 215 267 319 386
#     4  12  20  46  64  98 128 174 210 274 318 382
#     4  10  23  41  66  92 133 167 220 259 324 388
#     4  10  23  44  64  95 130 170 215 267 324 380
#     4  10  24  43  66  95 135 164 220 265 319 388
#
# _framework density 19.246039
#
# number of rings (size 3 to 8) (size 9 to 14) (size 15 to 20)
#    1.333    0.000    3.333    2.667    0.000    0.889 
#    6.000    0.000    0.000    0.000    0.000    0.000 
#    0.000    0.000    0.000    0.000    0.000    0.000 
#
# Total GULP energy -100286.041561 kJ/mol
# GULP energy per Si atom -5571.446753 kJ/mol
# Density = 1.920223 g / cm^3
# Si number density = 19.246039 Si / 1000 Ang^3
#
#
#
# Elastic Constant Matrix: (Units=GPa)
#
#
# Indices 1 2 3 4 5 6 
#
# 1 83.0109 31.8803 51.9628 0.0000 -6.2475 0.0000
# 2 31.8803 105.1758 45.6904 0.0000 6.8894 0.0000
# 3 51.9628 45.6904 106.1565 0.0001 -8.3572 0.0000
# 4 0.0000 0.0000 0.0001 24.9029 0.0000 -14.0375
# 5 -6.2475 6.8894 -8.3572 0.0000 36.5469 0.0000
# 6 0.0000 0.0000 0.0000 -14.0375 0.0000 17.1122
#
#
#
# Elastic Compliance Matrix: (Units=1/GPa)
#
#
# Indices 1 2 3 4 5 6 
#
# 1 0.017794 -0.002190 -0.007633 0.000000 0.001709 0.000000
# 2 -0.002190 0.012399 -0.004560 0.000000 -0.003754 0.000000
# 3 -0.007633 -0.004560 0.015361 0.000000 0.003067 0.000000
# 4 0.000000 0.000000 0.000000 0.074696 0.000000 0.061274
# 5 0.001709 -0.003754 0.003067 0.000000 0.029063 0.000000
# 6 0.000000 0.000000 0.000000 0.061274 0.000000 0.108703
#
#
# Mechanical properties :
#
#
# Convention : Reuss Voigt Hill
#
# Bulk Modulus (GPa) = 59.56809 61.49004 60.52907
# Shear Modulus (GPa) = 17.10119 26.69970 21.90045
#
# Velocity S-wave (km/s) = 2.98410 3.72867 3.37697
# Velocity P-wave (km/s) = 6.54913 7.11028 6.83547
#
# Compressibility (1/GPa) = 0.01678751
#
# Stress axis : x y z
#
# Youngs Moduli (GPa) = 56.19752 80.65455 65.10149
#
# Poissons Ratio (x) = 0.17661 0.49693
# Poissons Ratio (y) = 0.12305 0.29687
# Poissons Ratio (z) = 0.42897 0.36780
#
# Static dielectric constant tensor:
#      x y z
#    x 1.692320 0.000000 -0.038860 
#    y 0.000000 1.678040 0.000000 
#    z -0.038860 0.000000 1.653200 
# 
# From -- ./inp_files/306971.got.cif
#   From: 2010.05.17/outbox.cif.g08.bks.cpg/sg15_154_cif.got.tgz:306971.got - 2010.06.03 18:47:42.
