data_PCOD9294931
_publ_section_title
;
Structure prediction by ZEFSAII (Michael W. Deem and Ramdas Pophale) SiO2 
 PCOD9294931
Probable space group: C 2/C
;
_chemical_formula_sum "Si O2"
_cell_formula_units_Z 44
_cell_length_a 13.946519
_cell_length_b 21.519536
_cell_length_c 8.770452
_cell_angle_alpha 90.000000
_cell_angle_beta 120.405298
_cell_angle_gamma 90.000000
_cell_volume 2270.194803
_symmetry_space_group_name_H-M "C 2/C"
_symmetry_group_IT_number 15
_symmetry_cell_setting 'monoclinic'
loop_
_space_group_symop_operation_xyz
x,y,z
-x,y,1/2-z
-x,-y,-z
x,-y,1/2+z
1/2+x,1/2+y,z
1/2-x,1/2+y,1/2-z
1/2-x,1/2-y,-z
1/2+x,1/2-y,1/2+z
loop_
_atom_site_type_symbol
_atom_site_label
_atom_site_fract_x
_atom_site_fract_y
_atom_site_fract_z
Si Si1 0.906033 0.123709 0.280849
Si Si2 0.500000 0.259312 0.750000
Si Si3 0.684156 0.064516 0.226571
Si Si4 0.705091 0.931924 0.110460
Si Si5 0.492251 0.860570 0.417626
Si Si6 0.539886 0.563325 0.613205
O O1 0.792492 0.088570 0.220081
O O2 0.000000 0.091231 0.250000
O O3 0.900096 0.192409 0.204991
O O4 0.973766 0.121995 0.492117
O O5 0.486945 0.212301 0.598574
O O6 0.706617 0.064684 0.426747
O O7 0.657763 0.996011 0.142593
O O8 0.583737 0.109325 0.099804
O O9 0.626646 0.876895 0.106869
O O10 0.828406 0.927660 0.279933
O O11 0.500000 0.887678 0.250000
O O12 0.500000 0.556345 0.750000
O O13 0.500000 0.500000 0.500000
#
# Coordination Sequence:
#
# PCOD9294931 Si02
#       6
#     8   4   8   8   8   8
#     4  10  23  41  69  96 129 176 221 273 329 390
#     4   8  24  46  68  90 130 184 234 262 328 386
#     4  12  24  40  67 100 136 172 219 275 340 397
#     4  12  24  40  66 102 138 169 212 279 342 398
#     4  10  24  45  65  91 128 183 229 265 319 394
#     4  12  22  39  63 101 138 168 211 273 339 397
#
# _framework density 19.381595000000001
#
# number of rings (size 3 to 8) (size 9 to 14) (size 15 to 20)
#    1.091    0.000    3.636    2.727    5.091    0.727 
#    3.273    2.727    0.000    0.000    0.000    0.000 
#    0.000    0.000    0.000    0.000    0.000    0.000 
#
# Total GULP energy -122541.407761 kJ/mol
# GULP energy per Si atom -5570.063989 kJ/mol
# Density = 1.933748 g / cm^3
# Si number density = 19.381595 Si / 1000 Ang^3
#
#
#
# Elastic Constant Matrix: (Units=GPa)
#
#
# Indices 1 2 3 4 5 6 
#
# 1 94.9643 19.8952 26.0577 0.0000 0.0090 0.0000
# 2 19.8952 94.3327 17.8792 0.0000 -3.8380 0.0000
# 3 26.0577 17.8792 69.7435 0.0000 5.1777 0.0000
# 4 0.0000 0.0000 0.0000 -17.5368 0.0000 11.8190
# 5 0.0090 -3.8380 5.1777 0.0000 34.9806 0.0000
# 6 0.0000 0.0000 0.0000 11.8190 0.0000 20.5771
#
#
#
# Elastic Compliance Matrix: (Units=1/GPa)
#
#
# Indices 1 2 3 4 5 6 
#
# 1 0.012013 -0.001745 -0.004071 0.000000 0.000408 0.000000
# 2 -0.001745 0.011492 -0.002414 0.000000 0.001619 0.000000
# 3 -0.004071 -0.002414 0.016681 0.000000 -0.002733 0.000000
# 4 0.000000 0.000000 0.000000 -0.041109 0.000000 0.023612
# 5 0.000408 0.001619 -0.002733 0.000000 0.029169 0.000000
# 6 0.000000 0.000000 0.000000 0.023612 0.000000 0.035035
#
#
# Mechanical properties :
#
#
# Convention : Reuss Voigt Hill
#
# Bulk Modulus (GPa) = 42.14970 42.96718 42.55844
# Shear Modulus (GPa) = 57.04417 20.61809 38.83113
#
# Velocity S-wave (km/s) = 5.43102 3.26513 4.48091
# Velocity P-wave (km/s) = 7.81809 6.03589 6.98407
#
# Compressibility (1/GPa) = 0.02372496
#
# Stress axis : x y z
#
# Youngs Moduli (GPa) = 83.24316 87.01469 59.94797
#
# Poissons Ratio (x) = 0.15187 0.24406
# Poissons Ratio (y) = 0.14529 0.14473
# Poissons Ratio (z) = 0.33890 0.21007
#
# Static dielectric constant tensor:
#      x y z
#    x 1.709350 0.000000 -0.009910 
#    y 0.000000 1.693090 0.000000 
#    z -0.009910 0.000000 1.647930 
# 
# From -- ./inp_files/41016.got.cif
#   From: 2010.05.17/outbox.cif.g08.bks.cpg/sg15_21_cif.got.tgz:41016.got - 2010.06.03 18:47:42.
