data_PCOD9294815
_publ_section_title
;
Structure prediction by ZEFSAII (Michael W. Deem and Ramdas Pophale) SiO2 
 PCOD9294815
Probable space group: C 2/C
;
_chemical_formula_sum "Si O2"
_cell_formula_units_Z 36
_cell_length_a 17.294760
_cell_length_b 5.206825
_cell_length_c 18.560488
_cell_angle_alpha 90.000000
_cell_angle_beta 64.626572
_cell_angle_gamma 90.000000
_cell_volume 1510.154810
_symmetry_space_group_name_H-M "C 2/C"
_symmetry_group_IT_number 15
_symmetry_cell_setting 'monoclinic'
loop_
_space_group_symop_operation_xyz
x,y,z
-x,y,1/2-z
-x,-y,-z
x,-y,1/2+z
1/2+x,1/2+y,z
1/2-x,1/2+y,1/2-z
1/2-x,1/2-y,-z
1/2+x,1/2-y,1/2+z
loop_
_atom_site_type_symbol
_atom_site_label
_atom_site_fract_x
_atom_site_fract_y
_atom_site_fract_z
Si Si1 0.135037 0.233116 0.606296
Si Si2 0.000000 0.909476 0.750000
Si Si3 0.668191 0.843246 0.433979
Si Si4 0.830806 0.832987 0.159553
Si Si5 0.636756 0.048518 0.735512
O O1 0.230905 0.130661 0.584937
O O2 0.122860 0.274287 0.526860
O O3 0.135897 0.497481 0.650455
O O4 0.062229 0.069906 0.673726
O O5 0.942370 0.731430 0.721223
O O6 0.654710 0.609380 0.382959
O O7 0.644470 0.112257 0.407549
O O8 0.728330 0.827753 0.215351
O O9 0.869643 0.718721 0.218005
#
# Coordination Sequence:
#
# PCOD9294815 Si02
#       5
#     8   4   8   8   8
#     4  10  23  41  67 100 138 187 230 288 345 421
#     4  12  24  42  68 104 144 184 232 290 356 426
#     4  10  23  42  71 100 137 178 244 283 343 406
#     4  11  23  42  71 102 132 181 237 294 334 412
#     4  11  24  42  71 102 141 181 242 285 350 418
#
# _framework density 23.838616999999999
#
# number of rings (size 3 to 8) (size 9 to 14) (size 15 to 20)
#    0.000    1.333    2.222    3.333    6.222    2.667 
#    0.000    2.222    0.000    0.000    0.000    0.000 
#    0.000    0.000    0.000    0.000    0.000    0.000 
#
# Total GULP energy -100699.683236 kJ/mol
# GULP energy per Si atom -5594.426846 kJ/mol
# Density = 2.378436 g / cm^3
# Si number density = 23.838617 Si / 1000 Ang^3
#
#
#
# Elastic Constant Matrix: (Units=GPa)
#
#
# Indices 1 2 3 4 5 6 
#
# 1 70.2142 42.8893 51.8567 -0.0036 4.4162 -0.0020
# 2 42.8893 108.5214 41.4382 0.0074 10.3212 0.0141
# 3 51.8567 41.4382 152.2625 0.0139 28.7986 0.0034
# 4 -0.0036 0.0074 0.0139 27.3971 -0.0066 1.0577
# 5 4.4162 10.3212 28.7986 -0.0066 34.6164 -0.0016
# 6 -0.0020 0.0141 0.0034 1.0577 -0.0016 49.8452
#
#
#
# Elastic Compliance Matrix: (Units=1/GPa)
#
#
# Indices 1 2 3 4 5 6 
#
# 1 0.023393 -0.007048 -0.006980 0.000010 0.004924 0.000003
# 2 -0.007048 0.012429 -0.000536 -0.000004 -0.002361 -0.000004
# 3 -0.006980 -0.000536 0.010552 -0.000008 -0.007729 -0.000001
# 4 0.000010 -0.000004 -0.000008 0.036530 0.000014 -0.000775
# 5 0.004924 -0.002361 -0.007729 0.000014 0.035394 0.000002
# 6 0.000003 -0.000004 -0.000001 -0.000775 0.000002 0.020079
#
#
# Mechanical properties :
#
#
# Convention : Reuss Voigt Hill
#
# Bulk Modulus (GPa) = 57.98220 67.04071 62.51146
# Shear Modulus (GPa) = 28.85930 35.35933 32.10931
#
# Velocity S-wave (km/s) = 3.48316 3.85551 3.67406
# Velocity P-wave (km/s) = 6.36806 6.92848 6.65417
#
# Compressibility (1/GPa) = 0.01724667
#
# Stress axis : x y z
#
# Youngs Moduli (GPa) = 42.74786 80.45416 94.76457
#
# Poissons Ratio (x) = 0.56706 0.66148
# Poissons Ratio (y) = 0.30130 0.05076
# Poissons Ratio (z) = 0.29839 0.04309
#
# Static dielectric constant tensor:
#      x y z
#    x 1.954770 0.000000 0.012670 
#    y 0.000000 1.938970 0.000000 
#    z 0.012670 0.000000 1.891080 
# 
# From -- ./inp_files/246169.got.cif
#   From: 2010.05.17/outbox.cif.g08.bks.cpg/sg15_124_cif.got.tgz:246169.got - 2010.06.03 18:47:42.
