data_PCOD9294217
_publ_section_title
;
Structure prediction by ZEFSAII (Michael W. Deem and Ramdas Pophale) SiO2 
 PCOD9294217
Probable space group: C 2/C
;
_chemical_formula_sum "Si O2"
_cell_formula_units_Z 56
_cell_length_a 30.555669
_cell_length_b 14.203925
_cell_length_c 11.982293
_cell_angle_alpha 90.000000
_cell_angle_beta 30.404343
_cell_angle_gamma 90.000000
_cell_volume 2631.938291
_symmetry_space_group_name_H-M "C 2/C"
_symmetry_group_IT_number 15
_symmetry_cell_setting 'monoclinic'
loop_
_space_group_symop_operation_xyz
x,y,z
-x,y,1/2-z
-x,-y,-z
x,-y,1/2+z
1/2+x,1/2+y,z
1/2-x,1/2+y,1/2-z
1/2-x,1/2-y,-z
1/2+x,1/2-y,1/2+z
loop_
_atom_site_type_symbol
_atom_site_label
_atom_site_fract_x
_atom_site_fract_y
_atom_site_fract_z
Si Si1 0.122917 0.721636 0.279376
Si Si2 0.728811 0.093405 0.417336
Si Si3 0.359981 0.529882 0.288937
Si Si4 0.591500 0.000747 0.861413
Si Si5 0.988010 0.124355 0.408877
Si Si6 0.754927 0.744860 0.686596
Si Si7 0.793002 0.447460 0.214246
O O1 0.122177 0.608474 0.284268
O O2 0.031775 0.770876 0.504245
O O3 0.182125 0.762456 0.250240
O O4 0.159935 0.753930 0.078093
O O5 0.818243 0.097346 0.287648
O O6 0.648553 0.083161 0.676989
O O7 0.726852 0.169333 0.325608
O O8 0.723369 0.993638 0.368321
O O9 0.427714 0.582436 0.217958
O O10 0.276770 0.505899 0.547829
O O11 0.409103 0.442943 0.123535
O O12 0.612354 0.028099 0.944706
O O13 0.500000 0.000000 0.000000
O O14 0.000000 0.121866 0.250000
O O15 0.770818 0.660346 0.738640
#
# Coordination Sequence:
#
# PCOD9294217 Si02
#       7
#     8   8   8   8   8   8   8
#     4  11  23  42  66  98 132 179 234 274 329 429
#     4  11  22  42  66  94 127 176 219 282 335 395
#     4  10  23  39  64  95 133 165 222 281 336 398
#     4  11  26  43  64  97 140 174 225 281 346 407
#     4  11  23  40  64  98 134 173 217 280 341 400
#     4  11  23  41  71  96 126 181 234 271 338 405
#     4  11  22  44  67  94 129 181 221 282 334 405
#
# _framework density 21.277094999999999
#
# number of rings (size 3 to 8) (size 9 to 14) (size 15 to 20)
#    0.000    1.143    2.857    3.429    4.000    7.429 
#    0.000    1.429    0.000    0.000    0.000    0.000 
#    0.000    0.000    0.000    0.000    0.000    0.000 
#
# Total GULP energy -156174.938007 kJ/mol
# GULP energy per Si atom -5577.676357 kJ/mol
# Density = 2.122867 g / cm^3
# Si number density = 21.277095 Si / 1000 Ang^3
#
#
#
# Elastic Constant Matrix: (Units=GPa)
#
#
# Indices 1 2 3 4 5 6 
#
# 1 111.8104 30.7911 50.5154 0.0000 -9.1166 0.0000
# 2 30.7911 87.9198 27.1723 0.0000 -0.6506 0.0000
# 3 50.5154 27.1723 50.2715 0.0000 -4.4030 0.0000
# 4 0.0000 0.0000 0.0000 25.4243 0.0000 7.8690
# 5 -9.1166 -0.6506 -4.4030 0.0000 34.7971 0.0000
# 6 0.0000 0.0000 0.0000 7.8690 0.0000 32.0348
#
#
#
# Elastic Compliance Matrix: (Units=1/GPa)
#
#
# Indices 1 2 3 4 5 6 
#
# 1 0.016606 -0.000845 -0.016027 0.000000 0.002307 0.000000
# 2 -0.000845 0.013714 -0.006634 0.000000 -0.000804 0.000000
# 3 -0.016027 -0.006634 0.039644 0.000000 0.000693 0.000000
# 4 0.000000 0.000000 0.000000 0.042569 0.000000 -0.010457
# 5 0.002307 -0.000804 0.000693 0.000000 0.029415 0.000000
# 6 0.000000 0.000000 0.000000 -0.010457 0.000000 0.033785
#
#
# Mechanical properties :
#
#
# Convention : Reuss Voigt Hill
#
# Bulk Modulus (GPa) = 43.57188 51.88437 47.72812
# Shear Modulus (GPa) = 21.70186 27.88609 24.79397
#
# Velocity S-wave (km/s) = 3.19715 3.62417 3.41734
# Velocity P-wave (km/s) = 5.84395 6.47695 6.16857
#
# Compressibility (1/GPa) = 0.02295058
#
# Stress axis : x y z
#
# Youngs Moduli (GPa) = 60.22060 72.91659 25.22481
#
# Poissons Ratio (x) = 0.06162 0.40429
# Poissons Ratio (y) = 0.05090 0.16734
# Poissons Ratio (z) = 0.96518 0.48372
#
# Static dielectric constant tensor:
#      x y z
#    x 1.794430 0.000000 0.004310 
#    y 0.000000 1.764400 0.000000 
#    z 0.004310 0.000000 1.834030 
# 
# From -- ./inp_files/97007.got.cif
#   From: 2010.05.17/outbox.cif.g08.bks.cpg/sg15_49_cif.got.tgz:97007.got - 2010.06.03 18:47:42.
