data_PCOD9294182
_publ_section_title
;
Structure prediction by ZEFSAII (Michael W. Deem and Ramdas Pophale) SiO2 
 PCOD9294182
Probable space group: C 2/C
;
_chemical_formula_sum "Si O2"
_cell_formula_units_Z 48
_cell_length_a 15.602086
_cell_length_b 10.302001
_cell_length_c 15.323009
_cell_angle_alpha 90.000000
_cell_angle_beta 88.431992
_cell_angle_gamma 90.000000
_cell_volume 2461.986457
_symmetry_space_group_name_H-M "C 2/C"
_symmetry_group_IT_number 15
_symmetry_cell_setting 'monoclinic'
loop_
_space_group_symop_operation_xyz
x,y,z
-x,y,1/2-z
-x,-y,-z
x,-y,1/2+z
1/2+x,1/2+y,z
1/2-x,1/2+y,1/2-z
1/2-x,1/2-y,-z
1/2+x,1/2-y,1/2+z
loop_
_atom_site_type_symbol
_atom_site_label
_atom_site_fract_x
_atom_site_fract_y
_atom_site_fract_z
Si Si1 0.993335 0.844823 0.494399
Si Si2 0.517946 0.166415 0.653157
Si Si3 0.859968 0.493971 0.132179
Si Si4 0.681695 0.726886 0.923934
Si Si5 0.167651 0.323684 0.540274
Si Si6 0.196386 0.455179 0.173558
O O1 0.987385 0.775920 0.588439
O O2 0.085602 0.802200 0.456500
O O3 0.911815 0.777653 0.448370
O O4 0.000000 0.000000 0.500000
O O5 0.500000 0.215512 0.750000
O O6 0.460565 0.035983 0.645226
O O7 0.616036 0.127948 0.639003
O O8 0.827797 0.639409 0.126962
O O9 0.813427 0.443695 0.221519
O O10 0.847538 0.427529 0.037922
O O11 0.718175 0.610836 0.864347
O O12 0.750000 0.750000 0.000000
O O13 0.250000 0.250000 0.500000
O O14 0.185817 0.403403 0.628804
#
# Coordination Sequence:
#
# PCOD9294182 Si02
#       6
#     8   8   8   8   8   8
#     4  11  23  40  62  92 126 161 205 257 315 373
#     4   9  19  40  63  88 116 160 207 259 303 367
#     4  10  23  39  63  90 121 164 214 252 305 370
#     4  12  22  40  64  91 125 165 204 253 313 368
#     4  11  23  40  63  90 127 164 204 256 313 364
#     4  11  22  39  65  90 122 163 210 254 307 371
#
# _framework density 19.496451
#
# number of rings (size 3 to 8) (size 9 to 14) (size 15 to 20)
#    0.000    1.333    3.333    2.000    2.333    2.667 
#    3.000    1.667    0.000    0.000    0.000    0.000 
#    0.000    0.000    0.000    0.000    0.000    0.000 
#
# Total GULP energy -133776.835235 kJ/mol
# GULP energy per Si atom -5574.034801 kJ/mol
# Density = 1.945208 g / cm^3
# Si number density = 19.496451 Si / 1000 Ang^3
#
#
#
# Elastic Constant Matrix: (Units=GPa)
#
#
# Indices 1 2 3 4 5 6 
#
# 1 102.5826 22.9812 14.1476 0.0000 -19.6035 0.0000
# 2 22.9812 93.7559 12.0073 0.0000 1.7133 0.0000
# 3 14.1476 12.0073 52.2436 0.0000 -8.5226 0.0000
# 4 0.0000 0.0000 0.0000 19.3272 0.0000 -3.4227
# 5 -19.6035 1.7133 -8.5226 0.0000 16.9590 0.0000
# 6 0.0000 0.0000 0.0000 -3.4227 0.0000 32.9747
#
#
#
# Elastic Compliance Matrix: (Units=1/GPa)
#
#
# Indices 1 2 3 4 5 6 
#
# 1 0.013652 -0.003606 -0.000255 0.000000 0.016017 0.000000
# 2 -0.003606 0.012048 -0.002909 0.000000 -0.006848 0.000000
# 3 -0.000255 -0.002909 0.021654 0.000000 0.010881 0.000000
# 4 0.000000 0.000000 0.000000 0.052710 0.000000 0.005471
# 5 0.016017 -0.006848 0.010881 0.000000 0.083640 0.000000
# 6 0.000000 0.000000 0.000000 0.005471 0.000000 0.030894
#
#
# Mechanical properties :
#
#
# Convention : Reuss Voigt Hill
#
# Bulk Modulus (GPa) = 29.57559 38.53936 34.05748
# Shear Modulus (GPa) = 20.88461 27.14859 24.01660
#
# Velocity S-wave (km/s) = 3.27647 3.73565 3.51357
# Velocity P-wave (km/s) = 5.43289 6.19815 5.82810
#
# Compressibility (1/GPa) = 0.03381167
#
# Stress axis : x y z
#
# Youngs Moduli (GPa) = 73.24801 83.00311 46.18102
#
# Poissons Ratio (x) = 0.29934 0.01179
# Poissons Ratio (y) = 0.26416 0.13436
# Poissons Ratio (z) = 0.01870 0.24150
#
# Static dielectric constant tensor:
#      x y z
#    x 1.733440 0.000000 -0.003880 
#    y 0.000000 1.668920 0.000000 
#    z -0.003880 0.000000 1.724330 
# 
# From -- ./inp_files/202994.got.cif
#   From: 2010.05.17/outbox.cif.g08.bks.cpg/sg15_102_cif.got.tgz:202994.got - 2010.06.03 18:47:42.
