data_PCOD9294344
_publ_section_title
;
Structure prediction by ZEFSAII (Michael W. Deem and Ramdas Pophale) SiO2 
 PCOD9294344
Probable space group: C 2/C
;
_chemical_formula_sum "Si O2"
_cell_formula_units_Z 40
_cell_length_a 5.054874
_cell_length_b 27.899883
_cell_length_c 12.562872
_cell_angle_alpha 90.000000
_cell_angle_beta 107.599809
_cell_angle_gamma 90.000000
_cell_volume 1688.814280
_symmetry_space_group_name_H-M "C 2/C"
_symmetry_group_IT_number 15
_symmetry_cell_setting 'monoclinic'
loop_
_space_group_symop_operation_xyz
x,y,z
-x,y,1/2-z
-x,-y,-z
x,-y,1/2+z
1/2+x,1/2+y,z
1/2-x,1/2+y,1/2-z
1/2-x,1/2-y,-z
1/2+x,1/2-y,1/2+z
loop_
_atom_site_type_symbol
_atom_site_label
_atom_site_fract_x
_atom_site_fract_y
_atom_site_fract_z
Si Si1 0.741449 0.271409 0.845889
Si Si2 0.962201 0.632441 0.357541
Si Si3 0.503634 0.055781 0.525244
Si Si4 0.028785 0.189729 0.970987
Si Si5 0.597087 0.407780 0.139794
O O1 0.500000 0.245442 0.750000
O O2 0.787805 0.322115 0.795468
O O3 0.008288 0.236789 0.892775
O O4 0.634207 0.290766 0.946534
O O5 0.848660 0.592879 0.425987
O O6 0.197395 0.662686 0.452522
O O7 0.000000 0.605291 0.250000
O O8 0.364183 0.066077 0.622795
O O9 0.824261 0.070540 0.550479
O O10 0.500000 0.000000 0.500000
O O11 0.872062 0.147808 0.888381
O O12 0.500000 0.411465 0.250000
#
# Coordination Sequence:
#
# PCOD9294344 Si02
#       5
#     8   8   8   8   8
#     4  11  21  39  65  95 137 177 234 276 346 409
#     4  11  22  40  66  95 137 181 228 284 350 413
#     4  11  25  46  70 103 137 176 230 296 349 418
#     4  10  23  40  61  97 136 181 222 288 333 416
#     4  11  24  45  71  98 138 181 228 281 351 416
#
# _framework density 23.685257
#
# number of rings (size 3 to 8) (size 9 to 14) (size 15 to 20)
#    0.000    1.200    4.000    1.800    0.000    4.000 
#    3.600    1.000    0.000    0.000    0.000    0.000 
#    0.000    0.000    0.000    0.000    0.000    0.000 
#
# Total GULP energy -111365.491808 kJ/mol
# GULP energy per Si atom -5568.274590 kJ/mol
# Density = 2.363135 g / cm^3
# Si number density = 23.685257 Si / 1000 Ang^3
#
#
#
# Elastic Constant Matrix: (Units=GPa)
#
#
# Indices 1 2 3 4 5 6 
#
# 1 90.2963 33.4715 21.9516 0.0000 -9.4605 0.0000
# 2 33.4715 177.0209 46.3127 0.0000 -5.3627 0.0000
# 3 21.9516 46.3127 93.5665 0.0000 -23.1820 0.0000
# 4 0.0000 0.0000 0.0000 0.0390 0.0000 6.9013
# 5 -9.4605 -5.3627 -23.1820 0.0000 42.0674 0.0000
# 6 0.0000 0.0000 0.0000 6.9013 0.0000 -46.6984
#
#
#
# Elastic Compliance Matrix: (Units=1/GPa)
#
#
# Indices 1 2 3 4 5 6 
#
# 1 0.012321 -0.001874 -0.001547 0.000000 0.001680 0.000000
# 2 -0.001874 0.006818 -0.003271 0.000000 -0.001355 0.000000
# 3 -0.001547 -0.003271 0.014453 0.000000 0.007200 0.000000
# 4 0.000000 0.000000 0.000000 0.944349 0.000000 0.139560
# 5 0.001680 -0.001355 0.007200 0.000000 0.027944 0.000000
# 6 0.000000 0.000000 0.000000 0.139560 0.000000 -0.000789
#
#
# Mechanical properties :
#
#
# Convention : Reuss Voigt Hill
#
# Bulk Modulus (GPa) = 49.48254 62.70615 56.09435
# Shear Modulus (GPa) = 4.87702 16.35813 10.61758
#
# Velocity S-wave (km/s) = 1.43651 2.63087 2.11955
# Velocity P-wave (km/s) = 4.86708 5.98004 5.45203
#
# Compressibility (1/GPa) = 0.02020915
#
# Stress axis : x y z
#
# Youngs Moduli (GPa) = 81.15949 146.66913 69.18864
#
# Poissons Ratio (x) = 0.27488 0.10703
# Poissons Ratio (y) = 0.15211 0.22629
# Poissons Ratio (z) = 0.12555 0.47971
#
# Static dielectric constant tensor:
#      x y z
#    x 2.111440 0.000000 0.015330 
#    y 0.000000 1.876710 0.000000 
#    z 0.015330 0.000000 2.280970 
# 
# From -- ./inp_files/73324.got.cif
#   From: 2010.05.17/outbox.cif.g08.bks.cpg/sg15_37_cif.got.tgz:73324.got - 2010.06.03 18:47:42.
