data_PCOD9294688
_publ_section_title
;
Structure prediction by ZEFSAII (Michael W. Deem and Ramdas Pophale) SiO2 
 PCOD9294688
Probable space group: C 2/C
;
_chemical_formula_sum "Si O2"
_cell_formula_units_Z 48
_cell_length_a 11.252902
_cell_length_b 25.135456
_cell_length_c 14.350077
_cell_angle_alpha 90.000000
_cell_angle_beta 29.360980
_cell_angle_gamma 90.000000
_cell_volume 1990.107655
_symmetry_space_group_name_H-M "C 2/C"
_symmetry_group_IT_number 15
_symmetry_cell_setting 'monoclinic'
loop_
_space_group_symop_operation_xyz
x,y,z
-x,y,1/2-z
-x,-y,-z
x,-y,1/2+z
1/2+x,1/2+y,z
1/2-x,1/2+y,1/2-z
1/2-x,1/2-y,-z
1/2+x,1/2-y,1/2+z
loop_
_atom_site_type_symbol
_atom_site_label
_atom_site_fract_x
_atom_site_fract_y
_atom_site_fract_z
Si Si1 0.354492 0.242307 0.632891
Si Si2 0.604649 0.534677 0.546608
Si Si3 0.069066 0.311711 0.595541
Si Si4 0.640709 0.922167 0.458106
Si Si5 0.106847 0.921329 0.852901
Si Si6 0.757419 0.178451 0.622304
O O1 0.190653 0.293690 0.767945
O O2 0.296179 0.232716 0.562099
O O3 0.283585 0.189674 0.738510
O O4 0.613403 0.264777 0.487410
O O5 0.782603 0.537311 0.512422
O O6 0.547649 0.473407 0.565726
O O7 0.704468 0.566643 0.390318
O O8 0.344173 0.563313 0.743891
O O9 0.000000 0.319955 0.750000
O O10 0.179754 0.365494 0.480912
O O11 0.358033 0.921070 0.622436
O O12 0.930824 0.870562 0.977344
O O13 0.500000 0.172400 0.750000
#
# Coordination Sequence:
#
# PCOD9294688 Si02
#       6
#     8   8   8   8   8   8
#     4  10  23  41  64 100 140 179 227 282 340 410
#     4  10  24  40  66  95 133 170 220 285 344 410
#     4  11  21  39  66  99 138 177 220 275 343 420
#     4  11  22  42  66  96 132 174 220 276 352 411
#     4  11  22  42  67  94 130 174 225 281 340 409
#     4  11  23  42  68  97 137 186 235 285 346 406
#
# _framework density 24.119298000000001
#
# number of rings (size 3 to 8) (size 9 to 14) (size 15 to 20)
#    0.000    1.333    1.667    4.000    0.000    2.667 
#    6.000    3.333    3.667    0.000    0.000    0.000 
#    0.000    0.000    0.000    0.000    0.000    0.000 
#
# Total GULP energy -133607.302610 kJ/mol
# GULP energy per Si atom -5566.970942 kJ/mol
# Density = 2.406440 g / cm^3
# Si number density = 24.119298 Si / 1000 Ang^3
#
#
#
# Elastic Constant Matrix: (Units=GPa)
#
#
# Indices 1 2 3 4 5 6 
#
# 1 50.8956 23.2590 29.1332 -0.0016 -5.9507 -0.0009
# 2 23.2590 136.3900 49.7929 -0.0012 -6.4363 0.0005
# 3 29.1332 49.7929 107.0986 -0.0022 -7.7917 -0.0038
# 4 -0.0016 -0.0012 -0.0022 35.3596 0.0026 11.0049
# 5 -5.9507 -6.4363 -7.7917 0.0026 34.4248 0.0030
# 6 -0.0009 0.0005 -0.0038 11.0049 0.0030 20.6359
#
#
#
# Elastic Compliance Matrix: (Units=1/GPa)
#
#
# Indices 1 2 3 4 5 6 
#
# 1 0.023949 -0.001991 -0.005404 0.000001 0.002544 -0.000001
# 2 -0.001991 0.009015 -0.003611 0.000000 0.000524 -0.000001
# 3 -0.005404 -0.003611 0.012576 0.000000 0.001237 0.000002
# 4 0.000001 0.000000 0.000000 0.033909 -0.000001 -0.018083
# 5 0.002544 0.000524 0.001237 -0.000001 0.029867 -0.000004
# 6 -0.000001 -0.000001 0.000002 -0.018083 -0.000004 0.058103
#
#
# Mechanical properties :
#
#
# Convention : Reuss Voigt Hill
#
# Bulk Modulus (GPa) = 42.50455 55.41717 48.96086
# Shear Modulus (GPa) = 25.34565 30.89734 28.12149
#
# Velocity S-wave (km/s) = 3.24519 3.58302 3.41828
# Velocity P-wave (km/s) = 5.63050 6.33589 5.99358
#
# Compressibility (1/GPa) = 0.02352689
#
# Stress axis : x y z
#
# Youngs Moduli (GPa) = 41.75603 110.93082 79.51565
#
# Poissons Ratio (x) = 0.22088 0.42968
# Poissons Ratio (y) = 0.08314 0.28716
# Poissons Ratio (z) = 0.22564 0.40061
#
# Static dielectric constant tensor:
#      x y z
#    x 1.963540 0.000000 0.078210 
#    y 0.000000 1.927590 0.000000 
#    z 0.078210 0.000000 2.151930 
# 
# From -- ./inp_files/148664.got.cif
#   From: 2010.05.17/outbox.cif.g08.bks.cpg/sg15_75_cif.got.tgz:148664.got - 2010.06.03 18:47:42.
