data_PCOD9294264
_publ_section_title
;
Structure prediction by ZEFSAII (Michael W. Deem and Ramdas Pophale) SiO2 
 PCOD9294264
Probable space group: C 2/C
;
_chemical_formula_sum "Si O2"
_cell_formula_units_Z 48
_cell_length_a 7.952935
_cell_length_b 16.300559
_cell_length_c 28.436295
_cell_angle_alpha 90.000000
_cell_angle_beta 34.037613
_cell_angle_gamma 90.000000
_cell_volume 2063.416859
_symmetry_space_group_name_H-M "C 2/C"
_symmetry_group_IT_number 15
_symmetry_cell_setting 'monoclinic'
loop_
_space_group_symop_operation_xyz
x,y,z
-x,y,1/2-z
-x,-y,-z
x,-y,1/2+z
1/2+x,1/2+y,z
1/2-x,1/2+y,1/2-z
1/2-x,1/2-y,-z
1/2+x,1/2-y,1/2+z
loop_
_atom_site_type_symbol
_atom_site_label
_atom_site_fract_x
_atom_site_fract_y
_atom_site_fract_z
Si Si1 0.646482 0.958560 0.762951
Si Si2 0.289801 0.257937 0.065987
Si Si3 0.583497 0.017232 0.534434
Si Si4 0.909134 0.145346 0.081058
Si Si5 0.278803 0.376069 0.846992
Si Si6 0.682480 0.109811 0.825760
O O1 0.500000 0.994479 0.750000
O O2 0.425892 0.883499 0.828865
O O3 0.975076 0.922401 0.677137
O O4 0.689650 0.028580 0.792031
O O5 0.337817 0.205251 0.101253
O O6 0.087309 0.200209 0.078372
O O7 0.086078 0.334223 0.127786
O O8 0.554437 0.297801 0.973659
O O9 0.372046 0.085630 0.607475
O O10 0.907656 0.059096 0.465593
O O11 0.500000 0.000000 0.500000
O O12 0.506493 0.937403 0.583590
O O13 0.500000 0.365648 0.750000
O O14 0.000000 0.153904 0.750000
#
# Coordination Sequence:
#
# PCOD9294264 Si02
#       6
#     8   8   8   8   8   8
#     4  12  22  41  68 100 130 176 224 271 322 390
#     4  10  23  42  63  97 132 166 221 266 339 378
#     4  11  19  39  66  95 126 173 220 262 321 399
#     4  10  23  39  67  97 129 173 219 270 322 395
#     4  12  23  44  69  98 132 174 219 273 329 397
#     4  11  24  41  66  97 132 172 222 271 329 394
#
# _framework density 23.262384999999998
#
# number of rings (size 3 to 8) (size 9 to 14) (size 15 to 20)
#    0.000    1.000    6.667    0.000    2.333    3.333 
#    0.000    0.833    3.667    0.000    0.000    0.000 
#    0.000    0.000    0.000    0.000    0.000    0.000 
#
# Total GULP energy -133924.983326 kJ/mol
# GULP energy per Si atom -5580.207639 kJ/mol
# Density = 2.320944 g / cm^3
# Si number density = 23.262385 Si / 1000 Ang^3
#
#
#
# Elastic Constant Matrix: (Units=GPa)
#
#
# Indices 1 2 3 4 5 6 
#
# 1 72.3959 5.8719 13.2598 -0.0103 11.3197 0.0181
# 2 5.8719 95.2977 29.3987 -0.0055 6.5109 0.0095
# 3 13.2598 29.3987 83.5632 -0.0041 4.8948 0.0787
# 4 -0.0103 -0.0055 -0.0041 35.5605 0.0064 10.5264
# 5 11.3197 6.5109 4.8948 0.0064 39.1710 -0.0319
# 6 0.0181 0.0095 0.0787 10.5264 -0.0319 19.5655
#
#
#
# Elastic Compliance Matrix: (Units=1/GPa)
#
#
# Indices 1 2 3 4 5 6 
#
# 1 0.014830 0.000016 -0.002123 0.000010 -0.004023 -0.000017
# 2 0.000016 0.011853 -0.004087 -0.000001 -0.001464 0.000009
# 3 -0.002123 -0.004087 0.013767 0.000019 -0.000427 -0.000062
# 4 0.000010 -0.000001 0.000019 0.033448 -0.000025 -0.017995
# 5 -0.004023 -0.001464 -0.000427 -0.000025 0.026988 0.000064
# 6 -0.000017 0.000009 -0.000062 -0.017995 0.000064 0.060793
#
#
# Mechanical properties :
#
#
# Convention : Reuss Voigt Hill
#
# Bulk Modulus (GPa) = 35.63588 38.70195 37.16892
# Shear Modulus (GPa) = 27.25978 32.37449 29.81713
#
# Velocity S-wave (km/s) = 3.42693 3.73461 3.58407
# Velocity P-wave (km/s) = 5.56873 5.93883 5.75676
#
# Compressibility (1/GPa) = 0.02806160
#
# Stress axis : x y z
#
# Youngs Moduli (GPa) = 67.43312 84.36489 72.63832
#
# Poissons Ratio (x) = -0.00136 0.15422
# Poissons Ratio (y) = -0.00108 0.29687
# Poissons Ratio (z) = 0.14317 0.34479
#
# Static dielectric constant tensor:
#      x y z
#    x 1.968410 -0.000020 0.044900 
#    y -0.000020 1.880820 0.000020 
#    z 0.044900 0.000020 1.882890 
# 
# From -- ./inp_files/308723.got.cif
#   From: 2010.05.17/outbox.cif.g08.bks.cpg/sg15_155_cif.got.tgz:308723.got - 2010.06.03 18:47:42.
