data_PCOD9294659
_publ_section_title
;
Structure prediction by ZEFSAII (Michael W. Deem and Ramdas Pophale) SiO2 
 PCOD9294659
Probable space group: C 2/C
;
_chemical_formula_sum "Si O2"
_cell_formula_units_Z 48
_cell_length_a 12.970761
_cell_length_b 32.553009
_cell_length_c 8.469244
_cell_angle_alpha 90.000000
_cell_angle_beta 137.401559
_cell_angle_gamma 90.000000
_cell_volume 2420.457633
_symmetry_space_group_name_H-M "C 2/C"
_symmetry_group_IT_number 15
_symmetry_cell_setting 'monoclinic'
loop_
_space_group_symop_operation_xyz
x,y,z
-x,y,1/2-z
-x,-y,-z
x,-y,1/2+z
1/2+x,1/2+y,z
1/2-x,1/2+y,1/2-z
1/2-x,1/2-y,-z
1/2+x,1/2-y,1/2+z
loop_
_atom_site_type_symbol
_atom_site_label
_atom_site_fract_x
_atom_site_fract_y
_atom_site_fract_z
Si Si1 0.820676 0.041006 0.989108
Si Si2 0.326241 0.790087 0.013448
Si Si3 0.667226 0.792074 0.858621
Si Si4 0.326204 0.376085 0.003621
Si Si5 0.669138 0.372883 0.868965
Si Si6 0.683681 0.041654 0.479523
O O1 0.767791 0.042536 0.746255
O O2 0.745895 0.999921 0.971392
O O3 0.762053 0.084256 0.993344
O O4 0.000000 0.039346 0.250000
O O5 0.324080 0.791183 0.821569
O O6 0.254854 0.831120 0.007597
O O7 0.500000 0.788771 0.250000
O O8 0.250000 0.750000 0.000000
O O9 0.500000 0.792662 0.750000
O O10 0.753052 0.834802 0.995391
O O11 0.750000 0.750000 0.000000
O O12 0.329536 0.373987 0.818309
O O13 0.237902 0.416748 0.956055
O O14 0.500000 0.379513 0.250000
O O15 0.500000 0.370374 0.750000
O O16 0.500000 0.040439 0.250000
#
# Coordination Sequence:
#
# PCOD9294659 Si02
#       6
#     8   8   8   8   8   8
#     4  11  23  42  66  92 127 171 213 260 315 382
#     4  11  24  40  63  90 124 163 205 256 312 374
#     4  11  24  41  63  92 126 164 209 261 318 380
#     4  11  23  41  64  92 126 167 211 259 316 381
#     4  10  23  41  63  91 121 160 209 259 309 369
#     4  12  25  41  65  97 131 167 210 265 320 380
#
# _framework density 19.830960999999999
#
# number of rings (size 3 to 8) (size 9 to 14) (size 15 to 20)
#    0.000    1.000    0.000    7.000    0.000   11.333 
#    0.000    0.000    0.000    0.000    0.000    0.000 
#    0.000    0.000    0.000    0.000    0.000    0.000 
#
# Total GULP energy -133958.454068 kJ/mol
# GULP energy per Si atom -5581.602253 kJ/mol
# Density = 1.978583 g / cm^3
# Si number density = 19.830961 Si / 1000 Ang^3
#
#
#
# Elastic Constant Matrix: (Units=GPa)
#
#
# Indices 1 2 3 4 5 6 
#
# 1 115.2939 89.3053 45.1775 0.0000 19.6101 0.0000
# 2 89.3053 229.9899 54.4074 0.0000 27.4833 0.0000
# 3 45.1775 54.4074 96.8856 0.0000 13.9423 0.0000
# 4 0.0000 0.0000 0.0000 36.5368 0.0000 4.8152
# 5 19.6101 27.4833 13.9423 0.0000 40.6263 0.0000
# 6 0.0000 0.0000 0.0000 4.8152 0.0000 47.7119
#
#
#
# Elastic Compliance Matrix: (Units=1/GPa)
#
#
# Indices 1 2 3 4 5 6 
#
# 1 0.013799 -0.004171 -0.003724 0.000000 -0.002561 0.000000
# 2 -0.004171 0.006540 -0.001452 0.000000 -0.001912 0.000000
# 3 -0.003724 -0.001452 0.013121 0.000000 -0.001723 0.000000
# 4 0.000000 0.000000 0.000000 0.027739 0.000000 -0.002799
# 5 -0.002561 -0.001912 -0.001723 0.000000 0.027736 0.000000
# 6 0.000000 0.000000 0.000000 -0.002799 0.000000 0.021242
#
#
# Mechanical properties :
#
#
# Convention : Reuss Voigt Hill
#
# Bulk Modulus (GPa) = 67.72294 91.10552 79.41423
# Shear Modulus (GPa) = 37.37127 41.86028 39.61578
#
# Velocity S-wave (km/s) = 4.34578 4.59939 4.47438
# Velocity P-wave (km/s) = 7.70749 8.61665 8.17472
#
# Compressibility (1/GPa) = 0.01476604
#
# Stress axis : x y z
#
# Youngs Moduli (GPa) = 72.46783 152.90932 76.21239
#
# Poissons Ratio (x) = 0.63784 0.28378
# Poissons Ratio (y) = 0.30229 0.11068
# Poissons Ratio (z) = 0.26983 0.22206
#
# Static dielectric constant tensor:
#      x y z
#    x 1.686470 0.000000 -0.026410 
#    y 0.000000 1.679420 0.000000 
#    z -0.026410 0.000000 1.743130 
# 
# From -- ./inp_files/43948.got.cif
#   From: 2010.05.17/outbox.cif.g08.bks.cpg/sg15_22_cif.got.tgz:43948.got - 2010.06.03 18:47:42.
