data_PCOD9294949
_publ_section_title
;
Structure prediction by ZEFSAII (Michael W. Deem and Ramdas Pophale) SiO2 
 PCOD9294949
Probable space group: C 2/C
;
_chemical_formula_sum "Si O2"
_cell_formula_units_Z 48
_cell_length_a 11.372007
_cell_length_b 11.092438
_cell_length_c 14.986160
_cell_angle_alpha 90.000000
_cell_angle_beta 76.897669
_cell_angle_gamma 90.000000
_cell_volume 1841.190062
_symmetry_space_group_name_H-M "C 2/C"
_symmetry_group_IT_number 15
_symmetry_cell_setting 'monoclinic'
loop_
_space_group_symop_operation_xyz
x,y,z
-x,y,1/2-z
-x,-y,-z
x,-y,1/2+z
1/2+x,1/2+y,z
1/2-x,1/2+y,1/2-z
1/2-x,1/2-y,-z
1/2+x,1/2-y,1/2+z
loop_
_atom_site_type_symbol
_atom_site_label
_atom_site_fract_x
_atom_site_fract_y
_atom_site_fract_z
Si Si1 0.883357 0.720489 0.043830
Si Si2 0.315092 0.449601 0.010729
Si Si3 0.043321 0.741665 0.840762
Si Si4 0.108512 0.075241 0.661274
Si Si5 0.630146 0.974977 0.816453
Si Si6 0.203668 0.660494 0.134466
O O1 0.850928 0.855722 0.083522
O O2 0.963305 0.750130 0.943845
O O3 0.771078 0.641026 0.028812
O O4 0.928721 0.627029 0.109627
O O5 0.414910 0.499402 0.925136
O O6 0.761041 0.433117 0.948802
O O7 0.059660 0.598555 0.831090
O O8 0.169778 0.802523 0.841294
O O9 0.000000 0.784362 0.750000
O O10 0.139237 0.212606 0.627217
O O11 0.000000 0.072939 0.750000
O O12 0.232002 0.016166 0.680282
O O13 0.635292 0.916479 0.719412
#
# Coordination Sequence:
#
# PCOD9294949 Si02
#       6
#     8   8   8   8   8   8
#     4  10  23  41  70  96 132 176 217 271 335 394
#     4  10  23  42  68  99 133 171 219 275 331 399
#     4  11  25  42  68  97 132 180 224 270 329 387
#     4  10  24  43  67  98 134 174 217 274 334 393
#     4  10  24  43  65  97 133 172 226 274 321 398
#     4  11  25  41  67  98 134 173 225 274 324 396
#
# _framework density 26.070094000000001
#
# number of rings (size 3 to 8) (size 9 to 14) (size 15 to 20)
#    0.000    1.667    0.000    2.000   14.000    4.000 
#    0.000    0.000    0.000    0.000    0.000    0.000 
#    0.000    0.000    0.000    0.000    0.000    0.000 
#
# Total GULP energy -134322.678274 kJ/mol
# GULP energy per Si atom -5596.778261 kJ/mol
# Density = 2.601076 g / cm^3
# Si number density = 26.070094 Si / 1000 Ang^3
#
#
#
# Elastic Constant Matrix: (Units=GPa)
#
#
# Indices 1 2 3 4 5 6 
#
# 1 74.8522 38.8951 14.3744 0.0000 -6.4543 0.0000
# 2 38.8951 219.9736 63.6896 0.0000 -15.9224 0.0000
# 3 14.3744 63.6896 110.5708 0.0000 -29.1635 0.0000
# 4 0.0000 0.0000 0.0000 -42.2666 0.0000 -10.0564
# 5 -6.4543 -15.9224 -29.1635 0.0000 35.0014 0.0000
# 6 0.0000 0.0000 0.0000 -10.0564 0.0000 46.6274
#
#
#
# Elastic Compliance Matrix: (Units=1/GPa)
#
#
# Indices 1 2 3 4 5 6 
#
# 1 0.014797 -0.002479 -0.000094 0.000000 0.001522 0.000000
# 2 -0.002479 0.005872 -0.003173 0.000000 -0.000430 0.000000
# 3 -0.000094 -0.003173 0.013456 0.000000 0.009751 0.000000
# 4 0.000000 0.000000 0.000000 -0.022505 0.000000 -0.004854
# 5 0.001522 -0.000430 0.009751 0.000000 0.036780 0.000000
# 6 0.000000 0.000000 0.000000 -0.004854 0.000000 0.020400
#
#
# Mechanical properties :
#
#
# Convention : Reuss Voigt Hill
#
# Bulk Modulus (GPa) = 44.18559 71.03497 57.61028
# Shear Modulus (GPa) = 56.92347 27.10160 42.01254
#
# Velocity S-wave (km/s) = 4.67784 3.22773 4.01873
# Velocity P-wave (km/s) = 6.79425 6.41855 6.60907
#
# Compressibility (1/GPa) = 0.02263181
#
# Stress axis : x y z
#
# Youngs Moduli (GPa) = 67.58064 170.29932 74.31656
#
# Poissons Ratio (x) = 0.42216 0.00700
# Poissons Ratio (y) = 0.16753 0.23584
# Poissons Ratio (z) = 0.00637 0.54044
#
# Static dielectric constant tensor:
#      x y z
#    x 2.515680 0.000000 0.034670 
#    y 0.000000 2.023330 0.000000 
#    z 0.034670 0.000000 2.054600 
# 
# From -- ./inp_files/196016.got.cif
#   From: 2010.05.17/outbox.cif.g08.bks.cpg/sg15_99_cif.got.tgz:196016.got - 2010.06.03 18:47:42.
