data_PCOD9294078
_publ_section_title
;
Structure prediction by ZEFSAII (Michael W. Deem and Ramdas Pophale) SiO2 
 PCOD9294078
Probable space group: C 2/C
;
_chemical_formula_sum "Si O2"
_cell_formula_units_Z 40
_cell_length_a 9.949995
_cell_length_b 15.484112
_cell_length_c 10.480560
_cell_angle_alpha 90.000000
_cell_angle_beta 87.877690
_cell_angle_gamma 90.000000
_cell_volume 1613.599120
_symmetry_space_group_name_H-M "C 2/C"
_symmetry_group_IT_number 15
_symmetry_cell_setting 'monoclinic'
loop_
_space_group_symop_operation_xyz
x,y,z
-x,y,1/2-z
-x,-y,-z
x,-y,1/2+z
1/2+x,1/2+y,z
1/2-x,1/2+y,1/2-z
1/2-x,1/2-y,-z
1/2+x,1/2-y,1/2+z
loop_
_atom_site_type_symbol
_atom_site_label
_atom_site_fract_x
_atom_site_fract_y
_atom_site_fract_z
Si Si1 0.485696 0.834058 0.390126
Si Si2 0.919859 0.821273 0.463756
Si Si3 0.237388 0.559091 0.846957
Si Si4 0.205872 0.104915 0.001466
Si Si5 0.156360 0.096723 0.275298
O O1 0.500000 0.789223 0.250000
O O2 0.540498 0.776350 0.504713
O O3 0.583983 0.915752 0.371974
O O4 0.333616 0.860336 0.422361
O O5 0.825592 0.854048 0.353387
O O6 0.841775 0.850625 0.595457
O O7 0.061523 0.871254 0.450811
O O8 0.266912 0.495348 0.728470
O O9 0.285964 0.495132 0.957981
O O10 0.209197 0.145593 0.146567
O O11 0.000000 0.076358 0.250000
#
# Coordination Sequence:
#
# PCOD9294078 Si02
#       5
#     8   8   8   8   8
#     4  12  25  39  59  96 129 158 196 258 314 352
#     4  11  21  42  66  89 123 159 206 254 301 358
#     4  10  23  38  66  87 122 160 209 245 295 370
#     4   9  21  40  63  89 120 166 199 246 302 364
#     4   8  19  36  62  88 115 159 201 246 290 358
#
# _framework density 24.789304999999999
#
# number of rings (size 3 to 8) (size 9 to 14) (size 15 to 20)
#    1.200    0.800    0.000    4.200    2.800    0.000 
#    0.000    1.000    0.000    4.800    0.000    0.000 
#    0.000    0.000    0.000    0.000    0.000    0.000 
#
# Total GULP energy -111726.595310 kJ/mol
# GULP energy per Si atom -5586.329765 kJ/mol
# Density = 2.473288 g / cm^3
# Si number density = 24.789305 Si / 1000 Ang^3
#
#
#
# Elastic Constant Matrix: (Units=GPa)
#
#
# Indices 1 2 3 4 5 6 
#
# 1 127.6234 21.0846 24.8842 0.0000 -31.1966 0.0000
# 2 21.0846 54.2334 -7.6517 0.0000 -9.2211 0.0000
# 3 24.8842 -7.6517 78.7345 0.0000 -21.4625 0.0000
# 4 0.0000 0.0000 0.0000 1.8589 0.0000 -4.7747
# 5 -31.1966 -9.2211 -21.4625 0.0000 28.4451 0.0000
# 6 0.0000 0.0000 0.0000 -4.7747 0.0000 21.6318
#
#
#
# Elastic Compliance Matrix: (Units=1/GPa)
#
#
# Indices 1 2 3 4 5 6 
#
# 1 0.011023 -0.002601 -0.000845 0.000000 0.010609 0.000000
# 2 -0.002601 0.021520 0.005083 0.000000 0.007959 0.000000
# 3 -0.000845 0.005083 0.017195 0.000000 0.013695 0.000000
# 4 0.000000 0.000000 0.000000 1.242266 0.000000 0.274203
# 5 0.010609 0.007959 0.013695 0.000000 0.059704 0.000000
# 6 0.000000 0.000000 0.000000 0.274203 0.000000 0.106753
#
#
# Mechanical properties :
#
#
# Convention : Reuss Voigt Hill
#
# Bulk Modulus (GPa) = 18.86309 37.46951 28.16630
# Shear Modulus (GPa) = 3.39476 25.20543 14.30010
#
# Velocity S-wave (km/s) = 1.17150 3.19217 2.40441
# Velocity P-wave (km/s) = 3.07502 5.36047 4.36980
#
# Compressibility (1/GPa) = 0.05301360
#
# Stress axis : x y z
#
# Youngs Moduli (GPa) = 90.71729 46.46746 58.15581
#
# Poissons Ratio (x) = 0.12086 0.04913
# Poissons Ratio (y) = 0.23595 -0.29561
# Poissons Ratio (z) = 0.07663 -0.23620
#
# Static dielectric constant tensor:
#      x y z
#    x 1.892890 0.000000 0.035130 
#    y 0.000000 2.022100 0.000000 
#    z 0.035130 0.000000 2.152640 
# 
# From -- ./inp_files/76659.got.cif
#   From: 2010.05.17/outbox.cif.g08.bks.cpg/sg15_39_cif.got.tgz:76659.got - 2010.06.03 18:47:42.
