data_PCOD9294157
_publ_section_title
;
Structure prediction by ZEFSAII (Michael W. Deem and Ramdas Pophale) SiO2 
 PCOD9294157
Probable space group: C 2/C
;
_chemical_formula_sum "Si O2"
_cell_formula_units_Z 44
_cell_length_a 24.300240
_cell_length_b 5.104154
_cell_length_c 14.068262
_cell_angle_alpha 90.000000
_cell_angle_beta 112.450273
_cell_angle_gamma 90.000000
_cell_volume 1612.672059
_symmetry_space_group_name_H-M "C 2/C"
_symmetry_group_IT_number 15
_symmetry_cell_setting 'monoclinic'
loop_
_space_group_symop_operation_xyz
x,y,z
-x,y,1/2-z
-x,-y,-z
x,-y,1/2+z
1/2+x,1/2+y,z
1/2-x,1/2+y,1/2-z
1/2-x,1/2-y,-z
1/2+x,1/2-y,1/2+z
loop_
_atom_site_type_symbol
_atom_site_label
_atom_site_fract_x
_atom_site_fract_y
_atom_site_fract_z
Si Si1 0.214425 0.751893 0.194107
Si Si2 0.122576 0.410506 0.777048
Si Si3 0.847413 0.541845 0.001833
Si Si4 0.000000 0.131690 0.750000
Si Si5 0.094010 0.836690 0.620668
Si Si6 0.032006 0.755133 0.948035
O O1 0.249367 0.513399 0.266526
O O2 0.152762 0.764065 0.213477
O O3 0.197907 0.659580 0.077231
O O4 0.163903 0.381638 0.897599
O O5 0.119621 0.709558 0.735443
O O6 0.057580 0.298316 0.758071
O O7 0.913465 0.418687 0.051744
O O8 0.858176 0.765811 0.929928
O O9 0.980332 0.950939 0.649312
O O10 0.034258 0.646342 0.576627
O O11 0.059158 0.084252 0.553968
#
# Coordination Sequence:
#
# PCOD9294157 Si02
#       6
#     8   8   8   4   8   8
#     4  11  30  52  78 105 143 201 259 318 368 431
#     4  11  25  44  73 105 151 187 238 309 366 452
#     4  11  24  45  70 102 143 187 252 302 375 436
#     4  12  24  40  70 118 148 186 238 292 380 452
#     4  10  23  39  62 101 146 192 227 283 364 446
#     4  11  23  36  68 102 152 192 232 290 363 464
#
# _framework density 27.283912000000001
#
# number of rings (size 3 to 8) (size 9 to 14) (size 15 to 20)
#    0.000    1.091    1.818    2.727   15.273    2.909 
#    0.000    0.000    0.000    0.000    0.000    0.000 
#    0.000    0.000    0.000    0.000    0.000    0.000 
#
# Total GULP energy -123099.872920 kJ/mol
# GULP energy per Si atom -5595.448769 kJ/mol
# Density = 2.722181 g / cm^3
# Si number density = 27.283912 Si / 1000 Ang^3
#
#
#
# Elastic Constant Matrix: (Units=GPa)
#
#
# Indices 1 2 3 4 5 6 
#
# 1 68.4660 -10.7022 18.5906 0.0000 4.9850 0.0000
# 2 -10.7022 28.5788 -18.1212 0.0000 -0.8822 0.0000
# 3 18.5906 -18.1212 180.7647 0.0000 -14.6453 0.0000
# 4 0.0000 0.0000 0.0000 43.4605 0.0000 1.9094
# 5 4.9850 -0.8822 -14.6453 0.0000 44.3506 0.0000
# 6 0.0000 0.0000 0.0000 1.9094 0.0000 32.7811
#
#
#
# Elastic Compliance Matrix: (Units=1/GPa)
#
#
# Indices 1 2 3 4 5 6 
#
# 1 0.015905 0.005067 -0.001299 0.000000 -0.002116 0.000000
# 2 0.005067 0.039160 0.003516 0.000000 0.001370 0.000000
# 3 -0.001299 0.003516 0.006202 0.000000 0.002264 0.000000
# 4 0.000000 0.000000 0.000000 0.023068 0.000000 -0.001344
# 5 -0.002116 0.001370 0.002264 0.000000 0.023560 0.000000
# 6 0.000000 0.000000 0.000000 -0.001344 0.000000 0.030584
#
#
# Mechanical properties :
#
#
# Convention : Reuss Voigt Hill
#
# Bulk Modulus (GPa) = 13.18694 28.59375 20.89034
# Shear Modulus (GPa) = 33.51448 43.32127 38.41788
#
# Velocity S-wave (km/s) = 3.50860 3.98904 3.75651
# Velocity P-wave (km/s) = 4.61058 5.63200 5.14669
#
# Compressibility (1/GPa) = 0.07583263
#
# Stress axis : x y z
#
# Youngs Moduli (GPa) = 62.87471 25.53636 161.25103
#
# Poissons Ratio (x) = -0.12939 0.20949
# Poissons Ratio (y) = -0.31858 -0.56690
# Poissons Ratio (z) = 0.08169 -0.08978
#
# Static dielectric constant tensor:
#      x y z
#    x 2.236150 0.000000 0.016570 
#    y 0.000000 2.396190 0.000000 
#    z 0.016570 0.000000 2.211400 
# 
# From -- ./inp_files/179833.got.cif
#   From: 2010.05.17/outbox.cif.g08.bks.cpg/sg15_90_cif.got.tgz:179833.got - 2010.06.03 18:47:42.
