data_PCOD9294484
_publ_section_title
;
Structure prediction by ZEFSAII (Michael W. Deem and Ramdas Pophale) SiO2 
 PCOD9294484
Probable space group: C 2/C
;
_chemical_formula_sum "Si O2"
_cell_formula_units_Z 36
_cell_length_a 13.614331
_cell_length_b 5.857245
_cell_length_c 19.358172
_cell_angle_alpha 90.000000
_cell_angle_beta 93.171972
_cell_angle_gamma 90.000000
_cell_volume 1541.303517
_symmetry_space_group_name_H-M "C 2/C"
_symmetry_group_IT_number 15
_symmetry_cell_setting 'monoclinic'
loop_
_space_group_symop_operation_xyz
x,y,z
-x,y,1/2-z
-x,-y,-z
x,-y,1/2+z
1/2+x,1/2+y,z
1/2-x,1/2+y,1/2-z
1/2-x,1/2-y,-z
1/2+x,1/2-y,1/2+z
loop_
_atom_site_type_symbol
_atom_site_label
_atom_site_fract_x
_atom_site_fract_y
_atom_site_fract_z
Si Si1 0.701523 0.353529 0.930664
Si Si2 0.000000 0.196102 0.250000
Si Si3 0.569518 0.701655 0.977442
Si Si4 0.502661 0.920280 0.106558
Si Si5 0.781087 0.931124 0.720497
O O1 0.602976 0.202177 0.912801
O O2 0.753670 0.377155 0.859228
O O3 0.750000 0.250000 0.000000
O O4 0.669046 0.604065 0.952596
O O5 0.027036 0.349052 0.184353
O O6 0.900759 0.059419 0.228135
O O7 0.575456 0.851363 0.046840
O O8 0.500000 0.500000 0.000000
O O9 0.516757 0.818165 0.910534
O O10 0.753526 0.687658 0.757916
#
# Coordination Sequence:
#
# PCOD9294484 Si02
#       5
#     8   4   8   8   8
#     4  10  23  40  66  96 136 185 232 304 353 430
#     4  10  24  46  74 100 146 198 232 310 368 436
#     4   9  19  37  62  92 126 167 232 281 347 422
#     4   9  20  40  63  96 130 182 234 290 360 432
#     4  11  28  49  72 111 149 193 250 300 373 442
#
# _framework density 23.356854999999999
#
# number of rings (size 3 to 8) (size 9 to 14) (size 15 to 20)
#    0.000    2.222    0.000    0.000    9.333    7.111 
#    4.000    0.000    0.000    0.000    0.000    0.000 
#    0.000    0.000    0.000    0.000    0.000    0.000 
#
# Total GULP energy -100371.088200 kJ/mol
# GULP energy per Si atom -5576.171567 kJ/mol
# Density = 2.330369 g / cm^3
# Si number density = 23.356855 Si / 1000 Ang^3
#
#
#
# Elastic Constant Matrix: (Units=GPa)
#
#
# Indices 1 2 3 4 5 6 
#
# 1 58.3278 23.6499 20.8518 0.0000 2.0491 0.0000
# 2 23.6499 76.4700 4.1717 0.0000 -6.9442 0.0000
# 3 20.8518 4.1717 140.3747 0.0000 -0.3343 0.0000
# 4 0.0000 0.0000 0.0000 23.8282 0.0000 -7.4136
# 5 2.0491 -6.9442 -0.3343 0.0000 38.3432 0.0000
# 6 0.0000 0.0000 0.0000 -7.4136 0.0000 37.6412
#
#
#
# Elastic Compliance Matrix: (Units=1/GPa)
#
#
# Indices 1 2 3 4 5 6 
#
# 1 0.020913 -0.006520 -0.002918 0.000000 -0.002324 0.000000
# 2 -0.006520 0.015349 0.000520 0.000000 0.003133 0.000000
# 3 -0.002918 0.000520 0.007543 0.000000 0.000316 0.000000
# 4 0.000000 0.000000 0.000000 0.044707 0.000000 0.008805
# 5 -0.002324 0.003133 0.000316 0.000000 0.026775 0.000000
# 6 0.000000 0.000000 0.000000 0.008805 0.000000 0.028301
#
#
# Mechanical properties :
#
#
# Convention : Reuss Voigt Hill
#
# Bulk Modulus (GPa) = 38.50780 41.39102 39.94941
# Shear Modulus (GPa) = 29.39808 35.06247 32.23028
#
# Velocity S-wave (km/s) = 3.55159 3.87869 3.71874
# Velocity P-wave (km/s) = 5.77416 6.14968 5.96488
#
# Compressibility (1/GPa) = 0.02596877
#
# Stress axis : x y z
#
# Youngs Moduli (GPa) = 47.81757 65.14890 132.58050
#
# Poissons Ratio (x) = 0.42474 0.38690
# Poissons Ratio (y) = 0.31175 -0.06891
# Poissons Ratio (z) = 0.13954 -0.03386
#
# Static dielectric constant tensor:
#      x y z
#    x 1.970480 0.000000 0.044220 
#    y 0.000000 1.982450 0.000000 
#    z 0.044220 0.000000 1.930860 
# 
# From -- ./inp_files/241498.got.cif
#   From: 2010.05.17/outbox.cif.g08.bks.cpg/sg15_121_cif.got.tgz:241498.got - 2010.06.03 18:47:42.
