data_PCOD9294762
_publ_section_title
;
Structure prediction by ZEFSAII (Michael W. Deem and Ramdas Pophale) SiO2 
 PCOD9294762
Probable space group: C 2/C
;
_chemical_formula_sum "Si O2"
_cell_formula_units_Z 36
_cell_length_a 12.184723
_cell_length_b 18.869764
_cell_length_c 8.269230
_cell_angle_alpha 90.000000
_cell_angle_beta 63.833946
_cell_angle_gamma 90.000000
_cell_volume 1706.440833
_symmetry_space_group_name_H-M "C 2/C"
_symmetry_group_IT_number 15
_symmetry_cell_setting 'monoclinic'
loop_
_space_group_symop_operation_xyz
x,y,z
-x,y,1/2-z
-x,-y,-z
x,-y,1/2+z
1/2+x,1/2+y,z
1/2-x,1/2+y,1/2-z
1/2-x,1/2-y,-z
1/2+x,1/2-y,1/2+z
loop_
_atom_site_type_symbol
_atom_site_label
_atom_site_fract_x
_atom_site_fract_y
_atom_site_fract_z
Si Si1 0.127950 0.604278 0.759874
Si Si2 0.362654 0.025835 0.406859
Si Si3 0.643951 0.257654 0.706051
Si Si4 0.500000 0.475164 0.250000
Si Si5 0.147310 0.088112 0.361935
O O1 0.192039 0.553751 0.584533
O O2 0.167947 0.682965 0.781966
O O3 0.000000 0.615075 0.750000
O O4 0.130592 0.556725 0.918489
O O5 0.500000 0.025823 0.250000
O O6 0.280540 0.073232 0.345507
O O7 0.500000 0.257215 0.750000
O O8 0.750000 0.250000 0.500000
O O9 0.651467 0.332795 0.790238
O O10 0.597992 0.528224 0.269444
O O11 0.441336 0.425892 0.426047
#
# Coordination Sequence:
#
# PCOD9294762 Si02
#       5
#     8   8   8   4   8
#     4  10  23  41  65  98 136 182 225 289 349 421
#     4  11  23  39  70 101 133 174 233 285 344 423
#     4  11  27  45  72 103 145 192 236 297 369 428
#     4  10  24  44  74 106 140 186 248 296 354 434
#     4  11  24  45  73 104 142 188 239 302 356 433
#
# _framework density 21.096540999999998
#
# number of rings (size 3 to 8) (size 9 to 14) (size 15 to 20)
#    0.000    1.333    1.111    4.000   12.444    2.667 
#    2.000    0.000    0.000    0.000    0.000    0.000 
#    0.000    0.000    0.000    0.000    0.000    0.000 
#
# Total GULP energy -100241.835472 kJ/mol
# GULP energy per Si atom -5568.990860 kJ/mol
# Density = 2.104852 g / cm^3
# Si number density = 21.096541 Si / 1000 Ang^3
#
#
#
# Elastic Constant Matrix: (Units=GPa)
#
#
# Indices 1 2 3 4 5 6 
#
# 1 118.6803 50.1129 48.5807 0.0000 3.3912 0.0000
# 2 50.1129 231.8859 87.8909 0.0000 9.4684 0.0000
# 3 48.5807 87.8909 132.2348 0.0000 -8.2442 0.0000
# 4 0.0000 0.0000 0.0000 39.5728 0.0000 0.8863
# 5 3.3912 9.4684 -8.2442 0.0000 37.5879 0.0000
# 6 0.0000 0.0000 0.0000 0.8863 0.0000 15.2219
#
#
#
# Elastic Compliance Matrix: (Units=1/GPa)
#
#
# Indices 1 2 3 4 5 6 
#
# 1 0.010169 -0.000925 -0.003208 0.000000 -0.001388 0.000000
# 2 -0.000925 0.006056 -0.003828 0.000000 -0.002282 0.000000
# 3 -0.003208 -0.003828 0.011521 0.000000 0.003780 0.000000
# 4 0.000000 0.000000 0.000000 0.025303 0.000000 -0.001473
# 5 -0.001388 -0.002282 0.003780 0.000000 0.028133 0.000000
# 6 0.000000 0.000000 0.000000 -0.001473 0.000000 0.065781
#
#
# Mechanical properties :
#
#
# Convention : Reuss Voigt Hill
#
# Bulk Modulus (GPa) = 84.56600 95.10781 89.83690
# Shear Modulus (GPa) = 29.97131 38.22428 34.09780
#
# Velocity S-wave (km/s) = 3.77327 4.26123 4.02465
# Velocity P-wave (km/s) = 7.69127 8.33012 8.01706
#
# Compressibility (1/GPa) = 0.01182508
#
# Stress axis : x y z
#
# Youngs Moduli (GPa) = 98.33476 165.11406 86.80131
#
# Poissons Ratio (x) = 0.15277 0.27842
# Poissons Ratio (y) = 0.09099 0.33226
# Poissons Ratio (z) = 0.31542 0.63202
#
# Static dielectric constant tensor:
#      x y z
#    x 1.783110 0.000000 -0.048130 
#    y 0.000000 1.846450 0.000000 
#    z -0.048130 0.000000 1.836430 
# 
# From -- ./inp_files/28979.got.cif
#   From: 2010.05.17/outbox.cif.g08.bks.cpg/sg15_15_cif.got.tgz:28979.got - 2010.06.03 18:47:42.
