data_PCOD9294520
_publ_section_title
;
Structure prediction by ZEFSAII (Michael W. Deem and Ramdas Pophale) SiO2 
 PCOD9294520
Probable space group: C 2/C
;
_chemical_formula_sum "Si O2"
_cell_formula_units_Z 56
_cell_length_a 10.506894
_cell_length_b 22.342586
_cell_length_c 11.452611
_cell_angle_alpha 90.000000
_cell_angle_beta 99.321974
_cell_angle_gamma 90.000000
_cell_volume 2653.008564
_symmetry_space_group_name_H-M "C 2/C"
_symmetry_group_IT_number 15
_symmetry_cell_setting 'monoclinic'
loop_
_space_group_symop_operation_xyz
x,y,z
-x,y,1/2-z
-x,-y,-z
x,-y,1/2+z
1/2+x,1/2+y,z
1/2-x,1/2+y,1/2-z
1/2-x,1/2-y,-z
1/2+x,1/2-y,1/2+z
loop_
_atom_site_type_symbol
_atom_site_label
_atom_site_fract_x
_atom_site_fract_y
_atom_site_fract_z
Si Si1 0.961769 0.065871 0.040501
Si Si2 0.198170 0.397031 0.100285
Si Si3 0.306206 0.037832 0.372001
Si Si4 0.771218 0.885109 0.842404
Si Si5 0.327105 0.352488 0.334009
Si Si6 0.125544 0.712508 0.188163
Si Si7 0.421490 0.866459 0.043974
O O1 0.833904 0.057218 0.098627
O O2 0.080429 0.094519 0.128257
O O3 0.924983 0.109511 0.927861
O O4 0.000000 0.000000 0.000000
O O5 0.181639 0.467353 0.120502
O O6 0.313059 0.376426 0.200989
O O7 0.065849 0.363320 0.111630
O O8 0.225602 0.384147 0.969150
O O9 0.308782 0.065253 0.242754
O O10 0.406560 0.071103 0.470997
O O11 0.740746 0.823055 0.771310
O O12 0.354908 0.282465 0.329036
O O13 0.189116 0.362442 0.376510
O O14 0.000000 0.702545 0.250000
O O15 0.105387 0.682497 0.059469
#
# Coordination Sequence:
#
# PCOD9294520 Si02
#       7
#     8   8   8   8   8   8   8
#     4  11  22  43  66  96 137 172 223 274 337 402
#     4  12  23  41  68  99 132 171 218 271 331 402
#     4  10  23  40  67  96 134 173 214 272 334 399
#     4  11  24  41  66  99 131 176 218 274 337 396
#     4  11  27  41  67  97 130 180 222 277 330 396
#     4  11  24  45  69  94 131 172 230 280 332 398
#     4  10  23  47  64  95 131 174 220 271 333 395
#
# _framework density 21.108111000000001
#
# number of rings (size 3 to 8) (size 9 to 14) (size 15 to 20)
#    0.000    1.143    2.857    2.571    4.000    1.714 
#    2.571    4.286    0.000    0.000    0.000    0.000 
#    0.000    0.000    0.000    0.000    0.000    0.000 
#
# Total GULP energy -156622.753238 kJ/mol
# GULP energy per Si atom -5593.669759 kJ/mol
# Density = 2.106007 g / cm^3
# Si number density = 21.108111 Si / 1000 Ang^3
#
#
#
# Elastic Constant Matrix: (Units=GPa)
#
#
# Indices 1 2 3 4 5 6 
#
# 1 54.7022 -6.6912 18.7921 0.0000 6.5159 0.0000
# 2 -6.6912 152.4557 56.1748 0.0000 18.3377 0.0000
# 3 18.7921 56.1748 129.3522 0.0000 7.2634 0.0000
# 4 0.0000 0.0000 0.0000 10.7086 0.0000 -7.9295
# 5 6.5159 18.3377 7.2634 0.0000 35.8994 0.0000
# 6 0.0000 0.0000 0.0000 -7.9295 0.0000 15.1279
#
#
#
# Elastic Compliance Matrix: (Units=1/GPa)
#
#
# Indices 1 2 3 4 5 6 
#
# 1 0.020533 0.002903 -0.003997 0.000000 -0.004401 0.000000
# 2 0.002903 0.008637 -0.003940 0.000000 -0.004141 0.000000
# 3 -0.003997 -0.003940 0.009982 0.000000 0.000718 0.000000
# 4 0.000000 0.000000 0.000000 0.152621 0.000000 0.079999
# 5 -0.004401 -0.004141 0.000718 0.000000 0.030625 0.000000
# 6 0.000000 0.000000 0.000000 0.079999 0.000000 0.108035
#
#
# Mechanical properties :
#
#
# Convention : Reuss Voigt Hill
#
# Bulk Modulus (GPa) = 34.38179 52.56240 43.47210
# Shear Modulus (GPa) = 14.27777 30.22947 22.25362
#
# Velocity S-wave (km/s) = 2.60361 3.78845 3.25047
# Velocity P-wave (km/s) = 5.03609 6.64018 5.89297
#
# Compressibility (1/GPa) = 0.02908516
#
# Stress axis : x y z
#
# Youngs Moduli (GPa) = 48.70163 115.78678 100.17887
#
# Poissons Ratio (x) = -0.33616 0.40039
# Poissons Ratio (y) = -0.14139 0.39469
# Poissons Ratio (z) = 0.19465 0.45619
#
# Static dielectric constant tensor:
#      x y z
#    x 1.782110 0.000000 -0.018010 
#    y 0.000000 1.722860 0.000000 
#    z -0.018010 0.000000 1.740920 
# 
# From -- ./inp_files/89645.got.cif
#   From: 2010.05.17/outbox.cif.g08.bks.cpg/sg15_45_cif.got.tgz:89645.got - 2010.06.03 18:47:42.
