data_PCOD9294088
_publ_section_title
;
Structure prediction by ZEFSAII (Michael W. Deem and Ramdas Pophale) SiO2 
 PCOD9294088
Probable space group: C 2/C
;
_chemical_formula_sum "Si O2"
_cell_formula_units_Z 32
_cell_length_a 13.714861
_cell_length_b 4.667453
_cell_length_c 18.337949
_cell_angle_alpha 90.000000
_cell_angle_beta 92.122145
_cell_angle_gamma 90.000000
_cell_volume 1173.070637
_symmetry_space_group_name_H-M "C 2/C"
_symmetry_group_IT_number 15
_symmetry_cell_setting 'monoclinic'
loop_
_space_group_symop_operation_xyz
x,y,z
-x,y,1/2-z
-x,-y,-z
x,-y,1/2+z
1/2+x,1/2+y,z
1/2-x,1/2+y,1/2-z
1/2-x,1/2-y,-z
1/2+x,1/2-y,1/2+z
loop_
_atom_site_type_symbol
_atom_site_label
_atom_site_fract_x
_atom_site_fract_y
_atom_site_fract_z
Si Si1 0.349689 0.772757 0.620554
Si Si2 0.217054 0.243950 0.639300
Si Si3 0.901878 0.863156 0.966321
Si Si4 0.037269 0.069562 0.178432
O O1 0.258166 0.560229 0.632535
O O2 0.360304 0.807682 0.533202
O O3 0.448850 0.634951 0.651386
O O4 0.315971 0.065540 0.655357
O O5 0.170045 0.114945 0.563374
O O6 0.133483 0.131818 0.692196
O O7 0.936651 0.728140 0.889983
O O8 0.000000 0.000000 0.000000
O O9 0.000000 0.216919 0.250000
#
# Coordination Sequence:
#
# PCOD9294088 Si02
#       4
#     8   8   8   8
#     4  11  21  42  64  90 118 158 202 248 297 351
#     4  10  23  38  67  88 120 157 202 246 299 350
#     4   8  18  39  60  90 119 157 195 252 294 349
#     4   9  22  41  60  91 125 157 200 246 297 359
#
# _framework density 27.278836999999999
#
# number of rings (size 3 to 8) (size 9 to 14) (size 15 to 20)
#    1.500    1.000    0.000    1.500    0.000    4.000 
#    0.000    7.500    0.000    0.000    0.000    0.000 
#    0.000    0.000    0.000    0.000    0.000    0.000 
#
# Total GULP energy -89436.028507 kJ/mol
# GULP energy per Si atom -5589.751782 kJ/mol
# Density = 2.721675 g / cm^3
# Si number density = 27.278837 Si / 1000 Ang^3
#
#
#
# Elastic Constant Matrix: (Units=GPa)
#
#
# Indices 1 2 3 4 5 6 
#
# 1 159.2591 28.1525 39.9475 0.0000 -13.4669 0.0000
# 2 28.1525 79.4356 12.2554 0.0000 -6.5039 0.0000
# 3 39.9475 12.2554 118.9389 0.0000 -39.2005 0.0000
# 4 0.0000 0.0000 0.0000 11.2222 0.0000 3.7083
# 5 -13.4669 -6.5039 -39.2005 0.0000 49.2759 0.0000
# 6 0.0000 0.0000 0.0000 3.7083 0.0000 38.4176
#
#
#
# Elastic Compliance Matrix: (Units=1/GPa)
#
#
# Indices 1 2 3 4 5 6 
#
# 1 0.007223 -0.002224 -0.002227 0.000000 -0.000091 0.000000
# 2 -0.002224 0.013504 -0.000349 0.000000 0.000897 0.000000
# 3 -0.002227 -0.000349 0.012166 0.000000 0.009023 0.000000
# 4 0.000000 0.000000 0.000000 0.092045 0.000000 -0.008885
# 5 -0.000091 0.000897 0.009023 0.000000 0.027566 0.000000
# 6 0.000000 0.000000 0.000000 -0.008885 0.000000 0.026887
#
#
# Mechanical properties :
#
#
# Convention : Reuss Voigt Hill
#
# Bulk Modulus (GPa) = 42.92992 57.59380 50.26186
# Shear Modulus (GPa) = 25.41238 38.26835 31.84036
#
# Velocity S-wave (km/s) = 3.05549 3.74954 3.42016
# Velocity P-wave (km/s) = 5.31221 6.31698 5.83626
#
# Compressibility (1/GPa) = 0.02329378
#
# Stress axis : x y z
#
# Youngs Moduli (GPa) = 138.44574 74.05095 82.19940
#
# Poissons Ratio (x) = 0.16467 0.18304
# Poissons Ratio (y) = 0.30787 0.02868
# Poissons Ratio (z) = 0.30829 0.02584
#
# Static dielectric constant tensor:
#      x y z
#    x 2.102920 0.000000 -0.011310 
#    y 0.000000 2.083790 0.000000 
#    z -0.011310 0.000000 2.206150 
# 
# From -- ./inp_files/241248.got.cif
#   From: 2010.05.17/outbox.cif.g08.bks.cpg/sg15_121_cif.got.tgz:241248.got - 2010.06.03 18:47:42.
