data_PCOD9294905
_publ_section_title
;
Structure prediction by ZEFSAII (Michael W. Deem and Ramdas Pophale) SiO2 
 PCOD9294905
Probable space group: C 2/C
;
_chemical_formula_sum "Si O2"
_cell_formula_units_Z 36
_cell_length_a 7.200052
_cell_length_b 11.760560
_cell_length_c 18.324979
_cell_angle_alpha 90.000000
_cell_angle_beta 108.015548
_cell_angle_gamma 90.000000
_cell_volume 1475.622049
_symmetry_space_group_name_H-M "C 2/C"
_symmetry_group_IT_number 15
_symmetry_cell_setting 'monoclinic'
loop_
_space_group_symop_operation_xyz
x,y,z
-x,y,1/2-z
-x,-y,-z
x,-y,1/2+z
1/2+x,1/2+y,z
1/2-x,1/2+y,1/2-z
1/2-x,1/2-y,-z
1/2+x,1/2-y,1/2+z
loop_
_atom_site_type_symbol
_atom_site_label
_atom_site_fract_x
_atom_site_fract_y
_atom_site_fract_z
Si Si1 0.500000 0.455044 0.250000
Si Si2 0.377079 0.381292 0.856719
Si Si3 0.548842 0.727520 0.865528
Si Si4 0.120726 0.666992 0.828313
Si Si5 0.372457 0.356419 0.482072
O O1 0.624624 0.532986 0.210798
O O2 0.383769 0.374793 0.179291
O O3 0.171615 0.337631 0.862095
O O4 0.485256 0.266691 0.842300
O O5 0.524503 0.421704 0.939560
O O6 0.684247 0.730486 0.678623
O O7 0.541608 0.693258 0.949605
O O8 0.214004 0.593042 0.905399
O O9 0.000000 0.608407 0.750000
O O10 0.250000 0.250000 0.500000
#
# Coordination Sequence:
#
# PCOD9294905 Si02
#       5
#     4   8   8   8   8
#     4  12  26  38  72 104 136 186 224 278 342 412
#     4  11  21  43  67  98 136 179 231 275 341 413
#     4  10  23  41  68  99 136 181 224 283 344 392
#     4   9  18  38  66  93 132 172 218 281 329 394
#     4   8  19  38  73  92 131 184 220 283 344 391
#
# _framework density 24.396491000000001
#
# number of rings (size 3 to 8) (size 9 to 14) (size 15 to 20)
#    1.333    0.889    1.111    2.000    0.000    0.889 
#    0.000    6.667    0.000    9.333    0.000    0.000 
#    0.000    0.000    0.000    0.000    0.000    0.000 
#
# Total GULP energy -100360.063624 kJ/mol
# GULP energy per Si atom -5575.559090 kJ/mol
# Density = 2.434096 g / cm^3
# Si number density = 24.396491 Si / 1000 Ang^3
#
#
#
# Elastic Constant Matrix: (Units=GPa)
#
#
# Indices 1 2 3 4 5 6 
#
# 1 111.6547 40.1625 50.3964 0.0000 3.7014 0.0000
# 2 40.1625 92.1481 39.9697 0.0000 -4.7129 0.0000
# 3 50.3964 39.9697 164.4490 0.0000 -1.8980 0.0000
# 4 0.0000 0.0000 0.0000 35.0673 0.0000 -2.2871
# 5 3.7014 -4.7129 -1.8980 0.0000 53.2010 0.0000
# 6 0.0000 0.0000 0.0000 -2.2871 0.0000 36.4247
#
#
#
# Elastic Compliance Matrix: (Units=1/GPa)
#
#
# Indices 1 2 3 4 5 6 
#
# 1 0.011609 -0.003996 -0.002601 0.000000 -0.001254 0.000000
# 2 -0.003996 0.013557 -0.002054 0.000000 0.001406 0.000000
# 3 -0.002601 -0.002054 0.007380 0.000000 0.000262 0.000000
# 4 0.000000 0.000000 0.000000 0.028634 0.000000 0.001798
# 5 -0.001254 0.001406 0.000262 0.000000 0.019018 0.000000
# 6 0.000000 0.000000 0.000000 0.001798 0.000000 0.027567
#
#
# Mechanical properties :
#
#
# Convention : Reuss Voigt Hill
#
# Bulk Modulus (GPa) = 65.59935 69.92321 67.76128
# Shear Modulus (GPa) = 38.41796 40.78681 39.60239
#
# Velocity S-wave (km/s) = 3.97260 4.09324 4.03337
# Velocity P-wave (km/s) = 6.92743 7.14583 7.03748
#
# Compressibility (1/GPa) = 0.01524405
#
# Stress axis : x y z
#
# Youngs Moduli (GPa) = 86.13991 73.76509 135.49581
#
# Poissons Ratio (x) = 0.29475 0.35242
# Poissons Ratio (y) = 0.34419 0.27834
# Poissons Ratio (z) = 0.22405 0.15153
#
# Static dielectric constant tensor:
#      x y z
#    x 1.932520 0.000000 -0.023730 
#    y 0.000000 1.947320 0.000000 
#    z -0.023730 0.000000 2.045230 
# 
# From -- ./inp_files/187647.got.cif
#   From: 2010.05.17/outbox.cif.g08.bks.cpg/sg15_94_cif.got.tgz:187647.got - 2010.06.03 18:47:42.
