data_PCOD9294785
_publ_section_title
;
Structure prediction by ZEFSAII (Michael W. Deem and Ramdas Pophale) SiO2 
 PCOD9294785
Probable space group: C 2/C
;
_chemical_formula_sum "Si O2"
_cell_formula_units_Z 48
_cell_length_a 9.146338
_cell_length_b 14.571993
_cell_length_c 26.831221
_cell_angle_alpha 90.000000
_cell_angle_beta 143.242248
_cell_angle_gamma 90.000000
_cell_volume 2140.041392
_symmetry_space_group_name_H-M "C 2/C"
_symmetry_group_IT_number 15
_symmetry_cell_setting 'monoclinic'
loop_
_space_group_symop_operation_xyz
x,y,z
-x,y,1/2-z
-x,-y,-z
x,-y,1/2+z
1/2+x,1/2+y,z
1/2-x,1/2+y,1/2-z
1/2-x,1/2-y,-z
1/2+x,1/2-y,1/2+z
loop_
_atom_site_type_symbol
_atom_site_label
_atom_site_fract_x
_atom_site_fract_y
_atom_site_fract_z
Si Si1 0.124133 0.612785 0.964598
Si Si2 0.000000 0.490729 0.250000
Si Si3 0.991570 0.579572 0.084336
Si Si4 0.500000 0.328559 0.750000
Si Si5 0.955927 0.672098 0.663193
Si Si6 0.033713 0.261168 0.993030
Si Si7 0.810692 0.893934 0.904172
O O1 0.992813 0.659492 0.881144
O O2 0.000964 0.515835 0.942488
O O3 0.127414 0.677273 0.013237
O O4 0.401602 0.596210 0.023594
O O5 0.041220 0.418211 0.216316
O O6 0.796277 0.561276 0.174733
O O7 0.261289 0.612680 0.172542
O O8 0.872701 0.664210 0.021094
O O9 0.829162 0.557364 0.088499
O O10 0.559830 0.260816 0.719983
O O11 0.660049 0.691005 0.585460
O O12 0.214669 0.209980 0.080841
#
# Coordination Sequence:
#
# PCOD9294785 Si02
#       7
#     8   4   8   4   8   8   8
#     4  11  22  42  68  96 127 168 219 258 314 383
#     4  11  22  36  61  98 122 162 209 276 300 365
#     4  11  22  41  66  95 129 170 215 258 319 380
#     4   9  22  40  63  90 136 172 201 262 334 375
#     4   9  19  40  62  87 124 168 213 250 317 371
#     4  10  23  41  66  92 128 170 207 262 318 383
#     4  11  23  40  66  97 126 165 221 262 311 376
#
# _framework density 22.429472000000001
#
# number of rings (size 3 to 8) (size 9 to 14) (size 15 to 20)
#    0.000    1.667    1.667    3.500    2.333    4.000 
#    3.000    2.500    0.000    0.000    0.000    0.000 
#    0.000    0.000    0.000    0.000    0.000    0.000 
#
# Total GULP energy -133759.703024 kJ/mol
# GULP energy per Si atom -5573.320959 kJ/mol
# Density = 2.237842 g / cm^3
# Si number density = 22.429472 Si / 1000 Ang^3
#
#
#
# Elastic Constant Matrix: (Units=GPa)
#
#
# Indices 1 2 3 4 5 6 
#
# 1 60.7152 16.8976 34.0691 0.0000 -9.4981 0.0000
# 2 16.8976 87.3775 46.8846 0.0000 -9.2230 0.0000
# 3 34.0691 46.8846 87.7348 0.0000 -18.8713 -0.0001
# 4 0.0000 0.0000 0.0000 42.7007 0.0000 -26.3825
# 5 -9.4981 -9.2230 -18.8713 0.0000 20.3545 0.0000
# 6 0.0000 0.0000 -0.0001 -26.3825 0.0000 -17.1745
#
#
#
# Elastic Compliance Matrix: (Units=1/GPa)
#
#
# Indices 1 2 3 4 5 6 
#
# 1 0.021198 0.000406 -0.007846 0.000000 0.002802 0.000000
# 2 0.000406 0.016065 -0.008914 0.000000 -0.000795 0.000000
# 3 -0.007846 -0.008914 0.021924 0.000000 0.012626 0.000000
# 4 0.000000 0.000000 0.000000 0.012015 0.000000 -0.018457
# 5 0.002802 -0.000795 0.012626 0.000000 0.061782 0.000000
# 6 0.000000 0.000000 0.000000 -0.018457 0.000000 -0.029873
#
#
# Mechanical properties :
#
#
# Convention : Reuss Voigt Hill
#
# Bulk Modulus (GPa) = 37.76449 47.94780 42.85614
# Shear Modulus (GPa) = 34.56727 18.37457 26.47092
#
# Velocity S-wave (km/s) = 3.93001 2.86530 3.43911
# Velocity P-wave (km/s) = 6.12102 5.68948 5.90919
#
# Compressibility (1/GPa) = 0.02647990
#
# Stress axis : x y z
#
# Youngs Moduli (GPa) = 47.17369 62.24711 45.61192
#
# Poissons Ratio (x) = -0.02529 0.35788
# Poissons Ratio (y) = -0.01917 0.40658
# Poissons Ratio (z) = 0.37014 0.55486
#
# Static dielectric constant tensor:
#      x y z
#    x 1.867780 0.000000 -0.032780 
#    y 0.000000 1.903230 0.000000 
#    z -0.032780 0.000000 1.857380 
# 
# From -- ./inp_files/289150.got.cif
#   From: 2010.05.17/outbox.cif.g08.bks.cpg/sg15_145_cif.got.tgz:289150.got - 2010.06.03 18:47:42.
