data_PCOD9294175
_publ_section_title
;
Structure prediction by ZEFSAII (Michael W. Deem and Ramdas Pophale) SiO2 
 PCOD9294175
Probable space group: C 2/C
;
_chemical_formula_sum "Si O2"
_cell_formula_units_Z 56
_cell_length_a 24.697850
_cell_length_b 17.036936
_cell_length_c 9.354676
_cell_angle_alpha 90.000000
_cell_angle_beta 41.769561
_cell_angle_gamma 90.000000
_cell_volume 2622.059325
_symmetry_space_group_name_H-M "C 2/C"
_symmetry_group_IT_number 15
_symmetry_cell_setting 'monoclinic'
loop_
_space_group_symop_operation_xyz
x,y,z
-x,y,1/2-z
-x,-y,-z
x,-y,1/2+z
1/2+x,1/2+y,z
1/2-x,1/2+y,1/2-z
1/2-x,1/2-y,-z
1/2+x,1/2-y,1/2+z
loop_
_atom_site_type_symbol
_atom_site_label
_atom_site_fract_x
_atom_site_fract_y
_atom_site_fract_z
Si Si1 0.561036 0.526016 0.758310
Si Si2 0.584916 0.298032 0.174597
Si Si3 0.287834 0.563583 0.646418
Si Si4 0.906604 0.374758 0.286087
Si Si5 0.200109 0.286147 0.228938
Si Si6 0.407854 0.164416 0.101938
Si Si7 0.194425 0.477861 0.587928
O O1 0.500000 0.536926 0.750000
O O2 0.598428 0.612868 0.700811
O O3 0.626089 0.459912 0.587973
O O4 0.500000 0.500000 0.000000
O O5 0.500000 0.290783 0.250000
O O6 0.584906 0.241557 0.313833
O O7 0.657026 0.271835 0.925106
O O8 0.260468 0.653339 0.688477
O O9 0.223019 0.516944 0.677408
O O10 0.273416 0.532460 0.833412
O O11 0.870425 0.332782 0.217344
O O12 0.885148 0.329964 0.477671
O O13 0.867588 0.461279 0.364266
O O14 0.003174 0.375198 0.079543
O O15 0.250000 0.250000 0.000000
O O16 0.347098 0.104823 0.299564
#
# Coordination Sequence:
#
# PCOD9294175 Si02
#       7
#     8   8   8   8   8   8   8
#     4  11  27  50  73  98 133 186 237 286 336 409
#     4  11  24  45  71 100 137 181 230 282 346 408
#     4  11  24  42  70  95 135 176 233 277 342 411
#     4  10  23  39  62  96 137 184 218 272 337 421
#     4  11  25  43  70  98 135 176 226 289 348 405
#     4  11  21  41  63  99 141 174 224 276 337 409
#     4  11  21  39  62 100 136 178 222 273 343 412
#
# _framework density 21.357257000000001
#
# number of rings (size 3 to 8) (size 9 to 14) (size 15 to 20)
#    0.000    1.143    4.286    1.286    8.000    0.000 
#   10.286    1.429    0.000    0.000    0.000    0.000 
#    0.000    0.000    0.000    0.000    0.000    0.000 
#
# Total GULP energy -156399.030526 kJ/mol
# GULP energy per Si atom -5585.679662 kJ/mol
# Density = 2.130865 g / cm^3
# Si number density = 21.357257 Si / 1000 Ang^3
#
#
#
# Elastic Constant Matrix: (Units=GPa)
#
#
# Indices 1 2 3 4 5 6 
#
# 1 42.3913 17.2548 5.4579 0.0000 6.8296 0.0000
# 2 17.2548 87.6337 56.7740 0.0000 1.0288 0.0000
# 3 5.4579 56.7740 163.2671 0.0000 1.9058 0.0000
# 4 0.0000 0.0000 0.0000 28.3974 0.0000 -7.6862
# 5 6.8296 1.0288 1.9058 0.0000 39.7323 0.0000
# 6 0.0000 0.0000 0.0000 -7.6862 0.0000 11.7872
#
#
#
# Elastic Compliance Matrix: (Units=1/GPa)
#
#
# Indices 1 2 3 4 5 6 
#
# 1 0.026588 -0.005990 0.001246 0.000000 -0.004475 0.000000
# 2 -0.005990 0.016080 -0.005401 0.000000 0.000872 0.000000
# 3 0.001246 -0.005401 0.007967 0.000000 -0.000457 0.000000
# 4 0.000000 0.000000 0.000000 0.042762 0.000000 0.027884
# 5 -0.004475 0.000872 -0.000457 0.000000 0.025937 0.000000
# 6 0.000000 0.000000 0.000000 0.027884 0.000000 0.103021
#
#
# Mechanical properties :
#
#
# Convention : Reuss Voigt Hill
#
# Bulk Modulus (GPa) = 32.95472 50.25172 41.60322
# Shear Modulus (GPa) = 19.78163 30.23705 25.00934
#
# Velocity S-wave (km/s) = 3.04670 3.76676 3.42570
# Velocity P-wave (km/s) = 5.27638 6.51906 5.93036
#
# Compressibility (1/GPa) = 0.03034467
#
# Stress axis : x y z
#
# Youngs Moduli (GPa) = 37.61029 62.19023 125.51967
#
# Poissons Ratio (x) = 0.37253 -0.15645
# Poissons Ratio (y) = 0.22529 0.67799
# Poissons Ratio (z) = -0.04688 0.33592
#
# Static dielectric constant tensor:
#      x y z
#    x 1.799410 0.000000 -0.004500 
#    y 0.000000 1.814390 0.000000 
#    z -0.004500 0.000000 1.734270 
# 
# From -- ./inp_files/67128.got.cif
#   From: 2010.05.17/outbox.cif.g08.bks.cpg/sg15_34_cif.got.tgz:67128.got - 2010.06.03 18:47:42.
