data_PCOD9294383
_publ_section_title
;
Structure prediction by ZEFSAII (Michael W. Deem and Ramdas Pophale) SiO2 
 PCOD9294383
Probable space group: C 2/C
;
_chemical_formula_sum "Si O2"
_cell_formula_units_Z 56
_cell_length_a 12.731059
_cell_length_b 19.443042
_cell_length_c 8.927466
_cell_angle_alpha 90.000000
_cell_angle_beta 101.629597
_cell_angle_gamma 90.000000
_cell_volume 2164.455406
_symmetry_space_group_name_H-M "C 2/C"
_symmetry_group_IT_number 15
_symmetry_cell_setting 'monoclinic'
loop_
_space_group_symop_operation_xyz
x,y,z
-x,y,1/2-z
-x,-y,-z
x,-y,1/2+z
1/2+x,1/2+y,z
1/2-x,1/2+y,1/2-z
1/2-x,1/2-y,-z
1/2+x,1/2-y,1/2+z
loop_
_atom_site_type_symbol
_atom_site_label
_atom_site_fract_x
_atom_site_fract_y
_atom_site_fract_z
Si Si1 0.340138 0.237592 0.770460
Si Si2 0.755967 0.911827 0.582400
Si Si3 0.000000 0.089794 0.250000
Si Si4 0.626857 0.097384 0.555361
Si Si5 0.000000 0.207676 0.750000
Si Si6 0.857139 0.508153 0.190230
Si Si7 0.132254 0.268616 0.545521
Si Si8 0.855868 0.127791 0.481339
O O1 0.382519 0.173510 0.877776
O O2 0.224420 0.223734 0.657340
O O3 0.402640 0.252113 0.632177
O O4 0.327915 0.304409 0.871228
O O5 0.883421 0.901208 0.627077
O O6 0.718494 0.947338 0.724348
O O7 0.684386 0.843199 0.554528
O O8 0.714687 0.959674 0.437431
O O9 0.932882 0.083950 0.393457
O O10 0.575386 0.061082 0.394626
O O11 0.750389 0.097113 0.530585
O O12 0.594396 0.046868 0.679911
O O13 0.962046 0.258841 0.868132
O O14 0.920547 0.157599 0.640306
#
# Coordination Sequence:
#
# PCOD9294383 Si02
#       8
#     8   8   4   8   4   8   8   8
#     4  11  22  41  70  92 133 172 217 272 340 392
#     4  11  23  43  64  95 134 178 221 270 319 391
#     4  12  24  40  63  96 143 176 212 272 324 402
#     4  11  21  41  62  96 124 176 215 263 317 391
#     4  12  28  38  67 100 131 172 218 274 344 398
#     4  10  23  40  63  93 128 179 223 261 313 386
#     4  11  23  43  66 100 130 170 217 280 336 390
#     4  12  25  40  62  99 134 172 215 275 333 395
#
# _framework density 25.872557
#
# number of rings (size 3 to 8) (size 9 to 14) (size 15 to 20)
#    0.000    0.857    5.714    1.286    6.000    0.571 
#    0.000    0.000    0.000    0.857    0.000    0.000 
#    0.000    0.000    0.000    0.000    0.000    0.000 
#
# Total GULP energy -155951.394691 kJ/mol
# GULP energy per Si atom -5569.692668 kJ/mol
# Density = 2.581367 g / cm^3
# Si number density = 25.872557 Si / 1000 Ang^3
#
#
#
# Elastic Constant Matrix: (Units=GPa)
#
#
# Indices 1 2 3 4 5 6 
#
# 1 60.0681 12.1792 52.2296 0.0000 -6.2151 0.0000
# 2 12.1792 67.6634 20.9120 0.0000 1.3601 0.0000
# 3 52.2296 20.9120 187.9590 0.0000 1.8142 0.0000
# 4 0.0000 0.0000 0.0000 47.6974 0.0000 -6.7874
# 5 -6.2151 1.3601 1.8142 0.0000 55.6733 0.0000
# 6 0.0000 0.0000 0.0000 -6.7874 0.0000 18.7290
#
#
#
# Elastic Compliance Matrix: (Units=1/GPa)
#
#
# Indices 1 2 3 4 5 6 
#
# 1 0.022678 -0.002260 -0.006077 0.000000 0.002785 0.000000
# 2 -0.002260 0.015536 -0.001095 0.000000 -0.000596 0.000000
# 3 -0.006077 -0.001095 0.007139 0.000000 -0.000884 0.000000
# 4 0.000000 0.000000 0.000000 0.022105 0.000000 0.008011
# 5 0.002785 -0.000596 -0.000884 0.000000 0.018316 0.000000
# 6 0.000000 0.000000 0.000000 0.008011 0.000000 0.056296
#
#
# Mechanical properties :
#
#
# Convention : Reuss Voigt Hill
#
# Bulk Modulus (GPa) = 37.74991 54.03690 45.89340
# Shear Modulus (GPa) = 29.45241 39.77793 34.61517
#
# Velocity S-wave (km/s) = 3.37763 3.92530 3.66171
# Velocity P-wave (km/s) = 5.46201 6.44011 5.97112
#
# Compressibility (1/GPa) = 0.02649013
#
# Stress axis : x y z
#
# Youngs Moduli (GPa) = 44.09500 64.36609 140.06798
#
# Poissons Ratio (x) = 0.14545 0.85123
# Poissons Ratio (y) = 0.09964 0.15335
# Poissons Ratio (z) = 0.26798 0.07047
#
# Static dielectric constant tensor:
#      x y z
#    x 2.174560 0.000000 0.030240 
#    y 0.000000 2.106950 0.000000 
#    z 0.030240 0.000000 2.073000 
# 
# From -- ./inp_files/41282.got.cif
#   From: 2010.05.17/outbox.cif.g08.bks.cpg/sg15_21_cif.got.tgz:41282.got - 2010.06.03 18:47:42.
