data_PCOD9294586
_publ_section_title
;
Structure prediction by ZEFSAII (Michael W. Deem and Ramdas Pophale) SiO2 
 PCOD9294586
Probable space group: C 2/C
;
_chemical_formula_sum "Si O2"
_cell_formula_units_Z 40
_cell_length_a 12.030024
_cell_length_b 21.008177
_cell_length_c 9.842281
_cell_angle_alpha 90.000000
_cell_angle_beta 125.795916
_cell_angle_gamma 90.000000
_cell_volume 2017.567041
_symmetry_space_group_name_H-M "C 2/C"
_symmetry_group_IT_number 15
_symmetry_cell_setting 'monoclinic'
loop_
_space_group_symop_operation_xyz
x,y,z
-x,y,1/2-z
-x,-y,-z
x,-y,1/2+z
1/2+x,1/2+y,z
1/2-x,1/2+y,1/2-z
1/2-x,1/2-y,-z
1/2+x,1/2-y,1/2+z
loop_
_atom_site_type_symbol
_atom_site_label
_atom_site_fract_x
_atom_site_fract_y
_atom_site_fract_z
Si Si1 0.000000 0.891609 0.250000
Si Si2 0.677440 0.504227 0.028418
Si Si3 0.366862 0.155956 0.577465
Si Si4 0.860974 0.540834 0.414442
Si Si5 0.077612 0.870123 0.016096
Si Si6 0.500000 0.281829 0.750000
O O1 0.933969 0.856225 0.332167
O O2 0.108569 0.937299 0.401754
O O3 0.756674 0.523525 0.220512
O O4 0.572571 0.446069 0.984341
O O5 0.790725 0.478620 0.005164
O O6 0.500000 0.127738 0.750000
O O7 0.371457 0.117536 0.439516
O O8 0.226451 0.146636 0.559660
O O9 0.399258 0.231144 0.605792
O O10 0.000000 0.500000 0.500000
O O11 0.966999 0.830791 0.848572
#
# Coordination Sequence:
#
# PCOD9294586 Si02
#       6
#     4   8   8   8   8   4
#     4  12  25  38  60  96 129 166 204 262 330 360
#     4  11  23  37  63  93 134 160 205 262 319 382
#     4   9  22  40  66  91 119 164 217 251 304 379
#     4  11  21  39  64  95 128 161 204 262 321 375
#     4  11  22  41  61  93 123 164 212 260 307 373
#     4  10  23  40  72  84 121 168 224 254 294 382
#
# _framework density 19.825859000000001
#
# number of rings (size 3 to 8) (size 9 to 14) (size 15 to 20)
#    0.600    0.800    2.000    4.800    5.600    0.000 
#    0.000    1.000    4.400    0.000    0.000    0.000 
#    0.000    0.000    0.000    0.000    0.000    0.000 
#
# Total GULP energy -111361.978403 kJ/mol
# GULP energy per Si atom -5568.098920 kJ/mol
# Density = 1.978073 g / cm^3
# Si number density = 19.825859 Si / 1000 Ang^3
#
#
#
# Elastic Constant Matrix: (Units=GPa)
#
#
# Indices 1 2 3 4 5 6 
#
# 1 72.3432 31.6669 20.6989 0.0000 -14.4810 0.0000
# 2 31.6669 111.4500 71.2421 0.0000 -7.4361 0.0000
# 3 20.6989 71.2421 112.5422 0.0000 -18.9590 0.0000
# 4 0.0000 0.0000 0.0000 36.0246 0.0000 -11.5223
# 5 -14.4810 -7.4361 -18.9590 0.0000 39.7661 0.0000
# 6 0.0000 0.0000 0.0000 -11.5223 0.0000 -1.7224
#
#
#
# Elastic Compliance Matrix: (Units=1/GPa)
#
#
# Indices 1 2 3 4 5 6 
#
# 1 0.016895 -0.005120 0.001097 0.000000 0.005718 0.000000
# 2 -0.005120 0.016754 -0.010275 0.000000 -0.003631 0.000000
# 3 0.001097 -0.010275 0.016236 0.000000 0.006219 0.000000
# 4 0.000000 0.000000 0.000000 0.008841 0.000000 -0.059146
# 5 0.005718 -0.003631 0.006219 0.000000 0.029515 0.000000
# 6 0.000000 0.000000 0.000000 -0.059146 0.000000 -0.184921
#
#
# Mechanical properties :
#
#
# Convention : Reuss Voigt Hill
#
# Bulk Modulus (GPa) = 46.97569 60.39457 53.68513
# Shear Modulus (GPa) = -81.98376 26.32883 -27.82747
#
# Velocity S-wave (km/s) = -6.43752 3.64813 -3.75052
# Velocity P-wave (km/s) = 5.61338 6.94794 2.89515
#
# Compressibility (1/GPa) = 0.02128761
#
# Stress axis : x y z
#
# Youngs Moduli (GPa) = 59.18921 59.68889 61.59183
#
# Poissons Ratio (x) = 0.30563 -0.06758
# Poissons Ratio (y) = 0.30307 0.63288
# Poissons Ratio (z) = -0.06494 0.61332
#
# Static dielectric constant tensor:
#      x y z
#    x 1.729790 0.000000 0.025890 
#    y 0.000000 1.795540 0.000000 
#    z 0.025890 0.000000 1.740930 
# 
# From -- ./inp_files/32312.got.cif
#   From: 2010.05.17/outbox.cif.g08.bks.cpg/sg15_17_cif.got.tgz:32312.got - 2010.06.03 18:47:42.
