data_PCOD9294936
_publ_section_title
;
Structure prediction by ZEFSAII (Michael W. Deem and Ramdas Pophale) SiO2 
 PCOD9294936
Probable space group: C 2/C
;
_chemical_formula_sum "Si O2"
_cell_formula_units_Z 64
_cell_length_a 13.136515
_cell_length_b 14.397311
_cell_length_c 28.494900
_cell_angle_alpha 90.000000
_cell_angle_beta 37.605078
_cell_angle_gamma 90.000000
_cell_volume 3288.605957
_symmetry_space_group_name_H-M "C 2/C"
_symmetry_group_IT_number 15
_symmetry_cell_setting 'monoclinic'
loop_
_space_group_symop_operation_xyz
x,y,z
-x,y,1/2-z
-x,-y,-z
x,-y,1/2+z
1/2+x,1/2+y,z
1/2-x,1/2+y,1/2-z
1/2-x,1/2-y,-z
1/2+x,1/2-y,1/2+z
loop_
_atom_site_type_symbol
_atom_site_label
_atom_site_fract_x
_atom_site_fract_y
_atom_site_fract_z
Si Si1 0.931092 0.591160 0.051329
Si Si2 0.268920 0.298526 0.442614
Si Si3 0.143430 0.353129 0.087181
Si Si4 0.838149 0.967414 0.088363
Si Si5 0.854520 0.850541 0.915098
Si Si6 0.629655 0.012611 0.324038
Si Si7 0.925074 0.366471 0.826821
Si Si8 0.950954 0.041683 0.653299
O O1 0.785695 0.635004 0.073232
O O2 0.867315 0.560295 0.126069
O O3 0.000000 0.500000 0.000000
O O4 0.088163 0.659759 0.997323
O O5 0.250000 0.250000 0.500000
O O6 0.331751 0.218471 0.385211
O O7 0.404812 0.381856 0.391891
O O8 0.249151 0.382908 0.093981
O O9 0.066313 0.250909 0.120588
O O10 0.010631 0.432795 0.124969
O O11 0.267515 0.351251 0.997715
O O12 0.884195 0.944456 0.124800
O O13 0.706962 0.051657 0.134861
O O14 0.000000 0.000000 0.000000
O O15 0.972916 0.938732 0.870963
O O16 0.798493 0.962572 0.245486
O O17 0.565839 0.089188 0.309581
O O18 0.000000 0.337053 0.750000
#
# Coordination Sequence:
#
# PCOD9294936 Si02
#       8
#     8   8   8   8   8   8   8   8
#     4  12  24  46  69  93 136 182 220 277 334 399
#     4  12  26  44  71 101 134 177 236 273 334 412
#     4  10  23  41  69  98 132 169 222 278 326 395
#     4  11  22  40  70  96 129 177 225 272 330 396
#     4  11  24  44  66 100 131 173 226 269 333 399
#     4  11  24  46  66  98 142 170 218 282 339 396
#     4  11  24  44  68 102 136 173 222 287 341 392
#     4  12  25  43  67 100 136 177 218 276 340 396
#
# _framework density 19.461134000000001
#
# number of rings (size 3 to 8) (size 9 to 14) (size 15 to 20)
#    0.000    0.750    6.250    0.750    3.500    2.500 
#    0.000    1.250    0.000    0.000    0.000    0.000 
#    0.000    0.000    0.000    0.000    0.000    0.000 
#
# Total GULP energy -178895.860951 kJ/mol
# GULP energy per Si atom -5590.495655 kJ/mol
# Density = 1.941684 g / cm^3
# Si number density = 19.461134 Si / 1000 Ang^3
#
#
#
# Elastic Constant Matrix: (Units=GPa)
#
#
# Indices 1 2 3 4 5 6 
#
# 1 98.2468 20.5376 13.2265 0.0000 17.5354 0.0000
# 2 20.5376 87.9286 6.5242 0.0000 11.3685 0.0000
# 3 13.2265 6.5242 82.7195 0.0001 20.6177 -0.0001
# 4 0.0000 0.0000 0.0001 27.9187 0.0001 5.6480
# 5 17.5354 11.3685 20.6177 0.0001 31.4258 0.0000
# 6 0.0000 0.0000 -0.0001 5.6480 0.0000 20.6965
#
#
#
# Elastic Compliance Matrix: (Units=1/GPa)
#
#
# Indices 1 2 3 4 5 6 
#
# 1 0.011627 -0.001973 -0.000316 0.000000 -0.005567 0.000000
# 2 -0.001973 0.012267 0.000215 0.000000 -0.003478 0.000000
# 3 -0.000316 0.000215 0.014463 0.000000 -0.009390 0.000000
# 4 0.000000 0.000000 0.000000 0.037911 0.000000 -0.010346
# 5 -0.005567 -0.003478 -0.009390 0.000000 0.042346 0.000000
# 6 0.000000 0.000000 0.000000 -0.010346 0.000000 0.051141
#
#
# Mechanical properties :
#
#
# Convention : Reuss Voigt Hill
#
# Bulk Modulus (GPa) = 29.23132 38.83018 34.03075
# Shear Modulus (GPa) = 26.98237 31.24866 29.11551
#
# Velocity S-wave (km/s) = 3.72758 4.01146 3.87212
# Velocity P-wave (km/s) = 5.79478 6.43830 6.12500
#
# Compressibility (1/GPa) = 0.03420988
#
# Stress axis : x y z
#
# Youngs Moduli (GPa) = 86.00735 81.51729 69.14132
#
# Poissons Ratio (x) = 0.16079 0.02185
# Poissons Ratio (y) = 0.16965 -0.01485
# Poissons Ratio (z) = 0.02718 -0.01751
#
# Static dielectric constant tensor:
#      x y z
#    x 1.677830 0.000000 -0.007410 
#    y 0.000000 1.662190 0.000000 
#    z -0.007410 0.000000 1.644130 
# 
# From -- ./inp_files/293053.got.cif
#   From: 2010.05.17/outbox.cif.g08.bks.cpg/sg15_147_cif.got.tgz:293053.got - 2010.06.03 18:47:42.
