data_PCOD9294546
_publ_section_title
;
Structure prediction by ZEFSAII (Michael W. Deem and Ramdas Pophale) SiO2 
 PCOD9294546
Probable space group: C 2/C
;
_chemical_formula_sum "Si O2"
_cell_formula_units_Z 48
_cell_length_a 14.154435
_cell_length_b 9.442937
_cell_length_c 20.009378
_cell_angle_alpha 90.000000
_cell_angle_beta 132.044754
_cell_angle_gamma 90.000000
_cell_volume 1986.099462
_symmetry_space_group_name_H-M "C 2/C"
_symmetry_group_IT_number 15
_symmetry_cell_setting 'monoclinic'
loop_
_space_group_symop_operation_xyz
x,y,z
-x,y,1/2-z
-x,-y,-z
x,-y,1/2+z
1/2+x,1/2+y,z
1/2-x,1/2+y,1/2-z
1/2-x,1/2-y,-z
1/2+x,1/2-y,1/2+z
loop_
_atom_site_type_symbol
_atom_site_label
_atom_site_fract_x
_atom_site_fract_y
_atom_site_fract_z
Si Si1 0.328243 0.614657 0.198300
Si Si2 0.093038 0.170650 0.399362
Si Si3 0.917472 0.083315 0.517956
Si Si4 0.006063 0.425012 0.075799
Si Si5 0.755167 0.197907 0.643205
Si Si6 0.916942 0.311207 0.829082
O O1 0.451052 0.627344 0.304225
O O2 0.341997 0.711363 0.139576
O O3 0.314700 0.457342 0.158811
O O4 0.203709 0.652391 0.180939
O O5 0.087054 0.300625 0.447883
O O6 0.142872 0.036741 0.464247
O O7 0.817568 0.199214 0.442407
O O8 0.014147 0.175515 0.608269
O O9 0.000000 0.000000 0.500000
O O10 0.142766 0.347759 0.141182
O O11 0.995681 0.551646 0.122947
O O12 0.000000 0.500000 0.000000
O O13 0.863533 0.284896 0.731119
#
# Coordination Sequence:
#
# PCOD9294546 Si02
#       6
#     8   8   8   8   8   8
#     4  10  23  40  68  97 136 170 214 276 338 385
#     4  11  22  42  67  99 136 171 215 275 338 393
#     4  12  22  39  69  98 124 175 228 265 322 401
#     4  11  21  40  65  96 131 167 221 276 319 393
#     4  11  22  39  67  97 129 177 225 270 323 400
#     4  11  22  41  68  93 128 173 224 269 320 398
#
# _framework density 24.167973
#
# number of rings (size 3 to 8) (size 9 to 14) (size 15 to 20)
#    0.000    1.000    6.667    0.000    2.333    0.667 
#    0.000    7.500   11.000    2.000    0.000    0.000 
#    0.000    0.000    0.000    0.000    0.000    0.000 
#
# Total GULP energy -134129.374587 kJ/mol
# GULP energy per Si atom -5588.723941 kJ/mol
# Density = 2.411297 g / cm^3
# Si number density = 24.167973 Si / 1000 Ang^3
#
#
#
# Elastic Constant Matrix: (Units=GPa)
#
#
# Indices 1 2 3 4 5 6 
#
# 1 34.9680 15.8805 9.8022 0.0000 -2.3719 0.0000
# 2 15.8805 117.9398 42.0068 0.0000 -0.9464 0.0000
# 3 9.8022 42.0068 122.9897 0.0000 15.2533 0.0000
# 4 0.0000 0.0000 0.0000 48.1311 0.0000 1.8250
# 5 -2.3719 -0.9464 15.2533 0.0000 29.4782 0.0000
# 6 0.0000 0.0000 0.0000 1.8250 0.0000 20.3555
#
#
#
# Elastic Compliance Matrix: (Units=1/GPa)
#
#
# Indices 1 2 3 4 5 6 
#
# 1 0.030889 -0.003545 -0.001651 0.000000 0.003226 0.000000
# 2 -0.003545 0.010190 -0.003423 0.000000 0.001813 0.000000
# 3 -0.001651 -0.003423 0.010110 0.000000 -0.005474 0.000000
# 4 0.000000 0.000000 0.000000 0.020847 0.000000 -0.001869
# 5 0.003226 0.001813 -0.005474 0.000000 0.037074 0.000000
# 6 0.000000 0.000000 0.000000 -0.001869 0.000000 0.049294
#
#
# Mechanical properties :
#
#
# Convention : Reuss Voigt Hill
#
# Bulk Modulus (GPa) = 29.45377 45.69737 37.57557
# Shear Modulus (GPa) = 26.74371 33.47350 30.10861
#
# Velocity S-wave (km/s) = 3.33013 3.72564 3.53343
# Velocity P-wave (km/s) = 5.19615 6.12017 5.67699
#
# Compressibility (1/GPa) = 0.03395151
#
# Stress axis : x y z
#
# Youngs Moduli (GPa) = 32.37373 98.13686 98.90958
#
# Poissons Ratio (x) = 0.34792 0.16330
# Poissons Ratio (y) = 0.11477 0.33853
# Poissons Ratio (z) = 0.05345 0.33588
#
# Static dielectric constant tensor:
#      x y z
#    x 1.972030 0.000000 -0.003000 
#    y 0.000000 1.931570 0.000000 
#    z -0.003000 0.000000 1.967470 
# 
# From -- ./inp_files/247651.got.cif
#   From: 2010.05.17/outbox.cif.g08.bks.cpg/sg15_124_cif.got.tgz:247651.got - 2010.06.03 18:47:42.
