data_PCOD9294168
_publ_section_title
;
Structure prediction by ZEFSAII (Michael W. Deem and Ramdas Pophale) SiO2 
 PCOD9294168
Probable space group: C 2/C
;
_chemical_formula_sum "Si O2"
_cell_formula_units_Z 56
_cell_length_a 17.395693
_cell_length_b 18.267470
_cell_length_c 9.200905
_cell_angle_alpha 90.000000
_cell_angle_beta 99.265981
_cell_angle_gamma 90.000000
_cell_volume 2885.668858
_symmetry_space_group_name_H-M "C 2/C"
_symmetry_group_IT_number 15
_symmetry_cell_setting 'monoclinic'
loop_
_space_group_symop_operation_xyz
x,y,z
-x,y,1/2-z
-x,-y,-z
x,-y,1/2+z
1/2+x,1/2+y,z
1/2-x,1/2+y,1/2-z
1/2-x,1/2-y,-z
1/2+x,1/2-y,1/2+z
loop_
_atom_site_type_symbol
_atom_site_label
_atom_site_fract_x
_atom_site_fract_y
_atom_site_fract_z
Si Si1 0.145352 0.284941 0.617175
Si Si2 0.277564 0.165178 0.662110
Si Si3 0.776807 0.025620 0.008725
Si Si4 0.742041 0.896966 0.795896
Si Si5 0.459268 0.438852 0.582495
Si Si6 0.493638 0.700611 0.584828
Si Si7 0.825667 0.239747 0.420442
O O1 0.197860 0.212137 0.658686
O O2 0.176996 0.310386 0.469770
O O3 0.166857 0.346418 0.742982
O O4 0.055342 0.266146 0.592030
O O5 0.254837 0.082290 0.622566
O O6 0.327828 0.190273 0.815188
O O7 0.753469 0.945524 0.943261
O O8 0.746418 0.050650 0.157012
O O9 0.868786 0.039608 0.052370
O O10 0.808926 0.833894 0.819664
O O11 0.500000 0.439932 0.750000
O O12 0.500000 0.500000 0.500000
O O13 0.476505 0.360466 0.517052
O O14 0.500000 0.670129 0.750000
O O15 0.405885 0.725474 0.526786
O O16 0.750000 0.250000 0.500000
#
# Coordination Sequence:
#
# PCOD9294168 Si02
#       7
#     8   8   8   8   8   8   8
#     4   9  19  39  61  87 122 159 214 253 310 370
#     4   9  19  37  61  87 116 164 209 257 304 371
#     4  11  21  39  62  87 127 171 201 258 317 366
#     4  10  23  39  62  93 123 166 214 251 310 386
#     4  12  25  38  57  90 134 166 203 249 312 391
#     4  12  24  38  62  91 126 166 204 268 316 365
#     4  11  24  39  62  94 125 160 218 260 313 384
#
# _framework density 19.406245999999999
#
# number of rings (size 3 to 8) (size 9 to 14) (size 15 to 20)
#    0.000    1.429    1.429    5.571    4.000    0.000 
#    0.000    0.000    0.000    0.857    7.429    0.000 
#    0.000    0.000    0.000    0.000    0.000    0.000 
#
# Total GULP energy -156300.654592 kJ/mol
# GULP energy per Si atom -5582.166235 kJ/mol
# Density = 1.936208 g / cm^3
# Si number density = 19.406246 Si / 1000 Ang^3
#
#
#
# Elastic Constant Matrix: (Units=GPa)
#
#
# Indices 1 2 3 4 5 6 
#
# 1 78.8438 34.0796 29.7785 0.0000 25.5309 0.0000
# 2 34.0796 79.6183 40.3880 0.0000 12.3880 0.0000
# 3 29.7785 40.3880 122.8369 0.0000 21.5614 0.0000
# 4 0.0000 0.0000 0.0000 45.1226 0.0000 3.7259
# 5 25.5309 12.3880 21.5614 0.0000 26.3442 0.0000
# 6 0.0000 0.0000 0.0000 3.7259 0.0000 16.5688
#
#
#
# Elastic Compliance Matrix: (Units=1/GPa)
#
#
# Indices 1 2 3 4 5 6 
#
# 1 0.021054 -0.006313 0.000038 0.000000 -0.017466 0.000000
# 2 -0.006313 0.017255 -0.004429 0.000000 0.001629 0.000000
# 3 0.000038 -0.004429 0.010777 0.000000 -0.006774 0.000000
# 4 0.000000 0.000000 0.000000 0.022581 0.000000 -0.005078
# 5 -0.017466 0.001629 -0.006774 0.000000 0.059664 0.000000
# 6 0.000000 0.000000 0.000000 -0.005078 0.000000 0.061496
#
#
# Mechanical properties :
#
#
# Convention : Reuss Voigt Hill
#
# Bulk Modulus (GPa) = 36.13115 54.42123 45.27619
# Shear Modulus (GPa) = 22.37511 29.41065 25.89288
#
# Velocity S-wave (km/s) = 3.39925 3.89720 3.65671
# Velocity P-wave (km/s) = 5.83654 6.95377 6.41951
#
# Compressibility (1/GPa) = 0.02767695
#
# Stress axis : x y z
#
# Youngs Moduli (GPa) = 47.49760 57.95274 92.78984
#
# Poissons Ratio (x) = 0.36587 -0.00349
# Poissons Ratio (y) = 0.29987 0.41096
# Poissons Ratio (z) = -0.00179 0.25667
#
# Static dielectric constant tensor:
#      x y z
#    x 1.640000 0.000000 -0.000780 
#    y 0.000000 1.688530 0.000000 
#    z -0.000780 0.000000 1.712520 
# 
# From -- ./inp_files/49182.got.cif
#   From: 2010.05.17/outbox.cif.g08.bks.cpg/sg15_25_cif.got.tgz:49182.got - 2010.06.03 18:47:42.
