data_PCOD9294216
_publ_section_title
;
Structure prediction by ZEFSAII (Michael W. Deem and Ramdas Pophale) SiO2 
 PCOD9294216
Probable space group: C 2/C
;
_chemical_formula_sum "Si O2"
_cell_formula_units_Z 40
_cell_length_a 6.671623
_cell_length_b 19.143368
_cell_length_c 14.019524
_cell_angle_alpha 90.000000
_cell_angle_beta 66.834189
_cell_angle_gamma 90.000000
_cell_volume 1646.165735
_symmetry_space_group_name_H-M "C 2/C"
_symmetry_group_IT_number 15
_symmetry_cell_setting 'monoclinic'
loop_
_space_group_symop_operation_xyz
x,y,z
-x,y,1/2-z
-x,-y,-z
x,-y,1/2+z
1/2+x,1/2+y,z
1/2-x,1/2+y,1/2-z
1/2-x,1/2-y,-z
1/2+x,1/2-y,1/2+z
loop_
_atom_site_type_symbol
_atom_site_label
_atom_site_fract_x
_atom_site_fract_y
_atom_site_fract_z
Si Si1 0.968949 0.170899 0.040396
Si Si2 0.847700 0.032263 0.446902
Si Si3 0.936704 0.489217 0.151194
Si Si4 0.661550 0.775805 0.139022
Si Si5 0.514822 0.843828 0.857735
O O1 0.024351 0.104677 0.098160
O O2 0.010885 0.245053 0.083413
O O3 0.722737 0.167208 0.052559
O O4 0.155415 0.169586 0.925599
O O5 0.791319 0.982786 0.366500
O O6 0.619445 0.042614 0.546712
O O7 0.000000 0.000000 0.500000
O O8 0.000000 0.471493 0.250000
O O9 0.944581 0.573911 0.145485
O O10 0.500000 0.800906 0.250000
O O11 0.799336 0.706873 0.140221
O O12 0.500000 0.824779 0.750000
#
# Coordination Sequence:
#
# PCOD9294216 Si02
#       5
#     8   8   8   8   8
#     4  11  23  39  64  92 128 172 209 272 327 386
#     4  11  22  41  65  94 130 167 217 268 332 386
#     4  10  23  39  64  95 128 170 219 272 320 393
#     4  11  23  40  62  91 129 168 216 267 327 389
#     4  11  20  38  64  93 122 165 223 267 320 388
#
# _framework density 24.298888000000002
#
# number of rings (size 3 to 8) (size 9 to 14) (size 15 to 20)
#    0.000    1.200    6.000    0.600    0.000    1.600 
#    0.000    0.000    4.400    0.000    0.000    0.000 
#    0.000    0.000    0.000    0.000    0.000    0.000 
#
# Total GULP energy -111560.310733 kJ/mol
# GULP energy per Si atom -5578.015537 kJ/mol
# Density = 2.424358 g / cm^3
# Si number density = 24.298888 Si / 1000 Ang^3
#
#
#
# Elastic Constant Matrix: (Units=GPa)
#
#
# Indices 1 2 3 4 5 6 
#
# 1 122.4914 15.7895 29.3038 0.0000 14.0061 0.0000
# 2 15.7895 50.1675 -8.2973 0.0000 2.4801 0.0000
# 3 29.3038 -8.2973 109.1854 0.0000 2.6561 0.0000
# 4 0.0000 0.0000 0.0000 20.5434 0.0000 -5.4787
# 5 14.0061 2.4801 2.6561 0.0000 52.6579 0.0000
# 6 0.0000 0.0000 0.0000 -5.4787 0.0000 27.5997
#
#
#
# Elastic Compliance Matrix: (Units=1/GPa)
#
#
# Indices 1 2 3 4 5 6 
#
# 1 0.009507 -0.003337 -0.002751 0.000000 -0.002233 0.000000
# 2 -0.003337 0.021414 0.002529 0.000000 -0.000249 0.000000
# 3 -0.002751 0.002529 0.010087 0.000000 0.000104 0.000000
# 4 0.000000 0.000000 0.000000 0.051398 0.000000 0.010203
# 5 -0.002233 -0.000249 0.000104 0.000000 0.019591 0.000000
# 6 0.000000 0.000000 0.000000 0.010203 0.000000 0.038258
#
#
# Mechanical properties :
#
#
# Convention : Reuss Voigt Hill
#
# Bulk Modulus (GPa) = 29.50694 39.49294 34.49994
# Shear Modulus (GPa) = 29.64378 36.49675 33.07027
#
# Velocity S-wave (km/s) = 3.49659 3.87976 3.69315
# Velocity P-wave (km/s) = 5.33584 6.02979 5.69340
#
# Compressibility (1/GPa) = 0.03389033
#
# Stress axis : x y z
#
# Youngs Moduli (GPa) = 105.18125 46.69838 99.14046
#
# Poissons Ratio (x) = 0.15583 0.27273
# Poissons Ratio (y) = 0.35098 -0.25072
# Poissons Ratio (z) = 0.28934 -0.11810
#
# Static dielectric constant tensor:
#      x y z
#    x 1.979580 0.000000 0.127830 
#    y 0.000000 1.947710 0.000000 
#    z 0.127830 0.000000 1.954640 
# 
# From -- ./inp_files/129036.got.cif
#   From: 2010.05.17/outbox.cif.g08.bks.cpg/sg15_65_cif.got.tgz:129036.got - 2010.06.03 18:47:42.
