data_PCOD9294385
_publ_section_title
;
Structure prediction by ZEFSAII (Michael W. Deem and Ramdas Pophale) SiO2 
 PCOD9294385
Probable space group: C 2/C
;
_chemical_formula_sum "Si O2"
_cell_formula_units_Z 40
_cell_length_a 9.918512
_cell_length_b 8.543237
_cell_length_c 21.102269
_cell_angle_alpha 90.000000
_cell_angle_beta 74.452647
_cell_angle_gamma 90.000000
_cell_volume 1722.697205
_symmetry_space_group_name_H-M "C 2/C"
_symmetry_group_IT_number 15
_symmetry_cell_setting 'monoclinic'
loop_
_space_group_symop_operation_xyz
x,y,z
-x,y,1/2-z
-x,-y,-z
x,-y,1/2+z
1/2+x,1/2+y,z
1/2-x,1/2+y,1/2-z
1/2-x,1/2-y,-z
1/2+x,1/2-y,1/2+z
loop_
_atom_site_type_symbol
_atom_site_label
_atom_site_fract_x
_atom_site_fract_y
_atom_site_fract_z
Si Si1 0.948408 0.129241 0.691673
Si Si2 0.220282 0.314293 0.138336
Si Si3 0.172906 0.668149 0.109647
Si Si4 0.470775 0.178086 0.025797
Si Si5 0.526328 0.670903 0.391174
O O1 0.786624 0.170611 0.700091
O O2 0.000000 0.054395 0.750000
O O3 0.048225 0.278939 0.671471
O O4 0.972547 0.009025 0.630477
O O5 0.204432 0.484079 0.107607
O O6 0.332453 0.205721 0.086113
O O7 0.065877 0.248995 0.151296
O O8 0.108342 0.716141 0.050404
O O9 0.317941 0.737879 0.117089
O O10 0.455999 0.291449 0.967431
O O11 0.500000 0.000000 0.000000
#
# Coordination Sequence:
#
# PCOD9294385 Si02
#       5
#     8   8   8   8   8
#     4  10  25  45  62  86 125 164 216 271 314 372
#     4  10  23  41  62  97 126 164 215 251 316 393
#     4  10  23  40  63  95 126 169 208 258 323 379
#     4  11  22  38  65  95 138 167 201 258 319 389
#     4  11  23  39  67  96 125 166 211 256 319 388
#
# _framework density 23.219401000000001
#
# number of rings (size 3 to 8) (size 9 to 14) (size 15 to 20)
#    0.000    1.600    2.000    1.200    2.800   10.400 
#    0.000    1.000    0.000    0.000    0.000    0.000 
#    0.000    0.000    0.000    0.000    0.000    0.000 
#
# Total GULP energy -111494.763127 kJ/mol
# GULP energy per Si atom -5574.738156 kJ/mol
# Density = 2.316655 g / cm^3
# Si number density = 23.219401 Si / 1000 Ang^3
#
#
#
# Elastic Constant Matrix: (Units=GPa)
#
#
# Indices 1 2 3 4 5 6 
#
# 1 192.2263 26.4027 29.5138 0.0000 51.7994 0.0000
# 2 26.4027 70.6315 25.4038 0.0000 9.9324 0.0000
# 3 29.5138 25.4038 59.6927 0.0000 31.3678 0.0000
# 4 0.0000 0.0000 0.0000 17.5686 0.0000 5.9935
# 5 51.7994 9.9324 31.3678 0.0000 34.2347 0.0000
# 6 0.0000 0.0000 0.0000 5.9935 0.0000 29.2894
#
#
#
# Elastic Compliance Matrix: (Units=1/GPa)
#
#
# Indices 1 2 3 4 5 6 
#
# 1 0.010405 -0.003663 0.007963 0.000000 -0.021976 0.000000
# 2 -0.003663 0.018192 -0.011706 0.000000 0.010990 0.000000
# 3 0.007963 -0.011706 0.043092 0.000000 -0.048135 0.000000
# 4 0.000000 0.000000 0.000000 0.061191 0.000000 -0.012522
# 5 -0.021976 0.010990 -0.048135 0.000000 0.103376 0.000000
# 6 0.000000 0.000000 0.000000 -0.012522 0.000000 0.036704
#
#
# Mechanical properties :
#
#
# Convention : Reuss Voigt Hill
#
# Bulk Modulus (GPa) = 17.58233 53.91013 35.74623
# Shear Modulus (GPa) = 16.30086 32.30057 24.30071
#
# Velocity S-wave (km/s) = 2.65247 3.73379 3.23858
# Velocity P-wave (km/s) = 4.11941 6.46965 5.42337
#
# Compressibility (1/GPa) = 0.05687527
#
# Stress axis : x y z
#
# Youngs Moduli (GPa) = 96.11086 54.96885 23.20632
#
# Poissons Ratio (x) = 0.20135 -0.18478
# Poissons Ratio (y) = 0.35205 0.27166
# Poissons Ratio (z) = -0.76530 0.64348
#
# Static dielectric constant tensor:
#      x y z
#    x 1.943830 0.000000 -0.000400 
#    y 0.000000 1.914610 0.000000 
#    z -0.000400 0.000000 1.971920 
# 
# From -- ./inp_files/262448.got.cif
#   From: 2010.05.17/outbox.cif.g08.bks.cpg/sg15_132_cif.got.tgz:262448.got - 2010.06.03 18:47:42.
