data_PCOD9294715
_publ_section_title
;
Structure prediction by ZEFSAII (Michael W. Deem and Ramdas Pophale) SiO2 
 PCOD9294715
Probable space group: C 2/C
;
_chemical_formula_sum "Si O2"
_cell_formula_units_Z 44
_cell_length_a 12.294261
_cell_length_b 19.492664
_cell_length_c 9.457745
_cell_angle_alpha 90.000000
_cell_angle_beta 79.150349
_cell_angle_gamma 90.000000
_cell_volume 2226.013388
_symmetry_space_group_name_H-M "C 2/C"
_symmetry_group_IT_number 15
_symmetry_cell_setting 'monoclinic'
loop_
_space_group_symop_operation_xyz
x,y,z
-x,y,1/2-z
-x,-y,-z
x,-y,1/2+z
1/2+x,1/2+y,z
1/2-x,1/2+y,1/2-z
1/2-x,1/2-y,-z
1/2+x,1/2-y,1/2+z
loop_
_atom_site_type_symbol
_atom_site_label
_atom_site_fract_x
_atom_site_fract_y
_atom_site_fract_z
Si Si1 0.000000 0.496847 0.750000
Si Si2 0.500220 0.427972 0.419803
Si Si3 0.693116 0.678755 0.568257
Si Si4 0.577160 0.201738 0.596442
Si Si5 0.824491 0.823983 0.108832
Si Si6 0.586869 0.091162 0.974860
O O1 0.929121 0.543897 0.660171
O O2 0.069342 0.450834 0.623426
O O3 0.500000 0.438725 0.250000
O O4 0.500000 0.500000 0.500000
O O5 0.406283 0.368327 0.474604
O O6 0.617239 0.395261 0.431582
O O7 0.750000 0.750000 0.500000
O O8 0.652392 0.696636 0.735389
O O9 0.795046 0.626545 0.554036
O O10 0.500000 0.217281 0.750000
O O11 0.693641 0.170820 0.618548
O O12 0.616838 0.268614 0.504524
O O13 0.508114 0.149269 0.517165
#
# Coordination Sequence:
#
# PCOD9294715 Si02
#       6
#     4   8   8   8   8   8
#     4  10  24  38  62  92 128 172 206 272 322 390
#     4  10  24  44  63  93 132 175 217 271 326 402
#     4  11  23  41  66  93 130 170 219 272 326 391
#     4  11  21  40  67  94 132 165 219 278 326 386
#     4  10  23  41  64  96 131 170 214 273 328 394
#     4  11  22  41  61  95 128 168 219 267 328 383
#
# _framework density 19.766278
#
# number of rings (size 3 to 8) (size 9 to 14) (size 15 to 20)
#    0.000    1.455    2.727    1.091    2.545    6.545 
#    3.273    0.000    0.000    0.000    0.000    0.000 
#    0.000    0.000    0.000    0.000    0.000    0.000 
#
# Total GULP energy -122689.352256 kJ/mol
# GULP energy per Si atom -5576.788739 kJ/mol
# Density = 1.972129 g / cm^3
# Si number density = 19.766278 Si / 1000 Ang^3
#
#
#
# Elastic Constant Matrix: (Units=GPa)
#
#
# Indices 1 2 3 4 5 6 
#
# 1 123.7494 43.5494 46.8506 0.0000 -18.1795 0.0000
# 2 43.5494 64.2608 51.9219 0.0000 -28.5496 0.0000
# 3 46.8506 51.9219 90.8947 0.0000 -20.6087 0.0000
# 4 0.0000 0.0000 0.0000 205.2894 0.0000 37.3065
# 5 -18.1795 -28.5496 -20.6087 0.0000 21.4618 0.0000
# 6 0.0000 0.0000 0.0000 37.3065 0.0000 50.8148
#
#
#
# Elastic Compliance Matrix: (Units=1/GPa)
#
#
# Indices 1 2 3 4 5 6 
#
# 1 0.010939 -0.005664 -0.002570 0.000000 -0.000736 0.000000
# 2 -0.005664 0.058999 -0.017993 0.000000 0.056408 0.000000
# 3 -0.002570 -0.017993 0.021328 0.000000 -0.005633 0.000000
# 4 0.000000 0.000000 0.000000 0.005621 0.000000 -0.004127
# 5 -0.000736 0.056408 -0.005633 0.000000 0.115599 0.000000
# 6 0.000000 0.000000 0.000000 -0.004127 0.000000 0.022709
#
#
# Mechanical properties :
#
#
# Convention : Reuss Voigt Hill
#
# Bulk Modulus (GPa) = 25.76554 62.61652 44.19103
# Shear Modulus (GPa) = 16.63414 64.61874 40.62644
#
# Velocity S-wave (km/s) = 2.90408 5.72384 4.53850
# Velocity P-wave (km/s) = 4.93035 8.68507 7.06182
#
# Compressibility (1/GPa) = 0.03881153
#
# Stress axis : x y z
#
# Youngs Moduli (GPa) = 91.41748 16.94932 46.88762
#
# Poissons Ratio (x) = 0.09600 0.12049
# Poissons Ratio (y) = 0.51779 0.84367
# Poissons Ratio (z) = 0.23492 0.30498
#
# Static dielectric constant tensor:
#      x y z
#    x 1.716750 0.000000 0.013260 
#    y 0.000000 1.721030 0.000000 
#    z 0.013260 0.000000 1.707650 
# 
# From -- ./inp_files/30854.got.cif
#   From: 2010.05.17/outbox.cif.g08.bks.cpg/sg15_16_cif.got.tgz:30854.got - 2010.06.03 18:47:42.
