data_PCOD9294019
_publ_section_title
;
Structure prediction by ZEFSAII (Michael W. Deem and Ramdas Pophale) SiO2 
 PCOD9294019
Probable space group: C 2/C
;
_chemical_formula_sum "Si O2"
_cell_formula_units_Z 64
_cell_length_a 9.036163
_cell_length_b 15.325393
_cell_length_c 30.224133
_cell_angle_alpha 90.000000
_cell_angle_beta 132.613175
_cell_angle_gamma 90.000000
_cell_volume 3080.298298
_symmetry_space_group_name_H-M "C 2/C"
_symmetry_group_IT_number 15
_symmetry_cell_setting 'monoclinic'
loop_
_space_group_symop_operation_xyz
x,y,z
-x,y,1/2-z
-x,-y,-z
x,-y,1/2+z
1/2+x,1/2+y,z
1/2-x,1/2+y,1/2-z
1/2-x,1/2-y,-z
1/2+x,1/2-y,1/2+z
loop_
_atom_site_type_symbol
_atom_site_label
_atom_site_fract_x
_atom_site_fract_y
_atom_site_fract_z
Si Si1 0.548316 0.185006 0.125409
Si Si2 0.201561 0.030040 0.624960
Si Si3 0.734721 0.958823 0.959550
Si Si4 0.072276 0.710104 0.815492
Si Si5 0.112205 0.374207 0.490857
Si Si6 0.666267 0.366318 0.440887
Si Si7 0.981543 0.231225 0.101921
Si Si8 0.604958 0.144626 0.315345
O O1 0.469479 0.093814 0.091044
O O2 0.762355 0.214195 0.152577
O O3 0.407949 0.269435 0.086130
O O4 0.549520 0.167933 0.177613
O O5 0.326779 0.119012 0.649975
O O6 0.994907 0.060025 0.607358
O O7 0.179766 0.992283 0.570078
O O8 0.330879 0.956412 0.675567
O O9 0.691994 0.036850 0.984882
O O10 0.854519 0.883676 0.010489
O O11 0.955129 0.738082 0.835966
O O12 0.000000 0.701102 0.750000
O O13 0.073779 0.310862 0.441271
O O14 0.288353 0.332761 0.557051
O O15 0.895390 0.380584 0.471422
O O16 0.184438 0.186175 0.126394
O O17 0.500000 0.175769 0.250000
#
# Coordination Sequence:
#
# PCOD9294019 Si02
#       8
#     8   8   8   8   8   8   8   8
#     4  10  23  38  59  90 120 157 213 251 306 374
#     4  10  23  38  61  93 123 156 214 255 311 368
#     4  11  21  38  60  89 125 164 196 253 314 377
#     4  11  22  42  64  88 120 165 212 262 307 366
#     4  11  23  40  61  92 133 165 200 259 321 381
#     4  11  21  38  60  90 126 164 198 249 316 382
#     4  11  23  40  63  93 125 166 209 255 320 377
#     4  11  22  42  64  88 120 165 212 260 307 369
#
# _framework density 20.777208999999999
#
# number of rings (size 3 to 8) (size 9 to 14) (size 15 to 20)
#    0.000    1.250    2.500    3.750    0.000    3.000 
#    0.000    0.000    0.000    0.750    0.000    0.000 
#    0.000    0.000    0.000    0.000    0.000    0.000 
#
# Total GULP energy -178329.675381 kJ/mol
# GULP energy per Si atom -5572.802356 kJ/mol
# Density = 2.072992 g / cm^3
# Si number density = 20.777209 Si / 1000 Ang^3
#
#
#
# Elastic Constant Matrix: (Units=GPa)
#
#
# Indices 1 2 3 4 5 6 
#
# 1 53.8433 15.4770 10.7820 0.0000 -0.6217 0.0000
# 2 15.4770 84.8334 20.6150 0.0000 -7.8800 0.0000
# 3 10.7820 20.6150 89.8305 0.0000 -27.7302 0.0000
# 4 0.0000 0.0000 0.0000 30.9317 0.0000 1.6431
# 5 -0.6217 -7.8800 -27.7302 0.0000 29.3177 0.0000
# 6 0.0000 0.0000 0.0000 1.6431 0.0000 25.4880
#
#
#
# Elastic Compliance Matrix: (Units=1/GPa)
#
#
# Indices 1 2 3 4 5 6 
#
# 1 0.019993 -0.003299 -0.002522 0.000000 -0.002848 0.000000
# 2 -0.003299 0.013046 -0.002171 0.000000 0.001383 0.000000
# 3 -0.002522 -0.002171 0.016576 0.000000 0.015042 0.000000
# 4 0.000000 0.000000 0.000000 0.032440 0.000000 -0.002091
# 5 -0.002848 0.001383 0.015042 0.000000 0.048648 0.000000
# 6 0.000000 0.000000 0.000000 -0.002091 0.000000 0.039369
#
#
# Mechanical properties :
#
#
# Convention : Reuss Voigt Hill
#
# Bulk Modulus (GPa) = 29.73432 35.80613 32.77022
# Shear Modulus (GPa) = 25.34653 29.25637 27.30145
#
# Velocity S-wave (km/s) = 3.49652 3.75654 3.62886
# Velocity P-wave (km/s) = 5.53561 6.00718 5.77621
#
# Compressibility (1/GPa) = 0.03363118
#
# Stress axis : x y z
#
# Youngs Moduli (GPa) = 50.01793 76.65336 60.32746
#
# Poissons Ratio (x) = 0.25290 0.15213
# Poissons Ratio (y) = 0.16502 0.13096
# Poissons Ratio (z) = 0.12613 0.16640
#
# Static dielectric constant tensor:
#      x y z
#    x 1.763070 0.000000 0.003380 
#    y 0.000000 1.759120 0.000000 
#    z 0.003380 0.000000 1.811360 
# 
# From -- ./inp_files/308247.got.cif
#   From: 2010.05.17/outbox.cif.g08.bks.cpg/sg15_155_cif.got.tgz:308247.got - 2010.06.03 18:47:42.
