data_PCOD9294462
_publ_section_title
;
Structure prediction by ZEFSAII (Michael W. Deem and Ramdas Pophale) SiO2 
 PCOD9294462
Probable space group: C 2/C
;
_chemical_formula_sum "Si O2"
_cell_formula_units_Z 56
_cell_length_a 20.309955
_cell_length_b 11.776338
_cell_length_c 11.433212
_cell_angle_alpha 90.000000
_cell_angle_beta 71.986389
_cell_angle_gamma 90.000000
_cell_volume 2600.520429
_symmetry_space_group_name_H-M "C 2/C"
_symmetry_group_IT_number 15
_symmetry_cell_setting 'monoclinic'
loop_
_space_group_symop_operation_xyz
x,y,z
-x,y,1/2-z
-x,-y,-z
x,-y,1/2+z
1/2+x,1/2+y,z
1/2-x,1/2+y,1/2-z
1/2-x,1/2-y,-z
1/2+x,1/2-y,1/2+z
loop_
_atom_site_type_symbol
_atom_site_label
_atom_site_fract_x
_atom_site_fract_y
_atom_site_fract_z
Si Si1 0.406430 0.462618 0.941678
Si Si2 0.775781 0.975397 0.657179
Si Si3 0.652664 0.082041 0.827059
Si Si4 0.937874 0.628525 0.205617
Si Si5 0.011143 0.165034 0.539728
Si Si6 0.381247 0.686600 0.229449
Si Si7 0.818659 0.672442 0.439331
O O1 0.442783 0.584855 0.900466
O O2 0.404198 0.383190 0.830218
O O3 0.330874 0.475478 0.037326
O O4 0.448087 0.409001 0.026316
O O5 0.815030 0.876656 0.707517
O O6 0.714749 0.933801 0.607241
O O7 0.734394 0.053889 0.769573
O O8 0.635045 0.180904 0.743747
O O9 0.603979 0.971731 0.837665
O O10 0.646716 0.138918 0.957687
O O11 0.881502 0.698780 0.315189
O O12 0.000000 0.576566 0.250000
O O13 0.978676 0.720014 0.105562
O O14 0.058788 0.182498 0.400017
O O15 0.750000 0.750000 0.500000
#
# Coordination Sequence:
#
# PCOD9294462 Si02
#       7
#     8   8   8   8   8   8   8
#     4  10  23  41  67 100 138 178 228 292 358 415
#     4  10  23  40  66 101 129 182 229 285 351 415
#     4  11  25  43  69 100 139 181 236 285 353 416
#     4  11  27  44  70 103 134 186 239 284 350 420
#     4  10  24  43  64  99 135 180 234 287 352 419
#     4  11  22  42  65  96 140 178 228 296 348 414
#     4  11  23  44  68  95 137 182 226 286 347 414
#
# _framework density 21.534151000000001
#
# number of rings (size 3 to 8) (size 9 to 14) (size 15 to 20)
#    0.000    1.429    1.429    2.143    4.000    9.714 
#    0.000    0.000    0.000    0.000    0.000    0.000 
#    0.000    0.000    0.000    0.000    0.000    0.000 
#
# Total GULP energy -156240.149419 kJ/mol
# GULP energy per Si atom -5580.005336 kJ/mol
# Density = 2.148514 g / cm^3
# Si number density = 21.534151 Si / 1000 Ang^3
#
#
#
# Elastic Constant Matrix: (Units=GPa)
#
#
# Indices 1 2 3 4 5 6 
#
# 1 78.4326 11.3082 11.7888 0.0000 -15.0762 0.0000
# 2 11.3082 89.2885 22.3911 0.0000 -7.5862 0.0000
# 3 11.7888 22.3911 52.6796 0.0000 -7.9532 0.0000
# 4 0.0000 0.0000 0.0000 21.1430 0.0000 -4.2985
# 5 -15.0762 -7.5862 -7.9532 0.0000 39.3800 0.0000
# 6 0.0000 0.0000 0.0000 -4.2985 0.0000 43.7971
#
#
#
# Elastic Compliance Matrix: (Units=1/GPa)
#
#
# Indices 1 2 3 4 5 6 
#
# 1 0.014110 -0.000860 -0.002065 0.000000 0.004819 0.000000
# 2 -0.000860 0.012661 -0.005024 0.000000 0.001095 0.000000
# 3 -0.002065 -0.005024 0.021985 0.000000 0.002682 0.000000
# 4 0.000000 0.000000 0.000000 0.048260 0.000000 0.004737
# 5 0.004819 0.001095 0.002682 0.000000 0.027991 0.000000
# 6 0.000000 0.000000 0.000000 0.004737 0.000000 0.023297
#
#
# Mechanical properties :
#
#
# Convention : Reuss Voigt Hill
#
# Bulk Modulus (GPa) = 30.43191 34.59742 32.51466
# Shear Modulus (GPa) = 28.54605 32.52486 30.53545
#
# Velocity S-wave (km/s) = 3.64485 3.89058 3.76972
# Velocity P-wave (km/s) = 5.64587 6.02357 5.83778
#
# Compressibility (1/GPa) = 0.03286024
#
# Stress axis : x y z
#
# Youngs Moduli (GPa) = 70.86935 78.97979 45.48562
#
# Poissons Ratio (x) = 0.06791 0.09391
# Poissons Ratio (y) = 0.06094 0.22851
# Poissons Ratio (z) = 0.14632 0.39679
#
# Static dielectric constant tensor:
#      x y z
#    x 1.807920 0.000000 -0.023520 
#    y 0.000000 1.896260 0.000000 
#    z -0.023520 0.000000 1.857520 
# 
# From -- ./inp_files/111569.got.cif
#   From: 2010.05.17/outbox.cif.g08.bks.cpg/sg15_56_cif.got.tgz:111569.got - 2010.06.03 18:47:42.
