data_PCOD9294055
_publ_section_title
;
Structure prediction by ZEFSAII (Michael W. Deem and Ramdas Pophale) SiO2 
 PCOD9294055
Probable space group: C 2/C
;
_chemical_formula_sum "Si O2"
_cell_formula_units_Z 44
_cell_length_a 12.913465
_cell_length_b 18.497525
_cell_length_c 9.569193
_cell_angle_alpha 90.000000
_cell_angle_beta 84.949741
_cell_angle_gamma 90.000000
_cell_volume 2276.892124
_symmetry_space_group_name_H-M "C 2/C"
_symmetry_group_IT_number 15
_symmetry_cell_setting 'monoclinic'
loop_
_space_group_symop_operation_xyz
x,y,z
-x,y,1/2-z
-x,-y,-z
x,-y,1/2+z
1/2+x,1/2+y,z
1/2-x,1/2+y,1/2-z
1/2-x,1/2-y,-z
1/2+x,1/2-y,1/2+z
loop_
_atom_site_type_symbol
_atom_site_label
_atom_site_fract_x
_atom_site_fract_y
_atom_site_fract_z
Si Si1 0.000000 0.708472 0.750000
Si Si2 0.163400 0.195854 0.072757
Si Si3 0.168775 0.655677 0.239004
Si Si4 0.074970 0.491552 0.861159
Si Si5 0.683065 0.129254 0.904555
Si Si6 0.386484 0.679050 0.717040
O O1 0.933706 0.758289 0.862357
O O2 0.913677 0.665716 0.668193
O O3 0.218985 0.158207 0.197454
O O4 0.250000 0.250000 0.000000
O O5 0.133769 0.151526 0.938386
O O6 0.107980 0.589205 0.317079
O O7 0.116330 0.732935 0.277888
O O8 0.175397 0.644982 0.071100
O O9 0.171323 0.543968 0.876580
O O10 0.000000 0.520091 0.750000
O O11 0.000000 0.500000 0.000000
O O12 0.790923 0.156918 0.827528
O O13 0.500000 0.654835 0.750000
#
# Coordination Sequence:
#
# PCOD9294055 Si02
#       6
#     4   8   8   8   8   8
#     4  12  22  40  66  98 136 172 224 270 344 386
#     4  10  23  38  63  95 132 175 214 276 327 396
#     4  11  24  43  62  99 133 171 223 271 341 391
#     4  12  26  41  66  97 135 177 218 280 340 394
#     4  12  25  40  68  98 133 178 221 279 334 402
#     4  11  24  42  69  95 137 174 225 275 329 400
#
# _framework density 19.324589
#
# number of rings (size 3 to 8) (size 9 to 14) (size 15 to 20)
#    0.000    0.727    6.364    2.182   10.182    0.000 
#    0.000    0.000    2.000    2.182    0.000    0.000 
#    0.000    0.000    0.000    0.000    0.000    0.000 
#
# Total GULP energy -122775.679502 kJ/mol
# GULP energy per Si atom -5580.712705 kJ/mol
# Density = 1.928060 g / cm^3
# Si number density = 19.324589 Si / 1000 Ang^3
#
#
#
# Elastic Constant Matrix: (Units=GPa)
#
#
# Indices 1 2 3 4 5 6 
#
# 1 141.6588 34.6302 56.4390 0.0000 -0.6035 0.0000
# 2 34.6302 68.0861 32.5225 0.0000 -10.6395 0.0000
# 3 56.4390 32.5225 154.1365 0.0000 5.3949 0.0000
# 4 0.0000 0.0000 0.0000 16.9775 0.0000 -9.8782
# 5 -0.6035 -10.6395 5.3949 0.0000 46.7064 0.0000
# 6 0.0000 0.0000 0.0000 -9.8782 0.0000 23.4244
#
#
#
# Elastic Compliance Matrix: (Units=1/GPa)
#
#
# Indices 1 2 3 4 5 6 
#
# 1 0.008890 -0.003368 -0.002532 0.000000 -0.000360 0.000000
# 2 -0.003368 0.018446 -0.002816 0.000000 0.004484 0.000000
# 3 -0.002532 -0.002816 0.008065 0.000000 -0.001606 0.000000
# 4 0.000000 0.000000 0.000000 0.078053 0.000000 0.032915
# 5 -0.000360 0.004484 -0.001606 0.000000 0.022612 0.000000
# 6 0.000000 0.000000 0.000000 0.032915 0.000000 0.056571
#
#
# Mechanical properties :
#
#
# Convention : Reuss Voigt Hill
#
# Bulk Modulus (GPa) = 55.65046 67.89608 61.77327
# Shear Modulus (GPa) = 23.14180 33.44098 28.29139
#
# Velocity S-wave (km/s) = 3.46429 4.16443 3.83039
# Velocity P-wave (km/s) = 6.69791 7.63768 7.18318
#
# Compressibility (1/GPa) = 0.01796930
#
# Stress axis : x y z
#
# Youngs Moduli (GPa) = 112.48786 54.21182 123.99126
#
# Poissons Ratio (x) = 0.18261 0.31392
# Poissons Ratio (y) = 0.37892 0.34911
# Poissons Ratio (z) = 0.28479 0.15264
#
# Static dielectric constant tensor:
#      x y z
#    x 1.716070 0.000000 0.027240 
#    y 0.000000 1.698240 0.000000 
#    z 0.027240 0.000000 1.699250 
# 
# From -- ./inp_files/30862.got.cif
#   From: 2010.05.17/outbox.cif.g08.bks.cpg/sg15_16_cif.got.tgz:30862.got - 2010.06.03 18:47:42.
