data_PCOD9294043
_publ_section_title
;
Structure prediction by ZEFSAII (Michael W. Deem and Ramdas Pophale) SiO2 
 PCOD9294043
Probable space group: C 2/C
;
_chemical_formula_sum "Si O2"
_cell_formula_units_Z 48
_cell_length_a 19.040637
_cell_length_b 27.442488
_cell_length_c 4.870805
_cell_angle_alpha 90.000000
_cell_angle_beta 120.151595
_cell_angle_gamma 90.000000
_cell_volume 2200.750892
_symmetry_space_group_name_H-M "C 2/C"
_symmetry_group_IT_number 15
_symmetry_cell_setting 'monoclinic'
loop_
_space_group_symop_operation_xyz
x,y,z
-x,y,1/2-z
-x,-y,-z
x,-y,1/2+z
1/2+x,1/2+y,z
1/2-x,1/2+y,1/2-z
1/2-x,1/2-y,-z
1/2+x,1/2-y,1/2+z
loop_
_atom_site_type_symbol
_atom_site_label
_atom_site_fract_x
_atom_site_fract_y
_atom_site_fract_z
Si Si1 0.257561 0.632479 0.606317
Si Si2 0.324151 0.470738 0.274133
Si Si3 0.500000 0.435654 0.750000
Si Si4 0.500000 0.362906 0.250000
Si Si5 0.092293 0.669068 0.457102
Si Si6 0.406629 0.234948 0.547002
Si Si7 0.664433 0.318225 0.730074
O O1 0.290013 0.579553 0.587834
O O2 0.163731 0.633814 0.506473
O O3 0.273795 0.673109 0.401739
O O4 0.308331 0.643984 0.981803
O O5 0.298468 0.485184 0.528192
O O6 0.421730 0.465616 0.499051
O O7 0.515852 0.398772 0.532759
O O8 0.579732 0.329708 0.409829
O O9 0.098980 0.686103 0.782930
O O10 0.000000 0.651609 0.250000
O O11 0.104091 0.717486 0.286620
O O12 0.500000 0.254137 0.750000
O O13 0.347808 0.271253 0.597244
#
# Coordination Sequence:
#
# PCOD9294043 Si02
#       7
#     8   8   4   4   8   8   8
#     4  12  25  42  63  90 124 161 209 262 314 365
#     4  12  24  41  61  90 123 161 204 255 309 368
#     4  12  22  41  60  88 122 174 208 242 294 365
#     4  12  22  37  58  88 132 170 210 238 290 363
#     4  10  23  44  64  89 120 161 208 259 320 372
#     4  10  23  38  62  92 125 167 207 252 298 359
#     4  12  24  37  62  92 128 172 205 251 298 354
#
# _framework density 21.810737
#
# number of rings (size 3 to 8) (size 9 to 14) (size 15 to 20)
#    0.000    0.667    3.333    4.500    7.000    4.000 
#    0.000    0.000    0.000    1.000    0.000    0.000 
#    0.000    0.000    0.000    0.000    0.000    0.000 
#
# Total GULP energy -134028.272846 kJ/mol
# GULP energy per Si atom -5584.511369 kJ/mol
# Density = 2.176109 g / cm^3
# Si number density = 21.810737 Si / 1000 Ang^3
#
#
#
# Elastic Constant Matrix: (Units=GPa)
#
#
# Indices 1 2 3 4 5 6 
#
# 1 108.6354 12.0334 30.0502 0.0000 4.2440 0.0000
# 2 12.0334 33.8391 14.0130 0.0000 9.9975 0.0000
# 3 30.0502 14.0130 77.7495 0.0000 -4.6954 0.0000
# 4 0.0000 0.0000 0.0000 27.2759 0.0000 -10.3470
# 5 4.2440 9.9975 -4.6954 0.0000 39.1002 0.0000
# 6 0.0000 0.0000 0.0000 -10.3470 0.0000 10.3741
#
#
#
# Elastic Compliance Matrix: (Units=1/GPa)
#
#
# Indices 1 2 3 4 5 6 
#
# 1 0.010502 -0.001829 -0.003798 0.000000 -0.001128 0.000000
# 2 -0.001829 0.035674 -0.006307 0.000000 -0.009680 0.000000
# 3 -0.003798 -0.006307 0.015703 0.000000 0.003911 0.000000
# 4 0.000000 0.000000 0.000000 0.058976 0.000000 0.058822
# 5 -0.001128 -0.009680 0.003911 0.000000 0.028643 0.000000
# 6 0.000000 0.000000 0.000000 0.058822 0.000000 0.155062
#
#
# Mechanical properties :
#
#
# Convention : Reuss Voigt Hill
#
# Bulk Modulus (GPa) = 26.30804 36.93524 31.62164
# Shear Modulus (GPa) = 14.65858 26.29187 20.47522
#
# Velocity S-wave (km/s) = 2.59526 3.47573 3.06726
# Velocity P-wave (km/s) = 4.59006 5.75142 5.20324
#
# Compressibility (1/GPa) = 0.03801120
#
# Stress axis : x y z
#
# Youngs Moduli (GPa) = 95.21776 28.03173 63.68369
#
# Poissons Ratio (x) = 0.05126 0.24185
# Poissons Ratio (y) = 0.17412 0.40168
# Poissons Ratio (z) = 0.36161 0.17681
#
# Static dielectric constant tensor:
#      x y z
#    x 1.827970 0.000000 0.008160 
#    y 0.000000 1.786800 0.000000 
#    z 0.008160 0.000000 1.765550 
# 
# From -- ./inp_files/11374.got.cif
#   From: 2010.05.17/outbox.cif.g08.bks.cpg/sg15_6_cif.got.tgz:11374.got - 2010.06.03 18:47:42.
