data_PCOD9294236
_publ_section_title
;
Structure prediction by ZEFSAII (Michael W. Deem and Ramdas Pophale) SiO2 
 PCOD9294236
Probable space group: C 2/C
;
_chemical_formula_sum "Si O2"
_cell_formula_units_Z 32
_cell_length_a 7.694339
_cell_length_b 19.356084
_cell_length_c 10.884262
_cell_angle_alpha 90.000000
_cell_angle_beta 54.557243
_cell_angle_gamma 90.000000
_cell_volume 1320.635606
_symmetry_space_group_name_H-M "C 2/C"
_symmetry_group_IT_number 15
_symmetry_cell_setting 'monoclinic'
loop_
_space_group_symop_operation_xyz
x,y,z
-x,y,1/2-z
-x,-y,-z
x,-y,1/2+z
1/2+x,1/2+y,z
1/2-x,1/2+y,1/2-z
1/2-x,1/2-y,-z
1/2+x,1/2-y,1/2+z
loop_
_atom_site_type_symbol
_atom_site_label
_atom_site_fract_x
_atom_site_fract_y
_atom_site_fract_z
Si Si1 0.340743 0.164758 0.059275
Si Si2 0.070852 0.900327 0.081412
Si Si3 0.189146 0.466197 0.075742
Si Si4 0.397243 0.284991 0.614424
O O1 0.289138 0.191149 0.217460
O O2 0.123614 0.188986 0.078826
O O3 0.351218 0.084279 0.023350
O O4 0.548600 0.204265 0.922332
O O5 0.000000 0.895611 0.250000
O O6 0.883502 0.932435 0.073295
O O7 0.128511 0.826495 0.000636
O O8 0.253610 0.957384 0.990962
O O9 0.000000 0.466769 0.250000
#
# Coordination Sequence:
#
# PCOD9294236 Si02
#       4
#     8   8   8   8
#     4   9  19  34  63  90 118 162 220 258 299 378
#     4  10  23  41  61  93 137 166 202 273 332 370
#     4  10  23  39  65  95 124 171 220 260 312 389
#     4   9  19  36  59  91 122 162 209 265 311 367
#
# _framework density 24.230758000000002
#
# number of rings (size 3 to 8) (size 9 to 14) (size 15 to 20)
#    0.000    2.500    0.000    0.000   21.000    1.000 
#    0.000    1.250    0.000    0.000    0.000    0.000 
#    0.000    0.000    0.000    0.000    0.000    0.000 
#
# Total GULP energy -89505.828378 kJ/mol
# GULP energy per Si atom -5594.114274 kJ/mol
# Density = 2.417561 g / cm^3
# Si number density = 24.230758 Si / 1000 Ang^3
#
#
#
# Elastic Constant Matrix: (Units=GPa)
#
#
# Indices 1 2 3 4 5 6 
#
# 1 85.0235 25.0537 21.9166 0.0000 7.4036 0.0000
# 2 25.0537 87.4892 17.7408 0.0000 -10.9585 0.0000
# 3 21.9166 17.7408 106.2936 0.0000 -3.2326 0.0000
# 4 0.0000 0.0000 0.0000 24.0701 0.0000 10.9650
# 5 7.4036 -10.9585 -3.2326 0.0000 33.2211 0.0000
# 6 0.0000 0.0000 0.0000 10.9650 0.0000 2.7390
#
#
#
# Elastic Compliance Matrix: (Units=1/GPa)
#
#
# Indices 1 2 3 4 5 6 
#
# 1 0.013988 -0.004121 -0.002340 0.000000 -0.004704 0.000000
# 2 -0.004121 0.013521 -0.001247 0.000000 0.005257 0.000000
# 3 -0.002340 -0.001247 0.010132 0.000000 0.001096 0.000000
# 4 0.000000 0.000000 0.000000 -0.050440 0.000000 0.201923
# 5 -0.004704 0.005257 0.001096 0.000000 0.032991 0.000000
# 6 0.000000 0.000000 0.000000 0.201923 0.000000 -0.443255
#
#
# Mechanical properties :
#
#
# Convention : Reuss Voigt Hill
#
# Bulk Modulus (GPa) = 44.99095 45.35870 45.17483
# Shear Modulus (GPa) = -12.49253 26.27905 6.89326
#
# Velocity S-wave (km/s) = -2.27307 3.29680 1.68850
# Velocity P-wave (km/s) = 3.42329 5.76645 4.74188
#
# Compressibility (1/GPa) = 0.02222669
#
# Stress axis : x y z
#
# Youngs Moduli (GPa) = 71.48798 73.95699 98.69912
#
# Poissons Ratio (x) = 0.30475 0.23091
# Poissons Ratio (y) = 0.29457 0.12310
# Poissons Ratio (z) = 0.16725 0.09224
#
# Static dielectric constant tensor:
#      x y z
#    x 2.005800 0.000000 0.008780 
#    y 0.000000 1.896490 0.000000 
#    z 0.008780 0.000000 1.878080 
# 
# From -- ./inp_files/22340.got.cif
#   From: 2010.05.17/outbox.cif.g08.bks.cpg/sg15_12_cif.got.tgz:22340.got - 2010.06.03 18:47:42.
