data_PCOD9294411
_publ_section_title
;
Structure prediction by ZEFSAII (Michael W. Deem and Ramdas Pophale) SiO2 
 PCOD9294411
Probable space group: C 2/C
;
_chemical_formula_sum "Si O2"
_cell_formula_units_Z 32
_cell_length_a 20.253624
_cell_length_b 7.937808
_cell_length_c 25.679599
_cell_angle_alpha 90.000000
_cell_angle_beta 163.606051
_cell_angle_gamma 90.000000
_cell_volume 1165.226501
_symmetry_space_group_name_H-M "C 2/C"
_symmetry_group_IT_number 15
_symmetry_cell_setting 'monoclinic'
loop_
_space_group_symop_operation_xyz
x,y,z
-x,y,1/2-z
-x,-y,-z
x,-y,1/2+z
1/2+x,1/2+y,z
1/2-x,1/2+y,1/2-z
1/2-x,1/2-y,-z
1/2+x,1/2-y,1/2+z
loop_
_atom_site_type_symbol
_atom_site_label
_atom_site_fract_x
_atom_site_fract_y
_atom_site_fract_z
Si Si1 0.571459 0.653331 0.716206
Si Si2 0.067926 0.646907 0.593183
Si Si3 0.581484 0.024565 0.431027
Si Si4 0.273427 0.666349 0.952505
O O1 0.713111 0.715598 0.771888
O O2 0.454674 0.833548 0.638915
O O3 0.429679 0.490958 0.589089
O O4 0.730945 0.599292 0.885321
O O5 0.000000 0.500000 0.500000
O O6 0.127486 0.548707 0.691204
O O7 0.874067 0.776763 0.469858
O O8 0.688985 0.849877 0.492610
O O9 0.000000 0.629536 0.750000
#
# Coordination Sequence:
#
# PCOD9294411 Si02
#       4
#     8   8   8   8
#     4  11  20  43  67  96 129 177 220 270 324 396
#     4   8  18  41  63  93 132 168 223 264 322 400
#     4   9  23  38  65  95 132 166 225 264 330 383
#     4  10  23  40  64  96 135 169 219 274 332 383
#
# _framework density 27.46247
#
# number of rings (size 3 to 8) (size 9 to 14) (size 15 to 20)
#    1.500    1.000    0.000    1.500    0.000    4.000 
#    0.000    6.250    0.000    0.000    0.000    0.000 
#    0.000    0.000    0.000    0.000    0.000    0.000 
#
# Total GULP energy -89180.964664 kJ/mol
# GULP energy per Si atom -5573.810291 kJ/mol
# Density = 2.739996 g / cm^3
# Si number density = 27.462470 Si / 1000 Ang^3
#
#
#
# Elastic Constant Matrix: (Units=GPa)
#
#
# Indices 1 2 3 4 5 6 
#
# 1 101.2254 39.7932 25.1263 -0.0245 21.1866 -0.0021
# 2 39.7932 149.6064 28.9153 0.0098 -33.4780 0.0076
# 3 25.1263 28.9153 64.9813 -0.2023 -20.6666 0.0083
# 4 -0.0245 0.0098 -0.2023 33.9055 0.0113 -22.5130
# 5 21.1866 -33.4780 -20.6666 0.0113 54.9621 0.0185
# 6 -0.0021 0.0076 0.0083 -22.5130 0.0185 57.2760
#
#
#
# Elastic Compliance Matrix: (Units=1/GPa)
#
#
# Indices 1 2 3 4 5 6 
#
# 1 0.016979 -0.005896 -0.008139 -0.000035 -0.013197 -0.000007
# 2 -0.005896 0.010076 0.000535 -0.000013 0.008612 -0.000010
# 3 -0.008139 0.000535 0.022035 0.000158 0.011749 0.000055
# 4 -0.000035 -0.000013 0.000158 0.039911 0.000051 0.015687
# 5 -0.013197 0.008612 0.011749 0.000051 0.032945 0.000006
# 6 -0.000007 -0.000010 0.000055 0.015687 0.000006 0.023625
#
#
# Mechanical properties :
#
#
# Convention : Reuss Voigt Hill
#
# Bulk Modulus (GPa) = 45.26906 55.94250 50.60578
# Shear Modulus (GPa) = 27.78782 44.02730 35.90756
#
# Velocity S-wave (km/s) = 3.18441 4.00832 3.61988
# Velocity P-wave (km/s) = 5.48091 6.46814 5.99488
#
# Compressibility (1/GPa) = 0.02209014
#
# Stress axis : x y z
#
# Youngs Moduli (GPa) = 58.89555 99.24390 45.38232
#
# Poissons Ratio (x) = 0.58517 0.36936
# Poissons Ratio (y) = 0.34727 -0.02428
# Poissons Ratio (z) = 0.47934 -0.05310
#
# Static dielectric constant tensor:
#      x y z
#    x 2.345690 0.000060 0.122110 
#    y 0.000060 2.224060 -0.000190 
#    z 0.122110 -0.000190 2.366800 
# 
# From -- ./inp_files/300603.got.cif
#   From: 2010.05.17/outbox.cif.g08.bks.cpg/sg15_151_cif.got.tgz:300603.got - 2010.06.03 18:47:42.
