data_PCOD9294196
_publ_section_title
;
Structure prediction by ZEFSAII (Michael W. Deem and Ramdas Pophale) SiO2 
 PCOD9294196
Probable space group: C 2/C
;
_chemical_formula_sum "Si O2"
_cell_formula_units_Z 56
_cell_length_a 9.396460
_cell_length_b 17.304768
_cell_length_c 26.538855
_cell_angle_alpha 90.000000
_cell_angle_beta 38.293965
_cell_angle_gamma 90.000000
_cell_volume 2674.183363
_symmetry_space_group_name_H-M "C 2/C"
_symmetry_group_IT_number 15
_symmetry_cell_setting 'monoclinic'
loop_
_space_group_symop_operation_xyz
x,y,z
-x,y,1/2-z
-x,-y,-z
x,-y,1/2+z
1/2+x,1/2+y,z
1/2-x,1/2+y,1/2-z
1/2-x,1/2-y,-z
1/2+x,1/2-y,1/2+z
loop_
_atom_site_type_symbol
_atom_site_label
_atom_site_fract_x
_atom_site_fract_y
_atom_site_fract_z
Si Si1 0.298286 0.847782 0.345358
Si Si2 0.407731 0.846436 0.723657
Si Si3 0.773378 0.516928 0.387380
Si Si4 0.627819 0.273959 0.085910
Si Si5 0.091618 0.175259 0.166939
Si Si6 0.286081 0.506907 0.483669
Si Si7 0.017822 0.610978 0.989772
O O1 0.500000 0.860865 0.250000
O O2 0.293020 0.924265 0.379903
O O3 0.347222 0.765522 0.357639
O O4 0.067637 0.833796 0.377503
O O5 0.500000 0.812014 0.750000
O O6 0.503352 0.794395 0.650869
O O7 0.134437 0.846647 0.800708
O O8 0.513544 0.931997 0.689092
O O9 0.550281 0.533624 0.414674
O O10 0.741241 0.535869 0.455220
O O11 0.750000 0.250000 0.000000
O O12 0.828275 0.313890 0.062333
O O13 0.315949 0.128387 0.086926
O O14 0.000000 0.165114 0.250000
O O15 0.113724 0.578212 0.522143
O O16 0.196775 0.450467 0.464238
#
# Coordination Sequence:
#
# PCOD9294196 Si02
#       7
#     8   8   8   8   8   8   8
#     4  11  22  40  67  92 126 173 220 261 324 407
#     4  12  26  43  66 103 136 168 221 287 335 386
#     4  11  23  42  66  93 131 177 215 269 342 397
#     4  12  22  42  71  97 126 181 219 269 335 405
#     4  11  21  41  66  93 128 175 224 267 330 408
#     4  10  23  39  63  97 131 166 222 280 322 400
#     4  11  22  40  66  96 131 171 225 275 331 394
#
# _framework density 20.940973
#
# number of rings (size 3 to 8) (size 9 to 14) (size 15 to 20)
#    0.000    0.857    5.714    3.000    2.000    1.143 
#    0.000    2.143    0.000    0.000    0.000    0.000 
#    0.000    0.000    0.000    0.000    0.000    0.000 
#
# Total GULP energy -156241.140629 kJ/mol
# GULP energy per Si atom -5580.040737 kJ/mol
# Density = 2.089331 g / cm^3
# Si number density = 20.940973 Si / 1000 Ang^3
#
#
#
# Elastic Constant Matrix: (Units=GPa)
#
#
# Indices 1 2 3 4 5 6 
#
# 1 111.3902 31.5181 22.5107 0.0053 -30.2984 0.0009
# 2 31.5181 65.0159 11.4471 -0.0031 -12.3666 -0.0025
# 3 22.5107 11.4471 62.5358 -0.0184 -21.1048 -0.0138
# 4 0.0053 -0.0031 -0.0184 18.9053 -0.0004 -5.4213
# 5 -30.2984 -12.3666 -21.1048 -0.0004 44.2092 0.0012
# 6 0.0009 -0.0025 -0.0138 -5.4213 0.0012 35.5218
#
#
#
# Elastic Compliance Matrix: (Units=1/GPa)
#
#
# Indices 1 2 3 4 5 6 
#
# 1 0.012298 -0.004476 -0.001413 -0.000006 0.006502 -0.000002
# 2 -0.004476 0.018031 -0.001219 0.000003 0.001394 0.000001
# 3 -0.001413 -0.001219 0.019407 0.000022 0.007955 0.000011
# 4 -0.000006 0.000003 0.000022 0.055316 0.000008 0.008442
# 5 0.006502 0.001394 0.007955 0.000008 0.031263 0.000003
# 6 -0.000002 0.000001 0.000011 0.008442 0.000003 0.029440
#
#
# Mechanical properties :
#
#
# Convention : Reuss Voigt Hill
#
# Bulk Modulus (GPa) = 28.15359 41.09930 34.62644
# Shear Modulus (GPa) = 26.06715 31.29165 28.67940
#
# Velocity S-wave (km/s) = 3.53199 3.86978 3.70474
# Velocity P-wave (km/s) = 5.48696 6.29570 5.90519
#
# Compressibility (1/GPa) = 0.03551945
#
# Stress axis : x y z
#
# Youngs Moduli (GPa) = 81.31352 55.46127 51.52662
#
# Poissons Ratio (x) = 0.24826 0.07282
# Poissons Ratio (y) = 0.36398 0.06279
# Poissons Ratio (z) = 0.11492 0.06759
#
# Static dielectric constant tensor:
#      x y z
#    x 1.768180 0.000000 0.012630 
#    y 0.000000 1.812710 0.000000 
#    z 0.012630 0.000000 1.745290 
# 
# From -- ./inp_files/289721.got.cif
#   From: 2010.05.17/outbox.cif.g08.bks.cpg/sg15_145_cif.got.tgz:289721.got - 2010.06.03 18:47:42.
