data_PCOD9294326
_publ_section_title
;
Structure prediction by ZEFSAII (Michael W. Deem and Ramdas Pophale) SiO2 
 PCOD9294326
Probable space group: C 2/C
;
_chemical_formula_sum "Si O2"
_cell_formula_units_Z 52
_cell_length_a 15.307700
_cell_length_b 15.650326
_cell_length_c 8.776352
_cell_angle_alpha 90.000000
_cell_angle_beta 84.746941
_cell_angle_gamma 90.000000
_cell_volume 2093.724351
_symmetry_space_group_name_H-M "C 2/C"
_symmetry_group_IT_number 15
_symmetry_cell_setting 'monoclinic'
loop_
_space_group_symop_operation_xyz
x,y,z
-x,y,1/2-z
-x,-y,-z
x,-y,1/2+z
1/2+x,1/2+y,z
1/2-x,1/2+y,1/2-z
1/2-x,1/2-y,-z
1/2+x,1/2-y,1/2+z
loop_
_atom_site_type_symbol
_atom_site_label
_atom_site_fract_x
_atom_site_fract_y
_atom_site_fract_z
Si Si1 0.686467 0.470932 0.126720
Si Si2 0.094517 0.093217 0.931876
Si Si3 0.090400 0.664228 0.159165
Si Si4 0.657203 0.875501 0.317514
Si Si5 0.703516 0.748938 0.846169
Si Si6 0.500000 0.786751 0.250000
Si Si7 0.083869 0.837779 0.984241
O O1 0.616905 0.453644 0.271696
O O2 0.780714 0.458592 0.190474
O O3 0.660083 0.557247 0.048619
O O4 0.669603 0.395502 0.002182
O O5 0.119168 0.191563 0.901500
O O6 0.993753 0.093683 0.990307
O O7 0.168207 0.666630 0.270438
O O8 0.000000 0.634939 0.250000
O O9 0.113678 0.623846 0.992434
O O10 0.082794 0.764686 0.112911
O O11 0.730306 0.801346 0.277232
O O12 0.580587 0.853797 0.207958
O O13 0.750000 0.750000 0.000000
O O14 0.444829 0.719741 0.155063
#
# Coordination Sequence:
#
# PCOD9294326 Si02
#       7
#     8   8   8   8   8   4   8
#     4  11  24  39  62  86 131 173 205 251 305 392
#     4  11  23  39  59  88 128 166 207 247 312 381
#     4  11  20  38  61  89 132 162 196 261 327 368
#     4  10  23  40  60  93 126 168 211 260 317 373
#     4  11  22  37  63  93 123 159 212 266 310 370
#     4  10  24  34  66  96 126 156 218 264 316 364
#     4  11  20  38  59  94 132 167 200 250 323 381
#
# _framework density 24.836124000000002
#
# number of rings (size 3 to 8) (size 9 to 14) (size 15 to 20)
#    0.000    1.231    4.615    2.308    6.462    1.231 
#    0.000    0.000    0.000    3.692    4.000    0.000 
#    0.000    0.000    0.000    0.000    0.000    0.000 
#
# Total GULP energy -144942.745866 kJ/mol
# GULP energy per Si atom -5574.720995 kJ/mol
# Density = 2.477960 g / cm^3
# Si number density = 24.836124 Si / 1000 Ang^3
#
#
#
# Elastic Constant Matrix: (Units=GPa)
#
#
# Indices 1 2 3 4 5 6 
#
# 1 96.5282 7.4361 -9.7522 0.0000 0.5636 0.0000
# 2 7.4361 44.4417 -1.6544 0.0000 4.6033 0.0000
# 3 -9.7522 -1.6544 60.9520 0.0000 7.8952 0.0000
# 4 0.0000 0.0000 0.0000 21.5141 0.0000 11.9855
# 5 0.5636 4.6033 7.8952 0.0000 44.5789 0.0000
# 6 0.0000 0.0000 0.0000 11.9855 0.0000 24.1461
#
#
#
# Elastic Compliance Matrix: (Units=1/GPa)
#
#
# Indices 1 2 3 4 5 6 
#
# 1 0.010663 -0.001694 0.001694 0.000000 -0.000260 0.000000
# 2 -0.001694 0.023067 0.000676 0.000000 -0.002480 0.000000
# 3 0.001694 0.000676 0.017100 0.000000 -0.003120 0.000000
# 4 0.000000 0.000000 0.000000 0.064247 0.000000 -0.031891
# 5 -0.000260 -0.002480 -0.003120 0.000000 0.023244 0.000000
# 6 0.000000 0.000000 0.000000 -0.031891 0.000000 0.057244
#
#
# Mechanical properties :
#
#
# Convention : Reuss Voigt Hill
#
# Bulk Modulus (GPa) = 19.16396 21.55343 20.35870
# Shear Modulus (GPa) = 23.62868 31.77399 27.70134
#
# Velocity S-wave (km/s) = 3.08780 3.58067 3.34333
# Velocity P-wave (km/s) = 4.52168 5.07859 4.80820
#
# Compressibility (1/GPa) = 0.05218127
#
# Stress axis : x y z
#
# Youngs Moduli (GPa) = 93.78393 43.35210 58.48016
#
# Poissons Ratio (x) = 0.07345 -0.09905
# Poissons Ratio (y) = 0.15889 -0.03955
# Poissons Ratio (z) = -0.15884 -0.02932
#
# Static dielectric constant tensor:
#      x y z
#    x 2.042530 0.000000 0.038210 
#    y 0.000000 2.007570 0.000000 
#    z 0.038210 0.000000 2.074270 
# 
# From -- ./inp_files/40792.got.cif
#   From: 2010.05.17/outbox.cif.g08.bks.cpg/sg15_21_cif.got.tgz:40792.got - 2010.06.03 18:47:42.
