data_PCOD9294206
_publ_section_title
;
Structure prediction by ZEFSAII (Michael W. Deem and Ramdas Pophale) SiO2 
 PCOD9294206
Probable space group: C 2/C
;
_chemical_formula_sum "Si O2"
_cell_formula_units_Z 44
_cell_length_a 9.963429
_cell_length_b 14.350248
_cell_length_c 13.767171
_cell_angle_alpha 90.000000
_cell_angle_beta 105.434694
_cell_angle_gamma 90.000000
_cell_volume 1897.406723
_symmetry_space_group_name_H-M "C 2/C"
_symmetry_group_IT_number 15
_symmetry_cell_setting 'monoclinic'
loop_
_space_group_symop_operation_xyz
x,y,z
-x,y,1/2-z
-x,-y,-z
x,-y,1/2+z
1/2+x,1/2+y,z
1/2-x,1/2+y,1/2-z
1/2-x,1/2-y,-z
1/2+x,1/2-y,1/2+z
loop_
_atom_site_type_symbol
_atom_site_label
_atom_site_fract_x
_atom_site_fract_y
_atom_site_fract_z
Si Si1 0.761798 0.558870 0.653031
Si Si2 0.818639 0.406382 0.531140
Si Si3 0.000000 0.312555 0.250000
Si Si4 0.101575 0.413327 0.681371
Si Si5 0.849398 0.744199 0.902781
Si Si6 0.858209 0.239019 0.931281
O O1 0.735057 0.495247 0.553531
O O2 0.903960 0.618276 0.669382
O O3 0.796438 0.490359 0.750743
O O4 0.653323 0.642743 0.631113
O O5 0.798483 0.359814 0.422489
O O6 0.762792 0.321545 0.589580
O O7 0.978810 0.436742 0.580329
O O8 0.094823 0.255187 0.195220
O O9 0.171699 0.325645 0.644887
O O10 0.000000 0.385103 0.750000
O O11 0.986387 0.757388 0.995851
O O12 0.750000 0.250000 0.000000
#
# Coordination Sequence:
#
# PCOD9294206 Si02
#       6
#     8   8   4   8   8   8
#     4  11  22  38  64  96 123 166 214 261 311 379
#     4   9  20  42  61  84 125 166 209 253 310 382
#     4  12  22  36  62  98 122 164 220 256 314 366
#     4   9  20  40  63  90 123 165 213 256 309 377
#     4  10  23  39  64  90 127 172 204 263 317 369
#     4  11  23  40  66  94 131 164 208 267 320 369
#
# _framework density 23.189546
#
# number of rings (size 3 to 8) (size 9 to 14) (size 15 to 20)
#    0.000    1.818    4.545    0.000    5.091    2.909 
#    0.000    0.000    6.000    0.000    0.000    0.000 
#    0.000    0.000    0.000    0.000    0.000    0.000 
#
# Total GULP energy -122601.135544 kJ/mol
# GULP energy per Si atom -5572.778888 kJ/mol
# Density = 2.313677 g / cm^3
# Si number density = 23.189546 Si / 1000 Ang^3
#
#
#
# Elastic Constant Matrix: (Units=GPa)
#
#
# Indices 1 2 3 4 5 6 
#
# 1 46.3193 40.4305 45.5246 0.0000 -3.6998 0.0000
# 2 40.4305 130.3562 70.4468 0.0000 -2.0826 0.0000
# 3 45.5246 70.4468 95.4275 0.0000 -21.5244 0.0000
# 4 0.0000 0.0000 0.0000 61.1263 0.0000 -2.6567
# 5 -3.6998 -2.0826 -21.5244 0.0000 41.5170 0.0000
# 6 0.0000 0.0000 0.0000 -2.6567 0.0000 19.8946
#
#
#
# Elastic Compliance Matrix: (Units=1/GPa)
#
#
# Indices 1 2 3 4 5 6 
#
# 1 0.043167 -0.002567 -0.020225 0.000000 -0.006767 0.000000
# 2 -0.002567 0.013823 -0.010051 0.000000 -0.004746 0.000000
# 3 -0.020225 -0.010051 0.030606 0.000000 0.013561 0.000000
# 4 0.000000 0.000000 0.000000 0.016455 0.000000 0.002197
# 5 -0.006767 -0.004746 0.013561 0.000000 0.030276 0.000000
# 6 0.000000 0.000000 0.000000 0.002197 0.000000 0.050558
#
#
# Mechanical properties :
#
#
# Convention : Reuss Voigt Hill
#
# Bulk Modulus (GPa) = 45.63752 64.98965 55.31359
# Shear Modulus (GPa) = 19.38936 32.22097 25.80516
#
# Velocity S-wave (km/s) = 2.89472 3.73159 3.33947
# Velocity P-wave (km/s) = 5.55837 6.83027 6.22688
#
# Compressibility (1/GPa) = 0.02191180
#
# Stress axis : x y z
#
# Youngs Moduli (GPa) = 23.16593 72.34313 32.67335
#
# Poissons Ratio (x) = 0.18568 0.66081
# Poissons Ratio (y) = 0.05946 0.32839
# Poissons Ratio (z) = 0.46853 0.72709
#
# Static dielectric constant tensor:
#      x y z
#    x 1.897820 0.000000 0.039130 
#    y 0.000000 1.968810 0.000000 
#    z 0.039130 0.000000 1.998130 
# 
# From -- ./inp_files/142305.got.cif
#   From: 2010.05.17/outbox.cif.g08.bks.cpg/sg15_72_cif.got.tgz:142305.got - 2010.06.03 18:47:42.
