data_PCOD9294197
_publ_section_title
;
Structure prediction by ZEFSAII (Michael W. Deem and Ramdas Pophale) SiO2 
 PCOD9294197
Probable space group: C 2/C
;
_chemical_formula_sum "Si O2"
_cell_formula_units_Z 64
_cell_length_a 15.963789
_cell_length_b 14.465895
_cell_length_c 18.731125
_cell_angle_alpha 90.000000
_cell_angle_beta 48.016485
_cell_angle_gamma 90.000000
_cell_volume 3215.370954
_symmetry_space_group_name_H-M "C 2/C"
_symmetry_group_IT_number 15
_symmetry_cell_setting 'monoclinic'
loop_
_space_group_symop_operation_xyz
x,y,z
-x,y,1/2-z
-x,-y,-z
x,-y,1/2+z
1/2+x,1/2+y,z
1/2-x,1/2+y,1/2-z
1/2-x,1/2-y,-z
1/2+x,1/2-y,1/2+z
loop_
_atom_site_type_symbol
_atom_site_label
_atom_site_fract_x
_atom_site_fract_y
_atom_site_fract_z
Si Si1 0.933499 0.069247 0.718416
Si Si2 0.299604 0.099205 0.709595
Si Si3 0.637172 0.866268 0.604488
Si Si4 0.954927 0.251628 0.066114
Si Si5 0.397430 0.093132 0.208767
Si Si6 0.381234 0.328335 0.461356
Si Si7 0.309955 0.763656 0.642669
Si Si8 0.416406 0.350793 0.736908
O O1 0.803524 0.095303 0.787154
O O2 0.000000 0.102620 0.750000
O O3 0.006139 0.112595 0.613244
O O4 0.936542 0.959102 0.716357
O O5 0.406335 0.147422 0.611996
O O6 0.250188 0.168714 0.798298
O O7 0.332536 0.999088 0.721179
O O8 0.625367 0.883099 0.695644
O O9 0.533315 0.918600 0.625918
O O10 0.618963 0.759724 0.591305
O O11 0.767324 0.885657 0.511482
O O12 0.936089 0.194209 0.148680
O O13 0.084479 0.250568 0.968921
O O14 0.883664 0.210437 0.040579
O O15 0.357753 0.179662 0.183670
O O16 0.210830 0.827335 0.668091
O O17 0.500000 0.314323 0.750000
#
# Coordination Sequence:
#
# PCOD9294197 Si02
#       8
#     8   8   8   8   8   8   8   8
#     4  11  24  39  65  95 130 171 216 272 327 390
#     4  11  24  42  65  95 131 177 223 259 336 394
#     4  10  23  39  63  97 136 166 208 270 334 390
#     4  11  24  42  71  94 130 173 217 274 328 389
#     4  11  22  43  65  93 139 175 210 274 328 394
#     4  11  23  38  67 103 131 166 214 275 338 397
#     4  11  22  44  68  96 128 174 222 272 329 380
#     4  10  24  46  62  90 130 175 223 272 314 383
#
# _framework density 19.904391
#
# number of rings (size 3 to 8) (size 9 to 14) (size 15 to 20)
#    0.000    1.250    3.750    1.500    7.000    2.500 
#   13.500    0.000    0.000    0.000    0.000    0.000 
#    0.000    0.000    0.000    0.000    0.000    0.000 
#
# Total GULP energy -178686.123033 kJ/mol
# GULP energy per Si atom -5583.941345 kJ/mol
# Density = 1.985909 g / cm^3
# Si number density = 19.904391 Si / 1000 Ang^3
#
#
#
# Elastic Constant Matrix: (Units=GPa)
#
#
# Indices 1 2 3 4 5 6 
#
# 1 80.3474 2.8218 23.2349 0.0000 -14.6328 0.0000
# 2 2.8218 51.4911 24.4131 0.0000 -5.0330 0.0000
# 3 23.2349 24.4131 76.2256 0.0000 -22.1672 0.0000
# 4 0.0000 0.0000 0.0000 7.2414 0.0000 -5.3272
# 5 -14.6328 -5.0330 -22.1672 0.0000 37.2255 0.0000
# 6 0.0000 0.0000 0.0000 -5.3272 0.0000 26.4795
#
#
#
# Elastic Compliance Matrix: (Units=1/GPa)
#
#
# Indices 1 2 3 4 5 6 
#
# 1 0.014111 0.001326 -0.003702 0.000000 0.003522 0.000000
# 2 0.001326 0.023095 -0.008153 0.000000 -0.001211 0.000000
# 3 -0.003702 -0.008153 0.019490 0.000000 0.009049 0.000000
# 4 0.000000 0.000000 0.000000 0.162083 0.000000 0.032608
# 5 0.003522 -0.001211 0.009049 0.000000 0.033472 0.000000
# 6 0.000000 0.000000 0.000000 0.032608 0.000000 0.044325
#
#
# Mechanical properties :
#
#
# Convention : Reuss Voigt Hill
#
# Bulk Modulus (GPa) = 28.05960 34.33374 31.19667
# Shear Modulus (GPa) = 15.17381 24.69557 19.93469
#
# Velocity S-wave (km/s) = 2.76404 3.52619 3.16812
# Velocity P-wave (km/s) = 4.93096 5.81941 5.39351
#
# Compressibility (1/GPa) = 0.03563843
#
# Stress axis : x y z
#
# Youngs Moduli (GPa) = 70.86526 43.29854 51.30817
#
# Poissons Ratio (x) = -0.05742 0.18994
# Poissons Ratio (y) = -0.09397 0.41833
# Poissons Ratio (z) = 0.26233 0.35303
#
# Static dielectric constant tensor:
#      x y z
#    x 1.733270 0.000000 -0.017360 
#    y 0.000000 1.675020 0.000000 
#    z -0.017360 0.000000 1.722210 
# 
# From -- ./inp_files/205716.got.cif
#   From: 2010.05.17/outbox.cif.g08.bks.cpg/sg15_103_cif.got.tgz:205716.got - 2010.06.03 18:47:42.
