data_PCOD9294205
_publ_section_title
;
Structure prediction by ZEFSAII (Michael W. Deem and Ramdas Pophale) SiO2 
 PCOD9294205
Probable space group: C 2/C
;
_chemical_formula_sum "Si O2"
_cell_formula_units_Z 48
_cell_length_a 19.350143
_cell_length_b 13.771145
_cell_length_c 15.653981
_cell_angle_alpha 90.000000
_cell_angle_beta 151.641557
_cell_angle_gamma 90.000000
_cell_volume 1981.344094
_symmetry_space_group_name_H-M "C 2/C"
_symmetry_group_IT_number 15
_symmetry_cell_setting 'monoclinic'
loop_
_space_group_symop_operation_xyz
x,y,z
-x,y,1/2-z
-x,-y,-z
x,-y,1/2+z
1/2+x,1/2+y,z
1/2-x,1/2+y,1/2-z
1/2-x,1/2-y,-z
1/2+x,1/2-y,1/2+z
loop_
_atom_site_type_symbol
_atom_site_label
_atom_site_fract_x
_atom_site_fract_y
_atom_site_fract_z
Si Si1 0.911375 0.384844 0.956618
Si Si2 0.808742 0.536473 0.984659
Si Si3 0.393742 0.257572 0.053978
Si Si4 0.885733 0.226612 0.351849
Si Si5 0.288217 0.945594 0.648178
Si Si6 0.003695 0.035476 0.102094
O O1 0.872185 0.459012 0.988018
O O2 0.783837 0.301593 0.823818
O O3 0.885995 0.436034 0.838006
O O4 0.066410 0.332232 0.127729
O O5 0.634625 0.519117 0.791886
O O6 0.843625 0.646207 0.995628
O O7 0.855568 0.520676 0.133174
O O8 0.500000 0.267827 0.250000
O O9 0.448793 0.282218 0.017614
O O10 0.266590 0.335628 0.930155
O O11 0.955657 0.148067 0.364157
O O12 0.147961 0.009014 0.520102
O O13 0.000000 0.000000 0.000000
#
# Coordination Sequence:
#
# PCOD9294205 Si02
#       6
#     8   8   8   8   8   8
#     4  10  23  42  64  96 122 171 212 260 316 376
#     4  11  23  38  61  92 129 166 207 259 321 376
#     4  11  22  35  59  95 129 158 201 262 334 379
#     4  10  23  39  64  88 128 164 213 258 311 373
#     4  11  22  35  65  92 129 162 209 259 313 377
#     4  11  20  39  61  90 122 171 218 250 302 377
#
# _framework density 24.225978000000001
#
# number of rings (size 3 to 8) (size 9 to 14) (size 15 to 20)
#    0.000    1.333    5.000    3.000    4.667    0.667 
#    0.000    2.500    0.000    6.000    0.000    0.000 
#    0.000    0.000    0.000    0.000    0.000    0.000 
#
# Total GULP energy -134545.306014 kJ/mol
# GULP energy per Si atom -5606.054417 kJ/mol
# Density = 2.417084 g / cm^3
# Si number density = 24.225978 Si / 1000 Ang^3
#
#
#
# Elastic Constant Matrix: (Units=GPa)
#
#
# Indices 1 2 3 4 5 6 
#
# 1 159.0084 51.6328 41.3896 0.0000 -12.2987 0.0000
# 2 51.6328 88.0201 57.7519 0.0000 -9.0163 0.0000
# 3 41.3896 57.7519 113.5962 0.0000 -2.2504 0.0000
# 4 0.0000 0.0000 0.0000 37.7141 0.0000 8.6927
# 5 -12.2987 -9.0163 -2.2504 0.0000 35.3289 0.0000
# 6 0.0000 0.0000 0.0000 8.6927 0.0000 47.1204
#
#
#
# Elastic Compliance Matrix: (Units=1/GPa)
#
#
# Indices 1 2 3 4 5 6 
#
# 1 0.007912 -0.003897 -0.000868 0.000000 0.001704 0.000000
# 2 -0.003897 0.019494 -0.008429 0.000000 0.003081 0.000000
# 3 -0.000868 -0.008429 0.013373 0.000000 -0.001601 0.000000
# 4 0.000000 0.000000 0.000000 0.027693 0.000000 -0.005109
# 5 0.001704 0.003081 -0.001601 0.000000 0.029583 0.000000
# 6 0.000000 0.000000 0.000000 -0.005109 0.000000 0.022165
#
#
# Mechanical properties :
#
#
# Convention : Reuss Voigt Hill
#
# Bulk Modulus (GPa) = 69.49340 73.57483 71.53411
# Shear Modulus (GPa) = 33.02398 38.02269 35.52334
#
# Velocity S-wave (km/s) = 3.69611 3.96599 3.83343
# Velocity P-wave (km/s) = 6.85294 7.16995 7.01324
#
# Compressibility (1/GPa) = 0.01438986
#
# Stress axis : x y z
#
# Youngs Moduli (GPa) = 126.38661 51.29885 74.77755
#
# Poissons Ratio (x) = 0.19993 0.06488
# Poissons Ratio (y) = 0.49258 0.63033
# Poissons Ratio (z) = 0.10966 0.43242
#
# Static dielectric constant tensor:
#      x y z
#    x 1.924210 0.000000 0.061990 
#    y 0.000000 1.982720 0.000000 
#    z 0.061990 0.000000 1.963040 
# 
# From -- ./inp_files/167909.got.cif
#   From: 2010.05.17/outbox.cif.g08.bks.cpg/sg15_84_cif.got.tgz:167909.got - 2010.06.03 18:47:42.
