data_PCOD9294308
_publ_section_title
;
Structure prediction by ZEFSAII (Michael W. Deem and Ramdas Pophale) SiO2 
 PCOD9294308
Probable space group: C 2/C
;
_chemical_formula_sum "Si O2"
_cell_formula_units_Z 60
_cell_length_a 23.379832
_cell_length_b 17.238828
_cell_length_c 11.640886
_cell_angle_alpha 90.000000
_cell_angle_beta 43.443357
_cell_angle_gamma 90.000000
_cell_volume 3226.223702
_symmetry_space_group_name_H-M "C 2/C"
_symmetry_group_IT_number 15
_symmetry_cell_setting 'monoclinic'
loop_
_space_group_symop_operation_xyz
x,y,z
-x,y,1/2-z
-x,-y,-z
x,-y,1/2+z
1/2+x,1/2+y,z
1/2-x,1/2+y,1/2-z
1/2-x,1/2-y,-z
1/2+x,1/2-y,1/2+z
loop_
_atom_site_type_symbol
_atom_site_label
_atom_site_fract_x
_atom_site_fract_y
_atom_site_fract_z
Si Si1 0.895761 0.383882 0.548194
Si Si2 0.223050 0.267973 0.851872
Si Si3 0.000000 0.738298 0.250000
Si Si4 0.771324 0.364524 0.428471
Si Si5 0.563378 0.861424 0.438133
Si Si6 0.816557 0.201160 0.980725
Si Si7 0.595036 0.030373 0.082455
Si Si8 0.725356 0.950358 0.584129
O O1 0.865626 0.298153 0.564353
O O2 0.897732 0.438001 0.433612
O O3 0.825341 0.421526 0.730988
O O4 0.982663 0.386747 0.485846
O O5 0.218968 0.182272 0.909316
O O6 0.287053 0.278348 0.653699
O O7 0.246825 0.326751 0.921043
O O8 0.966530 0.692790 0.412930
O O9 0.914498 0.779031 0.330677
O O10 0.864782 0.337344 0.254548
O O11 0.758066 0.457294 0.443142
O O12 0.605061 0.934034 0.442499
O O13 0.800664 0.110798 0.971942
O O14 0.750000 0.250000 0.000000
O O15 0.500000 0.048092 0.250000
O O16 0.661345 0.064563 0.072436
#
# Coordination Sequence:
#
# PCOD9294308 Si02
#       8
#     8   8   4   8   8   8   8   8
#     4  11  21  34  53  87 124 159 199 247 315 389
#     4  10  23  40  58  87 122 161 209 250 316 377
#     4  12  22  42  64  88 132 162 216 270 310 366
#     4  11  22  39  61  87 122 164 203 259 318 378
#     4  12  21  34  57  89 125 163 196 253 324 378
#     4  11  24  43  66  95 126 167 218 260 314 374
#     4  12  20  31  52  91 128 155 195 251 313 387
#     4  11  22  37  59  89 121 166 209 252 308 378
#
# _framework density 18.597594999999998
#
# number of rings (size 3 to 8) (size 9 to 14) (size 15 to 20)
#    0.000    0.800    6.000    3.600    0.000    0.000 
#    0.000    0.000    0.000    4.000    0.000    0.000 
#    0.000    0.000    0.000    0.000    0.000    0.000 
#
# Total GULP energy -167221.638727 kJ/mol
# GULP energy per Si atom -5574.054624 kJ/mol
# Density = 1.855527 g / cm^3
# Si number density = 18.597595 Si / 1000 Ang^3
#
#
#
# Elastic Constant Matrix: (Units=GPa)
#
#
# Indices 1 2 3 4 5 6 
#
# 1 86.5608 53.5099 32.8439 0.0000 -5.4841 0.0000
# 2 53.5099 108.6986 30.6649 0.0000 -12.1441 0.0000
# 3 32.8439 30.6649 82.3754 0.0000 -1.9497 0.0000
# 4 0.0000 0.0000 0.0000 40.4379 0.0000 -86.0785
# 5 -5.4841 -12.1441 -1.9497 0.0000 25.4292 0.0000
# 6 0.0000 0.0000 0.0000 -86.0785 0.0000 358.0942
#
#
#
# Elastic Compliance Matrix: (Units=1/GPa)
#
#
# Indices 1 2 3 4 5 6 
#
# 1 0.017875 -0.007597 -0.004301 0.000000 -0.000103 0.000000
# 2 -0.007597 0.014081 -0.002096 0.000000 0.004926 0.000000
# 3 -0.004301 -0.002096 0.014616 0.000000 -0.000808 0.000000
# 4 0.000000 0.000000 0.000000 0.050642 0.000000 0.012173
# 5 -0.000103 0.004926 -0.000808 0.000000 0.041593 0.000000
# 6 0.000000 0.000000 0.000000 0.012173 0.000000 0.005719
#
#
# Mechanical properties :
#
#
# Convention : Reuss Voigt Hill
#
# Bulk Modulus (GPa) = 53.81441 56.85246 55.33344
# Shear Modulus (GPa) = 27.97851 95.50001 61.73926
#
# Velocity S-wave (km/s) = 3.88289 7.17372 5.76797
# Velocity P-wave (km/s) = 7.00724 9.96255 8.61260
#
# Compressibility (1/GPa) = 0.01858238
#
# Stress axis : x y z
#
# Youngs Moduli (GPa) = 55.94561 71.01546 68.42005
#
# Poissons Ratio (x) = 0.53953 0.29427
# Poissons Ratio (y) = 0.42504 0.14342
# Poissons Ratio (z) = 0.24062 0.14886
#
# Static dielectric constant tensor:
#      x y z
#    x 1.664420 0.000000 0.024920 
#    y 0.000000 1.602780 0.000000 
#    z 0.024920 0.000000 1.676090 
# 
# From -- ./inp_files/119451.got.cif
#   From: 2010.05.17/outbox.cif.g08.bks.cpg/sg15_60_cif.got.tgz:119451.got - 2010.06.03 18:47:42.
