data_PCOD9294287
_publ_section_title
;
Structure prediction by ZEFSAII (Michael W. Deem and Ramdas Pophale) SiO2 
 PCOD9294287
Probable space group: C 2/C
;
_chemical_formula_sum "Si O2"
_cell_formula_units_Z 52
_cell_length_a 15.515632
_cell_length_b 15.564901
_cell_length_c 10.730614
_cell_angle_alpha 90.000000
_cell_angle_beta 56.472746
_cell_angle_gamma 90.000000
_cell_volume 2160.280730
_symmetry_space_group_name_H-M "C 2/C"
_symmetry_group_IT_number 15
_symmetry_cell_setting 'monoclinic'
loop_
_space_group_symop_operation_xyz
x,y,z
-x,y,1/2-z
-x,-y,-z
x,-y,1/2+z
1/2+x,1/2+y,z
1/2-x,1/2+y,1/2-z
1/2-x,1/2-y,-z
1/2+x,1/2-y,1/2+z
loop_
_atom_site_type_symbol
_atom_site_label
_atom_site_fract_x
_atom_site_fract_y
_atom_site_fract_z
Si Si1 0.179132 0.657979 0.768716
Si Si2 0.000000 0.608733 0.750000
Si Si3 0.000000 0.670533 0.250000
Si Si4 0.830538 0.955990 0.465486
Si Si5 0.891757 0.177953 0.698957
Si Si6 0.104903 0.161208 0.393509
Si Si7 0.000000 0.916767 0.750000
Si Si8 0.122593 0.474943 0.508291
O O1 0.100070 0.659758 0.716955
O O2 0.302051 0.673536 0.666766
O O3 0.143898 0.741929 0.875919
O O4 0.161486 0.564750 0.847079
O O5 0.042450 0.551579 0.599402
O O6 0.078984 0.730346 0.264597
O O7 0.066755 0.607537 0.112109
O O8 0.856211 0.883918 0.339675
O O9 0.818470 0.907044 0.605631
O O10 0.724438 0.998089 0.505973
O O11 0.924679 0.022266 0.390430
O O12 0.999480 0.149258 0.554740
O O13 0.074716 0.137877 0.277972
#
# Coordination Sequence:
#
# PCOD9294287 Si02
#       8
#     8   4   4   8   8   8   4   8
#     4  11  24  43  64  94 125 167 212 256 314 376
#     4  11  25  44  61  91 130 170 206 257 313 378
#     4  11  17  40  67 103 118 160 212 265 315 362
#     4  11  22  41  65  97 125 166 211 262 315 368
#     4  11  21  39  70  96 124 164 209 265 317 360
#     4  12  23  43  63  92 133 164 211 263 306 378
#     4  12  26  38  62  92 134 172 206 252 320 376
#     4  10  23  39  70  91 126 161 213 262 314 368
#
# _framework density 24.070945999999999
#
# number of rings (size 3 to 8) (size 9 to 14) (size 15 to 20)
#    0.000    0.923    4.615    2.308    2.154    3.692 
#    2.769    1.538    0.000    0.000    0.000    0.000 
#    0.000    0.000    0.000    0.000    0.000    0.000 
#
# Total GULP energy -145339.528837 kJ/mol
# GULP energy per Si atom -5589.981878 kJ/mol
# Density = 2.401616 g / cm^3
# Si number density = 24.070946 Si / 1000 Ang^3
#
#
#
# Elastic Constant Matrix: (Units=GPa)
#
#
# Indices 1 2 3 4 5 6 
#
# 1 138.9460 19.0469 -14.9667 0.0000 -8.9455 0.0000
# 2 19.0469 66.6857 4.9468 0.0000 -4.9727 0.0000
# 3 -14.9667 4.9468 17.1460 0.0000 -0.4394 0.0000
# 4 0.0000 0.0000 0.0000 18.9040 0.0000 -2.7202
# 5 -8.9455 -4.9727 -0.4394 0.0000 34.5567 0.0000
# 6 0.0000 0.0000 0.0000 -2.7202 0.0000 15.0110
#
#
#
# Elastic Compliance Matrix: (Units=1/GPa)
#
#
# Indices 1 2 3 4 5 6 
#
# 1 0.008633 -0.002949 0.008436 0.000000 0.001918 0.000000
# 2 -0.002949 0.016492 -0.007293 0.000000 0.001517 0.000000
# 3 0.008436 -0.007293 0.067842 0.000000 0.001997 0.000000
# 4 0.000000 0.000000 0.000000 0.054315 0.000000 0.009842
# 5 0.001918 0.001517 0.001997 0.000000 0.029678 0.000000
# 6 0.000000 0.000000 0.000000 0.009842 0.000000 0.068401
#
#
# Mechanical properties :
#
#
# Convention : Reuss Voigt Hill
#
# Bulk Modulus (GPa) = 11.19125 26.75907 18.97516
# Shear Modulus (GPa) = 17.93666 27.94440 22.94053
#
# Velocity S-wave (km/s) = 2.73272 3.41092 3.09048
# Velocity P-wave (km/s) = 3.82314 5.16269 4.54256
#
# Compressibility (1/GPa) = 0.08935549
#
# Stress axis : x y z
#
# Youngs Moduli (GPa) = 115.82905 60.63515 14.74018
#
# Poissons Ratio (x) = 0.17879 -0.12435
# Poissons Ratio (y) = 0.34154 0.10750
# Poissons Ratio (z) = -0.97713 0.44222
#
# Static dielectric constant tensor:
#      x y z
#    x 1.935440 0.000000 0.039460 
#    y 0.000000 1.897100 0.000000 
#    z 0.039460 0.000000 1.964630 
# 
# From -- ./inp_files/96995.got.cif
#   From: 2010.05.17/outbox.cif.g08.bks.cpg/sg15_49_cif.got.tgz:96995.got - 2010.06.03 18:47:42.
