data_PCOD9294432
_publ_section_title
;
Structure prediction by ZEFSAII (Michael W. Deem and Ramdas Pophale) SiO2 
 PCOD9294432
Probable space group: C 2/C
;
_chemical_formula_sum "Si O2"
_cell_formula_units_Z 60
_cell_length_a 18.036019
_cell_length_b 22.367365
_cell_length_c 15.480589
_cell_angle_alpha 90.000000
_cell_angle_beta 149.253943
_cell_angle_gamma 90.000000
_cell_volume 3192.733502
_symmetry_space_group_name_H-M "C 2/C"
_symmetry_group_IT_number 15
_symmetry_cell_setting 'monoclinic'
loop_
_space_group_symop_operation_xyz
x,y,z
-x,y,1/2-z
-x,-y,-z
x,-y,1/2+z
1/2+x,1/2+y,z
1/2-x,1/2+y,1/2-z
1/2-x,1/2-y,-z
1/2+x,1/2-y,1/2+z
loop_
_atom_site_type_symbol
_atom_site_label
_atom_site_fract_x
_atom_site_fract_y
_atom_site_fract_z
Si Si1 0.720029 0.205614 0.891195
Si Si2 0.585814 0.795978 0.502061
Si Si3 0.329268 0.295020 0.143560
Si Si4 0.591053 0.407760 0.927215
Si Si5 0.161158 0.866000 0.694448
Si Si6 0.597607 0.473720 0.518626
Si Si7 0.000000 0.096589 0.750000
Si Si8 0.917015 0.254421 0.490353
O O1 0.551141 0.204036 0.698814
O O2 0.750000 0.250000 0.000000
O O3 0.816116 0.237099 0.913104
O O4 0.789505 0.141459 0.975292
O O5 0.697450 0.850439 0.607860
O O6 0.514664 0.793456 0.524522
O O7 0.366020 0.358585 0.137515
O O8 0.479515 0.267956 0.329082
O O9 0.250000 0.250000 0.000000
O O10 0.217794 0.293508 0.112083
O O11 0.500000 0.422739 0.750000
O O12 0.474446 0.380613 0.879012
O O13 0.662122 0.466431 0.040843
O O14 0.185715 0.921337 0.654455
O O15 0.128545 0.806274 0.605820
O O16 0.500000 0.500000 0.500000
O O17 0.522822 0.441427 0.360665
#
# Coordination Sequence:
#
# PCOD9294432 Si02
#       8
#     8   8   8   8   8   8   4   8
#     4  12  23  37  60  95 127 166 212 264 330 388
#     4  12  22  37  58  92 132 165 201 263 330 384
#     4  12  22  36  59  92 129 161 203 257 321 386
#     4  11  22  40  63  91 122 164 222 270 316 383
#     4  11  21  39  61  92 129 164 214 260 321 390
#     4  10  23  40  65  91 120 170 219 267 310 375
#     4  12  22  40  64  94 130 166 220 260 322 384
#     4  12  21  35  57  90 132 165 198 251 320 388
#
# _framework density 18.792674000000002
#
# number of rings (size 3 to 8) (size 9 to 14) (size 15 to 20)
#    0.000    0.533    7.333    2.000    0.000    0.000 
#    0.000    0.667    0.000    0.000    3.467    0.000 
#    0.000    0.000    0.000    0.000    0.000    0.000 
#
# Total GULP energy -167332.981225 kJ/mol
# GULP energy per Si atom -5577.766041 kJ/mol
# Density = 1.874990 g / cm^3
# Si number density = 18.792674 Si / 1000 Ang^3
#
#
#
# Elastic Constant Matrix: (Units=GPa)
#
#
# Indices 1 2 3 4 5 6 
#
# 1 88.1867 26.5824 15.8128 0.0000 -2.1844 0.0000
# 2 26.5824 105.8546 34.7019 0.0000 -0.0895 0.0000
# 3 15.8128 34.7019 117.2631 0.0000 -2.2051 0.0000
# 4 0.0000 0.0000 0.0000 27.1553 0.0000 -8.8724
# 5 -2.1844 -0.0895 -2.2051 0.0000 34.1568 0.0000
# 6 0.0000 0.0000 0.0000 -8.8724 0.0000 37.0530
#
#
#
# Elastic Compliance Matrix: (Units=1/GPa)
#
#
# Indices 1 2 3 4 5 6 
#
# 1 0.012358 -0.002836 -0.000813 0.000000 0.000730 0.000000
# 2 -0.002836 0.011114 -0.002913 0.000000 -0.000340 0.000000
# 3 -0.000813 -0.002913 0.009510 0.000000 0.000554 0.000000
# 4 0.000000 0.000000 0.000000 0.039951 0.000000 0.009566
# 5 0.000730 -0.000340 0.000554 0.000000 0.029358 0.000000
# 6 0.000000 0.000000 0.000000 0.009566 0.000000 0.029279
#
#
# Mechanical properties :
#
#
# Convention : Reuss Voigt Hill
#
# Bulk Modulus (GPa) = 50.35971 51.72208 51.04089
# Shear Modulus (GPa) = 33.04376 35.28683 34.16530
#
# Velocity S-wave (km/s) = 4.19780 4.33793 4.26844
# Velocity P-wave (km/s) = 7.09585 7.25758 7.17717
#
# Compressibility (1/GPa) = 0.01985714
#
# Stress axis : x y z
#
# Youngs Moduli (GPa) = 80.91630 89.97840 105.15286
#
# Poissons Ratio (x) = 0.25520 0.08554
# Poissons Ratio (y) = 0.22949 0.30630
# Poissons Ratio (z) = 0.06582 0.26210
#
# Static dielectric constant tensor:
#      x y z
#    x 1.790290 0.000000 -0.035430 
#    y 0.000000 1.651030 0.000000 
#    z -0.035430 0.000000 1.666490 
# 
# From -- ./inp_files/50685.got.cif
#   From: 2010.05.17/outbox.cif.g08.bks.cpg/sg15_26_cif.got.tgz:50685.got - 2010.06.03 18:47:42.
