data_PCOD9294073
_publ_section_title
;
Structure prediction by ZEFSAII (Michael W. Deem and Ramdas Pophale) SiO2 
 PCOD9294073
Probable space group: C 2/C
;
_chemical_formula_sum "Si O2"
_cell_formula_units_Z 48
_cell_length_a 8.962800
_cell_length_b 14.095003
_cell_length_c 17.805657
_cell_angle_alpha 90.000000
_cell_angle_beta 62.561558
_cell_angle_gamma 90.000000
_cell_volume 1996.357814
_symmetry_space_group_name_H-M "C 2/C"
_symmetry_group_IT_number 15
_symmetry_cell_setting 'monoclinic'
loop_
_space_group_symop_operation_xyz
x,y,z
-x,y,1/2-z
-x,-y,-z
x,-y,1/2+z
1/2+x,1/2+y,z
1/2-x,1/2+y,1/2-z
1/2-x,1/2-y,-z
1/2+x,1/2-y,1/2+z
loop_
_atom_site_type_symbol
_atom_site_label
_atom_site_fract_x
_atom_site_fract_y
_atom_site_fract_z
Si Si1 0.195173 0.308798 0.845590
Si Si2 0.487008 0.907285 0.093766
Si Si3 0.408172 0.740472 0.024191
Si Si4 0.500000 0.100128 0.250000
Si Si5 0.201938 0.564719 0.063676
Si Si6 0.000000 0.333632 0.250000
Si Si7 0.160461 0.105179 0.046917
O O1 0.050323 0.259752 0.929253
O O2 0.339424 0.232601 0.798114
O O3 0.290177 0.386628 0.877075
O O4 0.105997 0.344234 0.789939
O O5 0.454046 0.895718 0.188507
O O6 0.531823 0.017374 0.067734
O O7 0.365544 0.839613 0.075821
O O8 0.670001 0.859455 0.035039
O O9 0.246718 0.827559 0.960558
O O10 0.503189 0.669604 0.062472
O O11 0.651548 0.054840 0.163337
O O12 0.342107 0.499799 0.989713
#
# Coordination Sequence:
#
# PCOD9294073 Si02
#       7
#     8   8   8   4   8   4   8
#     4  11  23  39  68  93 136 179 239 282 367 432
#     4   9  19  33  64  98 121 177 226 282 356 423
#     4  11  18  42  68  96 128 179 241 295 342 445
#     4  12  27  42  56 103 140 174 216 308 371 424
#     4  10  23  38  65  96 136 174 231 296 355 424
#     4  12  17  36  68  97 132 174 232 304 343 428
#     4   9  19  39  65  95 121 178 238 283 337 443
#
# _framework density 24.043786000000001
#
# number of rings (size 3 to 8) (size 9 to 14) (size 15 to 20)
#    1.000    0.667    3.333    3.000    0.000    1.333 
#    0.000    0.000    7.333    0.000    0.000    0.000 
#    0.000    0.000    0.000    0.000    0.000    0.000 
#
# Total GULP energy -133647.967113 kJ/mol
# GULP energy per Si atom -5568.665296 kJ/mol
# Density = 2.398906 g / cm^3
# Si number density = 24.043786 Si / 1000 Ang^3
#
#
#
# Elastic Constant Matrix: (Units=GPa)
#
#
# Indices 1 2 3 4 5 6 
#
# 1 99.0852 32.7308 33.1854 0.0000 18.3595 0.0000
# 2 32.7308 160.4103 53.1027 0.0000 1.3904 0.0000
# 3 33.1854 53.1027 122.5880 0.0000 31.0030 0.0000
# 4 0.0000 0.0000 0.0000 50.4870 0.0000 -2.9285
# 5 18.3595 1.3904 31.0030 0.0000 39.3359 0.0000
# 6 0.0000 0.0000 0.0000 -2.9285 0.0000 37.9398
#
#
#
# Elastic Compliance Matrix: (Units=1/GPa)
#
#
# Indices 1 2 3 4 5 6 
#
# 1 0.012012 -0.002005 -0.001228 0.000000 -0.004568 0.000000
# 2 -0.002005 0.007864 -0.003785 0.000000 0.003641 0.000000
# 3 -0.001228 -0.003785 0.012428 0.000000 -0.009088 0.000000
# 4 0.000000 0.000000 0.000000 0.019896 0.000000 0.001536
# 5 -0.004568 0.003641 -0.009088 0.000000 0.034588 0.000000
# 6 0.000000 0.000000 0.000000 0.001536 0.000000 0.026476
#
#
# Mechanical properties :
#
#
# Convention : Reuss Voigt Hill
#
# Bulk Modulus (GPa) = 54.73766 68.90236 61.82001
# Shear Modulus (GPa) = 37.48406 43.09020 40.28713
#
# Velocity S-wave (km/s) = 3.95269 4.23798 4.09782
# Velocity P-wave (km/s) = 6.60658 7.25717 6.93950
#
# Compressibility (1/GPa) = 0.01826896
#
# Stress axis : x y z
#
# Youngs Moduli (GPa) = 83.24826 127.15440 80.46499
#
# Poissons Ratio (x) = 0.25493 0.09882
# Poissons Ratio (y) = 0.16690 0.30454
# Poissons Ratio (z) = 0.10224 0.48125
#
# Static dielectric constant tensor:
#      x y z
#    x 1.971290 0.000000 0.071630 
#    y 0.000000 2.028850 0.000000 
#    z 0.071630 0.000000 1.954820 
# 
# From -- ./inp_files/196551.got.cif
#   From: 2010.05.17/outbox.cif.g08.bks.cpg/sg15_99_cif.got.tgz:196551.got - 2010.06.03 18:47:42.
