data_PCOD9294691
_publ_section_title
;
Structure prediction by ZEFSAII (Michael W. Deem and Ramdas Pophale) SiO2 
 PCOD9294691
Probable space group: C 2/C
;
_chemical_formula_sum "Si O2"
_cell_formula_units_Z 36
_cell_length_a 9.135347
_cell_length_b 19.887905
_cell_length_c 7.248832
_cell_angle_alpha 90.000000
_cell_angle_beta 71.892132
_cell_angle_gamma 90.000000
_cell_volume 1251.762484
_symmetry_space_group_name_H-M "C 2/C"
_symmetry_group_IT_number 15
_symmetry_cell_setting 'monoclinic'
loop_
_space_group_symop_operation_xyz
x,y,z
-x,y,1/2-z
-x,-y,-z
x,-y,1/2+z
1/2+x,1/2+y,z
1/2-x,1/2+y,1/2-z
1/2-x,1/2-y,-z
1/2+x,1/2-y,1/2+z
loop_
_atom_site_type_symbol
_atom_site_label
_atom_site_fract_x
_atom_site_fract_y
_atom_site_fract_z
Si Si1 0.218151 0.415843 0.690605
Si Si2 0.648456 0.938069 0.297868
Si Si3 0.500000 0.265668 0.750000
Si Si4 0.038982 0.885731 0.452555
Si Si5 0.181574 0.736037 0.227161
O O1 0.165047 0.411139 0.497943
O O2 0.145807 0.480659 0.811661
O O3 0.402190 0.426049 0.603997
O O4 0.188637 0.342439 0.783403
O O5 0.500000 0.913585 0.250000
O O6 0.796403 0.919818 0.116352
O O7 0.534322 0.314754 0.561458
O O8 0.668263 0.231856 0.718928
O O9 0.000000 0.880392 0.250000
O O10 0.000000 0.745804 0.250000
O O11 0.250000 0.750000 0.000000
#
# Coordination Sequence:
#
# PCOD9294691 Si02
#       5
#     8   8   4   8   8
#     4  10  23  41  64 101 141 181 230 293 351 435
#     4  11  22  35  64 102 142 181 228 286 359 435
#     4  10  24  46  80 102 142 192 236 304 372 418
#     4   9  21  40  64 101 144 184 234 281 357 437
#     4  11  27  50  75 105 145 189 253 305 356 437
#
# _framework density 28.759450999999999
#
# number of rings (size 3 to 8) (size 9 to 14) (size 15 to 20)
#    0.000    1.778    0.000    2.000    9.333    8.000 
#    4.000    0.000    0.000    0.000    0.000    0.000 
#    0.000    0.000    0.000    0.000    0.000    0.000 
#
# Total GULP energy -100756.818173 kJ/mol
# GULP energy per Si atom -5597.601010 kJ/mol
# Density = 2.869399 g / cm^3
# Si number density = 28.759451 Si / 1000 Ang^3
#
#
#
# Elastic Constant Matrix: (Units=GPa)
#
#
# Indices 1 2 3 4 5 6 
#
# 1 314.4574 34.6018 66.5256 0.0000 -28.3025 0.0000
# 2 34.6018 92.3925 -6.7516 0.0000 -7.2369 0.0000
# 3 66.5256 -6.7516 77.7834 0.0000 2.4530 0.0000
# 4 0.0000 0.0000 0.0000 36.1037 0.0000 19.6624
# 5 -28.3025 -7.2369 2.4530 0.0000 72.1031 0.0000
# 6 0.0000 0.0000 0.0000 19.6624 0.0000 14.7035
#
#
#
# Elastic Compliance Matrix: (Units=1/GPa)
#
#
# Indices 1 2 3 4 5 6 
#
# 1 0.004360 -0.001790 -0.003937 0.000000 0.001666 0.000000
# 2 -0.001790 0.011709 0.002535 0.000000 0.000386 0.000000
# 3 -0.003937 0.002535 0.016502 0.000000 -0.001852 0.000000
# 4 0.000000 0.000000 0.000000 0.101937 0.000000 -0.136316
# 5 0.001666 0.000386 -0.001852 0.000000 0.014625 0.000000
# 6 0.000000 0.000000 0.000000 -0.136316 0.000000 0.250300
#
#
# Mechanical properties :
#
#
# Convention : Reuss Voigt Hill
#
# Bulk Modulus (GPa) = 38.18616 74.82055 56.50335
# Shear Modulus (GPa) = 12.06143 50.59922 31.33032
#
# Velocity S-wave (km/s) = 2.05012 4.19906 3.30418
# Velocity P-wave (km/s) = 4.34863 7.04145 5.85203
#
# Compressibility (1/GPa) = 0.02618750
#
# Stress axis : x y z
#
# Youngs Moduli (GPa) = 229.36883 85.40238 60.60023
#
# Poissons Ratio (x) = 0.15287 0.23856
# Poissons Ratio (y) = 0.41057 -0.15363
# Poissons Ratio (z) = 0.90295 -0.21650
#
# Static dielectric constant tensor:
#      x y z
#    x 2.458080 0.000000 -0.590550 
#    y 0.000000 2.253610 0.000000 
#    z -0.590550 0.000000 4.022760 
# 
# From -- ./inp_files/23312.got.cif
#   From: 2010.05.17/outbox.cif.g08.bks.cpg/sg15_12_cif.got.tgz:23312.got - 2010.06.03 18:47:42.
