data_PCOD9294009
_publ_section_title
;
Structure prediction by ZEFSAII (Michael W. Deem and Ramdas Pophale) SiO2 
 PCOD9294009
Probable space group: C 2/C
;
_chemical_formula_sum "Si O2"
_cell_formula_units_Z 40
_cell_length_a 13.348370
_cell_length_b 26.460437
_cell_length_c 5.415660
_cell_angle_alpha 90.000000
_cell_angle_beta 80.618558
_cell_angle_gamma 90.000000
_cell_volume 1887.247072
_symmetry_space_group_name_H-M "C 2/C"
_symmetry_group_IT_number 15
_symmetry_cell_setting 'monoclinic'
loop_
_space_group_symop_operation_xyz
x,y,z
-x,y,1/2-z
-x,-y,-z
x,-y,1/2+z
1/2+x,1/2+y,z
1/2-x,1/2+y,1/2-z
1/2-x,1/2-y,-z
1/2+x,1/2-y,1/2+z
loop_
_atom_site_type_symbol
_atom_site_label
_atom_site_fract_x
_atom_site_fract_y
_atom_site_fract_z
Si Si1 0.379112 0.531240 0.794868
Si Si2 0.880015 0.530312 0.280852
Si Si3 0.277888 0.791311 0.191852
Si Si4 0.618443 0.698061 0.151113
Si Si5 0.246582 0.119657 0.434529
O O1 0.500000 0.540423 0.750000
O O2 0.356685 0.504746 0.541570
O O3 0.322134 0.583544 0.867572
O O4 0.857446 0.507147 0.561705
O O5 0.816115 0.580704 0.259054
O O6 0.000000 0.540619 0.250000
O O7 0.354616 0.757797 0.319984
O O8 0.173092 0.808167 0.365582
O O9 0.250000 0.750000 0.000000
O O10 0.318241 0.842645 0.060449
O O11 0.500000 0.690476 0.250000
O O12 0.678124 0.657332 0.297482
#
# Coordination Sequence:
#
# PCOD9294009 Si02
#       5
#     8   8   8   8   8
#     4  10  23  38  57  92 132 169 210 259 317 383
#     4  10  23  44  67  96 134 176 221 276 331 384
#     4   9  22  43  60  93 127 167 216 270 336 392
#     4  10  23  42  66  93 131 169 212 275 340 403
#     4  11  23  37  66  93 125 171 218 268 325 399
#
# _framework density 21.194894000000001
#
# number of rings (size 3 to 8) (size 9 to 14) (size 15 to 20)
#    0.000    2.000    0.000    1.200    8.400    3.200 
#   10.800    0.000    0.000    0.000    0.000    0.000 
#    0.000    0.000    0.000    0.000    0.000    0.000 
#
# Total GULP energy -111485.297864 kJ/mol
# GULP energy per Si atom -5574.264893 kJ/mol
# Density = 2.114665 g / cm^3
# Si number density = 21.194894 Si / 1000 Ang^3
#
#
#
# Elastic Constant Matrix: (Units=GPa)
#
#
# Indices 1 2 3 4 5 6 
#
# 1 99.5428 42.2228 21.5554 0.0000 -8.7445 0.0000
# 2 42.2228 146.3454 46.7959 0.0000 -9.7932 0.0000
# 3 21.5554 46.7959 105.1322 0.0000 -6.9634 0.0000
# 4 0.0000 0.0000 0.0000 23.9656 0.0000 9.6587
# 5 -8.7445 -9.7932 -6.9634 0.0000 17.5791 0.0000
# 6 0.0000 0.0000 0.0000 9.6587 0.0000 18.7606
#
#
#
# Elastic Compliance Matrix: (Units=1/GPa)
#
#
# Indices 1 2 3 4 5 6 
#
# 1 0.011794 -0.002857 -0.000887 0.000000 0.003924 0.000000
# 2 -0.002857 0.008829 -0.003196 0.000000 0.002231 0.000000
# 3 -0.000887 -0.003196 0.011265 0.000000 0.002240 0.000000
# 4 0.000000 0.000000 0.000000 0.052651 0.000000 -0.027107
# 5 0.003924 0.002231 0.002240 0.000000 0.060968 0.000000
# 6 0.000000 0.000000 0.000000 -0.027107 0.000000 0.067259
#
#
# Mechanical properties :
#
#
# Convention : Reuss Voigt Hill
#
# Bulk Modulus (GPa) = 55.52965 63.57430 59.55197
# Shear Modulus (GPa) = 21.49165 28.09081 24.79123
#
# Velocity S-wave (km/s) = 3.18779 3.64450 3.42377
# Velocity P-wave (km/s) = 6.30918 6.91159 6.61724
#
# Compressibility (1/GPa) = 0.01800840
#
# Stress axis : x y z
#
# Youngs Moduli (GPa) = 84.78597 113.26660 88.77241
#
# Poissons Ratio (x) = 0.32357 0.07872
# Poissons Ratio (y) = 0.24221 0.28374
# Poissons Ratio (z) = 0.07518 0.36203
#
# Static dielectric constant tensor:
#      x y z
#    x 1.803980 0.000000 0.014430 
#    y 0.000000 1.759050 0.000000 
#    z 0.014430 0.000000 1.861890 
# 
# From -- ./inp_files/7482.got.cif
#   From: 2010.05.17/outbox.cif.g08.bks.cpg/sg15_4_cif.got.tgz:7482.got - 2010.06.03 18:47:42.
