data_PCOD9294481
_publ_section_title
;
Structure prediction by ZEFSAII (Michael W. Deem and Ramdas Pophale) SiO2 
 PCOD9294481
Probable space group: C 2/C
;
_chemical_formula_sum "Si O2"
_cell_formula_units_Z 40
_cell_length_a 6.084627
_cell_length_b 17.064180
_cell_length_c 17.274131
_cell_angle_alpha 90.000000
_cell_angle_beta 92.678444
_cell_angle_gamma 90.000000
_cell_volume 1791.599276
_symmetry_space_group_name_H-M "C 2/C"
_symmetry_group_IT_number 15
_symmetry_cell_setting 'monoclinic'
loop_
_space_group_symop_operation_xyz
x,y,z
-x,y,1/2-z
-x,-y,-z
x,-y,1/2+z
1/2+x,1/2+y,z
1/2-x,1/2+y,1/2-z
1/2-x,1/2-y,-z
1/2+x,1/2-y,1/2+z
loop_
_atom_site_type_symbol
_atom_site_label
_atom_site_fract_x
_atom_site_fract_y
_atom_site_fract_z
Si Si1 0.799953 0.950501 0.456801
Si Si2 0.818898 0.813187 0.680159
Si Si3 0.005593 0.836919 0.168199
Si Si4 0.989604 0.417940 0.898117
Si Si5 0.192502 0.771137 0.585849
O O1 0.902044 0.886006 0.401903
O O2 0.645039 0.918548 0.523153
O O3 0.638175 0.005054 0.402780
O O4 0.000000 0.000000 0.500000
O O5 0.657945 0.739337 0.686567
O O6 0.688646 0.894803 0.669735
O O7 0.000000 0.816075 0.750000
O O8 0.947068 0.794846 0.602434
O O9 0.000000 0.881218 0.250000
O O10 0.770406 0.801970 0.138976
O O11 0.159164 0.346546 0.894999
O O12 0.250000 0.750000 0.500000
#
# Coordination Sequence:
#
# PCOD9294481 Si02
#       5
#     8   8   8   8   8
#     4  11  23  44  66  95 138 177 224 275 341 413
#     4  11  22  41  67  95 133 169 223 287 338 394
#     4  11  23  41  66  99 128 172 225 281 343 409
#     4  10  23  40  66  96 127 178 223 273 330 418
#     4  11  21  39  68  96 123 171 226 278 332 394
#
# _framework density 22.326421
#
# number of rings (size 3 to 8) (size 9 to 14) (size 15 to 20)
#    0.000    1.200    2.000    4.800    0.000    4.800 
#    0.000    6.000    0.000    0.000    0.000    0.000 
#    0.000    0.000    0.000    0.000    0.000    0.000 
#
# Total GULP energy -111760.490549 kJ/mol
# GULP energy per Si atom -5588.024527 kJ/mol
# Density = 2.227560 g / cm^3
# Si number density = 22.326421 Si / 1000 Ang^3
#
#
#
# Elastic Constant Matrix: (Units=GPa)
#
#
# Indices 1 2 3 4 5 6 
#
# 1 86.2621 28.6087 10.5783 0.0000 -1.5108 0.0000
# 2 28.6087 75.7528 18.4439 0.0000 11.7909 0.0000
# 3 10.5783 18.4439 60.5116 0.0000 4.6266 0.0000
# 4 0.0000 0.0000 0.0000 26.9416 0.0000 3.4356
# 5 -1.5108 11.7909 4.6266 0.0000 46.3276 0.0000
# 6 0.0000 0.0000 0.0000 3.4356 0.0000 28.6045
#
#
#
# Elastic Compliance Matrix: (Units=1/GPa)
#
#
# Indices 1 2 3 4 5 6 
#
# 1 0.013442 -0.005138 -0.000924 0.000000 0.001838 0.000000
# 2 -0.005138 0.016716 -0.003888 0.000000 -0.004034 0.000000
# 3 -0.000924 -0.003888 0.017936 0.000000 -0.000832 0.000000
# 4 0.000000 0.000000 0.000000 0.037695 0.000000 -0.004527
# 5 0.001838 -0.004034 -0.000832 0.000000 0.022755 0.000000
# 6 0.000000 0.000000 0.000000 -0.004527 0.000000 0.035503
#
#
# Mechanical properties :
#
#
# Convention : Reuss Voigt Hill
#
# Bulk Modulus (GPa) = 35.46988 37.53202 36.50095
# Shear Modulus (GPa) = 28.84419 31.36780 30.10599
#
# Velocity S-wave (km/s) = 3.59824 3.75235 3.67610
# Velocity P-wave (km/s) = 5.76061 5.96830 5.86537
#
# Compressibility (1/GPa) = 0.02819294
#
# Stress axis : x y z
#
# Youngs Moduli (GPa) = 74.39374 59.82431 55.75334
#
# Poissons Ratio (x) = 0.30735 0.05154
# Poissons Ratio (y) = 0.38220 0.21679
# Poissons Ratio (z) = 0.06878 0.23262
#
# Static dielectric constant tensor:
#      x y z
#    x 1.832850 0.000000 0.021750 
#    y 0.000000 1.958770 0.000000 
#    z 0.021750 0.000000 1.883250 
# 
# From -- ./inp_files/184214.got.cif
#   From: 2010.05.17/outbox.cif.g08.bks.cpg/sg15_93_cif.got.tgz:184214.got - 2010.06.03 18:47:42.
