data_PCOD9294690
_publ_section_title
;
Structure prediction by ZEFSAII (Michael W. Deem and Ramdas Pophale) SiO2 
 PCOD9294690
Probable space group: C 2/C
;
_chemical_formula_sum "Si O2"
_cell_formula_units_Z 52
_cell_length_a 8.957416
_cell_length_b 10.881317
_cell_length_c 23.979597
_cell_angle_alpha 90.000000
_cell_angle_beta 80.446206
_cell_angle_gamma 90.000000
_cell_volume 2304.837699
_symmetry_space_group_name_H-M "C 2/C"
_symmetry_group_IT_number 15
_symmetry_cell_setting 'monoclinic'
loop_
_space_group_symop_operation_xyz
x,y,z
-x,y,1/2-z
-x,-y,-z
x,-y,1/2+z
1/2+x,1/2+y,z
1/2-x,1/2+y,1/2-z
1/2-x,1/2-y,-z
1/2+x,1/2-y,1/2+z
loop_
_atom_site_type_symbol
_atom_site_label
_atom_site_fract_x
_atom_site_fract_y
_atom_site_fract_z
Si Si1 0.086673 0.034598 0.625952
Si Si2 0.738831 0.762015 0.275137
Si Si3 0.421960 0.112361 0.973087
Si Si4 0.430408 0.383008 0.973999
Si Si5 0.000000 0.064587 0.250000
Si Si6 0.411506 0.045124 0.639046
Si Si7 0.969492 0.736254 0.165473
O O1 0.045311 0.916476 0.592672
O O2 0.061866 0.010311 0.693347
O O3 0.264626 0.058482 0.608386
O O4 0.995602 0.158685 0.617668
O O5 0.632703 0.648410 0.266488
O O6 0.632364 0.871048 0.305177
O O7 0.836843 0.787065 0.213754
O O8 0.869300 0.728652 0.312010
O O9 0.489457 0.246840 0.982694
O O10 0.446890 0.091435 0.905413
O O11 0.247005 0.115821 0.000577
O O12 0.500000 0.000000 0.000000
O O13 0.500000 0.500000 0.000000
O O14 0.428107 0.901111 0.650687
#
# Coordination Sequence:
#
# PCOD9294690 Si02
#       7
#     8   8   8   8   4   8   8
#     4  11  23  42  68 100 142 182 231 296 353 416
#     4  10  23  41  64 101 135 180 233 278 349 426
#     4  11  25  46  72 100 140 182 241 296 348 423
#     4  11  27  47  72 107 141 185 245 295 359 424
#     4  12  22  42  68  96 144 178 224 298 348 406
#     4  11  22  44  69 100 136 187 233 289 352 423
#     4  10  23  42  68  97 139 182 232 284 351 428
#
# _framework density 22.561240999999999
#
# number of rings (size 3 to 8) (size 9 to 14) (size 15 to 20)
#    0.000    1.231    3.077    2.769    2.154    5.538 
#    2.769    0.000    0.000    0.000    0.000    0.000 
#    0.000    0.000    0.000    0.000    0.000    0.000 
#
# Total GULP energy -145267.748202 kJ/mol
# GULP energy per Si atom -5587.221085 kJ/mol
# Density = 2.250989 g / cm^3
# Si number density = 22.561241 Si / 1000 Ang^3
#
#
#
# Elastic Constant Matrix: (Units=GPa)
#
#
# Indices 1 2 3 4 5 6 
#
# 1 31.8652 24.5565 13.9125 0.0000 -11.9084 0.0000
# 2 24.5565 182.9562 58.8072 0.0000 -7.4216 0.0000
# 3 13.9125 58.8072 112.4478 0.0000 -22.1968 0.0000
# 4 0.0000 0.0000 0.0000 34.3163 0.0000 -3.0739
# 5 -11.9084 -7.4216 -22.1968 0.0000 19.9113 0.0000
# 6 0.0000 0.0000 0.0000 -3.0739 0.0000 41.0963
#
#
#
# Elastic Compliance Matrix: (Units=1/GPa)
#
#
# Indices 1 2 3 4 5 6 
#
# 1 0.045134 -0.005901 0.003072 0.000000 0.028219 0.000000
# 2 -0.005901 0.007391 -0.004216 0.000000 -0.005474 0.000000
# 3 0.003072 -0.004216 0.013809 0.000000 0.015660 0.000000
# 4 0.000000 0.000000 0.000000 0.029337 0.000000 0.002194
# 5 0.028219 -0.005474 0.015660 0.000000 0.082517 0.000000
# 6 0.000000 0.000000 0.000000 0.002194 0.000000 0.024497
#
#
# Mechanical properties :
#
#
# Convention : Reuss Voigt Hill
#
# Bulk Modulus (GPa) = 19.14062 57.98017 38.56039
# Shear Modulus (GPa) = 21.35037 34.39766 27.87401
#
# Velocity S-wave (km/s) = 3.07958 3.90889 3.51876
# Velocity P-wave (km/s) = 4.59863 6.79172 5.79978
#
# Compressibility (1/GPa) = 0.05224492
#
# Stress axis : x y z
#
# Youngs Moduli (GPa) = 22.15633 135.30435 72.41768
#
# Poissons Ratio (x) = 0.79838 -0.22247
# Poissons Ratio (y) = 0.13074 0.30528
# Poissons Ratio (z) = -0.06806 0.57039
#
# Static dielectric constant tensor:
#      x y z
#    x 1.829930 0.000000 0.054730 
#    y 0.000000 2.143430 0.000000 
#    z 0.054730 0.000000 1.778620 
# 
# From -- ./inp_files/287604.got.cif
#   From: 2010.05.17/outbox.cif.g08.bks.cpg/sg15_144_cif.got.tgz:287604.got - 2010.06.03 18:47:42.
