data_PCOD9294399
_publ_section_title
;
Structure prediction by ZEFSAII (Michael W. Deem and Ramdas Pophale) SiO2 
 PCOD9294399
Probable space group: C 2/C
;
_chemical_formula_sum "Si O2"
_cell_formula_units_Z 48
_cell_length_a 10.695327
_cell_length_b 27.895369
_cell_length_c 8.458411
_cell_angle_alpha 90.000000
_cell_angle_beta 93.647461
_cell_angle_gamma 90.000000
_cell_volume 2518.455905
_symmetry_space_group_name_H-M "C 2/C"
_symmetry_group_IT_number 15
_symmetry_cell_setting 'monoclinic'
loop_
_space_group_symop_operation_xyz
x,y,z
-x,y,1/2-z
-x,-y,-z
x,-y,1/2+z
1/2+x,1/2+y,z
1/2-x,1/2+y,1/2-z
1/2-x,1/2-y,-z
1/2+x,1/2-y,1/2+z
loop_
_atom_site_type_symbol
_atom_site_label
_atom_site_fract_x
_atom_site_fract_y
_atom_site_fract_z
Si Si1 0.230291 0.697523 0.560699
Si Si2 0.953929 0.308692 0.067020
Si Si3 0.225918 0.124624 0.479176
Si Si4 0.386102 0.286469 0.366263
Si Si5 0.611983 0.631511 0.148032
Si Si6 0.529735 0.447027 0.065915
O O1 0.250000 0.750000 0.500000
O O2 0.263868 0.705819 0.746776
O O3 0.330889 0.665374 0.479523
O O4 0.091531 0.680388 0.506319
O O5 0.000000 0.297650 0.250000
O O6 0.860634 0.353814 0.039270
O O7 0.897782 0.261972 0.970769
O O8 0.128392 0.166148 0.529859
O O9 0.216288 0.120254 0.289273
O O10 0.168919 0.075693 0.547932
O O11 0.500000 0.286845 0.250000
O O12 0.500000 0.651172 0.250000
O O13 0.558045 0.586095 0.051282
O O14 0.500000 0.443275 0.250000
O O15 0.500000 0.500000 0.000000
#
# Coordination Sequence:
#
# PCOD9294399 Si02
#       6
#     8   8   8   8   8   8
#     4  12  24  38  58  87 127 178 228 266 318 382
#     4  12  27  38  58  85 132 183 225 262 321 385
#     4  11  23  40  61  91 129 168 215 270 328 379
#     4  12  23  38  57  87 125 176 228 273 312 371
#     4  10  23  40  64  92 126 163 210 272 325 378
#     4  11  23  43  73 102 125 154 204 271 333 385
#
# _framework density 19.059297999999998
#
# number of rings (size 3 to 8) (size 9 to 14) (size 15 to 20)
#    0.000    0.667    3.333    6.500    2.333    0.000 
#    0.000    0.000    0.000    1.000    0.000    0.000 
#    0.000    0.000    0.000    0.000    0.000    0.000 
#
# Total GULP energy -133745.663680 kJ/mol
# GULP energy per Si atom -5572.735987 kJ/mol
# Density = 1.901592 g / cm^3
# Si number density = 19.059298 Si / 1000 Ang^3
#
#
#
# Elastic Constant Matrix: (Units=GPa)
#
#
# Indices 1 2 3 4 5 6 
#
# 1 142.0651 60.9971 38.9501 0.0000 10.5478 0.0000
# 2 60.9971 105.5257 29.9969 0.0000 -0.7141 0.0000
# 3 38.9501 29.9969 124.8221 0.0000 19.3724 0.0000
# 4 0.0000 0.0000 0.0000 37.3929 0.0000 5.9697
# 5 10.5478 -0.7141 19.3724 0.0000 28.6258 0.0000
# 6 0.0000 0.0000 0.0000 5.9697 0.0000 28.6711
#
#
#
# Elastic Compliance Matrix: (Units=1/GPa)
#
#
# Indices 1 2 3 4 5 6 
#
# 1 0.009933 -0.005374 -0.001362 0.000000 -0.002872 0.000000
# 2 -0.005374 0.013196 -0.002070 0.000000 0.003710 0.000000
# 3 -0.001362 -0.002070 0.009904 0.000000 -0.006252 0.000000
# 4 0.000000 0.000000 0.000000 0.027663 0.000000 -0.005760
# 5 -0.002872 0.003710 -0.006252 0.000000 0.040316 0.000000
# 6 0.000000 0.000000 0.000000 -0.005760 0.000000 0.036078
#
#
# Mechanical properties :
#
#
# Convention : Reuss Voigt Hill
#
# Bulk Modulus (GPa) = 64.84738 70.25567 67.55152
# Shear Modulus (GPa) = 31.28076 35.10255 33.19165
#
# Velocity S-wave (km/s) = 4.05561 4.29622 4.17765
# Velocity P-wave (km/s) = 7.48522 7.84549 7.66747
#
# Compressibility (1/GPa) = 0.01542082
#
# Stress axis : x y z
#
# Youngs Moduli (GPa) = 100.67357 75.77946 100.96488
#
# Poissons Ratio (x) = 0.40722 0.13755
# Poissons Ratio (y) = 0.54100 0.20902
# Poissons Ratio (z) = 0.13716 0.15688
#
# Static dielectric constant tensor:
#      x y z
#    x 1.792610 0.000000 0.011450 
#    y 0.000000 1.632430 0.000000 
#    z 0.011450 0.000000 1.778560 
# 
# From -- ./inp_files/32037.got.cif
#   From: 2010.05.17/outbox.cif.g08.bks.cpg/sg15_17_cif.got.tgz:32037.got - 2010.06.03 18:47:42.
