data_PCOD9294946
_publ_section_title
;
Structure prediction by ZEFSAII (Michael W. Deem and Ramdas Pophale) SiO2 
 PCOD9294946
Probable space group: C 2/C
;
_chemical_formula_sum "Si O2"
_cell_formula_units_Z 56
_cell_length_a 11.843207
_cell_length_b 15.745608
_cell_length_c 14.585719
_cell_angle_alpha 90.000000
_cell_angle_beta 90.652394
_cell_angle_gamma 90.000000
_cell_volume 2719.746608
_symmetry_space_group_name_H-M "C 2/C"
_symmetry_group_IT_number 15
_symmetry_cell_setting 'monoclinic'
loop_
_space_group_symop_operation_xyz
x,y,z
-x,y,1/2-z
-x,-y,-z
x,-y,1/2+z
1/2+x,1/2+y,z
1/2-x,1/2+y,1/2-z
1/2-x,1/2-y,-z
1/2+x,1/2-y,1/2+z
loop_
_atom_site_type_symbol
_atom_site_label
_atom_site_fract_x
_atom_site_fract_y
_atom_site_fract_z
Si Si1 0.874169 0.994078 0.208461
Si Si2 0.114872 0.245172 0.488906
Si Si3 0.737477 0.678348 0.866815
Si Si4 0.290612 0.001848 0.123919
Si Si5 0.898045 0.333846 0.545149
Si Si6 0.392842 0.557660 0.017142
Si Si7 0.613666 0.825384 0.303188
O O1 0.790599 0.019460 0.289951
O O2 0.872639 0.060399 0.125352
O O3 0.000000 0.984462 0.250000
O O4 0.831395 0.906507 0.160725
O O5 0.250000 0.250000 0.500000
O O6 0.083839 0.151138 0.520879
O O7 0.092793 0.257060 0.381170
O O8 0.030765 0.312739 0.534805
O O9 0.659773 0.753686 0.904507
O O10 0.796793 0.703614 0.771946
O O11 0.833227 0.660902 0.945737
O O12 0.371678 0.079873 0.099802
O O13 0.348505 0.912488 0.147937
O O14 0.211760 0.983721 0.035935
O O15 0.500000 0.500000 0.000000
O O16 0.500000 0.844697 0.250000
#
# Coordination Sequence:
#
# PCOD9294946 Si02
#       7
#     8   8   8   8   8   8   8
#     4  11  23  40  69 105 147 189 237 295 358 421
#     4  12  27  47  72 102 139 188 233 294 357 425
#     4  10  23  41  70 103 142 182 232 295 357 418
#     4  11  25  44  69 103 144 189 235 293 358 421
#     4  11  24  44  70 102 139 185 235 287 361 426
#     4  12  24  43  72 106 145 183 240 291 351 421
#     4  11  24  47  69 101 141 185 236 289 356 424
#
# _framework density 20.590153999999998
#
# number of rings (size 3 to 8) (size 9 to 14) (size 15 to 20)
#    0.000    0.857    5.714    0.857    4.000    1.143 
#    5.143    0.714    0.000    0.000    0.000    0.000 
#    0.000    0.000    0.000    0.000    0.000    0.000 
#
# Total GULP energy -156467.575452 kJ/mol
# GULP energy per Si atom -5588.127695 kJ/mol
# Density = 2.054329 g / cm^3
# Si number density = 20.590154 Si / 1000 Ang^3
#
#
#
# Elastic Constant Matrix: (Units=GPa)
#
#
# Indices 1 2 3 4 5 6 
#
# 1 131.3224 49.6788 39.1669 0.0000 4.6468 0.0000
# 2 49.6788 90.1231 36.4192 0.0000 -13.3610 0.0000
# 3 39.1669 36.4192 84.6476 0.0000 -7.1189 0.0000
# 4 0.0000 0.0000 0.0000 34.0858 0.0000 -4.3015
# 5 4.6468 -13.3610 -7.1189 0.0000 37.7011 0.0000
# 6 0.0000 0.0000 0.0000 -4.3015 0.0000 29.3981
#
#
#
# Elastic Compliance Matrix: (Units=1/GPa)
#
#
# Indices 1 2 3 4 5 6 
#
# 1 0.010598 -0.005185 -0.002984 0.000000 -0.003707 0.000000
# 2 -0.005185 0.016505 -0.004223 0.000000 0.005691 0.000000
# 3 -0.002984 -0.004223 0.015157 0.000000 0.001733 0.000000
# 4 0.000000 0.000000 0.000000 0.029890 0.000000 0.004373
# 5 -0.003707 0.005691 0.001733 0.000000 0.029325 0.000000
# 6 0.000000 0.000000 0.000000 0.004373 0.000000 0.034656
#
#
# Mechanical properties :
#
#
# Convention : Reuss Voigt Hill
#
# Bulk Modulus (GPa) = 57.22869 61.84700 59.53785
# Shear Modulus (GPa) = 29.98662 32.29221 31.13942
#
# Velocity S-wave (km/s) = 3.82037 3.96451 3.89311
# Velocity P-wave (km/s) = 6.87858 7.14555 7.01333
#
# Compressibility (1/GPa) = 0.01747375
#
# Stress axis : x y z
#
# Youngs Moduli (GPa) = 94.35932 60.58923 65.97469
#
# Poissons Ratio (x) = 0.31418 0.19690
# Poissons Ratio (y) = 0.48930 0.27862
# Poissons Ratio (z) = 0.28161 0.25587
#
# Static dielectric constant tensor:
#      x y z
#    x 1.745530 0.000000 -0.016900 
#    y 0.000000 1.777440 0.000000 
#    z -0.016900 0.000000 1.739690 
# 
# From -- ./inp_files/144250.got.cif
#   From: 2010.05.17/outbox.cif.g08.bks.cpg/sg15_73_cif.got.tgz:144250.got - 2010.06.03 18:47:42.
