data_PCOD9294669
_publ_section_title
;
Structure prediction by ZEFSAII (Michael W. Deem and Ramdas Pophale) SiO2 
 PCOD9294669
Probable space group: C 2/C
;
_chemical_formula_sum "Si O2"
_cell_formula_units_Z 28
_cell_length_a 11.274689
_cell_length_b 7.227500
_cell_length_c 22.313632
_cell_angle_alpha 90.000000
_cell_angle_beta 43.549936
_cell_angle_gamma 90.000000
_cell_volume 1252.776673
_symmetry_space_group_name_H-M "C 2/C"
_symmetry_group_IT_number 15
_symmetry_cell_setting 'monoclinic'
loop_
_space_group_symop_operation_xyz
x,y,z
-x,y,1/2-z
-x,-y,-z
x,-y,1/2+z
1/2+x,1/2+y,z
1/2-x,1/2+y,1/2-z
1/2-x,1/2-y,-z
1/2+x,1/2-y,1/2+z
loop_
_atom_site_type_symbol
_atom_site_label
_atom_site_fract_x
_atom_site_fract_y
_atom_site_fract_z
Si Si1 0.350706 0.514407 0.130099
Si Si2 0.372572 0.775841 0.512890
Si Si3 0.171003 0.136656 0.584918
Si Si4 0.500000 0.122652 0.250000
O O1 0.339105 0.370851 0.078513
O O2 0.492696 0.446947 0.124927
O O3 0.156511 0.518936 0.225554
O O4 0.438547 0.708575 0.077049
O O5 0.250000 0.750000 0.500000
O O6 0.310596 0.981326 0.552940
O O7 0.250000 0.250000 0.500000
O O8 0.104784 0.263962 0.662560
#
# Coordination Sequence:
#
# PCOD9294669 Si02
#       4
#     8   8   8   4
#     4  10  23  41  63  93 132 172 217 270 326 396
#     4   9  19  41  67  90 125 173 215 264 325 388
#     4  11  25  43  67  96 128 171 220 272 330 392
#     4  12  26  40  62 100 130 164 216 266 330 398
#
# _framework density 22.350351
#
# number of rings (size 3 to 8) (size 9 to 14) (size 15 to 20)
#    0.000    1.714    0.000    5.143    0.000   14.857 
#    0.000    0.000    0.000    0.000    0.000    0.000 
#    0.000    0.000    0.000    0.000    0.000    0.000 
#
# Total GULP energy -78032.655379 kJ/mol
# GULP energy per Si atom -5573.761099 kJ/mol
# Density = 2.229948 g / cm^3
# Si number density = 22.350351 Si / 1000 Ang^3
#
#
#
# Elastic Constant Matrix: (Units=GPa)
#
#
# Indices 1 2 3 4 5 6 
#
# 1 122.4314 31.2382 37.4912 0.0000 -47.6669 0.0000
# 2 31.2382 63.2016 0.0995 0.0000 -19.0030 0.0000
# 3 37.4912 0.0995 94.7331 0.0000 -42.7111 0.0000
# 4 0.0000 0.0000 0.0000 32.3160 0.0000 -8.7922
# 5 -47.6669 -19.0030 -42.7111 0.0000 62.5075 0.0000
# 6 0.0000 0.0000 0.0000 -8.7922 0.0000 52.6774
#
#
#
# Elastic Compliance Matrix: (Units=1/GPa)
#
#
# Indices 1 2 3 4 5 6 
#
# 1 0.012501 -0.004034 -0.001731 0.000000 0.007123 0.000000
# 2 -0.004034 0.019520 0.004140 0.000000 0.005687 0.000000
# 3 -0.001731 0.004140 0.016200 0.000000 0.011007 0.000000
# 4 0.000000 0.000000 0.000000 0.032416 0.000000 0.005411
# 5 0.007123 0.005687 0.011007 0.000000 0.030680 0.000000
# 6 0.000000 0.000000 0.000000 0.005411 0.000000 0.019887
#
#
# Mechanical properties :
#
#
# Convention : Reuss Voigt Hill
#
# Bulk Modulus (GPa) = 22.23776 46.44711 34.34243
# Shear Modulus (GPa) = 33.45738 43.60266 38.53002
#
# Velocity S-wave (km/s) = 3.87324 4.42166 4.15651
# Velocity P-wave (km/s) = 5.47484 6.84796 6.19954
#
# Compressibility (1/GPa) = 0.04496856
#
# Stress axis : x y z
#
# Youngs Moduli (GPa) = 79.99563 51.23051 61.73006
#
# Poissons Ratio (x) = 0.20667 0.10688
# Poissons Ratio (y) = 0.32271 -0.25556
# Poissons Ratio (z) = 0.13850 -0.21209
#
# Static dielectric constant tensor:
#      x y z
#    x 1.833120 0.000000 -0.030320 
#    y 0.000000 1.905990 0.000000 
#    z -0.030320 0.000000 1.774200 
# 
# From -- ./inp_files/140294.got.cif
#   From: 2010.05.17/outbox.cif.g08.bks.cpg/sg15_71_cif.got.tgz:140294.got - 2010.06.03 18:47:42.
