data_PCOD9294590
_publ_section_title
;
Structure prediction by ZEFSAII (Michael W. Deem and Ramdas Pophale) SiO2 
 PCOD9294590
Probable space group: C 2/C
;
_chemical_formula_sum "Si O2"
_cell_formula_units_Z 44
_cell_length_a 10.850071
_cell_length_b 10.904957
_cell_length_c 19.187071
_cell_angle_alpha 90.000000
_cell_angle_beta 122.428372
_cell_angle_gamma 90.000000
_cell_volume 1916.195519
_symmetry_space_group_name_H-M "C 2/C"
_symmetry_group_IT_number 15
_symmetry_cell_setting 'monoclinic'
loop_
_space_group_symop_operation_xyz
x,y,z
-x,y,1/2-z
-x,-y,-z
x,-y,1/2+z
1/2+x,1/2+y,z
1/2-x,1/2+y,1/2-z
1/2-x,1/2-y,-z
1/2+x,1/2-y,1/2+z
loop_
_atom_site_type_symbol
_atom_site_label
_atom_site_fract_x
_atom_site_fract_y
_atom_site_fract_z
Si Si1 0.274560 0.687262 0.601042
Si Si2 0.557137 0.496658 0.615339
Si Si3 0.877423 0.556140 0.153284
Si Si4 0.547639 0.707203 0.511487
Si Si5 0.641501 0.955775 0.498914
Si Si6 0.000000 0.945625 0.250000
O O1 0.366997 0.809940 0.613021
O O2 0.110074 0.735301 0.553518
O O3 0.258734 0.563633 0.550369
O O4 0.356562 0.637391 0.694008
O O5 0.722316 0.462455 0.643956
O O6 0.546358 0.637653 0.585114
O O7 0.447901 0.407675 0.539823
O O8 0.531757 0.482157 0.689312
O O9 0.892931 0.461212 0.093977
O O10 0.000000 0.550655 0.250000
O O11 0.661369 0.816945 0.533260
O O12 0.500000 0.000000 0.500000
#
# Coordination Sequence:
#
# PCOD9294590 Si02
#       6
#     8   8   8   8   8   4
#     4  10  23  41  70  98 133 182 236 279 334 417
#     4  10  25  45  69  98 140 181 228 289 351 411
#     4  11  24  44  67 100 143 179 228 292 350 405
#     4   9  22  47  69  98 136 180 231 284 348 414
#     4  10  23  40  73 100 130 180 235 274 340 421
#     4  12  26  42  68 102 134 180 232 284 344 408
#
# _framework density 22.962167000000001
#
# number of rings (size 3 to 8) (size 9 to 14) (size 15 to 20)
#    0.000    1.818    0.909    0.545   17.818    0.727 
#    4.909    0.000    0.000    0.000    0.000    0.000 
#    0.000    0.000    0.000    0.000    0.000    0.000 
#
# Total GULP energy -122690.827008 kJ/mol
# GULP energy per Si atom -5576.855773 kJ/mol
# Density = 2.290990 g / cm^3
# Si number density = 22.962167 Si / 1000 Ang^3
#
#
#
# Elastic Constant Matrix: (Units=GPa)
#
#
# Indices 1 2 3 4 5 6 
#
# 1 87.5646 33.9558 38.7176 0.0000 -20.3451 0.0000
# 2 33.9558 143.5866 38.3409 0.0000 -10.7577 0.0000
# 3 38.7176 38.3409 120.5211 0.0000 -7.7904 0.0000
# 4 0.0000 0.0000 0.0000 31.4193 0.0000 -5.5236
# 5 -20.3451 -10.7577 -7.7904 0.0000 48.6858 0.0000
# 6 0.0000 0.0000 0.0000 -5.5236 0.0000 31.4876
#
#
#
# Elastic Compliance Matrix: (Units=1/GPa)
#
#
# Indices 1 2 3 4 5 6 
#
# 1 0.015183 -0.002170 -0.003848 0.000000 0.005249 0.000000
# 2 -0.002170 0.008004 -0.001812 0.000000 0.000572 0.000000
# 3 -0.003848 -0.001812 0.010084 0.000000 -0.000395 0.000000
# 4 0.000000 0.000000 0.000000 0.032840 0.000000 0.005761
# 5 0.005249 0.000572 -0.000395 0.000000 0.022797 0.000000
# 6 0.000000 0.000000 0.000000 0.005761 0.000000 0.032769
#
#
# Mechanical properties :
#
#
# Convention : Reuss Voigt Hill
#
# Bulk Modulus (GPa) = 56.78106 63.74454 60.26280
# Shear Modulus (GPa) = 34.91425 38.36240 36.63833
#
# Velocity S-wave (km/s) = 3.90360 4.09183 3.99882
# Velocity P-wave (km/s) = 6.71560 7.08131 6.90088
#
# Compressibility (1/GPa) = 0.01761151
#
# Stress axis : x y z
#
# Youngs Moduli (GPa) = 65.86513 124.93235 99.16213
#
# Poissons Ratio (x) = 0.27106 0.38156
# Poissons Ratio (y) = 0.14290 0.17972
# Poissons Ratio (z) = 0.25344 0.22643
#
# Static dielectric constant tensor:
#      x y z
#    x 1.933360 0.000000 0.015040 
#    y 0.000000 1.939650 0.000000 
#    z 0.015040 0.000000 1.854080 
# 
# From -- ./inp_files/196652.got.cif
#   From: 2010.05.17/outbox.cif.g08.bks.cpg/sg15_99_cif.got.tgz:196652.got - 2010.06.03 18:47:42.
