data_PCOD9294644
_publ_section_title
;
Structure prediction by ZEFSAII (Michael W. Deem and Ramdas Pophale) SiO2 
 PCOD9294644
Probable space group: C 2/C
;
_chemical_formula_sum "Si O2"
_cell_formula_units_Z 36
_cell_length_a 11.877073
_cell_length_b 13.363934
_cell_length_c 9.108750
_cell_angle_alpha 90.000000
_cell_angle_beta 98.630024
_cell_angle_gamma 90.000000
_cell_volume 1429.411760
_symmetry_space_group_name_H-M "C 2/C"
_symmetry_group_IT_number 15
_symmetry_cell_setting 'monoclinic'
loop_
_space_group_symop_operation_xyz
x,y,z
-x,y,1/2-z
-x,-y,-z
x,-y,1/2+z
1/2+x,1/2+y,z
1/2-x,1/2+y,1/2-z
1/2-x,1/2-y,-z
1/2+x,1/2-y,1/2+z
loop_
_atom_site_type_symbol
_atom_site_label
_atom_site_fract_x
_atom_site_fract_y
_atom_site_fract_z
Si Si1 0.188247 0.122324 0.787928
Si Si2 0.921893 0.461984 0.354961
Si Si3 0.666358 0.824713 0.692134
Si Si4 0.616098 0.324766 0.961560
Si Si5 0.000000 0.040537 0.250000
O O1 0.149809 0.236575 0.807249
O O2 0.183587 0.119563 0.607274
O O3 0.102136 0.034496 0.808489
O O4 0.311935 0.101462 0.873623
O O5 0.870252 0.565031 0.274754
O O6 0.000000 0.409533 0.250000
O O7 0.000000 0.500000 0.500000
O O8 0.597913 0.781875 0.535813
O O9 0.796680 0.821385 0.657908
O O10 0.505050 0.384123 0.889476
#
# Coordination Sequence:
#
# PCOD9294644 Si02
#       5
#     8   8   8   8   4
#     4  10  23  41  62  94 128 166 219 269 329 382
#     4  12  26  45  69  98 137 177 221 274 331 399
#     4   9  21  43  61  92 132 169 223 266 329 401
#     4   9  20  39  63  89 127 170 217 270 323 394
#     4  12  20  36  72  88 126 166 230 266 328 386
#
# _framework density 25.185185000000001
#
# number of rings (size 3 to 8) (size 9 to 14) (size 15 to 20)
#    1.333    0.444    2.222    2.000    1.556    1.778 
#    0.000    1.111    0.000    0.000    0.000    0.000 
#    0.000    0.000    0.000    0.000    0.000    0.000 
#
# Total GULP energy -100414.720009 kJ/mol
# GULP energy per Si atom -5578.595556 kJ/mol
# Density = 2.512786 g / cm^3
# Si number density = 25.185185 Si / 1000 Ang^3
#
#
#
# Elastic Constant Matrix: (Units=GPa)
#
#
# Indices 1 2 3 4 5 6 
#
# 1 63.3058 -7.8796 13.8516 0.0000 13.4814 0.0000
# 2 -7.8796 95.8503 -7.8232 0.0000 6.8386 0.0000
# 3 13.8516 -7.8232 59.6464 0.0000 24.2211 0.0000
# 4 0.0000 0.0000 0.0000 33.5462 0.0000 0.3970
# 5 13.4814 6.8386 24.2211 0.0000 30.6641 0.0000
# 6 0.0000 0.0000 0.0000 0.3970 0.0000 1.2402
#
#
#
# Elastic Compliance Matrix: (Units=1/GPa)
#
#
# Indices 1 2 3 4 5 6 
#
# 1 0.017841 0.001951 -0.000774 0.000000 -0.007668 0.000000
# 2 0.001951 0.011323 0.003542 0.000000 -0.006181 0.000000
# 3 -0.000774 0.003542 0.025900 0.000000 -0.020908 0.000000
# 4 0.000000 0.000000 0.000000 0.029923 0.000000 -0.009579
# 5 -0.007668 -0.006181 -0.020908 0.000000 0.053876 0.000000
# 6 0.000000 0.000000 0.000000 -0.009579 0.000000 0.809385
#
#
# Mechanical properties :
#
#
# Convention : Reuss Voigt Hill
#
# Bulk Modulus (GPa) = 15.50327 23.90001 19.70164
# Shear Modulus (GPa) = 5.20665 27.80034 16.50349
#
# Velocity S-wave (km/s) = 1.43939 3.32601 2.56263
# Velocity P-wave (km/s) = 2.98856 4.92545 4.07379
#
# Compressibility (1/GPa) = 0.06450251
#
# Stress axis : x y z
#
# Youngs Moduli (GPa) = 56.04967 88.31300 38.61015
#
# Poissons Ratio (x) = -0.17227 0.02987
# Poissons Ratio (y) = -0.10933 -0.13676
# Poissons Ratio (z) = 0.04336 -0.31281
#
# Static dielectric constant tensor:
#      x y z
#    x 2.062940 0.000000 -0.025020 
#    y 0.000000 2.043100 0.000000 
#    z -0.025020 0.000000 1.957500 
# 
# From -- ./inp_files/85123.got.cif
#   From: 2010.05.17/outbox.cif.g08.bks.cpg/sg15_43_cif.got.tgz:85123.got - 2010.06.03 18:47:42.
