data_PCOD9294152
_publ_section_title
;
Structure prediction by ZEFSAII (Michael W. Deem and Ramdas Pophale) SiO2 
 PCOD9294152
Probable space group: C 2/C
;
_chemical_formula_sum "Si O2"
_cell_formula_units_Z 48
_cell_length_a 12.292620
_cell_length_b 7.721529
_cell_length_c 20.666341
_cell_angle_alpha 90.000000
_cell_angle_beta 115.866858
_cell_angle_gamma 90.000000
_cell_volume 1765.071531
_symmetry_space_group_name_H-M "C 2/C"
_symmetry_group_IT_number 15
_symmetry_cell_setting 'monoclinic'
loop_
_space_group_symop_operation_xyz
x,y,z
-x,y,1/2-z
-x,-y,-z
x,-y,1/2+z
1/2+x,1/2+y,z
1/2-x,1/2+y,1/2-z
1/2-x,1/2-y,-z
1/2+x,1/2-y,1/2+z
loop_
_atom_site_type_symbol
_atom_site_label
_atom_site_fract_x
_atom_site_fract_y
_atom_site_fract_z
Si Si1 0.303002 0.013099 0.638913
Si Si2 0.138846 0.307739 0.219613
Si Si3 0.197178 0.108407 0.424388
Si Si4 0.045407 0.191589 0.069706
Si Si5 0.869990 0.633130 0.032167
Si Si6 0.127466 0.930005 0.276905
O O1 0.365494 0.056281 0.723397
O O2 0.289448 0.204277 0.604276
O O3 0.167932 0.927587 0.606406
O O4 0.386490 0.900618 0.612316
O O5 0.068649 0.330554 0.133817
O O6 0.107415 0.115568 0.236192
O O7 0.279072 0.316344 0.237451
O O8 0.177729 0.978041 0.359987
O O9 0.079189 0.100284 0.440537
O O10 0.319006 0.047539 0.490510
O O11 0.043763 0.277337 0.998077
O O12 0.750000 0.750000 0.000000
O O13 0.000000 0.843257 0.250000
#
# Coordination Sequence:
#
# PCOD9294152 Si02
#       6
#     8   8   8   8   8   8
#     4  10  23  39  61  96 128 162 217 264 315 389
#     4  11  20  38  64  91 127 163 214 268 321 384
#     4  11  22  40  68  89 126 171 212 259 323 384
#     4  11  22  42  65  91 126 172 214 266 326 383
#     4  10  23  42  66  94 131 172 215 268 319 383
#     4  11  21  38  63  90 123 163 208 264 326 379
#
# _framework density 27.194365999999999
#
# number of rings (size 3 to 8) (size 9 to 14) (size 15 to 20)
#    0.000    1.333    5.000    0.500    0.000    3.333 
#    0.000    5.833    0.000    0.000    0.000    0.000 
#    0.000    0.000    0.000    0.000    0.000    0.000 
#
# Total GULP energy -134429.693862 kJ/mol
# GULP energy per Si atom -5601.237244 kJ/mol
# Density = 2.713247 g / cm^3
# Si number density = 27.194366 Si / 1000 Ang^3
#
#
#
# Elastic Constant Matrix: (Units=GPa)
#
#
# Indices 1 2 3 4 5 6 
#
# 1 186.8999 40.5550 24.3225 0.0000 -27.6754 0.0000
# 2 40.5550 108.1074 31.4725 0.0000 -19.0706 0.0000
# 3 24.3225 31.4725 137.3829 0.0000 -38.9346 0.0000
# 4 0.0000 0.0000 0.0000 28.6065 0.0000 -5.0674
# 5 -27.6754 -19.0706 -38.9346 0.0000 37.5182 0.0000
# 6 0.0000 0.0000 0.0000 -5.0674 0.0000 38.3486
#
#
#
# Elastic Compliance Matrix: (Units=1/GPa)
#
#
# Indices 1 2 3 4 5 6 
#
# 1 0.006299 -0.001754 0.000497 0.000000 0.004270 0.000000
# 2 -0.001754 0.010797 -0.001380 0.000000 0.002762 0.000000
# 3 0.000497 -0.001380 0.010500 0.000000 0.010562 0.000000
# 4 0.000000 0.000000 0.000000 0.035795 0.000000 0.004730
# 5 0.004270 0.002762 0.010562 0.000000 0.042168 0.000000
# 6 0.000000 0.000000 0.000000 0.004730 0.000000 0.026702
#
#
# Mechanical properties :
#
#
# Convention : Reuss Voigt Hill
#
# Bulk Modulus (GPa) = 44.80018 69.45448 57.12733
# Shear Modulus (GPa) = 34.48834 43.29733 38.89284
#
# Velocity S-wave (km/s) = 3.56507 3.99450 3.78587
# Velocity P-wave (km/s) = 5.78412 6.84618 6.33744
#
# Compressibility (1/GPa) = 0.02232134
#
# Stress axis : x y z
#
# Youngs Moduli (GPa) = 158.76111 92.61692 95.23469
#
# Poissons Ratio (x) = 0.16248 -0.04733
# Poissons Ratio (y) = 0.27851 0.13144
# Poissons Ratio (z) = -0.07890 0.12783
#
# Static dielectric constant tensor:
#      x y z
#    x 2.151310 0.000000 -0.093720 
#    y 0.000000 2.186860 0.000000 
#    z -0.093720 0.000000 2.228630 
# 
# From -- ./inp_files/267794.got.cif
#   From: 2010.05.17/outbox.cif.g08.bks.cpg/sg15_134_cif.got.tgz:267794.got - 2010.06.03 18:47:42.
