data_PCOD9294154
_publ_section_title
;
Structure prediction by ZEFSAII (Michael W. Deem and Ramdas Pophale) SiO2 
 PCOD9294154
Probable space group: C 2/C
;
_chemical_formula_sum "Si O2"
_cell_formula_units_Z 48
_cell_length_a 16.689106
_cell_length_b 16.905889
_cell_length_c 18.734762
_cell_angle_alpha 90.000000
_cell_angle_beta 23.483802
_cell_angle_gamma 90.000000
_cell_volume 2106.378764
_symmetry_space_group_name_H-M "C 2/C"
_symmetry_group_IT_number 15
_symmetry_cell_setting 'monoclinic'
loop_
_space_group_symop_operation_xyz
x,y,z
-x,y,1/2-z
-x,-y,-z
x,-y,1/2+z
1/2+x,1/2+y,z
1/2-x,1/2+y,1/2-z
1/2-x,1/2-y,-z
1/2+x,1/2-y,1/2+z
loop_
_atom_site_type_symbol
_atom_site_label
_atom_site_fract_x
_atom_site_fract_y
_atom_site_fract_z
Si Si1 0.936691 0.348184 0.959876
Si Si2 0.896694 0.085791 0.565631
Si Si3 0.518082 0.923283 0.034886
Si Si4 0.840384 0.172671 0.042483
Si Si5 0.977984 0.899553 0.694240
Si Si6 0.285667 0.954992 0.964849
O O1 0.825195 0.420805 0.011806
O O2 0.155135 0.346647 0.745589
O O3 0.967215 0.355451 0.019174
O O4 0.836609 0.264224 0.026293
O O5 0.657734 0.073710 0.763563
O O6 0.965234 0.144477 0.572563
O O7 0.962398 0.121306 0.435865
O O8 0.000000 0.000000 0.500000
O O9 0.740920 0.915440 0.881543
O O10 0.500000 0.000000 0.000000
O O11 0.812624 0.118198 0.996853
O O12 0.000000 0.849688 0.750000
O O13 0.129959 0.973403 0.584130
O O14 0.500000 0.971435 0.750000
#
# Coordination Sequence:
#
# PCOD9294154 Si02
#       6
#     8   8   8   8   8   8
#     4  11  23  39  65  99 137 180 224 267 340 404
#     4  12  23  42  67  95 133 175 226 275 330 396
#     4  12  23  41  65  95 131 175 225 280 329 395
#     4  11  21  41  63  98 138 184 219 272 330 408
#     4  12  26  40  66  97 131 173 227 279 333 387
#     4  10  23  39  61  98 144 181 218 269 335 407
#
# _framework density 22.787925000000001
#
# number of rings (size 3 to 8) (size 9 to 14) (size 15 to 20)
#    0.000    0.667    5.000    2.500    4.667    1.333 
#    0.000    0.000    0.000    1.000    0.000    0.000 
#    0.000    0.000    0.000    0.000    0.000    0.000 
#
# Total GULP energy -134186.120704 kJ/mol
# GULP energy per Si atom -5591.088363 kJ/mol
# Density = 2.273606 g / cm^3
# Si number density = 22.787925 Si / 1000 Ang^3
#
#
#
# Elastic Constant Matrix: (Units=GPa)
#
#
# Indices 1 2 3 4 5 6 
#
# 1 142.5362 -2.9510 37.4400 0.0109 -9.2988 0.0030
# 2 -2.9510 18.8238 -7.0406 -0.0008 -2.1531 0.0050
# 3 37.4400 -7.0406 144.3264 -0.0536 -12.7749 0.0153
# 4 0.0109 -0.0008 -0.0536 21.8473 0.0006 0.2033
# 5 -9.2988 -2.1531 -12.7749 0.0006 32.9501 -0.0019
# 6 0.0030 0.0050 0.0153 0.2033 -0.0019 25.3120
#
#
#
# Elastic Compliance Matrix: (Units=1/GPa)
#
#
# Indices 1 2 3 4 5 6 
#
# 1 0.007602 0.000686 -0.001807 -0.000008 0.001490 0.000000
# 2 0.000686 0.054892 0.002935 0.000009 0.004919 -0.000012
# 3 -0.001807 0.002935 0.007779 0.000020 0.002698 -0.000005
# 4 -0.000008 0.000009 0.000020 0.045776 0.000005 -0.000368
# 5 0.001490 0.004919 0.002698 0.000005 0.032137 0.000000
# 6 0.000000 -0.000012 -0.000005 -0.000368 0.000000 0.039510
#
#
# Mechanical properties :
#
#
# Convention : Reuss Voigt Hill
#
# Bulk Modulus (GPa) = 13.53126 40.06481 26.79804
# Shear Modulus (GPa) = 23.95780 34.57109 29.26445
#
# Velocity S-wave (km/s) = 3.24595 3.89920 3.58747
# Velocity P-wave (km/s) = 4.47203 6.15560 5.38008
#
# Compressibility (1/GPa) = 0.07390297
#
# Stress axis : x y z
#
# Youngs Moduli (GPa) = 131.54945 18.21752 128.54452
#
# Poissons Ratio (x) = -0.01250 0.23223
# Poissons Ratio (y) = -0.09029 -0.37729
# Poissons Ratio (z) = 0.23766 -0.05347
#
# Static dielectric constant tensor:
#      x y z
#    x 1.908900 0.000010 0.033810 
#    y 0.000010 1.872780 0.000030 
#    z 0.033810 0.000030 1.859350 
# 
# From -- ./inp_files/249702.got.cif
#   From: 2010.05.17/outbox.cif.g08.bks.cpg/sg15_125_cif.got.tgz:249702.got - 2010.06.03 18:47:42.
