data_PCOD9294809
_publ_section_title
;
Structure prediction by ZEFSAII (Michael W. Deem and Ramdas Pophale) SiO2 
 PCOD9294809
Probable space group: C 2/C
;
_chemical_formula_sum "Si O2"
_cell_formula_units_Z 40
_cell_length_a 4.942388
_cell_length_b 13.006162
_cell_length_c 27.427921
_cell_angle_alpha 90.000000
_cell_angle_beta 88.843744
_cell_angle_gamma 90.000000
_cell_volume 1762.748874
_symmetry_space_group_name_H-M "C 2/C"
_symmetry_group_IT_number 15
_symmetry_cell_setting 'monoclinic'
loop_
_space_group_symop_operation_xyz
x,y,z
-x,y,1/2-z
-x,-y,-z
x,-y,1/2+z
1/2+x,1/2+y,z
1/2-x,1/2+y,1/2-z
1/2-x,1/2-y,-z
1/2+x,1/2-y,1/2+z
loop_
_atom_site_type_symbol
_atom_site_label
_atom_site_fract_x
_atom_site_fract_y
_atom_site_fract_z
Si Si1 0.702748 0.072419 0.296631
Si Si2 0.811481 0.579715 0.971207
Si Si3 0.098003 0.187846 0.055833
Si Si4 0.620978 0.909727 0.603691
Si Si5 0.000000 0.901113 0.250000
Si Si6 0.500000 0.750370 0.250000
O O1 0.500000 0.067454 0.250000
O O2 0.513975 0.071890 0.344017
O O3 0.888673 0.173257 0.291538
O O4 0.920228 0.980168 0.293371
O O5 0.926578 0.693337 0.958649
O O6 0.783705 0.517517 0.921024
O O7 0.564249 0.614741 0.007757
O O8 0.000000 0.500000 0.000000
O O9 0.392491 0.153037 0.073822
O O10 0.884572 0.160029 0.097854
O O11 0.250841 0.825771 0.245592
#
# Coordination Sequence:
#
# PCOD9294809 Si02
#       6
#     8   8   8   8   4   4
#     4  11  26  44  69 100 139 180 237 285 341 410
#     4   9  21  43  67  97 136 173 218 275 337 402
#     4  10  23  41  66  99 131 176 219 272 338 406
#     4  11  25  40  66  96 135 172 225 276 332 398
#     4  11  24  45  70  94 126 183 230 283 346 396
#     4  11  24  43  66  90 130 175 224 287 344 398
#
# _framework density 22.691831000000001
#
# number of rings (size 3 to 8) (size 9 to 14) (size 15 to 20)
#    0.000    1.600    2.000    0.600    5.600   13.600 
#    0.000    0.000    0.000    0.000    0.000    0.000 
#    0.000    0.000    0.000    0.000    0.000    0.000 
#
# Total GULP energy -111513.699911 kJ/mol
# GULP energy per Si atom -5575.684996 kJ/mol
# Density = 2.264018 g / cm^3
# Si number density = 22.691831 Si / 1000 Ang^3
#
#
#
# Elastic Constant Matrix: (Units=GPa)
#
#
# Indices 1 2 3 4 5 6 
#
# 1 82.9068 32.5427 8.1623 0.0000 -18.4726 0.0000
# 2 32.5427 178.1017 47.0221 0.0000 -11.7247 0.0000
# 3 8.1623 47.0221 146.8276 0.0000 -31.1293 0.0000
# 4 0.0000 0.0000 0.0000 14.8738 0.0000 -21.3954
# 5 -18.4726 -11.7247 -31.1293 0.0000 40.5120 0.0000
# 6 0.0000 0.0000 0.0000 -21.3954 0.0000 29.4727
#
#
#
# Elastic Compliance Matrix: (Units=1/GPa)
#
#
# Indices 1 2 3 4 5 6 
#
# 1 0.014492 -0.002585 0.001511 0.000000 0.007021 0.000000
# 2 -0.002585 0.006598 -0.002167 0.000000 -0.000934 0.000000
# 3 0.001511 -0.002167 0.008881 0.000000 0.006885 0.000000
# 4 0.000000 0.000000 0.000000 -1.519879 0.000000 -1.103339
# 5 0.007021 -0.000934 0.006885 0.000000 0.032906 0.000000
# 6 0.000000 0.000000 0.000000 -1.103339 0.000000 -0.767027
#
#
# Mechanical properties :
#
#
# Convention : Reuss Voigt Hill
#
# Bulk Modulus (GPa) = 42.57602 64.81003 53.69302
# Shear Modulus (GPa) = -2.26273 38.31232 18.02479
#
# Velocity S-wave (km/s) = -0.99966 4.11344 2.82144
# Velocity P-wave (km/s) = 4.17983 7.15426 5.85895
#
# Compressibility (1/GPa) = 0.02348740
#
# Stress axis : x y z
#
# Youngs Moduli (GPa) = 69.00451 151.56720 112.60464
#
# Poissons Ratio (x) = 0.39174 -0.17010
# Poissons Ratio (y) = 0.17835 0.24406
# Poissons Ratio (z) = -0.10424 0.32850
#
# Static dielectric constant tensor:
#      x y z
#    x 1.886490 0.000000 0.071110 
#    y 0.000000 1.873490 0.000000 
#    z 0.071110 0.000000 1.901680 
# 
# From -- ./inp_files/285226.got.cif
#   From: 2010.05.17/outbox.cif.g08.bks.cpg/sg15_143_cif.got.tgz:285226.got - 2010.06.03 18:47:42.
