data_PCOD9294758
_publ_section_title
;
Structure prediction by ZEFSAII (Michael W. Deem and Ramdas Pophale) SiO2 
 PCOD9294758
Probable space group: C 2/C
;
_chemical_formula_sum "Si O2"
_cell_formula_units_Z 48
_cell_length_a 5.241874
_cell_length_b 16.100363
_cell_length_c 23.587773
_cell_angle_alpha 90.000000
_cell_angle_beta 73.468574
_cell_angle_gamma 90.000000
_cell_volume 1908.426852
_symmetry_space_group_name_H-M "C 2/C"
_symmetry_group_IT_number 15
_symmetry_cell_setting 'monoclinic'
loop_
_space_group_symop_operation_xyz
x,y,z
-x,y,1/2-z
-x,-y,-z
x,-y,1/2+z
1/2+x,1/2+y,z
1/2-x,1/2+y,1/2-z
1/2-x,1/2-y,-z
1/2+x,1/2-y,1/2+z
loop_
_atom_site_type_symbol
_atom_site_label
_atom_site_fract_x
_atom_site_fract_y
_atom_site_fract_z
Si Si1 0.303556 0.675424 0.092346
Si Si2 0.520303 0.386434 0.342068
Si Si3 0.932208 0.071350 0.341133
Si Si4 0.914045 0.660717 0.915215
Si Si5 0.525576 0.088968 0.470341
Si Si6 0.860607 0.717649 0.199796
O O1 0.322747 0.602141 0.136535
O O2 0.543676 0.739248 0.087883
O O3 0.235512 0.637053 0.036111
O O4 0.047381 0.722578 0.132347
O O5 0.507633 0.479365 0.317074
O O6 0.205772 0.371054 0.375938
O O7 0.679278 0.317793 0.293410
O O8 0.691584 0.380583 0.389606
O O9 0.702972 0.071472 0.403930
O O10 0.845698 0.146181 0.304996
O O11 0.864087 0.640715 0.983957
O O12 0.500000 0.000000 0.500000
O O13 0.000000 0.694330 0.250000
#
# Coordination Sequence:
#
# PCOD9294758 Si02
#       6
#     8   8   8   8   8   8
#     4  10  23  41  65  97 135 182 236 288 347 424
#     4  11  24  44  70  99 139 177 230 286 343 421
#     4  11  23  42  69  99 137 181 233 285 346 430
#     4  11  23  42  65 100 140 185 227 276 342 418
#     4  11  22  37  63  98 141 189 227 280 344 423
#     4  10  24  49  68  97 133 179 230 302 362 413
#
# _framework density 25.151608
#
# number of rings (size 3 to 8) (size 9 to 14) (size 15 to 20)
#    0.000    1.333    3.333    1.500    4.667    2.667 
#    3.000    0.000    0.000    0.000    0.000    0.000 
#    0.000    0.000    0.000    0.000    0.000    0.000 
#
# Total GULP energy -133777.660415 kJ/mol
# GULP energy per Si atom -5574.069184 kJ/mol
# Density = 2.509436 g / cm^3
# Si number density = 25.151608 Si / 1000 Ang^3
#
#
#
# Elastic Constant Matrix: (Units=GPa)
#
#
# Indices 1 2 3 4 5 6 
#
# 1 99.7747 30.7859 36.3620 0.0000 24.4200 0.0000
# 2 30.7859 166.8628 45.5897 0.0000 17.9192 0.0000
# 3 36.3620 45.5897 121.7659 0.0000 32.6831 0.0000
# 4 0.0000 0.0000 0.0000 -325.6146 0.0000 52.5264
# 5 24.4200 17.9192 32.6831 0.0000 53.3893 0.0000
# 6 0.0000 0.0000 0.0000 52.5264 0.0000 21.5809
#
#
#
# Elastic Compliance Matrix: (Units=1/GPa)
#
#
# Indices 1 2 3 4 5 6 
#
# 1 0.012117 -0.001244 -0.002127 0.000000 -0.003823 0.000000
# 2 -0.001244 0.006836 -0.002064 0.000000 -0.000462 0.000000
# 3 -0.002127 -0.002064 0.010977 0.000000 -0.005054 0.000000
# 4 0.000000 0.000000 0.000000 -0.002205 0.000000 0.005367
# 5 -0.003823 -0.000462 -0.005054 0.000000 0.023728 0.000000
# 6 0.000000 0.000000 0.000000 0.005367 0.000000 0.033273
#
#
# Mechanical properties :
#
#
# Convention : Reuss Voigt Hill
#
# Bulk Modulus (GPa) = 52.46338 68.20872 60.33605
# Shear Modulus (GPa) = 49.04431 -31.75116 8.64657
#
# Velocity S-wave (km/s) = 4.42061 -3.55687 1.85614
# Velocity P-wave (km/s) = 6.85273 3.21084 5.35114
#
# Compressibility (1/GPa) = 0.01906091
#
# Stress axis : x y z
#
# Youngs Moduli (GPa) = 82.52791 146.28487 91.10058
#
# Poissons Ratio (x) = 0.18198 0.19373
# Poissons Ratio (y) = 0.10267 0.18803
# Poissons Ratio (z) = 0.17550 0.30192
#
# Static dielectric constant tensor:
#      x y z
#    x 2.214440 0.000000 -0.107640 
#    y 0.000000 2.217970 0.000000 
#    z -0.107640 0.000000 1.978020 
# 
# From -- ./inp_files/260706.got.cif
#   From: 2010.05.17/outbox.cif.g08.bks.cpg/sg15_131_cif.got.tgz:260706.got - 2010.06.03 18:47:42.
