data_PCOD9294753
_publ_section_title
;
Structure prediction by ZEFSAII (Michael W. Deem and Ramdas Pophale) SiO2 
 PCOD9294753
Probable space group: C 2/C
;
_chemical_formula_sum "Si O2"
_cell_formula_units_Z 52
_cell_length_a 19.398465
_cell_length_b 7.151299
_cell_length_c 18.200090
_cell_angle_alpha 90.000000
_cell_angle_beta 81.006626
_cell_angle_gamma 90.000000
_cell_volume 2493.754614
_symmetry_space_group_name_H-M "C 2/C"
_symmetry_group_IT_number 15
_symmetry_cell_setting 'monoclinic'
loop_
_space_group_symop_operation_xyz
x,y,z
-x,y,1/2-z
-x,-y,-z
x,-y,1/2+z
1/2+x,1/2+y,z
1/2-x,1/2+y,1/2-z
1/2-x,1/2-y,-z
1/2+x,1/2-y,1/2+z
loop_
_atom_site_type_symbol
_atom_site_label
_atom_site_fract_x
_atom_site_fract_y
_atom_site_fract_z
Si Si1 0.160116 0.618615 0.398798
Si Si2 0.643889 0.807694 0.287836
Si Si3 0.475930 0.714198 0.503768
Si Si4 0.225958 0.054452 0.823934
Si Si5 0.500000 0.926709 0.250000
Si Si6 0.438541 0.977874 0.906560
Si Si7 0.721946 0.951113 0.528875
O O1 0.138347 0.422614 0.365382
O O2 0.095643 0.735163 0.442092
O O3 0.190525 0.743536 0.328751
O O4 0.214131 0.572912 0.455746
O O5 0.699262 0.916641 0.226714
O O6 0.678195 0.606212 0.297087
O O7 0.567776 0.809357 0.263823
O O8 0.500000 0.500000 0.500000
O O9 0.532848 0.835605 0.537539
O O10 0.461965 0.812935 0.427666
O O11 0.232234 0.016132 0.910170
O O12 0.526851 0.051672 0.177773
O O13 0.356015 0.953756 0.924670
O O14 0.750000 0.750000 0.500000
#
# Coordination Sequence:
#
# PCOD9294753 Si02
#       7
#     8   8   8   8   4   8   8
#     4  11  24  42  68 100 132 181 229 292 343 416
#     4  12  25  45  70  99 141 185 233 287 350 420
#     4  10  23  41  65  96 131 177 227 277 348 412
#     4  12  25  44  70 100 139 184 233 284 350 418
#     4  12  24  46  68  98 146 182 224 292 354 412
#     4  10  23  42  65  95 136 176 226 287 344 409
#     4  11  23  42  69 101 134 177 234 291 349 408
#
# _framework density 20.852091999999999
#
# number of rings (size 3 to 8) (size 9 to 14) (size 15 to 20)
#    0.000    0.923    6.154    0.462    4.308    0.000 
#    0.000    4.615    0.000    0.000    0.000    0.000 
#    0.000    0.000    0.000    0.000    0.000    0.000 
#
# Total GULP energy -145141.766047 kJ/mol
# GULP energy per Si atom -5582.375617 kJ/mol
# Density = 2.080463 g / cm^3
# Si number density = 20.852092 Si / 1000 Ang^3
#
#
#
# Elastic Constant Matrix: (Units=GPa)
#
#
# Indices 1 2 3 4 5 6 
#
# 1 88.4433 34.9961 8.5850 0.0000 4.9474 0.0000
# 2 34.9961 119.1933 25.3001 0.0000 -2.5657 0.0000
# 3 8.5850 25.3001 84.5435 0.0000 -10.8959 0.0000
# 4 0.0000 0.0000 0.0000 29.8449 0.0000 -3.2340
# 5 4.9474 -2.5657 -10.8959 0.0000 37.1123 0.0000
# 6 0.0000 0.0000 0.0000 -3.2340 0.0000 26.6544
#
#
#
# Elastic Compliance Matrix: (Units=1/GPa)
#
#
# Indices 1 2 3 4 5 6 
#
# 1 0.012955 -0.003750 -0.000467 0.000000 -0.002123 0.000000
# 2 -0.003750 0.010046 -0.002569 0.000000 0.000440 0.000000
# 3 -0.000467 -0.002569 0.013126 0.000000 0.003738 0.000000
# 4 0.000000 0.000000 0.000000 0.033953 0.000000 0.004120
# 5 -0.002123 0.000440 0.003738 0.000000 0.028356 0.000000
# 6 0.000000 0.000000 0.000000 0.004120 0.000000 0.038017
#
#
# Mechanical properties :
#
#
# Convention : Reuss Voigt Hill
#
# Bulk Modulus (GPa) = 44.33622 47.77142 46.05382
# Shear Modulus (GPa) = 31.73750 33.60891 32.67320
#
# Velocity S-wave (km/s) = 3.90555 4.01905 3.96271
# Velocity P-wave (km/s) = 6.45339 6.67056 6.56287
#
# Compressibility (1/GPa) = 0.02255492
#
# Stress axis : x y z
#
# Youngs Moduli (GPa) = 77.19217 99.54690 76.18402
#
# Poissons Ratio (x) = 0.37332 0.03557
# Poissons Ratio (y) = 0.28949 0.19569
# Poissons Ratio (z) = 0.03604 0.25570
#
# Static dielectric constant tensor:
#      x y z
#    x 1.772360 0.000000 -0.007890 
#    y 0.000000 1.753740 0.000000 
#    z -0.007890 0.000000 1.794750 
# 
# From -- ./inp_files/251045.got.cif
#   From: 2010.05.17/outbox.cif.g08.bks.cpg/sg15_126_cif.got.tgz:251045.got - 2010.06.03 18:47:42.
