data_PCOD9294348
_publ_section_title
;
Structure prediction by ZEFSAII (Michael W. Deem and Ramdas Pophale) SiO2 
 PCOD9294348
Probable space group: C 2/C
;
_chemical_formula_sum "Si O2"
_cell_formula_units_Z 60
_cell_length_a 13.750495
_cell_length_b 19.004397
_cell_length_c 23.201320
_cell_angle_alpha 90.000000
_cell_angle_beta 148.836505
_cell_angle_gamma 90.000000
_cell_volume 3137.475223
_symmetry_space_group_name_H-M "C 2/C"
_symmetry_group_IT_number 15
_symmetry_cell_setting 'monoclinic'
loop_
_space_group_symop_operation_xyz
x,y,z
-x,y,1/2-z
-x,-y,-z
x,-y,1/2+z
1/2+x,1/2+y,z
1/2-x,1/2+y,1/2-z
1/2-x,1/2-y,-z
1/2+x,1/2-y,1/2+z
loop_
_atom_site_type_symbol
_atom_site_label
_atom_site_fract_x
_atom_site_fract_y
_atom_site_fract_z
Si Si1 0.531946 0.774375 0.676601
Si Si2 0.875110 0.788393 0.983216
Si Si3 0.074962 0.990317 0.895934
Si Si4 0.329607 0.172083 0.884304
Si Si5 0.027139 0.465454 0.449995
Si Si6 0.149256 0.943947 0.554032
Si Si7 0.308472 0.070550 0.253864
Si Si8 0.500000 0.417730 0.250000
O O1 0.353273 0.786930 0.628055
O O2 0.448156 0.726834 0.583382
O O3 0.702032 0.726837 0.785082
O O4 0.610156 0.850845 0.698194
O O5 0.952685 0.723745 0.985262
O O6 0.925309 0.864184 0.984368
O O7 0.909213 0.940068 0.835820
O O8 0.979079 0.038474 0.797946
O O9 0.253521 0.957729 0.954012
O O10 0.166560 0.034797 0.995475
O O11 0.436320 0.111937 0.904269
O O12 0.183613 0.129786 0.850736
O O13 0.927668 0.516152 0.352848
O O14 0.000000 0.500000 0.500000
O O15 0.306753 0.945634 0.684099
O O16 0.000000 0.000000 0.500000
#
# Coordination Sequence:
#
# PCOD9294348 Si02
#       8
#     8   8   8   8   8   8   8   4
#     4  11  23  36  60  91 123 158 200 261 316 364
#     4  11  22  36  61  91 122 154 202 261 317 360
#     4  11  23  41  63  91 128 162 215 254 305 373
#     4  12  22  37  59  97 124 153 203 264 320 361
#     4  12  24  39  65  95 123 164 211 259 311 367
#     4  10  23  40  62  89 126 167 202 248 307 379
#     4  11  23  41  63  93 127 167 207 249 311 380
#     4  12  20  38  64  92 128 158 200 272 318 352
#
# _framework density 19.123656
#
# number of rings (size 3 to 8) (size 9 to 14) (size 15 to 20)
#    0.000    0.800    5.333    2.400    3.733    1.600 
#    0.000    0.667    0.000    0.000    0.000    0.000 
#    0.000    0.000    0.000    0.000    0.000    0.000 
#
# Total GULP energy -167294.796279 kJ/mol
# GULP energy per Si atom -5576.493209 kJ/mol
# Density = 1.908013 g / cm^3
# Si number density = 19.123656 Si / 1000 Ang^3
#
#
#
# Elastic Constant Matrix: (Units=GPa)
#
#
# Indices 1 2 3 4 5 6 
#
# 1 80.8784 49.8801 31.6860 0.0004 1.2950 0.0001
# 2 49.8801 142.4701 20.5464 -0.0003 2.8978 -0.0001
# 3 31.6860 20.5464 51.8218 0.0025 -8.6985 -0.0001
# 4 0.0004 -0.0003 0.0025 29.0085 0.0004 -4.2071
# 5 1.2950 2.8978 -8.6985 0.0004 44.2075 -0.0001
# 6 0.0001 -0.0001 -0.0001 -4.2071 -0.0001 29.6880
#
#
#
# Elastic Compliance Matrix: (Units=1/GPa)
#
#
# Indices 1 2 3 4 5 6 
#
# 1 0.019770 -0.005386 -0.010332 0.000001 -0.002259 0.000000
# 2 -0.005386 0.008964 -0.000345 0.000000 -0.000498 0.000000
# 3 -0.010332 -0.000345 0.026687 -0.000002 0.005576 0.000000
# 4 0.000001 0.000000 -0.000002 0.035196 -0.000001 0.004988
# 5 -0.002259 -0.000498 0.005576 -0.000001 0.023817 0.000000
# 6 0.000000 0.000000 0.000000 0.004988 0.000000 0.034390
#
#
# Mechanical properties :
#
#
# Convention : Reuss Voigt Hill
#
# Bulk Modulus (GPa) = 42.92494 53.26615 48.09554
# Shear Modulus (GPa) = 26.49511 32.11796 29.30654
#
# Velocity S-wave (km/s) = 3.72622 4.10260 3.91893
# Velocity P-wave (km/s) = 6.40372 7.09618 6.75883
#
# Compressibility (1/GPa) = 0.02329648
#
# Stress axis : x y z
#
# Youngs Moduli (GPa) = 50.58275 111.55237 37.47147
#
# Poissons Ratio (x) = 0.60077 0.38715
# Poissons Ratio (y) = 0.27242 0.01292
# Poissons Ratio (z) = 0.52261 0.03847
#
# Static dielectric constant tensor:
#      x y z
#    x 1.697640 0.000000 -0.032980 
#    y 0.000000 1.660360 0.000000 
#    z -0.032980 0.000000 1.699210 
# 
# From -- ./inp_files/274731.got.cif
#   From: 2010.05.17/outbox.cif.g08.bks.cpg/sg15_138_cif.got.tgz:274731.got - 2010.06.03 18:47:42.
