data_PCOD9294377
_publ_section_title
;
Structure prediction by ZEFSAII (Michael W. Deem and Ramdas Pophale) SiO2 
 PCOD9294377
Probable space group: C 2/C
;
_chemical_formula_sum "Si O2"
_cell_formula_units_Z 40
_cell_length_a 5.509202
_cell_length_b 13.618869
_cell_length_c 25.336594
_cell_angle_alpha 90.000000
_cell_angle_beta 74.688865
_cell_angle_gamma 90.000000
_cell_volume 1833.508629
_symmetry_space_group_name_H-M "C 2/C"
_symmetry_group_IT_number 15
_symmetry_cell_setting 'monoclinic'
loop_
_space_group_symop_operation_xyz
x,y,z
-x,y,1/2-z
-x,-y,-z
x,-y,1/2+z
1/2+x,1/2+y,z
1/2-x,1/2+y,1/2-z
1/2-x,1/2-y,-z
1/2+x,1/2-y,1/2+z
loop_
_atom_site_type_symbol
_atom_site_label
_atom_site_fract_x
_atom_site_fract_y
_atom_site_fract_z
Si Si1 0.754575 0.534714 0.956870
Si Si2 0.610094 0.148635 0.993002
Si Si3 0.580720 0.225450 0.184488
Si Si4 0.966358 0.078354 0.877729
Si Si5 0.915529 0.881088 0.816332
O O1 0.717355 0.559536 0.897934
O O2 0.836033 0.634853 0.982361
O O3 0.500000 0.500000 0.000000
O O4 0.905944 0.433488 0.959683
O O5 0.766860 0.103796 0.934822
O O6 0.750000 0.250000 0.000000
O O7 0.500000 0.230192 0.250000
O O8 0.544113 0.330377 0.160266
O O9 0.367628 0.159816 0.168553
O O10 0.868132 0.186259 0.168324
O O11 0.915651 0.982410 0.847214
O O12 0.000000 0.892702 0.750000
#
# Coordination Sequence:
#
# PCOD9294377 Si02
#       5
#     8   8   8   8   8
#     4   9  22  41  59  92 126 168 216 270 326 392
#     4  10  23  40  63  91 132 172 219 277 335 397
#     4  10  24  43  66  98 132 171 217 268 334 397
#     4  11  24  37  69  94 126 172 220 269 329 397
#     4  10  24  44  66  96 135 170 214 274 327 395
#
# _framework density 21.816095000000001
#
# number of rings (size 3 to 8) (size 9 to 14) (size 15 to 20)
#    0.000    2.000    0.000    0.600    8.400    6.400 
#    0.000    6.000    0.000    0.000    0.000    0.000 
#    0.000    0.000    0.000    0.000    0.000    0.000 
#
# Total GULP energy -111427.943222 kJ/mol
# GULP energy per Si atom -5571.397161 kJ/mol
# Density = 2.176644 g / cm^3
# Si number density = 21.816095 Si / 1000 Ang^3
#
#
#
# Elastic Constant Matrix: (Units=GPa)
#
#
# Indices 1 2 3 4 5 6 
#
# 1 110.5209 68.4497 50.5434 0.0000 45.8971 0.0000
# 2 68.4497 184.8510 61.5818 0.0000 50.8636 0.0000
# 3 50.5434 61.5818 -1.7890 0.0000 33.8641 0.0000
# 4 0.0000 0.0000 0.0000 62.4725 0.0000 15.1739
# 5 45.8971 50.8636 33.8641 0.0000 36.4557 0.0000
# 6 0.0000 0.0000 0.0000 15.1739 0.0000 34.4984
#
#
#
# Elastic Compliance Matrix: (Units=1/GPa)
#
#
# Indices 1 2 3 4 5 6 
#
# 1 0.018481 -0.001204 0.003877 0.000000 -0.025189 0.000000
# 2 -0.001204 0.008407 0.003338 0.000000 -0.013315 0.000000
# 3 0.003877 0.003338 -0.027717 0.000000 0.016208 0.000000
# 4 0.000000 0.000000 0.000000 0.017922 0.000000 -0.007883
# 5 -0.025189 -0.013315 0.016208 0.000000 0.062665 0.000000
# 6 0.000000 0.000000 0.000000 -0.007883 0.000000 0.032454
#
#
# Mechanical properties :
#
#
# Convention : Reuss Voigt Hill
#
# Bulk Modulus (GPa) = 89.33114 72.74806 81.03960
# Shear Modulus (GPa) = 48.11371 34.21918 41.16645
#
# Velocity S-wave (km/s) = 4.70129 3.96476 4.34865
# Velocity P-wave (km/s) = 8.39677 7.37411 7.90200
#
# Compressibility (1/GPa) = 0.01119431
#
# Stress axis : x y z
#
# Youngs Moduli (GPa) = 54.10892 118.94479 -36.07862
#
# Poissons Ratio (x) = 0.14323 0.13989
# Poissons Ratio (y) = 0.06516 0.12044
# Poissons Ratio (z) = -0.20980 -0.39708
#
# Static dielectric constant tensor:
#      x y z
#    x 2.293350 0.000000 0.013940 
#    y 0.000000 1.776860 0.000000 
#    z 0.013940 0.000000 1.769700 
# 
# From -- ./inp_files/285170.got.cif
#   From: 2010.05.17/outbox.cif.g08.bks.cpg/sg15_143_cif.got.tgz:285170.got - 2010.06.03 18:47:42.
