data_PCOD9294992
_publ_section_title
;
Structure prediction by ZEFSAII (Michael W. Deem and Ramdas Pophale) SiO2 
 PCOD9294992
Probable space group: C 2/C
;
_chemical_formula_sum "Si O2"
_cell_formula_units_Z 40
_cell_length_a 8.473383
_cell_length_b 22.937198
_cell_length_c 9.396848
_cell_angle_alpha 90.000000
_cell_angle_beta 89.184537
_cell_angle_gamma 90.000000
_cell_volume 1826.145657
_symmetry_space_group_name_H-M "C 2/C"
_symmetry_group_IT_number 15
_symmetry_cell_setting 'monoclinic'
loop_
_space_group_symop_operation_xyz
x,y,z
-x,y,1/2-z
-x,-y,-z
x,-y,1/2+z
1/2+x,1/2+y,z
1/2-x,1/2+y,1/2-z
1/2-x,1/2-y,-z
1/2+x,1/2-y,1/2+z
loop_
_atom_site_type_symbol
_atom_site_label
_atom_site_fract_x
_atom_site_fract_y
_atom_site_fract_z
Si Si1 0.180373 0.980603 0.519153
Si Si2 0.835733 0.196905 0.810562
Si Si3 0.115564 0.624439 0.621207
Si Si4 0.324402 0.945623 0.796586
Si Si5 0.849105 0.671073 0.414184
O O1 0.259046 0.923448 0.439953
O O2 0.207051 0.973056 0.685579
O O3 0.287007 0.032135 0.453840
O O4 0.000000 0.000000 0.500000
O O5 0.706219 0.177894 0.696698
O O6 0.852972 0.265470 0.844131
O O7 0.000000 0.173822 0.750000
O O8 0.783683 0.170811 0.961976
O O9 0.000000 0.600930 0.750000
O O10 0.006539 0.649811 0.495694
O O11 0.500000 0.961386 0.750000
O O12 0.310014 0.876435 0.797252
#
# Coordination Sequence:
#
# PCOD9294992 Si02
#       5
#     8   8   8   8   8
#     4  12  28  45  69 106 142 184 241 305 358 416
#     4  10  23  41  73 104 143 181 240 301 350 421
#     4  10  23  45  73 101 144 189 236 290 360 433
#     4  12  25  46  74  98 141 191 241 290 355 446
#     4  10  23  46  68 106 138 193 241 284 363 432
#
# _framework density 21.904057000000002
#
# number of rings (size 3 to 8) (size 9 to 14) (size 15 to 20)
#    0.000    1.200    2.000    2.400    8.400    0.800 
#    0.000    4.000    0.000    0.000    0.000    0.000 
#    0.000    0.000    0.000    0.000    0.000    0.000 
#
# Total GULP energy -111758.098170 kJ/mol
# GULP energy per Si atom -5587.904909 kJ/mol
# Density = 2.185420 g / cm^3
# Si number density = 21.904057 Si / 1000 Ang^3
#
#
#
# Elastic Constant Matrix: (Units=GPa)
#
#
# Indices 1 2 3 4 5 6 
#
# 1 129.4531 43.6622 31.5227 0.0000 -16.8252 0.0000
# 2 43.6622 101.7850 32.9692 0.0000 5.3516 0.0000
# 3 31.5227 32.9692 77.0724 0.0000 -6.3495 0.0000
# 4 0.0000 0.0000 0.0000 29.2438 0.0000 5.7842
# 5 -16.8252 5.3516 -6.3495 0.0000 36.6828 0.0000
# 6 0.0000 0.0000 0.0000 5.7842 0.0000 25.8715
#
#
#
# Elastic Compliance Matrix: (Units=1/GPa)
#
#
# Indices 1 2 3 4 5 6 
#
# 1 0.010203 -0.003962 -0.002075 0.000000 0.004899 0.000000
# 2 -0.003962 0.013183 -0.004389 0.000000 -0.004500 0.000000
# 3 -0.002075 -0.004389 0.015902 0.000000 0.002441 0.000000
# 4 0.000000 0.000000 0.000000 0.035777 0.000000 -0.007999
# 5 0.004899 -0.004500 0.002441 0.000000 0.030587 0.000000
# 6 0.000000 0.000000 0.000000 -0.007999 0.000000 0.040441
#
#
# Mechanical properties :
#
#
# Convention : Reuss Voigt Hill
#
# Bulk Modulus (GPa) = 54.24333 58.29098 56.26715
# Shear Modulus (GPa) = 28.88663 31.70338 30.29500
#
# Velocity S-wave (km/s) = 3.63544 3.80857 3.72301
# Velocity P-wave (km/s) = 6.51458 6.78306 6.65018
#
# Compressibility (1/GPa) = 0.01843545
#
# Stress axis : x y z
#
# Youngs Moduli (GPa) = 98.00926 75.85695 62.88509
#
# Poissons Ratio (x) = 0.30057 0.13046
# Poissons Ratio (y) = 0.38835 0.27602
# Poissons Ratio (z) = 0.20332 0.33296
#
# Static dielectric constant tensor:
#      x y z
#    x 1.800910 0.000000 -0.018400 
#    y 0.000000 1.805010 0.000000 
#    z -0.018400 0.000000 1.799620 
# 
# From -- ./inp_files/23667.got.cif
#   From: 2010.05.17/outbox.cif.g08.bks.cpg/sg15_12_cif.got.tgz:23667.got - 2010.06.03 18:47:42.
