data_PCOD9294461
_publ_section_title
;
Structure prediction by ZEFSAII (Michael W. Deem and Ramdas Pophale) SiO2 
 PCOD9294461
Probable space group: C 2/C
;
_chemical_formula_sum "Si O2"
_cell_formula_units_Z 44
_cell_length_a 22.169778
_cell_length_b 8.980951
_cell_length_c 24.429957
_cell_angle_alpha 90.000000
_cell_angle_beta 22.933285
_cell_angle_gamma 90.000000
_cell_volume 1895.357422
_symmetry_space_group_name_H-M "C 2/C"
_symmetry_group_IT_number 15
_symmetry_cell_setting 'monoclinic'
loop_
_space_group_symop_operation_xyz
x,y,z
-x,y,1/2-z
-x,-y,-z
x,-y,1/2+z
1/2+x,1/2+y,z
1/2-x,1/2+y,1/2-z
1/2-x,1/2-y,-z
1/2+x,1/2-y,1/2+z
loop_
_atom_site_type_symbol
_atom_site_label
_atom_site_fract_x
_atom_site_fract_y
_atom_site_fract_z
Si Si1 0.710493 0.428595 0.482735
Si Si2 0.571798 0.759455 0.276901
Si Si3 0.500000 0.866380 0.750000
Si Si4 0.533880 0.007711 0.390071
Si Si5 0.484292 0.309443 0.149142
Si Si6 0.249907 0.463863 0.801340
O O1 0.571349 0.335274 0.628046
O O2 0.790512 0.301623 0.378950
O O3 0.855055 0.524098 0.384816
O O4 0.614569 0.563597 0.535477
O O5 0.636448 0.667296 0.275020
O O6 0.528196 0.916950 0.339042
O O7 0.525147 0.758941 0.781620
O O8 0.485682 0.174446 0.416511
O O9 0.701495 0.013938 0.279090
O O10 0.411123 0.933439 0.533156
O O11 0.327350 0.389707 0.261875
#
# Coordination Sequence:
#
# PCOD9294461 Si02
#       6
#     8   8   4   8   8   8
#     4  11  25  44  70  98 139 183 230 287 349 413
#     4  11  22  45  64 100 141 177 231 287 347 418
#     4  12  24  46  72 102 134 186 234 296 344 420
#     4  11  21  40  67  98 140 177 231 278 345 417
#     4  11  24  44  70 102 137 180 236 281 348 413
#     4  10  23  40  66 100 136 184 222 285 342 419
#
# _framework density 23.21462
#
# number of rings (size 3 to 8) (size 9 to 14) (size 15 to 20)
#    0.000    1.091    3.636    2.727    0.000    0.727 
#    0.000    6.364    0.000    0.000    0.000    0.000 
#    0.000    0.000    0.000    0.000    0.000    0.000 
#
# Total GULP energy -122764.428260 kJ/mol
# GULP energy per Si atom -5580.201285 kJ/mol
# Density = 2.316178 g / cm^3
# Si number density = 23.214620 Si / 1000 Ang^3
#
#
#
# Elastic Constant Matrix: (Units=GPa)
#
#
# Indices 1 2 3 4 5 6 
#
# 1 102.8831 41.7764 26.0158 0.0005 -28.0875 -0.0005
# 2 41.7764 129.3446 35.6765 0.0017 -24.7487 -0.0035
# 3 26.0158 35.6765 89.6700 0.0011 -24.3372 -0.0008
# 4 0.0005 0.0017 0.0011 22.8187 -0.0004 -25.1988
# 5 -28.0875 -24.7487 -24.3372 -0.0004 25.0467 0.0005
# 6 -0.0005 -0.0035 -0.0008 -25.1988 0.0005 14.6675
#
#
#
# Elastic Compliance Matrix: (Units=1/GPa)
#
#
# Indices 1 2 3 4 5 6 
#
# 1 0.014412 -0.001997 0.000630 0.000000 0.014801 0.000000
# 2 -0.001997 0.010000 -0.001800 -0.000002 0.005893 -0.000001
# 3 0.000630 -0.001800 0.015476 0.000000 0.013965 0.000001
# 4 0.000000 -0.000002 0.000000 -0.048845 0.000000 -0.083916
# 5 0.014801 0.005893 0.013965 0.000000 0.075917 0.000000
# 6 0.000000 -0.000001 0.000001 -0.083916 0.000000 -0.075990
#
#
# Mechanical properties :
#
#
# Convention : Reuss Voigt Hill
#
# Bulk Modulus (GPa) = 29.80179 58.75944 44.28062
# Shear Modulus (GPa) = 589.13765 27.06849 308.10307
#
# Velocity S-wave (km/s) = 15.94772 3.41839 11.53289
# Velocity P-wave (km/s) = 18.76091 6.39898 14.01639
#
# Compressibility (1/GPa) = 0.03355503
#
# Stress axis : x y z
#
# Youngs Moduli (GPa) = 69.38701 99.99741 64.61768
#
# Poissons Ratio (x) = 0.19966 -0.04072
# Poissons Ratio (y) = 0.13854 0.11631
# Poissons Ratio (z) = -0.04373 0.17999
#
# Static dielectric constant tensor:
#      x y z
#    x 1.939750 0.000000 -0.005190 
#    y 0.000000 1.844650 0.000000 
#    z -0.005190 0.000000 1.907080 
# 
# From -- ./inp_files/125478.got.cif
#   From: 2010.05.17/outbox.cif.g08.bks.cpg/sg15_63_cif.got.tgz:125478.got - 2010.06.03 18:47:42.
