data_PCOD9294024
_publ_section_title
;
Structure prediction by ZEFSAII (Michael W. Deem and Ramdas Pophale) SiO2 
 PCOD9294024
Probable space group: C 2/C
;
_chemical_formula_sum "Si O2"
_cell_formula_units_Z 48
_cell_length_a 19.268682
_cell_length_b 18.138428
_cell_length_c 17.311821
_cell_angle_alpha 90.000000
_cell_angle_beta 156.905789
_cell_angle_gamma 90.000000
_cell_volume 2373.290575
_symmetry_space_group_name_H-M "C 2/C"
_symmetry_group_IT_number 15
_symmetry_cell_setting 'monoclinic'
loop_
_space_group_symop_operation_xyz
x,y,z
-x,y,1/2-z
-x,-y,-z
x,-y,1/2+z
1/2+x,1/2+y,z
1/2-x,1/2+y,1/2-z
1/2-x,1/2-y,-z
1/2+x,1/2-y,1/2+z
loop_
_atom_site_type_symbol
_atom_site_label
_atom_site_fract_x
_atom_site_fract_y
_atom_site_fract_z
Si Si1 0.697504 0.192967 0.674282
Si Si2 0.500000 0.246476 0.750000
Si Si3 0.168423 0.487956 0.372969
Si Si4 0.500000 0.579128 0.750000
Si Si5 0.413595 0.066669 0.362277
Si Si6 0.232106 0.834343 0.080760
Si Si7 0.071977 0.149665 0.990408
O O1 0.536152 0.137619 0.496377
O O2 0.709953 0.200058 0.779420
O O3 0.661396 0.270000 0.594270
O O4 0.881097 0.156416 0.834943
O O5 0.649491 0.193762 0.869371
O O6 0.454918 0.300519 0.633254
O O7 0.326440 0.527200 0.581495
O O8 0.089482 0.544338 0.230217
O O9 0.252102 0.421826 0.407886
O O10 0.000000 0.462939 0.250000
O O11 0.537627 0.626527 0.865963
O O12 0.500000 0.000000 0.500000
O O13 0.209732 0.090996 0.169248
#
# Coordination Sequence:
#
# PCOD9294024 Si02
#       7
#     8   4   8   4   8   8   8
#     4  12  23  44  67 103 135 177 224 282 338 406
#     4  10  23  38  60  93 124 176 220 268 336 405
#     4  11  22  44  66  94 131 176 221 282 335 399
#     4  10  25  46  66 101 132 176 234 274 338 409
#     4  11  24  44  67  98 134 174 230 275 337 408
#     4  11  22  40  63  92 132 171 221 274 336 404
#     4  11  25  44  71 100 137 181 225 280 345 397
#
# _framework density 20.225083999999999
#
# number of rings (size 3 to 8) (size 9 to 14) (size 15 to 20)
#    0.000    1.000    4.167    2.500    0.000    1.333 
#    7.500    0.000    0.000    0.000    0.000    0.000 
#    0.000    0.000    0.000    0.000    0.000    0.000 
#
# Total GULP energy -133840.692388 kJ/mol
# GULP energy per Si atom -5576.695516 kJ/mol
# Density = 2.017905 g / cm^3
# Si number density = 20.225084 Si / 1000 Ang^3
#
#
#
# Elastic Constant Matrix: (Units=GPa)
#
#
# Indices 1 2 3 4 5 6 
#
# 1 57.8061 21.6683 34.3258 0.0004 4.8651 0.0002
# 2 21.6683 68.4344 53.9679 -0.0006 -18.5655 0.0004
# 3 34.3258 53.9679 135.1538 0.0006 -14.6321 0.0001
# 4 0.0004 -0.0006 0.0006 27.3883 0.0012 -13.3537
# 5 4.8651 -18.5655 -14.6321 0.0012 33.2446 -0.0001
# 6 0.0002 0.0004 0.0001 -13.3537 -0.0001 27.4324
#
#
#
# Elastic Compliance Matrix: (Units=1/GPa)
#
#
# Indices 1 2 3 4 5 6 
#
# 1 0.022912 -0.006258 -0.004265 0.000000 -0.008725 0.000000
# 2 -0.006258 0.025649 -0.007353 0.000000 0.012003 0.000000
# 3 -0.004265 -0.007353 0.011594 0.000000 0.001621 0.000000
# 4 0.000000 0.000000 0.000000 0.047874 -0.000002 0.023305
# 5 -0.008725 0.012003 0.001621 -0.000002 0.038774 -0.000001
# 6 0.000000 0.000000 0.000000 0.023305 -0.000001 0.047797
#
#
# Mechanical properties :
#
#
# Convention : Reuss Voigt Hill
#
# Bulk Modulus (GPa) = 40.97912 53.47980 47.22946
# Shear Modulus (GPa) = 20.96558 27.70856 24.33707
#
# Velocity S-wave (km/s) = 3.22314 3.70538 3.47264
# Velocity P-wave (km/s) = 5.84440 6.69374 6.28344
#
# Compressibility (1/GPa) = 0.02440267
#
# Stress axis : x y z
#
# Youngs Moduli (GPa) = 43.64553 38.98778 86.25474
#
# Poissons Ratio (x) = 0.24400 0.36784
# Poissons Ratio (y) = 0.27316 0.63422
# Poissons Ratio (z) = 0.18613 0.28667
#
# Static dielectric constant tensor:
#      x y z
#    x 1.758130 0.000010 -0.008170 
#    y 0.000010 1.756960 -0.000020 
#    z -0.008170 -0.000020 1.859800 
# 
# From -- ./inp_files/163216.got.cif
#   From: 2010.05.17/outbox.cif.g08.bks.cpg/sg15_82_cif.got.tgz:163216.got - 2010.06.03 18:47:42.
