data_PCOD9294370
_publ_section_title
;
Structure prediction by ZEFSAII (Michael W. Deem and Ramdas Pophale) SiO2 
 PCOD9294370
Probable space group: C 2/C
;
_chemical_formula_sum "Si O2"
_cell_formula_units_Z 60
_cell_length_a 26.002217
_cell_length_b 12.459005
_cell_length_c 7.725657
_cell_angle_alpha 90.000000
_cell_angle_beta 88.198797
_cell_angle_gamma 90.000000
_cell_volume 2501.580734
_symmetry_space_group_name_H-M "C 2/C"
_symmetry_group_IT_number 15
_symmetry_cell_setting 'monoclinic'
loop_
_space_group_symop_operation_xyz
x,y,z
-x,y,1/2-z
-x,-y,-z
x,-y,1/2+z
1/2+x,1/2+y,z
1/2-x,1/2+y,1/2-z
1/2-x,1/2-y,-z
1/2+x,1/2-y,1/2+z
loop_
_atom_site_type_symbol
_atom_site_label
_atom_site_fract_x
_atom_site_fract_y
_atom_site_fract_z
Si Si1 0.112790 0.098085 0.682185
Si Si2 0.405272 0.958343 0.762788
Si Si3 0.500000 0.876220 0.250000
Si Si4 0.135393 0.866021 0.584015
Si Si5 0.961702 0.274349 0.915410
Si Si6 0.251714 0.409200 0.026991
Si Si7 0.272941 0.358402 0.423050
Si Si8 0.857877 0.635061 0.937275
O O1 0.119591 0.131695 0.882304
O O2 0.065241 0.159708 0.602287
O O3 0.164978 0.132012 0.576006
O O4 0.110025 0.968973 0.674594
O O5 0.417432 0.865087 0.897861
O O6 0.396478 0.899847 0.583560
O O7 0.452188 0.041796 0.760454
O O8 0.357105 0.034513 0.808707
O O9 0.507776 0.801506 0.415105
O O10 0.197133 0.881759 0.586291
O O11 0.124955 0.746187 0.649883
O O12 0.000000 0.289830 0.750000
O O13 0.259982 0.371018 0.221990
O O14 0.198646 0.355695 0.973451
O O15 0.249599 0.537862 0.020136
O O16 0.250000 0.250000 0.500000
#
# Coordination Sequence:
#
# PCOD9294370 Si02
#       8
#     8   8   4   8   8   8   8   8
#     4  10  24  45  70  96 136 189 242 284 364 424
#     4  12  24  42  69 102 138 179 228 295 367 435
#     4  12  26  46  74 108 140 186 236 300 396 436
#     4  10  23  45  67  95 145 190 228 295 345 422
#     4  12  25  47  75 102 143 182 234 309 371 438
#     4  10  23  40  63 103 138 189 239 275 349 422
#     4  10  23  41  67  96 145 187 231 295 345 416
#     4  12  24  39  70 104 142 181 236 292 351 430
#
# _framework density 23.984833999999999
#
# number of rings (size 3 to 8) (size 9 to 14) (size 15 to 20)
#    0.000    1.067    3.333    2.400    1.867    8.533 
#    0.000    0.667    1.467    0.000    0.000    0.000 
#    0.000    0.000    0.000    0.000    0.000    0.000 
#
# Total GULP energy -168065.678174 kJ/mol
# GULP energy per Si atom -5602.189272 kJ/mol
# Density = 2.393024 g / cm^3
# Si number density = 23.984834 Si / 1000 Ang^3
#
#
#
# Elastic Constant Matrix: (Units=GPa)
#
#
# Indices 1 2 3 4 5 6 
#
# 1 71.3165 26.0889 19.0545 0.0000 16.9958 0.0000
# 2 26.0889 165.2333 21.9716 0.0000 0.3411 0.0000
# 3 19.0545 21.9716 67.5445 0.0000 11.2989 0.0000
# 4 0.0000 0.0000 0.0000 32.6427 0.0000 -2.5447
# 5 16.9958 0.3411 11.2989 0.0000 24.1509 0.0000
# 6 0.0000 0.0000 0.0000 -2.5447 0.0000 37.7427
#
#
#
# Elastic Compliance Matrix: (Units=1/GPa)
#
#
# Indices 1 2 3 4 5 6 
#
# 1 0.018411 -0.002565 -0.002385 0.000000 -0.011804 0.000000
# 2 -0.002565 0.006703 -0.001891 0.000000 0.002595 0.000000
# 3 -0.002385 -0.001891 0.017150 0.000000 -0.006319 0.000000
# 4 0.000000 0.000000 0.000000 0.030797 0.000000 0.002076
# 5 -0.011804 0.002595 -0.006319 0.000000 0.052633 0.000000
# 6 0.000000 0.000000 0.000000 0.002076 0.000000 0.026635
#
#
# Mechanical properties :
#
#
# Convention : Reuss Voigt Hill
#
# Bulk Modulus (GPa) = 34.98714 48.70271 41.84492
# Shear Modulus (GPa) = 28.48390 34.70587 31.59489
#
# Velocity S-wave (km/s) = 3.44987 3.80806 3.63338
# Velocity P-wave (km/s) = 5.52156 6.29959 5.92336
#
# Compressibility (1/GPa) = 0.02858193
#
# Stress axis : x y z
#
# Youngs Moduli (GPa) = 54.31606 149.18252 58.30962
#
# Poissons Ratio (x) = 0.38272 0.13904
# Poissons Ratio (y) = 0.13935 0.11026
# Poissons Ratio (z) = 0.12952 0.28209
#
# Static dielectric constant tensor:
#      x y z
#    x 1.963770 0.000000 -0.031120 
#    y 0.000000 1.902820 0.000000 
#    z -0.031120 0.000000 1.930140 
# 
# From -- ./inp_files/65490.got.cif
#   From: 2010.05.17/outbox.cif.g08.bks.cpg/sg15_33_cif.got.tgz:65490.got - 2010.06.03 18:47:42.
