data_PCOD9294124
_publ_section_title
;
Structure prediction by ZEFSAII (Michael W. Deem and Ramdas Pophale) SiO2 
 PCOD9294124
Probable space group: C 2/C
;
_chemical_formula_sum "Si O2"
_cell_formula_units_Z 60
_cell_length_a 25.281121
_cell_length_b 22.743566
_cell_length_c 9.767531
_cell_angle_alpha 90.000000
_cell_angle_beta 143.046598
_cell_angle_gamma 90.000000
_cell_volume 3376.242184
_symmetry_space_group_name_H-M "C 2/C"
_symmetry_group_IT_number 15
_symmetry_cell_setting 'monoclinic'
loop_
_space_group_symop_operation_xyz
x,y,z
-x,y,1/2-z
-x,-y,-z
x,-y,1/2+z
1/2+x,1/2+y,z
1/2-x,1/2+y,1/2-z
1/2-x,1/2-y,-z
1/2+x,1/2-y,1/2+z
loop_
_atom_site_type_symbol
_atom_site_label
_atom_site_fract_x
_atom_site_fract_y
_atom_site_fract_z
Si Si1 0.697792 0.578739 0.997738
Si Si2 0.000000 0.969929 0.750000
Si Si3 0.672582 0.483132 0.726524
Si Si4 0.973667 0.153949 0.840713
Si Si5 0.517321 0.244248 0.945332
Si Si6 0.869708 0.109313 0.161301
Si Si7 0.799542 0.701303 0.196620
Si Si8 0.822187 0.760101 0.534938
O O1 0.701954 0.542556 0.864584
O O2 0.599116 0.603765 0.817169
O O3 0.711988 0.537623 0.162051
O O4 0.756628 0.637042 0.108057
O O5 0.930310 0.928451 0.684658
O O6 0.933351 0.007402 0.517444
O O7 0.692709 0.433797 0.883049
O O8 0.000000 0.180944 0.750000
O O9 0.944199 0.201114 0.891361
O O10 0.064255 0.130455 0.085355
O O11 0.500000 0.259159 0.750000
O O12 0.416885 0.235734 0.784834
O O13 0.595476 0.197563 0.118521
O O14 0.831603 0.169844 0.023705
O O15 0.796347 0.726658 0.343916
O O16 0.750000 0.750000 0.000000
O O17 0.750000 0.750000 0.500000
#
# Coordination Sequence:
#
# PCOD9294124 Si02
#       8
#     8   4   8   8   8   8   8   8
#     4  12  24  37  54  81 121 158 203 238 298 343
#     4  12  22  32  52  84 120 164 198 224 288 358
#     4  12  23  36  52  82 117 169 193 242 277 365
#     4  11  20  31  54  82 119 157 194 240 280 355
#     4   9  21  38  58  83 116 159 196 236 301 355
#     4  11  22  33  55  78 121 157 198 228 298 358
#     4  11  23  38  59  88 115 157 203 246 289 346
#     4  10  23  39  59  87 120 156 194 248 305 359
#
# _framework density 17.771236999999999
#
# number of rings (size 3 to 8) (size 9 to 14) (size 15 to 20)
#    0.000    1.067    5.333    2.000   11.200    0.000 
#    0.000    0.000    0.000    0.000    0.000   14.933 
#    0.000    0.000    0.000    0.000    0.000    0.000 
#
# Total GULP energy -167130.985494 kJ/mol
# GULP energy per Si atom -5571.032850 kJ/mol
# Density = 1.773079 g / cm^3
# Si number density = 17.771237 Si / 1000 Ang^3
#
#
#
# Elastic Constant Matrix: (Units=GPa)
#
#
# Indices 1 2 3 4 5 6 
#
# 1 72.1469 31.7681 37.9049 0.0000 8.9490 0.0000
# 2 31.7681 114.2171 50.5391 0.0000 -6.4095 0.0000
# 3 37.9049 50.5391 71.1581 0.0000 -5.8661 0.0000
# 4 0.0000 0.0000 0.0000 35.3374 0.0000 1.4454
# 5 8.9490 -6.4095 -5.8661 0.0000 21.3664 0.0000
# 6 0.0000 0.0000 0.0000 1.4454 0.0000 24.0583
#
#
#
# Elastic Compliance Matrix: (Units=1/GPa)
#
#
# Indices 1 2 3 4 5 6 
#
# 1 0.022476 -0.001768 -0.011804 0.000000 -0.013185 0.000000
# 2 -0.001768 0.012946 -0.008054 0.000000 0.002413 0.000000
# 3 -0.011804 -0.008054 0.026878 0.000000 0.009907 0.000000
# 4 0.000000 0.000000 0.000000 0.028368 0.000000 -0.001704
# 5 -0.013185 0.002413 0.009907 0.000000 0.055769 0.000000
# 6 0.000000 0.000000 0.000000 -0.001704 0.000000 0.041668
#
#
# Mechanical properties :
#
#
# Convention : Reuss Voigt Hill
#
# Bulk Modulus (GPa) = 52.49867 55.32738 53.91302
# Shear Modulus (GPa) = 21.03430 25.30643 23.17036
#
# Velocity S-wave (km/s) = 3.44410 3.77770 3.61475
# Velocity P-wave (km/s) = 6.73953 7.08722 6.91556
#
# Compressibility (1/GPa) = 0.01904810
#
# Stress axis : x y z
#
# Youngs Moduli (GPa) = 44.49145 77.24210 37.20547
#
# Poissons Ratio (x) = 0.13660 0.43916
# Poissons Ratio (y) = 0.07868 0.29965
# Poissons Ratio (z) = 0.52516 0.62211
#
# Static dielectric constant tensor:
#      x y z
#    x 2.314230 0.000000 -0.193710 
#    y 0.000000 1.209100 0.000000 
#    z -0.193710 0.000000 1.671050 
# 
# From -- ./inp_files/42234.got.cif
#   From: 2010.05.17/outbox.cif.g08.bks.cpg/sg15_22_cif.got.tgz:42234.got - 2010.06.03 18:47:42.
