data_PCOD9294770
_publ_section_title
;
Structure prediction by ZEFSAII (Michael W. Deem and Ramdas Pophale) SiO2 
 PCOD9294770
Probable space group: C 2/C
;
_chemical_formula_sum "Si O2"
_cell_formula_units_Z 48
_cell_length_a 13.399115
_cell_length_b 14.077621
_cell_length_c 21.600417
_cell_angle_alpha 90.000000
_cell_angle_beta 145.953048
_cell_angle_gamma 90.000000
_cell_volume 2281.163073
_symmetry_space_group_name_H-M "C 2/C"
_symmetry_group_IT_number 15
_symmetry_cell_setting 'monoclinic'
loop_
_space_group_symop_operation_xyz
x,y,z
-x,y,1/2-z
-x,-y,-z
x,-y,1/2+z
1/2+x,1/2+y,z
1/2-x,1/2+y,1/2-z
1/2-x,1/2-y,-z
1/2+x,1/2-y,1/2+z
loop_
_atom_site_type_symbol
_atom_site_label
_atom_site_fract_x
_atom_site_fract_y
_atom_site_fract_z
Si Si1 0.023104 0.324370 0.493886
Si Si2 0.082635 0.320238 0.921404
Si Si3 0.862894 0.117660 0.982050
Si Si4 0.110156 0.823848 0.247859
Si Si5 0.158555 0.969883 0.166354
Si Si6 0.073031 0.468121 0.418102
O O1 0.023906 0.318209 0.568414
O O2 0.815308 0.322358 0.370323
O O3 0.108603 0.229819 0.509732
O O4 0.092960 0.419209 0.495755
O O5 0.150839 0.426869 0.952033
O O6 0.951491 0.282196 0.801290
O O7 0.250000 0.250000 0.000000
O O8 0.844947 0.073477 0.904258
O O9 0.683812 0.096134 0.927851
O O10 0.032860 0.063256 0.100327
O O11 0.082566 0.892115 0.175168
O O12 0.000000 0.858392 0.250000
O O13 0.364737 0.981349 0.293111
#
# Coordination Sequence:
#
# PCOD9294770 Si02
#       6
#     8   8   8   8   8   8
#     4  11  24  42  65  95 136 174 216 274 333 397
#     4  12  23  41  66  98 129 176 221 275 332 386
#     4  11  22  42  68  94 134 176 219 272 336 397
#     4  11  22  39  66  97 133 168 228 276 327 390
#     4  10  23  41  66 101 132 169 225 278 327 395
#     4  11  25  41  67  98 134 174 220 273 333 396
#
# _framework density 21.041896999999999
#
# number of rings (size 3 to 8) (size 9 to 14) (size 15 to 20)
#    0.000    1.000    3.333    3.500    2.333    1.333 
#    0.000    0.000    0.000    0.000    0.000    0.000 
#    0.000    0.000    0.000    0.000    0.000    0.000 
#
# Total GULP energy -134124.264993 kJ/mol
# GULP energy per Si atom -5588.511041 kJ/mol
# Density = 2.099400 g / cm^3
# Si number density = 21.041897 Si / 1000 Ang^3
#
#
#
# Elastic Constant Matrix: (Units=GPa)
#
#
# Indices 1 2 3 4 5 6 
#
# 1 97.6250 5.8347 15.7404 0.0001 -16.1201 0.0000
# 2 5.8347 64.4332 1.3833 0.0002 2.5972 0.0001
# 3 15.7404 1.3833 43.3481 0.0007 6.4635 0.0003
# 4 0.0001 0.0002 0.0007 -3.6837 0.0001 -30.6477
# 5 -16.1201 2.5972 6.4635 0.0001 29.3492 0.0000
# 6 0.0000 0.0001 0.0003 -30.6477 0.0000 -7.5943
#
#
#
# Elastic Compliance Matrix: (Units=1/GPa)
#
#
# Indices 1 2 3 4 5 6 
#
# 1 0.012633 -0.001356 -0.005787 0.000000 0.008333 0.000000
# 2 -0.001356 0.015725 0.000319 0.000000 -0.002206 0.000000
# 3 -0.005787 0.000319 0.026509 0.000000 -0.009045 0.000001
# 4 0.000000 0.000000 0.000000 0.008333 0.000000 -0.033631
# 5 0.008333 -0.002206 -0.009045 0.000000 0.040837 0.000000
# 6 0.000000 0.000000 0.000001 -0.033631 0.000000 0.004042
#
#
# Mechanical properties :
#
#
# Convention : Reuss Voigt Hill
#
# Bulk Modulus (GPa) = 24.25941 27.92478 26.09209
# Shear Modulus (GPa) = 36.90990 15.77743 26.34367
#
# Velocity S-wave (km/s) = 4.19276 2.74124 3.54215
# Velocity P-wave (km/s) = 5.91550 4.82898 5.39964
#
# Compressibility (1/GPa) = 0.04122112
#
# Stress axis : x y z
#
# Youngs Moduli (GPa) = 79.15590 63.59384 37.72346
#
# Poissons Ratio (x) = 0.08621 0.21829
# Poissons Ratio (y) = 0.10731 -0.01205
# Poissons Ratio (z) = 0.45805 -0.02031
#
# Static dielectric constant tensor:
#      x y z
#    x 1.761870 0.000000 -0.018230 
#    y 0.000000 1.775590 0.000000 
#    z -0.018230 0.000000 1.780430 
# 
# From -- ./inp_files/144383.got.cif
#   From: 2010.05.17/outbox.cif.g08.bks.cpg/sg15_73_cif.got.tgz:144383.got - 2010.06.03 18:47:42.
