data_PCOD9294594
_publ_section_title
;
Structure prediction by ZEFSAII (Michael W. Deem and Ramdas Pophale) SiO2 
 PCOD9294594
Probable space group: C 2/C
;
_chemical_formula_sum "Si O2"
_cell_formula_units_Z 60
_cell_length_a 14.139365
_cell_length_b 15.213964
_cell_length_c 24.890669
_cell_angle_alpha 90.000000
_cell_angle_beta 28.480836
_cell_angle_gamma 90.000000
_cell_volume 2553.313359
_symmetry_space_group_name_H-M "C 2/C"
_symmetry_group_IT_number 15
_symmetry_cell_setting 'monoclinic'
loop_
_space_group_symop_operation_xyz
x,y,z
-x,y,1/2-z
-x,-y,-z
x,-y,1/2+z
1/2+x,1/2+y,z
1/2-x,1/2+y,1/2-z
1/2-x,1/2-y,-z
1/2+x,1/2-y,1/2+z
loop_
_atom_site_type_symbol
_atom_site_label
_atom_site_fract_x
_atom_site_fract_y
_atom_site_fract_z
Si Si1 0.666661 0.294780 0.825973
Si Si2 0.181010 0.527474 0.047134
Si Si3 0.485934 0.102847 0.582927
Si Si4 0.391931 0.582418 0.527984
Si Si5 0.563236 0.339427 0.660573
Si Si6 0.210577 0.109411 0.621508
Si Si7 0.363749 0.788278 0.891549
Si Si8 0.000000 0.666335 0.750000
O O1 0.609857 0.192678 0.848947
O O2 0.596106 0.346267 0.807402
O O3 0.901245 0.292626 0.716375
O O4 0.543068 0.339950 0.936192
O O5 0.980668 0.478384 0.127211
O O6 0.301835 0.453158 0.017307
O O7 0.182797 0.608538 0.087944
O O8 0.262142 0.567172 0.950706
O O9 0.717823 0.125694 0.459450
O O10 0.380274 0.084517 0.578925
O O11 0.500000 0.500000 0.500000
O O12 0.200862 0.612008 0.658618
O O13 0.500000 0.376910 0.750000
O O14 0.567513 0.234053 0.669831
O O15 0.198564 0.215887 0.621050
O O16 0.000000 0.082131 0.750000
O O17 0.250000 0.750000 0.000000
#
# Coordination Sequence:
#
# PCOD9294594 Si02
#       8
#     8   8   8   8   8   8   8   4
#     4  12  23  48  75 104 148 204 250 306 395 462
#     4  11  27  46  72 109 154 188 255 317 386 446
#     4  12  23  46  74 104 148 189 250 313 376 454
#     4  12  28  47  71 109 153 200 255 319 388 461
#     4  10  23  40  74 104 138 185 246 304 369 452
#     4  11  25  48  74 107 145 201 250 308 380 467
#     4  10  26  46  71 105 147 200 250 304 383 464
#     4  10  24  44  66 106 138 188 256 304 378 462
#
# _framework density 23.498878000000001
#
# number of rings (size 3 to 8) (size 9 to 14) (size 15 to 20)
#    0.400    0.533    4.000    1.600    7.467    3.733 
#    0.000    0.000    0.000    0.000    0.000    0.000 
#    0.000    0.000    0.000    0.000    0.000    0.000 
#
# Total GULP energy -167528.950286 kJ/mol
# GULP energy per Si atom -5584.298343 kJ/mol
# Density = 2.344539 g / cm^3
# Si number density = 23.498878 Si / 1000 Ang^3
#
#
#
# Elastic Constant Matrix: (Units=GPa)
#
#
# Indices 1 2 3 4 5 6 
#
# 1 115.2502 14.1103 21.4153 -0.0097 -11.7667 0.0080
# 2 14.1103 126.7128 32.5703 -0.0016 -12.3035 0.0023
# 3 21.4153 32.5703 95.2127 -0.1150 -22.1652 0.1405
# 4 -0.0097 -0.0016 -0.1150 46.4500 0.0382 -36.6354
# 5 -11.7667 -12.3035 -22.1652 0.0382 29.0841 -0.0427
# 6 0.0080 0.0023 0.1405 -36.6354 -0.0427 75.3624
#
#
#
# Elastic Compliance Matrix: (Units=1/GPa)
#
#
# Indices 1 2 3 4 5 6 
#
# 1 0.009238 -0.000439 -0.001338 -0.000002 0.002532 0.000002
# 2 -0.000439 0.008744 -0.002520 -0.000005 0.001601 0.000003
# 3 -0.001338 -0.002520 0.013727 0.000017 0.008854 -0.000012
# 4 -0.000002 -0.000005 0.000017 0.034915 -0.000011 0.016973
# 5 0.002532 0.001601 0.008854 -0.000011 0.042832 0.000002
# 6 0.000002 0.000003 -0.000012 0.016973 0.000002 0.021520
#
#
# Mechanical properties :
#
#
# Convention : Reuss Voigt Hill
#
# Bulk Modulus (GPa) = 43.26199 52.59639 47.92919
# Shear Modulus (GPa) = 33.95007 48.11794 41.03401
#
# Velocity S-wave (km/s) = 3.80511 4.53003 4.18330
# Velocity P-wave (km/s) = 6.14454 7.05639 6.61619
#
# Compressibility (1/GPa) = 0.02311498
#
# Stress axis : x y z
#
# Youngs Moduli (GPa) = 108.25258 114.36604 72.84947
#
# Poissons Ratio (x) = 0.05019 0.09749
# Poissons Ratio (y) = 0.04751 0.18355
# Poissons Ratio (z) = 0.14487 0.28816
#
# Static dielectric constant tensor:
#      x y z
#    x 1.890070 0.000000 0.056000 
#    y 0.000000 1.951850 -0.000010 
#    z 0.056000 -0.000010 1.915960 
# 
# From -- ./inp_files/296669.got.cif
#   From: 2010.05.17/outbox.cif.g08.bks.cpg/sg15_149_cif.got.tgz:296669.got - 2010.06.03 18:47:42.
