data_PCOD9294973
_publ_section_title
;
Structure prediction by ZEFSAII (Michael W. Deem and Ramdas Pophale) SiO2 
 PCOD9294973
Probable space group: C 2/C
;
_chemical_formula_sum "Si O2"
_cell_formula_units_Z 44
_cell_length_a 7.811340
_cell_length_b 16.248986
_cell_length_c 13.537811
_cell_angle_alpha 90.000000
_cell_angle_beta 95.153446
_cell_angle_gamma 90.000000
_cell_volume 1711.359110
_symmetry_space_group_name_H-M "C 2/C"
_symmetry_group_IT_number 15
_symmetry_cell_setting 'monoclinic'
loop_
_space_group_symop_operation_xyz
x,y,z
-x,y,1/2-z
-x,-y,-z
x,-y,1/2+z
1/2+x,1/2+y,z
1/2-x,1/2+y,1/2-z
1/2-x,1/2-y,-z
1/2+x,1/2-y,1/2+z
loop_
_atom_site_type_symbol
_atom_site_label
_atom_site_fract_x
_atom_site_fract_y
_atom_site_fract_z
Si Si1 0.574184 0.908690 0.031952
Si Si2 0.342029 0.500341 0.809670
Si Si3 0.586332 0.685265 0.157156
Si Si4 0.009898 0.884795 0.455520
Si Si5 0.452898 0.221093 0.137952
Si Si6 0.500000 0.091840 0.750000
O O1 0.784789 0.905215 0.040110
O O2 0.508026 0.876887 0.135902
O O3 0.510906 0.846325 0.943294
O O4 0.500000 0.000000 0.000000
O O5 0.500000 0.526266 0.750000
O O6 0.333740 0.402579 0.806160
O O7 0.394022 0.538799 0.917403
O O8 0.169735 0.537098 0.760951
O O9 0.500000 0.721743 0.250000
O O10 0.746957 0.735259 0.125258
O O11 0.470628 0.654900 0.060568
O O12 0.966094 0.809506 0.379731
O O13 0.500000 0.194070 0.250000
#
# Coordination Sequence:
#
# PCOD9294973 Si02
#       6
#     8   8   8   8   8   4
#     4  11  25  42  75 109 144 186 246 304 355 439
#     4  11  23  42  73 108 145 187 239 309 355 436
#     4  10  23  41  72 103 142 185 248 302 358 443
#     4  11  23  50  67 103 149 196 233 304 381 421
#     4  11  26  47  71 100 151 195 236 300 376 431
#     4  12  24  42  72 110 144 186 248 288 374 422
#
# _framework density 25.710560000000001
#
# number of rings (size 3 to 8) (size 9 to 14) (size 15 to 20)
#    0.000    1.091    1.818    5.455    5.091    1.455 
#    6.545    1.818    0.000    0.000    0.000    0.000 
#    0.000    0.000    0.000    0.000    0.000    0.000 
#
# Total GULP energy -123144.244612 kJ/mol
# GULP energy per Si atom -5597.465664 kJ/mol
# Density = 2.565204 g / cm^3
# Si number density = 25.710560 Si / 1000 Ang^3
#
#
#
# Elastic Constant Matrix: (Units=GPa)
#
#
# Indices 1 2 3 4 5 6 
#
# 1 80.9562 26.7587 24.4760 0.0000 0.1673 0.0000
# 2 26.7587 102.5633 46.6756 0.0000 -13.2189 0.0000
# 3 24.4760 46.6756 196.3929 0.0000 -25.7760 0.0000
# 4 0.0000 0.0000 0.0000 45.0060 0.0000 -0.9294
# 5 0.1673 -13.2189 -25.7760 0.0000 48.8642 0.0000
# 6 0.0000 0.0000 0.0000 -0.9294 0.0000 23.0571
#
#
#
# Elastic Compliance Matrix: (Units=1/GPa)
#
#
# Indices 1 2 3 4 5 6 
#
# 1 0.013783 -0.003275 -0.001141 0.000000 -0.001535 0.000000
# 2 -0.003275 0.011844 -0.002133 0.000000 0.002090 0.000000
# 3 -0.001141 -0.002133 0.006087 0.000000 0.002638 0.000000
# 4 0.000000 0.000000 0.000000 0.022238 0.000000 0.000896
# 5 -0.001535 0.002090 0.002638 0.000000 0.022427 0.000000
# 6 0.000000 0.000000 0.000000 0.000896 0.000000 0.043407
#
#
# Mechanical properties :
#
#
# Convention : Reuss Voigt Hill
#
# Bulk Modulus (GPa) = 53.71066 63.97033 58.84050
# Shear Modulus (GPa) = 35.94849 42.18559 39.06704
#
# Velocity S-wave (km/s) = 3.74331 4.05506 3.90230
# Velocity P-wave (km/s) = 6.29436 6.84541 6.57566
#
# Compressibility (1/GPa) = 0.01861828
#
# Stress axis : x y z
#
# Youngs Moduli (GPa) = 72.55416 84.42867 164.28265
#
# Poissons Ratio (x) = 0.27646 0.18743
# Poissons Ratio (y) = 0.23758 0.35033
# Poissons Ratio (z) = 0.08278 0.18004
#
# Static dielectric constant tensor:
#      x y z
#    x 1.974300 0.000000 -0.054520 
#    y 0.000000 2.027750 0.000000 
#    z -0.054520 0.000000 2.097990 
# 
# From -- ./inp_files/134507.got.cif
#   From: 2010.05.17/outbox.cif.g08.bks.cpg/sg15_68_cif.got.tgz:134507.got - 2010.06.03 18:47:42.
