data_PCOD9294547
_publ_section_title
;
Structure prediction by ZEFSAII (Michael W. Deem and Ramdas Pophale) SiO2 
 PCOD9294547
Probable space group: C 2/C
;
_chemical_formula_sum "Si O2"
_cell_formula_units_Z 32
_cell_length_a 17.671138
_cell_length_b 10.136084
_cell_length_c 13.652288
_cell_angle_alpha 90.000000
_cell_angle_beta 26.710834
_cell_angle_gamma 90.000000
_cell_volume 1099.153084
_symmetry_space_group_name_H-M "C 2/C"
_symmetry_group_IT_number 15
_symmetry_cell_setting 'monoclinic'
loop_
_space_group_symop_operation_xyz
x,y,z
-x,y,1/2-z
-x,-y,-z
x,-y,1/2+z
1/2+x,1/2+y,z
1/2-x,1/2+y,1/2-z
1/2-x,1/2-y,-z
1/2+x,1/2-y,1/2+z
loop_
_atom_site_type_symbol
_atom_site_label
_atom_site_fract_x
_atom_site_fract_y
_atom_site_fract_z
Si Si1 0.628926 0.555869 0.769741
Si Si2 0.830490 0.308060 0.521338
Si Si3 0.806073 0.817481 0.603892
Si Si4 0.791319 0.430164 0.394072
O O1 0.766860 0.664021 0.637671
O O2 0.734690 0.454945 0.576671
O O3 0.500000 0.500000 0.000000
O O4 0.497469 0.644441 0.860721
O O5 0.750000 0.250000 0.500000
O O6 0.736703 0.338587 0.732084
O O7 0.983775 0.373068 0.172965
O O8 0.846323 0.144199 0.515928
O O9 0.701375 0.922443 0.660466
#
# Coordination Sequence:
#
# PCOD9294547 Si02
#       4
#     8   8   8   8
#     4  10  23  40  68  97 138 173 222 273 336 396
#     4   9  21  40  65  95 132 175 224 271 331 395
#     4  12  21  42  70 100 133 178 220 278 333 404
#     4   9  21  41  63  95 133 175 220 272 330 395
#
# _framework density 29.113325
#
# number of rings (size 3 to 8) (size 9 to 14) (size 15 to 20)
#    1.500    0.500    0.000    3.750    0.000    0.000 
#    0.000    7.500   16.500    0.000    0.000    0.000 
#    0.000    0.000    0.000    0.000    0.000    0.000 
#
# Total GULP energy -89068.291306 kJ/mol
# GULP energy per Si atom -5566.768207 kJ/mol
# Density = 2.904706 g / cm^3
# Si number density = 29.113325 Si / 1000 Ang^3
#
#
#
# Elastic Constant Matrix: (Units=GPa)
#
#
# Indices 1 2 3 4 5 6 
#
# 1 83.7313 60.5581 72.4079 0.0000 24.4123 0.0000
# 2 60.5581 235.7856 131.7307 0.0000 4.0228 0.0000
# 3 72.4079 131.7307 188.3965 0.0000 -4.8788 0.0000
# 4 0.0000 0.0000 0.0000 50.0060 0.0000 -14.2283
# 5 24.4123 4.0228 -4.8788 0.0000 89.5019 0.0000
# 6 0.0000 0.0000 0.0000 -14.2283 0.0000 69.6334
#
#
#
# Elastic Compliance Matrix: (Units=1/GPa)
#
#
# Indices 1 2 3 4 5 6 
#
# 1 0.020942 -0.001133 -0.007413 0.000000 -0.006065 0.000000
# 2 -0.001133 0.007051 -0.004501 0.000000 -0.000253 0.000000
# 3 -0.007413 -0.004501 0.011378 0.000000 0.002845 0.000000
# 4 0.000000 0.000000 0.000000 0.021232 0.000000 0.004338
# 5 -0.006065 -0.000253 0.002845 0.000000 0.012994 0.000000
# 6 0.000000 0.000000 0.000000 0.004338 0.000000 0.015247
#
#
# Mechanical properties :
#
#
# Convention : Reuss Voigt Hill
#
# Bulk Modulus (GPa) = 75.32805 115.25631 95.29218
# Shear Modulus (GPa) = 41.88790 58.04270 49.96530
#
# Velocity S-wave (km/s) = 3.79725 4.46991 4.14724
# Velocity P-wave (km/s) = 6.71980 8.14340 7.46561
#
# Compressibility (1/GPa) = 0.01327527
#
# Stress axis : x y z
#
# Youngs Moduli (GPa) = 47.75142 141.81400 87.88601
#
# Poissons Ratio (x) = 0.16073 0.65153
# Poissons Ratio (y) = 0.05412 0.39562
# Poissons Ratio (z) = 0.35400 0.63838
#
# Static dielectric constant tensor:
#      x y z
#    x 1.738540 0.000000 -1.720680 
#    y 0.000000 5.199280 0.000000 
#    z -1.720680 0.000000 -2.666320 
# 
# From -- ./inp_files/171603.got.cif
#   From: 2010.05.17/outbox.cif.g08.bks.cpg/sg15_86_cif.got.tgz:171603.got - 2010.06.03 18:47:42.
