data_PCOD9294896
_publ_section_title
;
Structure prediction by ZEFSAII (Michael W. Deem and Ramdas Pophale) SiO2 
 PCOD9294896
Probable space group: C 2/C
;
_chemical_formula_sum "Si O2"
_cell_formula_units_Z 40
_cell_length_a 25.000308
_cell_length_b 7.500714
_cell_length_c 30.736309
_cell_angle_alpha 90.000000
_cell_angle_beta 162.164819
_cell_angle_gamma 90.000000
_cell_volume 1765.298468
_symmetry_space_group_name_H-M "C 2/C"
_symmetry_group_IT_number 15
_symmetry_cell_setting 'monoclinic'
loop_
_space_group_symop_operation_xyz
x,y,z
-x,y,1/2-z
-x,-y,-z
x,-y,1/2+z
1/2+x,1/2+y,z
1/2-x,1/2+y,1/2-z
1/2-x,1/2-y,-z
1/2+x,1/2-y,1/2+z
loop_
_atom_site_type_symbol
_atom_site_label
_atom_site_fract_x
_atom_site_fract_y
_atom_site_fract_z
Si Si1 0.498238 0.814931 0.576203
Si Si2 0.805297 0.720274 0.592122
Si Si3 0.235669 0.888555 0.200966
Si Si4 0.909264 0.680426 0.491652
Si Si5 0.801018 0.296735 0.588682
O O1 0.570637 0.648992 0.604605
O O2 0.350082 0.771100 0.496167
O O3 0.663896 0.922655 0.725532
O O4 0.416757 0.972584 0.482872
O O5 0.750000 0.750000 0.500000
O O6 0.684350 0.810420 0.534293
O O7 0.803044 0.508798 0.597573
O O8 0.000000 0.788102 0.750000
O O9 0.183588 0.805160 0.114699
O O10 0.390957 0.772450 0.343170
O O11 0.750000 0.250000 0.500000
O O12 0.000000 0.231391 0.750000
#
# Coordination Sequence:
#
# PCOD9294896 Si02
#       5
#     8   8   8   8   8
#     4  10  25  44  71 101 145 178 239 291 352 419
#     4  11  24  43  70 100 139 186 233 286 350 420
#     4  10  24  43  67 101 135 186 227 288 355 410
#     4  10  23  41  68  96 138 179 235 286 350 414
#     4  11  27  46  72 104 141 186 236 293 353 418
#
# _framework density 22.659058000000002
#
# number of rings (size 3 to 8) (size 9 to 14) (size 15 to 20)
#    1.200    0.400    0.000    3.000    8.400    7.200 
#    0.000    0.000    0.000    0.000    0.000    0.000 
#    0.000    0.000    0.000    0.000    0.000    0.000 
#
# Total GULP energy -111660.511458 kJ/mol
# GULP energy per Si atom -5583.025573 kJ/mol
# Density = 2.260748 g / cm^3
# Si number density = 22.659058 Si / 1000 Ang^3
#
#
#
# Elastic Constant Matrix: (Units=GPa)
#
#
# Indices 1 2 3 4 5 6 
#
# 1 154.9054 36.4806 70.6494 0.0650 40.4602 0.0122
# 2 36.4806 81.8111 34.9140 -0.0138 11.8595 0.0017
# 3 70.6494 34.9140 135.5724 0.2744 18.3349 0.0600
# 4 0.0650 -0.0138 0.2744 -96.0907 -0.0347 -21.1209
# 5 40.4602 11.8595 18.3349 -0.0347 47.1471 -0.0083
# 6 0.0122 0.0017 0.0600 -21.1209 -0.0083 19.2060
#
#
#
# Elastic Compliance Matrix: (Units=1/GPa)
#
#
# Indices 1 2 3 4 5 6 
#
# 1 0.010614 -0.001976 -0.004071 -0.000002 -0.007028 0.000001
# 2 -0.001976 0.014319 -0.002533 -0.000010 -0.000921 -0.000003
# 3 -0.004071 -0.002533 0.010124 0.000026 0.000194 0.000000
# 4 -0.000002 -0.000010 0.000026 -0.008381 -0.000014 -0.009217
# 5 -0.007028 -0.000921 0.000194 -0.000014 0.027397 0.000000
# 6 0.000001 -0.000003 0.000000 -0.009217 0.000000 0.041932
#
#
# Mechanical properties :
#
#
# Convention : Reuss Voigt Hill
#
# Bulk Modulus (GPa) = 55.88313 72.93075 64.40694
# Shear Modulus (GPa) = 41.97056 9.40216 25.68636
#
# Velocity S-wave (km/s) = 4.30846 2.03922 3.37055
# Velocity P-wave (km/s) = 7.03325 6.14822 6.60557
#
# Compressibility (1/GPa) = 0.01789449
#
# Stress axis : x y z
#
# Youngs Moduli (GPa) = 94.21958 69.83690 98.77615
#
# Poissons Ratio (x) = 0.13802 0.40217
# Poissons Ratio (y) = 0.18621 0.25021
# Poissons Ratio (z) = 0.38361 0.17691
#
# Static dielectric constant tensor:
#      x y z
#    x 1.774250 0.000010 0.016760 
#    y 0.000010 1.885600 0.000010 
#    z 0.016760 0.000010 1.863920 
# 
# From -- ./inp_files/318532.got.cif
#   From: 2010.05.17/outbox.cif.g08.bks.cpg/sg15_160_cif.got.tgz:318532.got - 2010.06.03 18:47:42.
