data_PCOD9294812
_publ_section_title
;
Structure prediction by ZEFSAII (Michael W. Deem and Ramdas Pophale) SiO2 
 PCOD9294812
Probable space group: C 2/C
;
_chemical_formula_sum "Si O2"
_cell_formula_units_Z 48
_cell_length_a 21.293046
_cell_length_b 8.677067
_cell_length_c 11.442722
_cell_angle_alpha 90.000000
_cell_angle_beta 67.390979
_cell_angle_gamma 90.000000
_cell_volume 1951.696229
_symmetry_space_group_name_H-M "C 2/C"
_symmetry_group_IT_number 15
_symmetry_cell_setting 'monoclinic'
loop_
_space_group_symop_operation_xyz
x,y,z
-x,y,1/2-z
-x,-y,-z
x,-y,1/2+z
1/2+x,1/2+y,z
1/2-x,1/2+y,1/2-z
1/2-x,1/2-y,-z
1/2+x,1/2-y,1/2+z
loop_
_atom_site_type_symbol
_atom_site_label
_atom_site_fract_x
_atom_site_fract_y
_atom_site_fract_z
Si Si1 0.578731 0.203742 0.094108
Si Si2 0.629974 0.363389 0.715384
Si Si3 0.282187 0.727372 0.137461
Si Si4 0.561958 0.329898 0.357425
Si Si5 0.251311 0.503854 0.478258
Si Si6 0.103280 0.356818 0.056080
O O1 0.582719 0.227636 0.229901
O O2 0.519731 0.314626 0.088205
O O3 0.567444 0.023938 0.073043
O O4 0.649182 0.251554 0.986675
O O5 0.690048 0.297947 0.754445
O O6 0.589293 0.498928 0.808956
O O7 0.674173 0.424222 0.574312
O O8 0.585603 0.228909 0.690302
O O9 0.243109 0.883071 0.134291
O O10 0.242490 0.587381 0.106148
O O11 0.587427 0.250445 0.456987
O O12 0.184204 0.602602 0.504270
#
# Coordination Sequence:
#
# PCOD9294812 Si02
#       6
#     8   8   8   8   8   8
#     4  10  24  49  70  96 136 188 236 290 355 408
#     4  12  25  41  70 106 139 179 231 284 359 408
#     4  10  23  42  66  99 136 185 225 287 344 420
#     4  11  25  47  71  99 144 178 237 297 345 423
#     4  10  23  41  66  99 142 181 230 279 350 415
#     4  11  26  44  73 105 138 185 240 283 355 425
#
# _framework density 24.593992
#
# number of rings (size 3 to 8) (size 9 to 14) (size 15 to 20)
#    0.000    1.333    1.667    2.000    9.333    0.667 
#    3.000    0.000    0.000    0.000    0.000    0.000 
#    0.000    0.000    0.000    0.000    0.000    0.000 
#
# Total GULP energy -134275.761365 kJ/mol
# GULP energy per Si atom -5594.823390 kJ/mol
# Density = 2.453802 g / cm^3
# Si number density = 24.593992 Si / 1000 Ang^3
#
#
#
# Elastic Constant Matrix: (Units=GPa)
#
#
# Indices 1 2 3 4 5 6 
#
# 1 100.1130 30.5468 14.4127 0.0000 13.1411 0.0000
# 2 30.5468 106.6815 20.3835 0.0000 21.8035 0.0000
# 3 14.4127 20.3835 55.0804 0.0000 28.5845 0.0000
# 4 0.0000 0.0000 0.0000 33.2989 0.0000 6.9641
# 5 13.1411 21.8035 28.5845 0.0000 54.7788 0.0000
# 6 0.0000 0.0000 0.0000 6.9641 0.0000 25.6990
#
#
#
# Elastic Compliance Matrix: (Units=1/GPa)
#
#
# Indices 1 2 3 4 5 6 
#
# 1 0.011145 -0.002743 -0.001481 0.000000 -0.000809 0.000000
# 2 -0.002743 0.011093 -0.001972 0.000000 -0.002729 0.000000
# 3 -0.001481 -0.001972 0.025618 0.000000 -0.012228 0.000000
# 4 0.000000 0.000000 0.000000 0.031835 0.000000 -0.008627
# 5 -0.000809 -0.002729 -0.012228 0.000000 0.025916 0.000000
# 6 0.000000 0.000000 0.000000 -0.008627 0.000000 0.041250
#
#
# Mechanical properties :
#
#
# Convention : Reuss Voigt Hill
#
# Bulk Modulus (GPa) = 28.19669 43.61789 35.90729
# Shear Modulus (GPa) = 29.22753 35.85746 32.54250
#
# Velocity S-wave (km/s) = 3.45106 3.82249 3.64151
# Velocity P-wave (km/s) = 5.23159 6.10373 5.68441
#
# Compressibility (1/GPa) = 0.03546516
#
# Stress axis : x y z
#
# Youngs Moduli (GPa) = 89.72574 90.14306 39.03452
#
# Poissons Ratio (x) = 0.24725 0.05783
# Poissons Ratio (y) = 0.24611 0.07696
# Poissons Ratio (z) = 0.13293 0.17772
#
# Static dielectric constant tensor:
#      x y z
#    x 1.912630 0.000000 -0.005030 
#    y 0.000000 2.077070 0.000000 
#    z -0.005030 0.000000 1.962860 
# 
# From -- ./inp_files/116713.got.cif
#   From: 2010.05.17/outbox.cif.g08.bks.cpg/sg15_59_cif.got.tgz:116713.got - 2010.06.03 18:47:42.
