data_PCOD9294845
_publ_section_title
;
Structure prediction by ZEFSAII (Michael W. Deem and Ramdas Pophale) SiO2 
 PCOD9294845
Probable space group: C 2/C
;
_chemical_formula_sum "Si O2"
_cell_formula_units_Z 44
_cell_length_a 25.578383
_cell_length_b 7.973659
_cell_length_c 30.369392
_cell_angle_alpha 90.000000
_cell_angle_beta 161.000794
_cell_angle_gamma 90.000000
_cell_volume 2016.467750
_symmetry_space_group_name_H-M "C 2/C"
_symmetry_group_IT_number 15
_symmetry_cell_setting 'monoclinic'
loop_
_space_group_symop_operation_xyz
x,y,z
-x,y,1/2-z
-x,-y,-z
x,-y,1/2+z
1/2+x,1/2+y,z
1/2-x,1/2+y,1/2-z
1/2-x,1/2-y,-z
1/2+x,1/2-y,1/2+z
loop_
_atom_site_type_symbol
_atom_site_label
_atom_site_fract_x
_atom_site_fract_y
_atom_site_fract_z
Si Si1 0.675685 0.782692 0.566648
Si Si2 0.385883 0.294784 0.311395
Si Si3 0.500000 0.169279 0.250000
Si Si4 0.823130 0.812843 0.776096
Si Si5 0.739067 0.827175 0.103082
Si Si6 0.328149 0.154284 0.602219
O O1 0.765543 0.738560 0.683479
O O2 0.484998 0.775708 0.421232
O O3 0.724993 0.666602 0.564624
O O4 0.723301 0.972519 0.592825
O O5 0.315311 0.204137 0.298072
O O6 0.366770 0.493053 0.304058
O O7 0.570803 0.245955 0.452136
O O8 0.278314 0.256749 0.183001
O O9 0.390750 0.276799 0.194721
O O10 0.622418 0.036108 0.370512
O O11 0.500000 0.236935 0.750000
O O12 0.250000 0.250000 0.500000
#
# Coordination Sequence:
#
# PCOD9294845 Si02
#       6
#     8   8   4   8   8   8
#     4  11  24  43  69  98 133 175 222 275 335 397
#     4  11  25  44  67 100 134 174 224 275 335 398
#     4  10  26  44  68  96 136 176 220 272 334 386
#     4  11  24  43  69  99 133 175 221 277 337 396
#     4  11  26  44  67  99 136 176 224 273 331 397
#     4  10  23  41  67  96 130 172 220 266 325 392
#
# _framework density 21.820333999999999
#
# number of rings (size 3 to 8) (size 9 to 14) (size 15 to 20)
#    0.545    0.727    0.000    4.364    3.818   10.909 
#    0.000    0.000    0.000    0.000    0.000    0.000 
#    0.000    0.000    0.000    0.000    0.000    0.000 
#
# Total GULP energy -123060.301302 kJ/mol
# GULP energy per Si atom -5593.650059 kJ/mol
# Density = 2.177067 g / cm^3
# Si number density = 21.820334 Si / 1000 Ang^3
#
#
#
# Elastic Constant Matrix: (Units=GPa)
#
#
# Indices 1 2 3 4 5 6 
#
# 1 -10.6190 -27.8497 10.3799 -0.0049 34.0287 0.0044
# 2 -27.8497 30.2870 10.8364 0.0062 11.3528 0.0032
# 3 10.3799 10.8364 90.2305 0.0423 0.3919 0.0105
# 4 -0.0049 0.0062 0.0423 54.8454 -0.0031 16.3921
# 5 34.0287 11.3528 0.3919 -0.0031 40.2416 -0.0023
# 6 0.0044 0.0032 0.0105 16.3921 -0.0023 25.0824
#
#
#
# Elastic Compliance Matrix: (Units=1/GPa)
#
#
# Indices 1 2 3 4 5 6 
#
# 1 -0.010165 -0.015220 0.002941 -0.000002 0.012861 0.000005
# 2 -0.015220 0.015956 -0.000202 -0.000004 0.008371 0.000004
# 3 0.002941 -0.000202 0.010780 -0.000008 -0.002535 0.000000
# 4 -0.000002 -0.000004 -0.000008 0.022659 0.000004 -0.014808
# 5 0.012861 0.008371 -0.002535 0.000004 0.011638 -0.000004
# 6 0.000005 0.000004 0.000000 -0.014808 -0.000004 0.049546
#
#
# Mechanical properties :
#
#
# Convention : Reuss Voigt Hill
#
# Bulk Modulus (GPa) = -119.18196 10.73685 -54.22255
# Shear Modulus (GPa) = 40.79030 31.80268 36.29649
#
# Velocity S-wave (km/s) = 4.32831 3.82184 4.08294
# Velocity P-wave (km/s) = 5.45520 4.94029 1.63596
#
# Compressibility (1/GPa) = -0.00839053
#
# Stress axis : x y z
#
# Youngs Moduli (GPa) = -98.37535 62.67083 92.76782
#
# Poissons Ratio (x) = 0.95387 -0.27287
# Poissons Ratio (y) = -1.49731 0.01872
# Poissons Ratio (z) = 0.28936 0.01264
#
# Static dielectric constant tensor:
#      x y z
#    x 1.782530 0.000000 0.005440 
#    y 0.000000 1.799030 0.000000 
#    z 0.005440 0.000000 1.772250 
# 
# From -- ./inp_files/318678.got.cif
#   From: 2010.05.17/outbox.cif.g08.bks.cpg/sg15_160_cif.got.tgz:318678.got - 2010.06.03 18:47:42.
