data_PCOD9294333
_publ_section_title
;
Structure prediction by ZEFSAII (Michael W. Deem and Ramdas Pophale) SiO2 
 PCOD9294333
Probable space group: C 2/C
;
_chemical_formula_sum "Si O2"
_cell_formula_units_Z 48
_cell_length_a 18.021650
_cell_length_b 20.095093
_cell_length_c 14.247989
_cell_angle_alpha 90.000000
_cell_angle_beta 149.203107
_cell_angle_gamma 90.000000
_cell_volume 2641.830515
_symmetry_space_group_name_H-M "C 2/C"
_symmetry_group_IT_number 15
_symmetry_cell_setting 'monoclinic'
loop_
_space_group_symop_operation_xyz
x,y,z
-x,y,1/2-z
-x,-y,-z
x,-y,1/2+z
1/2+x,1/2+y,z
1/2-x,1/2+y,1/2-z
1/2-x,1/2-y,-z
1/2+x,1/2-y,1/2+z
loop_
_atom_site_type_symbol
_atom_site_label
_atom_site_fract_x
_atom_site_fract_y
_atom_site_fract_z
Si Si1 0.664741 0.689837 0.958431
Si Si2 0.718469 0.279702 0.730337
Si Si3 0.156786 0.815696 0.871159
Si Si4 0.619455 0.921769 0.799348
Si Si5 0.520694 0.158453 0.526899
Si Si6 0.869158 0.573335 0.681956
O O1 0.500000 0.693267 0.750000
O O2 0.750000 0.750000 0.000000
O O3 0.669529 0.692418 0.076646
O O4 0.746595 0.622455 0.020895
O O5 0.654284 0.313406 0.754706
O O6 0.661034 0.204279 0.662807
O O7 0.891070 0.292417 0.919761
O O8 0.000000 0.811421 0.750000
O O9 0.250000 0.750000 0.000000
O O10 0.241537 0.880705 0.001135
O O11 0.500000 0.923756 0.750000
O O12 0.543741 0.882873 0.630383
O O13 0.668705 0.997231 0.834386
O O14 0.565497 0.108265 0.656064
O O15 0.000000 0.572480 0.750000
#
# Coordination Sequence:
#
# PCOD9294333 Si02
#       6
#     8   8   8   8   8   8
#     4  11  22  40  65  89 123 156 205 260 313 357
#     4  11  22  35  61  93 119 153 203 253 307 361
#     4  12  23  38  60  89 125 161 203 255 310 362
#     4  10  23  40  61  88 120 163 208 251 307 366
#     4  11  21  37  61  90 123 155 206 250 310 362
#     4  11  22  40  61  84 125 168 202 248 304 375
#
# _framework density 18.169221
#
# number of rings (size 3 to 8) (size 9 to 14) (size 15 to 20)
#    0.000    1.000    3.333    5.500    0.000    0.667 
#    0.000    0.000    0.000    3.000    0.000    0.000 
#    0.000    0.000    0.000    0.000    0.000    0.000 
#
# Total GULP energy -133946.109928 kJ/mol
# GULP energy per Si atom -5581.087914 kJ/mol
# Density = 1.812787 g / cm^3
# Si number density = 18.169221 Si / 1000 Ang^3
#
#
#
# Elastic Constant Matrix: (Units=GPa)
#
#
# Indices 1 2 3 4 5 6 
#
# 1 95.2673 37.2045 52.6088 0.0000 -1.0609 0.0000
# 2 37.2045 157.9985 74.0986 0.0000 18.3540 0.0000
# 3 52.6088 74.0986 125.0913 0.0000 8.1257 0.0000
# 4 0.0000 0.0000 0.0000 25.0862 0.0000 2.9612
# 5 -1.0609 18.3540 8.1257 0.0000 29.8105 0.0000
# 6 0.0000 0.0000 0.0000 2.9612 0.0000 25.5061
#
#
#
# Elastic Compliance Matrix: (Units=1/GPa)
#
#
# Indices 1 2 3 4 5 6 
#
# 1 0.013918 -0.001047 -0.005403 0.000000 0.002613 0.000000
# 2 -0.001047 0.009351 -0.004808 0.000000 -0.004484 0.000000
# 3 -0.005403 -0.004808 0.013168 0.000000 -0.000821 0.000000
# 4 0.000000 0.000000 0.000000 0.040416 0.000000 -0.004692
# 5 0.002613 -0.004484 -0.000821 0.000000 0.036623 0.000000
# 6 0.000000 0.000000 0.000000 -0.004692 0.000000 0.039751
#
#
# Mechanical properties :
#
#
# Convention : Reuss Voigt Hill
#
# Bulk Modulus (GPa) = 71.82905 78.46456 75.14681
# Shear Modulus (GPa) = 27.71856 30.37691 29.04773
#
# Velocity S-wave (km/s) = 3.91010 4.09331 4.00275
# Velocity P-wave (km/s) = 7.74625 8.10058 7.92540
#
# Compressibility (1/GPa) = 0.01392194
#
# Stress axis : x y z
#
# Youngs Moduli (GPa) = 71.84691 106.93606 75.94290
#
# Poissons Ratio (x) = 0.11196 0.41033
# Poissons Ratio (y) = 0.07522 0.36511
# Poissons Ratio (z) = 0.38820 0.51412
#
# Static dielectric constant tensor:
#      x y z
#    x 1.586980 0.000000 0.019900 
#    y 0.000000 1.650860 0.000000 
#    z 0.019900 0.000000 1.609190 
# 
# From -- ./inp_files/48705.got.cif
#   From: 2010.05.17/outbox.cif.g08.bks.cpg/sg15_25_cif.got.tgz:48705.got - 2010.06.03 18:47:42.
