data_PCOD9294899
_publ_section_title
;
Structure prediction by ZEFSAII (Michael W. Deem and Ramdas Pophale) SiO2 
 PCOD9294899
Probable space group: C 2/C
;
_chemical_formula_sum "Si O2"
_cell_formula_units_Z 40
_cell_length_a 13.281474
_cell_length_b 28.698417
_cell_length_c 5.234453
_cell_angle_alpha 90.000000
_cell_angle_beta 106.359539
_cell_angle_gamma 90.000000
_cell_volume 1914.372468
_symmetry_space_group_name_H-M "C 2/C"
_symmetry_group_IT_number 15
_symmetry_cell_setting 'monoclinic'
loop_
_space_group_symop_operation_xyz
x,y,z
-x,y,1/2-z
-x,-y,-z
x,-y,1/2+z
1/2+x,1/2+y,z
1/2-x,1/2+y,1/2-z
1/2-x,1/2-y,-z
1/2+x,1/2-y,1/2+z
loop_
_atom_site_type_symbol
_atom_site_label
_atom_site_fract_x
_atom_site_fract_y
_atom_site_fract_z
Si Si1 0.296356 0.116294 0.654308
Si Si2 0.430958 0.644620 0.945000
Si Si3 0.880104 0.518690 0.883621
Si Si4 0.114256 0.342226 0.790772
Si Si5 0.322669 0.255106 0.302187
O O1 0.171556 0.112413 0.594466
O O2 0.362608 0.070459 0.770506
O O3 0.322688 0.131611 0.386224
O O4 0.330715 0.153828 0.894787
O O5 0.500000 0.631463 0.750000
O O6 0.386439 0.697051 0.865867
O O7 0.500000 0.644672 0.250000
O O8 0.831665 0.486430 0.628716
O O9 0.000000 0.500000 0.000000
O O10 0.103464 0.290071 0.673811
O O11 0.000000 0.363648 0.750000
O O12 0.250000 0.250000 0.500000
O O13 0.250000 0.250000 0.000000
#
# Coordination Sequence:
#
# PCOD9294899 Si02
#       5
#     8   8   8   8   8
#     4  12  25  44  67 101 137 174 231 281 338 418
#     4  12  25  43  70  93 134 190 236 284 331 394
#     4  10  23  41  68  98 133 174 205 271 357 435
#     4  12  25  39  65  98 139 182 219 285 340 409
#     4  12  22  43  63  93 139 185 233 284 342 377
#
# _framework density 20.894576000000001
#
# number of rings (size 3 to 8) (size 9 to 14) (size 15 to 20)
#    0.000    0.400    4.000    4.800    8.400    1.600 
#    0.000    0.000    0.000    3.600    0.000    0.000 
#    0.000    0.000    0.000    0.000    0.000    0.000 
#
# Total GULP energy -111750.117009 kJ/mol
# GULP energy per Si atom -5587.505850 kJ/mol
# Density = 2.084702 g / cm^3
# Si number density = 20.894576 Si / 1000 Ang^3
#
#
#
# Elastic Constant Matrix: (Units=GPa)
#
#
# Indices 1 2 3 4 5 6 
#
# 1 145.8129 4.0794 43.6500 0.0000 -11.4718 0.0000
# 2 4.0794 61.5436 -15.8254 0.0000 6.4306 0.0000
# 3 43.6500 -15.8254 138.5975 0.0000 -13.6593 0.0000
# 4 0.0000 0.0000 0.0000 12.6589 0.0000 4.7486
# 5 -11.4718 6.4306 -13.6593 0.0000 42.9938 0.0000
# 6 0.0000 0.0000 0.0000 4.7486 0.0000 23.0849
#
#
#
# Elastic Compliance Matrix: (Units=1/GPa)
#
#
# Indices 1 2 3 4 5 6 
#
# 1 0.007741 -0.001296 -0.002440 0.000000 0.001484 0.000000
# 2 -0.001296 0.017118 0.002143 0.000000 -0.002225 0.000000
# 3 -0.002440 0.002143 0.008395 0.000000 0.001696 0.000000
# 4 0.000000 0.000000 0.000000 0.085601 0.000000 -0.017608
# 5 0.001484 -0.002225 0.001696 0.000000 0.024527 0.000000
# 6 0.000000 0.000000 0.000000 -0.017608 0.000000 0.046940
#
#
# Mechanical properties :
#
#
# Convention : Reuss Voigt Hill
#
# Bulk Modulus (GPa) = 33.25468 45.52911 39.39189
# Shear Modulus (GPa) = 24.56629 36.68418 30.62523
#
# Velocity S-wave (km/s) = 3.43261 4.19463 3.83260
# Velocity P-wave (km/s) = 5.62676 6.73031 6.20312
#
# Compressibility (1/GPa) = 0.03007096
#
# Stress axis : x y z
#
# Youngs Moduli (GPa) = 129.17417 58.41750 119.11337
#
# Poissons Ratio (x) = 0.07569 0.29061
# Poissons Ratio (y) = 0.16736 -0.25530
# Poissons Ratio (z) = 0.31515 -0.12521
#
# Static dielectric constant tensor:
#      x y z
#    x 1.607380 0.000000 0.028850 
#    y 0.000000 1.857350 0.000000 
#    z 0.028850 0.000000 1.754030 
# 
# From -- ./inp_files/5923.got.cif
#   From: 2010.05.17/outbox.cif.g08.bks.cpg/sg15_3_cif.got.tgz:5923.got - 2010.06.03 18:47:42.
