data_PCOD9294750
_publ_section_title
;
Structure prediction by ZEFSAII (Michael W. Deem and Ramdas Pophale) SiO2 
 PCOD9294750
Probable space group: C 2/C
;
_chemical_formula_sum "Si O2"
_cell_formula_units_Z 64
_cell_length_a 25.127868
_cell_length_b 19.073045
_cell_length_c 20.396750
_cell_angle_alpha 90.000000
_cell_angle_beta 19.161273
_cell_angle_gamma 90.000000
_cell_volume 3208.578077
_symmetry_space_group_name_H-M "C 2/C"
_symmetry_group_IT_number 15
_symmetry_cell_setting 'monoclinic'
loop_
_space_group_symop_operation_xyz
x,y,z
-x,y,1/2-z
-x,-y,-z
x,-y,1/2+z
1/2+x,1/2+y,z
1/2-x,1/2+y,1/2-z
1/2-x,1/2-y,-z
1/2+x,1/2-y,1/2+z
loop_
_atom_site_type_symbol
_atom_site_label
_atom_site_fract_x
_atom_site_fract_y
_atom_site_fract_z
Si Si1 0.187005 0.839881 0.115670
Si Si2 0.195336 0.326561 0.806243
Si Si3 0.530019 0.033260 0.535432
Si Si4 0.347016 0.022636 0.477103
Si Si5 0.784599 0.120755 0.560297
Si Si6 0.625066 0.258255 0.796283
Si Si7 0.189655 0.802822 0.969332
Si Si8 0.645595 0.613994 0.172090
O O1 0.282053 0.778030 0.042801
O O2 0.997339 0.819220 0.331133
O O3 0.226954 0.912999 0.102995
O O4 0.238879 0.843143 0.978644
O O5 0.349784 0.293460 0.662197
O O6 0.208713 0.323052 0.712685
O O7 0.158354 0.404092 0.874887
O O8 0.048662 0.278198 0.001971
O O9 0.362850 0.068475 0.754282
O O10 0.500000 0.000000 0.500000
O O11 0.591986 0.981002 0.519181
O O12 0.500000 0.028780 0.250000
O O13 0.255492 0.949615 0.569031
O O14 0.746051 0.194173 0.640236
O O15 0.798107 0.133128 0.466816
O O16 0.956776 0.092444 0.385250
O O17 0.652765 0.318995 0.710974
#
# Coordination Sequence:
#
# PCOD9294750 Si02
#       8
#     8   8   8   8   8   8   8   8
#     4  10  25  43  74 100 129 172 230 285 335 402
#     4  11  23  39  69  93 139 174 220 273 337 397
#     4  11  26  45  64  96 137 182 219 275 347 413
#     4  12  26  45  70  98 135 177 226 276 340 410
#     4  10  23  41  65  96 128 180 227 274 323 389
#     4  11  21  40  61  99 131 177 222 271 323 390
#     4  10  23  46  68 104 129 171 225 283 337 396
#     4  11  22  42  66  94 135 173 224 274 322 393
#
# _framework density 19.946529999999999
#
# number of rings (size 3 to 8) (size 9 to 14) (size 15 to 20)
#    0.000    1.250    3.750    1.125    5.250    5.000 
#    4.500    1.250    0.000    0.000    0.000    0.000 
#    0.000    0.000    0.000    0.000    0.000    0.000 
#
# Total GULP energy -178801.827293 kJ/mol
# GULP energy per Si atom -5587.557103 kJ/mol
# Density = 1.990113 g / cm^3
# Si number density = 19.946530 Si / 1000 Ang^3
#
#
#
# Elastic Constant Matrix: (Units=GPa)
#
#
# Indices 1 2 3 4 5 6 
#
# 1 117.2570 34.7914 24.6313 0.0050 9.6085 -0.0007
# 2 34.7914 80.3885 24.6562 -0.0014 -7.4217 -0.0009
# 3 24.6313 24.6562 57.8063 0.0097 4.3214 0.0039
# 4 0.0050 -0.0014 0.0097 15.1622 0.0030 -11.6922
# 5 9.6085 -7.4217 4.3214 0.0030 29.7602 0.0021
# 6 -0.0007 -0.0009 0.0039 -11.6922 0.0021 26.6431
#
#
#
# Elastic Compliance Matrix: (Units=1/GPa)
#
#
# Indices 1 2 3 4 5 6 
#
# 1 0.010634 -0.004245 -0.002411 -0.000001 -0.004142 0.000000
# 2 -0.004245 0.016630 -0.005759 0.000009 0.006354 0.000005
# 3 -0.002411 -0.005759 0.021061 -0.000022 -0.003716 -0.000013
# 4 -0.000001 0.000009 -0.000022 0.099689 -0.000007 0.043748
# 5 -0.004142 0.006354 -0.003716 -0.000007 0.037063 -0.000005
# 6 0.000000 0.000005 -0.000013 0.043748 -0.000005 0.056732
#
#
# Mechanical properties :
#
#
# Convention : Reuss Voigt Hill
#
# Bulk Modulus (GPa) = 42.56417 47.06773 44.81595
# Shear Modulus (GPa) = 18.21689 25.73796 21.97743
#
# Velocity S-wave (km/s) = 3.02534 3.59604 3.32296
# Velocity P-wave (km/s) = 5.79561 6.39454 6.10243
#
# Compressibility (1/GPa) = 0.02349394
#
# Stress axis : x y z
#
# Youngs Moduli (GPa) = 94.04107 60.13246 47.48174
#
# Poissons Ratio (x) = 0.25527 0.11446
# Poissons Ratio (y) = 0.39922 0.27346
# Poissons Ratio (z) = 0.22670 0.34632
#
# Static dielectric constant tensor:
#      x y z
#    x 1.698520 0.000000 -0.017630 
#    y 0.000000 1.664490 0.000010 
#    z -0.017630 0.000010 1.719920 
# 
# From -- ./inp_files/255988.got.cif
#   From: 2010.05.17/outbox.cif.g08.bks.cpg/sg15_128_cif.got.tgz:255988.got - 2010.06.03 18:47:42.
