data_PCOD9294479
_publ_section_title
;
Structure prediction by ZEFSAII (Michael W. Deem and Ramdas Pophale) SiO2 
 PCOD9294479
Probable space group: C 2/C
;
_chemical_formula_sum "Si O2"
_cell_formula_units_Z 60
_cell_length_a 20.034464
_cell_length_b 5.466282
_cell_length_c 22.087910
_cell_angle_alpha 90.000000
_cell_angle_beta 97.444712
_cell_angle_gamma 90.000000
_cell_volume 2398.545258
_symmetry_space_group_name_H-M "C 2/C"
_symmetry_group_IT_number 15
_symmetry_cell_setting 'monoclinic'
loop_
_space_group_symop_operation_xyz
x,y,z
-x,y,1/2-z
-x,-y,-z
x,-y,1/2+z
1/2+x,1/2+y,z
1/2-x,1/2+y,1/2-z
1/2-x,1/2-y,-z
1/2+x,1/2-y,1/2+z
loop_
_atom_site_type_symbol
_atom_site_label
_atom_site_fract_x
_atom_site_fract_y
_atom_site_fract_z
Si Si1 0.586848 0.401137 0.937969
Si Si2 0.500000 0.509299 0.250000
Si Si3 0.178778 0.286173 0.197968
Si Si4 0.868319 0.224671 0.181339
Si Si5 0.553604 0.473603 0.133310
Si Si6 0.854416 0.614194 0.008586
Si Si7 0.221539 0.572794 0.382906
Si Si8 0.665869 0.158514 0.110655
O O1 0.630459 0.432319 0.880258
O O2 0.509125 0.407436 0.908504
O O3 0.607826 0.138716 0.967486
O O4 0.603159 0.636747 0.980800
O O5 0.440512 0.681097 0.218774
O O6 0.525014 0.366847 0.193603
O O7 0.181359 0.200520 0.267262
O O8 0.168325 0.569736 0.180685
O O9 0.112986 0.156819 0.160904
O O10 0.243595 0.225487 0.165661
O O11 0.850016 0.489544 0.153555
O O12 0.592761 0.280412 0.097226
O O13 0.795407 0.644498 0.050994
O O14 0.830639 0.558132 0.937887
O O15 0.272868 0.341441 0.394386
#
# Coordination Sequence:
#
# PCOD9294479 Si02
#       8
#     8   4   8   8   8   8   8   8
#     4  10  24  45  71 102 132 185 227 290 336 410
#     4   8  16  42  68  90 132 168 212 288 334 428
#     4  10  23  40  66  95 136 178 225 286 342 406
#     4   9  20  42  67  96 131 168 231 275 350 397
#     4   9  21  43  64  99 134 172 234 270 360 391
#     4  11  26  44  70  99 139 181 237 278 341 399
#     4  10  24  41  63  97 131 184 226 283 336 408
#     4  11  25  42  65 100 135 186 225 285 336 407
#
# _framework density 25.015163000000001
#
# number of rings (size 3 to 8) (size 9 to 14) (size 15 to 20)
#    0.000    2.133    0.000    0.400   11.200    1.600 
#   16.800    0.667    0.000    0.000    0.000    0.000 
#    0.000    0.000    0.000    0.000    0.000    0.000 
#
# Total GULP energy -167529.747327 kJ/mol
# GULP energy per Si atom -5584.324911 kJ/mol
# Density = 2.495823 g / cm^3
# Si number density = 25.015163 Si / 1000 Ang^3
#
#
#
# Elastic Constant Matrix: (Units=GPa)
#
#
# Indices 1 2 3 4 5 6 
#
# 1 77.2698 21.7750 35.9607 0.0000 -17.9467 0.0000
# 2 21.7750 80.4569 30.3930 0.0000 5.2740 0.0000
# 3 35.9607 30.3930 127.8935 0.0000 -10.4435 0.0000
# 4 0.0000 0.0000 0.0000 34.4099 0.0000 0.2398
# 5 -17.9467 5.2740 -10.4435 0.0000 32.0773 0.0000
# 6 0.0000 0.0000 0.0000 0.2398 0.0000 22.8473
#
#
#
# Elastic Compliance Matrix: (Units=1/GPa)
#
#
# Indices 1 2 3 4 5 6 
#
# 1 0.017886 -0.004253 -0.003230 0.000000 0.009655 0.000000
# 2 -0.004253 0.015035 -0.002849 0.000000 -0.005779 0.000000
# 3 -0.003230 -0.002849 0.009549 0.000000 0.001770 0.000000
# 4 0.000000 0.000000 0.000000 0.029064 0.000000 -0.000305
# 5 0.009655 -0.005779 0.001770 0.000000 0.038103 0.000000
# 6 0.000000 0.000000 0.000000 -0.000305 0.000000 0.043772
#
#
# Mechanical properties :
#
#
# Convention : Reuss Voigt Hill
#
# Bulk Modulus (GPa) = 45.86055 51.31972 48.59014
# Shear Modulus (GPa) = 27.57231 31.03299 29.30265
#
# Velocity S-wave (km/s) = 3.32358 3.52599 3.42628
# Velocity P-wave (km/s) = 5.75336 6.09400 5.92613
#
# Compressibility (1/GPa) = 0.02180523
#
# Stress axis : x y z
#
# Youngs Moduli (GPa) = 55.91012 66.51057 104.72551
#
# Poissons Ratio (x) = 0.28290 0.33825
# Poissons Ratio (y) = 0.23781 0.29836
# Poissons Ratio (z) = 0.18058 0.18949
#
# Static dielectric constant tensor:
#      x y z
#    x 1.961140 0.000000 -0.014930 
#    y 0.000000 2.023600 0.000000 
#    z -0.014930 0.000000 1.990580 
# 
# From -- ./inp_files/278958.got.cif
#   From: 2010.05.17/outbox.cif.g08.bks.cpg/sg15_140_cif.got.tgz:278958.got - 2010.06.03 18:47:42.
