data_PCOD9294571
_publ_section_title
;
Structure prediction by ZEFSAII (Michael W. Deem and Ramdas Pophale) SiO2 
 PCOD9294571
Probable space group: C 2/C
;
_chemical_formula_sum "Si O2"
_cell_formula_units_Z 32
_cell_length_a 10.197599
_cell_length_b 28.249843
_cell_length_c 5.632414
_cell_angle_alpha 90.000000
_cell_angle_beta 119.998866
_cell_angle_gamma 90.000000
_cell_volume 1405.219385
_symmetry_space_group_name_H-M "C 2/C"
_symmetry_group_IT_number 15
_symmetry_cell_setting 'monoclinic'
loop_
_space_group_symop_operation_xyz
x,y,z
-x,y,1/2-z
-x,-y,-z
x,-y,1/2+z
1/2+x,1/2+y,z
1/2-x,1/2+y,1/2-z
1/2-x,1/2-y,-z
1/2+x,1/2-y,1/2+z
loop_
_atom_site_type_symbol
_atom_site_label
_atom_site_fract_x
_atom_site_fract_y
_atom_site_fract_z
Si Si1 0.000000 0.817345 0.750000
Si Si2 0.227480 0.706687 0.302664
Si Si3 0.500000 0.170517 0.750000
Si Si4 0.220560 0.872275 0.273362
Si Si5 0.825205 0.017409 0.808668
O O1 0.860242 0.789310 0.730803
O O2 0.926741 0.849543 0.480712
O O3 0.250000 0.750000 0.500000
O O4 0.247979 0.657210 0.460458
O O5 0.069478 0.701988 0.023965
O O6 0.636504 0.139230 0.767983
O O7 0.190731 0.927549 0.270021
O O8 0.759909 0.990921 0.515794
O O9 0.000000 0.000000 0.000000
#
# Coordination Sequence:
#
# PCOD9294571 Si02
#       5
#     4   8   4   8   8
#     4  10  24  41  72 104 140 186 252 294 373 442
#     4  11  26  46  72 106 144 194 246 306 377 452
#     4  10  26  47  70 100 150 190 244 302 385 446
#     4  11  24  43  73 104 147 192 242 311 375 449
#     4  10  23  40  70 107 147 187 251 312 379 442
#
# _framework density 22.772245999999999
#
# number of rings (size 3 to 8) (size 9 to 14) (size 15 to 20)
#    0.000    1.500    0.000    3.000   14.000   10.000 
#    0.000    5.000    0.000    0.000    0.000    0.000 
#    0.000    0.000    0.000    0.000    0.000    0.000 
#
# Total GULP energy -89547.158485 kJ/mol
# GULP energy per Si atom -5596.697405 kJ/mol
# Density = 2.272041 g / cm^3
# Si number density = 22.772246 Si / 1000 Ang^3
#
#
#
# Elastic Constant Matrix: (Units=GPa)
#
#
# Indices 1 2 3 4 5 6 
#
# 1 66.8712 19.2011 4.8859 0.0000 4.8505 0.0000
# 2 19.2011 168.8254 70.2707 0.0000 -0.7252 0.0000
# 3 4.8859 70.2707 175.4068 0.0000 -6.2832 0.0000
# 4 0.0000 0.0000 0.0000 33.0386 0.0000 -4.7895
# 5 4.8505 -0.7252 -6.2832 0.0000 43.2185 0.0000
# 6 0.0000 0.0000 0.0000 -4.7895 0.0000 30.6156
#
#
#
# Elastic Compliance Matrix: (Units=1/GPa)
#
#
# Indices 1 2 3 4 5 6 
#
# 1 0.015605 -0.001891 0.000260 0.000000 -0.001745 0.000000
# 2 -0.001891 0.007341 -0.002891 0.000000 -0.000085 0.000000
# 3 0.000260 -0.002891 0.006885 0.000000 0.000923 0.000000
# 4 0.000000 0.000000 0.000000 0.030970 0.000000 0.004845
# 5 -0.001745 -0.000085 0.000923 0.000000 0.023467 0.000000
# 6 0.000000 0.000000 0.000000 0.004845 0.000000 0.033421
#
#
# Mechanical properties :
#
#
# Convention : Reuss Voigt Hill
#
# Bulk Modulus (GPa) = 48.10566 66.64652 57.37609
# Shear Modulus (GPa) = 37.40780 42.49094 39.94937
#
# Velocity S-wave (km/s) = 4.05741 4.32430 4.19298
# Velocity P-wave (km/s) = 6.56663 7.36633 6.97795
#
# Compressibility (1/GPa) = 0.02078757
#
# Stress axis : x y z
#
# Youngs Moduli (GPa) = 64.08384 136.21256 145.23836
#
# Poissons Ratio (x) = 0.25752 -0.03779
# Poissons Ratio (y) = 0.12115 0.41996
# Poissons Ratio (z) = -0.01668 0.39386
#
# Static dielectric constant tensor:
#      x y z
#    x 1.319370 0.000000 0.084850 
#    y 0.000000 1.809720 0.000000 
#    z 0.084850 0.000000 1.807420 
# 
# From -- ./inp_files/5676.got.cif
#   From: 2010.05.17/outbox.cif.g08.bks.cpg/sg15_3_cif.got.tgz:5676.got - 2010.06.03 18:47:42.
