data_PCOD9294392
_publ_section_title
;
Structure prediction by ZEFSAII (Michael W. Deem and Ramdas Pophale) SiO2 
 PCOD9294392
Probable space group: C 2/C
;
_chemical_formula_sum "Si O2"
_cell_formula_units_Z 32
_cell_length_a 14.964634
_cell_length_b 18.183384
_cell_length_c 5.471399
_cell_angle_alpha 90.000000
_cell_angle_beta 65.963947
_cell_angle_gamma 90.000000
_cell_volume 1359.714050
_symmetry_space_group_name_H-M "C 2/C"
_symmetry_group_IT_number 15
_symmetry_cell_setting 'monoclinic'
loop_
_space_group_symop_operation_xyz
x,y,z
-x,y,1/2-z
-x,-y,-z
x,-y,1/2+z
1/2+x,1/2+y,z
1/2-x,1/2+y,1/2-z
1/2-x,1/2-y,-z
1/2+x,1/2-y,1/2+z
loop_
_atom_site_type_symbol
_atom_site_label
_atom_site_fract_x
_atom_site_fract_y
_atom_site_fract_z
Si Si1 0.163580 0.683800 0.350027
Si Si2 0.626344 0.676027 0.233342
Si Si3 0.000000 0.252798 0.750000
Si Si4 0.000000 0.046215 0.250000
Si Si5 0.389032 0.973977 0.561012
O O1 0.278608 0.669701 0.198551
O O2 0.150830 0.757790 0.521506
O O3 0.118160 0.610358 0.517061
O O4 0.095069 0.697963 0.194340
O O5 0.533241 0.701776 0.492494
O O6 0.595814 0.599051 0.150689
O O7 0.000000 0.000000 0.500000
O O8 0.500000 0.000000 0.500000
O O9 0.343968 0.019099 0.384386
#
# Coordination Sequence:
#
# PCOD9294392 Si02
#       5
#     8   8   4   4   8
#     4  11  25  43  74 106 146 189 255 312 371 448
#     4  11  26  46  71 109 140 196 255 312 368 446
#     4  12  21  44  74 105 144 190 248 314 379 432
#     4  12  27  50  76 105 154 204 248 308 377 450
#     4  10  23  40  64 103 143 185 226 286 372 437
#
# _framework density 23.534361000000001
#
# number of rings (size 3 to 8) (size 9 to 14) (size 15 to 20)
#    0.000    1.000    2.500    3.000   10.500    2.000 
#    0.000    0.000    0.000    0.000    0.000    0.000 
#    0.000    0.000    0.000    0.000    0.000    0.000 
#
# Total GULP energy -89313.992132 kJ/mol
# GULP energy per Si atom -5582.124508 kJ/mol
# Density = 2.348080 g / cm^3
# Si number density = 23.534361 Si / 1000 Ang^3
#
#
#
# Elastic Constant Matrix: (Units=GPa)
#
#
# Indices 1 2 3 4 5 6 
#
# 1 162.3305 51.1190 25.4160 0.0000 7.5700 0.0000
# 2 51.1190 142.2604 27.6777 0.0000 10.6705 0.0000
# 3 25.4160 27.6777 81.6308 0.0000 24.7535 0.0000
# 4 0.0000 0.0000 0.0000 32.9019 0.0000 -1.6879
# 5 7.5700 10.6705 24.7535 0.0000 35.8551 0.0000
# 6 0.0000 0.0000 0.0000 -1.6879 0.0000 -22.0562
#
#
#
# Elastic Compliance Matrix: (Units=1/GPa)
#
#
# Indices 1 2 3 4 5 6 
#
# 1 0.007102 -0.002275 -0.001506 0.000000 0.000217 0.000000
# 2 -0.002275 0.008265 -0.001889 0.000000 -0.000675 0.000000
# 3 -0.001506 -0.001889 0.016559 0.000000 -0.010552 0.000000
# 4 0.000000 0.000000 0.000000 0.030275 0.000000 -0.002317
# 5 0.000217 -0.000675 -0.010552 0.000000 0.035330 0.000000
# 6 0.000000 0.000000 0.000000 -0.002317 0.000000 -0.045161
#
#
# Mechanical properties :
#
#
# Convention : Reuss Voigt Hill
#
# Bulk Modulus (GPa) = 48.57604 66.07188 57.32396
# Shear Modulus (GPa) = 70.84850 28.14076 49.49463
#
# Velocity S-wave (km/s) = 5.49269 3.46169 4.59091
# Velocity P-wave (km/s) = 7.80458 6.64178 7.24654
#
# Compressibility (1/GPa) = 0.02058628
#
# Stress axis : x y z
#
# Youngs Moduli (GPa) = 140.79630 120.98893 60.38859
#
# Poissons Ratio (x) = 0.27531 0.09093
# Poissons Ratio (y) = 0.32038 0.11409
# Poissons Ratio (z) = 0.21200 0.22857
#
# Static dielectric constant tensor:
#      x y z
#    x 1.959660 0.000000 0.037010 
#    y 0.000000 1.961310 0.000000 
#    z 0.037010 0.000000 2.019150 
# 
# From -- ./inp_files/6506.got.cif
#   From: 2010.05.17/outbox.cif.g08.bks.cpg/sg15_4_cif.got.tgz:6506.got - 2010.06.03 18:47:42.
