data_PCOD9294965
_publ_section_title
;
Structure prediction by ZEFSAII (Michael W. Deem and Ramdas Pophale) SiO2 
 PCOD9294965
Probable space group: C 2/C
;
_chemical_formula_sum "Si O2"
_cell_formula_units_Z 36
_cell_length_a 15.855721
_cell_length_b 8.064069
_cell_length_c 28.670550
_cell_angle_alpha 90.000000
_cell_angle_beta 152.997833
_cell_angle_gamma 90.000000
_cell_volume 1664.390603
_symmetry_space_group_name_H-M "C 2/C"
_symmetry_group_IT_number 15
_symmetry_cell_setting 'monoclinic'
loop_
_space_group_symop_operation_xyz
x,y,z
-x,y,1/2-z
-x,-y,-z
x,-y,1/2+z
1/2+x,1/2+y,z
1/2-x,1/2+y,1/2-z
1/2-x,1/2-y,-z
1/2+x,1/2-y,1/2+z
loop_
_atom_site_type_symbol
_atom_site_label
_atom_site_fract_x
_atom_site_fract_y
_atom_site_fract_z
Si Si1 0.166520 0.584663 0.436904
Si Si2 0.202750 0.738016 0.257755
Si Si3 0.216417 0.040472 0.111293
Si Si4 0.519176 0.586809 0.356343
Si Si5 0.500000 0.755810 0.250000
O O1 0.250000 0.750000 0.500000
O O2 0.205974 0.585989 0.401255
O O3 0.289043 0.443636 0.521560
O O4 0.947354 0.603465 0.335300
O O5 0.248378 0.681651 0.333034
O O6 0.388365 0.715274 0.319354
O O7 0.098715 0.914286 0.203743
O O8 0.330432 0.875650 0.181109
O O9 0.000000 0.000000 0.000000
O O10 0.554707 0.648756 0.321678
#
# Coordination Sequence:
#
# PCOD9294965 Si02
#       5
#     8   8   8   8   4
#     4  10  23  41  71  97 134 172 226 271 342 392
#     4  11  23  45  71  96 139 179 223 279 338 399
#     4  12  24  45  70  99 136 179 222 278 338 401
#     4  11  26  44  69 102 133 178 228 277 338 401
#     4  12  28  44  68 104 140 172 228 278 338 400
#
# _framework density 21.629536999999999
#
# number of rings (size 3 to 8) (size 9 to 14) (size 15 to 20)
#    0.000    0.889    4.444    1.333    9.333    2.667 
#    0.000    2.222    0.000    0.000    0.000    0.000 
#    0.000    0.000    0.000    0.000    0.000    0.000 
#
# Total GULP energy -100671.214734 kJ/mol
# GULP energy per Si atom -5592.845263 kJ/mol
# Density = 2.158031 g / cm^3
# Si number density = 21.629537 Si / 1000 Ang^3
#
#
#
# Elastic Constant Matrix: (Units=GPa)
#
#
# Indices 1 2 3 4 5 6 
#
# 1 58.5500 2.4802 -2.9137 0.0000 -22.2472 0.0000
# 2 2.4802 90.7977 5.7881 0.0001 -6.6572 0.0001
# 3 -2.9137 5.7881 93.1204 0.0003 3.2074 0.0000
# 4 0.0000 0.0001 0.0003 32.2798 0.0000 -3.3514
# 5 -22.2472 -6.6572 3.2074 0.0000 52.9481 0.0000
# 6 0.0000 0.0001 0.0000 -3.3514 0.0000 33.6081
#
#
#
# Elastic Compliance Matrix: (Units=1/GPa)
#
#
# Indices 1 2 3 4 5 6 
#
# 1 0.020335 0.000048 0.000339 0.000000 0.008530 0.000000
# 2 0.000048 0.011167 -0.000743 0.000000 0.001469 0.000000
# 3 0.000339 -0.000743 0.010816 0.000000 -0.000606 0.000000
# 4 0.000000 0.000000 0.000000 0.031303 0.000000 0.003122
# 5 0.008530 0.001469 -0.000606 0.000000 0.022692 0.000000
# 6 0.000000 0.000000 0.000000 0.003122 0.000000 0.030066
#
#
# Mechanical properties :
#
#
# Convention : Reuss Voigt Hill
#
# Bulk Modulus (GPa) = 24.03373 28.13080 26.08227
# Shear Modulus (GPa) = 35.47095 39.57477 37.52286
#
# Velocity S-wave (km/s) = 4.05400 4.28210 4.16961
# Velocity P-wave (km/s) = 5.74881 6.12229 5.93849
#
# Compressibility (1/GPa) = 0.04160819
#
# Stress axis : x y z
#
# Youngs Moduli (GPa) = 49.17555 89.54730 92.45156
#
# Poissons Ratio (x) = -0.00432 -0.03139
# Poissons Ratio (y) = -0.00237 0.06871
# Poissons Ratio (z) = -0.01669 0.06655
#
# Static dielectric constant tensor:
#      x y z
#    x 1.630330 0.000000 0.115610 
#    y 0.000000 1.794500 0.000000 
#    z 0.115610 0.000000 1.697890 
# 
# From -- ./inp_files/150122.got.cif
#   From: 2010.05.17/outbox.cif.g08.bks.cpg/sg15_76_cif.got.tgz:150122.got - 2010.06.03 18:47:42.
