data_PCOD9294552
_publ_section_title
;
Structure prediction by ZEFSAII (Michael W. Deem and Ramdas Pophale) SiO2 
 PCOD9294552
Probable space group: C 2/C
;
_chemical_formula_sum "Si O2"
_cell_formula_units_Z 48
_cell_length_a 16.523137
_cell_length_b 10.632343
_cell_length_c 12.108588
_cell_angle_alpha 90.000000
_cell_angle_beta 109.160338
_cell_angle_gamma 90.000000
_cell_volume 2009.392011
_symmetry_space_group_name_H-M "C 2/C"
_symmetry_group_IT_number 15
_symmetry_cell_setting 'monoclinic'
loop_
_space_group_symop_operation_xyz
x,y,z
-x,y,1/2-z
-x,-y,-z
x,-y,1/2+z
1/2+x,1/2+y,z
1/2-x,1/2+y,1/2-z
1/2-x,1/2-y,-z
1/2+x,1/2-y,1/2+z
loop_
_atom_site_type_symbol
_atom_site_label
_atom_site_fract_x
_atom_site_fract_y
_atom_site_fract_z
Si Si1 0.765638 0.949426 0.074630
Si Si2 0.994225 0.352457 0.994892
Si Si3 0.025257 0.870228 0.635540
Si Si4 0.645998 0.428931 0.086699
Si Si5 0.316742 0.164060 0.327445
Si Si6 0.872685 0.292729 0.612850
O O1 0.844803 0.851611 0.118054
O O2 0.745378 0.053969 0.158194
O O3 0.685509 0.858779 0.008243
O O4 0.787740 0.025022 0.974239
O O5 0.041380 0.275739 0.112224
O O6 0.892661 0.339103 0.950511
O O7 0.000000 0.500000 0.000000
O O8 0.033033 0.300506 0.896672
O O9 0.942067 0.895729 0.521029
O O10 0.000000 0.888340 0.750000
O O11 0.105126 0.957767 0.640021
O O12 0.696270 0.315671 0.172089
O O13 0.351551 0.140575 0.219429
#
# Coordination Sequence:
#
# PCOD9294552 Si02
#       6
#     8   8   8   8   8   8
#     4  11  24  46  61 100 138 171 231 280 340 412
#     4  11  22  47  65 100 136 172 234 284 335 415
#     4  10  23  40  69 100 131 183 225 285 344 409
#     4  10  23  42  65  98 137 168 231 281 333 414
#     4  11  25  41  72  98 128 186 225 279 345 415
#     4  11  25  43  70  94 138 184 217 286 352 406
#
# _framework density 23.887822
#
# number of rings (size 3 to 8) (size 9 to 14) (size 15 to 20)
#    0.000    1.333    3.333    1.000    4.667    1.333 
#    0.000    0.000    0.000    0.000    0.000    0.000 
#    0.000    0.000    0.000    0.000    0.000    0.000 
#
# Total GULP energy -133818.708426 kJ/mol
# GULP energy per Si atom -5575.779518 kJ/mol
# Density = 2.383345 g / cm^3
# Si number density = 23.887822 Si / 1000 Ang^3
#
#
#
# Elastic Constant Matrix: (Units=GPa)
#
#
# Indices 1 2 3 4 5 6 
#
# 1 69.4220 31.2978 7.6671 0.0000 -4.1212 0.0000
# 2 31.2978 139.4040 24.5066 0.0000 -1.9977 0.0000
# 3 7.6671 24.5066 73.4778 0.0000 -14.9543 0.0000
# 4 0.0000 0.0000 0.0000 43.5430 0.0000 -29.8759
# 5 -4.1212 -1.9977 -14.9543 0.0000 34.7241 0.0000
# 6 0.0000 0.0000 0.0000 -29.8759 0.0000 39.4189
#
#
#
# Elastic Compliance Matrix: (Units=1/GPa)
#
#
# Indices 1 2 3 4 5 6 
#
# 1 0.016129 -0.003570 -0.000158 0.000000 0.001641 0.000000
# 2 -0.003570 0.008427 -0.002659 0.000000 -0.001084 0.000000
# 3 -0.000158 -0.002659 0.015869 0.000000 0.006662 0.000000
# 4 0.000000 0.000000 0.000000 0.047847 0.000000 0.036264
# 5 0.001641 -0.001084 0.006662 0.000000 0.031800 0.000000
# 6 0.000000 0.000000 0.000000 0.036264 0.000000 0.052853
#
#
# Mechanical properties :
#
#
# Convention : Reuss Voigt Hill
#
# Bulk Modulus (GPa) = 36.16554 45.47187 40.81871
# Shear Modulus (GPa) = 25.65219 38.12601 31.88910
#
# Velocity S-wave (km/s) = 3.28054 3.99939 3.65766
# Velocity P-wave (km/s) = 5.43340 6.35639 5.91293
#
# Compressibility (1/GPa) = 0.02765063
#
# Stress axis : x y z
#
# Youngs Moduli (GPa) = 62.00038 118.67056 63.01711
#
# Poissons Ratio (x) = 0.42363 0.00999
# Poissons Ratio (y) = 0.22133 0.16754
# Poissons Ratio (z) = 0.00983 0.31550
#
# Static dielectric constant tensor:
#      x y z
#    x 1.941620 0.000000 0.026400 
#    y 0.000000 2.306370 0.000000 
#    z 0.026400 0.000000 1.919100 
# 
# From -- ./inp_files/103649.got.cif
#   From: 2010.05.17/outbox.cif.g08.bks.cpg/sg15_52_cif.got.tgz:103649.got - 2010.06.03 18:47:42.
