data_PCOD9294466
_publ_section_title
;
Structure prediction by ZEFSAII (Michael W. Deem and Ramdas Pophale) SiO2 
 PCOD9294466
Probable space group: C 2/C
;
_chemical_formula_sum "Si O2"
_cell_formula_units_Z 48
_cell_length_a 13.069325
_cell_length_b 19.767029
_cell_length_c 12.441004
_cell_angle_alpha 90.000000
_cell_angle_beta 145.760184
_cell_angle_gamma 90.000000
_cell_volume 1808.399936
_symmetry_space_group_name_H-M "C 2/C"
_symmetry_group_IT_number 15
_symmetry_cell_setting 'monoclinic'
loop_
_space_group_symop_operation_xyz
x,y,z
-x,y,1/2-z
-x,-y,-z
x,-y,1/2+z
1/2+x,1/2+y,z
1/2-x,1/2+y,1/2-z
1/2-x,1/2-y,-z
1/2+x,1/2-y,1/2+z
loop_
_atom_site_type_symbol
_atom_site_label
_atom_site_fract_x
_atom_site_fract_y
_atom_site_fract_z
Si Si1 0.090401 0.966553 0.680067
Si Si2 0.000000 0.868941 0.250000
Si Si3 0.000000 0.140397 0.250000
Si Si4 0.288918 0.126823 0.194860
Si Si5 0.608472 0.142497 0.735818
Si Si6 0.689635 0.907452 0.088049
Si Si7 0.216725 0.272637 0.639356
O O1 0.947640 0.918231 0.616797
O O2 0.237618 0.917990 0.754342
O O3 0.000000 0.000000 0.500000
O O4 0.193140 0.024790 0.836950
O O5 0.161564 0.849052 0.307247
O O6 0.853703 0.187153 0.179753
O O7 0.501583 0.108913 0.366137
O O8 0.259166 0.202389 0.216648
O O9 0.151956 0.111551 0.977893
O O10 0.500000 0.122444 0.750000
O O11 0.647481 0.087466 0.678785
O O12 0.777225 0.194430 0.889160
O O13 0.476492 0.196478 0.561394
#
# Coordination Sequence:
#
# PCOD9294466 Si02
#       7
#     8   4   4   8   8   8   8
#     4  11  22  39  68  98 141 186 235 288 358 432
#     4  12  23  44  74  90 138 192 235 298 346 430
#     4  10  23  40  66 104 136 186 237 286 362 420
#     4  10  24  44  67 100 135 184 241 299 349 423
#     4  11  24  40  72 105 142 183 226 300 361 427
#     4  11  25  44  67 105 142 186 239 288 361 426
#     4  10  23  41  69 102 142 176 236 296 360 427
#
# _framework density 26.542801000000001
#
# number of rings (size 3 to 8) (size 9 to 14) (size 15 to 20)
#    0.000    1.333    2.500    2.000    4.667    0.000 
#    0.000    2.500    0.000    0.000    0.000    0.000 
#    0.000    0.000    0.000    0.000    0.000    0.000 
#
# Total GULP energy -133660.409486 kJ/mol
# GULP energy per Si atom -5569.183729 kJ/mol
# Density = 2.648239 g / cm^3
# Si number density = 26.542801 Si / 1000 Ang^3
#
#
#
# Elastic Constant Matrix: (Units=GPa)
#
#
# Indices 1 2 3 4 5 6 
#
# 1 106.7721 40.2303 44.1777 0.0000 -8.0262 0.0000
# 2 40.2303 126.6210 29.4193 0.0000 -9.8401 0.0000
# 3 44.1777 29.4193 156.5501 0.0000 -0.4141 0.0000
# 4 0.0000 0.0000 0.0000 25.9100 0.0000 0.4029
# 5 -8.0262 -9.8401 -0.4141 0.0000 60.3685 0.0000
# 6 0.0000 0.0000 0.0000 0.4029 0.0000 36.0908
#
#
#
# Elastic Compliance Matrix: (Units=1/GPa)
#
#
# Indices 1 2 3 4 5 6 
#
# 1 0.011708 -0.003003 -0.002737 0.000000 0.001048 0.000000
# 2 -0.003003 0.009137 -0.000867 0.000000 0.001084 0.000000
# 3 -0.002737 -0.000867 0.007322 0.000000 -0.000455 0.000000
# 4 0.000000 0.000000 0.000000 0.038602 0.000000 -0.000431
# 5 0.001048 0.001084 -0.000455 0.000000 0.016878 0.000000
# 6 0.000000 0.000000 0.000000 -0.000431 0.000000 0.027713
#
#
# Mechanical properties :
#
#
# Convention : Reuss Voigt Hill
#
# Bulk Modulus (GPa) = 66.87008 68.62200 67.74604
# Shear Modulus (GPa) = 38.59281 42.88158 40.73720
#
# Velocity S-wave (km/s) = 3.81725 4.02377 3.92187
# Velocity P-wave (km/s) = 6.68405 6.89181 6.78873
#
# Compressibility (1/GPa) = 0.01495437
#
# Stress axis : x y z
#
# Youngs Moduli (GPa) = 85.40906 109.44204 136.57822
#
# Poissons Ratio (x) = 0.32861 0.37382
# Poissons Ratio (y) = 0.25645 0.11840
# Poissons Ratio (z) = 0.23377 0.09488
#
# Static dielectric constant tensor:
#      x y z
#    x 2.077170 0.000000 -0.035450 
#    y 0.000000 2.308380 0.000000 
#    z -0.035450 0.000000 2.362720 
# 
# From -- ./inp_files/91006.got.cif
#   From: 2010.05.17/outbox.cif.g08.bks.cpg/sg15_46_cif.got.tgz:91006.got - 2010.06.03 18:47:42.
