data_PCOD9294506
_publ_section_title
;
Structure prediction by ZEFSAII (Michael W. Deem and Ramdas Pophale) SiO2 
 PCOD9294506
Probable space group: C 2/C
;
_chemical_formula_sum "Si O2"
_cell_formula_units_Z 48
_cell_length_a 10.435546
_cell_length_b 23.576457
_cell_length_c 16.040797
_cell_angle_alpha 90.000000
_cell_angle_beta 145.768698
_cell_angle_gamma 90.000000
_cell_volume 2220.083571
_symmetry_space_group_name_H-M "C 2/C"
_symmetry_group_IT_number 15
_symmetry_cell_setting 'monoclinic'
loop_
_space_group_symop_operation_xyz
x,y,z
-x,y,1/2-z
-x,-y,-z
x,-y,1/2+z
1/2+x,1/2+y,z
1/2-x,1/2+y,1/2-z
1/2-x,1/2-y,-z
1/2+x,1/2-y,1/2+z
loop_
_atom_site_type_symbol
_atom_site_label
_atom_site_fract_x
_atom_site_fract_y
_atom_site_fract_z
Si Si1 0.850117 0.609064 0.091937
Si Si2 0.742800 0.030069 0.610203
Si Si3 0.645353 0.858999 0.156310
Si Si4 0.428647 0.672021 0.952251
Si Si5 0.888567 0.714103 0.007000
Si Si6 0.335478 0.689618 0.083220
O O1 0.970605 0.658573 0.101173
O O2 0.000000 0.590350 0.250000
O O3 0.787197 0.558696 0.996454
O O4 0.630204 0.639827 0.012468
O O5 0.743032 0.082333 0.675727
O O6 0.000000 0.002961 0.750000
O O7 0.500000 0.000000 0.500000
O O8 0.705879 0.848766 0.284413
O O9 0.741879 0.810858 0.144357
O O10 0.376241 0.849585 0.003383
O O11 0.443108 0.739066 0.939276
O O12 0.443921 0.662267 0.058412
O O13 0.750000 0.750000 0.000000
O O14 0.500000 0.696282 0.250000
O O15 0.250000 0.750000 0.000000
#
# Coordination Sequence:
#
# PCOD9294506 Si02
#       6
#     8   8   8   8   8   8
#     4  10  23  40  67 106 139 178 239 293 362 437
#     4  11  25  52  80 106 140 186 246 315 382 437
#     4  11  23  42  66  99 139 187 243 291 360 434
#     4  11  22  39  64  94 148 187 241 281 351 433
#     4   9  21  31  60  95 139 185 224 276 343 420
#     4  12  26  39  59  98 151 203 247 288 353 428
#
# _framework density 21.620808
#
# number of rings (size 3 to 8) (size 9 to 14) (size 15 to 20)
#    0.000    1.333    3.333    1.500    9.333    0.667 
#    0.000    2.500    0.000    0.000    0.000    0.000 
#    0.000    0.000    0.000    0.000    0.000    0.000 
#
# Total GULP energy -133894.955346 kJ/mol
# GULP energy per Si atom -5578.956473 kJ/mol
# Density = 2.157160 g / cm^3
# Si number density = 21.620808 Si / 1000 Ang^3
#
#
#
# Elastic Constant Matrix: (Units=GPa)
#
#
# Indices 1 2 3 4 5 6 
#
# 1 145.3403 24.2143 61.3610 0.0001 -10.2422 0.0001
# 2 24.2143 29.9158 28.5964 0.0001 1.9676 0.0000
# 3 61.3610 28.5964 165.3171 0.0001 -16.8533 0.0001
# 4 0.0001 0.0001 0.0001 11.9358 0.0001 5.8674
# 5 -10.2422 1.9676 -16.8533 0.0001 50.5469 0.0001
# 6 0.0001 0.0000 0.0001 5.8674 0.0001 28.3676
#
#
#
# Elastic Compliance Matrix: (Units=1/GPa)
#
#
# Indices 1 2 3 4 5 6 
#
# 1 0.008754 -0.005006 -0.002259 0.000000 0.001215 0.000000
# 2 -0.005006 0.043711 -0.006190 0.000000 -0.004780 0.000000
# 3 -0.002259 -0.006190 0.008216 0.000000 0.002522 0.000000
# 4 0.000000 0.000000 0.000000 0.093264 0.000000 -0.019290
# 5 0.001215 -0.004780 0.002522 0.000000 0.021057 0.000000
# 6 0.000000 0.000000 0.000000 -0.019290 0.000000 0.039241
#
#
# Mechanical properties :
#
#
# Convention : Reuss Voigt Hill
#
# Bulk Modulus (GPa) = 29.61289 63.21296 46.41293
# Shear Modulus (GPa) = 19.80907 33.26348 26.53627
#
# Velocity S-wave (km/s) = 3.03017 3.92662 3.50715
# Velocity P-wave (km/s) = 5.09596 7.06104 6.15740
#
# Compressibility (1/GPa) = 0.03376908
#
# Stress axis : x y z
#
# Youngs Moduli (GPa) = 114.23448 22.87780 121.72035
#
# Poissons Ratio (x) = 0.11452 0.27502
# Poissons Ratio (y) = 0.57183 0.75349
# Poissons Ratio (z) = 0.25810 0.14162
#
# Static dielectric constant tensor:
#      x y z
#    x 1.878200 0.000000 0.043330 
#    y 0.000000 1.781620 0.000000 
#    z 0.043330 0.000000 1.831530 
# 
# From -- ./inp_files/148848.got.cif
#   From: 2010.05.17/outbox.cif.g08.bks.cpg/sg15_75_cif.got.tgz:148848.got - 2010.06.03 18:47:42.
