data_PCOD9294471
_publ_section_title
;
Structure prediction by ZEFSAII (Michael W. Deem and Ramdas Pophale) SiO2 
 PCOD9294471
Probable space group: C 2/C
;
_chemical_formula_sum "Si O2"
_cell_formula_units_Z 56
_cell_length_a 16.926961
_cell_length_b 9.206891
_cell_length_c 24.092333
_cell_angle_alpha 90.000000
_cell_angle_beta 42.254790
_cell_angle_gamma 90.000000
_cell_volume 2524.742474
_symmetry_space_group_name_H-M "C 2/C"
_symmetry_group_IT_number 15
_symmetry_cell_setting 'monoclinic'
loop_
_space_group_symop_operation_xyz
x,y,z
-x,y,1/2-z
-x,-y,-z
x,-y,1/2+z
1/2+x,1/2+y,z
1/2-x,1/2+y,1/2-z
1/2-x,1/2-y,-z
1/2+x,1/2-y,1/2+z
loop_
_atom_site_type_symbol
_atom_site_label
_atom_site_fract_x
_atom_site_fract_y
_atom_site_fract_z
Si Si1 0.634669 0.584572 0.025159
Si Si2 0.529844 0.060264 0.045942
Si Si3 0.790892 0.816902 0.563008
Si Si4 0.361171 0.537823 0.141992
Si Si5 0.131302 0.902276 0.196327
Si Si6 0.237033 0.638338 0.434851
Si Si7 0.172076 0.734137 0.291585
O O1 0.499944 0.555341 0.080319
O O2 0.658249 0.641894 0.074728
O O3 0.705153 0.433824 0.986804
O O4 0.692049 0.698367 0.952495
O O5 0.421029 0.111895 0.139881
O O6 0.604525 0.205042 0.999452
O O7 0.500000 0.000000 0.000000
O O8 0.620949 0.940345 0.020559
O O9 0.822405 0.904282 0.602335
O O10 0.674726 0.722709 0.631181
O O11 0.291876 0.646267 0.219389
O O12 0.325496 0.370147 0.168095
O O13 0.140450 0.821901 0.250883
O O14 0.000000 0.945869 0.250000
O O15 0.217726 0.039370 0.139780
#
# Coordination Sequence:
#
# PCOD9294471 Si02
#       7
#     8   8   8   8   8   8   8
#     4  11  22  43  66  99 133 178 223 271 334 402
#     4  11  24  42  69  94 127 173 228 280 329 403
#     4  10  23  40  66  92 124 177 221 271 334 394
#     4  11  24  41  62  96 134 171 220 280 332 399
#     4  10  23  43  63  94 133 171 221 280 335 403
#     4  10  25  40  69  96 133 178 220 271 338 406
#     4  11  26  40  66  99 128 175 219 275 345 387
#
# _framework density 22.180479999999999
#
# number of rings (size 3 to 8) (size 9 to 14) (size 15 to 20)
#    0.000    1.429    1.429    2.143   12.000    1.143 
#    0.000    0.714    0.000    0.000    0.000    0.000 
#    0.000    0.000    0.000    0.000    0.000    0.000 
#
# Total GULP energy -156388.085988 kJ/mol
# GULP energy per Si atom -5585.288785 kJ/mol
# Density = 2.213000 g / cm^3
# Si number density = 22.180480 Si / 1000 Ang^3
#
#
#
# Elastic Constant Matrix: (Units=GPa)
#
#
# Indices 1 2 3 4 5 6 
#
# 1 51.0422 7.6563 14.2881 0.0000 2.5976 0.0000
# 2 7.6563 107.7870 26.0876 0.0000 -1.0400 0.0001
# 3 14.2881 26.0876 85.1181 0.0000 -3.6626 0.0000
# 4 0.0000 0.0000 0.0000 46.3433 0.0000 7.3508
# 5 2.5976 -1.0400 -3.6626 0.0000 26.0003 0.0000
# 6 0.0000 0.0001 0.0000 7.3508 0.0000 21.0753
#
#
#
# Elastic Compliance Matrix: (Units=1/GPa)
#
#
# Indices 1 2 3 4 5 6 
#
# 1 0.020774 -0.000680 -0.003390 0.000000 -0.002580 0.000000
# 2 -0.000680 0.010043 -0.002962 0.000000 0.000052 0.000000
# 3 -0.003390 -0.002962 0.013315 0.000000 0.002096 0.000000
# 4 0.000000 0.000000 0.000000 0.022842 0.000000 -0.007967
# 5 -0.002580 0.000052 0.002096 0.000000 0.039016 0.000000
# 6 0.000000 0.000000 0.000000 -0.007967 0.000000 0.050228
#
#
# Mechanical properties :
#
#
# Convention : Reuss Voigt Hill
#
# Bulk Modulus (GPa) = 33.25648 37.77902 35.51775
# Shear Modulus (GPa) = 27.73093 31.74481 29.73787
#
# Velocity S-wave (km/s) = 3.53971 3.78723 3.66556
# Velocity P-wave (km/s) = 5.63313 6.01612 5.82777
#
# Compressibility (1/GPa) = 0.03006933
#
# Stress axis : x y z
#
# Youngs Moduli (GPa) = 48.13746 99.57000 75.10168
#
# Poissons Ratio (x) = 0.06772 0.25457
# Poissons Ratio (y) = 0.03274 0.22243
# Poissons Ratio (z) = 0.16317 0.29489
#
# Static dielectric constant tensor:
#      x y z
#    x 1.835490 0.000000 0.070790 
#    y 0.000000 1.816910 0.000000 
#    z 0.070790 0.000000 1.883850 
# 
# From -- ./inp_files/298498.got.cif
#   From: 2010.05.17/outbox.cif.g08.bks.cpg/sg15_150_cif.got.tgz:298498.got - 2010.06.03 18:47:42.
