data_PCOD9294241
_publ_section_title
;
Structure prediction by ZEFSAII (Michael W. Deem and Ramdas Pophale) SiO2 
 PCOD9294241
Probable space group: C 2/C
;
_chemical_formula_sum "Si O2"
_cell_formula_units_Z 40
_cell_length_a 22.720769
_cell_length_b 8.575810
_cell_length_c 22.985888
_cell_angle_alpha 90.000000
_cell_angle_beta 155.414547
_cell_angle_gamma 90.000000
_cell_volume 1863.394960
_symmetry_space_group_name_H-M "C 2/C"
_symmetry_group_IT_number 15
_symmetry_cell_setting 'monoclinic'
loop_
_space_group_symop_operation_xyz
x,y,z
-x,y,1/2-z
-x,-y,-z
x,-y,1/2+z
1/2+x,1/2+y,z
1/2-x,1/2+y,1/2-z
1/2-x,1/2-y,-z
1/2+x,1/2-y,1/2+z
loop_
_atom_site_type_symbol
_atom_site_label
_atom_site_fract_x
_atom_site_fract_y
_atom_site_fract_z
Si Si1 0.859417 0.914895 0.478445
Si Si2 0.835187 0.570659 0.292305
Si Si3 0.607433 0.623136 0.715328
Si Si4 0.855406 0.442362 0.947604
Si Si5 0.877887 0.859716 0.093811
O O1 0.839736 0.731042 0.457859
O O2 0.780654 0.997490 0.354183
O O3 0.816054 0.994570 0.500998
O O4 0.022676 0.969173 0.619399
O O5 0.844127 0.755140 0.288936
O O6 0.816521 0.550460 0.344003
O O7 0.982786 0.493132 0.405904
O O8 0.742563 0.563247 0.872691
O O9 0.486981 0.713544 0.644239
O O10 0.000000 0.908641 0.250000
O O11 0.750000 0.750000 0.000000
#
# Coordination Sequence:
#
# PCOD9294241 Si02
#       5
#     8   8   8   8   8
#     4  10  23  39  65  96 135 175 224 289 325 407
#     4  11  22  38  64  97 139 186 216 269 337 420
#     4  10  23  39  67  92 130 175 229 273 329 420
#     4  11  23  39  62  99 144 176 221 272 343 401
#     4  10  23  45  72  97 121 173 231 289 341 398
#
# _framework density 21.466196
#
# number of rings (size 3 to 8) (size 9 to 14) (size 15 to 20)
#    1.200    0.400    0.000    4.800    2.800    6.400 
#    0.000    1.000    0.000    0.000    0.000    0.000 
#    0.000    0.000    0.000    0.000    0.000    0.000 
#
# Total GULP energy -111432.359239 kJ/mol
# GULP energy per Si atom -5571.617962 kJ/mol
# Density = 2.141734 g / cm^3
# Si number density = 21.466196 Si / 1000 Ang^3
#
#
#
# Elastic Constant Matrix: (Units=GPa)
#
#
# Indices 1 2 3 4 5 6 
#
# 1 49.8091 45.2326 26.5076 0.0000 4.2992 0.0000
# 2 45.2326 105.6399 27.2426 0.0000 3.0675 0.0000
# 3 26.5076 27.2426 93.4829 0.0001 2.9520 0.0000
# 4 0.0000 0.0000 0.0001 33.3461 0.0000 0.5151
# 5 4.2992 3.0675 2.9520 0.0000 43.2691 0.0000
# 6 0.0000 0.0000 0.0000 0.5151 0.0000 25.9422
#
#
#
# Elastic Compliance Matrix: (Units=1/GPa)
#
#
# Indices 1 2 3 4 5 6 
#
# 1 0.036056 -0.013793 -0.006135 0.000000 -0.002186 0.000000
# 2 -0.013793 0.015523 -0.000623 0.000000 0.000312 0.000000
# 3 -0.006135 -0.000623 0.012625 0.000000 -0.000208 0.000000
# 4 0.000000 0.000000 0.000000 0.029998 0.000000 -0.000596
# 5 -0.002186 0.000312 -0.000208 0.000000 0.023320 0.000000
# 6 0.000000 0.000000 0.000000 -0.000596 0.000000 0.038559
#
#
# Mechanical properties :
#
#
# Convention : Reuss Voigt Hill
#
# Bulk Modulus (GPa) = 43.28501 49.65530 46.47015
# Shear Modulus (GPa) = 24.40413 30.50810 27.45612
#
# Velocity S-wave (km/s) = 3.37540 3.77399 3.58025
# Velocity P-wave (km/s) = 5.94972 6.49406 6.22784
#
# Compressibility (1/GPa) = 0.02310269
#
# Stress axis : x y z
#
# Youngs Moduli (GPa) = 27.73476 64.41932 79.20865
#
# Poissons Ratio (x) = 0.88851 0.48598
# Poissons Ratio (y) = 0.38253 0.04932
# Poissons Ratio (z) = 0.17016 0.04011
#
# Static dielectric constant tensor:
#      x y z
#    x 1.849920 0.000000 0.001340 
#    y 0.000000 1.745610 0.000000 
#    z 0.001340 0.000000 1.772260 
# 
# From -- ./inp_files/303137.got.cif
#   From: 2010.05.17/outbox.cif.g08.bks.cpg/sg15_152_cif.got.tgz:303137.got - 2010.06.03 18:47:42.
