data_PCOD9294910
_publ_section_title
;
Structure prediction by ZEFSAII (Michael W. Deem and Ramdas Pophale) SiO2 
 PCOD9294910
Probable space group: C 2/C
;
_chemical_formula_sum "Si O2"
_cell_formula_units_Z 32
_cell_length_a 9.723016
_cell_length_b 27.937341
_cell_length_c 5.382893
_cell_angle_alpha 90.000000
_cell_angle_beta 122.582419
_cell_angle_gamma 90.000000
_cell_volume 1232.061487
_symmetry_space_group_name_H-M "C 2/C"
_symmetry_group_IT_number 15
_symmetry_cell_setting 'monoclinic'
loop_
_space_group_symop_operation_xyz
x,y,z
-x,y,1/2-z
-x,-y,-z
x,-y,1/2+z
1/2+x,1/2+y,z
1/2-x,1/2+y,1/2-z
1/2-x,1/2-y,-z
1/2+x,1/2-y,1/2+z
loop_
_atom_site_type_symbol
_atom_site_label
_atom_site_fract_x
_atom_site_fract_y
_atom_site_fract_z
Si Si1 0.191680 0.615676 0.931344
Si Si2 0.392889 0.307487 0.392622
Si Si3 0.184846 0.983449 0.110886
Si Si4 0.106022 0.298179 0.607637
O O1 0.262471 0.650263 0.786178
O O2 0.296429 0.568032 0.001247
O O3 0.000000 0.601637 0.750000
O O4 0.206050 0.652611 0.175631
O O5 0.500000 0.311023 0.250000
O O6 0.313732 0.254322 0.312144
O O7 0.500000 0.309915 0.750000
O O8 0.259048 0.983151 0.463081
O O9 0.000000 0.000000 0.000000
O O10 0.000000 0.300324 0.750000
O O11 0.000000 0.298510 0.250000
#
# Coordination Sequence:
#
# PCOD9294910 Si02
#       4
#     8   8   8   8
#     4  11  25  43  72 103 138 178 226 288 347 390
#     4  10  23  41  69 100 141 188 228 263 328 415
#     4  10  25  46  70  95 132 172 231 284 337 407
#     4   9  20  40  63 101 142 178 221 272 329 407
#
# _framework density 25.972726999999999
#
# number of rings (size 3 to 8) (size 9 to 14) (size 15 to 20)
#    0.000    2.000    0.000    0.750    7.000    9.000 
#    0.000   15.000    0.000    0.000    0.000    0.000 
#    0.000    0.000    0.000    0.000    0.000    0.000 
#
# Total GULP energy -89257.383613 kJ/mol
# GULP energy per Si atom -5578.586476 kJ/mol
# Density = 2.591361 g / cm^3
# Si number density = 25.972727 Si / 1000 Ang^3
#
#
#
# Elastic Constant Matrix: (Units=GPa)
#
#
# Indices 1 2 3 4 5 6 
#
# 1 150.4444 88.4481 63.9061 0.0000 -48.2364 0.0000
# 2 88.4481 174.7506 3.8672 0.0000 -13.8282 0.0000
# 3 63.9061 3.8672 192.1016 0.0000 -34.2718 0.0000
# 4 0.0000 0.0000 0.0000 1.2956 0.0000 -19.9449
# 5 -48.2364 -13.8282 -34.2718 0.0000 67.2143 0.0000
# 6 0.0000 0.0000 0.0000 -19.9449 0.0000 61.6410
#
#
#
# Elastic Compliance Matrix: (Units=1/GPa)
#
#
# Indices 1 2 3 4 5 6 
#
# 1 0.014197 -0.006546 -0.003315 0.000000 0.007151 0.000000
# 2 -0.006546 0.008838 0.001635 0.000000 -0.002046 0.000000
# 3 -0.003315 0.001635 0.006503 0.000000 0.001273 0.000000
# 4 0.000000 0.000000 0.000000 -0.193878 0.000000 -0.062732
# 5 0.007151 -0.002046 0.001273 0.000000 0.020238 0.000000
# 6 0.000000 0.000000 0.000000 -0.062732 0.000000 -0.004075
#
#
# Mechanical properties :
#
#
# Convention : Reuss Voigt Hill
#
# Bulk Modulus (GPa) = 76.43185 92.19326 84.31255
# Shear Modulus (GPa) = -39.25767 50.10185 5.42209
#
# Velocity S-wave (km/s) = -3.89201 4.39682 1.44642
# Velocity P-wave (km/s) = 3.04870 7.83258 5.94323
#
# Compressibility (1/GPa) = 0.01308355
#
# Stress axis : x y z
#
# Youngs Moduli (GPa) = 70.43911 113.15212 153.78469
#
# Poissons Ratio (x) = 0.74072 0.50983
# Poissons Ratio (y) = 0.46111 -0.25140
# Poissons Ratio (z) = 0.23352 -0.18498
#
# Static dielectric constant tensor:
#      x y z
#    x 2.176650 0.000000 0.153390 
#    y 0.000000 2.052850 0.000000 
#    z 0.153390 0.000000 2.225970 
# 
# From -- ./inp_files/2359.got.cif
#   From: 2010.05.17/outbox.cif.g08.bks.cpg/sg15_2_cif.got.tgz:2359.got - 2010.06.03 18:47:42.
