data_PCOD9294831
_publ_section_title
;
Structure prediction by ZEFSAII (Michael W. Deem and Ramdas Pophale) SiO2 
 PCOD9294831
Probable space group: C 2/C
;
_chemical_formula_sum "Si O2"
_cell_formula_units_Z 52
_cell_length_a 29.924865
_cell_length_b 5.501747
_cell_length_c 14.391582
_cell_angle_alpha 90.000000
_cell_angle_beta 113.010684
_cell_angle_gamma 90.000000
_cell_volume 2180.886430
_symmetry_space_group_name_H-M "C 2/C"
_symmetry_group_IT_number 15
_symmetry_cell_setting 'monoclinic'
loop_
_space_group_symop_operation_xyz
x,y,z
-x,y,1/2-z
-x,-y,-z
x,-y,1/2+z
1/2+x,1/2+y,z
1/2-x,1/2+y,1/2-z
1/2-x,1/2-y,-z
1/2+x,1/2-y,1/2+z
loop_
_atom_site_type_symbol
_atom_site_label
_atom_site_fract_x
_atom_site_fract_y
_atom_site_fract_z
Si Si1 0.753520 0.363592 0.199340
Si Si2 0.144887 0.187087 0.298223
Si Si3 0.952323 0.578550 0.871780
Si Si4 0.403569 0.148295 0.008747
Si Si5 0.849288 0.163161 0.976480
Si Si6 0.418607 0.704280 0.722910
Si Si7 0.500000 0.663845 0.250000
O O1 0.756816 0.640597 0.237908
O O2 0.804829 0.283217 0.198759
O O3 0.706970 0.357675 0.094821
O O4 0.099724 0.320642 0.211566
O O5 0.146936 0.202362 0.410508
O O6 0.131365 0.901099 0.277118
O O7 0.949945 0.639086 0.977819
O O8 0.948772 0.303819 0.834004
O O9 0.993513 0.692363 0.840479
O O10 0.375924 0.407474 0.972913
O O11 0.372995 0.909020 0.954524
O O12 0.412516 0.130141 0.126962
O O13 0.451884 0.494651 0.706182
#
# Coordination Sequence:
#
# PCOD9294831 Si02
#       7
#     8   8   8   8   8   8   4
#     4  12  26  40  63 101 137 178 231 275 325 398
#     4  10  23  41  67  91 136 181 219 283 334 389
#     4  11  22  43  68  96 133 176 222 275 342 397
#     4  11  25  42  73  98 136 179 224 276 328 402
#     4  11  23  45  63 101 134 178 230 272 334 391
#     4  10  23  45  66 100 133 172 227 272 343 402
#     4  10  24  42  68  98 134 174 216 280 338 408
#
# _framework density 23.843516000000001
#
# number of rings (size 3 to 8) (size 9 to 14) (size 15 to 20)
#    0.000    1.231    1.538    3.692    8.615    0.615 
#    0.000    6.923    0.000    0.000    0.000    0.000 
#    0.000    0.000    0.000    0.000    0.000    0.000 
#
# Total GULP energy -145231.365242 kJ/mol
# GULP energy per Si atom -5585.821740 kJ/mol
# Density = 2.378925 g / cm^3
# Si number density = 23.843516 Si / 1000 Ang^3
#
#
#
# Elastic Constant Matrix: (Units=GPa)
#
#
# Indices 1 2 3 4 5 6 
#
# 1 95.3647 32.7427 0.6926 0.0000 -2.9861 0.0000
# 2 32.7427 75.1424 18.0108 0.0000 -7.8305 0.0000
# 3 0.6926 18.0108 86.1029 0.0000 10.4263 0.0000
# 4 0.0000 0.0000 0.0000 59.5441 0.0000 -6.4214
# 5 -2.9861 -7.8305 10.4263 0.0000 31.2478 0.0000
# 6 0.0000 0.0000 0.0000 -6.4214 0.0000 31.6315
#
#
#
# Elastic Compliance Matrix: (Units=1/GPa)
#
#
# Indices 1 2 3 4 5 6 
#
# 1 0.012439 -0.005773 0.001187 0.000000 -0.000654 0.000000
# 2 -0.005773 0.017378 -0.004220 0.000000 0.005211 0.000000
# 3 0.001187 -0.004220 0.013132 0.000000 -0.005326 0.000000
# 4 0.000000 0.000000 0.000000 0.017170 0.000000 0.003486
# 5 -0.000654 0.005211 -0.005326 0.000000 0.035023 0.000000
# 6 0.000000 0.000000 0.000000 0.003486 0.000000 0.032322
#
#
# Mechanical properties :
#
#
# Convention : Reuss Voigt Hill
#
# Bulk Modulus (GPa) = 39.46730 39.94469 39.70599
# Shear Modulus (GPa) = 32.56886 38.16227 35.36557
#
# Velocity S-wave (km/s) = 3.69987 4.00500 3.85546
# Velocity P-wave (km/s) = 5.90260 6.17867 6.04221
#
# Compressibility (1/GPa) = 0.02533743
#
# Stress axis : x y z
#
# Youngs Moduli (GPa) = 80.39230 57.54414 76.14967
#
# Poissons Ratio (x) = 0.33219 -0.09036
# Poissons Ratio (y) = 0.46409 0.32133
# Poissons Ratio (z) = -0.09540 0.24282
#
# Static dielectric constant tensor:
#      x y z
#    x 1.922430 0.000000 0.014180 
#    y 0.000000 2.047950 0.000000 
#    z 0.014180 0.000000 1.927670 
# 
# From -- ./inp_files/180158.got.cif
#   From: 2010.05.17/outbox.cif.g08.bks.cpg/sg15_91_cif.got.tgz:180158.got - 2010.06.03 18:47:42.
