data_PCOD9294311
_publ_section_title
;
Structure prediction by ZEFSAII (Michael W. Deem and Ramdas Pophale) SiO2 
 PCOD9294311
Probable space group: C 2/C
;
_chemical_formula_sum "Si O2"
_cell_formula_units_Z 40
_cell_length_a 10.389420
_cell_length_b 8.613660
_cell_length_c 20.005019
_cell_angle_alpha 90.000000
_cell_angle_beta 106.983856
_cell_angle_gamma 90.000000
_cell_volume 1712.189012
_symmetry_space_group_name_H-M "C 2/C"
_symmetry_group_IT_number 15
_symmetry_cell_setting 'monoclinic'
loop_
_space_group_symop_operation_xyz
x,y,z
-x,y,1/2-z
-x,-y,-z
x,-y,1/2+z
1/2+x,1/2+y,z
1/2-x,1/2+y,1/2-z
1/2-x,1/2-y,-z
1/2+x,1/2-y,1/2+z
loop_
_atom_site_type_symbol
_atom_site_label
_atom_site_fract_x
_atom_site_fract_y
_atom_site_fract_z
Si Si1 0.342113 0.901815 0.015256
Si Si2 0.923483 0.959998 0.058005
Si Si3 0.014100 0.375218 0.600897
Si Si4 0.915884 0.103089 0.302258
Si Si5 0.355695 0.245544 0.261825
O O1 0.439221 0.873851 0.968295
O O2 0.233664 0.031359 0.979949
O O3 0.250000 0.750000 0.000000
O O4 0.421635 0.971371 0.090932
O O5 0.944721 0.792482 0.095133
O O6 0.983294 0.083477 0.120094
O O7 0.000000 0.000000 0.000000
O O8 0.138260 0.359404 0.670001
O O9 0.862653 0.928011 0.278859
O O10 0.000000 0.156740 0.250000
O O11 0.782712 0.203871 0.295835
O O12 0.500000 0.205929 0.250000
#
# Coordination Sequence:
#
# PCOD9294311 Si02
#       5
#     8   8   8   8   8
#     4  11  22  38  60  90 120 156 200 247 305 363
#     4  11  22  39  63  90 121 159 202 250 305 361
#     4  10  23  40  59  88 124 157 199 253 301 360
#     4  10  23  43  62  89 125 160 203 252 305 365
#     4  10  23  40  63  89 119 162 203 248 304 366
#
# _framework density 23.361908
#
# number of rings (size 3 to 8) (size 9 to 14) (size 15 to 20)
#    0.000    1.600    2.000    1.800    2.800    2.400 
#    3.600    0.000    0.000    0.000    0.000    0.000 
#    0.000    0.000    0.000    0.000    0.000    0.000 
#
# Total GULP energy -111567.017797 kJ/mol
# GULP energy per Si atom -5578.350890 kJ/mol
# Density = 2.330874 g / cm^3
# Si number density = 23.361908 Si / 1000 Ang^3
#
#
#
# Elastic Constant Matrix: (Units=GPa)
#
#
# Indices 1 2 3 4 5 6 
#
# 1 43.6475 5.7987 -12.8018 0.0000 13.3539 0.0000
# 2 5.7987 54.0725 -16.5871 0.0000 2.6650 0.0000
# 3 -12.8018 -16.5871 44.6569 0.0000 -0.5372 0.0000
# 4 0.0000 0.0000 0.0000 31.5261 0.0000 12.1984
# 5 13.3539 2.6650 -0.5372 0.0000 30.4562 0.0000
# 6 0.0000 0.0000 0.0000 12.1984 0.0000 31.4660
#
#
#
# Elastic Compliance Matrix: (Units=1/GPa)
#
#
# Indices 1 2 3 4 5 6 
#
# 1 0.029192 0.000015 0.008222 0.000000 -0.012656 0.000000
# 2 0.000015 0.020959 0.007769 0.000000 -0.001704 0.000000
# 3 0.008222 0.007769 0.027590 0.000000 -0.003798 0.000000
# 4 0.000000 0.000000 0.000000 0.037317 0.000000 -0.014467
# 5 -0.012656 -0.001704 -0.003798 0.000000 0.038465 0.000000
# 6 0.000000 0.000000 0.000000 -0.014467 0.000000 0.037389
#
#
# Mechanical properties :
#
#
# Convention : Reuss Voigt Hill
#
# Bulk Modulus (GPa) = 9.11128 10.57739 9.84434
# Shear Modulus (GPa) = 25.57740 29.75414 27.66577
#
# Velocity S-wave (km/s) = 3.31242 3.57265 3.44499
# Velocity P-wave (km/s) = 4.30558 4.64283 4.47738
#
# Compressibility (1/GPa) = 0.10975401
#
# Stress axis : x y z
#
# Youngs Moduli (GPa) = 34.25538 47.71184 36.24518
#
# Poissons Ratio (x) = -0.00073 -0.29801
# Poissons Ratio (y) = -0.00053 -0.28158
# Poissons Ratio (z) = -0.28165 -0.37067
#
# Static dielectric constant tensor:
#      x y z
#    x 1.936290 0.000000 0.035890 
#    y 0.000000 1.970740 0.000000 
#    z 0.035890 0.000000 1.909100 
# 
# From -- ./inp_files/195144.got.cif
#   From: 2010.05.17/outbox.cif.g08.bks.cpg/sg15_98_cif.got.tgz:195144.got - 2010.06.03 18:47:42.
