data_PCOD9294990
_publ_section_title
;
Structure prediction by ZEFSAII (Michael W. Deem and Ramdas Pophale) SiO2 
 PCOD9294990
Probable space group: C 2/C
;
_chemical_formula_sum "Si O2"
_cell_formula_units_Z 56
_cell_length_a 24.560490
_cell_length_b 8.798942
_cell_length_c 14.688709
_cell_angle_alpha 90.000000
_cell_angle_beta 50.118629
_cell_angle_gamma 90.000000
_cell_volume 2435.891854
_symmetry_space_group_name_H-M "C 2/C"
_symmetry_group_IT_number 15
_symmetry_cell_setting 'monoclinic'
loop_
_space_group_symop_operation_xyz
x,y,z
-x,y,1/2-z
-x,-y,-z
x,-y,1/2+z
1/2+x,1/2+y,z
1/2-x,1/2+y,1/2-z
1/2-x,1/2-y,-z
1/2+x,1/2-y,1/2+z
loop_
_atom_site_type_symbol
_atom_site_label
_atom_site_fract_x
_atom_site_fract_y
_atom_site_fract_z
Si Si1 0.402914 0.277152 0.723834
Si Si2 0.270853 0.108227 0.794655
Si Si3 0.274858 0.416765 0.491959
Si Si4 0.418718 0.470764 0.866947
Si Si5 0.080103 0.055811 0.919609
Si Si6 0.044833 0.630854 0.502588
Si Si7 0.304144 0.925475 0.585119
O O1 0.348997 0.153012 0.745544
O O2 0.396647 0.317990 0.836505
O O3 0.385070 0.430974 0.684275
O O4 0.483402 0.221337 0.622930
O O5 0.223407 0.258128 0.858194
O O6 0.243043 0.974408 0.888214
O O7 0.274718 0.048880 0.688485
O O8 0.250000 0.250000 0.500000
O O9 0.360015 0.415329 0.391534
O O10 0.231993 0.530563 0.471372
O O11 0.500000 0.504073 0.750000
O O12 0.405330 0.461913 0.988542
O O13 0.079516 0.236662 0.900917
O O14 0.000000 0.000000 0.000000
O O15 0.110334 0.570684 0.492909
O O16 0.000000 0.500000 0.500000
#
# Coordination Sequence:
#
# PCOD9294990 Si02
#       7
#     8   8   8   8   8   8   8
#     4  11  25  47  73 110 146 193 253 297 377 453
#     4  12  27  48  77 109 149 204 246 301 387 453
#     4  12  30  49  71 112 153 192 255 311 374 454
#     4  12  24  45  78 104 143 197 252 298 373 444
#     4  10  23  41  73 103 146 187 244 305 363 444
#     4  11  23  43  70 107 144 186 248 309 367 431
#     4  12  27  47  77 104 153 199 242 311 381 443
#
# _framework density 22.989526999999999
#
# number of rings (size 3 to 8) (size 9 to 14) (size 15 to 20)
#    0.000    0.571    5.714    2.143    8.000    1.143 
#    0.000    0.000    0.000    3.429    0.000    0.000 
#    0.000    0.000    0.000    0.000    0.000    0.000 
#
# Total GULP energy -156474.799816 kJ/mol
# GULP energy per Si atom -5588.385708 kJ/mol
# Density = 2.293720 g / cm^3
# Si number density = 22.989527 Si / 1000 Ang^3
#
#
#
# Elastic Constant Matrix: (Units=GPa)
#
#
# Indices 1 2 3 4 5 6 
#
# 1 144.4852 17.5831 23.6823 0.0000 -20.6507 0.0000
# 2 17.5831 96.6497 9.5709 0.0000 -5.8288 0.0001
# 3 23.6823 9.5709 59.4627 0.0000 13.0540 0.0000
# 4 0.0000 0.0000 0.0000 36.3326 0.0000 -3.2807
# 5 -20.6507 -5.8288 13.0540 0.0000 49.2173 0.0000
# 6 0.0000 0.0001 0.0000 -3.2807 0.0000 46.4603
#
#
#
# Elastic Compliance Matrix: (Units=1/GPa)
#
#
# Indices 1 2 3 4 5 6 
#
# 1 0.008354 -0.000833 -0.004185 0.000000 0.004516 0.000000
# 2 -0.000833 0.010749 -0.001700 0.000000 0.001374 0.000000
# 3 -0.004185 -0.001700 0.020373 0.000000 -0.007361 0.000000
# 4 0.000000 0.000000 0.000000 0.027700 0.000000 0.001956
# 5 0.004516 0.001374 -0.007361 0.000000 0.024328 0.000000
# 6 0.000000 0.000000 0.000000 0.001956 0.000000 0.021662
#
#
# Mechanical properties :
#
#
# Convention : Reuss Voigt Hill
#
# Bulk Modulus (GPa) = 38.40051 44.69670 41.54861
# Shear Modulus (GPa) = 36.95963 43.05280 40.00621
#
# Velocity S-wave (km/s) = 4.01393 4.33218 4.17609
# Velocity P-wave (km/s) = 6.18239 6.67144 6.43156
#
# Compressibility (1/GPa) = 0.02604132
#
# Stress axis : x y z
#
# Youngs Moduli (GPa) = 119.70487 93.02803 49.08356
#
# Poissons Ratio (x) = 0.07750 0.20539
# Poissons Ratio (y) = 0.09972 0.08345
# Poissons Ratio (z) = 0.50091 0.15816
#
# Static dielectric constant tensor:
#      x y z
#    x 1.933070 0.000000 -0.049820 
#    y 0.000000 1.863640 0.000000 
#    z -0.049820 0.000000 1.901230 
# 
# From -- ./inp_files/172255.got.cif
#   From: 2010.05.17/outbox.cif.g08.bks.cpg/sg15_87_cif.got.tgz:172255.got - 2010.06.03 18:47:42.
