data_PCOD9294476
_publ_section_title
;
Structure prediction by ZEFSAII (Michael W. Deem and Ramdas Pophale) SiO2 
 PCOD9294476
Probable space group: C 2/C
;
_chemical_formula_sum "Si O2"
_cell_formula_units_Z 56
_cell_length_a 21.083458
_cell_length_b 23.164541
_cell_length_c 13.133499
_cell_angle_alpha 90.000000
_cell_angle_beta 154.887139
_cell_angle_gamma 90.000000
_cell_volume 2722.225561
_symmetry_space_group_name_H-M "C 2/C"
_symmetry_group_IT_number 15
_symmetry_cell_setting 'monoclinic'
loop_
_space_group_symop_operation_xyz
x,y,z
-x,y,1/2-z
-x,-y,-z
x,-y,1/2+z
1/2+x,1/2+y,z
1/2-x,1/2+y,1/2-z
1/2-x,1/2-y,-z
1/2+x,1/2-y,1/2+z
loop_
_atom_site_type_symbol
_atom_site_label
_atom_site_fract_x
_atom_site_fract_y
_atom_site_fract_z
Si Si1 0.289113 0.643117 0.320338
Si Si2 0.381284 0.818121 0.724333
Si Si3 0.319186 0.239201 0.490151
Si Si4 0.421998 0.687085 0.823980
Si Si5 0.945801 0.550469 0.557985
Si Si6 0.899669 0.579245 0.924799
Si Si7 0.616582 0.352581 0.010677
O O1 0.211777 0.670035 0.307331
O O2 0.467659 0.647607 0.582190
O O3 0.213378 0.581167 0.193555
O O4 0.242398 0.684281 0.158475
O O5 0.449573 0.754149 0.835511
O O6 0.254175 0.820358 0.453178
O O7 0.500092 0.868942 0.885398
O O8 0.500000 0.234383 0.750000
O O9 0.250000 0.250000 0.500000
O O10 0.284239 0.298094 0.379962
O O11 0.453422 0.669063 0.985754
O O12 0.937218 0.481962 0.529332
O O13 0.056425 0.574608 0.631211
O O14 0.000000 0.564528 0.750000
O O15 0.726655 0.594311 0.686018
O O16 0.500000 0.363179 0.750000
#
# Coordination Sequence:
#
# PCOD9294476 Si02
#       7
#     8   8   8   8   8   8   8
#     4  11  21  40  62  93 130 165 218 270 314 390
#     4  10  23  40  66  93 132 172 211 257 326 395
#     4  11  23  35  61  96 134 170 204 264 338 400
#     4  11  23  40  62 101 130 171 206 260 332 400
#     4  10  24  42  68  92 118 174 226 268 318 375
#     4  10  24  45  64  92 128 166 221 271 313 388
#     4  11  24  39  63  97 131 163 207 266 332 388
#
# _framework density 20.571404999999999
#
# number of rings (size 3 to 8) (size 9 to 14) (size 15 to 20)
#    0.000    1.429    1.429    3.429   10.000    0.000 
#    0.000    5.000    0.000    0.000    0.000    0.000 
#    0.000    0.000    0.000    0.000    0.000    0.000 
#
# Total GULP energy -156466.029250 kJ/mol
# GULP energy per Si atom -5588.072473 kJ/mol
# Density = 2.052458 g / cm^3
# Si number density = 20.571405 Si / 1000 Ang^3
#
#
#
# Elastic Constant Matrix: (Units=GPa)
#
#
# Indices 1 2 3 4 5 6 
#
# 1 79.3911 1.8293 10.8390 0.0000 -5.8966 0.0000
# 2 1.8293 69.1891 14.7742 0.0000 5.7070 0.0000
# 3 10.8390 14.7742 78.9108 0.0000 0.8440 0.0000
# 4 0.0000 0.0000 0.0000 15.2145 0.0000 5.9173
# 5 -5.8966 5.7070 0.8440 0.0000 31.5606 0.0000
# 6 0.0000 0.0000 0.0000 5.9173 0.0000 15.9135
#
#
#
# Elastic Compliance Matrix: (Units=1/GPa)
#
#
# Indices 1 2 3 4 5 6 
#
# 1 0.013030 -0.000171 -0.001785 0.000000 0.002513 0.000000
# 2 -0.000171 0.015282 -0.002809 0.000000 -0.002720 0.000000
# 3 -0.001785 -0.002809 0.013446 0.000000 -0.000185 0.000000
# 4 0.000000 0.000000 0.000000 0.076840 0.000000 -0.028572
# 5 0.002513 -0.002720 -0.000185 0.000000 0.032651 0.000000
# 6 0.000000 0.000000 0.000000 -0.028572 0.000000 0.073464
#
#
# Mechanical properties :
#
#
# Convention : Reuss Voigt Hill
#
# Bulk Modulus (GPa) = 31.02764 31.37513 31.20138
# Shear Modulus (GPa) = 20.40955 25.87428 23.14191
#
# Velocity S-wave (km/s) = 3.15323 3.55037 3.35767
# Velocity P-wave (km/s) = 5.32661 5.66496 5.49839
#
# Compressibility (1/GPa) = 0.03222933
#
# Stress axis : x y z
#
# Youngs Moduli (GPa) = 76.74533 65.43751 74.37426
#
# Poissons Ratio (x) = 0.01117 0.13274
# Poissons Ratio (y) = 0.01310 0.20889
# Poissons Ratio (z) = 0.13697 0.18379
#
# Static dielectric constant tensor:
#      x y z
#    x 1.775010 0.000000 0.004890 
#    y 0.000000 1.706880 0.000000 
#    z 0.004890 0.000000 1.808280 
# 
# From -- ./inp_files/114756.got.cif
#   From: 2010.05.17/outbox.cif.g08.bks.cpg/sg15_58_cif.got.tgz:114756.got - 2010.06.03 18:47:42.
