data_PCOD9294143
_publ_section_title
;
Structure prediction by ZEFSAII (Michael W. Deem and Ramdas Pophale) SiO2 
 PCOD9294143
Probable space group: C 2/C
;
_chemical_formula_sum "Si O2"
_cell_formula_units_Z 48
_cell_length_a 13.278917
_cell_length_b 7.468833
_cell_length_c 23.138023
_cell_angle_alpha 90.000000
_cell_angle_beta 68.318001
_cell_angle_gamma 90.000000
_cell_volume 2132.424246
_symmetry_space_group_name_H-M "C 2/C"
_symmetry_group_IT_number 15
_symmetry_cell_setting 'monoclinic'
loop_
_space_group_symop_operation_xyz
x,y,z
-x,y,1/2-z
-x,-y,-z
x,-y,1/2+z
1/2+x,1/2+y,z
1/2-x,1/2+y,1/2-z
1/2-x,1/2-y,-z
1/2+x,1/2-y,1/2+z
loop_
_atom_site_type_symbol
_atom_site_label
_atom_site_fract_x
_atom_site_fract_y
_atom_site_fract_z
Si Si1 0.392102 0.836460 0.874686
Si Si2 0.874383 0.200307 0.994101
Si Si3 0.729809 0.638336 0.947671
Si Si4 0.666167 0.777081 0.374693
Si Si5 0.210549 0.885365 0.326834
Si Si6 0.614178 0.942554 0.785750
O O1 0.438729 0.738282 0.922177
O O2 0.294778 0.724956 0.865164
O O3 0.333581 0.013627 0.911789
O O4 0.489160 0.890059 0.813311
O O5 0.750000 0.250000 0.000000
O O6 0.893939 0.300058 0.050494
O O7 0.867440 0.994592 0.014224
O O8 0.710291 0.718147 0.888451
O O9 0.750000 0.750000 0.000000
O O10 0.649448 0.574834 0.352538
O O11 0.633187 0.924090 0.335977
O O12 0.326485 0.955689 0.279074
O O13 0.170810 0.747733 0.287271
#
# Coordination Sequence:
#
# PCOD9294143 Si02
#       6
#     8   8   8   8   8   8
#     4   9  21  38  64  91 120 167 211 256 325 392
#     4   7  15  34  55  84 121 153 198 255 315 362
#     4   9  19  38  62  89 127 160 207 268 322 374
#     4   9  20  41  60  86 132 159 203 272 310 383
#     4  10  23  39  61  88 126 172 203 271 323 376
#     4  12  22  41  65  88 129 167 215 258 334 380
#
# _framework density 22.509592000000001
#
# number of rings (size 3 to 8) (size 9 to 14) (size 15 to 20)
#    0.000    3.333    1.667    0.000    7.000    3.333 
#    3.000    1.667    7.333    0.000    0.000    0.000 
#    0.000    0.000    0.000    0.000    0.000    0.000 
#
# Total GULP energy -133677.488459 kJ/mol
# GULP energy per Si atom -5569.895352 kJ/mol
# Density = 2.245836 g / cm^3
# Si number density = 22.509592 Si / 1000 Ang^3
#
#
#
# Elastic Constant Matrix: (Units=GPa)
#
#
# Indices 1 2 3 4 5 6 
#
# 1 57.7485 14.8414 20.9138 0.0000 -8.8871 0.0000
# 2 14.8414 38.4852 27.7504 0.0000 2.9687 0.0000
# 3 20.9138 27.7504 132.0295 0.0000 12.3920 0.0000
# 4 0.0000 0.0000 0.0000 34.2580 0.0000 5.0938
# 5 -8.8871 2.9687 12.3920 0.0000 26.5540 0.0000
# 6 0.0000 0.0000 0.0000 5.0938 0.0000 20.8217
#
#
#
# Elastic Compliance Matrix: (Units=1/GPa)
#
#
# Indices 1 2 3 4 5 6 
#
# 1 0.021572 -0.007005 -0.002819 0.000000 0.009319 0.000000
# 2 -0.007005 0.032905 -0.005481 0.000000 -0.003465 0.000000
# 3 -0.002819 -0.005481 0.009625 0.000000 -0.004823 0.000000
# 4 0.000000 0.000000 0.000000 0.030292 0.000000 -0.007411
# 5 0.009319 -0.003465 -0.004823 0.000000 0.043416 0.000000
# 6 0.000000 0.000000 0.000000 -0.007411 0.000000 0.049840
#
#
# Mechanical properties :
#
#
# Convention : Reuss Voigt Hill
#
# Bulk Modulus (GPa) = 29.85848 39.47494 34.66671
# Shear Modulus (GPa) = 21.79365 27.31057 24.55211
#
# Velocity S-wave (km/s) = 3.11496 3.48700 3.30622
# Velocity P-wave (km/s) = 5.12161 5.81268 5.47805
#
# Compressibility (1/GPa) = 0.03349132
#
# Stress axis : x y z
#
# Youngs Moduli (GPa) = 46.35677 30.39049 103.89207
#
# Poissons Ratio (x) = 0.21288 0.29291
# Poissons Ratio (y) = 0.32472 0.56946
# Poissons Ratio (z) = 0.13070 0.16658
#
# Static dielectric constant tensor:
#      x y z
#    x 1.946190 0.000000 0.035810 
#    y 0.000000 1.857060 0.000000 
#    z 0.035810 0.000000 1.952910 
# 
# From -- ./inp_files/272260.got.cif
#   From: 2010.05.17/outbox.cif.g08.bks.cpg/sg15_137_cif.got.tgz:272260.got - 2010.06.03 18:47:42.
