data_PCOD9294324
_publ_section_title
;
Structure prediction by ZEFSAII (Michael W. Deem and Ramdas Pophale) SiO2 
 PCOD9294324
Probable space group: C 2/C
;
_chemical_formula_sum "Si O2"
_cell_formula_units_Z 56
_cell_length_a 19.830982
_cell_length_b 12.006074
_cell_length_c 25.410345
_cell_angle_alpha 90.000000
_cell_angle_beta 153.070546
_cell_angle_gamma 90.000000
_cell_volume 2740.005895
_symmetry_space_group_name_H-M "C 2/C"
_symmetry_group_IT_number 15
_symmetry_cell_setting 'monoclinic'
loop_
_space_group_symop_operation_xyz
x,y,z
-x,y,1/2-z
-x,-y,-z
x,-y,1/2+z
1/2+x,1/2+y,z
1/2-x,1/2+y,1/2-z
1/2-x,1/2-y,-z
1/2+x,1/2-y,1/2+z
loop_
_atom_site_type_symbol
_atom_site_label
_atom_site_fract_x
_atom_site_fract_y
_atom_site_fract_z
Si Si1 0.832314 0.391743 0.619101
Si Si2 0.248946 0.137134 0.946809
Si Si3 0.459869 0.776690 0.903994
Si Si4 0.137542 0.830897 0.703635
Si Si5 0.760719 0.481398 0.865971
Si Si6 0.434810 0.871174 0.411793
Si Si7 0.541409 0.470534 0.469371
O O1 0.831406 0.256400 0.613860
O O2 0.761020 0.419196 0.512182
O O3 0.713981 0.439745 0.578712
O O4 0.000000 0.427201 0.750000
O O5 0.418698 0.170375 0.049585
O O6 0.186775 0.056065 0.858695
O O7 0.298687 0.832309 0.786170
O O8 0.459611 0.644372 0.896328
O O9 0.517762 0.797109 0.004164
O O10 0.088962 0.707041 0.654641
O O11 0.178527 0.869781 0.790879
O O12 0.017822 0.921713 0.602569
O O13 0.800477 0.554957 0.841760
O O14 0.924566 0.449397 0.000566
O O15 0.500000 0.500000 0.500000
#
# Coordination Sequence:
#
# PCOD9294324 Si02
#       7
#     8   8   8   8   8   8   8
#     4  10  23  40  60  92 129 167 203 257 333 378
#     4   9  20  38  60  87 125 159 210 258 311 404
#     4   9  19  33  55  86 122 159 196 257 319 360
#     4  11  20  32  57  86 125 160 203 257 311 365
#     4   9  19  34  55  84 119 168 200 249 318 366
#     4   9  17  33  48  83 123 151 205 245 298 377
#     4  11  22  37  58  95 125 156 212 263 306 382
#
# _framework density 20.437913000000002
#
# number of rings (size 3 to 8) (size 9 to 14) (size 15 to 20)
#    0.000    2.286    1.429    1.714    2.000    3.429 
#    0.000    0.000    0.000    0.857    3.714    0.000 
#    0.000    0.000    0.000    0.000    0.000    0.000 
#
# Total GULP energy -156007.488838 kJ/mol
# GULP energy per Si atom -5571.696030 kJ/mol
# Density = 2.039140 g / cm^3
# Si number density = 20.437913 Si / 1000 Ang^3
#
#
#
# Elastic Constant Matrix: (Units=GPa)
#
#
# Indices 1 2 3 4 5 6 
#
# 1 66.9889 24.0068 22.7731 -0.0001 -1.4279 0.0001
# 2 24.0068 87.8132 22.9428 -0.0004 -7.1509 0.0000
# 3 22.7731 22.9428 73.7941 -0.0007 14.3535 0.0001
# 4 -0.0001 -0.0004 -0.0007 35.2377 0.0000 -8.4514
# 5 -1.4279 -7.1509 14.3535 0.0000 20.5312 0.0001
# 6 0.0001 0.0000 0.0001 -8.4514 0.0001 33.0418
#
#
#
# Elastic Compliance Matrix: (Units=1/GPa)
#
#
# Indices 1 2 3 4 5 6 
#
# 1 0.017959 -0.003217 -0.005286 0.000000 0.003824 0.000000
# 2 -0.003217 0.014261 -0.005050 0.000000 0.008274 0.000000
# 3 -0.005286 -0.005050 0.019868 0.000000 -0.016016 0.000000
# 4 0.000000 0.000000 0.000000 0.030233 0.000000 0.007733
# 5 0.003824 0.008274 -0.016016 0.000000 0.063051 0.000000
# 6 0.000000 0.000000 0.000000 0.007733 0.000000 0.032243
#
#
# Mechanical properties :
#
#
# Convention : Reuss Voigt Hill
#
# Bulk Modulus (GPa) = 40.03005 40.89353 40.46179
# Shear Modulus (GPa) = 23.46887 28.35369 25.91128
#
# Velocity S-wave (km/s) = 3.39233 3.72870 3.56449
# Velocity P-wave (km/s) = 5.91376 6.21206 6.06475
#
# Compressibility (1/GPa) = 0.02498123
#
# Stress axis : x y z
#
# Youngs Moduli (GPa) = 55.68158 70.12346 50.33283
#
# Poissons Ratio (x) = 0.22562 0.26604
# Poissons Ratio (y) = 0.17915 0.25418
# Poissons Ratio (z) = 0.29432 0.35413
#
# Static dielectric constant tensor:
#      x y z
#    x 1.747450 0.000000 -0.014880 
#    y 0.000000 1.749670 0.000000 
#    z -0.014880 0.000000 1.779580 
# 
# From -- ./inp_files/300748.got.cif
#   From: 2010.05.17/outbox.cif.g08.bks.cpg/sg15_151_cif.got.tgz:300748.got - 2010.06.03 18:47:42.
