data_PCOD9294981
_publ_section_title
;
Structure prediction by ZEFSAII (Michael W. Deem and Ramdas Pophale) SiO2 
 PCOD9294981
Probable space group: C 2/C
;
_chemical_formula_sum "Si O2"
_cell_formula_units_Z 56
_cell_length_a 22.798055
_cell_length_b 8.863934
_cell_length_c 14.607945
_cell_angle_alpha 90.000000
_cell_angle_beta 66.605457
_cell_angle_gamma 90.000000
_cell_volume 2709.305104
_symmetry_space_group_name_H-M "C 2/C"
_symmetry_group_IT_number 15
_symmetry_cell_setting 'monoclinic'
loop_
_space_group_symop_operation_xyz
x,y,z
-x,y,1/2-z
-x,-y,-z
x,-y,1/2+z
1/2+x,1/2+y,z
1/2-x,1/2+y,1/2-z
1/2-x,1/2-y,-z
1/2+x,1/2-y,1/2+z
loop_
_atom_site_type_symbol
_atom_site_label
_atom_site_fract_x
_atom_site_fract_y
_atom_site_fract_z
Si Si1 0.815048 0.839750 0.432590
Si Si2 0.558100 0.036653 0.843483
Si Si3 0.087485 0.420342 0.109178
Si Si4 0.661416 0.191649 0.269141
Si Si5 0.187784 0.807720 0.590659
Si Si6 0.860464 0.670476 0.554059
Si Si7 0.232600 0.621996 0.732406
O O1 0.750000 0.750000 0.500000
O O2 0.847012 0.760153 0.325730
O O3 0.858720 0.820567 0.495726
O O4 0.808302 0.013709 0.412771
O O5 0.482302 0.054467 0.891172
O O6 0.577929 0.052337 0.724177
O O7 0.587521 0.153541 0.898130
O O8 0.595932 0.882187 0.846396
O O9 0.124067 0.261008 0.084226
O O10 0.130994 0.538665 0.026680
O O11 0.694812 0.319842 0.310364
O O12 0.711985 0.050818 0.227853
O O13 0.250000 0.750000 0.500000
O O14 0.195689 0.731059 0.685246
O O15 0.794580 0.650408 0.649483
#
# Coordination Sequence:
#
# PCOD9294981 Si02
#       7
#     8   8   8   8   8   8   8
#     4  12  23  40  63  96 139 174 223 296 350 408
#     4  10  23  41  72  94 138 187 235 281 341 424
#     4  11  22  45  70  98 136 187 242 280 345 422
#     4  11  21  40  63  99 134 181 224 281 356 406
#     4  12  26  42  65  99 134 184 228 292 357 406
#     4  11  21  41  66  99 134 175 230 288 346 411
#     4  11  23  38  64  98 138 171 225 285 344 418
#
# _framework density 20.669505999999998
#
# number of rings (size 3 to 8) (size 9 to 14) (size 15 to 20)
#    0.000    0.857    5.714    3.000    6.000    0.000 
#    0.000    0.714    6.286    0.000    0.000    0.000 
#    0.000    0.000    0.000    0.000    0.000    0.000 
#
# Total GULP energy -156198.114671 kJ/mol
# GULP energy per Si atom -5578.504095 kJ/mol
# Density = 2.062246 g / cm^3
# Si number density = 20.669506 Si / 1000 Ang^3
#
#
#
# Elastic Constant Matrix: (Units=GPa)
#
#
# Indices 1 2 3 4 5 6 
#
# 1 108.2883 25.1761 23.7010 0.0000 -3.6368 0.0000
# 2 25.1761 106.8173 38.6960 0.0000 -3.7006 0.0000
# 3 23.7010 38.6960 82.8963 0.0000 5.2978 0.0000
# 4 0.0000 0.0000 0.0000 22.8554 0.0000 0.3856
# 5 -3.6368 -3.7006 5.2978 0.0000 36.7195 0.0000
# 6 0.0000 0.0000 0.0000 0.3856 0.0000 23.2342
#
#
#
# Elastic Compliance Matrix: (Units=1/GPa)
#
#
# Indices 1 2 3 4 5 6 
#
# 1 0.010123 -0.001528 -0.002256 0.000000 0.001174 0.000000
# 2 -0.001528 0.011632 -0.005105 0.000000 0.001758 0.000000
# 3 -0.002256 -0.005105 0.015280 0.000000 -0.002942 0.000000
# 4 0.000000 0.000000 0.000000 0.043766 0.000000 -0.000726
# 5 0.001174 0.001758 -0.002942 0.000000 0.027951 0.000000
# 6 0.000000 0.000000 0.000000 -0.000726 0.000000 0.043052
#
#
# Mechanical properties :
#
#
# Convention : Reuss Voigt Hill
#
# Bulk Modulus (GPa) = 51.93186 52.57200 52.25193
# Shear Modulus (GPa) = 28.40882 30.59040 29.49961
#
# Velocity S-wave (km/s) = 3.71135 3.85122 3.78193
# Velocity P-wave (km/s) = 6.59886 6.72798 6.66373
#
# Compressibility (1/GPa) = 0.01925600
#
# Stress axis : x y z
#
# Youngs Moduli (GPa) = 98.78432 85.96750 65.44690
#
# Poissons Ratio (x) = 0.13135 0.14765
# Poissons Ratio (y) = 0.15094 0.33413
# Poissons Ratio (z) = 0.22287 0.43890
#
# Static dielectric constant tensor:
#      x y z
#    x 1.849130 0.000000 0.042540 
#    y 0.000000 1.927990 0.000000 
#    z 0.042540 0.000000 1.799360 
# 
# From -- ./inp_files/172263.got.cif
#   From: 2010.05.17/outbox.cif.g08.bks.cpg/sg15_87_cif.got.tgz:172263.got - 2010.06.03 18:47:42.
