data_PCOD9294121
_publ_section_title
;
Structure prediction by ZEFSAII (Michael W. Deem and Ramdas Pophale) SiO2 
 PCOD9294121
Probable space group: C 2/C
;
_chemical_formula_sum "Si O2"
_cell_formula_units_Z 32
_cell_length_a 13.376528
_cell_length_b 22.205838
_cell_length_c 5.185249
_cell_angle_alpha 90.000000
_cell_angle_beta 107.048153
_cell_angle_gamma 90.000000
_cell_volume 1472.532012
_symmetry_space_group_name_H-M "C 2/C"
_symmetry_group_IT_number 15
_symmetry_cell_setting 'monoclinic'
loop_
_space_group_symop_operation_xyz
x,y,z
-x,y,1/2-z
-x,-y,-z
x,-y,1/2+z
1/2+x,1/2+y,z
1/2-x,1/2+y,1/2-z
1/2-x,1/2-y,-z
1/2+x,1/2-y,1/2+z
loop_
_atom_site_type_symbol
_atom_site_label
_atom_site_fract_x
_atom_site_fract_y
_atom_site_fract_z
Si Si1 0.884274 0.205505 0.703705
Si Si2 0.881659 0.975452 0.877695
Si Si3 0.566789 0.159466 0.062829
Si Si4 0.799612 0.148768 0.150367
O O1 0.904554 0.272567 0.823254
O O2 0.828372 0.199755 0.385073
O O3 0.000000 0.178212 0.750000
O O4 0.822249 0.171277 0.880450
O O5 0.872119 0.907935 0.772600
O O6 0.831528 0.016897 0.619397
O O7 0.000000 0.000000 0.000000
O O8 0.500000 0.133060 0.250000
O O9 0.679332 0.130406 0.095688
O O10 0.500000 0.161717 0.750000
#
# Coordination Sequence:
#
# PCOD9294121 Si02
#       4
#     8   8   8   8
#     4  11  23  36  60  96 128 161 209 249 315 390
#     4  10  23  39  58  88 125 152 204 258 311 377
#     4  11  23  42  60  91 127 164 218 261 290 373
#     4  12  23  39  66  86 127 177 199 254 330 362
#
# _framework density 21.731275
#
# number of rings (size 3 to 8) (size 9 to 14) (size 15 to 20)
#    0.000    1.000    0.000    8.250   10.500    0.000 
#    0.000    0.000    0.000    4.500    0.000    0.000 
#    0.000    0.000    0.000    0.000    0.000    0.000 
#
# Total GULP energy -89413.916287 kJ/mol
# GULP energy per Si atom -5588.369768 kJ/mol
# Density = 2.168181 g / cm^3
# Si number density = 21.731275 Si / 1000 Ang^3
#
#
#
# Elastic Constant Matrix: (Units=GPa)
#
#
# Indices 1 2 3 4 5 6 
#
# 1 153.8704 1.1736 33.4545 0.0000 -2.6072 0.0000
# 2 1.1736 45.2712 -5.8786 0.0000 2.2519 0.0000
# 3 33.4545 -5.8786 88.3247 0.0000 -14.0701 0.0000
# 4 0.0000 0.0000 0.0000 11.1710 0.0000 3.5982
# 5 -2.6072 2.2519 -14.0701 0.0000 44.4770 0.0000
# 6 0.0000 0.0000 0.0000 3.5982 0.0000 13.8759
#
#
#
# Elastic Compliance Matrix: (Units=1/GPa)
#
#
# Indices 1 2 3 4 5 6 
#
# 1 0.007103 -0.000525 -0.002796 0.000000 -0.000441 0.000000
# 2 -0.000525 0.022341 0.001580 0.000000 -0.000662 0.000000
# 3 -0.002796 0.001580 0.013108 0.000000 0.003903 0.000000
# 4 0.000000 0.000000 0.000000 0.097676 0.000000 -0.025328
# 5 -0.000441 -0.000662 0.003903 0.000000 0.023726 0.000000
# 6 0.000000 0.000000 0.000000 -0.025328 0.000000 0.078635
#
#
# Mechanical properties :
#
#
# Convention : Reuss Voigt Hill
#
# Bulk Modulus (GPa) = 25.59463 38.32947 31.96205
# Shear Modulus (GPa) = 19.29803 31.15256 25.22529
#
# Velocity S-wave (km/s) = 2.98322 3.79031 3.41072
# Velocity P-wave (km/s) = 4.86513 6.06890 5.50004
#
# Compressibility (1/GPa) = 0.03907069
#
# Stress axis : x y z
#
# Youngs Moduli (GPa) = 140.77837 44.76105 76.29104
#
# Poissons Ratio (x) = 0.02351 0.21329
# Poissons Ratio (y) = 0.07394 -0.12057
# Poissons Ratio (z) = 0.39359 -0.07074
#
# Static dielectric constant tensor:
#      x y z
#    x 1.811480 0.000000 0.003080 
#    y 0.000000 1.811470 0.000000 
#    z 0.003080 0.000000 1.803010 
# 
# From -- ./inp_files/3972.got.cif
#   From: 2010.05.17/outbox.cif.g08.bks.cpg/sg15_2_cif.got.tgz:3972.got - 2010.06.03 18:47:42.
