data_PCOD9294077
_publ_section_title
;
Structure prediction by ZEFSAII (Michael W. Deem and Ramdas Pophale) SiO2 
 PCOD9294077
Probable space group: C 2/C
;
_chemical_formula_sum "Si O2"
_cell_formula_units_Z 60
_cell_length_a 13.647591
_cell_length_b 10.281624
_cell_length_c 16.858159
_cell_angle_alpha 90.000000
_cell_angle_beta 67.511918
_cell_angle_gamma 90.000000
_cell_volume 2185.649992
_symmetry_space_group_name_H-M "C 2/C"
_symmetry_group_IT_number 15
_symmetry_cell_setting 'monoclinic'
loop_
_space_group_symop_operation_xyz
x,y,z
-x,y,1/2-z
-x,-y,-z
x,-y,1/2+z
1/2+x,1/2+y,z
1/2-x,1/2+y,1/2-z
1/2-x,1/2-y,-z
1/2+x,1/2-y,1/2+z
loop_
_atom_site_type_symbol
_atom_site_label
_atom_site_fract_x
_atom_site_fract_y
_atom_site_fract_z
Si Si1 0.074991 0.737038 0.663607
Si Si2 0.659977 0.965974 0.913897
Si Si3 0.241553 0.457471 0.046409
Si Si4 0.361143 0.773416 0.918957
Si Si5 0.526270 0.792795 0.460488
Si Si6 0.000000 0.871508 0.250000
Si Si7 0.267504 0.703306 0.262721
Si Si8 0.651922 0.532790 0.836971
O O1 0.176224 0.667408 0.593824
O O2 0.132543 0.825362 0.710006
O O3 0.000000 0.658114 0.750000
O O4 0.009383 0.781258 0.607213
O O5 0.674837 0.879098 0.832821
O O6 0.623542 0.111522 0.907067
O O7 0.756533 0.967089 0.947335
O O8 0.568478 0.892154 0.990265
O O9 0.155720 0.572699 0.089812
O O10 0.346764 0.448756 0.067908
O O11 0.406537 0.710651 0.824296
O O12 0.250000 0.750000 0.000000
O O13 0.442681 0.735256 0.964434
O O14 0.054929 0.945363 0.307160
O O15 0.298186 0.613064 0.179952
O O16 0.233524 0.853730 0.278833
#
# Coordination Sequence:
#
# PCOD9294077 Si02
#       8
#     8   8   8   8   8   4   8   8
#     4  10  23  38  66 104 139 186 245 313 364 440
#     4   9  19  39  68  98 131 175 244 308 359 434
#     4   9  22  42  68 102 136 189 252 302 369 438
#     4  11  25  45  71 107 152 204 249 302 378 461
#     4   9  20  39  67 101 136 182 247 307 367 430
#     4  12  28  44  70 108 154 200 254 304 384 448
#     4  11  25  43  70  99 145 191 242 304 376 443
#     4  11  26  46  69 104 146 198 245 309 374 450
#
# _framework density 27.451789000000002
#
# number of rings (size 3 to 8) (size 9 to 14) (size 15 to 20)
#    0.000    1.867    0.000    2.400    9.333    6.933 
#    0.000    0.667    0.000    0.000    0.000    0.000 
#    0.000    0.000    0.000    0.000    0.000    0.000 
#
# Total GULP energy -167211.575731 kJ/mol
# GULP energy per Si atom -5573.719191 kJ/mol
# Density = 2.738931 g / cm^3
# Si number density = 27.451789 Si / 1000 Ang^3
#
#
#
# Elastic Constant Matrix: (Units=GPa)
#
#
# Indices 1 2 3 4 5 6 
#
# 1 116.9568 -2.0334 21.7490 0.0000 36.8362 0.0000
# 2 -2.0334 91.0503 -1.2203 0.0000 -22.0733 0.0000
# 3 21.7490 -1.2203 70.3719 0.0000 3.2413 0.0000
# 4 0.0000 0.0000 0.0000 31.7684 0.0000 3.8358
# 5 36.8362 -22.0733 3.2413 0.0000 40.2690 0.0000
# 6 0.0000 0.0000 0.0000 3.8358 0.0000 26.9351
#
#
#
# Elastic Compliance Matrix: (Units=1/GPa)
#
#
# Indices 1 2 3 4 5 6 
#
# 1 0.013492 -0.003078 -0.003590 0.000000 -0.013740 0.000000
# 2 -0.003078 0.013369 0.000718 0.000000 0.010086 0.000000
# 3 -0.003590 0.000718 0.015219 0.000000 0.002453 0.000000
# 4 0.000000 0.000000 0.000000 0.032029 0.000000 -0.004561
# 5 -0.013740 0.010086 0.002453 0.000000 0.042732 0.000000
# 6 0.000000 0.000000 0.000000 -0.004561 0.000000 0.037776
#
#
# Mechanical properties :
#
#
# Convention : Reuss Voigt Hill
#
# Bulk Modulus (GPa) = 33.13354 35.04109 34.08731
# Shear Modulus (GPa) = 28.31647 37.12008 32.71828
#
# Velocity S-wave (km/s) = 3.21518 3.68121 3.45606
# Velocity P-wave (km/s) = 5.08715 5.55524 5.32634
#
# Compressibility (1/GPa) = 0.03018090
#
# Stress axis : x y z
#
# Youngs Moduli (GPa) = 74.11998 74.80057 65.70610
#
# Poissons Ratio (x) = 0.23021 0.23590
# Poissons Ratio (y) = 0.22812 -0.04721
# Poissons Ratio (z) = 0.26611 -0.05374
#
# Static dielectric constant tensor:
#      x y z
#    x 2.285860 0.000000 -0.012010 
#    y 0.000000 2.208370 0.000000 
#    z -0.012010 0.000000 2.172220 
# 
# From -- ./inp_files/204434.got.cif
#   From: 2010.05.17/outbox.cif.g08.bks.cpg/sg15_103_cif.got.tgz:204434.got - 2010.06.03 18:47:42.
