data_PCOD9294673
_publ_section_title
;
Structure prediction by ZEFSAII (Michael W. Deem and Ramdas Pophale) SiO2 
 PCOD9294673
Probable space group: C 2/C
;
_chemical_formula_sum "Si O2"
_cell_formula_units_Z 64
_cell_length_a 11.748669
_cell_length_b 13.415544
_cell_length_c 26.606303
_cell_angle_alpha 90.000000
_cell_angle_beta 37.392323
_cell_angle_gamma 90.000000
_cell_volume 2546.612584
_symmetry_space_group_name_H-M "C 2/C"
_symmetry_group_IT_number 15
_symmetry_cell_setting 'monoclinic'
loop_
_space_group_symop_operation_xyz
x,y,z
-x,y,1/2-z
-x,-y,-z
x,-y,1/2+z
1/2+x,1/2+y,z
1/2-x,1/2+y,1/2-z
1/2-x,1/2-y,-z
1/2+x,1/2-y,1/2+z
loop_
_atom_site_type_symbol
_atom_site_label
_atom_site_fract_x
_atom_site_fract_y
_atom_site_fract_z
Si Si1 0.297544 0.257636 0.130660
Si Si2 0.129432 0.157660 0.560435
Si Si3 0.393896 0.210450 0.340077
Si Si4 0.671309 0.035844 0.272107
Si Si5 0.455451 0.810665 0.189560
Si Si6 0.564539 0.336438 0.890167
Si Si7 0.332783 0.035484 0.113916
Si Si8 0.273989 0.049809 0.025597
O O1 0.442244 0.341982 0.093861
O O2 0.166733 0.252056 0.225997
O O3 0.397400 0.151783 0.088359
O O4 0.167990 0.286283 0.129907
O O5 0.250000 0.250000 0.500000
O O6 0.088127 0.191427 0.632141
O O7 0.228445 0.054936 0.516905
O O8 0.500000 0.225210 0.250000
O O9 0.178875 0.182190 0.401351
O O10 0.504720 0.118381 0.327199
O O11 0.589511 0.926888 0.288730
O O12 0.824184 0.075960 0.179079
O O13 0.748331 0.026651 0.301920
O O14 0.411599 0.763129 0.151489
O O15 0.346995 0.368550 0.961266
O O16 0.211489 0.035433 0.105775
O O17 0.499509 0.953707 0.051742
#
# Coordination Sequence:
#
# PCOD9294673 Si02
#       8
#     8   8   8   8   8   8   8   8
#     4  11  21  42  64  90 126 165 219 267 308 391
#     4  12  23  44  68  94 128 177 217 261 326 397
#     4  10  23  41  63  94 136 167 211 277 327 381
#     4  11  23  42  65  91 131 173 204 271 329 378
#     4  11  24  38  67  96 124 168 219 266 322 384
#     4  11  23  41  62  98 131 162 219 267 321 395
#     4  11  22  46  63  89 132 169 217 269 326 375
#     4  11  25  40  66  94 128 170 216 272 319 387
#
# _framework density 25.131423999999999
#
# number of rings (size 3 to 8) (size 9 to 14) (size 15 to 20)
#    0.000    1.000    5.000    1.500    8.750    0.500 
#    2.250    1.875    0.000    0.000    0.000    0.000 
#    0.000    0.000    0.000    0.000    0.000    0.000 
#
# Total GULP energy -178960.899535 kJ/mol
# GULP energy per Si atom -5592.528110 kJ/mol
# Density = 2.507422 g / cm^3
# Si number density = 25.131424 Si / 1000 Ang^3
#
#
#
# Elastic Constant Matrix: (Units=GPa)
#
#
# Indices 1 2 3 4 5 6 
#
# 1 103.9990 -0.3232 24.5845 0.0001 -17.2739 0.0001
# 2 -0.3232 90.6139 6.7951 0.0000 1.3098 0.0002
# 3 24.5845 6.7951 43.3100 0.0004 8.1902 -0.0004
# 4 0.0001 0.0000 0.0004 24.9551 -0.0003 8.5714
# 5 -17.2739 1.3098 8.1902 -0.0003 38.4369 0.0000
# 6 0.0001 0.0002 -0.0004 8.5714 0.0000 10.8088
#
#
#
# Elastic Compliance Matrix: (Units=1/GPa)
#
#
# Indices 1 2 3 4 5 6 
#
# 1 0.013017 0.000606 -0.008947 0.000000 0.007736 -0.000001
# 2 0.000606 0.011195 -0.002167 0.000000 0.000352 0.000000
# 3 -0.008947 -0.002167 0.030483 -0.000001 -0.010442 0.000002
# 4 0.000000 0.000000 -0.000001 0.055072 0.000001 -0.043672
# 5 0.007736 0.000352 -0.010442 0.000001 0.031706 -0.000001
# 6 -0.000001 0.000000 0.000002 -0.043672 -0.000001 0.127149
#
#
# Mechanical properties :
#
#
# Convention : Reuss Voigt Hill
#
# Bulk Modulus (GPa) = 29.69235 33.33731 31.51483
# Shear Modulus (GPa) = 16.61869 28.63124 22.62497
#
# Velocity S-wave (km/s) = 2.57431 3.37896 3.00370
# Velocity P-wave (km/s) = 4.54715 5.34014 4.95952
#
# Compressibility (1/GPa) = 0.03367870
#
# Stress axis : x y z
#
# Youngs Moduli (GPa) = 76.82094 89.32243 32.80540
#
# Poissons Ratio (x) = -0.05409 0.29351
# Poissons Ratio (y) = -0.04652 0.07108
# Poissons Ratio (z) = 0.68732 0.19355
#
# Static dielectric constant tensor:
#      x y z
#    x 2.071390 0.000000 0.047590 
#    y 0.000000 1.948060 0.000000 
#    z 0.047590 0.000000 2.150170 
# 
# From -- ./inp_files/311171.got.cif
#   From: 2010.05.17/outbox.cif.g08.bks.cpg/sg15_156_cif.got.tgz:311171.got - 2010.06.03 18:47:42.
