data_PCOD9294342
_publ_section_title
;
Structure prediction by ZEFSAII (Michael W. Deem and Ramdas Pophale) SiO2 
 PCOD9294342
Probable space group: C 2/C
;
_chemical_formula_sum "Si O2"
_cell_formula_units_Z 48
_cell_length_a 26.022652
_cell_length_b 7.455550
_cell_length_c 14.666883
_cell_angle_alpha 90.000000
_cell_angle_beta 135.487418
_cell_angle_gamma 90.000000
_cell_volume 1994.931081
_symmetry_space_group_name_H-M "C 2/C"
_symmetry_group_IT_number 15
_symmetry_cell_setting 'monoclinic'
loop_
_space_group_symop_operation_xyz
x,y,z
-x,y,1/2-z
-x,-y,-z
x,-y,1/2+z
1/2+x,1/2+y,z
1/2-x,1/2+y,1/2-z
1/2-x,1/2-y,-z
1/2+x,1/2-y,1/2+z
loop_
_atom_site_type_symbol
_atom_site_label
_atom_site_fract_x
_atom_site_fract_y
_atom_site_fract_z
Si Si1 0.913521 0.910005 0.652618
Si Si2 0.184321 0.456759 0.147001
Si Si3 0.928536 0.711489 0.123561
Si Si4 0.849407 0.130576 0.871443
Si Si5 0.966227 0.247617 0.903313
Si Si6 0.408609 0.138304 0.806141
O O1 0.871982 0.903752 0.503917
O O2 0.889118 0.762566 0.695459
O O3 0.000000 0.874882 0.750000
O O4 0.907675 0.125164 0.664352
O O5 0.161332 0.656380 0.141105
O O6 0.270967 0.449220 0.248375
O O7 0.153199 0.344111 0.193587
O O8 0.140286 0.393709 0.001626
O O9 0.000000 0.603254 0.250000
O O10 0.968805 0.797386 0.085073
O O11 0.911358 0.098193 0.873292
O O12 0.921986 0.423602 0.809938
O O13 0.012708 0.305421 0.052138
#
# Coordination Sequence:
#
# PCOD9294342 Si02
#       6
#     8   8   8   8   8   8
#     4  11  22  37  62  97 124 155 210 258 308 365
#     4  10  23  42  62  90 126 169 210 250 320 370
#     4  10  23  40  61  96 124 156 209 262 305 370
#     4  11  22  40  65  90 126 171 205 258 309 378
#     4   9  19  38  65  90 124 165 208 252 312 371
#     4   9  19  38  64  93 121 166 209 253 309 374
#
# _framework density 24.060983
#
# number of rings (size 3 to 8) (size 9 to 14) (size 15 to 20)
#    0.000    2.000    1.667    2.000    2.333    1.333 
#    9.000    0.833    0.000    0.000    0.000    0.000 
#    0.000    0.000    0.000    0.000    0.000    0.000 
#
# Total GULP energy -133966.377844 kJ/mol
# GULP energy per Si atom -5581.932410 kJ/mol
# Density = 2.400622 g / cm^3
# Si number density = 24.060983 Si / 1000 Ang^3
#
#
#
# Elastic Constant Matrix: (Units=GPa)
#
#
# Indices 1 2 3 4 5 6 
#
# 1 49.7478 7.0699 11.4779 0.0000 12.0739 0.0000
# 2 7.0699 82.3709 15.8473 0.0000 -3.3527 0.0000
# 3 11.4779 15.8473 118.7492 0.0000 5.8962 0.0000
# 4 0.0000 0.0000 0.0000 40.3833 0.0000 -1.0110
# 5 12.0739 -3.3527 5.8962 0.0000 33.5458 0.0000
# 6 0.0000 0.0000 0.0000 -1.0110 0.0000 35.0115
#
#
#
# Elastic Compliance Matrix: (Units=1/GPa)
#
#
# Indices 1 2 3 4 5 6 
#
# 1 0.022702 -0.001984 -0.001527 0.000000 -0.008101 0.000000
# 2 -0.001984 0.012714 -0.001618 0.000000 0.002269 0.000000
# 3 -0.001527 -0.001618 0.008843 0.000000 -0.001166 0.000000
# 4 0.000000 0.000000 0.000000 0.024781 0.000000 0.000716
# 5 -0.008101 0.002269 -0.001166 0.000000 0.033157 0.000000
# 6 0.000000 0.000000 0.000000 0.000716 0.000000 0.028583
#
#
# Mechanical properties :
#
#
# Convention : Reuss Voigt Hill
#
# Bulk Modulus (GPa) = 29.41176 35.51756 32.46466
# Shear Modulus (GPa) = 32.81461 36.21962 34.51712
#
# Velocity S-wave (km/s) = 3.69699 3.88406 3.79168
# Velocity P-wave (km/s) = 5.52032 5.90831 5.71761
#
# Compressibility (1/GPa) = 0.03400001
#
# Stress axis : x y z
#
# Youngs Moduli (GPa) = 44.04922 78.65279 113.09018
#
# Poissons Ratio (x) = 0.15608 0.17272
# Poissons Ratio (y) = 0.08741 0.18293
# Poissons Ratio (z) = 0.06727 0.12723
#
# Static dielectric constant tensor:
#      x y z
#    x 2.196850 0.000000 0.106270 
#    y 0.000000 1.994370 0.000000 
#    z 0.106270 0.000000 2.255530 
# 
# From -- ./inp_files/176955.got.cif
#   From: 2010.05.17/outbox.cif.g08.bks.cpg/sg15_89_cif.got.tgz:176955.got - 2010.06.03 18:47:42.
