data_PCOD9294602
_publ_section_title
;
Structure prediction by ZEFSAII (Michael W. Deem and Ramdas Pophale) SiO2 
 PCOD9294602
Probable space group: C 2/C
;
_chemical_formula_sum "Si O2"
_cell_formula_units_Z 24
_cell_length_a 11.806999
_cell_length_b 14.516914
_cell_length_c 5.374864
_cell_angle_alpha 90.000000
_cell_angle_beta 86.081843
_cell_angle_gamma 90.000000
_cell_volume 919.104801
_symmetry_space_group_name_H-M "C 2/C"
_symmetry_group_IT_number 15
_symmetry_cell_setting 'monoclinic'
loop_
_space_group_symop_operation_xyz
x,y,z
-x,y,1/2-z
-x,-y,-z
x,-y,1/2+z
1/2+x,1/2+y,z
1/2-x,1/2+y,1/2-z
1/2-x,1/2-y,-z
1/2+x,1/2-y,1/2+z
loop_
_atom_site_type_symbol
_atom_site_label
_atom_site_fract_x
_atom_site_fract_y
_atom_site_fract_z
Si Si1 0.323685 0.751301 0.740180
Si Si2 0.921298 0.588083 0.956171
Si Si3 0.162850 0.051206 0.850199
O O1 0.250000 0.750000 0.500000
O O2 0.388665 0.847062 0.692488
O O3 0.381619 0.652186 0.710941
O O4 0.250000 0.750000 0.000000
O O5 0.801835 0.558964 0.845987
O O6 0.000000 0.644884 0.750000
O O7 0.000000 0.500000 0.000000
O O8 0.131121 0.984240 0.628343
#
# Coordination Sequence:
#
# PCOD9294602 Si02
#       3
#     8   8   8
#     4  10  23  41  58  90 137 179 216 267 337 408
#     4  11  22  37  65 100 136 170 222 291 340 376
#     4  11  21  38  63  90 129 178 216 260 329 408
#
# _framework density 26.112362000000001
#
# number of rings (size 3 to 8) (size 9 to 14) (size 15 to 20)
#    0.000    1.333    3.333    4.000    0.000    0.000 
#    0.000    0.000    0.000    2.000    0.000    0.000 
#    0.000    0.000    0.000    0.000    0.000    0.000 
#
# Total GULP energy -67150.070875 kJ/mol
# GULP energy per Si atom -5595.839240 kJ/mol
# Density = 2.605293 g / cm^3
# Si number density = 26.112362 Si / 1000 Ang^3
#
#
#
# Elastic Constant Matrix: (Units=GPa)
#
#
# Indices 1 2 3 4 5 6 
#
# 1 142.2941 53.9385 58.1711 0.0000 3.5225 0.0000
# 2 53.9385 222.1359 74.8048 0.0000 -10.7297 0.0000
# 3 58.1711 74.8048 232.5623 0.0000 -14.1136 0.0000
# 4 0.0000 0.0000 0.0000 58.4759 0.0000 -12.0504
# 5 3.5225 -10.7297 -14.1136 0.0000 30.8726 0.0000
# 6 0.0000 0.0000 0.0000 -12.0504 0.0000 20.2085
#
#
#
# Elastic Compliance Matrix: (Units=1/GPa)
#
#
# Indices 1 2 3 4 5 6 
#
# 1 0.008386 -0.001563 -0.001734 0.000000 -0.002293 0.000000
# 2 -0.001563 0.005373 -0.001248 0.000000 0.001475 0.000000
# 3 -0.001734 -0.001248 0.005267 0.000000 0.002172 0.000000
# 4 0.000000 0.000000 0.000000 0.019497 0.000000 0.011626
# 5 -0.002293 0.001475 0.002172 0.000000 0.034158 0.000000
# 6 0.000000 0.000000 0.000000 0.011626 0.000000 0.056417
#
#
# Mechanical properties :
#
#
# Convention : Reuss Voigt Hill
#
# Bulk Modulus (GPa) = 100.64438 107.86899 104.25669
# Shear Modulus (GPa) = 35.33604 49.24993 42.29298
#
# Velocity S-wave (km/s) = 3.68262 4.34761 4.02886
# Velocity P-wave (km/s) = 7.53052 8.16098 7.85208
#
# Compressibility (1/GPa) = 0.00993597
#
# Stress axis : x y z
#
# Youngs Moduli (GPa) = 119.24924 186.12627 189.87030
#
# Poissons Ratio (x) = 0.29093 0.32922
# Poissons Ratio (y) = 0.18639 0.23689
# Poissons Ratio (z) = 0.20677 0.23222
#
# Static dielectric constant tensor:
#      x y z
#    x 2.141620 0.000000 -0.035340 
#    y 0.000000 2.133970 0.000000 
#    z -0.035340 0.000000 2.128060 
# 
# From -- ./inp_files/3036.got.cif
#   From: 2010.05.17/outbox.cif.g08.bks.cpg/sg15_2_cif.got.tgz:3036.got - 2010.06.03 18:47:42.
