data_PCOD9294954
_publ_section_title
;
Structure prediction by ZEFSAII (Michael W. Deem and Ramdas Pophale) SiO2 
 PCOD9294954
Probable space group: C 2/C
;
_chemical_formula_sum "Si O2"
_cell_formula_units_Z 36
_cell_length_a 14.893560
_cell_length_b 10.251055
_cell_length_c 15.626508
_cell_angle_alpha 90.000000
_cell_angle_beta 137.467908
_cell_angle_gamma 90.000000
_cell_volume 1612.789483
_symmetry_space_group_name_H-M "C 2/C"
_symmetry_group_IT_number 15
_symmetry_cell_setting 'monoclinic'
loop_
_space_group_symop_operation_xyz
x,y,z
-x,y,1/2-z
-x,-y,-z
x,-y,1/2+z
1/2+x,1/2+y,z
1/2-x,1/2+y,1/2-z
1/2-x,1/2-y,-z
1/2+x,1/2-y,1/2+z
loop_
_atom_site_type_symbol
_atom_site_label
_atom_site_fract_x
_atom_site_fract_y
_atom_site_fract_z
Si Si1 0.943383 0.357754 0.943986
Si Si2 0.000000 0.035996 0.250000
Si Si3 0.219537 0.993879 0.197557
Si Si4 0.446360 0.206879 0.802014
Si Si5 0.052632 0.873852 0.431632
O O1 0.803412 0.393145 0.803386
O O2 0.036447 0.277534 0.943529
O O3 0.000000 0.500000 0.000000
O O4 0.954397 0.290625 0.045751
O O5 0.090801 0.937375 0.368067
O O6 0.071289 0.142717 0.239036
O O7 0.321529 0.879873 0.241396
O O8 0.099666 0.922105 0.162133
O O9 0.148139 0.061192 0.067457
O O10 0.500000 0.146522 0.750000
#
# Coordination Sequence:
#
# PCOD9294954 Si02
#       5
#     8   4   8   8   8
#     4  10  23  43  67  97 140 187 232 283 360 414
#     4  10  24  44  66 110 142 174 242 296 346 414
#     4  10  23  41  70  99 140 186 234 291 343 432
#     4   9  21  42  70 103 134 185 239 281 353 415
#     4  11  24  42  67 104 138 183 234 289 355 413
#
# _framework density 22.321572
#
# number of rings (size 3 to 8) (size 9 to 14) (size 15 to 20)
#    0.667    1.333    0.000    2.667    9.333    2.667 
#    8.000    1.111    0.000    0.000    0.000    0.000 
#    0.000    0.000    0.000    0.000    0.000    0.000 
#
# Total GULP energy -100246.252854 kJ/mol
# GULP energy per Si atom -5569.236270 kJ/mol
# Density = 2.227077 g / cm^3
# Si number density = 22.321572 Si / 1000 Ang^3
#
#
#
# Elastic Constant Matrix: (Units=GPa)
#
#
# Indices 1 2 3 4 5 6 
#
# 1 44.3587 31.1769 47.7077 0.0000 -2.6823 0.0000
# 2 31.1769 158.4153 50.5334 0.0000 -10.7888 0.0000
# 3 47.7077 50.5334 126.7031 0.0000 -14.3171 0.0000
# 4 0.0000 0.0000 0.0000 -93.1293 0.0000 -37.1624
# 5 -2.6823 -10.7888 -14.3171 0.0000 26.6597 0.0000
# 6 0.0000 0.0000 0.0000 -37.1624 0.0000 33.4435
#
#
#
# Elastic Compliance Matrix: (Units=1/GPa)
#
#
# Indices 1 2 3 4 5 6 
#
# 1 0.040117 -0.003712 -0.014200 0.000000 -0.005092 0.000000
# 2 -0.003712 0.007631 -0.001425 0.000000 0.001949 0.000000
# 3 -0.014200 -0.001425 0.014458 0.000000 0.005759 0.000000
# 4 0.000000 0.000000 0.000000 -0.007439 0.000000 -0.008266
# 5 -0.005092 0.001949 0.005759 0.000000 0.040879 0.000000
# 6 0.000000 0.000000 0.000000 -0.008266 0.000000 0.020716
#
#
# Mechanical properties :
#
#
# Convention : Reuss Voigt Hill
#
# Bulk Modulus (GPa) = 42.49784 65.36814 53.93299
# Shear Modulus (GPa) = 30.69747 6.73206 18.71477
#
# Velocity S-wave (km/s) = 3.71244 1.73853 2.89868
# Velocity P-wave (km/s) = 6.12018 5.77740 5.95125
#
# Compressibility (1/GPa) = 0.02353061
#
# Stress axis : x y z
#
# Youngs Moduli (GPa) = 24.92721 131.05297 69.16374
#
# Poissons Ratio (x) = 0.48650 0.98213
# Poissons Ratio (y) = 0.09254 0.09858
# Poissons Ratio (z) = 0.35397 0.18679
#
# Static dielectric constant tensor:
#      x y z
#    x 1.924090 0.000000 -0.049890 
#    y 0.000000 1.873340 0.000000 
#    z -0.049890 0.000000 1.887800 
# 
# From -- ./inp_files/151571.got.cif
#   From: 2010.05.17/outbox.cif.g08.bks.cpg/sg15_76_cif.got.tgz:151571.got - 2010.06.03 18:47:42.
