data_PCOD9294923
_publ_section_title
;
Structure prediction by ZEFSAII (Michael W. Deem and Ramdas Pophale) SiO2 
 PCOD9294923
Probable space group: C 2/C
;
_chemical_formula_sum "Si O2"
_cell_formula_units_Z 40
_cell_length_a 23.268509
_cell_length_b 7.853997
_cell_length_c 9.424000
_cell_angle_alpha 90.000000
_cell_angle_beta 102.008076
_cell_angle_gamma 90.000000
_cell_volume 1684.557896
_symmetry_space_group_name_H-M "C 2/C"
_symmetry_group_IT_number 15
_symmetry_cell_setting 'monoclinic'
loop_
_space_group_symop_operation_xyz
x,y,z
-x,y,1/2-z
-x,-y,-z
x,-y,1/2+z
1/2+x,1/2+y,z
1/2-x,1/2+y,1/2-z
1/2-x,1/2-y,-z
1/2+x,1/2-y,1/2+z
loop_
_atom_site_type_symbol
_atom_site_label
_atom_site_fract_x
_atom_site_fract_y
_atom_site_fract_z
Si Si1 0.847852 0.484484 0.179396
Si Si2 0.462233 0.107233 0.091811
Si Si3 0.124999 0.829906 0.606475
Si Si4 0.723315 0.515105 0.970120
Si Si5 0.169343 0.836406 0.175112
O O1 0.905472 0.500714 0.112794
O O2 0.855308 0.312051 0.271955
O O3 0.788742 0.506962 0.059305
O O4 0.846546 0.650485 0.282312
O O5 0.500000 0.146793 0.250000
O O6 0.433146 0.268872 0.001214
O O7 0.500000 0.000000 0.000000
O O8 0.180016 0.850082 0.526290
O O9 0.118266 0.021902 0.661846
O O10 0.693021 0.347540 0.026105
O O11 0.717355 0.569601 0.803574
#
# Coordination Sequence:
#
# PCOD9294923 Si02
#       5
#     8   8   8   8   8
#     4  12  22  43  77  98 147 183 221 294 351 415
#     4  12  26  47  71 100 133 190 251 282 337 410
#     4  10  25  43  70 105 140 177 231 291 348 424
#     4  10  23  41  69 113 142 173 223 285 363 432
#     4  10  23  42  66 107 145 170 227 277 360 426
#
# _framework density 23.745101999999999
#
# number of rings (size 3 to 8) (size 9 to 14) (size 15 to 20)
#    1.200    0.000    4.000    1.800    2.800    2.400 
#    0.000    1.000    4.400    0.000    0.000    0.000 
#    0.000    0.000    0.000    0.000    0.000    0.000 
#
# Total GULP energy -111791.082084 kJ/mol
# GULP energy per Si atom -5589.554104 kJ/mol
# Density = 2.369106 g / cm^3
# Si number density = 23.745102 Si / 1000 Ang^3
#
#
#
# Elastic Constant Matrix: (Units=GPa)
#
#
# Indices 1 2 3 4 5 6 
#
# 1 132.1968 34.7236 38.3398 0.0000 14.4743 0.0000
# 2 34.7236 132.4617 44.6656 0.0000 -4.8463 0.0000
# 3 38.3398 44.6656 130.3829 0.0000 28.5148 0.0000
# 4 0.0000 0.0000 0.0000 30.8447 0.0000 8.9997
# 5 14.4743 -4.8463 28.5148 0.0000 46.1498 0.0000
# 6 0.0000 0.0000 0.0000 8.9997 0.0000 16.3374
#
#
#
# Elastic Compliance Matrix: (Units=1/GPa)
#
#
# Indices 1 2 3 4 5 6 
#
# 1 0.008702 -0.001854 -0.001485 0.000000 -0.002006 0.000000
# 2 -0.001854 0.009339 -0.003464 0.000000 0.003702 0.000000
# 3 -0.001485 -0.003464 0.010719 0.000000 -0.006521 0.000000
# 4 0.000000 0.000000 0.000000 0.038629 0.000000 -0.021279
# 5 -0.002006 0.003702 -0.006521 0.000000 0.026716 0.000000
# 6 0.000000 0.000000 0.000000 -0.021279 0.000000 0.072931
#
#
# Mechanical properties :
#
#
# Convention : Reuss Voigt Hill
#
# Bulk Modulus (GPa) = 65.98649 70.05549 68.02099
# Shear Modulus (GPa) = 26.92628 37.15389 32.04008
#
# Velocity S-wave (km/s) = 3.37110 3.95992 3.67731
# Velocity P-wave (km/s) = 6.55761 7.10458 6.83657
#
# Compressibility (1/GPa) = 0.01515462
#
# Stress axis : x y z
#
# Youngs Moduli (GPa) = 114.91952 107.08101 93.29113
#
# Poissons Ratio (x) = 0.19850 0.13853
# Poissons Ratio (y) = 0.21303 0.32314
# Poissons Ratio (z) = 0.17065 0.37090
#
# Static dielectric constant tensor:
#      x y z
#    x 1.864270 0.000000 -0.011310 
#    y 0.000000 1.979870 0.000000 
#    z -0.011310 0.000000 2.000470 
# 
# From -- ./inp_files/109714.got.cif
#   From: 2010.05.17/outbox.cif.g08.bks.cpg/sg15_55_cif.got.tgz:109714.got - 2010.06.03 18:47:42.
