data_PCOD9294256
_publ_section_title
;
Structure prediction by ZEFSAII (Michael W. Deem and Ramdas Pophale) SiO2 
 PCOD9294256
Probable space group: C 2/C
;
_chemical_formula_sum "Si O2"
_cell_formula_units_Z 32
_cell_length_a 11.201793
_cell_length_b 24.720426
_cell_length_c 5.022898
_cell_angle_alpha 90.000000
_cell_angle_beta 74.159523
_cell_angle_gamma 90.000000
_cell_volume 1338.087122
_symmetry_space_group_name_H-M "C 2/C"
_symmetry_group_IT_number 15
_symmetry_cell_setting 'monoclinic'
loop_
_space_group_symop_operation_xyz
x,y,z
-x,y,1/2-z
-x,-y,-z
x,-y,1/2+z
1/2+x,1/2+y,z
1/2-x,1/2+y,1/2-z
1/2-x,1/2-y,-z
1/2+x,1/2-y,1/2+z
loop_
_atom_site_type_symbol
_atom_site_label
_atom_site_fract_x
_atom_site_fract_y
_atom_site_fract_z
Si Si1 0.500000 0.777037 0.250000
Si Si2 0.360391 0.474816 0.574124
Si Si3 0.866132 0.808294 0.202752
Si Si4 0.733435 0.638585 0.253163
Si Si5 0.000000 0.349532 0.750000
O O1 0.400602 0.740934 0.477313
O O2 0.544315 0.813880 0.467779
O O3 0.500000 0.500000 0.500000
O O4 0.295532 0.494620 0.351511
O O5 0.354410 0.411158 0.609788
O O6 0.790607 0.811413 0.527126
O O7 0.000000 0.822064 0.250000
O O8 0.801983 0.848154 0.029013
O O9 0.876357 0.622300 0.212976
#
# Coordination Sequence:
#
# PCOD9294256 Si02
#       5
#     4   8   8   8   4
#     4  12  24  46  66 105 132 187 242 282 336 380
#     4  10  23  39  67 101 131 162 216 288 351 405
#     4  12  24  43  70 103 137 175 236 299 333 385
#     4  12  26  44  69  99 144 182 221 286 342 414
#     4  12  28  46  64  95 142 197 232 258 342 422
#
# _framework density 23.914736999999999
#
# number of rings (size 3 to 8) (size 9 to 14) (size 15 to 20)
#    0.000    0.500    3.750    3.000   10.500    6.000 
#    0.000    1.250    0.000    0.000    0.000    0.000 
#    0.000    0.000    0.000    0.000    0.000    0.000 
#
# Total GULP energy -89086.660578 kJ/mol
# GULP energy per Si atom -5567.916286 kJ/mol
# Density = 2.386031 g / cm^3
# Si number density = 23.914737 Si / 1000 Ang^3
#
#
#
# Elastic Constant Matrix: (Units=GPa)
#
#
# Indices 1 2 3 4 5 6 
#
# 1 148.9645 12.9458 20.3219 0.0000 22.7336 0.0000
# 2 12.9458 63.6716 16.2397 0.0000 -0.6141 0.0000
# 3 20.3219 16.2397 198.0556 0.0000 25.3616 0.0000
# 4 0.0000 0.0000 0.0000 20.1565 0.0000 0.1567
# 5 22.7336 -0.6141 25.3616 0.0000 38.9008 0.0000
# 6 0.0000 0.0000 0.0000 0.1567 0.0000 5.9068
#
#
#
# Elastic Compliance Matrix: (Units=1/GPa)
#
#
# Indices 1 2 3 4 5 6 
#
# 1 0.007526 -0.001550 -0.000086 0.000000 -0.004367 0.000000
# 2 -0.001550 0.016413 -0.001458 0.000000 0.002115 0.000000
# 3 -0.000086 -0.001458 0.005645 0.000000 -0.003653 0.000000
# 4 0.000000 0.000000 0.000000 0.049622 0.000000 -0.001317
# 5 -0.004367 0.002115 -0.003653 0.000000 0.030673 0.000000
# 6 0.000000 0.000000 0.000000 -0.001317 0.000000 0.169331
#
#
# Mechanical properties :
#
#
# Convention : Reuss Voigt Hill
#
# Bulk Modulus (GPa) = 42.74188 56.63407 49.68797
# Shear Modulus (GPa) = 17.05340 37.07177 27.06259
#
# Velocity S-wave (km/s) = 2.67327 3.94148 3.36762
# Velocity P-wave (km/s) = 5.23831 6.66684 5.99528
#
# Compressibility (1/GPa) = 0.02339626
#
# Stress axis : x y z
#
# Youngs Moduli (GPa) = 132.87534 60.92739 177.14071
#
# Poissons Ratio (x) = 0.09446 0.01522
# Poissons Ratio (y) = 0.20600 0.25820
# Poissons Ratio (z) = 0.01142 0.08881
#
# Static dielectric constant tensor:
#      x y z
#    x 1.993480 0.000000 -0.050840 
#    y 0.000000 1.987760 0.000000 
#    z -0.050840 0.000000 1.947230 
# 
# From -- ./inp_files/4109.got.cif
#   From: 2010.05.17/outbox.cif.g08.bks.cpg/sg15_3_cif.got.tgz:4109.got - 2010.06.03 18:47:42.
