data_PCOD9294620
_publ_section_title
;
Structure prediction by ZEFSAII (Michael W. Deem and Ramdas Pophale) SiO2 
 PCOD9294620
Probable space group: C 2/C
;
_chemical_formula_sum "Si O2"
_cell_formula_units_Z 40
_cell_length_a 17.796336
_cell_length_b 7.644444
_cell_length_c 25.319364
_cell_angle_alpha 90.000000
_cell_angle_beta 28.400073
_cell_angle_gamma 90.000000
_cell_volume 1638.303156
_symmetry_space_group_name_H-M "C 2/C"
_symmetry_group_IT_number 15
_symmetry_cell_setting 'monoclinic'
loop_
_space_group_symop_operation_xyz
x,y,z
-x,y,1/2-z
-x,-y,-z
x,-y,1/2+z
1/2+x,1/2+y,z
1/2-x,1/2+y,1/2-z
1/2-x,1/2-y,-z
1/2+x,1/2-y,1/2+z
loop_
_atom_site_type_symbol
_atom_site_label
_atom_site_fract_x
_atom_site_fract_y
_atom_site_fract_z
Si Si1 0.027436 0.665775 0.925952
Si Si2 0.258918 0.511190 0.938602
Si Si3 0.069097 0.377239 0.824881
Si Si4 0.992276 0.012073 0.383778
Si Si5 0.281456 0.663994 0.101570
O O1 0.102742 0.486940 0.857029
O O2 0.085217 0.734911 0.946058
O O3 0.073775 0.816748 0.855871
O O4 0.839656 0.626929 0.035585
O O5 0.400344 0.444714 0.886729
O O6 0.305255 0.678831 0.875426
O O7 0.118480 0.582452 0.064320
O O8 0.169542 0.431986 0.712337
O O9 0.086197 0.168618 0.818424
O O10 0.867286 0.959609 0.507043
#
# Coordination Sequence:
#
# PCOD9294620 Si02
#       5
#     8   8   8   8   8
#     4  10  23  41  61  91 123 158 208 250 297 364
#     4   9  22  41  63  89 126 157 200 257 297 364
#     4   9  23  38  63  89 128 154 210 246 300 359
#     4  11  22  41  67  89 124 164 198 254 310 358
#     4  11  21  41  66  88 124 167 198 251 311 353
#
# _framework density 24.415505
#
# number of rings (size 3 to 8) (size 9 to 14) (size 15 to 20)
#    1.200    0.800    0.000    4.200    2.800    3.200 
#    3.600    0.000    4.400    0.000    0.000    0.000 
#    0.000    0.000    0.000    0.000    0.000    0.000 
#
# Total GULP energy -111706.761298 kJ/mol
# GULP energy per Si atom -5585.338065 kJ/mol
# Density = 2.435993 g / cm^3
# Si number density = 24.415505 Si / 1000 Ang^3
#
#
#
# Elastic Constant Matrix: (Units=GPa)
#
#
# Indices 1 2 3 4 5 6 
#
# 1 103.4808 13.6637 -4.6454 0.0002 -9.6700 -0.0007
# 2 13.6637 62.8519 -2.5366 0.0003 -12.2514 0.0009
# 3 -4.6454 -2.5366 30.1739 0.0006 -1.4285 0.0000
# 4 0.0002 0.0003 0.0006 16.9061 0.0004 -3.4240
# 5 -9.6700 -12.2514 -1.4285 0.0004 24.5175 -0.0001
# 6 -0.0007 0.0009 0.0000 -3.4240 -0.0001 32.9536
#
#
#
# Elastic Compliance Matrix: (Units=1/GPa)
#
#
# Indices 1 2 3 4 5 6 
#
# 1 0.010251 -0.001503 0.001612 0.000000 0.003386 0.000000
# 2 -0.001503 0.017958 0.001680 -0.000001 0.008478 -0.000001
# 3 0.001612 0.001680 0.033693 -0.000001 0.003438 0.000000
# 4 0.000000 -0.000001 -0.000001 0.060422 -0.000001 0.006278
# 5 0.003386 0.008478 0.003438 -0.000001 0.046560 0.000000
# 6 0.000000 -0.000001 0.000000 0.006278 0.000000 0.030998
#
#
# Mechanical properties :
#
#
# Convention : Reuss Voigt Hill
#
# Bulk Modulus (GPa) = 15.27225 23.27446 19.27335
# Shear Modulus (GPa) = 22.92200 27.54376 25.23288
#
# Velocity S-wave (km/s) = 3.06736 3.36240 3.21826
# Velocity P-wave (km/s) = 4.33747 4.96263 4.66054
#
# Compressibility (1/GPa) = 0.06547823
#
# Stress axis : x y z
#
# Youngs Moduli (GPa) = 97.55240 55.68648 29.67938
#
# Poissons Ratio (x) = 0.08372 -0.04784
# Poissons Ratio (y) = 0.14667 -0.04985
# Poissons Ratio (z) = -0.15726 -0.09353
#
# Static dielectric constant tensor:
#      x y z
#    x 1.935440 0.000000 -0.051420 
#    y 0.000000 1.945760 0.000000 
#    z -0.051420 0.000000 1.985410 
# 
# From -- ./inp_files/298286.got.cif
#   From: 2010.05.17/outbox.cif.g08.bks.cpg/sg15_150_cif.got.tgz:298286.got - 2010.06.03 18:47:42.
