data_PCOD9294132
_publ_section_title
;
Structure prediction by ZEFSAII (Michael W. Deem and Ramdas Pophale) SiO2 
 PCOD9294132
Probable space group: C 2/C
;
_chemical_formula_sum "Si O2"
_cell_formula_units_Z 40
_cell_length_a 11.851257
_cell_length_b 20.690402
_cell_length_c 8.859900
_cell_angle_alpha 90.000000
_cell_angle_beta 119.673373
_cell_angle_gamma 90.000000
_cell_volume 1887.612332
_symmetry_space_group_name_H-M "C 2/C"
_symmetry_group_IT_number 15
_symmetry_cell_setting 'monoclinic'
loop_
_space_group_symop_operation_xyz
x,y,z
-x,y,1/2-z
-x,-y,-z
x,-y,1/2+z
1/2+x,1/2+y,z
1/2-x,1/2+y,1/2-z
1/2-x,1/2-y,-z
1/2+x,1/2-y,1/2+z
loop_
_atom_site_type_symbol
_atom_site_label
_atom_site_fract_x
_atom_site_fract_y
_atom_site_fract_z
Si Si1 0.141643 0.066417 0.769886
Si Si2 0.740143 0.684519 0.305798
Si Si3 0.500398 0.222338 0.585408
Si Si4 0.144793 0.935449 0.914436
Si Si5 0.694822 0.177282 0.479286
O O1 0.133861 0.059235 0.586005
O O2 0.217230 0.130669 0.863481
O O3 0.000000 0.072331 0.750000
O O4 0.201340 0.001523 0.882101
O O5 0.600922 0.718335 0.180314
O O6 0.721395 0.627662 0.412626
O O7 0.851295 0.734042 0.438325
O O8 0.793887 0.654246 0.185353
O O9 0.500000 0.188903 0.750000
O O10 0.562674 0.184346 0.485820
O O11 0.000000 0.929180 0.750000
O O12 0.750000 0.250000 0.500000
#
# Coordination Sequence:
#
# PCOD9294132 Si02
#       5
#     8   8   8   8   8
#     4  11  22  40  64  95 129 170 219 268 324 388
#     4  11  23  41  63  94 131 173 218 268 325 387
#     4  11  23  39  61  92 130 172 216 266 322 383
#     4  11  22  39  65  95 129 172 218 271 324 386
#     4  10  23  39  60  90 126 167 210 263 320 380
#
# _framework density 21.190791999999998
#
# number of rings (size 3 to 8) (size 9 to 14) (size 15 to 20)
#    0.000    1.200    0.000    7.800    0.000   12.800 
#    0.000    1.000    0.000    0.000    0.000    0.000 
#    0.000    0.000    0.000    0.000    0.000    0.000 
#
# Total GULP energy -111679.965663 kJ/mol
# GULP energy per Si atom -5583.998283 kJ/mol
# Density = 2.114256 g / cm^3
# Si number density = 21.190792 Si / 1000 Ang^3
#
#
#
# Elastic Constant Matrix: (Units=GPa)
#
#
# Indices 1 2 3 4 5 6 
#
# 1 121.8803 46.2756 53.4608 0.0000 -30.8086 0.0000
# 2 46.2756 110.2796 47.7196 0.0000 4.7223 0.0000
# 3 53.4608 47.7196 139.1114 0.0000 -33.0534 0.0000
# 4 0.0000 0.0000 0.0000 33.0310 0.0000 -1.1723
# 5 -30.8086 4.7223 -33.0534 0.0000 55.1397 0.0000
# 6 0.0000 0.0000 0.0000 -1.1723 0.0000 21.6833
#
#
#
# Elastic Compliance Matrix: (Units=1/GPa)
#
#
# Indices 1 2 3 4 5 6 
#
# 1 0.012305 -0.004742 -0.001600 0.000000 0.006322 0.000000
# 2 -0.004742 0.013132 -0.004174 0.000000 -0.006276 0.000000
# 3 -0.001600 -0.004174 0.010620 0.000000 0.005830 0.000000
# 4 0.000000 0.000000 0.000000 0.030333 0.000000 0.001640
# 5 0.006322 -0.006276 0.005830 0.000000 0.025700 0.000000
# 6 0.000000 0.000000 0.000000 0.001640 0.000000 0.046207
#
#
# Mechanical properties :
#
#
# Convention : Reuss Voigt Hill
#
# Bulk Modulus (GPa) = 66.54913 74.02036 70.28474
# Shear Modulus (GPa) = 30.42505 36.89183 33.65844
#
# Velocity S-wave (km/s) = 3.79326 4.17698 3.98974
# Velocity P-wave (km/s) = 7.11745 7.63342 7.37995
#
# Compressibility (1/GPa) = 0.01502649
#
# Stress axis : x y z
#
# Youngs Moduli (GPa) = 81.26691 76.14744 94.15927
#
# Poissons Ratio (x) = 0.36108 0.15066
# Poissons Ratio (y) = 0.38535 0.39300
# Poissons Ratio (z) = 0.13003 0.31782
#
# Static dielectric constant tensor:
#      x y z
#    x 1.691850 0.000000 -0.108020 
#    y 0.000000 1.785970 0.000000 
#    z -0.108020 0.000000 1.714520 
# 
# From -- ./inp_files/41075.got.cif
#   From: 2010.05.17/outbox.cif.g08.bks.cpg/sg15_21_cif.got.tgz:41075.got - 2010.06.03 18:47:42.
