data_PCOD9294474
_publ_section_title
;
Structure prediction by ZEFSAII (Michael W. Deem and Ramdas Pophale) SiO2 
 PCOD9294474
Probable space group: C 2/C
;
_chemical_formula_sum "Si O2"
_cell_formula_units_Z 48
_cell_length_a 11.795440
_cell_length_b 18.837575
_cell_length_c 12.195101
_cell_angle_alpha 90.000000
_cell_angle_beta 71.116921
_cell_angle_gamma 90.000000
_cell_volume 2563.886260
_symmetry_space_group_name_H-M "C 2/C"
_symmetry_group_IT_number 15
_symmetry_cell_setting 'monoclinic'
loop_
_space_group_symop_operation_xyz
x,y,z
-x,y,1/2-z
-x,-y,-z
x,-y,1/2+z
1/2+x,1/2+y,z
1/2-x,1/2+y,1/2-z
1/2-x,1/2-y,-z
1/2+x,1/2-y,1/2+z
loop_
_atom_site_type_symbol
_atom_site_label
_atom_site_fract_x
_atom_site_fract_y
_atom_site_fract_z
Si Si1 0.541178 0.075776 0.859408
Si Si2 0.589112 0.305061 0.121699
Si Si3 0.631789 0.370406 0.759496
Si Si4 0.858806 0.728086 0.614671
Si Si5 0.612474 0.549364 0.492016
Si Si6 0.193736 0.536670 0.432884
O O1 0.500000 0.060610 0.750000
O O2 0.583899 0.156124 0.860367
O O3 0.646776 0.022328 0.861842
O O4 0.425983 0.064245 0.972157
O O5 0.500000 0.289794 0.250000
O O6 0.723334 0.289153 0.120699
O O7 0.579820 0.387024 0.086124
O O8 0.574102 0.258518 0.015191
O O9 0.500000 0.383522 0.750000
O O10 0.641544 0.288631 0.792401
O O11 0.731221 0.400367 0.646208
O O12 0.648147 0.413278 0.867477
O O13 0.500000 0.500000 0.500000
O O14 0.719023 0.503276 0.509663
#
# Coordination Sequence:
#
# PCOD9294474 Si02
#       6
#     8   8   8   8   8   8
#     4  11  24  45  66  94 133 168 216 267 320 388
#     4  10  23  40  66  93 128 176 213 263 326 386
#     4  11  23  41  63  97 132 166 216 272 322 380
#     4  10  23  44  61  95 132 168 221 263 315 392
#     4  11  22  39  65  98 133 162 214 271 322 385
#     4  11  24  42  68  98 125 176 212 264 331 384
#
# _framework density 18.721578999999998
#
# number of rings (size 3 to 8) (size 9 to 14) (size 15 to 20)
#    0.000    1.333    3.333    1.500    4.667    1.333 
#    0.000    1.667    0.000    0.000    0.000    0.000 
#    0.000    0.000    0.000    0.000    0.000    0.000 
#
# Total GULP energy -134077.652364 kJ/mol
# GULP energy per Si atom -5586.568849 kJ/mol
# Density = 1.867897 g / cm^3
# Si number density = 18.721579 Si / 1000 Ang^3
#
#
#
# Elastic Constant Matrix: (Units=GPa)
#
#
# Indices 1 2 3 4 5 6 
#
# 1 109.8848 48.3164 33.3619 0.0000 12.2974 0.0000
# 2 48.3164 113.2902 40.2175 0.0000 1.6358 0.0000
# 3 33.3619 40.2175 81.7485 0.0000 -0.1909 0.0000
# 4 0.0000 0.0000 0.0000 25.0892 0.0000 9.6854
# 5 12.2974 1.6358 -0.1909 0.0000 32.2404 0.0000
# 6 0.0000 0.0000 0.0000 9.6854 0.0000 30.0842
#
#
#
# Elastic Compliance Matrix: (Units=1/GPa)
#
#
# Indices 1 2 3 4 5 6 
#
# 1 0.012335 -0.004125 -0.003015 0.000000 -0.004513 0.000000
# 2 -0.004125 0.012085 -0.004260 0.000000 0.000935 0.000000
# 3 -0.003015 -0.004260 0.015562 0.000000 0.001458 0.000000
# 4 0.000000 0.000000 0.000000 0.045514 0.000000 -0.014653
# 5 -0.004513 0.000935 0.001458 0.000000 0.032700 0.000000
# 6 0.000000 0.000000 0.000000 -0.014653 0.000000 0.037957
#
#
# Mechanical properties :
#
#
# Convention : Reuss Voigt Hill
#
# Bulk Modulus (GPa) = 58.19996 60.96834 59.58415
# Shear Modulus (GPa) = 27.07385 29.68461 28.37923
#
# Velocity S-wave (km/s) = 3.80693 3.98626 3.89762
# Velocity P-wave (km/s) = 7.10480 7.33645 7.22155
#
# Compressibility (1/GPa) = 0.01718214
#
# Stress axis : x y z
#
# Youngs Moduli (GPa) = 81.07213 82.74830 64.25870
#
# Poissons Ratio (x) = 0.34134 0.19374
# Poissons Ratio (y) = 0.33443 0.27372
# Poissons Ratio (z) = 0.24443 0.35248
#
# Static dielectric constant tensor:
#      x y z
#    x 1.607620 0.000000 0.009180 
#    y 0.000000 1.640650 0.000000 
#    z 0.009180 0.000000 1.644970 
# 
# From -- ./inp_files/87454.got.cif
#   From: 2010.05.17/outbox.cif.g08.bks.cpg/sg15_44_cif.got.tgz:87454.got - 2010.06.03 18:47:42.
