data_PCOD9294866
_publ_section_title
;
Structure prediction by ZEFSAII (Michael W. Deem and Ramdas Pophale) SiO2 
 PCOD9294866
Probable space group: C 2/C
;
_chemical_formula_sum "Si O2"
_cell_formula_units_Z 28
_cell_length_a 11.255408
_cell_length_b 20.539969
_cell_length_c 5.199677
_cell_angle_alpha 90.000000
_cell_angle_beta 79.600639
_cell_angle_gamma 90.000000
_cell_volume 1182.344961
_symmetry_space_group_name_H-M "C 2/C"
_symmetry_group_IT_number 15
_symmetry_cell_setting 'monoclinic'
loop_
_space_group_symop_operation_xyz
x,y,z
-x,y,1/2-z
-x,-y,-z
x,-y,1/2+z
1/2+x,1/2+y,z
1/2-x,1/2+y,1/2-z
1/2-x,1/2-y,-z
1/2+x,1/2-y,1/2+z
loop_
_atom_site_type_symbol
_atom_site_label
_atom_site_fract_x
_atom_site_fract_y
_atom_site_fract_z
Si Si1 0.790734 0.861503 0.469972
Si Si2 0.858023 0.264616 0.250876
Si Si3 0.500000 0.545309 0.750000
Si Si4 0.873330 0.456057 0.709110
O O1 0.849547 0.795880 0.556378
O O2 0.681793 0.834091 0.344048
O O3 0.733981 0.905644 0.714157
O O4 0.885094 0.907073 0.289845
O O5 0.750000 0.250000 0.500000
O O6 0.000000 0.268044 0.250000
O O7 0.500000 0.500000 0.500000
O O8 0.866482 0.487352 0.430418
O O9 0.000000 0.424193 0.750000
#
# Coordination Sequence:
#
# PCOD9294866 Si02
#       4
#     8   8   4   8
#     4  11  26  45  72 108 148 192 264 308 394 454
#     4  11  27  46  76 107 153 204 261 329 385 467
#     4  12  28  48  82 114 158 208 258 326 398 478
#     4  10  23  41  68 102 140 184 238 302 374 448
#
# _framework density 23.681750000000001
#
# number of rings (size 3 to 8) (size 9 to 14) (size 15 to 20)
#    0.000    1.143    0.000    3.429   14.000    3.429 
#    0.000    0.000    0.000    0.000    0.000    0.000 
#    0.000    0.000    0.000    0.000    0.000    0.000 
#
# Total GULP energy -78298.281512 kJ/mol
# GULP energy per Si atom -5592.734394 kJ/mol
# Density = 2.362785 g / cm^3
# Si number density = 23.681750 Si / 1000 Ang^3
#
#
#
# Elastic Constant Matrix: (Units=GPa)
#
#
# Indices 1 2 3 4 5 6 
#
# 1 169.4214 62.0285 35.2128 0.0000 -20.2103 0.0000
# 2 62.0285 120.6928 49.3820 0.0000 -13.5302 0.0000
# 3 35.2128 49.3820 108.5206 0.0000 -9.9703 0.0000
# 4 0.0000 0.0000 0.0000 27.5541 0.0000 -17.5140
# 5 -20.2103 -13.5302 -9.9703 0.0000 33.0714 0.0000
# 6 0.0000 0.0000 0.0000 -17.5140 0.0000 34.9845
#
#
#
# Elastic Compliance Matrix: (Units=1/GPa)
#
#
# Indices 1 2 3 4 5 6 
#
# 1 0.007619 -0.003284 -0.000693 0.000000 0.003104 0.000000
# 2 -0.003284 0.011865 -0.004188 0.000000 0.001584 0.000000
# 3 -0.000693 -0.004188 0.011466 0.000000 0.001320 0.000000
# 4 0.000000 0.000000 0.000000 0.053231 0.000000 0.026648
# 5 0.003104 0.001584 0.001320 0.000000 0.033180 0.000000
# 6 0.000000 0.000000 0.000000 0.026648 0.000000 0.041925
#
#
# Mechanical properties :
#
#
# Convention : Reuss Voigt Hill
#
# Bulk Modulus (GPa) = 68.39544 76.87571 72.63557
# Shear Modulus (GPa) = 27.70253 35.92277 31.81265
#
# Velocity S-wave (km/s) = 3.42392 3.89896 3.66914
# Velocity P-wave (km/s) = 6.67643 7.26648 6.97769
#
# Compressibility (1/GPa) = 0.01462086
#
# Stress axis : x y z
#
# Youngs Moduli (GPa) = 131.24884 84.28505 87.21121
#
# Poissons Ratio (x) = 0.27683 0.06040
# Poissons Ratio (y) = 0.43108 0.36521
# Poissons Ratio (z) = 0.09089 0.35295
#
# Static dielectric constant tensor:
#      x y z
#    x 1.665950 0.000000 0.093890 
#    y 0.000000 2.788180 0.000000 
#    z 0.093890 0.000000 1.919760 
# 
# From -- ./inp_files/3470.got.cif
#   From: 2010.05.17/outbox.cif.g08.bks.cpg/sg15_2_cif.got.tgz:3470.got - 2010.06.03 18:47:42.
