data_PCOD9294279
_publ_section_title
;
Structure prediction by ZEFSAII (Michael W. Deem and Ramdas Pophale) SiO2 
 PCOD9294279
Probable space group: C 2/C
;
_chemical_formula_sum "Si O2"
_cell_formula_units_Z 40
_cell_length_a 20.775497
_cell_length_b 8.742456
_cell_length_c 19.684944
_cell_angle_alpha 90.000000
_cell_angle_beta 24.500721
_cell_angle_gamma 90.000000
_cell_volume 1482.716127
_symmetry_space_group_name_H-M "C 2/C"
_symmetry_group_IT_number 15
_symmetry_cell_setting 'monoclinic'
loop_
_space_group_symop_operation_xyz
x,y,z
-x,y,1/2-z
-x,-y,-z
x,-y,1/2+z
1/2+x,1/2+y,z
1/2-x,1/2+y,1/2-z
1/2-x,1/2-y,-z
1/2+x,1/2-y,1/2+z
loop_
_atom_site_type_symbol
_atom_site_label
_atom_site_fract_x
_atom_site_fract_y
_atom_site_fract_z
Si Si1 0.153725 0.897966 0.337958
Si Si2 0.805670 0.044482 0.346164
Si Si3 0.900899 0.705134 0.412557
Si Si4 0.907518 0.258410 0.393121
Si Si5 0.190128 0.389847 0.719702
O O1 0.188311 0.955471 0.228898
O O2 0.267391 0.947999 0.289112
O O3 0.166447 0.718929 0.308755
O O4 0.000000 0.000000 0.500000
O O5 0.667474 0.167193 0.470202
O O6 0.970980 0.123416 0.206226
O O7 0.737275 0.919522 0.465735
O O8 0.822259 0.832234 0.538482
O O9 0.000000 0.747587 0.250000
O O10 0.029841 0.621798 0.334428
O O11 0.750000 0.250000 0.500000
O O12 0.000000 0.361307 0.250000
#
# Coordination Sequence:
#
# PCOD9294279 Si02
#       5
#     8   8   8   8   8
#     4  11  25  47  72 108 147 193 257 309 380 447
#     4  10  23  39  69 103 146 195 242 312 373 439
#     4  11  24  47  71 110 150 197 253 312 382 457
#     4   9  19  41  63 101 144 187 243 291 362 441
#     4  11  25  48  78 108 147 204 255 315 377 449
#
# _framework density 26.977518
#
# number of rings (size 3 to 8) (size 9 to 14) (size 15 to 20)
#    0.000    1.600    2.000    1.200    2.800    4.800 
#   14.400    6.000    0.000    0.000    0.000    0.000 
#    0.000    0.000    0.000    0.000    0.000    0.000 
#
# Total GULP energy -111490.454854 kJ/mol
# GULP energy per Si atom -5574.522743 kJ/mol
# Density = 2.691612 g / cm^3
# Si number density = 26.977518 Si / 1000 Ang^3
#
#
#
# Elastic Constant Matrix: (Units=GPa)
#
#
# Indices 1 2 3 4 5 6 
#
# 1 105.6604 26.4361 37.5907 -0.0002 -5.4903 0.0000
# 2 26.4361 96.9730 47.7274 -0.0009 3.5970 -0.0003
# 3 37.5907 47.7274 162.5531 -0.0008 -0.2663 -0.0003
# 4 -0.0002 -0.0009 -0.0008 50.7879 0.0006 -8.3049
# 5 -5.4903 3.5970 -0.2663 0.0006 58.0808 0.0002
# 6 0.0000 -0.0003 -0.0003 -8.3049 0.0002 1.7023
#
#
#
# Elastic Compliance Matrix: (Units=1/GPa)
#
#
# Indices 1 2 3 4 5 6 
#
# 1 0.010699 -0.002036 -0.001875 -0.000001 0.001129 -0.000003
# 2 -0.002036 0.012475 -0.003194 0.000002 -0.000980 0.000011
# 3 -0.001875 -0.003194 0.007523 0.000001 0.000055 0.000004
# 4 -0.000001 0.000002 0.000001 0.097370 -0.000003 0.475044
# 5 0.001129 -0.000980 0.000055 -0.000003 0.017385 -0.000014
# 6 -0.000003 0.000011 0.000004 0.475044 -0.000014 2.905089
#
#
# Mechanical properties :
#
#
# Convention : Reuss Voigt Hill
#
# Bulk Modulus (GPa) = 60.64570 65.41054 63.02812
# Shear Modulus (GPa) = 1.62853 39.00967 20.31910
#
# Velocity S-wave (km/s) = 0.77780 3.80676 2.74740
# Velocity P-wave (km/s) = 4.83069 6.60461 5.78604
#
# Compressibility (1/GPa) = 0.01648921
#
# Stress axis : x y z
#
# Youngs Moduli (GPa) = 93.46435 80.15798 132.92347
#
# Poissons Ratio (x) = 0.16320 0.24918
# Poissons Ratio (y) = 0.19029 0.42451
# Poissons Ratio (z) = 0.17521 0.25600
#
# Static dielectric constant tensor:
#      x y z
#    x 2.277430 0.000000 0.053770 
#    y 0.000000 2.464270 0.000000 
#    z 0.053770 0.000000 2.181280 
# 
# From -- ./inp_files/281865.got.cif
#   From: 2010.05.17/outbox.cif.g08.bks.cpg/sg15_141_cif.got.tgz:281865.got - 2010.06.03 18:47:42.
