data_PCOD9294313
_publ_section_title
;
Structure prediction by ZEFSAII (Michael W. Deem and Ramdas Pophale) SiO2 
 PCOD9294313
Probable space group: C 2/C
;
_chemical_formula_sum "Si O2"
_cell_formula_units_Z 60
_cell_length_a 24.037283
_cell_length_b 21.600230
_cell_length_c 12.452173
_cell_angle_alpha 90.000000
_cell_angle_beta 28.779080
_cell_angle_gamma 90.000000
_cell_volume 3112.614737
_symmetry_space_group_name_H-M "C 2/C"
_symmetry_group_IT_number 15
_symmetry_cell_setting 'monoclinic'
loop_
_space_group_symop_operation_xyz
x,y,z
-x,y,1/2-z
-x,-y,-z
x,-y,1/2+z
1/2+x,1/2+y,z
1/2-x,1/2+y,1/2-z
1/2-x,1/2-y,-z
1/2+x,1/2-y,1/2+z
loop_
_atom_site_type_symbol
_atom_site_label
_atom_site_fract_x
_atom_site_fract_y
_atom_site_fract_z
Si Si1 0.000000 0.765536 0.750000
Si Si2 0.073403 0.610195 0.961951
Si Si3 0.785991 0.508260 0.875092
Si Si4 0.857213 0.099692 0.252138
Si Si5 0.331812 0.193102 0.884925
Si Si6 0.384006 0.493122 0.512327
Si Si7 0.172118 0.602599 0.036685
Si Si8 0.401520 0.365123 0.066578
O O1 0.937732 0.720771 0.771437
O O2 0.089357 0.812371 0.539439
O O3 0.101573 0.546864 0.849853
O O4 0.129178 0.662136 0.792589
O O5 0.131374 0.600982 0.981022
O O6 0.939556 0.625336 0.208857
O O7 0.728467 0.477107 0.868759
O O8 0.803118 0.463148 0.946973
O O9 0.687624 0.558274 0.072901
O O10 0.748158 0.144089 0.415527
O O11 0.884472 0.051682 0.112913
O O12 0.973948 0.135069 0.086275
O O13 0.250000 0.250000 0.000000
O O14 0.385753 0.565316 0.545319
O O15 0.500000 0.481627 0.250000
O O16 0.291182 0.640968 0.831376
#
# Coordination Sequence:
#
# PCOD9294313 Si02
#       8
#     4   8   8   8   8   8   8   8
#     4  12  24  42  74  98 120 178 228 272 318 382
#     4  10  23  40  59  90 125 175 220 263 315 388
#     4  11  19  35  59  92 131 166 209 257 323 397
#     4  11  22  38  62  98 130 165 212 269 323 383
#     4  11  24  45  69  92 125 166 231 274 307 382
#     4  12  21  33  61 100 137 161 202 268 337 399
#     4  11  22  37  61  90 131 172 209 260 335 396
#     4  12  20  38  64  97 127 166 213 260 333 395
#
# _framework density 19.276396999999999
#
# number of rings (size 3 to 8) (size 9 to 14) (size 15 to 20)
#    0.000    0.800    6.000    2.400    0.000    1.067 
#    0.000    6.000    5.867    0.000    0.000    0.000 
#    0.000    0.000    0.000    0.000    0.000    0.000 
#
# Total GULP energy -167380.184991 kJ/mol
# GULP energy per Si atom -5579.339500 kJ/mol
# Density = 1.923252 g / cm^3
# Si number density = 19.276397 Si / 1000 Ang^3
#
#
#
# Elastic Constant Matrix: (Units=GPa)
#
#
# Indices 1 2 3 4 5 6 
#
# 1 76.2305 34.6755 23.7497 0.0002 6.1464 -0.0002
# 2 34.6755 60.7648 30.6980 0.0002 5.5312 -0.0001
# 3 23.7497 30.6980 149.3759 0.0003 -1.2348 -0.0003
# 4 0.0002 0.0002 0.0003 25.8571 -0.0002 -0.9982
# 5 6.1464 5.5312 -1.2348 -0.0002 23.0106 0.0002
# 6 -0.0002 -0.0001 -0.0003 -0.9982 0.0002 23.0977
#
#
#
# Elastic Compliance Matrix: (Units=1/GPa)
#
#
# Indices 1 2 3 4 5 6 
#
# 1 0.017953 -0.009552 -0.000912 0.000000 -0.002548 0.000000
# 2 -0.009552 0.023950 -0.003431 0.000000 -0.003390 0.000000
# 3 -0.000912 -0.003431 0.007557 0.000000 0.001474 0.000000
# 4 0.000000 0.000000 0.000000 0.038739 0.000000 0.001674
# 5 -0.002548 -0.003390 0.001474 0.000000 0.045033 0.000000
# 6 0.000000 0.000000 0.000000 0.001674 0.000000 0.043367
#
#
# Mechanical properties :
#
#
# Convention : Reuss Voigt Hill
#
# Bulk Modulus (GPa) = 46.15025 51.62417 48.88721
# Shear Modulus (GPa) = 23.62821 27.54293 25.58557
#
# Velocity S-wave (km/s) = 3.50488 3.78410 3.64717
# Velocity P-wave (km/s) = 6.35391 6.77730 6.56902
#
# Compressibility (1/GPa) = 0.02166836
#
# Stress axis : x y z
#
# Youngs Moduli (GPa) = 55.70170 41.75422 132.32906
#
# Poissons Ratio (x) = 0.39883 0.12074
# Poissons Ratio (y) = 0.53206 0.45405
# Poissons Ratio (z) = 0.05082 0.14327
#
# Static dielectric constant tensor:
#      x y z
#    x 7.969040 0.000020 -2.109290 
#    y 0.000020 1.668210 -0.000010 
#    z -2.109290 -0.000010 2.396090 
# 
# From -- ./inp_files/119923.got.cif
#   From: 2010.05.17/outbox.cif.g08.bks.cpg/sg15_60_cif.got.tgz:119923.got - 2010.06.03 18:47:42.
