data_PCOD9294591
_publ_section_title
;
Structure prediction by ZEFSAII (Michael W. Deem and Ramdas Pophale) SiO2 
 PCOD9294591
Probable space group: C 2/C
;
_chemical_formula_sum "Si O2"
_cell_formula_units_Z 52
_cell_length_a 27.254103
_cell_length_b 11.956056
_cell_length_c 7.689868
_cell_angle_alpha 90.000000
_cell_angle_beta 54.454189
_cell_angle_gamma 90.000000
_cell_volume 2038.810480
_symmetry_space_group_name_H-M "C 2/C"
_symmetry_group_IT_number 15
_symmetry_cell_setting 'monoclinic'
loop_
_space_group_symop_operation_xyz
x,y,z
-x,y,1/2-z
-x,-y,-z
x,-y,1/2+z
1/2+x,1/2+y,z
1/2-x,1/2+y,1/2-z
1/2-x,1/2-y,-z
1/2+x,1/2-y,1/2+z
loop_
_atom_site_type_symbol
_atom_site_label
_atom_site_fract_x
_atom_site_fract_y
_atom_site_fract_z
Si Si1 0.209056 0.842335 0.773156
Si Si2 0.337140 0.124120 0.176468
Si Si3 0.635221 0.130393 0.973306
Si Si4 0.339837 0.523289 0.815353
Si Si5 0.000000 0.714342 0.250000
Si Si6 0.024310 0.117009 0.011511
Si Si7 0.632809 0.345923 0.501132
O O1 0.271279 0.841731 0.746142
O O2 0.213613 0.926056 0.601340
O O3 0.177243 0.724830 0.795801
O O4 0.163358 0.908014 0.996003
O O5 0.350908 0.145333 0.349920
O O6 0.377454 0.215676 0.987294
O O7 0.350236 0.996014 0.108556
O O8 0.563404 0.150700 0.089812
O O9 0.310260 0.610161 0.724403
O O10 0.383523 0.414467 0.796800
O O11 0.013818 0.792515 0.387537
O O12 0.000000 0.151264 0.250000
O O13 0.094996 0.094945 0.913803
O O14 0.000000 0.000000 0.000000
#
# Coordination Sequence:
#
# PCOD9294591 Si02
#       7
#     8   8   8   8   4   8   8
#     4  11  24  45  73 109 144 190 252 313 384 455
#     4  12  27  47  73 106 148 199 253 309 383 459
#     4  12  29  50  75 107 154 204 256 318 380 470
#     4  10  23  40  73 100 147 187 229 314 383 451
#     4  12  28  54  72 112 160 208 268 316 380 468
#     4  12  25  42  77 111 152 199 257 322 388 454
#     4  11  24  45  66 109 144 187 245 307 388 449
#
# _framework density 25.505065999999999
#
# number of rings (size 3 to 8) (size 9 to 14) (size 15 to 20)
#    0.000    0.615    3.846    2.308   12.923    1.231 
#    1.385    0.000    0.000    0.000    0.000    0.000 
#    0.000    0.000    0.000    0.000    0.000    0.000 
#
# Total GULP energy -145027.249225 kJ/mol
# GULP energy per Si atom -5577.971124 kJ/mol
# Density = 2.544702 g / cm^3
# Si number density = 25.505066 Si / 1000 Ang^3
#
#
#
# Elastic Constant Matrix: (Units=GPa)
#
#
# Indices 1 2 3 4 5 6 
#
# 1 158.4668 48.3871 20.3743 0.0000 -7.1004 0.0000
# 2 48.3871 231.4943 31.6937 0.0000 -12.7431 0.0000
# 3 20.3743 31.6937 60.0782 0.0000 12.4013 0.0000
# 4 0.0000 0.0000 0.0000 39.9929 0.0000 7.5671
# 5 -7.1004 -12.7431 12.4013 0.0000 48.1496 0.0000
# 6 0.0000 0.0000 0.0000 7.5671 0.0000 44.7765
#
#
#
# Elastic Compliance Matrix: (Units=1/GPa)
#
#
# Indices 1 2 3 4 5 6 
#
# 1 0.006967 -0.001108 -0.002038 0.000000 0.001259 0.000000
# 2 -0.001108 0.005016 -0.002652 0.000000 0.001847 0.000000
# 3 -0.002038 -0.002652 0.020006 0.000000 -0.006155 0.000000
# 4 0.000000 0.000000 0.000000 0.025830 0.000000 -0.004365
# 5 0.001259 0.001847 -0.006155 0.000000 0.023028 0.000000
# 6 0.000000 0.000000 0.000000 -0.004365 0.000000 0.023071
#
#
# Mechanical properties :
#
#
# Convention : Reuss Voigt Hill
#
# Bulk Modulus (GPa) = 49.03617 72.32773 60.68195
# Shear Modulus (GPa) = 40.87903 49.88940 45.38421
#
# Velocity S-wave (km/s) = 4.00782 4.42753 4.22289
# Velocity P-wave (km/s) = 6.37845 7.38628 6.90079
#
# Compressibility (1/GPa) = 0.02039311
#
# Stress axis : x y z
#
# Youngs Moduli (GPa) = 143.52859 199.35939 49.98601
#
# Poissons Ratio (x) = 0.22088 0.10188
# Poissons Ratio (y) = 0.15902 0.13255
# Poissons Ratio (z) = 0.29255 0.52865
#
# Static dielectric constant tensor:
#      x y z
#    x 2.489340 0.000000 -0.077810 
#    y 0.000000 2.138940 0.000000 
#    z -0.077810 0.000000 2.136470 
# 
# From -- ./inp_files/65356.got.cif
#   From: 2010.05.17/outbox.cif.g08.bks.cpg/sg15_33_cif.got.tgz:65356.got - 2010.06.03 18:47:42.
