data_PCOD9294086
_publ_section_title
;
Structure prediction by ZEFSAII (Michael W. Deem and Ramdas Pophale) SiO2 
 PCOD9294086
Probable space group: C 2/C
;
_chemical_formula_sum "Si O2"
_cell_formula_units_Z 32
_cell_length_a 18.428245
_cell_length_b 9.100651
_cell_length_c 8.617124
_cell_angle_alpha 90.000000
_cell_angle_beta 126.000551
_cell_angle_gamma 90.000000
_cell_volume 1169.158496
_symmetry_space_group_name_H-M "C 2/C"
_symmetry_group_IT_number 15
_symmetry_cell_setting 'monoclinic'
loop_
_space_group_symop_operation_xyz
x,y,z
-x,y,1/2-z
-x,-y,-z
x,-y,1/2+z
1/2+x,1/2+y,z
1/2-x,1/2+y,1/2-z
1/2-x,1/2-y,-z
1/2+x,1/2-y,1/2+z
loop_
_atom_site_type_symbol
_atom_site_label
_atom_site_fract_x
_atom_site_fract_y
_atom_site_fract_z
Si Si1 0.248610 0.626156 0.199841
Si Si2 0.932380 0.015669 0.273967
Si Si3 0.389511 0.212818 0.036589
Si Si4 0.128963 0.562494 0.778669
O O1 0.337346 0.564842 0.224893
O O2 0.286406 0.755477 0.355446
O O3 0.202291 0.516037 0.260865
O O4 0.176465 0.656990 0.974147
O O5 0.913168 0.863338 0.155784
O O6 0.000000 0.110213 0.250000
O O7 0.000000 0.000000 0.500000
O O8 0.406948 0.077792 0.172709
O O9 0.427678 0.159758 0.914858
#
# Coordination Sequence:
#
# PCOD9294086 Si02
#       4
#     8   8   8   8
#     4  11  20  40  70  98 136 171 218 286 323 393
#     4  12  24  44  69  96 130 181 229 270 317 391
#     4  11  23  43  64  99 141 169 224 271 333 406
#     4  10  23  38  67 106 132 175 210 279 358 372
#
# _framework density 27.370111999999999
#
# number of rings (size 3 to 8) (size 9 to 14) (size 15 to 20)
#    0.000    1.000    5.000    1.500    3.500    0.000 
#    9.000    1.250    0.000    0.000    0.000    0.000 
#    0.000    0.000    0.000    0.000    0.000    0.000 
#
# Total GULP energy -89245.447037 kJ/mol
# GULP energy per Si atom -5577.840440 kJ/mol
# Density = 2.730782 g / cm^3
# Si number density = 27.370112 Si / 1000 Ang^3
#
#
#
# Elastic Constant Matrix: (Units=GPa)
#
#
# Indices 1 2 3 4 5 6 
#
# 1 139.3156 20.8443 38.3051 0.0000 -14.9301 0.0000
# 2 20.8443 109.8295 45.5356 0.0000 2.0126 0.0000
# 3 38.3051 45.5356 223.1529 0.0000 -0.7231 0.0000
# 4 0.0000 0.0000 0.0000 42.2050 0.0000 -17.2844
# 5 -14.9301 2.0126 -0.7231 0.0000 38.2012 0.0000
# 6 0.0000 0.0000 0.0000 -17.2844 0.0000 15.8042
#
#
#
# Elastic Compliance Matrix: (Units=1/GPa)
#
#
# Indices 1 2 3 4 5 6 
#
# 1 0.007994 -0.001104 -0.001137 0.000000 0.003161 0.000000
# 2 -0.001104 0.010111 -0.001877 0.000000 -0.001000 0.000000
# 3 -0.001137 -0.001877 0.005059 0.000000 -0.000250 0.000000
# 4 0.000000 0.000000 0.000000 0.042915 0.000000 0.046935
# 5 0.003161 -0.001000 -0.000250 0.000000 0.027461 0.000000
# 6 0.000000 0.000000 0.000000 0.046935 0.000000 0.114605
#
#
# Mechanical properties :
#
#
# Convention : Reuss Voigt Hill
#
# Bulk Modulus (GPa) = 66.98459 75.74088 71.36273
# Shear Modulus (GPa) = 22.58807 43.74964 33.16885
#
# Velocity S-wave (km/s) = 2.87589 4.00239 3.48496
# Velocity P-wave (km/s) = 5.96275 7.00655 6.50562
#
# Compressibility (1/GPa) = 0.01492881
#
# Stress axis : x y z
#
# Youngs Moduli (GPa) = 125.08706 98.90183 197.68460
#
# Poissons Ratio (x) = 0.10917 0.22472
# Poissons Ratio (y) = 0.13808 0.37105
# Poissons Ratio (z) = 0.14220 0.18564
#
# Static dielectric constant tensor:
#      x y z
#    x 2.244460 0.000000 -0.046970 
#    y 0.000000 2.319010 0.000000 
#    z -0.046970 0.000000 2.183500 
# 
# From -- ./inp_files/45649.got.cif
#   From: 2010.05.17/outbox.cif.g08.bks.cpg/sg15_23_cif.got.tgz:45649.got - 2010.06.03 18:47:42.
