data_PCOD9294555
_publ_section_title
;
Structure prediction by ZEFSAII (Michael W. Deem and Ramdas Pophale) SiO2 
 PCOD9294555
Probable space group: C 2/C
;
_chemical_formula_sum "Si O2"
_cell_formula_units_Z 40
_cell_length_a 14.711604
_cell_length_b 17.124454
_cell_length_c 11.372240
_cell_angle_alpha 90.000000
_cell_angle_beta 33.923182
_cell_angle_gamma 90.000000
_cell_volume 1598.894932
_symmetry_space_group_name_H-M "C 2/C"
_symmetry_group_IT_number 15
_symmetry_cell_setting 'monoclinic'
loop_
_space_group_symop_operation_xyz
x,y,z
-x,y,1/2-z
-x,-y,-z
x,-y,1/2+z
1/2+x,1/2+y,z
1/2-x,1/2+y,1/2-z
1/2-x,1/2-y,-z
1/2+x,1/2-y,1/2+z
loop_
_atom_site_type_symbol
_atom_site_label
_atom_site_fract_x
_atom_site_fract_y
_atom_site_fract_z
Si Si1 0.569914 0.147159 0.931007
Si Si2 0.238394 0.426198 0.048839
Si Si3 0.299852 0.691374 0.106944
Si Si4 0.817112 0.399102 0.966381
Si Si5 0.534723 0.417087 0.904857
O O1 0.596457 0.120312 0.768201
O O2 0.664500 0.223484 0.879004
O O3 0.379277 0.162775 0.158134
O O4 0.662264 0.083809 0.916651
O O5 0.208240 0.519598 0.075459
O O6 0.389040 0.404052 0.971183
O O7 0.302982 0.409287 0.849129
O O8 0.296356 0.665948 0.972902
O O9 0.442254 0.641561 0.013937
O O10 0.000000 0.368418 0.750000
O O11 0.500000 0.500000 0.000000
#
# Coordination Sequence:
#
# PCOD9294555 Si02
#       5
#     8   8   8   8   8
#     4  11  25  44  69 104 141 186 236 290 358 414
#     4  11  24  41  68 102 139 180 228 294 348 420
#     4  11  24  45  72  99 144 186 235 294 350 423
#     4  10  23  40  69 102 136 184 233 290 348 411
#     4  11  23  43  67 100 134 181 231 284 350 417
#
# _framework density 25.017278000000001
#
# number of rings (size 3 to 8) (size 9 to 14) (size 15 to 20)
#    0.000    1.200    2.000    3.000    2.800    2.400 
#    0.000    0.000    0.000    0.000    0.000    0.000 
#    0.000    0.000    0.000    0.000    0.000    0.000 
#
# Total GULP energy -111590.681902 kJ/mol
# GULP energy per Si atom -5579.534095 kJ/mol
# Density = 2.496034 g / cm^3
# Si number density = 25.017278 Si / 1000 Ang^3
#
#
#
# Elastic Constant Matrix: (Units=GPa)
#
#
# Indices 1 2 3 4 5 6 
#
# 1 141.8138 32.3371 27.5520 -0.0003 1.1994 0.0003
# 2 32.3371 69.5473 4.9123 -0.0001 -3.3262 0.0001
# 3 27.5520 4.9123 124.8680 -0.0002 16.9213 0.0002
# 4 -0.0003 -0.0001 -0.0002 21.6488 0.0003 -14.8745
# 5 1.1994 -3.3262 16.9213 0.0003 45.9614 -0.0004
# 6 0.0003 0.0001 0.0002 -14.8745 -0.0004 26.1429
#
#
#
# Elastic Compliance Matrix: (Units=1/GPa)
#
#
# Indices 1 2 3 4 5 6 
#
# 1 0.008221 -0.003697 -0.001687 0.000000 0.000139 0.000000
# 2 -0.003697 0.016157 0.000009 0.000000 0.001262 0.000000
# 3 -0.001687 0.000009 0.008814 0.000000 -0.003200 0.000000
# 4 0.000000 0.000000 0.000000 0.075840 0.000000 0.043151
# 5 0.000139 0.001262 -0.003200 0.000000 0.023023 0.000000
# 6 0.000000 0.000000 0.000000 0.043151 0.000000 0.062803
#
#
# Mechanical properties :
#
#
# Convention : Reuss Voigt Hill
#
# Bulk Modulus (GPa) = 44.55883 51.75911 48.15897
# Shear Modulus (GPa) = 23.46425 36.84579 30.15502
#
# Velocity S-wave (km/s) = 3.06587 3.84189 3.47561
# Velocity P-wave (km/s) = 5.51205 6.35723 5.94967
#
# Compressibility (1/GPa) = 0.02244224
#
# Stress axis : x y z
#
# Youngs Moduli (GPa) = 121.63826 61.89157 113.45433
#
# Poissons Ratio (x) = 0.22879 0.19144
# Poissons Ratio (y) = 0.44966 -0.00102
# Poissons Ratio (z) = 0.20525 -0.00056
#
# Static dielectric constant tensor:
#      x y z
#    x 1.980690 0.000000 0.082650 
#    y 0.000000 2.036510 0.000000 
#    z 0.082650 0.000000 2.178650 
# 
# From -- ./inp_files/98102.got.cif
#   From: 2010.05.17/outbox.cif.g08.bks.cpg/sg15_50_cif.got.tgz:98102.got - 2010.06.03 18:47:42.
