data_PCOD9294995
_publ_section_title
;
Structure prediction by ZEFSAII (Michael W. Deem and Ramdas Pophale) SiO2 
 PCOD9294995
Probable space group: C 2/C
;
_chemical_formula_sum "Si O2"
_cell_formula_units_Z 36
_cell_length_a 12.525094
_cell_length_b 7.300576
_cell_length_c 18.661558
_cell_angle_alpha 90.000000
_cell_angle_beta 123.513901
_cell_angle_gamma 90.000000
_cell_volume 1422.731180
_symmetry_space_group_name_H-M "C 2/C"
_symmetry_group_IT_number 15
_symmetry_cell_setting 'monoclinic'
loop_
_space_group_symop_operation_xyz
x,y,z
-x,y,1/2-z
-x,-y,-z
x,-y,1/2+z
1/2+x,1/2+y,z
1/2-x,1/2+y,1/2-z
1/2-x,1/2-y,-z
1/2+x,1/2-y,1/2+z
loop_
_atom_site_type_symbol
_atom_site_label
_atom_site_fract_x
_atom_site_fract_y
_atom_site_fract_z
Si Si1 0.422440 0.277425 0.957168
Si Si2 0.865383 0.886924 0.677046
Si Si3 0.000000 0.528589 0.750000
Si Si4 0.326623 0.559664 0.014864
Si Si5 0.604131 0.085192 0.142847
O O1 0.309593 0.404336 0.948233
O O2 0.504619 0.194820 0.054984
O O3 0.526781 0.389919 0.949529
O O4 0.390567 0.115645 0.890974
O O5 0.818437 0.007652 0.592990
O O6 0.000000 0.970733 0.750000
O O7 0.907135 0.676165 0.675717
O O8 0.750815 0.854085 0.689326
O O9 0.063304 0.418051 0.709635
O O10 0.250000 0.750000 0.000000
#
# Coordination Sequence:
#
# PCOD9294995 Si02
#       5
#     8   8   4   8   8
#     4  10  23  41  74 104 132 184 242 299 354 428
#     4  10  23  44  67  99 143 188 224 287 362 427
#     4  10  24  46  64  98 148 180 226 296 354 426
#     4  11  21  45  72  99 142 183 236 298 363 426
#     4  11  22  47  70 105 141 182 247 292 361 438
#
# _framework density 25.303443999999999
#
# number of rings (size 3 to 8) (size 9 to 14) (size 15 to 20)
#    0.667    0.889    4.444    0.000    0.000    2.667 
#   10.000    0.000    0.000    0.000    0.000    0.000 
#    0.000    0.000    0.000    0.000    0.000    0.000 
#
# Total GULP energy -100331.195460 kJ/mol
# GULP energy per Si atom -5573.955303 kJ/mol
# Density = 2.524585 g / cm^3
# Si number density = 25.303444 Si / 1000 Ang^3
#
#
#
# Elastic Constant Matrix: (Units=GPa)
#
#
# Indices 1 2 3 4 5 6 
#
# 1 150.2728 23.8264 38.0228 0.0000 -44.7130 0.0000
# 2 23.8264 79.8211 6.9392 0.0000 -4.0421 0.0000
# 3 38.0228 6.9392 80.3758 0.0000 -27.5176 0.0000
# 4 0.0000 0.0000 0.0000 9.5556 0.0000 -29.6334
# 5 -44.7130 -4.0421 -27.5176 0.0000 49.8753 0.0000
# 6 0.0000 0.0000 0.0000 -29.6334 0.0000 26.7197
#
#
#
# Elastic Compliance Matrix: (Units=1/GPa)
#
#
# Indices 1 2 3 4 5 6 
#
# 1 0.009730 -0.002365 -0.001822 0.000000 0.007526 0.000000
# 2 -0.002365 0.013208 -0.000470 0.000000 -0.001309 0.000000
# 3 -0.001822 -0.000470 0.015746 0.000000 0.007016 0.000000
# 4 0.000000 0.000000 0.000000 -0.042902 0.000000 -0.047580
# 5 0.007526 -0.001309 0.007016 0.000000 0.030562 0.000000
# 6 0.000000 0.000000 0.000000 -0.047580 0.000000 -0.015343
#
#
# Mechanical properties :
#
#
# Convention : Reuss Voigt Hill
#
# Bulk Modulus (GPa) = 34.04704 49.78292 41.91498
# Shear Modulus (GPa) = 166.08362 33.34221 99.71291
#
# Velocity S-wave (km/s) = 8.11044 3.63394 6.28430
# Velocity P-wave (km/s) = 10.05934 6.10938 8.32210
#
# Compressibility (1/GPa) = 0.02937113
#
# Stress axis : x y z
#
# Youngs Moduli (GPa) = 102.77688 75.70897 63.50790
#
# Poissons Ratio (x) = 0.17904 0.11572
# Poissons Ratio (y) = 0.24305 0.02983
# Poissons Ratio (z) = 0.18727 0.03556
#
# Static dielectric constant tensor:
#      x y z
#    x 1.976490 0.000000 0.062480 
#    y 0.000000 2.067920 0.000000 
#    z 0.062480 0.000000 2.173010 
# 
# From -- ./inp_files/195286.got.cif
#   From: 2010.05.17/outbox.cif.g08.bks.cpg/sg15_98_cif.got.tgz:195286.got - 2010.06.03 18:47:42.
