data_PCOD9294178
_publ_section_title
;
Structure prediction by ZEFSAII (Michael W. Deem and Ramdas Pophale) SiO2 
 PCOD9294178
Probable space group: C 2/C
;
_chemical_formula_sum "Si O2"
_cell_formula_units_Z 60
_cell_length_a 22.349742
_cell_length_b 5.320625
_cell_length_c 24.875319
_cell_angle_alpha 90.000000
_cell_angle_beta 111.834818
_cell_angle_gamma 90.000000
_cell_volume 2745.828766
_symmetry_space_group_name_H-M "C 2/C"
_symmetry_group_IT_number 15
_symmetry_cell_setting 'monoclinic'
loop_
_space_group_symop_operation_xyz
x,y,z
-x,y,1/2-z
-x,-y,-z
x,-y,1/2+z
1/2+x,1/2+y,z
1/2-x,1/2+y,1/2-z
1/2-x,1/2-y,-z
1/2+x,1/2-y,1/2+z
loop_
_atom_site_type_symbol
_atom_site_label
_atom_site_fract_x
_atom_site_fract_y
_atom_site_fract_z
Si Si1 0.247438 0.725246 0.658167
Si Si2 0.500000 0.563193 0.750000
Si Si3 0.043635 0.746089 0.009597
Si Si4 0.872263 0.980279 0.377664
Si Si5 0.549332 0.794182 0.171334
Si Si6 0.876777 0.864151 0.139257
Si Si7 0.825721 0.609632 0.281799
Si Si8 0.913341 0.382671 0.093055
O O1 0.187489 0.880765 0.614015
O O2 0.283133 0.891917 0.715025
O O3 0.305810 0.631487 0.641478
O O4 0.213350 0.510273 0.681929
O O5 0.470718 0.395614 0.788440
O O6 0.564159 0.689686 0.798306
O O7 0.095665 0.770191 0.074943
O O8 0.081749 0.710508 0.966481
O O9 0.000000 0.500000 0.000000
O O10 0.000000 0.000000 0.000000
O O11 0.846771 0.877893 0.311833
O O12 0.928735 0.162400 0.376587
O O13 0.609495 0.959258 0.208239
O O14 0.486336 0.948689 0.135328
O O15 0.876296 0.637130 0.095759
O O16 0.891136 0.138649 0.119385
#
# Coordination Sequence:
#
# PCOD9294178 Si02
#       8
#     8   4   8   8   8   8   8   8
#     4  11  25  41  65  97 140 188 226 281 339 415
#     4  10  24  38  64  96 138 180 220 272 346 424
#     4  12  25  46  76 104 135 176 230 297 347 398
#     4  11  24  43  69  99 133 178 234 286 343 406
#     4  10  23  39  63 101 132 175 221 282 343 413
#     4  11  27  43  66  96 142 184 222 276 344 413
#     4  11  23  40  66  97 138 178 234 279 336 409
#     4  11  25  45  67 101 138 172 227 286 343 407
#
# _framework density 21.851327000000001
#
# number of rings (size 3 to 8) (size 9 to 14) (size 15 to 20)
#    0.000    1.067    2.667    2.400   16.800    0.533 
#    0.000    1.333    0.000    0.000    0.000    0.000 
#    0.000    0.000    0.000    0.000    0.000    0.000 
#
# Total GULP energy -167594.027433 kJ/mol
# GULP energy per Si atom -5586.467581 kJ/mol
# Density = 2.180159 g / cm^3
# Si number density = 21.851327 Si / 1000 Ang^3
#
#
#
# Elastic Constant Matrix: (Units=GPa)
#
#
# Indices 1 2 3 4 5 6 
#
# 1 143.5063 34.9964 24.1622 0.0000 -31.0338 0.0001
# 2 34.9964 71.4336 -2.7518 -0.0003 -12.4213 0.0005
# 3 24.1622 -2.7518 49.7233 0.0000 -7.0095 0.0002
# 4 0.0000 -0.0003 0.0000 21.4441 0.0002 -4.0948
# 5 -31.0338 -12.4213 -7.0095 0.0002 23.6347 -0.0001
# 6 0.0001 0.0005 0.0002 -4.0948 -0.0001 34.9497
#
#
#
# Elastic Compliance Matrix: (Units=1/GPa)
#
#
# Indices 1 2 3 4 5 6 
#
# 1 0.010945 -0.003539 -0.003914 0.000000 0.011351 0.000000
# 2 -0.003539 0.016761 0.003375 0.000000 0.005162 0.000000
# 3 -0.003914 0.003375 0.022674 0.000000 0.003358 0.000000
# 4 0.000000 0.000000 0.000000 0.047700 -0.000001 0.005589
# 5 0.011351 0.005162 0.003358 -0.000001 0.060924 0.000000
# 6 0.000000 0.000000 0.000000 0.005589 0.000000 0.029267
#
#
# Mechanical properties :
#
#
# Convention : Reuss Voigt Hill
#
# Bulk Modulus (GPa) = 23.68412 41.94187 32.81299
# Shear Modulus (GPa) = 23.75278 29.88945 26.82112
#
# Velocity S-wave (km/s) = 3.30057 3.70247 3.50728
# Velocity P-wave (km/s) = 5.03858 6.12483 5.60807
#
# Compressibility (1/GPa) = 0.04222239
#
# Stress axis : x y z
#
# Youngs Moduli (GPa) = 91.36493 59.66366 44.10406
#
# Poissons Ratio (x) = 0.21117 0.17264
# Poissons Ratio (y) = 0.32336 -0.14886
# Poissons Ratio (z) = 0.35764 -0.20137
#
# Static dielectric constant tensor:
#      x y z
#    x 1.808610 0.000000 0.029620 
#    y 0.000000 1.845410 0.000000 
#    z 0.029620 0.000000 1.846350 
# 
# From -- ./inp_files/278953.got.cif
#   From: 2010.05.17/outbox.cif.g08.bks.cpg/sg15_140_cif.got.tgz:278953.got - 2010.06.03 18:47:42.
