data_PCOD9294782
_publ_section_title
;
Structure prediction by ZEFSAII (Michael W. Deem and Ramdas Pophale) SiO2 
 PCOD9294782
Probable space group: C 2/C
;
_chemical_formula_sum "Si O2"
_cell_formula_units_Z 48
_cell_length_a 15.026277
_cell_length_b 19.850521
_cell_length_c 11.491088
_cell_angle_alpha 90.000000
_cell_angle_beta 137.705381
_cell_angle_gamma 90.000000
_cell_volume 2306.549404
_symmetry_space_group_name_H-M "C 2/C"
_symmetry_group_IT_number 15
_symmetry_cell_setting 'monoclinic'
loop_
_space_group_symop_operation_xyz
x,y,z
-x,y,1/2-z
-x,-y,-z
x,-y,1/2+z
1/2+x,1/2+y,z
1/2-x,1/2+y,1/2-z
1/2-x,1/2-y,-z
1/2+x,1/2-y,1/2+z
loop_
_atom_site_type_symbol
_atom_site_label
_atom_site_fract_x
_atom_site_fract_y
_atom_site_fract_z
Si Si1 0.382819 0.064623 0.012014
Si Si2 0.133254 0.296326 0.852530
Si Si3 0.338457 0.112711 0.305840
Si Si4 0.157951 0.070316 0.598540
Si Si5 0.650294 0.081140 0.921280
Si Si6 0.057162 0.074740 0.933669
O O1 0.274323 0.055714 0.805561
O O2 0.367625 0.134387 0.070210
O O3 0.530824 0.068449 0.099961
O O4 0.359453 0.000260 0.071923
O O5 0.127254 0.314553 0.711305
O O6 0.000000 0.257688 0.750000
O O7 0.250000 0.250000 0.000000
O O8 0.311822 0.107596 0.415344
O O9 0.204428 0.098324 0.105825
O O10 0.241940 0.099468 0.571964
O O11 0.045144 0.103946 0.569570
O O12 0.078599 0.005842 0.471066
O O13 0.500000 0.103870 0.750000
O O14 0.000000 0.086983 0.750000
#
# Coordination Sequence:
#
# PCOD9294782 Si02
#       6
#     8   8   8   8   8   8
#     4  11  21  39  61  90 122 164 211 262 307 378
#     4  10  23  41  66  91 118 160 220 270 313 358
#     4  11  22  39  60  90 124 162 211 258 313 379
#     4  11  22  34  53  83 125 169 204 239 314 381
#     4  12  21  34  61  94 132 163 199 257 321 383
#     4  11  23  36  51  81 130 173 201 247 306 375
#
# _framework density 20.810306000000001
#
# number of rings (size 3 to 8) (size 9 to 14) (size 15 to 20)
#    0.000    1.000    3.333    6.000    2.333    2.000 
#    0.000    0.000    0.000    1.000    0.000    0.000 
#    0.000    0.000    0.000    0.000    0.000    0.000 
#
# Total GULP energy -133848.627484 kJ/mol
# GULP energy per Si atom -5577.026145 kJ/mol
# Density = 2.076294 g / cm^3
# Si number density = 20.810306 Si / 1000 Ang^3
#
#
#
# Elastic Constant Matrix: (Units=GPa)
#
#
# Indices 1 2 3 4 5 6 
#
# 1 193.7802 14.1266 64.2172 0.0000 10.1891 0.0000
# 2 14.1266 23.5549 18.4202 0.0000 1.5651 0.0000
# 3 64.2172 18.4202 143.0747 0.0000 3.8245 0.0000
# 4 0.0000 0.0000 0.0000 23.4449 0.0000 6.4018
# 5 10.1891 1.5651 3.8245 0.0000 43.6268 0.0000
# 6 0.0000 0.0000 0.0000 6.4018 0.0000 -16.8102
#
#
#
# Elastic Compliance Matrix: (Units=1/GPa)
#
#
# Indices 1 2 3 4 5 6 
#
# 1 0.006181 -0.001651 -0.002530 0.000000 -0.001162 0.000000
# 2 -0.001651 0.047706 -0.005378 0.000000 -0.000854 0.000000
# 3 -0.002530 -0.005378 0.008817 0.000000 0.000011 0.000000
# 4 0.000000 0.000000 0.000000 0.038636 0.000000 0.014714
# 5 -0.001162 -0.000854 0.000011 0.000000 0.023223 0.000000
# 6 0.000000 0.000000 0.000000 0.014714 0.000000 -0.053884
#
#
# Mechanical properties :
#
#
# Convention : Reuss Voigt Hill
#
# Bulk Modulus (GPa) = 22.94337 61.54865 42.24601
# Shear Modulus (GPa) = 47.92696 27.62870 37.77783
#
# Velocity S-wave (km/s) = 4.80421 3.64764 4.26531
# Velocity P-wave (km/s) = 6.46705 6.88336 6.67845
#
# Compressibility (1/GPa) = 0.04358558
#
# Stress axis : x y z
#
# Youngs Moduli (GPa) = 161.79906 20.96151 113.41397
#
# Poissons Ratio (x) = 0.03460 0.28699
# Poissons Ratio (y) = 0.26706 0.60998
# Poissons Ratio (z) = 0.40943 0.11274
#
# Static dielectric constant tensor:
#      x y z
#    x 1.816400 0.000000 0.045610 
#    y 0.000000 1.787590 0.000000 
#    z 0.045610 0.000000 1.775510 
# 
# From -- ./inp_files/100066.got.cif
#   From: 2010.05.17/outbox.cif.g08.bks.cpg/sg15_51_cif.got.tgz:100066.got - 2010.06.03 18:47:42.
