data_PCOD9294798
_publ_section_title
;
Structure prediction by ZEFSAII (Michael W. Deem and Ramdas Pophale) SiO2 
 PCOD9294798
Probable space group: C 2/C
;
_chemical_formula_sum "Si O2"
_cell_formula_units_Z 52
_cell_length_a 16.089082
_cell_length_b 28.901395
_cell_length_c 9.162673
_cell_angle_alpha 90.000000
_cell_angle_beta 34.233985
_cell_angle_gamma 90.000000
_cell_volume 2396.910449
_symmetry_space_group_name_H-M "C 2/C"
_symmetry_group_IT_number 15
_symmetry_cell_setting 'monoclinic'
loop_
_space_group_symop_operation_xyz
x,y,z
-x,y,1/2-z
-x,-y,-z
x,-y,1/2+z
1/2+x,1/2+y,z
1/2-x,1/2+y,1/2-z
1/2-x,1/2-y,-z
1/2+x,1/2-y,1/2+z
loop_
_atom_site_type_symbol
_atom_site_label
_atom_site_fract_x
_atom_site_fract_y
_atom_site_fract_z
Si Si1 0.890080 0.149829 0.046990
Si Si2 0.000000 0.422117 0.250000
Si Si3 0.316454 0.452254 0.738488
Si Si4 0.811449 0.699415 0.364640
Si Si5 0.000000 0.738241 0.750000
Si Si6 0.137904 0.823276 0.391310
Si Si7 0.096170 0.661158 0.816494
Si Si8 0.000000 0.016493 0.250000
O O1 0.832180 0.098765 0.149955
O O2 0.762746 0.184421 0.180335
O O3 0.000000 0.152159 0.750000
O O4 0.979875 0.160631 0.062721
O O5 0.034019 0.385564 0.332867
O O6 0.858344 0.454574 0.480572
O O7 0.388367 0.486188 0.513387
O O8 0.404791 0.457119 0.763830
O O9 0.750000 0.750000 0.500000
O O10 0.740461 0.671272 0.600214
O O11 0.981651 0.684501 0.099148
O O12 0.899143 0.703482 0.804048
O O13 0.099308 0.771987 0.505848
O O14 0.239897 0.847543 0.362436
#
# Coordination Sequence:
#
# PCOD9294798 Si02
#       8
#     8   4   8   8   4   8   8   4
#     4  10  23  41  66  95 132 177 232 282 343 418
#     4  11  26  42  74  95 156 172 229 290 364 418
#     4  11  23  49  73 112 140 186 219 301 356 454
#     4  11  22  42  62  89 130 181 235 287 346 402
#     4  11  24  37  54  86 134 164 240 294 339 386
#     4  11  25  35  63  87 123 180 230 290 335 406
#     4  11  24  42  58  95 126 185 230 292 346 406
#     4  10  26  45  84 107 144 176 239 278 371 462
#
# _framework density 21.694595
#
# number of rings (size 3 to 8) (size 9 to 14) (size 15 to 20)
#    0.000    1.231    3.846    0.923    6.462    1.846 
#    0.000    0.000    0.000    0.000    0.000    0.000 
#    0.000    0.000    0.000    0.000    0.000    0.000 
#
# Total GULP energy -144983.880069 kJ/mol
# GULP energy per Si atom -5576.303080 kJ/mol
# Density = 2.164522 g / cm^3
# Si number density = 21.694595 Si / 1000 Ang^3
#
#
#
# Elastic Constant Matrix: (Units=GPa)
#
#
# Indices 1 2 3 4 5 6 
#
# 1 124.3061 23.2595 14.5678 0.0000 -18.7091 0.0000
# 2 23.2595 56.1616 17.2439 0.0000 -7.2775 0.0000
# 3 14.5678 17.2439 88.4701 0.0000 11.2046 0.0000
# 4 0.0000 0.0000 0.0000 11.5494 0.0000 1.3100
# 5 -18.7091 -7.2775 11.2046 0.0000 33.3462 0.0000
# 6 0.0000 0.0000 0.0000 1.3100 0.0000 1.5422
#
#
#
# Elastic Compliance Matrix: (Units=1/GPa)
#
#
# Indices 1 2 3 4 5 6 
#
# 1 0.009563 -0.002741 -0.001717 0.000000 0.005344 0.000000
# 2 -0.002741 0.020787 -0.004157 0.000000 0.004396 0.000000
# 3 -0.001717 -0.004157 0.013195 0.000000 -0.006304 0.000000
# 4 0.000000 0.000000 0.000000 0.095816 0.000000 -0.081390
# 5 0.005344 0.004396 -0.006304 0.000000 0.036065 0.000000
# 6 0.000000 0.000000 0.000000 -0.081390 0.000000 0.717576
#
#
# Mechanical properties :
#
#
# Convention : Reuss Voigt Hill
#
# Bulk Modulus (GPa) = 38.00193 42.12000 40.06097
# Shear Modulus (GPa) = 5.44068 23.54532 14.49300
#
# Velocity S-wave (km/s) = 1.58534 3.29798 2.58746
# Velocity P-wave (km/s) = 4.57229 5.82746 5.23761
#
# Compressibility (1/GPa) = 0.02631445
#
# Stress axis : x y z
#
# Youngs Moduli (GPa) = 104.56834 48.10746 75.78802
#
# Poissons Ratio (x) = 0.13185 0.13015
# Poissons Ratio (y) = 0.28660 0.31505
# Poissons Ratio (z) = 0.17958 0.19998
#
# Static dielectric constant tensor:
#      x y z
#    x 1.852430 0.000000 -0.003610 
#    y 0.000000 1.851400 0.000000 
#    z -0.003610 0.000000 1.901900 
# 
# From -- ./inp_files/35137.got.cif
#   From: 2010.05.17/outbox.cif.g08.bks.cpg/sg15_18_cif.got.tgz:35137.got - 2010.06.03 18:47:42.
