data_PCOD9294911
_publ_section_title
;
Structure prediction by ZEFSAII (Michael W. Deem and Ramdas Pophale) SiO2 
 PCOD9294911
Probable space group: C 2/C
;
_chemical_formula_sum "Si O2"
_cell_formula_units_Z 56
_cell_length_a 9.028006
_cell_length_b 17.973045
_cell_length_c 20.229612
_cell_angle_alpha 90.000000
_cell_angle_beta 122.013913
_cell_angle_gamma 90.000000
_cell_volume 2783.271815
_symmetry_space_group_name_H-M "C 2/C"
_symmetry_group_IT_number 15
_symmetry_cell_setting 'monoclinic'
loop_
_space_group_symop_operation_xyz
x,y,z
-x,y,1/2-z
-x,-y,-z
x,-y,1/2+z
1/2+x,1/2+y,z
1/2-x,1/2+y,1/2-z
1/2-x,1/2-y,-z
1/2+x,1/2-y,1/2+z
loop_
_atom_site_type_symbol
_atom_site_label
_atom_site_fract_x
_atom_site_fract_y
_atom_site_fract_z
Si Si1 0.000000 0.747079 0.750000
Si Si2 0.858936 0.187348 0.486783
Si Si3 0.159360 0.853244 0.161372
Si Si4 0.388781 0.950121 0.556291
Si Si5 0.690831 0.989204 0.824969
Si Si6 0.500000 0.405417 0.250000
Si Si7 0.554832 0.645538 0.138420
Si Si8 0.769222 0.977231 0.611520
O O1 0.165864 0.694807 0.805217
O O2 0.049786 0.798788 0.699182
O O3 0.750000 0.250000 0.500000
O O4 0.713201 0.123775 0.450253
O O5 0.933764 0.190376 0.428950
O O6 0.020628 0.166154 0.572163
O O7 0.079519 0.848524 0.215304
O O8 0.197850 0.941111 0.170938
O O9 0.331863 0.002941 0.602263
O O10 0.597375 0.942965 0.605361
O O11 0.311871 0.978253 0.469332
O O12 0.500000 0.990733 0.750000
O O13 0.784455 0.912797 0.826579
O O14 0.634089 0.462828 0.318442
O O15 0.392405 0.588438 0.112607
#
# Coordination Sequence:
#
# PCOD9294911 Si02
#       8
#     4   8   8   8   8   4   8   8
#     4  12  31  44  68 109 148 180 232 294 375 414
#     4  11  26  48  68  96 140 196 235 282 362 428
#     4  12  26  46  69 102 142 183 236 294 355 426
#     4  10  23  41  69 101 135 176 235 294 343 422
#     4  11  22  43  73 101 132 182 240 288 351 419
#     4  12  23  42  76 101 140 184 234 296 349 426
#     4  11  26  46  71 100 141 186 233 299 349 426
#     4  11  22  41  70 106 134 173 238 299 349 406
#
# _framework density 20.120204000000001
#
# number of rings (size 3 to 8) (size 9 to 14) (size 15 to 20)
#    0.000    0.857    3.571    2.143    6.000    4.000 
#    2.571    0.000    0.000    0.000    0.000    0.000 
#    0.000    0.000    0.000    0.000    0.000    0.000 
#
# Total GULP energy -156183.975000 kJ/mol
# GULP energy per Si atom -5577.999107 kJ/mol
# Density = 2.007441 g / cm^3
# Si number density = 20.120204 Si / 1000 Ang^3
#
#
#
# Elastic Constant Matrix: (Units=GPa)
#
#
# Indices 1 2 3 4 5 6 
#
# 1 94.1220 17.1932 47.9829 0.0000 -11.8435 0.0000
# 2 17.1932 54.2231 30.0515 0.0000 -5.2242 0.0000
# 3 47.9829 30.0515 92.7261 0.0000 -13.1651 0.0000
# 4 0.0000 0.0000 0.0000 15.9729 0.0000 -1.5309
# 5 -11.8435 -5.2242 -13.1651 0.0000 45.1322 0.0000
# 6 0.0000 0.0000 0.0000 -1.5309 0.0000 37.6874
#
#
#
# Elastic Compliance Matrix: (Units=1/GPa)
#
#
# Indices 1 2 3 4 5 6 
#
# 1 0.014566 -0.000502 -0.007136 0.000000 0.001683 0.000000
# 2 -0.000502 0.022508 -0.006973 0.000000 0.000440 0.000000
# 3 -0.007136 -0.006973 0.017063 0.000000 0.002298 0.000000
# 4 0.000000 0.000000 0.000000 0.062851 0.000000 0.002553
# 5 0.001683 0.000440 0.002298 0.000000 0.023320 0.000000
# 6 0.000000 0.000000 0.000000 0.002553 0.000000 0.026638
#
#
# Mechanical properties :
#
#
# Convention : Reuss Voigt Hill
#
# Bulk Modulus (GPa) = 40.13375 47.94739 44.04057
# Shear Modulus (GPa) = 24.45337 29.48140 26.96738
#
# Velocity S-wave (km/s) = 3.48999 3.83203 3.66500
# Velocity P-wave (km/s) = 6.01916 6.59253 6.31236
#
# Compressibility (1/GPa) = 0.02491669
#
# Stress axis : x y z
#
# Youngs Moduli (GPa) = 68.65451 44.42847 58.60641
#
# Poissons Ratio (x) = 0.02228 0.41821
# Poissons Ratio (y) = 0.03444 0.40864
# Poissons Ratio (z) = 0.48991 0.30978
#
# Static dielectric constant tensor:
#      x y z
#    x 1.831390 0.000000 -0.096140 
#    y 0.000000 1.682250 0.000000 
#    z -0.096140 0.000000 1.728410 
# 
# From -- ./inp_files/232847.got.cif
#   From: 2010.05.17/outbox.cif.g08.bks.cpg/sg15_117_cif.got.tgz:232847.got - 2010.06.03 18:47:42.
