data_PCOD9294925
_publ_section_title
;
Structure prediction by ZEFSAII (Michael W. Deem and Ramdas Pophale) SiO2 
 PCOD9294925
Probable space group: C 2/C
;
_chemical_formula_sum "Si O2"
_cell_formula_units_Z 44
_cell_length_a 9.705412
_cell_length_b 31.236938
_cell_length_c 9.707278
_cell_angle_alpha 90.000000
_cell_angle_beta 130.066990
_cell_angle_gamma 90.000000
_cell_volume 2252.201717
_symmetry_space_group_name_H-M "C 2/C"
_symmetry_group_IT_number 15
_symmetry_cell_setting 'monoclinic'
loop_
_space_group_symop_operation_xyz
x,y,z
-x,y,1/2-z
-x,-y,-z
x,-y,1/2+z
1/2+x,1/2+y,z
1/2-x,1/2+y,1/2-z
1/2-x,1/2-y,-z
1/2+x,1/2-y,1/2+z
loop_
_atom_site_type_symbol
_atom_site_label
_atom_site_fract_x
_atom_site_fract_y
_atom_site_fract_z
Si Si1 0.611486 0.802410 0.533849
Si Si2 0.308689 0.574479 0.788069
Si Si3 0.500000 0.167764 0.250000
Si Si4 0.500000 0.875295 0.250000
Si Si5 0.000000 0.229585 0.250000
Si Si6 0.280099 0.407577 0.945886
Si Si7 0.869858 0.491550 0.788031
O O1 0.517278 0.805520 0.621209
O O2 0.565163 0.844244 0.414715
O O3 0.826471 0.797767 0.678591
O O4 0.545417 0.761013 0.406398
O O5 0.261173 0.580222 0.595620
O O6 0.297453 0.523727 0.808205
O O7 0.161298 0.597062 0.789310
O O8 0.506296 0.593311 0.941784
O O9 0.326944 0.136391 0.140488
O O10 0.193530 0.443745 0.790819
O O11 0.000000 0.505472 0.750000
O O12 0.000000 0.500000 0.000000
#
# Coordination Sequence:
#
# PCOD9294925 Si02
#       7
#     8   8   4   4   4   8   8
#     4  10  23  41  69  93 133 161 209 255 318 386
#     4  11  23  40  62  91 128 173 221 266 323 373
#     4  12  22  41  64 103 130 166 204 269 324 373
#     4  11  22  41  64 100 120 170 210 270 318 373
#     4   9  22  48  66  95 128 170 204 255 304 400
#     4  11  24  41  60  93 133 170 214 274 320 376
#     4  12  22  40  63  84 126 177 220 267 316 369
#
# _framework density 19.536439000000001
#
# number of rings (size 3 to 8) (size 9 to 14) (size 15 to 20)
#    0.000    1.091    5.455    0.545    2.545    0.727 
#    0.000    1.818    0.000    0.000    0.000    0.000 
#    0.000    0.000    0.000    0.000    0.000    0.000 
#
# Total GULP energy -122855.233093 kJ/mol
# GULP energy per Si atom -5584.328777 kJ/mol
# Density = 1.949197 g / cm^3
# Si number density = 19.536439 Si / 1000 Ang^3
#
#
#
# Elastic Constant Matrix: (Units=GPa)
#
#
# Indices 1 2 3 4 5 6 
#
# 1 139.2798 40.4127 59.4583 0.0000 -4.6803 0.0000
# 2 40.4127 57.1542 25.2314 0.0000 -1.9227 0.0000
# 3 59.4583 25.2314 104.9972 0.0000 -7.0916 0.0000
# 4 0.0000 0.0000 0.0000 -2.2662 0.0000 -0.1167
# 5 -4.6803 -1.9227 -7.0916 0.0000 43.8065 0.0000
# 6 0.0000 0.0000 0.0000 -0.1167 0.0000 31.1811
#
#
#
# Elastic Compliance Matrix: (Units=1/GPa)
#
#
# Indices 1 2 3 4 5 6 
#
# 1 0.010841 -0.005543 -0.004798 0.000000 0.000138 0.000000
# 2 -0.005543 0.022407 -0.002244 0.000000 0.000028 0.000000
# 3 -0.004798 -0.002244 0.012880 0.000000 0.001474 0.000000
# 4 0.000000 0.000000 0.000000 -0.441174 0.000000 -0.001651
# 5 0.000138 0.000028 0.001474 0.000000 0.023082 0.000000
# 6 0.000000 0.000000 0.000000 -0.001651 0.000000 0.032065
#
#
# Mechanical properties :
#
#
# Convention : Reuss Voigt Hill
#
# Bulk Modulus (GPa) = 47.71203 61.29287 54.50245
# Shear Modulus (GPa) = -16.24725 26.29953 5.02614
#
# Velocity S-wave (km/s) = -2.88694 3.67301 1.60570
# Velocity P-wave (km/s) = 3.65548 7.03063 5.60322
#
# Compressibility (1/GPa) = 0.02095907
#
# Stress axis : x y z
#
# Youngs Moduli (GPa) = 92.24402 44.62846 77.64148
#
# Poissons Ratio (x) = 0.24736 0.37250
# Poissons Ratio (y) = 0.51128 0.17422
# Poissons Ratio (z) = 0.44256 0.10014
#
# Static dielectric constant tensor:
#      x y z
#    x 1.660710 0.000000 0.011110 
#    y 0.000000 1.679270 0.000000 
#    z 0.011110 0.000000 1.687200 
# 
# From -- ./inp_files/26017.got.cif
#   From: 2010.05.17/outbox.cif.g08.bks.cpg/sg15_14_cif.got.tgz:26017.got - 2010.06.03 18:47:42.
