data_PCOD9294257
_publ_section_title
;
Structure prediction by ZEFSAII (Michael W. Deem and Ramdas Pophale) SiO2 
 PCOD9294257
Probable space group: C 2/C
;
_chemical_formula_sum "Si O2"
_cell_formula_units_Z 52
_cell_length_a 22.179258
_cell_length_b 19.833048
_cell_length_c 8.682523
_cell_angle_alpha 90.000000
_cell_angle_beta 139.578594
_cell_angle_gamma 90.000000
_cell_volume 2476.443088
_symmetry_space_group_name_H-M "C 2/C"
_symmetry_group_IT_number 15
_symmetry_cell_setting 'monoclinic'
loop_
_space_group_symop_operation_xyz
x,y,z
-x,y,1/2-z
-x,-y,-z
x,-y,1/2+z
1/2+x,1/2+y,z
1/2-x,1/2+y,1/2-z
1/2-x,1/2-y,-z
1/2+x,1/2-y,1/2+z
loop_
_atom_site_type_symbol
_atom_site_label
_atom_site_fract_x
_atom_site_fract_y
_atom_site_fract_z
Si Si1 0.705648 0.429090 0.190572
Si Si2 0.419338 0.224807 0.981522
Si Si3 0.775770 0.227170 0.720743
Si Si4 0.753229 0.443067 0.944507
Si Si5 0.101562 0.342434 0.384701
Si Si6 0.049019 0.880630 0.506730
Si Si7 0.500000 0.567557 0.250000
O O1 0.692759 0.350927 0.210368
O O2 0.749383 0.477624 0.402062
O O3 0.764879 0.431471 0.149216
O O4 0.604348 0.461208 0.956488
O O5 0.319243 0.230741 0.866708
O O6 0.410040 0.181182 0.812548
O O7 0.449155 0.300002 0.992354
O O8 0.500000 0.198069 0.250000
O O9 0.750000 0.250000 0.500000
O O10 0.851165 0.279307 0.934489
O O11 0.653931 0.408341 0.714201
O O12 0.828829 0.405410 0.987428
O O13 0.000000 0.358227 0.250000
O O14 0.003552 0.900558 0.582616
O O15 0.000000 0.902079 0.250000
#
# Coordination Sequence:
#
# PCOD9294257 Si02
#       7
#     8   8   8   8   8   8   4
#     4  11  27  43  70 100 144 185 235 294 361 431
#     4  11  23  43  67 105 138 177 231 296 361 426
#     4  12  26  44  73 108 142 183 238 296 360 429
#     4  11  25  47  67 100 143 188 232 291 358 429
#     4  12  25  46  73 102 142 190 239 299 357 416
#     4  10  23  39  67 102 145 182 220 284 363 437
#     4  10  24  40  64 106 138 180 230 284 362 446
#
# _framework density 20.997857
#
# number of rings (size 3 to 8) (size 9 to 14) (size 15 to 20)
#    0.000    0.923    3.077    3.231   14.000    1.231 
#    0.000    1.538    0.000    0.000    0.000    0.000 
#    0.000    0.000    0.000    0.000    0.000    0.000 
#
# Total GULP energy -145215.160209 kJ/mol
# GULP energy per Si atom -5585.198470 kJ/mol
# Density = 2.095006 g / cm^3
# Si number density = 20.997857 Si / 1000 Ang^3
#
#
#
# Elastic Constant Matrix: (Units=GPa)
#
#
# Indices 1 2 3 4 5 6 
#
# 1 148.9568 15.0908 34.3542 0.0000 5.0983 0.0000
# 2 15.0908 73.0759 4.0146 0.0000 -2.6805 0.0000
# 3 34.3542 4.0146 71.9982 0.0000 -12.5422 0.0000
# 4 0.0000 0.0000 0.0000 27.5152 0.0000 -2.5243
# 5 5.0983 -2.6805 -12.5422 0.0000 39.5960 0.0000
# 6 0.0000 0.0000 0.0000 -2.5243 0.0000 0.7415
#
#
#
# Elastic Compliance Matrix: (Units=1/GPa)
#
#
# Indices 1 2 3 4 5 6 
#
# 1 0.007894 -0.001493 -0.004105 0.000000 -0.002418 0.000000
# 2 -0.001493 0.014029 0.000137 0.000000 0.001185 0.000000
# 3 -0.004105 0.000137 0.016864 0.000000 0.005880 0.000000
# 4 0.000000 0.000000 0.000000 0.052852 0.000000 0.179939
# 5 -0.002418 0.001185 0.005880 0.000000 0.027509 0.000000
# 6 0.000000 0.000000 0.000000 0.179939 0.000000 1.961326
#
#
# Mechanical properties :
#
#
# Convention : Reuss Voigt Hill
#
# Bulk Modulus (GPa) = 35.88741 44.54999 40.21870
# Shear Modulus (GPa) = 2.38018 29.60861 15.99439
#
# Velocity S-wave (km/s) = 1.06583 3.75917 2.76291
# Velocity P-wave (km/s) = 4.31772 6.33280 5.41974
#
# Compressibility (1/GPa) = 0.02786493
#
# Stress axis : x y z
#
# Youngs Moduli (GPa) = 126.67787 71.28211 59.29663
#
# Poissons Ratio (x) = 0.10645 0.24339
# Poissons Ratio (y) = 0.18918 -0.00811
# Poissons Ratio (z) = 0.51996 -0.00975
#
# Static dielectric constant tensor:
#      x y z
#    x 1.728170 0.000000 -0.024700 
#    y 0.000000 1.792850 0.000000 
#    z -0.024700 0.000000 1.756890 
# 
# From -- ./inp_files/57086.got.cif
#   From: 2010.05.17/outbox.cif.g08.bks.cpg/sg15_29_cif.got.tgz:57086.got - 2010.06.03 18:47:42.
