data_PCOD9294883
_publ_section_title
;
Structure prediction by ZEFSAII (Michael W. Deem and Ramdas Pophale) SiO2 
 PCOD9294883
Probable space group: C 2/C
;
_chemical_formula_sum "Si O2"
_cell_formula_units_Z 64
_cell_length_a 13.362517
_cell_length_b 24.338341
_cell_length_c 14.558803
_cell_angle_alpha 90.000000
_cell_angle_beta 142.886470
_cell_angle_gamma 90.000000
_cell_volume 2856.982402
_symmetry_space_group_name_H-M "C 2/C"
_symmetry_group_IT_number 15
_symmetry_cell_setting 'monoclinic'
loop_
_space_group_symop_operation_xyz
x,y,z
-x,y,1/2-z
-x,-y,-z
x,-y,1/2+z
1/2+x,1/2+y,z
1/2-x,1/2+y,1/2-z
1/2-x,1/2-y,-z
1/2+x,1/2-y,1/2+z
loop_
_atom_site_type_symbol
_atom_site_label
_atom_site_fract_x
_atom_site_fract_y
_atom_site_fract_z
Si Si1 0.399874 0.393377 0.369593
Si Si2 0.487449 0.924236 0.643530
Si Si3 0.321009 0.559453 0.315248
Si Si4 0.181369 0.236032 0.850249
Si Si5 0.832020 0.026032 0.666052
Si Si6 0.916451 0.649523 0.917854
Si Si7 0.359737 0.317543 0.857129
Si Si8 0.930095 0.270818 0.102714
O O1 0.498613 0.438295 0.503105
O O2 0.393188 0.418337 0.262691
O O3 0.206781 0.380558 0.244952
O O4 0.506636 0.338227 0.467248
O O5 0.500000 0.892794 0.750000
O O6 0.668722 0.951480 0.772556
O O7 0.321750 0.961085 0.512769
O O8 0.475201 0.890541 0.540406
O O9 0.284451 0.517064 0.208946
O O10 0.314393 0.623801 0.280653
O O11 0.293954 0.191167 0.881922
O O12 0.208817 0.287399 0.799567
O O13 0.000000 0.218468 0.750000
O O14 0.250000 0.250000 0.000000
O O15 0.000000 0.001529 0.750000
O O16 0.055305 0.683144 0.965100
O O17 0.454197 0.277859 0.855184
O O18 0.000000 0.292214 0.250000
O O19 0.750000 0.250000 0.000000
#
# Coordination Sequence:
#
# PCOD9294883 Si02
#       8
#     8   8   8   8   8   8   8   8
#     4   9  20  41  65  89 128 171 218 274 348 397
#     4  11  25  42  70 101 138 176 226 282 352 414
#     4  10  23  41  68  92 135 170 225 279 350 406
#     4  11  24  35  59  93 136 172 218 269 335 396
#     4  11  23  43  67  98 131 175 221 285 348 418
#     4  10  24  42  62  99 141 178 227 286 338 407
#     4   9  23  39  63  94 131 175 227 278 335 397
#     4  11  24  42  67  94 138 191 240 280 340 405
#
# _framework density 22.401257000000001
#
# number of rings (size 3 to 8) (size 9 to 14) (size 15 to 20)
#    0.750    1.000    0.000    3.000    5.250    5.500 
#    0.000    0.000    0.000    3.000    0.000    0.000 
#    0.000    0.000    0.000    0.000    0.000    0.000 
#
# Total GULP energy -178170.173936 kJ/mol
# GULP energy per Si atom -5567.817936 kJ/mol
# Density = 2.235027 g / cm^3
# Si number density = 22.401257 Si / 1000 Ang^3
#
#
#
# Elastic Constant Matrix: (Units=GPa)
#
#
# Indices 1 2 3 4 5 6 
#
# 1 136.9760 32.6845 42.2192 0.0000 6.5760 0.0000
# 2 32.6845 54.0104 24.6031 0.0000 -10.5828 0.0000
# 3 42.2192 24.6031 115.7933 0.0000 -1.0676 0.0000
# 4 0.0000 0.0000 0.0000 7.4910 0.0000 3.5604
# 5 6.5760 -10.5828 -1.0676 0.0000 35.7696 0.0000
# 6 0.0000 0.0000 0.0000 3.5604 0.0000 19.2550
#
#
#
# Elastic Compliance Matrix: (Units=1/GPa)
#
#
# Indices 1 2 3 4 5 6 
#
# 1 0.009455 -0.005314 -0.002349 0.000000 -0.003381 0.000000
# 2 -0.005314 0.024828 -0.003262 0.000000 0.008225 0.000000
# 3 -0.002349 -0.003262 0.010184 0.000000 -0.000229 0.000000
# 4 0.000000 0.000000 0.000000 0.146357 0.000000 -0.027063
# 5 -0.003381 0.008225 -0.000229 0.000000 0.031005 0.000000
# 6 0.000000 0.000000 0.000000 -0.027063 0.000000 0.056939
#
#
# Mechanical properties :
#
#
# Convention : Reuss Voigt Hill
#
# Bulk Modulus (GPa) = 44.21616 56.19927 50.20772
# Shear Modulus (GPa) = 16.22550 26.32131 21.27341
#
# Velocity S-wave (km/s) = 2.69422 3.43154 3.08499
# Velocity P-wave (km/s) = 5.42767 6.39082 5.92883
#
# Compressibility (1/GPa) = 0.02261616
#
# Stress axis : x y z
#
# Youngs Moduli (GPa) = 105.76450 40.27679 98.19611
#
# Poissons Ratio (x) = 0.21402 0.23071
# Poissons Ratio (y) = 0.56201 0.32032
# Poissons Ratio (z) = 0.24849 0.13138
#
# Static dielectric constant tensor:
#      x y z
#    x 1.918700 0.000000 0.145960 
#    y 0.000000 1.831550 0.000000 
#    z 0.145960 0.000000 2.091320 
# 
# From -- ./inp_files/149192.got.cif
#   From: 2010.05.17/outbox.cif.g08.bks.cpg/sg15_75_cif.got.tgz:149192.got - 2010.06.03 18:47:42.
