data_PCOD9294743
_publ_section_title
;
Structure prediction by ZEFSAII (Michael W. Deem and Ramdas Pophale) SiO2 
 PCOD9294743
Probable space group: C 2/C
;
_chemical_formula_sum "Si O2"
_cell_formula_units_Z 40
_cell_length_a 4.875979
_cell_length_b 24.501741
_cell_length_c 14.327707
_cell_angle_alpha 90.000000
_cell_angle_beta 88.976486
_cell_angle_gamma 90.000000
_cell_volume 1711.457682
_symmetry_space_group_name_H-M "C 2/C"
_symmetry_group_IT_number 15
_symmetry_cell_setting 'monoclinic'
loop_
_space_group_symop_operation_xyz
x,y,z
-x,y,1/2-z
-x,-y,-z
x,-y,1/2+z
1/2+x,1/2+y,z
1/2-x,1/2+y,1/2-z
1/2-x,1/2-y,-z
1/2+x,1/2-y,1/2+z
loop_
_atom_site_type_symbol
_atom_site_label
_atom_site_fract_x
_atom_site_fract_y
_atom_site_fract_z
Si Si1 0.751162 0.935452 0.527316
Si Si2 0.200612 0.347406 0.161207
Si Si3 0.122024 0.533276 0.647980
Si Si4 0.214284 0.639086 0.460020
Si Si5 0.227697 0.269822 0.812877
O O1 0.616684 0.952871 0.428050
O O2 0.508232 0.901902 0.580628
O O3 0.012926 0.896120 0.522454
O O4 0.798124 0.988126 0.592324
O O5 0.291906 0.410481 0.163814
O O6 0.374560 0.291783 0.162772
O O7 0.000000 0.344881 0.250000
O O8 0.075704 0.342986 0.058708
O O9 0.000000 0.517505 0.750000
O O10 0.276202 0.692286 0.400667
O O11 0.500000 0.266233 0.750000
O O12 0.000000 0.296916 0.750000
#
# Coordination Sequence:
#
# PCOD9294743 Si02
#       5
#     8   8   8   8   8
#     4  10  23  41  65  95 127 168 216 257 315 387
#     4   9  21  41  64  92 123 164 213 260 312 372
#     4   9  20  41  64  94 130 168 211 265 316 372
#     4  11  23  43  67  93 130 170 210 265 320 376
#     4  11  24  42  65  95 130 167 214 264 317 382
#
# _framework density 23.371887999999998
#
# number of rings (size 3 to 8) (size 9 to 14) (size 15 to 20)
#    0.000    2.000    0.000    1.800    0.000   17.600 
#    0.000   23.000    0.000    0.000    0.000    0.000 
#    0.000    0.000    0.000    0.000    0.000    0.000 
#
# Total GULP energy -111494.418202 kJ/mol
# GULP energy per Si atom -5574.720910 kJ/mol
# Density = 2.331869 g / cm^3
# Si number density = 23.371888 Si / 1000 Ang^3
#
#
#
# Elastic Constant Matrix: (Units=GPa)
#
#
# Indices 1 2 3 4 5 6 
#
# 1 85.7500 30.6241 11.7561 0.0000 -0.3466 0.0000
# 2 30.6241 138.1851 84.0757 0.0000 0.8133 0.0000
# 3 11.7561 84.0757 139.8179 0.0000 -16.4200 0.0000
# 4 0.0000 0.0000 0.0000 38.7427 0.0000 -16.1185
# 5 -0.3466 0.8133 -16.4200 0.0000 19.3444 0.0000
# 6 0.0000 0.0000 0.0000 -16.1185 0.0000 61.7755
#
#
#
# Elastic Compliance Matrix: (Units=1/GPa)
#
#
# Indices 1 2 3 4 5 6 
#
# 1 0.012784 -0.003614 0.001270 0.000000 0.001459 0.000000
# 2 -0.003614 0.013357 -0.008665 0.000000 -0.007982 0.000000
# 3 0.001270 -0.008665 0.013663 0.000000 0.011985 0.000000
# 4 0.000000 0.000000 0.000000 0.028954 0.000000 0.007555
# 5 0.001459 -0.007982 0.011985 0.000000 0.062229 0.000000
# 6 0.000000 0.000000 0.000000 0.007555 0.000000 0.018159
#
#
# Mechanical properties :
#
#
# Convention : Reuss Voigt Hill
#
# Bulk Modulus (GPa) = 56.22672 68.51832 62.37252
# Shear Modulus (GPa) = 28.23340 39.79233 34.01286
#
# Velocity S-wave (km/s) = 3.47941 4.13070 3.81896
# Velocity P-wave (km/s) = 6.34440 7.22014 6.79639
#
# Compressibility (1/GPa) = 0.01778514
#
# Stress axis : x y z
#
# Youngs Moduli (GPa) = 78.22007 74.86824 73.18799
#
# Poissons Ratio (x) = 0.27061 -0.09294
# Poissons Ratio (y) = 0.28272 0.63419
# Poissons Ratio (z) = -0.09933 0.64875
#
# Static dielectric constant tensor:
#      x y z
#    x 1.888340 0.000000 0.002210 
#    y 0.000000 1.967200 0.000000 
#    z 0.002210 0.000000 1.883410 
# 
# From -- ./inp_files/73206.got.cif
#   From: 2010.05.17/outbox.cif.g08.bks.cpg/sg15_37_cif.got.tgz:73206.got - 2010.06.03 18:47:42.
