data_PCOD9294570
_publ_section_title
;
Structure prediction by ZEFSAII (Michael W. Deem and Ramdas Pophale) SiO2 
 PCOD9294570
Probable space group: C 2/C
;
_chemical_formula_sum "Si O2"
_cell_formula_units_Z 64
_cell_length_a 11.486522
_cell_length_b 12.826449
_cell_length_c 17.169734
_cell_angle_alpha 90.000000
_cell_angle_beta 99.327859
_cell_angle_gamma 90.000000
_cell_volume 2496.189677
_symmetry_space_group_name_H-M "C 2/C"
_symmetry_group_IT_number 15
_symmetry_cell_setting 'monoclinic'
loop_
_space_group_symop_operation_xyz
x,y,z
-x,y,1/2-z
-x,-y,-z
x,-y,1/2+z
1/2+x,1/2+y,z
1/2-x,1/2+y,1/2-z
1/2-x,1/2-y,-z
1/2+x,1/2-y,1/2+z
loop_
_atom_site_type_symbol
_atom_site_label
_atom_site_fract_x
_atom_site_fract_y
_atom_site_fract_z
Si Si1 0.134961 0.460314 0.872230
Si Si2 0.068456 0.334977 0.575497
Si Si3 0.792717 0.092447 0.537045
Si Si4 0.874889 0.311454 0.192605
Si Si5 0.347326 0.586611 0.307359
Si Si6 0.108464 0.152753 0.697564
Si Si7 0.671068 0.394685 0.877117
Si Si8 0.900953 0.740363 0.935989
O O1 0.113114 0.575548 0.842490
O O2 0.209325 0.404067 0.812824
O O3 0.018391 0.400835 0.880412
O O4 0.217558 0.453527 0.957151
O O5 0.082869 0.225502 0.621097
O O6 0.190796 0.395185 0.589101
O O7 0.009918 0.321809 0.484854
O O8 0.865414 0.185173 0.504985
O O9 0.702843 0.153924 0.584920
O O10 0.868006 0.998512 0.582041
O O11 0.749438 0.316128 0.228283
O O12 0.857679 0.227545 0.121285
O O13 0.000000 0.294374 0.250000
O O14 0.384200 0.467893 0.327935
O O15 0.361406 0.593703 0.216928
O O16 0.406771 0.675639 0.366681
O O17 0.000000 0.163617 0.750000
#
# Coordination Sequence:
#
# PCOD9294570 Si02
#       8
#     8   8   8   8   8   8   8   8
#     4   9  21  41  70 102 136 198 253 300 362 450
#     4  10  23  40  70 107 136 194 262 296 363 450
#     4   9  20  42  69 100 142 192 253 301 373 447
#     4  10  24  46  68 107 154 196 242 303 391 444
#     4  10  23  42  67 104 148 189 241 312 382 436
#     4  10  24  42  73 110 146 192 249 310 374 442
#     4  11  25  41  67 107 145 188 247 314 373 445
#     4   9  20  43  70 101 141 199 246 304 371 454
#
# _framework density 25.639075999999999
#
# number of rings (size 3 to 8) (size 9 to 14) (size 15 to 20)
#    0.000    2.250    0.000    0.750    8.750    6.500 
#    2.250    0.000    0.000    0.000    0.000    0.000 
#    0.000    0.000    0.000    0.000    0.000    0.125 
#
# Total GULP energy -178807.188814 kJ/mol
# GULP energy per Si atom -5587.724650 kJ/mol
# Density = 2.558072 g / cm^3
# Si number density = 25.639076 Si / 1000 Ang^3
#
#
#
# Elastic Constant Matrix: (Units=GPa)
#
#
# Indices 1 2 3 4 5 6 
#
# 1 132.6132 19.5725 9.3814 0.0000 18.7369 0.0000
# 2 19.5725 124.2287 10.3036 0.0000 -3.9114 0.0000
# 3 9.3814 10.3036 36.6357 0.0000 10.9646 0.0000
# 4 0.0000 0.0000 0.0000 47.9213 0.0000 -10.8768
# 5 18.7369 -3.9114 10.9646 0.0000 40.8670 0.0000
# 6 0.0000 0.0000 0.0000 -10.8768 0.0000 30.9285
#
#
#
# Elastic Compliance Matrix: (Units=1/GPa)
#
#
# Indices 1 2 3 4 5 6 
#
# 1 0.008322 -0.001380 -0.000611 0.000000 -0.003784 0.000000
# 2 -0.001380 0.008560 -0.002706 0.000000 0.002178 0.000000
# 3 -0.000611 -0.002706 0.030670 0.000000 -0.008208 0.000000
# 4 0.000000 0.000000 0.000000 0.022678 0.000000 0.007975
# 5 -0.003784 0.002178 -0.008208 0.000000 0.028615 0.000000
# 6 0.000000 0.000000 0.000000 0.007975 0.000000 0.035137
#
#
# Mechanical properties :
#
#
# Convention : Reuss Voigt Hill
#
# Bulk Modulus (GPa) = 26.20592 41.33253 33.76922
# Shear Modulus (GPa) = 32.03196 40.89138 36.46167
#
# Velocity S-wave (km/s) = 3.53844 3.99793 3.77518
# Velocity P-wave (km/s) = 5.19012 6.12105 5.67470
#
# Compressibility (1/GPa) = 0.03815932
#
# Stress axis : x y z
#
# Youngs Moduli (GPa) = 120.16104 116.82178 32.60555
#
# Poissons Ratio (x) = 0.16118 0.01991
# Poissons Ratio (y) = 0.16578 0.08823
# Poissons Ratio (z) = 0.07337 0.31612
#
# Static dielectric constant tensor:
#      x y z
#    x 2.183460 0.000000 -0.019850 
#    y 0.000000 2.040690 0.000000 
#    z -0.019850 0.000000 1.984800 
# 
# From -- ./inp_files/269269.got.cif
#   From: 2010.05.17/outbox.cif.g08.bks.cpg/sg15_135_cif.got.tgz:269269.got - 2010.06.03 18:47:42.
