data_PCOD9294108
_publ_section_title
;
Structure prediction by ZEFSAII (Michael W. Deem and Ramdas Pophale) SiO2 
 PCOD9294108
Probable space group: C 2/C
;
_chemical_formula_sum "Si O2"
_cell_formula_units_Z 40
_cell_length_a 17.161784
_cell_length_b 25.531620
_cell_length_c 5.223485
_cell_angle_alpha 90.000000
_cell_angle_beta 75.126131
_cell_angle_gamma 90.000000
_cell_volume 2212.075678
_symmetry_space_group_name_H-M "C 2/C"
_symmetry_group_IT_number 15
_symmetry_cell_setting 'monoclinic'
loop_
_space_group_symop_operation_xyz
x,y,z
-x,y,1/2-z
-x,-y,-z
x,-y,1/2+z
1/2+x,1/2+y,z
1/2-x,1/2+y,1/2-z
1/2-x,1/2-y,-z
1/2+x,1/2-y,1/2+z
loop_
_atom_site_type_symbol
_atom_site_label
_atom_site_fract_x
_atom_site_fract_y
_atom_site_fract_z
Si Si1 0.592656 0.979771 0.472099
Si Si2 0.413010 0.830880 0.298573
Si Si3 0.804254 0.804020 0.472165
Si Si4 0.154059 0.630052 0.138225
Si Si5 0.909710 0.791244 0.887012
O O1 0.612880 0.924008 0.581634
O O2 0.500000 0.000000 0.500000
O O3 0.627979 0.018399 0.657588
O O4 0.500000 0.857109 0.250000
O O5 0.358113 0.860011 0.551393
O O6 0.416326 0.771749 0.391978
O O7 0.390779 0.830312 0.019805
O O8 0.750000 0.750000 0.500000
O O9 0.746033 0.854599 0.504860
O O10 0.850029 0.803582 0.703392
O O11 0.868163 0.806518 0.188001
O O12 0.000000 0.811311 0.750000
#
# Coordination Sequence:
#
# PCOD9294108 Si02
#       5
#     8   8   8   8   8
#     4  10  23  39  54  75 110 152 197 247 283 330
#     4  11  22  32  51  80 111 149 202 232 278 346
#     4  12  21  37  56  84 118 148 199 250 291 347
#     4  12  23  35  57  80 107 157 200 245 292 333
#     4  11  22  38  54  80 119 157 187 239 293 354
#
# _framework density 18.082564000000001
#
# number of rings (size 3 to 8) (size 9 to 14) (size 15 to 20)
#    0.000    0.800    4.000    4.200    8.400    3.200 
#    0.000    0.000    0.000    0.000    0.000    0.000 
#    0.000   16.000    0.000    0.000    0.000    0.000 
#
# Total GULP energy -111391.216549 kJ/mol
# GULP energy per Si atom -5569.560827 kJ/mol
# Density = 1.804141 g / cm^3
# Si number density = 18.082564 Si / 1000 Ang^3
#
#
#
# Elastic Constant Matrix: (Units=GPa)
#
#
# Indices 1 2 3 4 5 6 
#
# 1 64.7894 18.4132 13.7534 0.0000 -2.2641 0.0000
# 2 18.4132 56.6959 8.6480 0.0000 -10.3688 0.0000
# 3 13.7534 8.6480 88.6580 0.0000 4.3893 0.0000
# 4 0.0000 0.0000 0.0000 11.8064 0.0000 3.3602
# 5 -2.2641 -10.3688 4.3893 0.0000 37.1764 0.0000
# 6 0.0000 0.0000 0.0000 3.3602 0.0000 28.0953
#
#
#
# Elastic Compliance Matrix: (Units=1/GPa)
#
#
# Indices 1 2 3 4 5 6 
#
# 1 0.017411 -0.005356 -0.002170 0.000000 -0.000177 0.000000
# 2 -0.005356 0.020624 -0.001458 0.000000 0.005598 0.000000
# 3 -0.002170 -0.001458 0.011854 0.000000 -0.001938 0.000000
# 4 0.000000 0.000000 0.000000 0.087684 0.000000 -0.010487
# 5 -0.000177 0.005598 -0.001938 0.000000 0.028678 0.000000
# 6 0.000000 0.000000 0.000000 -0.010487 0.000000 0.036847
#
#
# Mechanical properties :
#
#
# Convention : Reuss Voigt Hill
#
# Bulk Modulus (GPa) = 31.32706 32.41915 31.87311
# Shear Modulus (GPa) = 21.57899 26.70421 24.14160
#
# Velocity S-wave (km/s) = 3.45825 3.84708 3.65783
# Velocity P-wave (km/s) = 5.77131 6.14009 5.95855
#
# Compressibility (1/GPa) = 0.03192128
#
# Stress axis : x y z
#
# Youngs Moduli (GPa) = 57.43417 48.48805 84.35920
#
# Poissons Ratio (x) = 0.25971 0.18304
# Poissons Ratio (y) = 0.30762 0.12299
# Poissons Ratio (z) = 0.12462 0.07069
#
# Static dielectric constant tensor:
#      x y z
#    x 1.660040 0.000000 -0.027680 
#    y 0.000000 1.677500 0.000000 
#    z -0.027680 0.000000 1.733820 
# 
# From -- ./inp_files/7298.got.cif
#   From: 2010.05.17/outbox.cif.g08.bks.cpg/sg15_4_cif.got.tgz:7298.got - 2010.06.03 18:47:42.
