data_PCOD9294234
_publ_section_title
;
Structure prediction by ZEFSAII (Michael W. Deem and Ramdas Pophale) SiO2 
 PCOD9294234
Probable space group: C 2/C
;
_chemical_formula_sum "Si O2"
_cell_formula_units_Z 40
_cell_length_a 18.615411
_cell_length_b 10.835238
_cell_length_c 22.921680
_cell_angle_alpha 90.000000
_cell_angle_beta 25.196030
_cell_angle_gamma 90.000000
_cell_volume 1968.240256
_symmetry_space_group_name_H-M "C 2/C"
_symmetry_group_IT_number 15
_symmetry_cell_setting 'monoclinic'
loop_
_space_group_symop_operation_xyz
x,y,z
-x,y,1/2-z
-x,-y,-z
x,-y,1/2+z
1/2+x,1/2+y,z
1/2-x,1/2+y,1/2-z
1/2-x,1/2-y,-z
1/2+x,1/2-y,1/2+z
loop_
_atom_site_type_symbol
_atom_site_label
_atom_site_fract_x
_atom_site_fract_y
_atom_site_fract_z
Si Si1 0.569970 0.856754 0.992485
Si Si2 0.449236 0.224096 0.348493
Si Si3 0.408277 0.921343 0.650168
Si Si4 0.075609 0.998994 0.258192
Si Si5 0.981814 0.086326 0.070949
O O1 0.512302 0.871484 0.968051
O O2 0.742367 0.934522 0.873634
O O3 0.586322 0.712759 0.991891
O O4 0.431187 0.930647 0.132163
O O5 0.500000 0.164181 0.250000
O O6 0.250000 0.250000 0.500000
O O7 0.500583 0.136236 0.362624
O O8 0.558695 0.350461 0.270323
O O9 0.215754 0.880427 0.788244
O O10 0.992386 0.031684 0.382645
O O11 0.000000 0.036203 0.250000
O O12 0.000000 0.000000 0.000000
#
# Coordination Sequence:
#
# PCOD9294234 Si02
#       5
#     8   8   8   8   8
#     4  10  23  42  65  94 128 176 212 275 339 388
#     4  11  24  41  68  99 133 173 219 279 336 399
#     4  10  23  39  65  93 131 163 217 270 333 397
#     4  10  23  43  66  92 133 174 215 273 343 392
#     4  11  25  39  69  96 128 170 229 270 323 403
#
# _framework density 20.322721000000001
#
# number of rings (size 3 to 8) (size 9 to 14) (size 15 to 20)
#    0.000    1.600    0.000    3.600   19.600    0.800 
#    0.000    1.000    0.000    0.000    0.000    0.000 
#    0.000    0.000    0.000    0.000    0.000    0.000 
#
# Total GULP energy -111481.820989 kJ/mol
# GULP energy per Si atom -5574.091049 kJ/mol
# Density = 2.027647 g / cm^3
# Si number density = 20.322721 Si / 1000 Ang^3
#
#
#
# Elastic Constant Matrix: (Units=GPa)
#
#
# Indices 1 2 3 4 5 6 
#
# 1 189.1278 45.9710 35.0896 -0.0007 29.0276 0.0000
# 2 45.9710 92.3226 16.1259 0.0016 9.9398 -0.0004
# 3 35.0896 16.1259 65.7924 0.0004 2.9745 -0.0003
# 4 -0.0007 0.0016 0.0004 26.8939 0.0002 1.3976
# 5 29.0276 9.9398 2.9745 0.0002 24.1416 -0.0001
# 6 0.0000 -0.0004 -0.0003 1.3976 -0.0001 29.6035
#
#
#
# Elastic Compliance Matrix: (Units=1/GPa)
#
#
# Indices 1 2 3 4 5 6 
#
# 1 0.007660 -0.002424 -0.003137 0.000000 -0.007826 0.000000
# 2 -0.002424 0.012554 -0.001692 -0.000001 -0.002046 0.000000
# 3 -0.003137 -0.001692 0.017181 0.000000 0.002352 0.000000
# 4 0.000000 -0.000001 0.000000 0.037275 0.000000 -0.001760
# 5 -0.007826 -0.002046 0.002352 0.000000 0.051384 0.000000
# 6 0.000000 0.000000 0.000000 -0.001760 0.000000 0.033863
#
#
# Mechanical properties :
#
#
# Convention : Reuss Voigt Hill
#
# Bulk Modulus (GPa) = 43.68896 60.17953 51.93425
# Shear Modulus (GPa) = 27.46465 32.79823 30.13144
#
# Velocity S-wave (km/s) = 3.68016 4.02166 3.85469
# Velocity P-wave (km/s) = 6.29304 7.15830 6.73957
#
# Compressibility (1/GPa) = 0.02288908
#
# Stress axis : x y z
#
# Youngs Moduli (GPa) = 130.55385 79.65451 58.20382
#
# Poissons Ratio (x) = 0.19304 0.18261
# Poissons Ratio (y) = 0.31640 0.09848
# Poissons Ratio (z) = 0.40960 0.13477
#
# Static dielectric constant tensor:
#      x y z
#    x 1.748010 0.000000 0.024070 
#    y 0.000000 1.755300 0.000000 
#    z 0.024070 0.000000 1.785870 
# 
# From -- ./inp_files/257448.got.cif
#   From: 2010.05.17/outbox.cif.g08.bks.cpg/sg15_129_cif.got.tgz:257448.got - 2010.06.03 18:47:42.
