data_PCOD9294312
_publ_section_title
;
Structure prediction by ZEFSAII (Michael W. Deem and Ramdas Pophale) SiO2 
 PCOD9294312
Probable space group: C 2/C
;
_chemical_formula_sum "Si O2"
_cell_formula_units_Z 52
_cell_length_a 16.213147
_cell_length_b 16.085705
_cell_length_c 10.868498
_cell_angle_alpha 90.000000
_cell_angle_beta 132.829045
_cell_angle_gamma 90.000000
_cell_volume 2078.783086
_symmetry_space_group_name_H-M "C 2/C"
_symmetry_group_IT_number 15
_symmetry_cell_setting 'monoclinic'
loop_
_space_group_symop_operation_xyz
x,y,z
-x,y,1/2-z
-x,-y,-z
x,-y,1/2+z
1/2+x,1/2+y,z
1/2-x,1/2+y,1/2-z
1/2-x,1/2-y,-z
1/2+x,1/2-y,1/2+z
loop_
_atom_site_type_symbol
_atom_site_label
_atom_site_fract_x
_atom_site_fract_y
_atom_site_fract_z
Si Si1 0.254936 0.132549 0.744469
Si Si2 0.679278 0.663140 0.421773
Si Si3 0.312259 0.006226 0.994228
Si Si4 0.500000 0.728158 0.750000
Si Si5 0.005525 0.603238 0.615886
Si Si6 0.140454 0.360746 0.757409
Si Si7 0.367523 0.689719 0.388752
O O1 0.157964 0.145647 0.544859
O O2 0.237481 0.069798 0.838286
O O3 0.364964 0.097161 0.785665
O O4 0.303950 0.221083 0.835620
O O5 0.750000 0.750000 0.500000
O O6 0.745347 0.578725 0.450638
O O7 0.600987 0.678383 0.222954
O O8 0.359120 0.058840 0.155891
O O9 0.426495 0.977537 0.042264
O O10 0.603641 0.786132 0.810567
O O11 0.460161 0.680388 0.587983
O O12 0.946504 0.650858 0.443649
O O13 0.000000 0.639325 0.750000
O O14 0.262703 0.367174 0.820400
#
# Coordination Sequence:
#
# PCOD9294312 Si02
#       7
#     8   8   8   4   8   8   8
#     4  11  22  38  60  95 135 175 219 266 342 403
#     4  10  23  40  59  89 133 178 216 265 328 403
#     4  12  23  36  64  96 135 177 208 280 331 417
#     4  12  24  40  68  94 136 174 214 288 324 412
#     4  12  23  33  57  95 135 173 207 266 339 404
#     4  12  24  41  61 101 133 173 228 268 341 395
#     4  11  23  43  64  93 136 179 222 274 333 399
#
# _framework density 25.014635999999999
#
# number of rings (size 3 to 8) (size 9 to 14) (size 15 to 20)
#    0.000    0.615    6.154    1.846    3.231    0.000 
#    0.000    0.000    0.000    0.923    0.000    2.154 
#    0.000    0.000    0.000    0.000    0.000    0.000 
#
# Total GULP energy -145115.274765 kJ/mol
# GULP energy per Si atom -5581.356722 kJ/mol
# Density = 2.495770 g / cm^3
# Si number density = 25.014636 Si / 1000 Ang^3
#
#
#
# Elastic Constant Matrix: (Units=GPa)
#
#
# Indices 1 2 3 4 5 6 
#
# 1 26.9761 -3.6182 29.6849 0.0000 -6.5239 0.0000
# 2 -3.6182 61.2685 36.4319 0.0000 -6.3865 0.0000
# 3 29.6849 36.4319 218.0842 0.0000 -46.4979 0.0000
# 4 0.0000 0.0000 0.0000 36.1001 0.0000 -19.2045
# 5 -6.5239 -6.3865 -46.4979 0.0000 41.6117 0.0000
# 6 0.0000 0.0000 0.0000 -19.2045 0.0000 32.3657
#
#
#
# Elastic Compliance Matrix: (Units=1/GPa)
#
#
# Indices 1 2 3 4 5 6 
#
# 1 0.046291 0.007196 -0.007509 0.000000 -0.000029 0.000000
# 2 0.007196 0.019260 -0.004366 0.000000 -0.000795 0.000000
# 3 -0.007509 -0.004366 0.007802 0.000000 0.006870 0.000000
# 4 0.000000 0.000000 0.000000 0.040478 0.000000 0.024018
# 5 -0.000029 -0.000795 0.006870 0.000000 0.031582 0.000000
# 6 0.000000 0.000000 0.000000 0.024018 0.000000 0.045148
#
#
# Mechanical properties :
#
#
# Convention : Reuss Voigt Hill
#
# Bulk Modulus (GPa) = 15.62655 47.92508 31.77582
# Shear Modulus (GPa) = 22.59859 38.27083 30.43471
#
# Velocity S-wave (km/s) = 3.00895 3.91568 3.49187
# Velocity P-wave (km/s) = 4.28161 6.29634 5.38405
#
# Compressibility (1/GPa) = 0.06399365
#
# Stress axis : x y z
#
# Youngs Moduli (GPa) = 21.60228 51.92075 128.17512
#
# Poissons Ratio (x) = -0.37362 0.96251
# Poissons Ratio (y) = -0.15545 0.55967
# Poissons Ratio (z) = 0.16222 0.22671
#
# Static dielectric constant tensor:
#      x y z
#    x 2.082250 0.000000 -0.041730 
#    y 0.000000 2.078200 0.000000 
#    z -0.041730 0.000000 2.056470 
# 
# From -- ./inp_files/113708.got.cif
#   From: 2010.05.17/outbox.cif.g08.bks.cpg/sg15_57_cif.got.tgz:113708.got - 2010.06.03 18:47:42.
