data_PCOD9294080
_publ_section_title
;
Structure prediction by ZEFSAII (Michael W. Deem and Ramdas Pophale) SiO2 
 PCOD9294080
Probable space group: C 2/C
;
_chemical_formula_sum "Si O2"
_cell_formula_units_Z 36
_cell_length_a 9.740116
_cell_length_b 11.547692
_cell_length_c 18.805972
_cell_angle_alpha 90.000000
_cell_angle_beta 67.948492
_cell_angle_gamma 90.000000
_cell_volume 1960.482730
_symmetry_space_group_name_H-M "C 2/C"
_symmetry_group_IT_number 15
_symmetry_cell_setting 'monoclinic'
loop_
_space_group_symop_operation_xyz
x,y,z
-x,y,1/2-z
-x,-y,-z
x,-y,1/2+z
1/2+x,1/2+y,z
1/2-x,1/2+y,1/2-z
1/2-x,1/2-y,-z
1/2+x,1/2-y,1/2+z
loop_
_atom_site_type_symbol
_atom_site_label
_atom_site_fract_x
_atom_site_fract_y
_atom_site_fract_z
Si Si1 0.742906 0.754976 0.878004
Si Si2 0.601315 0.894681 0.032895
Si Si3 0.707937 0.134564 0.964330
Si Si4 0.500000 0.607978 0.250000
Si Si5 0.016199 0.886695 0.325509
O O1 0.819640 0.667003 0.917587
O O2 0.626558 0.686100 0.852322
O O3 0.868225 0.816846 0.807335
O O4 0.663034 0.846836 0.945493
O O5 0.428660 0.858658 0.064598
O O6 0.645835 0.029757 0.025339
O O7 0.857962 0.102862 0.894390
O O8 0.750000 0.250000 0.000000
O O9 0.563000 0.518395 0.297224
O O10 0.000000 0.831233 0.250000
#
# Coordination Sequence:
#
# PCOD9294080 Si02
#       5
#     8   8   8   4   8
#     4  11  22  42  62  92 121 169 206 264 316 369
#     4  10  23  38  66  94 124 155 217 261 313 379
#     4  11  21  41  63  94 127 162 208 266 313 379
#     4  10  24  42  62  88 140 162 218 260 314 392
#     4  10  23  42  61  89 129 169 209 255 322 383
#
# _framework density 18.362825000000001
#
# number of rings (size 3 to 8) (size 9 to 14) (size 15 to 20)
#    0.667    0.889    4.444    0.000    3.111    2.667 
#    0.000    0.000    0.000    0.000    0.000    0.000 
#    0.000    0.000    0.000    0.000    0.000    0.000 
#
# Total GULP energy -100297.019184 kJ/mol
# GULP energy per Si atom -5572.056621 kJ/mol
# Density = 1.832103 g / cm^3
# Si number density = 18.362825 Si / 1000 Ang^3
#
#
#
# Elastic Constant Matrix: (Units=GPa)
#
#
# Indices 1 2 3 4 5 6 
#
# 1 138.4572 77.1496 64.2386 0.0000 2.9643 0.0000
# 2 77.1496 111.0841 40.2928 0.0000 0.0619 0.0000
# 3 64.2386 40.2928 96.8941 0.0000 -8.4615 0.0000
# 4 0.0000 0.0000 0.0000 -15.1164 0.0000 5.6723
# 5 2.9643 0.0619 -8.4615 0.0000 18.2421 0.0000
# 6 0.0000 0.0000 0.0000 5.6723 0.0000 33.7669
#
#
#
# Elastic Compliance Matrix: (Units=1/GPa)
#
#
# Indices 1 2 3 4 5 6 
#
# 1 0.015072 -0.007840 -0.007237 0.000000 -0.005780 0.000000
# 2 -0.007840 0.014762 -0.000869 0.000000 0.000820 0.000000
# 3 -0.007237 -0.000869 0.016241 0.000000 0.008712 0.000000
# 4 0.000000 0.000000 0.000000 -0.062231 0.000000 0.010454
# 5 -0.005780 0.000820 0.008712 0.000000 0.059796 0.000000
# 6 0.000000 0.000000 0.000000 0.010454 0.000000 0.027859
#
#
# Mechanical properties :
#
#
# Convention : Reuss Voigt Hill
#
# Bulk Modulus (GPa) = 70.50930 78.86636 74.68783
# Shear Modulus (GPa) = 46.24539 18.36216 32.30378
#
# Velocity S-wave (km/s) = 5.02384 3.16565 4.19883
# Velocity P-wave (km/s) = 8.49312 7.51026 8.01677
#
# Compressibility (1/GPa) = 0.01418253
#
# Stress axis : x y z
#
# Youngs Moduli (GPa) = 66.34707 67.74233 61.57227
#
# Poissons Ratio (x) = 0.53107 0.44561
# Poissons Ratio (y) = 0.52013 0.05354
# Poissons Ratio (z) = 0.48017 0.05890
#
# Static dielectric constant tensor:
#      x y z
#    x 1.625450 0.000000 -0.004210 
#    y 0.000000 1.660900 0.000000 
#    z -0.004210 0.000000 1.620150 
# 
# From -- ./inp_files/187648.got.cif
#   From: 2010.05.17/outbox.cif.g08.bks.cpg/sg15_94_cif.got.tgz:187648.got - 2010.06.03 18:47:42.
