data_PCOD9294795
_publ_section_title
;
Structure prediction by ZEFSAII (Michael W. Deem and Ramdas Pophale) SiO2 
 PCOD9294795
Probable space group: C 2/C
;
_chemical_formula_sum "Si O2"
_cell_formula_units_Z 64
_cell_length_a 23.709935
_cell_length_b 15.140032
_cell_length_c 12.534688
_cell_angle_alpha 90.000000
_cell_angle_beta 139.270091
_cell_angle_gamma 90.000000
_cell_volume 2935.940523
_symmetry_space_group_name_H-M "C 2/C"
_symmetry_group_IT_number 15
_symmetry_cell_setting 'monoclinic'
loop_
_space_group_symop_operation_xyz
x,y,z
-x,y,1/2-z
-x,-y,-z
x,-y,1/2+z
1/2+x,1/2+y,z
1/2-x,1/2+y,1/2-z
1/2-x,1/2-y,-z
1/2+x,1/2-y,1/2+z
loop_
_atom_site_type_symbol
_atom_site_label
_atom_site_fract_x
_atom_site_fract_y
_atom_site_fract_z
Si Si1 0.238118 0.118169 0.696659
Si Si2 0.314669 0.196857 0.294406
Si Si3 0.091737 0.616851 0.891012
Si Si4 0.393132 0.794087 0.691278
Si Si5 0.338038 0.780031 0.187352
Si Si6 0.580588 0.706471 0.985973
Si Si7 0.793067 0.457660 0.501002
Si Si8 0.828869 0.056794 0.475448
O O1 0.205961 0.217711 0.665012
O O2 0.315086 0.131437 0.722256
O O3 0.172306 0.044695 0.560778
O O4 0.269255 0.081376 0.852957
O O5 0.393685 0.150420 0.468269
O O6 0.333757 0.234142 0.204472
O O7 0.243354 0.119497 0.185350
O O8 0.095239 0.696338 0.810361
O O9 0.170976 0.554621 0.970298
O O10 0.000000 0.570157 0.750000
O O11 0.370673 0.758055 0.541414
O O12 0.372915 0.898324 0.659845
O O13 0.487544 0.754709 0.852086
O O14 0.377533 0.716776 0.336644
O O15 0.250000 0.750000 0.000000
O O16 0.585947 0.607640 0.944682
O O17 0.710327 0.446661 0.460556
#
# Coordination Sequence:
#
# PCOD9294795 Si02
#       8
#     8   8   8   8   8   8   8   8
#     4  12  22  39  69  94 127 169 229 265 321 383
#     4  11  22  44  62  92 131 174 217 271 322 384
#     4  12  25  39  63  97 140 169 210 267 334 400
#     4  10  23  41  66  94 131 172 215 269 340 380
#     4  12  23  42  64  93 131 180 219 261 321 391
#     4  11  22  41  66  93 129 168 221 269 324 381
#     4  11  23  39  63 100 132 167 214 270 329 396
#     4  11  22  39  66  96 125 170 222 271 318 384
#
# _framework density 21.798807
#
# number of rings (size 3 to 8) (size 9 to 14) (size 15 to 20)
#    0.000    0.750    6.250    1.500    1.750    2.000 
#    0.000    3.125    2.750    0.000    0.000    0.000 
#    0.000    0.000    0.000    0.000    0.000    0.000 
#
# Total GULP energy -178264.450891 kJ/mol
# GULP energy per Si atom -5570.764090 kJ/mol
# Density = 2.174919 g / cm^3
# Si number density = 21.798807 Si / 1000 Ang^3
#
#
#
# Elastic Constant Matrix: (Units=GPa)
#
#
# Indices 1 2 3 4 5 6 
#
# 1 58.2570 -5.0575 21.5421 0.0000 -19.8341 0.0000
# 2 -5.0575 41.8868 -0.4530 0.0000 -7.5501 0.0000
# 3 21.5421 -0.4530 99.9088 0.0000 -17.2324 0.0000
# 4 0.0000 0.0000 0.0000 32.3417 0.0000 -2.0495
# 5 -19.8341 -7.5501 -17.2324 0.0000 34.8233 0.0000
# 6 0.0000 0.0000 0.0000 -2.0495 0.0000 31.0121
#
#
#
# Elastic Compliance Matrix: (Units=1/GPa)
#
#
# Indices 1 2 3 4 5 6 
#
# 1 0.022982 0.005060 -0.002717 0.000000 0.012842 0.000000
# 2 0.005060 0.026078 0.000546 0.000000 0.008806 0.000000
# 3 -0.002717 0.000546 0.011317 0.000000 0.004171 0.000000
# 4 0.000000 0.000000 0.000000 0.031050 0.000000 0.002052
# 5 0.012842 0.008806 0.004171 0.000000 0.040004 0.000000
# 6 0.000000 0.000000 0.000000 0.002052 0.000000 0.032381
#
#
# Mechanical properties :
#
#
# Convention : Reuss Voigt Hill
#
# Bulk Modulus (GPa) = 15.11610 25.79064 20.45337
# Shear Modulus (GPa) = 27.76466 31.90349 29.83407
#
# Velocity S-wave (km/s) = 3.57273 3.82978 3.70349
# Velocity P-wave (km/s) = 4.89578 5.60474 5.26222
#
# Compressibility (1/GPa) = 0.06615463
#
# Stress axis : x y z
#
# Youngs Moduli (GPa) = 43.51313 38.34638 88.36337
#
# Poissons Ratio (x) = -0.19404 0.24011
# Poissons Ratio (y) = -0.22019 -0.04826
# Poissons Ratio (z) = 0.11824 -0.02094
#
# Static dielectric constant tensor:
#      x y z
#    x 1.870880 0.000000 0.034580 
#    y 0.000000 1.833860 0.000000 
#    z 0.034580 0.000000 1.839100 
# 
# From -- ./inp_files/123531.got.cif
#   From: 2010.05.17/outbox.cif.g08.bks.cpg/sg15_62_cif.got.tgz:123531.got - 2010.06.03 18:47:42.
