data_PCOD9294575
_publ_section_title
;
Structure prediction by ZEFSAII (Michael W. Deem and Ramdas Pophale) SiO2 
 PCOD9294575
Probable space group: C 2/C
;
_chemical_formula_sum "Si O2"
_cell_formula_units_Z 56
_cell_length_a 21.506959
_cell_length_b 22.841164
_cell_length_c 8.583154
_cell_angle_alpha 90.000000
_cell_angle_beta 138.617163
_cell_angle_gamma 90.000000
_cell_volume 2787.422828
_symmetry_space_group_name_H-M "C 2/C"
_symmetry_group_IT_number 15
_symmetry_cell_setting 'monoclinic'
loop_
_space_group_symop_operation_xyz
x,y,z
-x,y,1/2-z
-x,-y,-z
x,-y,1/2+z
1/2+x,1/2+y,z
1/2-x,1/2+y,1/2-z
1/2-x,1/2-y,-z
1/2+x,1/2-y,1/2+z
loop_
_atom_site_type_symbol
_atom_site_label
_atom_site_fract_x
_atom_site_fract_y
_atom_site_fract_z
Si Si1 0.108855 0.837628 0.941258
Si Si2 0.257309 0.317437 0.571114
Si Si3 0.756131 0.075578 0.623429
Si Si4 0.801367 0.524134 0.284790
Si Si5 0.611825 0.078859 0.761878
Si Si6 0.181943 0.722458 0.242496
Si Si7 0.939038 0.635765 0.281678
O O1 0.149343 0.840121 0.841001
O O2 0.000000 0.851696 0.750000
O O3 0.171242 0.879959 0.166255
O O4 0.128588 0.772958 0.046609
O O5 0.250000 0.250000 0.500000
O O6 0.175957 0.362559 0.362280
O O7 0.243975 0.312591 0.731662
O O8 0.764505 0.013745 0.725929
O O9 0.649987 0.099725 0.450373
O O10 0.757263 0.064991 0.441244
O O11 0.871962 0.559075 0.529496
O O12 0.852890 0.476318 0.273120
O O13 0.491550 0.095107 0.988680
O O14 0.250000 0.750000 0.500000
O O15 0.105967 0.683725 0.190366
O O16 0.000000 0.658657 0.250000
#
# Coordination Sequence:
#
# PCOD9294575 Si02
#       7
#     8   8   8   8   8   8   8
#     4  11  24  45  68  94 128 176 231 283 338 393
#     4  10  23  43  67  93 134 176 226 282 340 401
#     4  11  22  44  62  96 133 176 218 284 333 404
#     4  10  23  40  70  95 142 180 224 270 348 410
#     4  11  23  41  67 103 139 186 220 276 344 422
#     4  11  25  41  68  95 132 179 222 279 343 406
#     4  12  24  39  66 101 144 175 222 271 337 411
#
# _framework density 20.090242
#
# number of rings (size 3 to 8) (size 9 to 14) (size 15 to 20)
#    0.000    1.143    4.286    0.857    6.000    5.143 
#    0.000    0.714    0.000    0.000    0.000    0.000 
#    0.000    0.000    0.000    0.000    0.000    0.000 
#
# Total GULP energy -156372.683770 kJ/mol
# GULP energy per Si atom -5584.738706 kJ/mol
# Density = 2.004452 g / cm^3
# Si number density = 20.090242 Si / 1000 Ang^3
#
#
#
# Elastic Constant Matrix: (Units=GPa)
#
#
# Indices 1 2 3 4 5 6 
#
# 1 128.6525 50.5510 70.1405 0.0000 -18.6149 0.0000
# 2 50.5510 88.9324 43.8625 0.0000 -4.1047 0.0000
# 3 70.1405 43.8625 113.9335 0.0000 -3.8415 0.0000
# 4 0.0000 0.0000 0.0000 35.5351 0.0000 -8.7110
# 5 -18.6149 -4.1047 -3.8415 0.0000 38.0284 0.0000
# 6 0.0000 0.0000 0.0000 -8.7110 0.0000 42.0729
#
#
#
# Elastic Compliance Matrix: (Units=1/GPa)
#
#
# Indices 1 2 3 4 5 6 
#
# 1 0.013984 -0.004363 -0.006737 0.000000 0.005694 0.000000
# 2 -0.004363 0.015277 -0.003222 0.000000 -0.000812 0.000000
# 3 -0.006737 -0.003222 0.014090 0.000000 -0.002222 0.000000
# 4 0.000000 0.000000 0.000000 0.029646 0.000000 0.006138
# 5 0.005694 -0.000812 -0.002222 0.000000 0.028771 0.000000
# 6 0.000000 0.000000 0.000000 0.006138 0.000000 0.025039
#
#
# Mechanical properties :
#
#
# Convention : Reuss Voigt Hill
#
# Bulk Modulus (GPa) = 68.00360 73.40292 70.70326
# Shear Modulus (GPa) = 31.18080 34.25824 32.71952
#
# Velocity S-wave (km/s) = 3.94386 4.13391 4.04000
# Velocity P-wave (km/s) = 7.39333 7.70724 7.55191
#
# Compressibility (1/GPa) = 0.01470510
#
# Stress axis : x y z
#
# Youngs Moduli (GPa) = 71.50872 65.45998 70.97019
#
# Poissons Ratio (x) = 0.28562 0.47815
# Poissons Ratio (y) = 0.31201 0.22870
# Poissons Ratio (z) = 0.48178 0.21094
#
# Static dielectric constant tensor:
#      x y z
#    x 1.757130 0.000000 -0.046480 
#    y 0.000000 1.748790 0.000000 
#    z -0.046480 0.000000 1.690940 
# 
# From -- ./inp_files/51585.got.cif
#   From: 2010.05.17/outbox.cif.g08.bks.cpg/sg15_26_cif.got.tgz:51585.got - 2010.06.03 18:47:42.
