data_PCOD9294350
_publ_section_title
;
Structure prediction by ZEFSAII (Michael W. Deem and Ramdas Pophale) SiO2 
 PCOD9294350
Probable space group: C 2/C
;
_chemical_formula_sum "Si O2"
_cell_formula_units_Z 48
_cell_length_a 8.750321
_cell_length_b 25.724252
_cell_length_c 15.325919
_cell_angle_alpha 90.000000
_cell_angle_beta 33.382569
_cell_angle_gamma 90.000000
_cell_volume 1898.169327
_symmetry_space_group_name_H-M "C 2/C"
_symmetry_group_IT_number 15
_symmetry_cell_setting 'monoclinic'
loop_
_space_group_symop_operation_xyz
x,y,z
-x,y,1/2-z
-x,-y,-z
x,-y,1/2+z
1/2+x,1/2+y,z
1/2-x,1/2+y,1/2-z
1/2-x,1/2-y,-z
1/2+x,1/2-y,1/2+z
loop_
_atom_site_type_symbol
_atom_site_label
_atom_site_fract_x
_atom_site_fract_y
_atom_site_fract_z
Si Si1 0.500000 0.515296 0.750000
Si Si2 0.414786 0.090237 0.473454
Si Si3 0.460741 0.682431 0.924983
Si Si4 0.500000 0.752101 0.750000
Si Si5 0.171541 0.865194 0.486230
Si Si6 0.194976 0.963001 0.829255
Si Si7 0.000000 0.857725 0.750000
Si Si8 0.000000 0.556345 0.750000
O O1 0.763663 0.552734 0.613518
O O2 0.526193 0.480407 0.823123
O O3 0.205426 0.135221 0.542049
O O4 0.498833 0.053596 0.352182
O O5 0.707998 0.113311 0.366982
O O6 0.230501 0.713833 0.091208
O O7 0.677457 0.667659 0.896030
O O8 0.600760 0.715268 0.780834
O O9 0.088091 0.834776 0.613549
O O10 0.430140 0.905095 0.363085
O O11 0.926440 0.907530 0.584701
O O12 0.246157 0.017593 0.853399
#
# Coordination Sequence:
#
# PCOD9294350 Si02
#       8
#     4   8   8   4   8   8   4   4
#     4  12  22  36  60  96 136 182 236 264 289 364
#     4  11  22  39  63  94 133 177 221 269 322 382
#     4  11  23  44  72  97 122 160 215 272 339 402
#     4  10  23  43  74 101 118 148 212 286 337 406
#     4  11  23  40  62  93 133 179 221 267 324 385
#     4  11  21  35  55  88 135 183 222 264 311 367
#     4  10  23  40  62  90 130 178 212 256 326 384
#     4  12  22  35  58  91 132 174 226 274 308 368
#
# _framework density 25.287521999999999
#
# number of rings (size 3 to 8) (size 9 to 14) (size 15 to 20)
#    0.000    1.000    0.000    9.500    0.000    1.333 
#    0.000    0.000    0.000   26.000    0.000    0.000 
#    0.000    0.000    0.000    0.000    0.000    0.000 
#
# Total GULP energy -133987.212636 kJ/mol
# GULP energy per Si atom -5582.800526 kJ/mol
# Density = 2.522997 g / cm^3
# Si number density = 25.287522 Si / 1000 Ang^3
#
#
#
# Elastic Constant Matrix: (Units=GPa)
#
#
# Indices 1 2 3 4 5 6 
#
# 1 85.7491 20.6258 -11.8012 0.0000 19.4834 0.0000
# 2 20.6258 54.4499 6.1711 0.0000 16.5760 0.0000
# 3 -11.8012 6.1711 60.0880 0.0000 13.0559 0.0000
# 4 0.0000 0.0000 0.0000 27.7936 0.0000 1.4029
# 5 19.4834 16.5760 13.0559 0.0000 44.8284 0.0000
# 6 0.0000 0.0000 0.0000 1.4029 0.0000 35.6255
#
#
#
# Elastic Compliance Matrix: (Units=1/GPa)
#
#
# Indices 1 2 3 4 5 6 
#
# 1 0.014730 -0.004221 0.004674 0.000000 -0.006202 0.000000
# 2 -0.004221 0.021919 -0.001834 0.000000 -0.005736 0.000000
# 3 0.004674 -0.001834 0.019262 0.000000 -0.006963 0.000000
# 4 0.000000 0.000000 0.000000 0.036051 0.000000 -0.001420
# 5 -0.006202 -0.005736 -0.006963 0.000000 0.029152 0.000000
# 6 0.000000 0.000000 0.000000 -0.001420 0.000000 0.028126
#
#
# Mechanical properties :
#
#
# Convention : Reuss Voigt Hill
#
# Bulk Modulus (GPa) = 18.81542 25.58647 22.20095
# Shear Modulus (GPa) = 29.46086 34.00225 31.73155
#
# Velocity S-wave (km/s) = 3.41696 3.67089 3.54620
# Velocity P-wave (km/s) = 4.79836 5.30165 5.05627
#
# Compressibility (1/GPa) = 0.05314790
#
# Stress axis : x y z
#
# Youngs Moduli (GPa) = 67.88940 45.62339 51.91690
#
# Poissons Ratio (x) = 0.19259 -0.24267
# Poissons Ratio (y) = 0.28658 0.09521
# Poissons Ratio (z) = -0.31732 0.08367
#
# Static dielectric constant tensor:
#      x y z
#    x 2.022080 0.000000 -0.004160 
#    y 0.000000 2.002760 0.000000 
#    z -0.004160 0.000000 2.168670 
# 
# From -- ./inp_files/138991.got.cif
#   From: 2010.05.17/outbox.cif.g08.bks.cpg/sg15_70_cif.got.tgz:138991.got - 2010.06.03 18:47:42.
