data_PCOD9294429
_publ_section_title
;
Structure prediction by ZEFSAII (Michael W. Deem and Ramdas Pophale) SiO2 
 PCOD9294429
Probable space group: C 2/C
;
_chemical_formula_sum "Si O2"
_cell_formula_units_Z 64
_cell_length_a 15.919790
_cell_length_b 7.984689
_cell_length_c 30.383552
_cell_angle_alpha 90.000000
_cell_angle_beta 135.781388
_cell_angle_gamma 90.000000
_cell_volume 2693.484922
_symmetry_space_group_name_H-M "C 2/C"
_symmetry_group_IT_number 15
_symmetry_cell_setting 'monoclinic'
loop_
_space_group_symop_operation_xyz
x,y,z
-x,y,1/2-z
-x,-y,-z
x,-y,1/2+z
1/2+x,1/2+y,z
1/2-x,1/2+y,1/2-z
1/2-x,1/2-y,-z
1/2+x,1/2-y,1/2+z
loop_
_atom_site_type_symbol
_atom_site_label
_atom_site_fract_x
_atom_site_fract_y
_atom_site_fract_z
Si Si1 0.370734 0.725753 0.071083
Si Si2 0.270050 0.398452 0.066446
Si Si3 0.103492 0.570490 0.836565
Si Si4 0.951247 0.670511 0.079140
Si Si5 0.234422 0.724503 0.346747
Si Si6 0.205007 0.488679 0.203219
Si Si7 0.969937 0.017715 0.436722
Si Si8 0.331238 0.185076 0.723304
O O1 0.348678 0.565838 0.093813
O O2 0.375685 0.888829 0.104466
O O3 0.462558 0.658968 0.068189
O O4 0.250000 0.750000 0.000000
O O5 0.358019 0.253254 0.079651
O O6 0.238559 0.353484 0.104099
O O7 0.145072 0.410468 0.991573
O O8 0.120203 0.385238 0.821453
O O9 0.188185 0.679126 0.836163
O O10 0.970532 0.641648 0.781468
O O11 0.069050 0.559815 0.139100
O O12 0.006530 0.837104 0.076393
O O13 0.336413 0.585337 0.385414
O O14 0.249509 0.828788 0.307783
O O15 0.295377 0.635648 0.226273
O O16 0.220918 0.444011 0.260516
O O17 0.000000 0.000000 0.500000
#
# Coordination Sequence:
#
# PCOD9294429 Si02
#       8
#     8   8   8   8   8   8   8   8
#     4  11  25  41  70 101 147 192 237 290 363 441
#     4  10  23  40  65 104 145 194 228 286 358 452
#     4  11  25  48  70 100 141 195 241 298 363 443
#     4  10  23  43  67 101 151 191 239 289 365 446
#     4  12  24  42  72 104 146 182 243 296 369 433
#     4  12  26  45  73 106 136 187 246 317 366 430
#     4  11  22  40  65 107 151 197 230 289 356 447
#     4  11  26  48  73  99 140 187 247 305 369 431
#
# _framework density 23.761037999999999
#
# number of rings (size 3 to 8) (size 9 to 14) (size 15 to 20)
#    0.000    1.000    1.250    4.500    7.000    3.500 
#    0.000    7.500    0.000    0.000    0.000    0.000 
#    0.000    0.000    0.000    0.000    0.000    0.000 
#
# Total GULP energy -178409.968525 kJ/mol
# GULP energy per Si atom -5575.311516 kJ/mol
# Density = 2.370696 g / cm^3
# Si number density = 23.761038 Si / 1000 Ang^3
#
#
#
# Elastic Constant Matrix: (Units=GPa)
#
#
# Indices 1 2 3 4 5 6 
#
# 1 127.4592 45.9773 48.5151 0.0000 -19.2095 0.0000
# 2 45.9773 117.7490 25.4244 0.0000 3.7695 0.0000
# 3 48.5151 25.4244 82.3804 0.0000 -13.6107 0.0000
# 4 0.0000 0.0000 0.0000 32.8997 0.0000 -3.6208
# 5 -19.2095 3.7695 -13.6107 0.0000 45.8401 0.0000
# 6 0.0000 0.0000 0.0000 -3.6208 0.0000 52.7121
#
#
#
# Elastic Compliance Matrix: (Units=1/GPa)
#
#
# Indices 1 2 3 4 5 6 
#
# 1 0.011636 -0.003546 -0.005157 0.000000 0.003636 0.000000
# 2 -0.003546 0.010302 -0.001553 0.000000 -0.002794 0.000000
# 3 -0.005157 -0.001553 0.016110 0.000000 0.002750 0.000000
# 4 0.000000 0.000000 0.000000 0.030627 0.000000 0.002104
# 5 0.003636 -0.002794 0.002750 0.000000 0.024385 0.000000
# 6 0.000000 0.000000 0.000000 0.002104 0.000000 0.019116
#
#
# Mechanical properties :
#
#
# Convention : Reuss Voigt Hill
#
# Bulk Modulus (GPa) = 57.02879 63.04690 60.03784
# Shear Modulus (GPa) = 36.09259 40.13515 38.11387
#
# Velocity S-wave (km/s) = 3.90164 4.11434 4.00940
# Velocity P-wave (km/s) = 6.65959 7.01155 6.83783
#
# Compressibility (1/GPa) = 0.01753500
#
# Stress axis : x y z
#
# Youngs Moduli (GPa) = 85.94027 97.06789 62.07515
#
# Poissons Ratio (x) = 0.34424 0.32014
# Poissons Ratio (y) = 0.30477 0.09638
# Poissons Ratio (z) = 0.44322 0.15071
#
# Static dielectric constant tensor:
#      x y z
#    x 102.668280 -0.000020 -60.981220 
#    y -0.000020 2.001900 0.000010 
#    z -60.981220 0.000010 38.859960 
# 
# From -- ./inp_files/313180.got.cif
#   From: 2010.05.17/outbox.cif.g08.bks.cpg/sg15_157_cif.got.tgz:313180.got - 2010.06.03 18:47:42.
