data_PCOD9294619
_publ_section_title
;
Structure prediction by ZEFSAII (Michael W. Deem and Ramdas Pophale) SiO2 
 PCOD9294619
Probable space group: C 2/C
;
_chemical_formula_sum "Si O2"
_cell_formula_units_Z 44
_cell_length_a 20.356333
_cell_length_b 20.424089
_cell_length_c 5.181052
_cell_angle_alpha 90.000000
_cell_angle_beta 76.299164
_cell_angle_gamma 90.000000
_cell_volume 2092.779199
_symmetry_space_group_name_H-M "C 2/C"
_symmetry_group_IT_number 15
_symmetry_cell_setting 'monoclinic'
loop_
_space_group_symop_operation_xyz
x,y,z
-x,y,1/2-z
-x,-y,-z
x,-y,1/2+z
1/2+x,1/2+y,z
1/2-x,1/2+y,1/2-z
1/2-x,1/2-y,-z
1/2+x,1/2-y,1/2+z
loop_
_atom_site_type_symbol
_atom_site_label
_atom_site_fract_x
_atom_site_fract_y
_atom_site_fract_z
Si Si1 0.181041 0.184313 0.758716
Si Si2 0.459900 0.786661 0.052998
Si Si3 0.000000 0.044790 0.250000
Si Si4 0.332141 0.830610 0.936653
Si Si5 0.080117 0.455663 0.701817
Si Si6 0.395720 0.650308 0.171845
O O1 0.256902 0.164031 0.614822
O O2 0.169129 0.262680 0.726909
O O3 0.133920 0.147514 0.590513
O O4 0.162484 0.168517 0.069250
O O5 0.500000 0.817240 0.250000
O O6 0.448352 0.709958 0.107691
O O7 0.500000 0.794096 0.750000
O O8 0.385242 0.815028 0.112955
O O9 0.065009 0.090051 0.241087
O O10 0.000000 0.000000 0.500000
O O11 0.368078 0.895606 0.793253
O O12 0.091306 0.492166 0.419488
O O13 0.000000 0.435963 0.750000
#
# Coordination Sequence:
#
# PCOD9294619 Si02
#       6
#     8   8   4   8   8   8
#     4  10  24  41  66  95 129 166 205 279 326 391
#     4  11  22  35  63  95 124 163 207 270 321 384
#     4  12  26  42  68  92 126 170 212 272 322 380
#     4  10  23  41  65  96 131 167 216 263 336 378
#     4  10  23  41  61  89 128 171 213 258 303 381
#     4  11  23  42  62  90 128 160 215 259 329 390
#
# _framework density 21.024674000000001
#
# number of rings (size 3 to 8) (size 9 to 14) (size 15 to 20)
#    0.000    1.455    0.909    3.818    1.273   16.000 
#    0.000    5.455    0.000    0.000    0.000    0.000 
#    0.000    0.000    0.000    0.000    0.000    0.000 
#
# Total GULP energy -122829.965076 kJ/mol
# GULP energy per Si atom -5583.180231 kJ/mol
# Density = 2.097682 g / cm^3
# Si number density = 21.024674 Si / 1000 Ang^3
#
#
#
# Elastic Constant Matrix: (Units=GPa)
#
#
# Indices 1 2 3 4 5 6 
#
# 1 101.8607 25.7128 7.3698 0.0000 -3.2028 0.0000
# 2 25.7128 100.1301 19.0431 0.0000 -12.9034 0.0000
# 3 7.3698 19.0431 89.0803 0.0000 8.8964 0.0000
# 4 0.0000 0.0000 0.0000 26.1882 0.0000 3.2886
# 5 -3.2028 -12.9034 8.8964 0.0000 22.5658 0.0000
# 6 0.0000 0.0000 0.0000 3.2886 0.0000 34.1769
#
#
#
# Elastic Compliance Matrix: (Units=1/GPa)
#
#
# Indices 1 2 3 4 5 6 
#
# 1 0.010506 -0.002622 -0.000321 0.000000 0.000118 0.000000
# 2 -0.002622 0.012289 -0.003201 0.000000 0.007917 0.000000
# 3 -0.000321 -0.003201 0.012621 0.000000 -0.006851 0.000000
# 4 0.000000 0.000000 0.000000 0.038652 0.000000 -0.003719
# 5 0.000118 0.007917 -0.006851 0.000000 0.051560 0.000000
# 6 0.000000 0.000000 0.000000 -0.003719 0.000000 0.029617
#
#
# Mechanical properties :
#
#
# Convention : Reuss Voigt Hill
#
# Bulk Modulus (GPa) = 43.23410 43.92472 43.57941
# Shear Modulus (GPa) = 28.53198 32.51585 30.52391
#
# Velocity S-wave (km/s) = 3.68784 3.93689 3.81440
# Velocity P-wave (km/s) = 6.22428 6.45003 6.33816
#
# Compressibility (1/GPa) = 0.02312989
#
# Stress axis : x y z
#
# Youngs Moduli (GPa) = 95.18342 81.37201 79.23378
#
# Poissons Ratio (x) = 0.21333 0.02540
# Poissons Ratio (y) = 0.24954 0.25362
# Poissons Ratio (z) = 0.03051 0.26046
#
# Static dielectric constant tensor:
#      x y z
#    x 1.765300 0.000000 0.015170 
#    y 0.000000 1.842560 0.000000 
#    z 0.015170 0.000000 1.774830 
# 
# From -- ./inp_files/12868.got.cif
#   From: 2010.05.17/outbox.cif.g08.bks.cpg/sg15_7_cif.got.tgz:12868.got - 2010.06.03 18:47:42.
