data_PCOD9294711
_publ_section_title
;
Structure prediction by ZEFSAII (Michael W. Deem and Ramdas Pophale) SiO2 
 PCOD9294711
Probable space group: C 2/C
;
_chemical_formula_sum "Si O2"
_cell_formula_units_Z 48
_cell_length_a 14.188499
_cell_length_b 7.216054
_cell_length_c 24.544863
_cell_angle_alpha 90.000000
_cell_angle_beta 130.417186
_cell_angle_gamma 90.000000
_cell_volume 1913.276314
_symmetry_space_group_name_H-M "C 2/C"
_symmetry_group_IT_number 15
_symmetry_cell_setting 'monoclinic'
loop_
_space_group_symop_operation_xyz
x,y,z
-x,y,1/2-z
-x,-y,-z
x,-y,1/2+z
1/2+x,1/2+y,z
1/2-x,1/2+y,1/2-z
1/2-x,1/2-y,-z
1/2+x,1/2-y,1/2+z
loop_
_atom_site_type_symbol
_atom_site_label
_atom_site_fract_x
_atom_site_fract_y
_atom_site_fract_z
Si Si1 0.447191 0.391346 0.669556
Si Si2 0.391513 0.098123 0.348485
Si Si3 0.372017 0.609404 0.450577
Si Si4 0.679232 0.026626 0.062749
Si Si5 0.324877 0.335065 0.814013
Si Si6 0.645387 0.964665 0.428901
O O1 0.500000 0.376286 0.750000
O O2 0.325611 0.517649 0.622555
O O3 0.562450 0.439141 0.674031
O O4 0.393423 0.195871 0.627413
O O5 0.354803 0.144907 0.396731
O O6 0.369147 0.875807 0.337641
O O7 0.535454 0.116782 0.388390
O O8 0.295749 0.172720 0.268571
O O9 0.500000 0.500000 0.500000
O O10 0.390767 0.830535 0.462498
O O11 0.307937 0.582629 0.367409
O O12 0.276429 0.546789 0.460829
O O13 0.653031 0.111396 0.993718
#
# Coordination Sequence:
#
# PCOD9294711 Si02
#       6
#     8   8   8   8   8   8
#     4  11  23  43  68 101 138 176 230 284 342 418
#     4  10  23  41  64  97 133 176 223 275 337 412
#     4  11  26  45  67  98 140 179 233 288 346 413
#     4  11  23  45  67 100 133 186 226 282 349 412
#     4  10  23  41  64  95 136 176 225 272 340 408
#     4  11  25  41  70 100 135 176 231 282 351 411
#
# _framework density 25.087857
#
# number of rings (size 3 to 8) (size 9 to 14) (size 15 to 20)
#    0.000    1.333    1.667    2.500    4.667    6.667 
#    0.000    0.000    0.000    0.000    0.000    0.000 
#    0.000    0.000    0.000    0.000    0.000    0.000 
#
# Total GULP energy -134505.199792 kJ/mol
# GULP energy per Si atom -5604.383325 kJ/mol
# Density = 2.503076 g / cm^3
# Si number density = 25.087857 Si / 1000 Ang^3
#
#
#
# Elastic Constant Matrix: (Units=GPa)
#
#
# Indices 1 2 3 4 5 6 
#
# 1 140.3487 10.3070 52.6515 0.0000 1.9667 0.0000
# 2 10.3070 65.7030 10.3413 0.0000 -5.2933 0.0000
# 3 52.6515 10.3413 172.4583 0.0000 -6.6106 0.0000
# 4 0.0000 0.0000 0.0000 32.1161 0.0000 13.2545
# 5 1.9667 -5.2933 -6.6106 0.0000 51.7958 0.0000
# 6 0.0000 0.0000 0.0000 13.2545 0.0000 19.4316
#
#
#
# Elastic Compliance Matrix: (Units=1/GPa)
#
#
# Indices 1 2 3 4 5 6 
#
# 1 0.008124 -0.000947 -0.002451 0.000000 -0.000718 0.000000
# 2 -0.000947 0.015586 -0.000586 0.000000 0.001554 0.000000
# 3 -0.002451 -0.000586 0.006616 0.000000 0.000878 0.000000
# 4 0.000000 0.000000 0.000000 0.043337 0.000000 -0.029561
# 5 -0.000718 0.001554 0.000878 0.000000 0.019605 0.000000
# 6 0.000000 0.000000 0.000000 -0.029561 0.000000 0.071626
#
#
# Mechanical properties :
#
#
# Convention : Reuss Voigt Hill
#
# Bulk Modulus (GPa) = 44.72591 58.34551 51.53571
# Shear Modulus (GPa) = 27.72947 41.01605 34.37276
#
# Velocity S-wave (km/s) = 3.32820 4.04777 3.70550
# Velocity P-wave (km/s) = 5.71276 6.71959 6.23653
#
# Compressibility (1/GPa) = 0.02235841
#
# Stress axis : x y z
#
# Youngs Moduli (GPa) = 123.08904 64.16040 151.15794
#
# Poissons Ratio (x) = 0.06073 0.37050
# Poissons Ratio (y) = 0.11651 0.08859
# Poissons Ratio (z) = 0.30170 0.03760
#
# Static dielectric constant tensor:
#      x y z
#    x 2.003090 0.000000 0.024250 
#    y 0.000000 2.021030 0.000000 
#    z 0.024250 0.000000 1.949330 
# 
# From -- ./inp_files/295465.got.cif
#   From: 2010.05.17/outbox.cif.g08.bks.cpg/sg15_148_cif.got.tgz:295465.got - 2010.06.03 18:47:42.
