data_PCOD9294255
_publ_section_title
;
Structure prediction by ZEFSAII (Michael W. Deem and Ramdas Pophale) SiO2 
 PCOD9294255
Probable space group: C 2/C
;
_chemical_formula_sum "Si O2"
_cell_formula_units_Z 48
_cell_length_a 24.874282
_cell_length_b 11.758863
_cell_length_c 21.053946
_cell_angle_alpha 90.000000
_cell_angle_beta 161.467800
_cell_angle_gamma 90.000000
_cell_volume 1957.287432
_symmetry_space_group_name_H-M "C 2/C"
_symmetry_group_IT_number 15
_symmetry_cell_setting 'monoclinic'
loop_
_space_group_symop_operation_xyz
x,y,z
-x,y,1/2-z
-x,-y,-z
x,-y,1/2+z
1/2+x,1/2+y,z
1/2-x,1/2+y,1/2-z
1/2-x,1/2-y,-z
1/2+x,1/2-y,1/2+z
loop_
_atom_site_type_symbol
_atom_site_label
_atom_site_fract_x
_atom_site_fract_y
_atom_site_fract_z
Si Si1 0.500000 0.185632 0.750000
Si Si2 0.099343 0.492130 0.176346
Si Si3 0.500000 0.779110 0.750000
Si Si4 0.178822 0.478764 0.896050
Si Si5 0.427231 0.427605 0.860676
Si Si6 0.561092 0.576047 0.909531
Si Si7 0.581797 0.784841 0.480664
O O1 0.450480 0.244735 0.629489
O O2 0.645013 0.095123 0.893529
O O3 0.048544 0.539458 0.190000
O O4 0.077775 0.359545 0.171716
O O5 0.248673 0.636428 0.172634
O O6 0.000000 0.500000 0.000000
O O7 0.653078 0.866713 0.908471
O O8 0.473866 0.699278 0.659073
O O9 0.353624 0.485838 0.055431
O O10 0.273352 0.438808 0.860016
O O11 0.568211 0.331434 0.003506
O O12 0.500000 0.500000 0.000000
O O13 0.419374 0.510183 0.789958
#
# Coordination Sequence:
#
# PCOD9294255 Si02
#       7
#     4   8   4   8   8   8   8
#     4   9  20  43  72 106 138 189 242 285 370 418
#     4   9  19  41  67  94 135 185 237 281 347 418
#     4  11  20  39  66 110 148 183 240 289 374 418
#     4   8  20  39  66  98 147 186 231 294 349 425
#     4  12  28  49  70 109 142 188 251 289 363 435
#     4  10  23  39  67 100 142 183 233 298 344 429
#     4  11  25  45  76  99 144 189 228 310 356 422
#
# _framework density 24.523737000000001
#
# number of rings (size 3 to 8) (size 9 to 14) (size 15 to 20)
#    1.000    1.000    0.000    2.500    2.333    2.667 
#    3.000    1.667    0.000    0.000    0.000    0.000 
#    0.000    0.000    0.000    0.000    0.000    0.000 
#
# Total GULP energy -133683.968339 kJ/mol
# GULP energy per Si atom -5570.165347 kJ/mol
# Density = 2.446792 g / cm^3
# Si number density = 24.523737 Si / 1000 Ang^3
#
#
#
# Elastic Constant Matrix: (Units=GPa)
#
#
# Indices 1 2 3 4 5 6 
#
# 1 125.4236 66.0222 43.5085 -0.0010 -13.6601 -0.0014
# 2 66.0222 150.0078 44.6236 -0.0009 -15.9067 -0.0016
# 3 43.5085 44.6236 148.1725 -0.0008 -15.5528 -0.0020
# 4 -0.0010 -0.0009 -0.0008 26.4648 -0.0013 -7.5930
# 5 -13.6601 -15.9067 -15.5528 -0.0013 17.1215 -0.0019
# 6 -0.0014 -0.0016 -0.0020 -7.5930 -0.0019 51.4307
#
#
#
# Elastic Compliance Matrix: (Units=1/GPa)
#
#
# Indices 1 2 3 4 5 6 
#
# 1 0.011038 -0.003982 -0.001665 0.000000 0.003595 0.000000
# 2 -0.003982 0.009222 -0.001152 0.000000 0.004345 0.000000
# 3 -0.001665 -0.001152 0.008106 0.000001 0.004965 0.000001
# 4 0.000000 0.000000 0.000001 0.039457 0.000005 0.005825
# 5 0.003595 0.004345 0.004965 0.000005 0.069820 0.000004
# 6 0.000000 0.000000 0.000001 0.005825 0.000004 0.020304
#
#
# Mechanical properties :
#
#
# Convention : Reuss Voigt Hill
#
# Bulk Modulus (GPa) = 67.70973 81.32360 74.51666
# Shear Modulus (GPa) = 28.33393 36.96673 32.65033
#
# Velocity S-wave (km/s) = 3.40276 3.88672 3.65276
# Velocity P-wave (km/s) = 6.56568 7.30584 6.94563
#
# Compressibility (1/GPa) = 0.01476893
#
# Stress axis : x y z
#
# Youngs Moduli (GPa) = 90.59704 108.43430 123.36891
#
# Poissons Ratio (x) = 0.43175 0.20536
# Poissons Ratio (y) = 0.36072 0.14214
# Poissons Ratio (z) = 0.15081 0.12494
#
# Static dielectric constant tensor:
#      x y z
#    x 2.142270 0.000000 -0.179340 
#    y 0.000000 1.941040 0.000000 
#    z -0.179340 0.000000 2.513020 
# 
# From -- ./inp_files/214913.got.cif
#   From: 2010.05.17/outbox.cif.g08.bks.cpg/sg15_108_cif.got.tgz:214913.got - 2010.06.03 18:47:42.
