data_PCOD9294159
_publ_section_title
;
Structure prediction by ZEFSAII (Michael W. Deem and Ramdas Pophale) SiO2 
 PCOD9294159
Probable space group: C 2/C
;
_chemical_formula_sum "Si O2"
_cell_formula_units_Z 48
_cell_length_a 18.106504
_cell_length_b 21.346834
_cell_length_c 12.434484
_cell_angle_alpha 90.000000
_cell_angle_beta 147.931218
_cell_angle_gamma 90.000000
_cell_volume 2551.753908
_symmetry_space_group_name_H-M "C 2/C"
_symmetry_group_IT_number 15
_symmetry_cell_setting 'monoclinic'
loop_
_space_group_symop_operation_xyz
x,y,z
-x,y,1/2-z
-x,-y,-z
x,-y,1/2+z
1/2+x,1/2+y,z
1/2-x,1/2+y,1/2-z
1/2-x,1/2-y,-z
1/2+x,1/2-y,1/2+z
loop_
_atom_site_type_symbol
_atom_site_label
_atom_site_fract_x
_atom_site_fract_y
_atom_site_fract_z
Si Si1 0.163886 0.942362 0.936060
Si Si2 0.348795 0.372711 0.010001
Si Si3 0.287336 0.619725 0.777584
Si Si4 0.573110 0.431086 0.595001
Si Si5 0.153610 0.266793 0.983972
Si Si6 0.663235 0.943621 0.934593
O O1 0.154655 0.915669 0.804234
O O2 0.000000 0.962033 0.750000
O O3 0.207734 0.898551 0.090071
O O4 0.270398 0.998908 0.048575
O O5 0.500000 0.384379 0.250000
O O6 0.334647 0.420835 0.895162
O O7 0.352555 0.302226 0.970884
O O8 0.228008 0.385250 0.947994
O O9 0.211465 0.681770 0.639249
O O10 0.221803 0.562936 0.627542
O O11 0.446784 0.618409 0.936149
O O12 0.500000 0.500000 0.500000
O O13 0.250000 0.250000 0.000000
O O14 0.000000 0.283495 0.750000
O O15 0.500000 0.945041 0.750000
#
# Coordination Sequence:
#
# PCOD9294159 Si02
#       6
#     8   8   8   8   8   8
#     4  10  23  39  62  85 121 163 202 249 306 372
#     4  11  20  37  64  88 116 158 203 253 299 355
#     4  11  21  38  60  88 123 156 201 256 302 362
#     4  11  19  39  66  91 116 156 214 257 298 368
#     4  11  22  39  61  92 122 155 207 255 305 357
#     4  12  23  36  57  93 125 156 195 250 318 362
#
# _framework density 18.810590999999999
#
# number of rings (size 3 to 8) (size 9 to 14) (size 15 to 20)
#    0.000    1.000    5.000    4.000    0.000    0.667 
#    0.000    0.833    0.000    0.000    0.000    0.000 
#    0.000    0.000    0.000    0.000    0.000    0.000 
#
# Total GULP energy -133693.160869 kJ/mol
# GULP energy per Si atom -5570.548370 kJ/mol
# Density = 1.876778 g / cm^3
# Si number density = 18.810591 Si / 1000 Ang^3
#
#
#
# Elastic Constant Matrix: (Units=GPa)
#
#
# Indices 1 2 3 4 5 6 
#
# 1 123.9506 41.7804 75.7720 0.0000 -12.3072 0.0000
# 2 41.7804 102.7531 57.5655 0.0000 -5.2522 0.0000
# 3 75.7720 57.5655 123.0926 0.0000 -6.1481 0.0000
# 4 0.0000 0.0000 0.0000 25.2131 0.0000 0.8480
# 5 -12.3072 -5.2522 -6.1481 0.0000 44.5800 0.0000
# 6 0.0000 0.0000 0.0000 0.8480 0.0000 20.7606
#
#
#
# Elastic Compliance Matrix: (Units=1/GPa)
#
#
# Indices 1 2 3 4 5 6 
#
# 1 0.013296 -0.001034 -0.007576 0.000000 0.002504 0.000000
# 2 -0.001034 0.013290 -0.005553 0.000000 0.000514 0.000000
# 3 -0.007576 -0.005553 0.015353 0.000000 -0.000628 0.000000
# 4 0.000000 0.000000 0.000000 0.039717 0.000000 -0.001622
# 5 0.002504 0.000514 -0.000628 0.000000 0.023097 0.000000
# 6 0.000000 0.000000 0.000000 -0.001622 0.000000 0.048235
#
#
# Mechanical properties :
#
#
# Convention : Reuss Voigt Hill
#
# Bulk Modulus (GPa) = 73.45917 77.78137 75.62027
# Shear Modulus (GPa) = 26.90333 29.75594 28.32964
#
# Velocity S-wave (km/s) = 3.78593 3.98159 3.88499
# Velocity P-wave (km/s) = 7.63203 7.91056 7.77254
#
# Compressibility (1/GPa) = 0.01361300
#
# Stress axis : x y z
#
# Youngs Moduli (GPa) = 75.20922 75.24633 65.13354
#
# Poissons Ratio (x) = 0.07780 0.49346
# Poissons Ratio (y) = 0.07777 0.36168
# Poissons Ratio (z) = 0.56980 0.41783
#
# Static dielectric constant tensor:
#      x y z
#    x 1.681200 0.000000 0.008610 
#    y 0.000000 1.745520 0.000000 
#    z 0.008610 0.000000 1.705640 
# 
# From -- ./inp_files/108132.got.cif
#   From: 2010.05.17/outbox.cif.g08.bks.cpg/sg15_55_cif.got.tgz:108132.got - 2010.06.03 18:47:42.
