data_PCOD9294709
_publ_section_title
;
Structure prediction by ZEFSAII (Michael W. Deem and Ramdas Pophale) SiO2 
 PCOD9294709
Probable space group: C 2/C
;
_chemical_formula_sum "Si O2"
_cell_formula_units_Z 56
_cell_length_a 18.745540
_cell_length_b 16.618103
_cell_length_c 27.688001
_cell_angle_alpha 90.000000
_cell_angle_beta 162.493711
_cell_angle_gamma 90.000000
_cell_volume 2594.561494
_symmetry_space_group_name_H-M "C 2/C"
_symmetry_group_IT_number 15
_symmetry_cell_setting 'monoclinic'
loop_
_space_group_symop_operation_xyz
x,y,z
-x,y,1/2-z
-x,-y,-z
x,-y,1/2+z
1/2+x,1/2+y,z
1/2-x,1/2+y,1/2-z
1/2-x,1/2-y,-z
1/2+x,1/2-y,1/2+z
loop_
_atom_site_type_symbol
_atom_site_label
_atom_site_fract_x
_atom_site_fract_y
_atom_site_fract_z
Si Si1 0.464912 0.238691 0.102792
Si Si2 0.860621 0.203874 0.026280
Si Si3 0.722547 0.390493 0.562652
Si Si4 0.145957 0.620168 0.150854
Si Si5 0.884534 0.469037 0.123135
Si Si6 0.751215 0.957154 0.273298
Si Si7 0.446599 0.817791 0.423660
O O1 0.479280 0.153777 0.085792
O O2 0.718667 0.262466 0.289542
O O3 0.250000 0.250000 0.000000
O O4 0.405160 0.305662 0.024549
O O5 0.136881 0.183295 0.210602
O O6 0.858610 0.259080 0.976424
O O7 0.750000 0.250000 0.000000
O O8 0.740754 0.116290 0.951099
O O9 0.726451 0.449701 0.517877
O O10 0.523911 0.439449 0.465284
O O11 0.000000 0.370152 0.750000
O O12 0.234491 0.533807 0.226547
O O13 0.031091 0.630882 0.024214
O O14 0.000000 0.482043 0.250000
O O15 0.079860 0.468717 0.208086
O O16 0.642291 0.881549 0.173705
#
# Coordination Sequence:
#
# PCOD9294709 Si02
#       7
#     8   8   8   8   8   8   8
#     4  10  23  42  63  96 135 169 228 273 324 411
#     4  11  23  43  64  99 136 170 228 278 333 410
#     4  10  23  41  64  95 130 172 217 275 335 390
#     4  11  24  43  71  94 134 181 219 280 341 397
#     4  11  24  41  68  97 133 178 217 281 341 395
#     4  11  22  46  64  99 139 168 233 276 330 412
#     4  10  24  40  69  97 131 180 221 277 337 402
#
# _framework density 21.583608000000002
#
# number of rings (size 3 to 8) (size 9 to 14) (size 15 to 20)
#    0.000    1.429    2.857    1.286    4.000    2.286 
#    5.143    0.000    0.000    0.000    0.000    0.000 
#    0.000    0.000    0.000    0.000    0.000    0.000 
#
# Total GULP energy -155952.451071 kJ/mol
# GULP energy per Si atom -5569.730395 kJ/mol
# Density = 2.153448 g / cm^3
# Si number density = 21.583608 Si / 1000 Ang^3
#
#
#
# Elastic Constant Matrix: (Units=GPa)
#
#
# Indices 1 2 3 4 5 6 
#
# 1 91.9721 -5.3389 25.4255 -0.0498 18.3958 0.0236
# 2 -5.3389 77.6496 10.0791 0.0311 0.0158 0.0395
# 3 25.4255 10.0791 61.3412 0.0067 7.9856 0.0102
# 4 -0.0498 0.0311 0.0067 23.6667 0.0229 13.5100
# 5 18.3958 0.0158 7.9856 0.0229 37.8027 -0.0106
# 6 0.0236 0.0395 0.0102 13.5100 -0.0106 34.9855
#
#
#
# Elastic Compliance Matrix: (Units=1/GPa)
#
#
# Indices 1 2 3 4 5 6 
#
# 1 0.013481 0.001595 -0.005137 0.000050 -0.005476 -0.000031
# 2 0.001595 0.013356 -0.002832 -0.000006 -0.000183 -0.000013
# 3 -0.005137 -0.002832 0.019096 -0.000015 -0.001533 0.000006
# 4 0.000050 -0.000006 -0.000015 0.054202 -0.000060 -0.020931
# 5 -0.005476 -0.000183 -0.001533 -0.000060 0.029442 0.000036
# 6 -0.000031 -0.000013 0.000006 -0.020931 0.000036 0.036666
#
#
# Mechanical properties :
#
#
# Convention : Reuss Voigt Hill
#
# Bulk Modulus (GPa) = 30.13386 32.36600 31.24993
# Shear Modulus (GPa) = 26.30869 32.67746 29.49307
#
# Velocity S-wave (km/s) = 3.49509 3.89523 3.70057
# Velocity P-wave (km/s) = 5.50266 5.93790 5.72442
#
# Compressibility (1/GPa) = 0.03318526
#
# Stress axis : x y z
#
# Youngs Moduli (GPa) = 74.17968 74.87481 52.36611
#
# Poissons Ratio (x) = -0.11941 0.26900
# Poissons Ratio (y) = -0.11830 0.14828
# Poissons Ratio (z) = 0.38105 0.21202
#
# Static dielectric constant tensor:
#      x y z
#    x 1.824240 0.000020 0.091140 
#    y 0.000020 1.986020 0.000110 
#    z 0.091140 0.000110 1.890590 
# 
# From -- ./inp_files/299359.got.cif
#   From: 2010.05.17/outbox.cif.g08.bks.cpg/sg15_150_cif.got.tgz:299359.got - 2010.06.03 18:47:42.
