data_PCOD9294334
_publ_section_title
;
Structure prediction by ZEFSAII (Michael W. Deem and Ramdas Pophale) SiO2 
 PCOD9294334
Probable space group: C 2/C
;
_chemical_formula_sum "Si O2"
_cell_formula_units_Z 64
_cell_length_a 10.835356
_cell_length_b 8.807936
_cell_length_c 31.640807
_cell_angle_alpha 90.000000
_cell_angle_beta 94.975882
_cell_angle_gamma 90.000000
_cell_volume 3008.327183
_symmetry_space_group_name_H-M "C 2/C"
_symmetry_group_IT_number 15
_symmetry_cell_setting 'monoclinic'
loop_
_space_group_symop_operation_xyz
x,y,z
-x,y,1/2-z
-x,-y,-z
x,-y,1/2+z
1/2+x,1/2+y,z
1/2-x,1/2+y,1/2-z
1/2-x,1/2-y,-z
1/2+x,1/2-y,1/2+z
loop_
_atom_site_type_symbol
_atom_site_label
_atom_site_fract_x
_atom_site_fract_y
_atom_site_fract_z
Si Si1 0.968037 0.545170 0.557309
Si Si2 0.581828 0.284916 0.075732
Si Si3 0.721382 0.176781 0.557088
Si Si4 0.287649 0.494263 0.978844
Si Si5 0.651273 0.789276 0.370248
Si Si6 0.136004 0.705745 0.771605
Si Si7 0.382871 0.439378 0.130448
Si Si8 0.632710 0.572183 0.772695
O O1 0.846501 0.573079 0.525417
O O2 0.928727 0.599923 0.602834
O O3 0.022759 0.375443 0.560906
O O4 0.078681 0.647644 0.543579
O O5 0.610413 0.393916 0.036534
O O6 0.713724 0.273563 0.103911
O O7 0.488939 0.360216 0.106358
O O8 0.737217 0.356140 0.554640
O O9 0.802425 0.088919 0.524070
O O10 0.757362 0.105294 0.602457
O O11 0.654042 0.838223 0.321431
O O12 0.595947 0.619584 0.369650
O O13 0.249144 0.640841 0.747581
O O14 0.000000 0.659420 0.750000
O O15 0.141108 0.889143 0.769658
O O16 0.371362 0.387506 0.178069
O O17 0.500000 0.620155 0.750000
#
# Coordination Sequence:
#
# PCOD9294334 Si02
#       8
#     8   8   8   8   8   8   8   8
#     4  11  22  40  62  88 120 160 202 247 300 360
#     4  11  22  40  61  90 119 158 206 248 301 363
#     4  11  22  41  62  88 120 160 202 251 304 361
#     4  10  24  42  59  87 124 158 201 253 306 354
#     4  10  23  40  61  88 124 159 199 252 302 362
#     4  10  23  40  63  93 122 161 204 252 309 368
#     4  11  22  40  64  90 120 162 205 246 303 367
#     4  10  23  43  63  91 128 161 202 255 308 366
#
# _framework density 21.274281999999999
#
# number of rings (size 3 to 8) (size 9 to 14) (size 15 to 20)
#    0.000    1.500    2.500    1.875    1.750    2.500 
#    4.500    0.000    0.000    0.000    0.000    0.000 
#    0.000    0.000    0.000    0.000    0.000    0.000 
#
# Total GULP energy -178897.533124 kJ/mol
# GULP energy per Si atom -5590.547910 kJ/mol
# Density = 2.122586 g / cm^3
# Si number density = 21.274282 Si / 1000 Ang^3
#
#
#
# Elastic Constant Matrix: (Units=GPa)
#
#
# Indices 1 2 3 4 5 6 
#
# 1 108.8523 20.2740 26.1380 0.0000 -20.6761 0.0000
# 2 20.2740 43.8937 32.0511 0.0000 -12.4509 0.0000
# 3 26.1380 32.0511 107.1845 0.0000 -10.8860 0.0000
# 4 0.0000 0.0000 0.0000 30.5561 0.0000 -12.7356
# 5 -20.6761 -12.4509 -10.8860 0.0000 30.4120 0.0000
# 6 0.0000 0.0000 0.0000 -12.7356 0.0000 33.8494
#
#
#
# Elastic Compliance Matrix: (Units=1/GPa)
#
#
# Indices 1 2 3 4 5 6 
#
# 1 0.011121 -0.002408 -0.001374 0.000000 0.006083 0.000000
# 2 -0.002408 0.032344 -0.008204 0.000000 0.008668 0.000000
# 3 -0.001374 -0.008204 0.012123 0.000000 0.000046 0.000000
# 4 0.000000 0.000000 0.000000 0.038813 0.000000 0.014603
# 5 0.006083 0.008668 0.000046 0.000000 0.040583 0.000000
# 6 0.000000 0.000000 0.000000 0.014603 0.000000 0.035037
#
#
# Mechanical properties :
#
#
# Convention : Reuss Voigt Hill
#
# Bulk Modulus (GPa) = 31.63014 46.31741 38.97377
# Shear Modulus (GPa) = 24.44623 31.06134 27.75379
#
# Velocity S-wave (km/s) = 3.39351 3.82519 3.61580
# Velocity P-wave (km/s) = 5.50042 6.42871 5.98260
#
# Compressibility (1/GPa) = 0.03161542
#
# Stress axis : x y z
#
# Youngs Moduli (GPa) = 89.92348 30.91772 82.48935
#
# Poissons Ratio (x) = 0.07444 0.11335
# Poissons Ratio (y) = 0.21650 0.67676
# Poissons Ratio (z) = 0.12357 0.25366
#
# Static dielectric constant tensor:
#      x y z
#    x 1.784390 0.000000 0.034140 
#    y 0.000000 1.751250 0.000000 
#    z 0.034140 0.000000 1.761430 
# 
# From -- ./inp_files/310320.got.cif
#   From: 2010.05.17/outbox.cif.g08.bks.cpg/sg15_156_cif.got.tgz:310320.got - 2010.06.03 18:47:42.
