data_PCOD9294389
_publ_section_title
;
Structure prediction by ZEFSAII (Michael W. Deem and Ramdas Pophale) SiO2 
 PCOD9294389
Probable space group: C 2/C
;
_chemical_formula_sum "Si O2"
_cell_formula_units_Z 32
_cell_length_a 13.336845
_cell_length_b 5.069184
_cell_length_c 18.408276
_cell_angle_alpha 90.000000
_cell_angle_beta 95.064213
_cell_angle_gamma 90.000000
_cell_volume 1239.668725
_symmetry_space_group_name_H-M "C 2/C"
_symmetry_group_IT_number 15
_symmetry_cell_setting 'monoclinic'
loop_
_space_group_symop_operation_xyz
x,y,z
-x,y,1/2-z
-x,-y,-z
x,-y,1/2+z
1/2+x,1/2+y,z
1/2-x,1/2+y,1/2-z
1/2-x,1/2-y,-z
1/2+x,1/2-y,1/2+z
loop_
_atom_site_type_symbol
_atom_site_label
_atom_site_fract_x
_atom_site_fract_y
_atom_site_fract_z
Si Si1 0.531821 0.746817 0.954574
Si Si2 0.859262 0.782270 0.688466
Si Si3 0.771727 0.718716 0.120823
Si Si4 0.934258 0.609494 0.850827
O O1 0.648821 0.743435 0.938976
O O2 0.468273 0.816016 0.876470
O O3 0.500000 0.500000 0.000000
O O4 0.500000 0.000000 0.000000
O O5 0.780783 0.580791 0.647667
O O6 0.890403 0.663306 0.767781
O O7 0.959523 0.763421 0.645343
O O8 0.816278 0.075722 0.683824
O O9 0.656338 0.795251 0.103993
#
# Coordination Sequence:
#
# PCOD9294389 Si02
#       4
#     8   8   8   8
#     4  11  25  43  61  91 130 171 222 259 297 376
#     4  10  23  40  64 100 127 153 208 267 324 391
#     4  11  23  41  66  94 125 164 211 262 323 382
#     4  10  23  41  67  92 128 168 203 265 328 368
#
# _framework density 25.813348000000001
#
# number of rings (size 3 to 8) (size 9 to 14) (size 15 to 20)
#    0.000    1.500    0.000    4.500    0.000   18.000 
#    0.000    0.000    0.000    0.000    0.000    0.000 
#    0.000    0.000    0.000    0.000    0.000    0.000 
#
# Total GULP energy -89551.065045 kJ/mol
# GULP energy per Si atom -5596.941565 kJ/mol
# Density = 2.575460 g / cm^3
# Si number density = 25.813348 Si / 1000 Ang^3
#
#
#
# Elastic Constant Matrix: (Units=GPa)
#
#
# Indices 1 2 3 4 5 6 
#
# 1 218.8674 33.5966 30.2064 0.0000 -33.1524 0.0000
# 2 33.5966 125.9669 21.0776 0.0000 -7.7578 0.0000
# 3 30.2064 21.0776 113.5849 0.0000 -24.0780 0.0000
# 4 0.0000 0.0000 0.0000 39.9049 0.0000 7.2726
# 5 -33.1524 -7.7578 -24.0780 0.0000 42.8168 0.0000
# 6 0.0000 0.0000 0.0000 7.2726 0.0000 39.3493
#
#
#
# Elastic Compliance Matrix: (Units=1/GPa)
#
#
# Indices 1 2 3 4 5 6 
#
# 1 0.005363 -0.001130 -0.000431 0.000000 0.003705 0.000000
# 2 -0.001130 0.008450 -0.001281 0.000000 -0.000064 0.000000
# 3 -0.000431 -0.001281 0.010259 0.000000 0.005203 0.000000
# 4 0.000000 0.000000 0.000000 0.025933 0.000000 -0.004793
# 5 0.003705 -0.000064 0.005203 0.000000 0.029139 0.000000
# 6 0.000000 0.000000 0.000000 -0.004793 0.000000 0.026299
#
#
# Mechanical properties :
#
#
# Convention : Reuss Voigt Hill
#
# Bulk Modulus (GPa) = 54.38250 69.79781 62.09016
# Shear Modulus (GPa) = 42.64081 49.31678 45.97880
#
# Velocity S-wave (km/s) = 4.06875 4.37569 4.22501
# Velocity P-wave (km/s) = 6.57163 7.25444 6.92146
#
# Compressibility (1/GPa) = 0.01838827
#
# Stress axis : x y z
#
# Youngs Moduli (GPa) = 186.45510 118.33737 97.47129
#
# Poissons Ratio (x) = 0.13373 0.04202
# Poissons Ratio (y) = 0.21071 0.12488
# Poissons Ratio (z) = 0.08037 0.15162
#
# Static dielectric constant tensor:
#      x y z
#    x 1.975720 0.000000 0.009470 
#    y 0.000000 1.987830 0.000000 
#    z 0.009470 0.000000 2.212090 
# 
# From -- ./inp_files/235105.got.cif
#   From: 2010.05.17/outbox.cif.g08.bks.cpg/sg15_118_cif.got.tgz:235105.got - 2010.06.03 18:47:42.
