data_PCOD9294475
_publ_section_title
;
Structure prediction by ZEFSAII (Michael W. Deem and Ramdas Pophale) SiO2 
 PCOD9294475
Probable space group: C 2/C
;
_chemical_formula_sum "Si O2"
_cell_formula_units_Z 40
_cell_length_a 6.644833
_cell_length_b 13.768920
_cell_length_c 25.318778
_cell_angle_alpha 90.000000
_cell_angle_beta 132.520515
_cell_angle_gamma 90.000000
_cell_volume 1707.320404
_symmetry_space_group_name_H-M "C 2/C"
_symmetry_group_IT_number 15
_symmetry_cell_setting 'monoclinic'
loop_
_space_group_symop_operation_xyz
x,y,z
-x,y,1/2-z
-x,-y,-z
x,-y,1/2+z
1/2+x,1/2+y,z
1/2-x,1/2+y,1/2-z
1/2-x,1/2-y,-z
1/2+x,1/2-y,1/2+z
loop_
_atom_site_type_symbol
_atom_site_label
_atom_site_fract_x
_atom_site_fract_y
_atom_site_fract_z
Si Si1 0.650606 0.619606 0.531341
Si Si2 0.385041 0.013173 0.420148
Si Si3 0.590125 0.307480 0.822249
Si Si4 0.991689 0.853357 0.115818
Si Si5 0.583613 0.711021 0.102572
O O1 0.456710 0.623238 0.547411
O O2 0.498032 0.619989 0.448034
O O3 0.883803 0.538332 0.574358
O O4 0.816990 0.720483 0.561215
O O5 0.103835 0.949433 0.370093
O O6 0.500000 0.000000 0.500000
O O7 0.313104 0.120257 0.387918
O O8 0.500000 0.348187 0.750000
O O9 0.353728 0.306390 0.824951
O O10 0.716216 0.200719 0.832147
O O11 0.795271 0.772090 0.105936
#
# Coordination Sequence:
#
# PCOD9294475 Si02
#       5
#     8   8   8   8   8
#     4   9  18  35  62  97 124 158 212 274 333 384
#     4  11  23  40  65 100 131 165 227 286 324 403
#     4  11  25  45  62  92 134 177 223 269 338 413
#     4  10  23  40  66  93 129 173 210 279 343 393
#     4   9  18  36  63  92 124 162 215 265 327 396
#
# _framework density 23.428526000000002
#
# number of rings (size 3 to 8) (size 9 to 14) (size 15 to 20)
#    0.000    2.000    2.000    0.600    5.600    3.200 
#   10.800    0.000    0.000    0.000    0.000    0.000 
#    0.000    0.000    0.000    0.000    0.000    0.000 
#
# Total GULP energy -111531.610479 kJ/mol
# GULP energy per Si atom -5576.580524 kJ/mol
# Density = 2.337520 g / cm^3
# Si number density = 23.428526 Si / 1000 Ang^3
#
#
#
# Elastic Constant Matrix: (Units=GPa)
#
#
# Indices 1 2 3 4 5 6 
#
# 1 149.3807 29.4303 43.2330 0.0000 -48.7530 0.0000
# 2 29.4303 91.6711 18.6304 0.0000 -4.4667 0.0000
# 3 43.2330 18.6304 93.3566 0.0000 -27.5618 0.0000
# 4 0.0000 0.0000 0.0000 15.2541 0.0000 3.7293
# 5 -48.7530 -4.4667 -27.5618 0.0000 31.6639 0.0000
# 6 0.0000 0.0000 0.0000 3.7293 0.0000 43.0833
#
#
#
# Elastic Compliance Matrix: (Units=1/GPa)
#
#
# Indices 1 2 3 4 5 6 
#
# 1 0.014576 -0.003711 0.000621 0.000000 0.022460 0.000000
# 2 -0.003711 0.012321 -0.002576 0.000000 -0.006219 0.000000
# 3 0.000621 -0.002576 0.014957 0.000000 0.013613 0.000000
# 4 0.000000 0.000000 0.000000 0.066973 0.000000 -0.005797
# 5 0.022460 -0.006219 0.013613 0.000000 0.077135 0.000000
# 6 0.000000 0.000000 0.000000 -0.005797 0.000000 0.023713
#
#
# Mechanical properties :
#
#
# Convention : Reuss Voigt Hill
#
# Bulk Modulus (GPa) = 32.76383 57.44399 45.10391
# Shear Modulus (GPa) = 21.62825 34.20792 27.91808
#
# Velocity S-wave (km/s) = 3.04165 3.82527 3.45574
# Velocity P-wave (km/s) = 5.13327 6.63945 5.93434
#
# Compressibility (1/GPa) = 0.03052146
#
# Stress axis : x y z
#
# Youngs Moduli (GPa) = 68.60700 81.16508 66.85962
#
# Poissons Ratio (x) = 0.30123 -0.04155
# Poissons Ratio (y) = 0.25463 0.17222
# Poissons Ratio (z) = -0.04264 0.20907
#
# Static dielectric constant tensor:
#      x y z
#    x 1.956590 0.000000 -0.043930 
#    y 0.000000 1.892480 0.000000 
#    z -0.043930 0.000000 1.981510 
# 
# From -- ./inp_files/260117.got.cif
#   From: 2010.05.17/outbox.cif.g08.bks.cpg/sg15_131_cif.got.tgz:260117.got - 2010.06.03 18:47:42.
