data_PCOD9294117
_publ_section_title
;
Structure prediction by ZEFSAII (Michael W. Deem and Ramdas Pophale) SiO2 
 PCOD9294117
Probable space group: C 2/C
;
_chemical_formula_sum "Si O2"
_cell_formula_units_Z 40
_cell_length_a 11.718638
_cell_length_b 13.343059
_cell_length_c 12.321563
_cell_angle_alpha 90.000000
_cell_angle_beta 73.005012
_cell_angle_gamma 90.000000
_cell_volume 1842.494820
_symmetry_space_group_name_H-M "C 2/C"
_symmetry_group_IT_number 15
_symmetry_cell_setting 'monoclinic'
loop_
_space_group_symop_operation_xyz
x,y,z
-x,y,1/2-z
-x,-y,-z
x,-y,1/2+z
1/2+x,1/2+y,z
1/2-x,1/2+y,1/2-z
1/2-x,1/2-y,-z
1/2+x,1/2-y,1/2+z
loop_
_atom_site_type_symbol
_atom_site_label
_atom_site_fract_x
_atom_site_fract_y
_atom_site_fract_z
Si Si1 0.688036 0.274015 0.847976
Si Si2 0.142762 0.979685 0.961941
Si Si3 0.557090 0.768922 0.996816
Si Si4 0.213375 0.874548 0.609408
Si Si5 0.390247 0.370733 0.211922
O O1 0.688215 0.367370 0.931027
O O2 0.568250 0.213989 0.911423
O O3 0.678463 0.335664 0.737270
O O4 0.797215 0.197990 0.803826
O O5 0.178121 0.050146 0.848095
O O6 0.185570 0.018303 0.066706
O O7 0.000000 0.000000 0.000000
O O8 0.635314 0.697551 0.053386
O O9 0.645679 0.859080 0.946603
O O10 0.546017 0.707376 0.888589
O O11 0.500000 0.415193 0.250000
#
# Coordination Sequence:
#
# PCOD9294117 Si02
#       5
#     8   8   8   8   8
#     4  11  21  37  65  86 119 162 191 249 304 340
#     4  11  22  37  59  93 115 154 206 244 283 356
#     4   9  18  35  56  86 115 153 192 239 294 350
#     4   9  19  34  55  87 121 142 196 244 285 351
#     4  10  23  39  57  91 123 153 199 245 299 356
#
# _framework density 21.709696000000001
#
# number of rings (size 3 to 8) (size 9 to 14) (size 15 to 20)
#    0.000    2.000    4.000    1.800    2.800    0.800 
#    0.000    2.000    0.000    4.800    0.000    0.000 
#    0.000    0.000    0.000    0.000    0.000    0.000 
#
# Total GULP energy -111520.722607 kJ/mol
# GULP energy per Si atom -5576.036130 kJ/mol
# Density = 2.166028 g / cm^3
# Si number density = 21.709696 Si / 1000 Ang^3
#
#
#
# Elastic Constant Matrix: (Units=GPa)
#
#
# Indices 1 2 3 4 5 6 
#
# 1 64.0736 14.9779 50.4999 0.0000 -25.7180 0.0000
# 2 14.9779 56.9523 15.9338 0.0000 -19.3935 0.0000
# 3 50.4999 15.9338 102.2056 0.0000 -30.3153 0.0000
# 4 0.0000 0.0000 0.0000 42.1311 0.0000 -3.4444
# 5 -25.7180 -19.3935 -30.3153 0.0000 43.9937 0.0000
# 6 0.0000 0.0000 0.0000 -3.4444 0.0000 19.3811
#
#
#
# Elastic Compliance Matrix: (Units=1/GPa)
#
#
# Indices 1 2 3 4 5 6 
#
# 1 0.028022 -0.001510 -0.011248 0.000000 0.007965 0.000000
# 2 -0.001510 0.020776 -0.000048 0.000000 0.008243 0.000000
# 3 -0.011248 -0.000048 0.016833 0.000000 0.005003 0.000000
# 4 0.000000 0.000000 0.000000 0.024085 0.000000 0.004280
# 5 0.007965 0.008243 0.005003 0.000000 0.034468 0.000000
# 6 0.000000 0.000000 0.000000 0.004280 0.000000 0.052357
#
#
# Mechanical properties :
#
#
# Convention : Reuss Voigt Hill
#
# Bulk Modulus (GPa) = 24.98813 42.89497 33.94155
# Shear Modulus (GPa) = 23.20256 30.55583 26.87919
#
# Velocity S-wave (km/s) = 3.27274 3.75570 3.52251
# Velocity P-wave (km/s) = 5.08097 6.21357 5.67559
#
# Compressibility (1/GPa) = 0.04001900
#
# Stress axis : x y z
#
# Youngs Moduli (GPa) = 35.68618 48.13256 59.40650
#
# Poissons Ratio (x) = 0.07270 0.66819
# Poissons Ratio (y) = 0.05390 0.00284
# Poissons Ratio (z) = 0.40139 0.00230
#
# Static dielectric constant tensor:
#      x y z
#    x 1.767570 0.000000 0.003320 
#    y 0.000000 1.858000 0.000000 
#    z 0.003320 0.000000 1.882340 
# 
# From -- ./inp_files/85972.got.cif
#   From: 2010.05.17/outbox.cif.g08.bks.cpg/sg15_43_cif.got.tgz:85972.got - 2010.06.03 18:47:42.
