data_PCOD9294098
_publ_section_title
;
Structure prediction by ZEFSAII (Michael W. Deem and Ramdas Pophale) SiO2 
 PCOD9294098
Probable space group: C 2/C
;
_chemical_formula_sum "Si O2"
_cell_formula_units_Z 64
_cell_length_a 14.613230
_cell_length_b 10.816830
_cell_length_c 16.184618
_cell_angle_alpha 90.000000
_cell_angle_beta 91.630867
_cell_angle_gamma 90.000000
_cell_volume 2557.247255
_symmetry_space_group_name_H-M "C 2/C"
_symmetry_group_IT_number 15
_symmetry_cell_setting 'monoclinic'
loop_
_space_group_symop_operation_xyz
x,y,z
-x,y,1/2-z
-x,-y,-z
x,-y,1/2+z
1/2+x,1/2+y,z
1/2-x,1/2+y,1/2-z
1/2-x,1/2-y,-z
1/2+x,1/2-y,1/2+z
loop_
_atom_site_type_symbol
_atom_site_label
_atom_site_fract_x
_atom_site_fract_y
_atom_site_fract_z
Si Si1 0.471230 0.285365 0.831891
Si Si2 0.179230 0.202518 0.833001
Si Si3 0.403779 0.896898 0.794135
Si Si4 0.345888 0.492613 0.307911
Si Si5 0.624406 0.668540 0.441139
Si Si6 0.518108 0.679548 0.601885
Si Si7 0.144882 0.388491 0.083948
Si Si8 0.712968 0.062144 0.957957
O O1 0.500000 0.214479 0.750000
O O2 0.383714 0.368864 0.808294
O O3 0.562494 0.358206 0.860885
O O4 0.443273 0.196910 0.905721
O O5 0.162222 0.321035 0.771264
O O6 0.088438 0.191949 0.885988
O O7 0.266022 0.194100 0.894855
O O8 0.184543 0.082536 0.773256
O O9 0.500000 0.920509 0.750000
O O10 0.430455 0.803783 0.868671
O O11 0.364148 0.013769 0.840685
O O12 0.438150 0.419990 0.336064
O O13 0.270518 0.474217 0.378377
O O14 0.554671 0.644887 0.513967
O O15 0.659816 0.810326 0.438924
O O16 0.713713 0.590081 0.466498
O O17 0.150658 0.456259 0.996220
#
# Coordination Sequence:
#
# PCOD9294098 Si02
#       8
#     8   8   8   8   8   8   8   8
#     4  12  29  44  63 100 142 178 221 281 346 395
#     4  10  23  38  71  95 134 172 228 277 329 395
#     4   9  19  42  63  90 126 173 225 265 326 404
#     4  10  23  43  66  99 133 172 225 279 340 389
#     4  10  23  45  71  97 135 176 229 271 337 404
#     4   9  18  42  70  94 117 178 224 271 323 395
#     4  12  26  41  64 102 134 175 222 276 342 394
#     4  10  24  44  73  98 129 182 228 276 331 407
#
# _framework density 25.026910999999998
#
# number of rings (size 3 to 8) (size 9 to 14) (size 15 to 20)
#    0.000    1.750    1.250    2.250   10.500    2.000 
#    0.000    0.000    0.000    0.000    0.000    0.000 
#    0.000    0.000    0.000    0.000    0.000    0.000 
#
# Total GULP energy -179043.148842 kJ/mol
# GULP energy per Si atom -5595.098401 kJ/mol
# Density = 2.496995 g / cm^3
# Si number density = 25.026911 Si / 1000 Ang^3
#
#
#
# Elastic Constant Matrix: (Units=GPa)
#
#
# Indices 1 2 3 4 5 6 
#
# 1 74.0493 17.3496 11.9024 0.0000 -5.9611 0.0000
# 2 17.3496 60.1949 -9.7906 0.0000 -8.1245 0.0000
# 3 11.9024 -9.7906 46.6572 0.0000 -11.9593 0.0000
# 4 0.0000 0.0000 0.0000 12.3558 0.0000 -7.1270
# 5 -5.9611 -8.1245 -11.9593 0.0000 29.4780 0.0000
# 6 0.0000 0.0000 0.0000 -7.1270 0.0000 31.5557
#
#
#
# Elastic Compliance Matrix: (Units=1/GPa)
#
#
# Indices 1 2 3 4 5 6 
#
# 1 0.015572 -0.005400 -0.005223 0.000000 -0.000458 0.000000
# 2 -0.005400 0.020439 0.007623 0.000000 0.007634 0.000000
# 3 -0.005223 0.007623 0.027492 0.000000 0.012198 0.000000
# 4 0.000000 0.000000 0.000000 0.093056 0.000000 0.021017
# 5 -0.000458 0.007634 0.012198 0.000000 0.040884 0.000000
# 6 0.000000 0.000000 0.000000 0.021017 0.000000 0.036437
#
#
# Mechanical properties :
#
#
# Convention : Reuss Voigt Hill
#
# Bulk Modulus (GPa) = 17.38993 24.42492 20.90743
# Shear Modulus (GPa) = 19.30148 25.44058 22.37103
#
# Velocity S-wave (km/s) = 2.78011 3.19176 2.99302
# Velocity P-wave (km/s) = 4.15559 4.83361 4.50737
#
# Compressibility (1/GPa) = 0.05750455
#
# Stress axis : x y z
#
# Youngs Moduli (GPa) = 64.21663 48.92532 36.37454
#
# Poissons Ratio (x) = 0.26418 0.18999
# Poissons Ratio (y) = 0.34675 -0.27729
# Poissons Ratio (z) = 0.33541 -0.37297
#
# Static dielectric constant tensor:
#      x y z
#    x 1.979910 0.000000 0.058080 
#    y 0.000000 2.021180 0.000000 
#    z 0.058080 0.000000 1.978230 
# 
# From -- ./inp_files/204454.got.cif
#   From: 2010.05.17/outbox.cif.g08.bks.cpg/sg15_103_cif.got.tgz:204454.got - 2010.06.03 18:47:42.
