data_PCOD9294839
_publ_section_title
;
Structure prediction by ZEFSAII (Michael W. Deem and Ramdas Pophale) SiO2 
 PCOD9294839
Probable space group: C 2/C
;
_chemical_formula_sum "Si O2"
_cell_formula_units_Z 40
_cell_length_a 27.957664
_cell_length_b 11.273559
_cell_length_c 8.884333
_cell_angle_alpha 90.000000
_cell_angle_beta 46.607911
_cell_angle_gamma 90.000000
_cell_volume 2034.809249
_symmetry_space_group_name_H-M "C 2/C"
_symmetry_group_IT_number 15
_symmetry_cell_setting 'monoclinic'
loop_
_space_group_symop_operation_xyz
x,y,z
-x,y,1/2-z
-x,-y,-z
x,-y,1/2+z
1/2+x,1/2+y,z
1/2-x,1/2+y,1/2-z
1/2-x,1/2-y,-z
1/2+x,1/2-y,1/2+z
loop_
_atom_site_type_symbol
_atom_site_label
_atom_site_fract_x
_atom_site_fract_y
_atom_site_fract_z
Si Si1 0.312281 0.284026 0.684192
Si Si2 0.313750 0.839313 0.709813
Si Si3 0.207026 0.569026 0.559431
Si Si4 0.934234 0.079066 0.794841
Si Si5 0.068702 0.842379 0.537136
O O1 0.254060 0.272167 0.686719
O O2 0.181037 0.664300 0.736241
O O3 0.378239 0.330745 0.469383
O O4 0.281512 0.385874 0.861606
O O5 0.328696 0.910376 0.521983
O O6 0.373297 0.751126 0.609124
O O7 0.299717 0.937882 0.864637
O O8 0.944683 0.097255 0.595414
O O9 0.000000 0.099622 0.750000
O O10 0.911715 0.946182 0.888138
O O11 0.000000 0.791218 0.750000
#
# Coordination Sequence:
#
# PCOD9294839 Si02
#       5
#     8   8   8   8   8
#     4   9  23  38  66  90 134 169 210 269 312 378
#     4  10  23  41  67  94 132 165 220 254 330 372
#     4   9  22  40  61  95 133 166 213 267 310 386
#     4  11  25  40  68  93 130 167 220 264 328 374
#     4  11  26  43  66  95 131 172 214 270 318 385
#
# _framework density 19.657861
#
# number of rings (size 3 to 8) (size 9 to 14) (size 15 to 20)
#    1.200    0.800    0.000    2.400   14.000    0.800 
#    0.000    2.000    0.000    0.000    0.000    0.000 
#    0.000    0.000    0.000    0.000    0.000    0.000 
#
# Total GULP energy -111613.795038 kJ/mol
# GULP energy per Si atom -5580.689752 kJ/mol
# Density = 1.961312 g / cm^3
# Si number density = 19.657861 Si / 1000 Ang^3
#
#
#
# Elastic Constant Matrix: (Units=GPa)
#
#
# Indices 1 2 3 4 5 6 
#
# 1 72.4443 50.5092 30.9762 0.0000 10.4627 0.0000
# 2 50.5092 85.6015 60.2715 0.0000 8.7191 0.0000
# 3 30.9762 60.2715 90.8498 0.0000 -5.0719 0.0000
# 4 0.0000 0.0000 0.0000 44.8047 0.0000 2.8059
# 5 10.4627 8.7191 -5.0719 0.0000 33.5277 0.0000
# 6 0.0000 0.0000 0.0000 2.8059 0.0000 27.0993
#
#
#
# Elastic Compliance Matrix: (Units=1/GPa)
#
#
# Indices 1 2 3 4 5 6 
#
# 1 0.024036 -0.014884 0.001489 0.000000 -0.003405 0.000000
# 2 -0.014884 0.033475 -0.017507 0.000000 -0.006709 0.000000
# 3 0.001489 -0.017507 0.022533 0.000000 0.007497 0.000000
# 4 0.000000 0.000000 0.000000 0.022465 0.000000 -0.002326
# 5 -0.003405 -0.006709 0.007497 0.000000 0.033767 0.000000
# 6 0.000000 0.000000 0.000000 -0.002326 0.000000 0.037142
#
#
# Mechanical properties :
#
#
# Convention : Reuss Voigt Hill
#
# Bulk Modulus (GPa) = 54.82908 59.15660 56.99284
# Shear Modulus (GPa) = 20.72089 28.22893 24.47491
#
# Velocity S-wave (km/s) = 3.25018 3.79359 3.53235
# Velocity P-wave (km/s) = 6.48360 7.02473 6.75958
#
# Compressibility (1/GPa) = 0.01823850
#
# Stress axis : x y z
#
# Youngs Moduli (GPa) = 41.60386 29.87339 44.37989
#
# Poissons Ratio (x) = 0.44464 -0.06608
# Poissons Ratio (y) = 0.61924 0.77697
# Poissons Ratio (z) = -0.06195 0.52300
#
# Static dielectric constant tensor:
#      x y z
#    x 1.694030 0.000000 0.029090 
#    y 0.000000 1.674760 0.000000 
#    z 0.029090 0.000000 1.726710 
# 
# From -- ./inp_files/69509.got.cif
#   From: 2010.05.17/outbox.cif.g08.bks.cpg/sg15_35_cif.got.tgz:69509.got - 2010.06.03 18:47:42.
