data_PCOD9294982
_publ_section_title
;
Structure prediction by ZEFSAII (Michael W. Deem and Ramdas Pophale) SiO2 
 PCOD9294982
Probable space group: C 2/C
;
_chemical_formula_sum "Si O2"
_cell_formula_units_Z 40
_cell_length_a 9.057203
_cell_length_b 16.185263
_cell_length_c 15.314423
_cell_angle_alpha 90.000000
_cell_angle_beta 44.293411
_cell_angle_gamma 90.000000
_cell_volume 1567.750874
_symmetry_space_group_name_H-M "C 2/C"
_symmetry_group_IT_number 15
_symmetry_cell_setting 'monoclinic'
loop_
_space_group_symop_operation_xyz
x,y,z
-x,y,1/2-z
-x,-y,-z
x,-y,1/2+z
1/2+x,1/2+y,z
1/2-x,1/2+y,1/2-z
1/2-x,1/2-y,-z
1/2+x,1/2-y,1/2+z
loop_
_atom_site_type_symbol
_atom_site_label
_atom_site_fract_x
_atom_site_fract_y
_atom_site_fract_z
Si Si1 0.206312 0.154431 0.724550
Si Si2 0.120118 0.311593 0.853525
Si Si3 0.446026 0.348867 0.026330
Si Si4 0.663386 0.053166 0.114180
Si Si5 0.833229 0.402309 0.504983
O O1 0.248573 0.250538 0.735475
O O2 0.147740 0.115004 0.843198
O O3 0.413744 0.110289 0.601508
O O4 0.000000 0.152505 0.750000
O O5 0.999424 0.243251 0.964392
O O6 0.956669 0.366527 0.870794
O O7 0.240669 0.372140 0.868830
O O8 0.273155 0.346200 0.024442
O O9 0.633846 0.410284 0.923118
O O10 0.500000 0.011299 0.250000
O O11 0.712387 0.993255 0.012745
#
# Coordination Sequence:
#
# PCOD9294982 Si02
#       5
#     8   8   8   8   8
#     4  10  23  41  72  97 137 181 226 273 337 405
#     4  10  25  41  71  95 135 178 229 269 331 411
#     4  10  24  43  70  99 136 178 221 281 333 406
#     4  12  25  44  69 102 137 179 224 279 342 402
#     4  12  24  46  69 103 138 175 223 288 342 390
#
# _framework density 25.514257000000001
#
# number of rings (size 3 to 8) (size 9 to 14) (size 15 to 20)
#    1.200    0.000    0.000    6.000    5.600    0.000 
#    3.600    0.000    0.000    0.000    0.000    0.000 
#    0.000    0.000    0.000    0.000    0.000    0.000 
#
# Total GULP energy -111838.264625 kJ/mol
# GULP energy per Si atom -5591.913231 kJ/mol
# Density = 2.545619 g / cm^3
# Si number density = 25.514257 Si / 1000 Ang^3
#
#
#
# Elastic Constant Matrix: (Units=GPa)
#
#
# Indices 1 2 3 4 5 6 
#
# 1 154.2997 12.7131 24.0971 -0.0003 -0.2516 0.0006
# 2 12.7131 93.4504 -1.9703 0.0000 -15.3791 0.0003
# 3 24.0971 -1.9703 48.9392 0.0006 -3.4296 0.0003
# 4 -0.0003 0.0000 0.0006 -1.7614 0.0000 19.9889
# 5 -0.2516 -15.3791 -3.4296 0.0000 27.3634 -0.0005
# 6 0.0006 0.0003 0.0003 19.9889 -0.0005 49.5442
#
#
#
# Elastic Compliance Matrix: (Units=1/GPa)
#
#
# Indices 1 2 3 4 5 6 
#
# 1 0.007150 -0.001227 -0.003646 -0.000001 -0.001081 0.000000
# 2 -0.001227 0.012046 0.001577 0.000000 0.006957 0.000000
# 3 -0.003646 0.001577 0.022550 0.000001 0.003679 -0.000001
# 4 -0.000001 0.000000 0.000001 -0.101770 0.000001 0.041060
# 5 -0.001081 0.006957 0.003679 0.000001 0.040906 0.000000
# 6 0.000000 0.000000 -0.000001 0.041060 0.000000 0.003618
#
#
# Mechanical properties :
#
#
# Convention : Reuss Voigt Hill
#
# Bulk Modulus (GPa) = 28.44700 40.70769 34.57735
# Shear Modulus (GPa) = 1779.54974 32.48586 906.01780
#
# Velocity S-wave (km/s) = 26.43836 3.57212 18.86461
# Velocity P-wave (km/s) = 30.71085 5.74482 22.09252
#
# Compressibility (1/GPa) = 0.03515310
#
# Stress axis : x y z
#
# Youngs Moduli (GPa) = 139.86814 83.01563 44.34620
#
# Poissons Ratio (x) = 0.10189 0.16167
# Poissons Ratio (y) = 0.17167 -0.06993
# Poissons Ratio (z) = 0.50990 -0.13090
#
# Static dielectric constant tensor:
#      x y z
#    x 1.918380 0.000000 0.029300 
#    y 0.000000 2.024470 0.000000 
#    z 0.029300 0.000000 2.148730 
# 
# From -- ./inp_files/190175.got.cif
#   From: 2010.05.17/outbox.cif.g08.bks.cpg/sg15_96_cif.got.tgz:190175.got - 2010.06.03 18:47:42.
