data_PCOD9294829
_publ_section_title
;
Structure prediction by ZEFSAII (Michael W. Deem and Ramdas Pophale) SiO2 
 PCOD9294829
Probable space group: C 2/C
;
_chemical_formula_sum "Si O2"
_cell_formula_units_Z 64
_cell_length_a 12.579033
_cell_length_b 22.772075
_cell_length_c 12.279790
_cell_angle_alpha 90.000000
_cell_angle_beta 66.050686
_cell_angle_gamma 90.000000
_cell_volume 3214.710100
_symmetry_space_group_name_H-M "C 2/C"
_symmetry_group_IT_number 15
_symmetry_cell_setting 'monoclinic'
loop_
_space_group_symop_operation_xyz
x,y,z
-x,y,1/2-z
-x,-y,-z
x,-y,1/2+z
1/2+x,1/2+y,z
1/2-x,1/2+y,1/2-z
1/2-x,1/2-y,-z
1/2+x,1/2-y,1/2+z
loop_
_atom_site_type_symbol
_atom_site_label
_atom_site_fract_x
_atom_site_fract_y
_atom_site_fract_z
Si Si1 0.453334 0.667879 0.037455
Si Si2 0.227890 0.961906 0.269484
Si Si3 0.723816 0.706444 0.913546
Si Si4 0.968670 0.405687 0.135744
Si Si5 0.381171 0.419891 0.754892
Si Si6 0.167433 0.288505 0.361522
Si Si7 0.784140 0.588420 0.975417
Si Si8 0.119667 0.136350 0.657291
O O1 0.420416 0.633440 0.161380
O O2 0.388252 0.730625 0.064498
O O3 0.590289 0.683768 0.968310
O O4 0.409499 0.626352 0.957081
O O5 0.356506 0.947170 0.170568
O O6 0.231309 0.949203 0.397961
O O7 0.148972 0.917475 0.227989
O O8 0.189266 0.028298 0.272402
O O9 0.770386 0.728518 0.778613
O O10 0.801067 0.650149 0.908385
O O11 0.750000 0.750000 0.000000
O O12 0.927943 0.340244 0.117881
O O13 0.000000 0.407981 0.250000
O O14 0.088652 0.428098 0.032796
O O15 0.500000 0.447405 0.750000
O O16 0.304559 0.401786 0.890121
O O17 0.271016 0.320173 0.383440
O O18 0.000000 0.164862 0.750000
#
# Coordination Sequence:
#
# PCOD9294829 Si02
#       8
#     8   8   8   8   8   8   8   8
#     4  12  26  40  63  98 135 166 210 268 325 383
#     4  10  23  41  67  91 120 175 214 263 324 373
#     4  12  22  37  64  95 131 164 203 264 327 380
#     4   9  18  38  68  92 119 160 218 259 310 388
#     4  12  27  40  61  96 132 162 213 275 317 369
#     4  11  22  39  65  95 124 170 208 257 327 384
#     4  11  21  42  64  94 125 161 219 263 317 384
#     4  11  21  44  65  88 124 174 219 253 315 399
#
# _framework density 19.908481999999999
#
# number of rings (size 3 to 8) (size 9 to 14) (size 15 to 20)
#    0.000    1.000    6.250    2.250    1.750    1.000 
#    0.000    0.000    0.000    0.000    0.000    0.000 
#    0.000    0.000    0.000    0.000    0.000    0.000 
#
# Total GULP energy -178432.104381 kJ/mol
# GULP energy per Si atom -5576.003262 kJ/mol
# Density = 1.986317 g / cm^3
# Si number density = 19.908482 Si / 1000 Ang^3
#
#
#
# Elastic Constant Matrix: (Units=GPa)
#
#
# Indices 1 2 3 4 5 6 
#
# 1 114.4455 12.0992 30.1730 0.0000 -5.0550 0.0000
# 2 12.0992 47.3735 -11.1785 0.0000 2.0927 0.0000
# 3 30.1730 -11.1785 90.4469 0.0000 -4.7556 0.0000
# 4 0.0000 0.0000 0.0000 17.0444 0.0000 5.0537
# 5 -5.0550 2.0927 -4.7556 0.0000 30.8569 0.0000
# 6 0.0000 0.0000 0.0000 5.0537 0.0000 19.9937
#
#
#
# Elastic Compliance Matrix: (Units=1/GPa)
#
#
# Indices 1 2 3 4 5 6 
#
# 1 0.010161 -0.003540 -0.003758 0.000000 0.001326 0.000000
# 2 -0.003540 0.023012 0.003945 0.000000 -0.001533 0.000000
# 3 -0.003758 0.003945 0.012855 0.000000 0.001098 0.000000
# 4 0.000000 0.000000 0.000000 0.063424 0.000000 -0.016031
# 5 0.001326 -0.001533 0.001098 0.000000 0.032898 0.000000
# 6 0.000000 0.000000 0.000000 -0.016031 0.000000 0.054068
#
#
# Mechanical properties :
#
#
# Convention : Reuss Voigt Hill
#
# Bulk Modulus (GPa) = 25.43184 34.93923 30.18554
# Shear Modulus (GPa) = 23.12335 28.32380 25.72358
#
# Velocity S-wave (km/s) = 3.41175 3.77596 3.59847
# Velocity P-wave (km/s) = 5.32186 6.04967 5.69740
#
# Compressibility (1/GPa) = 0.03932079
#
# Stress axis : x y z
#
# Youngs Moduli (GPa) = 98.41242 43.45641 77.79059
#
# Poissons Ratio (x) = 0.15385 0.29231
# Poissons Ratio (y) = 0.34842 -0.30685
# Poissons Ratio (z) = 0.36980 -0.17142
#
# Static dielectric constant tensor:
#      x y z
#    x 1.739380 0.000000 0.064320 
#    y 0.000000 1.696940 0.000000 
#    z 0.064320 0.000000 1.549360 
# 
# From -- ./inp_files/90778.got.cif
#   From: 2010.05.17/outbox.cif.g08.bks.cpg/sg15_46_cif.got.tgz:90778.got - 2010.06.03 18:47:42.
