data_PCOD9294955
_publ_section_title
;
Structure prediction by ZEFSAII (Michael W. Deem and Ramdas Pophale) SiO2 
 PCOD9294955
Probable space group: C 2/C
;
_chemical_formula_sum "Si O2"
_cell_formula_units_Z 40
_cell_length_a 14.431684
_cell_length_b 15.704522
_cell_length_c 17.511150
_cell_angle_alpha 90.000000
_cell_angle_beta 151.537061
_cell_angle_gamma 90.000000
_cell_volume 1891.478973
_symmetry_space_group_name_H-M "C 2/C"
_symmetry_group_IT_number 15
_symmetry_cell_setting 'monoclinic'
loop_
_space_group_symop_operation_xyz
x,y,z
-x,y,1/2-z
-x,-y,-z
x,-y,1/2+z
1/2+x,1/2+y,z
1/2-x,1/2+y,1/2-z
1/2-x,1/2-y,-z
1/2+x,1/2-y,1/2+z
loop_
_atom_site_type_symbol
_atom_site_label
_atom_site_fract_x
_atom_site_fract_y
_atom_site_fract_z
Si Si1 0.318768 0.474472 0.918953
Si Si2 0.320025 0.347241 0.061322
Si Si3 0.920150 0.271229 0.385581
Si Si4 0.294659 0.841937 0.138548
Si Si5 0.578466 0.140423 0.147705
O O1 0.241223 0.558974 0.904544
O O2 0.185500 0.442738 0.753190
O O3 0.500000 0.500000 0.000000
O O4 0.352090 0.400231 0.006341
O O5 0.500000 0.352193 0.250000
O O6 0.250000 0.250000 0.000000
O O7 0.125101 0.378280 0.959421
O O8 0.830718 0.328145 0.254402
O O9 0.738110 0.214867 0.285976
O O10 0.094274 0.210643 0.478841
O O11 0.020527 0.330268 0.521400
O O12 0.500000 0.813692 0.250000
#
# Coordination Sequence:
#
# PCOD9294955 Si02
#       5
#     8   8   8   8   8
#     4  12  26  46  67 103 147 184 234 304 361 425
#     4  12  26  44  75 108 141 189 244 298 361 434
#     4  10  23  41  71 100 131 189 234 298 355 439
#     4  11  23  44  67  96 138 181 239 292 364 424
#     4  11  22  42  68  99 139 179 236 290 363 423
#
# _framework density 21.147473000000002
#
# number of rings (size 3 to 8) (size 9 to 14) (size 15 to 20)
#    0.000    0.800    2.000    6.000    5.600    0.800 
#    3.600    1.000    0.000    0.000    0.000    0.000 
#    0.000    0.000    0.000    0.000    0.000    0.000 
#
# Total GULP energy -111387.797226 kJ/mol
# GULP energy per Si atom -5569.389861 kJ/mol
# Density = 2.109934 g / cm^3
# Si number density = 21.147473 Si / 1000 Ang^3
#
#
#
# Elastic Constant Matrix: (Units=GPa)
#
#
# Indices 1 2 3 4 5 6 
#
# 1 97.5642 33.2696 42.2177 -0.0004 20.7889 -0.0017
# 2 33.2696 83.3054 43.0088 -0.0061 -6.8050 -0.0047
# 3 42.2177 43.0088 138.4270 0.0064 23.5064 0.0030
# 4 -0.0004 -0.0061 0.0064 48.7809 -0.0011 11.0660
# 5 20.7889 -6.8050 23.5064 -0.0011 42.4343 -0.0011
# 6 -0.0017 -0.0047 0.0030 11.0660 -0.0011 39.4977
#
#
#
# Elastic Compliance Matrix: (Units=1/GPa)
#
#
# Indices 1 2 3 4 5 6 
#
# 1 0.014266 -0.005540 -0.001426 -0.000001 -0.007088 0.000000
# 2 -0.005540 0.017592 -0.005206 0.000003 0.008419 0.000002
# 3 -0.001426 -0.005206 0.010265 -0.000002 -0.005823 -0.000001
# 4 -0.000001 0.000003 -0.000002 0.021891 0.000002 -0.006133
# 5 -0.007088 0.008419 -0.005823 0.000002 0.031614 0.000001
# 6 0.000000 0.000002 -0.000001 -0.006133 0.000001 0.027036
#
#
# Mechanical properties :
#
#
# Convention : Reuss Voigt Hill
#
# Bulk Modulus (GPa) = 56.24544 61.80987 59.02765
# Shear Modulus (GPa) = 32.69370 39.52926 36.11148
#
# Velocity S-wave (km/s) = 3.93617 4.32814 4.13680
# Velocity P-wave (km/s) = 6.87840 7.36672 7.12674
#
# Compressibility (1/GPa) = 0.01777922
#
# Stress axis : x y z
#
# Youngs Moduli (GPa) = 70.09583 56.84417 97.41773
#
# Poissons Ratio (x) = 0.31493 0.13892
# Poissons Ratio (y) = 0.38834 0.50713
# Poissons Ratio (z) = 0.09996 0.29592
#
# Static dielectric constant tensor:
#      x y z
#    x 1.816840 0.000010 0.134440 
#    y 0.000010 1.764740 -0.000010 
#    z 0.134440 -0.000010 1.791650 
# 
# From -- ./inp_files/205818.got.cif
#   From: 2010.05.17/outbox.cif.g08.bks.cpg/sg15_103_cif.got.tgz:205818.got - 2010.06.03 18:47:42.
