data_PCOD9294877
_publ_section_title
;
Structure prediction by ZEFSAII (Michael W. Deem and Ramdas Pophale) SiO2 
 PCOD9294877
Probable space group: C 2/C
;
_chemical_formula_sum "Si O2"
_cell_formula_units_Z 48
_cell_length_a 27.453249
_cell_length_b 16.726889
_cell_length_c 9.393626
_cell_angle_alpha 90.000000
_cell_angle_beta 143.313094
_cell_angle_gamma 90.000000
_cell_volume 2577.139134
_symmetry_space_group_name_H-M "C 2/C"
_symmetry_group_IT_number 15
_symmetry_cell_setting 'monoclinic'
loop_
_space_group_symop_operation_xyz
x,y,z
-x,y,1/2-z
-x,-y,-z
x,-y,1/2+z
1/2+x,1/2+y,z
1/2-x,1/2+y,1/2-z
1/2-x,1/2-y,-z
1/2+x,1/2-y,1/2+z
loop_
_atom_site_type_symbol
_atom_site_label
_atom_site_fract_x
_atom_site_fract_y
_atom_site_fract_z
Si Si1 0.098996 0.429739 0.650239
Si Si2 0.247014 0.329345 0.085209
Si Si3 0.180727 0.759234 0.954593
Si Si4 0.093676 0.590502 0.804834
Si Si5 0.395853 0.439222 0.392707
Si Si6 0.934543 0.903582 0.813766
O O1 0.116620 0.516707 0.757372
O O2 0.112559 0.431350 0.512733
O O3 0.004384 0.404283 0.444918
O O4 0.158100 0.367642 0.866413
O O5 0.277121 0.300055 0.309413
O O6 0.309941 0.395573 0.171460
O O7 0.250000 0.250000 0.000000
O O8 0.139638 0.673283 0.884695
O O9 0.109279 0.821645 0.750476
O O10 0.250000 0.750000 0.000000
O O11 0.411252 0.433044 0.598763
O O12 0.467990 0.394741 0.474338
O O13 0.405721 0.528857 0.357032
#
# Coordination Sequence:
#
# PCOD9294877 Si02
#       6
#     8   8   8   8   8   8
#     4  10  23  41  68  89 121 164 211 252 312 367
#     4  11  23  39  62  91 116 158 206 249 300 363
#     4  11  25  40  60  91 125 159 203 254 307 356
#     4  10  23  43  65  88 124 166 205 257 310 367
#     4   9  20  36  62  85 118 151 197 236 299 355
#     4   9  20  39  60  86 117 159 192 240 299 363
#
# _framework density 18.625304
#
# number of rings (size 3 to 8) (size 9 to 14) (size 15 to 20)
#    0.000    2.000    1.667    0.000    7.000    4.000 
#    0.000    0.000    0.000    0.000    0.000    0.000 
#    0.000    0.000    0.000    0.000    0.000    0.000 
#
# Total GULP energy -133864.139830 kJ/mol
# GULP energy per Si atom -5577.672493 kJ/mol
# Density = 1.858291 g / cm^3
# Si number density = 18.625304 Si / 1000 Ang^3
#
#
#
# Elastic Constant Matrix: (Units=GPa)
#
#
# Indices 1 2 3 4 5 6 
#
# 1 104.1705 82.9831 24.6847 0.0000 -0.0251 0.0000
# 2 82.9831 139.4934 51.4252 0.0000 7.5068 0.0000
# 3 24.6847 51.4252 68.4072 0.0000 12.9783 0.0000
# 4 0.0000 0.0000 0.0000 37.2535 0.0000 2.7009
# 5 -0.0251 7.5068 12.9783 0.0000 6.6784 0.0000
# 6 0.0000 0.0000 0.0000 2.7009 0.0000 33.3478
#
#
#
# Elastic Compliance Matrix: (Units=1/GPa)
#
#
# Indices 1 2 3 4 5 6 
#
# 1 0.019406 -0.012059 -0.000828 0.000000 0.015237 0.000000
# 2 -0.012059 0.017530 -0.008047 0.000000 -0.004113 0.000000
# 3 -0.000828 -0.008047 0.030493 0.000000 -0.050217 0.000000
# 4 0.000000 0.000000 0.000000 0.027002 0.000000 -0.002187
# 5 0.015237 -0.004113 -0.050217 0.000000 0.252007 0.000000
# 6 0.000000 0.000000 0.000000 -0.002187 0.000000 0.030164
#
#
# Mechanical properties :
#
#
# Convention : Reuss Voigt Hill
#
# Bulk Modulus (GPa) = 39.12000 70.02857 54.57429
# Shear Modulus (GPa) = 11.70987 25.65448 18.68218
#
# Velocity S-wave (km/s) = 2.51012 3.71536 3.17054
# Velocity P-wave (km/s) = 5.42681 7.48902 6.53971
#
# Compressibility (1/GPa) = 0.02556237
#
# Stress axis : x y z
#
# Youngs Moduli (GPa) = 51.53081 57.04376 32.79394
#
# Poissons Ratio (x) = 0.68790 0.02715
# Poissons Ratio (y) = 0.62141 0.26388
# Poissons Ratio (z) = 0.04266 0.45901
#
# Static dielectric constant tensor:
#      x y z
#    x 1.629750 0.000000 0.015670 
#    y 0.000000 1.590180 0.000000 
#    z 0.015670 0.000000 1.613670 
# 
# From -- ./inp_files/66492.got.cif
#   From: 2010.05.17/outbox.cif.g08.bks.cpg/sg15_34_cif.got.tgz:66492.got - 2010.06.03 18:47:42.
