data_PCOD9294480
_publ_section_title
;
Structure prediction by ZEFSAII (Michael W. Deem and Ramdas Pophale) SiO2 
 PCOD9294480
Probable space group: C 2/C
;
_chemical_formula_sum "Si O2"
_cell_formula_units_Z 52
_cell_length_a 11.516672
_cell_length_b 15.837522
_cell_length_c 15.444650
_cell_angle_alpha 90.000000
_cell_angle_beta 58.097903
_cell_angle_gamma 90.000000
_cell_volume 2391.528789
_symmetry_space_group_name_H-M "C 2/C"
_symmetry_group_IT_number 15
_symmetry_cell_setting 'monoclinic'
loop_
_space_group_symop_operation_xyz
x,y,z
-x,y,1/2-z
-x,-y,-z
x,-y,1/2+z
1/2+x,1/2+y,z
1/2-x,1/2+y,1/2-z
1/2-x,1/2-y,-z
1/2+x,1/2-y,1/2+z
loop_
_atom_site_type_symbol
_atom_site_label
_atom_site_fract_x
_atom_site_fract_y
_atom_site_fract_z
Si Si1 0.198745 0.447270 0.103022
Si Si2 0.000000 0.579940 0.250000
Si Si3 0.000000 0.107619 0.750000
Si Si4 0.163203 0.826004 0.333237
Si Si5 0.042950 0.678972 0.863824
Si Si6 0.500000 0.671052 0.250000
Si Si7 0.279757 0.529041 0.380175
Si Si8 0.558216 0.852128 0.909608
O O1 0.132350 0.518756 0.189714
O O2 0.321581 0.394183 0.096870
O O3 0.075407 0.382394 0.127269
O O4 0.251056 0.484408 0.992452
O O5 0.998622 0.634859 0.337633
O O6 0.033933 0.159950 0.822340
O O7 0.133015 0.048936 0.687593
O O8 0.305169 0.840927 0.227170
O O9 0.155938 0.730129 0.368534
O O10 0.016162 0.768979 0.827947
O O11 0.034949 0.668785 0.970516
O O12 0.375886 0.609110 0.321744
O O13 0.136198 0.559292 0.396750
#
# Coordination Sequence:
#
# PCOD9294480 Si02
#       8
#     8   4   4   8   8   4   8   8
#     4  11  22  41  70  93 125 165 220 265 323 364
#     4  12  24  42  60  98 128 172 214 260 310 388
#     4  11  27  40  61  91 134 174 204 251 333 378
#     4  12  22  45  62  92 131 167 209 269 306 396
#     4  11  21  39  71  98 121 168 212 275 315 374
#     4  11  17  40  67 103 124 156 218 267 331 364
#     4  10  23  40  66  96 127 165 211 271 318 383
#     4  11  25  41  67  94 130 166 222 259 322 370
#
# _framework density 21.743414000000001
#
# number of rings (size 3 to 8) (size 9 to 14) (size 15 to 20)
#    0.000    0.923    4.615    2.308    2.154    4.308 
#    2.769    1.538    0.000    0.000    0.000    0.000 
#    0.000    0.000    0.000    0.000    0.000    0.000 
#
# Total GULP energy -145188.926968 kJ/mol
# GULP energy per Si atom -5584.189499 kJ/mol
# Density = 2.169393 g / cm^3
# Si number density = 21.743414 Si / 1000 Ang^3
#
#
#
# Elastic Constant Matrix: (Units=GPa)
#
#
# Indices 1 2 3 4 5 6 
#
# 1 31.3235 -2.5345 -11.9867 0.0000 20.6054 0.0000
# 2 -2.5345 55.6222 3.1571 0.0000 4.1131 0.0000
# 3 -11.9867 3.1571 98.2050 0.0000 18.3434 0.0000
# 4 0.0000 0.0000 0.0000 17.1713 0.0000 10.6542
# 5 20.6054 4.1131 18.3434 0.0000 37.7716 0.0000
# 6 0.0000 0.0000 0.0000 10.6542 0.0000 -32.7024
#
#
#
# Elastic Compliance Matrix: (Units=1/GPa)
#
#
# Indices 1 2 3 4 5 6 
#
# 1 0.069930 0.005696 0.017150 0.000000 -0.047098 0.000000
# 2 0.005696 0.018593 0.001161 0.000000 -0.005696 0.000000
# 3 0.017150 0.001161 0.015407 0.000000 -0.016964 0.000000
# 4 0.000000 0.000000 0.000000 0.048444 0.000000 0.015783
# 5 -0.047098 -0.005696 -0.016964 0.000000 0.061027 0.000000
# 6 0.000000 0.000000 0.000000 0.015783 0.000000 -0.025437
#
#
# Mechanical properties :
#
#
# Convention : Reuss Voigt Hill
#
# Bulk Modulus (GPa) = 6.58136 18.04697 12.31416
# Shear Modulus (GPa) = 26.23302 17.54909 21.89105
#
# Velocity S-wave (km/s) = 3.47721 2.84403 3.17644
# Velocity P-wave (km/s) = 4.37661 4.37066 4.37364
#
# Compressibility (1/GPa) = 0.15194439
#
# Stress axis : x y z
#
# Youngs Moduli (GPa) = 14.29995 53.78298 64.90382
#
# Poissons Ratio (x) = -0.30633 -1.11307
# Poissons Ratio (y) = -0.08145 -0.07538
# Poissons Ratio (z) = -0.24524 -0.06246
#
# Static dielectric constant tensor:
#      x y z
#    x 1.829170 0.000000 0.015420 
#    y 0.000000 1.790270 0.000000 
#    z 0.015420 0.000000 1.797200 
# 
# From -- ./inp_files/144350.got.cif
#   From: 2010.05.17/outbox.cif.g08.bks.cpg/sg15_73_cif.got.tgz:144350.got - 2010.06.03 18:47:42.
