data_PCOD9294942
_publ_section_title
;
Structure prediction by ZEFSAII (Michael W. Deem and Ramdas Pophale) SiO2 
 PCOD9294942
Probable space group: C 2/C
;
_chemical_formula_sum "Si O2"
_cell_formula_units_Z 40
_cell_length_a 17.852411
_cell_length_b 6.054618
_cell_length_c 23.074427
_cell_angle_alpha 90.000000
_cell_angle_beta 144.556936
_cell_angle_gamma 90.000000
_cell_volume 1446.315080
_symmetry_space_group_name_H-M "C 2/C"
_symmetry_group_IT_number 15
_symmetry_cell_setting 'monoclinic'
loop_
_space_group_symop_operation_xyz
x,y,z
-x,y,1/2-z
-x,-y,-z
x,-y,1/2+z
1/2+x,1/2+y,z
1/2-x,1/2+y,1/2-z
1/2-x,1/2-y,-z
1/2+x,1/2-y,1/2+z
loop_
_atom_site_type_symbol
_atom_site_label
_atom_site_fract_x
_atom_site_fract_y
_atom_site_fract_z
Si Si1 0.993001 0.292994 0.834440
Si Si2 0.774559 0.775372 0.101602
Si Si3 0.745276 0.747164 0.565535
Si Si4 0.376809 0.217311 0.761433
Si Si5 0.410640 0.448688 0.388290
O O1 0.863903 0.228941 0.716134
O O2 0.994804 0.552723 0.830006
O O3 0.119754 0.200760 0.883705
O O4 0.965743 0.245508 0.883724
O O5 0.717434 0.522183 0.059580
O O6 0.688516 0.000237 0.045478
O O7 0.750000 0.750000 0.500000
O O8 0.859595 0.783714 0.683924
O O9 0.408077 0.363954 0.837019
O O10 0.235328 0.115983 0.687190
O O11 0.500000 0.500000 0.500000
#
# Coordination Sequence:
#
# PCOD9294942 Si02
#       5
#     8   8   8   8   8
#     4  10  23  43  68  98 141 189 232 310 360 442
#     4  10  23  41  70 102 139 189 238 300 377 436
#     4  11  24  43  71 106 143 188 243 311 375 440
#     4  11  25  48  69 104 153 187 252 311 362 449
#     4  12  26  46  73 102 143 201 246 304 379 444
#
# _framework density 27.656490000000002
#
# number of rings (size 3 to 8) (size 9 to 14) (size 15 to 20)
#    0.000    1.200    4.000    0.600    5.600    2.400 
#    3.600    0.000    0.000    0.000    0.000    0.000 
#    0.000    0.000    0.000    0.000    0.000    0.000 
#
# Total GULP energy -111379.171266 kJ/mol
# GULP energy per Si atom -5568.958563 kJ/mol
# Density = 2.759354 g / cm^3
# Si number density = 27.656490 Si / 1000 Ang^3
#
#
#
# Elastic Constant Matrix: (Units=GPa)
#
#
# Indices 1 2 3 4 5 6 
#
# 1 86.4345 9.0965 54.2705 0.0000 -31.3747 0.0015
# 2 9.0965 173.5000 67.5649 -0.0002 -3.9905 0.0028
# 3 54.2705 67.5649 221.9427 0.0000 -41.9570 0.0003
# 4 0.0000 -0.0002 0.0000 55.1428 -0.0001 -10.2765
# 5 -31.3747 -3.9905 -41.9570 -0.0001 55.6746 0.0000
# 6 0.0015 0.0028 0.0003 -10.2765 0.0000 73.9413
#
#
#
# Elastic Compliance Matrix: (Units=1/GPa)
#
#
# Indices 1 2 3 4 5 6 
#
# 1 0.015688 0.000367 -0.002649 0.000000 0.006871 0.000000
# 2 0.000367 0.006617 -0.002304 0.000000 -0.001055 0.000000
# 3 -0.002649 -0.002304 0.006462 0.000000 0.003212 0.000000
# 4 0.000000 0.000000 0.000000 0.018617 0.000000 0.002587
# 5 0.006871 -0.001055 0.003212 0.000000 0.024178 0.000000
# 6 0.000000 0.000000 0.000000 0.002587 0.000000 0.013884
#
#
# Mechanical properties :
#
#
# Convention : Reuss Voigt Hill
#
# Bulk Modulus (GPa) = 51.03040 82.63788 66.83414
# Shear Modulus (GPa) = 49.43179 60.34810 54.88994
#
# Velocity S-wave (km/s) = 4.23229 4.67632 4.45983
# Velocity P-wave (km/s) = 6.50958 7.68780 7.12309
#
# Compressibility (1/GPa) = 0.01959616
#
# Stress axis : x y z
#
# Youngs Moduli (GPa) = 63.74256 151.11958 154.75388
#
# Poissons Ratio (x) = -0.05547 0.40994
# Poissons Ratio (y) = -0.02340 0.35650
# Poissons Ratio (z) = 0.16885 0.34813
#
# Static dielectric constant tensor:
#      x y z
#    x 2.046620 0.000000 0.059690 
#    y 0.000000 2.409800 0.000000 
#    z 0.059690 0.000000 2.209360 
# 
# From -- ./inp_files/279101.got.cif
#   From: 2010.05.17/outbox.cif.g08.bks.cpg/sg15_140_cif.got.tgz:279101.got - 2010.06.03 18:47:42.
