data_PCOD9294938
_publ_section_title
;
Structure prediction by ZEFSAII (Michael W. Deem and Ramdas Pophale) SiO2 
 PCOD9294938
Probable space group: C 2/C
;
_chemical_formula_sum "Si O2"
_cell_formula_units_Z 56
_cell_length_a 17.559461
_cell_length_b 14.546193
_cell_length_c 12.979933
_cell_angle_alpha 90.000000
_cell_angle_beta 132.429109
_cell_angle_gamma 90.000000
_cell_volume 2447.122081
_symmetry_space_group_name_H-M "C 2/C"
_symmetry_group_IT_number 15
_symmetry_cell_setting 'monoclinic'
loop_
_space_group_symop_operation_xyz
x,y,z
-x,y,1/2-z
-x,-y,-z
x,-y,1/2+z
1/2+x,1/2+y,z
1/2-x,1/2+y,1/2-z
1/2-x,1/2-y,-z
1/2+x,1/2-y,1/2+z
loop_
_atom_site_type_symbol
_atom_site_label
_atom_site_fract_x
_atom_site_fract_y
_atom_site_fract_z
Si Si1 0.789720 0.335644 0.728786
Si Si2 0.499327 0.485893 0.877282
Si Si3 0.873160 0.488139 0.960146
Si Si4 0.079206 0.203318 0.141787
Si Si5 0.950533 0.810887 0.311757
Si Si6 0.582727 0.903689 0.190803
Si Si7 0.265150 0.495313 0.973768
O O1 0.854032 0.405339 0.860980
O O2 0.697035 0.302757 0.715352
O O3 0.850077 0.248172 0.742241
O O4 0.751499 0.397144 0.597788
O O5 0.558394 0.421051 0.210486
O O6 0.616478 0.480736 0.943141
O O7 0.500000 0.500000 0.000000
O O8 0.447412 0.387194 0.817508
O O9 0.892161 0.576874 0.906848
O O10 0.777731 0.502197 0.949288
O O11 0.979073 0.462835 0.115463
O O12 0.058807 0.297186 0.182490
O O13 0.017877 0.202131 0.976897
O O14 0.000000 0.776376 0.250000
O O15 0.684180 0.936187 0.343311
#
# Coordination Sequence:
#
# PCOD9294938 Si02
#       7
#     8   8   8   8   8   8   8
#     4  11  24  42  71 100 136 180 217 291 343 401
#     4  10  23  47  65  94 138 177 221 288 333 401
#     4  10  23  43  66 101 140 178 230 269 351 402
#     4  11  24  45  68  96 139 177 225 280 349 397
#     4  11  25  42  72 101 134 173 233 283 343 410
#     4  10  23  41  69  99 136 185 215 291 336 401
#     4  11  23  43  72 100 139 179 229 277 338 417
#
# _framework density 22.884024
#
# number of rings (size 3 to 8) (size 9 to 14) (size 15 to 20)
#    0.000    1.429    4.286    0.429    6.000    2.857 
#    0.000    5.714    0.000    0.000    0.000    0.000 
#    0.000    0.000    0.000    0.000    0.000    0.000 
#
# Total GULP energy -156560.215371 kJ/mol
# GULP energy per Si atom -5591.436263 kJ/mol
# Density = 2.283194 g / cm^3
# Si number density = 22.884024 Si / 1000 Ang^3
#
#
#
# Elastic Constant Matrix: (Units=GPa)
#
#
# Indices 1 2 3 4 5 6 
#
# 1 196.2701 45.0697 40.4914 0.0000 5.5692 0.0000
# 2 45.0697 101.9174 30.4531 0.0000 12.6273 0.0000
# 3 40.4914 30.4531 40.9822 0.0000 -3.2313 0.0000
# 4 0.0000 0.0000 0.0000 23.6212 0.0000 12.0932
# 5 5.5692 12.6273 -3.2313 0.0000 34.6493 0.0000
# 6 0.0000 0.0000 0.0000 12.0932 0.0000 25.9451
#
#
#
# Elastic Compliance Matrix: (Units=1/GPa)
#
#
# Indices 1 2 3 4 5 6 
#
# 1 0.006565 -0.001007 -0.005835 0.000000 -0.001232 0.000000
# 2 -0.001007 0.013905 -0.009797 0.000000 -0.005819 0.000000
# 3 -0.005835 -0.009797 0.038082 0.000000 0.008060 0.000000
# 4 0.000000 0.000000 0.000000 0.055603 0.000000 -0.025917
# 5 -0.001232 -0.005819 0.008060 0.000000 0.031931 0.000000
# 6 0.000000 0.000000 0.000000 -0.025917 0.000000 0.050623
#
#
# Mechanical properties :
#
#
# Convention : Reuss Voigt Hill
#
# Bulk Modulus (GPa) = 39.56659 63.46646 51.51653
# Shear Modulus (GPa) = 20.97203 31.72017 26.34610
#
# Velocity S-wave (km/s) = 3.03057 3.72711 3.39674
# Velocity P-wave (km/s) = 5.43815 6.80558 6.15993
#
# Compressibility (1/GPa) = 0.02527385
#
# Stress axis : x y z
#
# Youngs Moduli (GPa) = 152.32114 71.91419 26.25925
#
# Poissons Ratio (x) = 0.07241 0.15323
# Poissons Ratio (y) = 0.15336 0.25726
# Poissons Ratio (z) = 0.88886 0.70454
#
# Static dielectric constant tensor:
#      x y z
#    x 1.786390 0.000000 -0.010730 
#    y 0.000000 1.855350 0.000000 
#    z -0.010730 0.000000 1.914370 
# 
# From -- ./inp_files/98845.got.cif
#   From: 2010.05.17/outbox.cif.g08.bks.cpg/sg15_50_cif.got.tgz:98845.got - 2010.06.03 18:47:42.
