data_PCOD9294156
_publ_section_title
;
Structure prediction by ZEFSAII (Michael W. Deem and Ramdas Pophale) SiO2 
 PCOD9294156
Probable space group: C 2/C
;
_chemical_formula_sum "Si O2"
_cell_formula_units_Z 64
_cell_length_a 21.615074
_cell_length_b 17.806877
_cell_length_c 20.110505
_cell_angle_alpha 90.000000
_cell_angle_beta 23.738817
_cell_angle_gamma 90.000000
_cell_volume 3116.066705
_symmetry_space_group_name_H-M "C 2/C"
_symmetry_group_IT_number 15
_symmetry_cell_setting 'monoclinic'
loop_
_space_group_symop_operation_xyz
x,y,z
-x,y,1/2-z
-x,-y,-z
x,-y,1/2+z
1/2+x,1/2+y,z
1/2-x,1/2+y,1/2-z
1/2-x,1/2-y,-z
1/2+x,1/2-y,1/2+z
loop_
_atom_site_type_symbol
_atom_site_label
_atom_site_fract_x
_atom_site_fract_y
_atom_site_fract_z
Si Si1 0.083934 0.005608 0.846952
Si Si2 0.869132 0.978415 0.431321
Si Si3 0.318846 0.120895 0.915664
Si Si4 0.177092 0.849688 0.699072
Si Si5 0.253183 0.847924 0.218156
Si Si6 0.728772 0.687585 0.463716
Si Si7 0.826858 0.799409 0.062847
Si Si8 0.480026 0.769206 0.617701
O O1 0.169812 0.928456 0.744533
O O2 0.201215 0.074688 0.735951
O O3 0.954471 0.019973 0.918272
O O4 0.000000 0.000000 0.000000
O O5 0.811932 0.894868 0.470565
O O6 0.000000 0.000565 0.250000
O O7 0.735580 0.039733 0.557739
O O8 0.500000 0.124650 0.750000
O O9 0.265659 0.180278 0.912684
O O10 0.228887 0.135662 0.072720
O O11 0.292064 0.786993 0.614238
O O12 0.004872 0.816668 0.874653
O O13 0.234884 0.849461 0.315456
O O14 0.132038 0.784924 0.312829
O O15 0.417673 0.820548 0.030654
O O16 0.750000 0.750000 0.500000
O O17 0.592878 0.717073 0.550082
O O18 0.879236 0.684719 0.269629
#
# Coordination Sequence:
#
# PCOD9294156 Si02
#       8
#     8   8   8   8   8   8   8   8
#     4  12  24  45  73 102 135 189 234 289 359 434
#     4  12  23  44  70  98 142 188 236 291 358 426
#     4  12  26  45  69 105 141 183 239 298 356 424
#     4  12  25  45  73 102 143 182 240 290 364 426
#     4  11  23  43  71 100 142 182 236 292 353 425
#     4  11  23  39  64  98 142 187 239 287 353 419
#     4  12  24  45  71 104 136 183 235 295 357 427
#     4  10  23  39  62 101 138 183 235 290 346 413
#
# _framework density 20.538713999999999
#
# number of rings (size 3 to 8) (size 9 to 14) (size 15 to 20)
#    0.000    0.500    5.000    3.375    1.750    2.000 
#    0.000    0.000    0.000    6.000    0.000    0.000 
#    0.000    0.000    0.000    0.000    0.000    0.000 
#
# Total GULP energy -179101.043728 kJ/mol
# GULP energy per Si atom -5596.907617 kJ/mol
# Density = 2.049197 g / cm^3
# Si number density = 20.538714 Si / 1000 Ang^3
#
#
#
# Elastic Constant Matrix: (Units=GPa)
#
#
# Indices 1 2 3 4 5 6 
#
# 1 84.2543 24.1019 39.7795 -0.0039 23.5952 0.0015
# 2 24.1019 132.0850 37.3955 0.0013 -6.9075 0.0006
# 3 39.7795 37.3955 143.2690 -0.0004 6.8610 0.0017
# 4 -0.0039 0.0013 -0.0004 33.2264 -0.0013 -3.0247
# 5 23.5952 -6.9075 6.8610 -0.0013 23.0322 0.0002
# 6 0.0015 0.0006 0.0017 -3.0247 0.0002 31.8498
#
#
#
# Elastic Compliance Matrix: (Units=1/GPa)
#
#
# Indices 1 2 3 4 5 6 
#
# 1 0.020657 -0.003824 -0.003722 0.000002 -0.021200 0.000000
# 2 -0.003824 0.009112 -0.001659 -0.000001 0.007145 0.000000
# 3 -0.003722 -0.001659 0.008407 0.000000 0.000811 0.000000
# 4 0.000002 -0.000001 0.000000 0.030359 0.000000 0.002883
# 5 -0.021200 0.007145 0.000811 0.000000 0.067037 0.000000
# 6 0.000000 0.000000 0.000000 0.002883 0.000000 0.031671
#
#
# Mechanical properties :
#
#
# Convention : Reuss Voigt Hill
#
# Bulk Modulus (GPa) = 50.59078 62.46246 56.52662
# Shear Modulus (GPa) = 26.00877 34.84377 30.42627
#
# Velocity S-wave (km/s) = 3.56241 4.12332 3.85309
# Velocity P-wave (km/s) = 6.45030 7.29020 6.88308
#
# Compressibility (1/GPa) = 0.01976645
#
# Stress axis : x y z
#
# Youngs Moduli (GPa) = 48.40911 109.74614 118.94212
#
# Poissons Ratio (x) = 0.41970 0.44272
# Poissons Ratio (y) = 0.18513 0.19729
# Poissons Ratio (z) = 0.18019 0.18203
#
# Static dielectric constant tensor:
#      x y z
#    x 1.739890 0.000000 0.007020 
#    y 0.000000 1.738770 0.000000 
#    z 0.007020 0.000000 1.710010 
# 
# From -- ./inp_files/255977.got.cif
#   From: 2010.05.17/outbox.cif.g08.bks.cpg/sg15_128_cif.got.tgz:255977.got - 2010.06.03 18:47:42.
