data_PCOD9294926
_publ_section_title
;
Structure prediction by ZEFSAII (Michael W. Deem and Ramdas Pophale) SiO2 
 PCOD9294926
Probable space group: C 2/C
;
_chemical_formula_sum "Si O2"
_cell_formula_units_Z 64
_cell_length_a 13.047448
_cell_length_b 21.378838
_cell_length_c 17.486299
_cell_angle_alpha 90.000000
_cell_angle_beta 42.529043
_cell_angle_gamma 90.000000
_cell_volume 3297.091791
_symmetry_space_group_name_H-M "C 2/C"
_symmetry_group_IT_number 15
_symmetry_cell_setting 'monoclinic'
loop_
_space_group_symop_operation_xyz
x,y,z
-x,y,1/2-z
-x,-y,-z
x,-y,1/2+z
1/2+x,1/2+y,z
1/2-x,1/2+y,1/2-z
1/2-x,1/2-y,-z
1/2+x,1/2-y,1/2+z
loop_
_atom_site_type_symbol
_atom_site_label
_atom_site_fract_x
_atom_site_fract_y
_atom_site_fract_z
Si Si1 0.190313 0.312665 0.991890
Si Si2 0.137399 0.701030 0.874173
Si Si3 0.035186 0.888755 0.641410
Si Si4 0.410155 0.617075 0.724000
Si Si5 0.390416 0.497208 0.632150
Si Si6 0.352093 0.704348 0.996875
Si Si7 0.251195 0.690339 0.278470
Si Si8 0.843098 0.394704 0.794635
O O1 0.293085 0.368676 0.968135
O O2 0.227156 0.309659 0.881421
O O3 0.250000 0.250000 0.000000
O O4 0.010188 0.320262 0.091462
O O5 0.251197 0.647358 0.838672
O O6 0.240724 0.741516 0.760296
O O7 0.089912 0.747785 0.969055
O O8 0.000000 0.886163 0.750000
O O9 0.918095 0.839002 0.669752
O O10 0.982843 0.954913 0.640871
O O11 0.500000 0.593932 0.750000
O O12 0.369707 0.563586 0.684465
O O13 0.521811 0.667823 0.621871
O O14 0.500000 0.500000 0.500000
O O15 0.245180 0.456976 0.684142
O O16 0.250000 0.750000 0.000000
O O17 0.255399 0.650427 0.094610
O O18 0.136901 0.647264 0.293198
O O19 0.000000 0.408520 0.750000
#
# Coordination Sequence:
#
# PCOD9294926 Si02
#       8
#     8   8   8   8   8   8   8   8
#     4  11  21  36  61  93 129 164 212 262 322 381
#     4  11  23  36  60  98 132 162 205 274 327 383
#     4   9  19  39  62  82 115 171 208 248 306 386
#     4  12  25  42  65  95 132 174 216 273 333 393
#     4  11  23  45  64  87 124 172 221 255 317 398
#     4  11  23  40  66  97 134 166 209 268 341 398
#     4   9  20  36  60  90 127 164 210 254 324 393
#     4  10  23  41  69  94 124 173 217 273 324 390
#
# _framework density 19.411047
#
# number of rings (size 3 to 8) (size 9 to 14) (size 15 to 20)
#    0.000    1.500    3.750    1.125    5.250    1.000 
#    2.250    0.000    0.000    3.750    0.000    0.000 
#    0.000    0.000    0.000    0.000    0.000    0.000 
#
# Total GULP energy -178453.820780 kJ/mol
# GULP energy per Si atom -5576.681899 kJ/mol
# Density = 1.936687 g / cm^3
# Si number density = 19.411047 Si / 1000 Ang^3
#
#
#
# Elastic Constant Matrix: (Units=GPa)
#
#
# Indices 1 2 3 4 5 6 
#
# 1 132.2402 51.2699 30.1455 -0.0002 -17.6743 0.0002
# 2 51.2699 75.9879 29.6443 -0.0002 -16.0163 0.0002
# 3 30.1455 29.6443 50.5824 -0.0006 -2.2127 0.0002
# 4 -0.0002 -0.0002 -0.0006 16.8528 0.0004 11.4094
# 5 -17.6743 -16.0163 -2.2127 0.0004 32.5379 -0.0002
# 6 0.0002 0.0002 0.0002 11.4094 -0.0002 35.8583
#
#
#
# Elastic Compliance Matrix: (Units=1/GPa)
#
#
# Indices 1 2 3 4 5 6 
#
# 1 0.010772 -0.005431 -0.003108 0.000000 0.002967 0.000000
# 2 -0.005431 0.021992 -0.009336 0.000000 0.007241 0.000000
# 3 -0.003108 -0.009336 0.026898 0.000001 -0.004454 -0.000001
# 4 0.000000 0.000000 0.000001 0.075628 -0.000001 -0.024063
# 5 0.002967 0.007241 -0.004454 -0.000001 0.035606 0.000001
# 6 0.000000 0.000000 -0.000001 -0.024063 0.000001 0.035544
#
#
# Mechanical properties :
#
#
# Convention : Reuss Voigt Hill
#
# Bulk Modulus (GPa) = 41.81427 53.43665 47.62546
# Shear Modulus (GPa) = 19.98721 26.89985 23.44353
#
# Velocity S-wave (km/s) = 3.21235 3.72667 3.47903
# Velocity P-wave (km/s) = 5.94535 6.79016 6.38175
#
# Compressibility (1/GPa) = 0.02391528
#
# Stress axis : x y z
#
# Youngs Moduli (GPa) = 92.82978 45.47075 37.17735
#
# Poissons Ratio (x) = 0.24693 0.11553
# Poissons Ratio (y) = 0.50412 0.34707
# Poissons Ratio (z) = 0.28848 0.42449
#
# Static dielectric constant tensor:
#      x y z
#    x 1.720260 0.000000 -0.018860 
#    y 0.000000 1.678300 0.000000 
#    z -0.018860 0.000000 1.694940 
# 
# From -- ./inp_files/200352.got.cif
#   From: 2010.05.17/outbox.cif.g08.bks.cpg/sg15_101_cif.got.tgz:200352.got - 2010.06.03 18:47:42.
