data_PCOD9294763
_publ_section_title
;
Structure prediction by ZEFSAII (Michael W. Deem and Ramdas Pophale) SiO2 
 PCOD9294763
Probable space group: C 2/C
;
_chemical_formula_sum "Si O2"
_cell_formula_units_Z 36
_cell_length_a 12.287547
_cell_length_b 11.014645
_cell_length_c 11.425079
_cell_angle_alpha 90.000000
_cell_angle_beta 73.572369
_cell_angle_gamma 90.000000
_cell_volume 1483.180418
_symmetry_space_group_name_H-M "C 2/C"
_symmetry_group_IT_number 15
_symmetry_cell_setting 'monoclinic'
loop_
_space_group_symop_operation_xyz
x,y,z
-x,y,1/2-z
-x,-y,-z
x,-y,1/2+z
1/2+x,1/2+y,z
1/2-x,1/2+y,1/2-z
1/2-x,1/2-y,-z
1/2+x,1/2-y,1/2+z
loop_
_atom_site_type_symbol
_atom_site_label
_atom_site_fract_x
_atom_site_fract_y
_atom_site_fract_z
Si Si1 0.091024 0.275988 0.490749
Si Si2 0.364265 0.506582 0.040780
Si Si3 0.000000 0.394794 0.750000
Si Si4 0.808933 0.412008 0.239667
Si Si5 0.596306 0.306487 0.634088
O O1 0.168171 0.372378 0.399131
O O2 0.156686 0.148342 0.469929
O O3 0.049069 0.315554 0.629695
O O4 0.977435 0.260084 0.444600
O O5 0.310359 0.460399 0.177830
O O6 0.500000 0.500000 0.000000
O O7 0.330717 0.411525 0.949050
O O8 0.899459 0.483356 0.739761
O O9 0.837453 0.292731 0.309951
O O10 0.500000 0.359657 0.750000
#
# Coordination Sequence:
#
# PCOD9294763 Si02
#       5
#     8   8   4   8   8
#     4  10  23  43  66 101 132 171 227 273 340 389
#     4  10  23  41  65  99 134 176 215 283 329 396
#     4  12  24  42  70  96 132 174 230 280 326 408
#     4  11  22  43  69  96 131 182 225 270 335 406
#     4   9  19  41  68  95 131 175 225 267 336 400
#
# _framework density 24.272165000000001
#
# number of rings (size 3 to 8) (size 9 to 14) (size 15 to 20)
#    0.000    1.778    3.333    1.333    1.556    4.444 
#   12.000    0.000    0.000    0.000    0.000    0.000 
#    0.000    0.000    0.000    0.000    0.000    0.000 
#
# Total GULP energy -100798.706394 kJ/mol
# GULP energy per Si atom -5599.928133 kJ/mol
# Density = 2.421692 g / cm^3
# Si number density = 24.272165 Si / 1000 Ang^3
#
#
#
# Elastic Constant Matrix: (Units=GPa)
#
#
# Indices 1 2 3 4 5 6 
#
# 1 71.5956 12.1445 34.4494 0.0000 -8.3794 0.0000
# 2 12.1445 96.2066 79.0472 0.0000 -10.8062 0.0000
# 3 34.4494 79.0472 236.8440 0.0000 -22.5283 0.0000
# 4 0.0000 0.0000 0.0000 56.1930 0.0000 -12.2510
# 5 -8.3794 -10.8062 -22.5283 0.0000 44.0330 0.0000
# 6 0.0000 0.0000 0.0000 -12.2510 0.0000 11.2405
#
#
#
# Elastic Compliance Matrix: (Units=1/GPa)
#
#
# Indices 1 2 3 4 5 6 
#
# 1 0.015160 -0.000054 -0.002012 0.000000 0.001842 0.000000
# 2 -0.000054 0.014375 -0.004683 0.000000 0.001122 0.000000
# 3 -0.002012 -0.004683 0.006236 0.000000 0.001658 0.000000
# 4 0.000000 0.000000 0.000000 0.023342 0.000000 0.025441
# 5 0.001842 0.001122 0.001658 0.000000 0.024184 0.000000
# 6 0.000000 0.000000 0.000000 0.025441 0.000000 0.116691
#
#
# Mechanical properties :
#
#
# Convention : Reuss Voigt Hill
#
# Bulk Modulus (GPa) = 44.89732 72.88094 58.88913
# Shear Modulus (GPa) = 22.63358 40.89365 31.76362
#
# Velocity S-wave (km/s) = 3.05698 4.10908 3.62144
# Velocity P-wave (km/s) = 5.56757 7.25289 6.46538
#
# Compressibility (1/GPa) = 0.02227304
#
# Stress axis : x y z
#
# Youngs Moduli (GPa) = 65.96248 69.56554 160.37063
#
# Poissons Ratio (x) = 0.00374 0.32265
# Poissons Ratio (y) = 0.00354 0.75104
# Poissons Ratio (z) = 0.13271 0.32579
#
# Static dielectric constant tensor:
#      x y z
#    x 1.993630 0.000000 0.054940 
#    y 0.000000 1.957960 0.000000 
#    z 0.054940 0.000000 1.919800 
# 
# From -- ./inp_files/94336.got.cif
#   From: 2010.05.17/outbox.cif.g08.bks.cpg/sg15_48_cif.got.tgz:94336.got - 2010.06.03 18:47:42.
