data_PCOD9294260
_publ_section_title
;
Structure prediction by ZEFSAII (Michael W. Deem and Ramdas Pophale) SiO2 
 PCOD9294260
Probable space group: C 2/C
;
_chemical_formula_sum "Si O2"
_cell_formula_units_Z 44
_cell_length_a 18.731999
_cell_length_b 11.201995
_cell_length_c 14.359659
_cell_angle_alpha 90.000000
_cell_angle_beta 133.743830
_cell_angle_gamma 90.000000
_cell_volume 2176.829750
_symmetry_space_group_name_H-M "C 2/C"
_symmetry_group_IT_number 15
_symmetry_cell_setting 'monoclinic'
loop_
_space_group_symop_operation_xyz
x,y,z
-x,y,1/2-z
-x,-y,-z
x,-y,1/2+z
1/2+x,1/2+y,z
1/2-x,1/2+y,1/2-z
1/2-x,1/2-y,-z
1/2+x,1/2-y,1/2+z
loop_
_atom_site_type_symbol
_atom_site_label
_atom_site_fract_x
_atom_site_fract_y
_atom_site_fract_z
Si Si1 0.344896 0.426708 0.358498
Si Si2 0.500000 0.507140 0.250000
Si Si3 0.630820 0.103733 0.595021
Si Si4 0.544989 0.647155 0.972603
Si Si5 0.151844 0.184178 0.443717
Si Si6 0.518023 0.090122 0.871331
O O1 0.247511 0.412657 0.210640
O O2 0.393815 0.557922 0.405027
O O3 0.433619 0.338958 0.409378
O O4 0.319375 0.394099 0.441159
O O5 0.471624 0.423399 0.138448
O O6 0.593875 0.595669 0.321207
O O7 0.600366 0.228126 0.519789
O O8 0.578925 0.104374 0.650911
O O9 0.586494 0.997642 0.493166
O O10 0.250000 0.250000 0.500000
O O11 0.073578 0.284892 0.404457
O O12 0.500000 0.042735 0.750000
#
# Coordination Sequence:
#
# PCOD9294260 Si02
#       6
#     8   4   8   8   8   8
#     4  10  23  39  67  92 126 176 213 267 329 381
#     4  10  24  42  66  98 126 174 216 272 322 386
#     4  11  25  42  67  94 135 173 213 273 329 389
#     4  10  23  44  64  96 134 166 222 270 325 391
#     4  11  22  39  67  95 126 166 221 269 317 388
#     4  11  24  42  64  99 130 169 220 267 326 391
#
# _framework density 20.212882
#
# number of rings (size 3 to 8) (size 9 to 14) (size 15 to 20)
#    0.000    1.455    2.727    1.091    6.364    0.000 
#    0.000    0.909    0.000    0.000    0.000    0.000 
#    0.000    0.000    0.000    0.000    0.000    0.000 
#
# Total GULP energy -122833.310761 kJ/mol
# GULP energy per Si atom -5583.332307 kJ/mol
# Density = 2.016688 g / cm^3
# Si number density = 20.212882 Si / 1000 Ang^3
#
#
#
# Elastic Constant Matrix: (Units=GPa)
#
#
# Indices 1 2 3 4 5 6 
#
# 1 81.7301 23.1176 55.7582 0.0000 6.7414 0.0000
# 2 23.1176 84.8075 62.1625 0.0000 7.6541 0.0000
# 3 55.7582 62.1625 143.1483 0.0000 20.1976 0.0000
# 4 0.0000 0.0000 0.0000 26.6306 0.0000 -3.4889
# 5 6.7414 7.6541 20.1976 0.0000 41.1191 0.0000
# 6 0.0000 0.0000 0.0000 -3.4889 0.0000 20.7162
#
#
#
# Elastic Compliance Matrix: (Units=1/GPa)
#
#
# Indices 1 2 3 4 5 6 
#
# 1 0.016679 0.000326 -0.006709 0.000000 0.000500 0.000000
# 2 0.000326 0.017313 -0.007718 0.000000 0.000515 0.000000
# 3 -0.006709 -0.007718 0.013530 0.000000 -0.004110 0.000000
# 4 0.000000 0.000000 0.000000 0.038398 0.000000 0.006467
# 5 0.000500 0.000515 -0.004110 0.000000 0.026160 0.000000
# 6 0.000000 0.000000 0.000000 0.006467 0.000000 0.049361
#
#
# Mechanical properties :
#
#
# Convention : Reuss Voigt Hill
#
# Bulk Modulus (GPa) = 51.75793 65.75140 58.75466
# Shear Modulus (GPa) = 25.49945 28.93635 27.21790
#
# Velocity S-wave (km/s) = 3.55568 3.78773 3.67353
# Velocity P-wave (km/s) = 6.52067 7.19230 6.86470
#
# Compressibility (1/GPa) = 0.01932071
#
# Stress axis : x y z
#
# Youngs Moduli (GPa) = 59.95636 57.75945 73.90888
#
# Poissons Ratio (x) = -0.01881 0.49583
# Poissons Ratio (y) = -0.01953 0.57041
# Poissons Ratio (z) = 0.40223 0.44578
#
# Static dielectric constant tensor:
#      x y z
#    x 1.749350 0.000000 -0.023240 
#    y 0.000000 1.722310 0.000000 
#    z -0.023240 0.000000 1.718590 
# 
# From -- ./inp_files/110831.got.cif
#   From: 2010.05.17/outbox.cif.g08.bks.cpg/sg15_56_cif.got.tgz:110831.got - 2010.06.03 18:47:42.
