data_PCOD9294296
_publ_section_title
;
Structure prediction by ZEFSAII (Michael W. Deem and Ramdas Pophale) SiO2 
 PCOD9294296
Probable space group: C 2/C
;
_chemical_formula_sum "Si O2"
_cell_formula_units_Z 48
_cell_length_a 8.727207
_cell_length_b 11.835012
_cell_length_c 26.031769
_cell_angle_alpha 90.000000
_cell_angle_beta 138.242870
_cell_angle_gamma 90.000000
_cell_volume 1790.627554
_symmetry_space_group_name_H-M "C 2/C"
_symmetry_group_IT_number 15
_symmetry_cell_setting 'monoclinic'
loop_
_space_group_symop_operation_xyz
x,y,z
-x,y,1/2-z
-x,-y,-z
x,-y,1/2+z
1/2+x,1/2+y,z
1/2-x,1/2+y,1/2-z
1/2-x,1/2-y,-z
1/2+x,1/2-y,1/2+z
loop_
_atom_site_type_symbol
_atom_site_label
_atom_site_fract_x
_atom_site_fract_y
_atom_site_fract_z
Si Si1 0.684084 0.141840 0.044228
Si Si2 0.281002 0.591762 0.515973
Si Si3 0.757824 0.123362 0.825874
Si Si4 0.076601 0.717476 0.622083
Si Si5 0.719802 0.498099 0.774999
Si Si6 0.831256 0.596426 0.128957
O O1 0.484010 0.115871 0.034354
O O2 0.885606 0.226551 0.111314
O O3 0.547565 0.196017 0.962930
O O4 0.803609 0.032325 0.047960
O O5 0.488969 0.667117 0.591684
O O6 0.294087 0.597037 0.457605
O O7 0.500000 0.174425 0.750000
O O8 0.824218 0.058844 0.789794
O O9 0.705702 0.026530 0.855276
O O10 0.171830 0.599181 0.664148
O O11 0.261891 0.810170 0.652687
O O12 0.500000 0.457922 0.750000
O O13 0.897699 0.397412 0.812852
#
# Coordination Sequence:
#
# PCOD9294296 Si02
#       6
#     8   8   8   8   8   8
#     4  10  23  39  73 109 143 181 247 308 370 423
#     4  11  21  44  72 108 143 195 240 309 365 440
#     4  10  23  40  68 104 138 198 235 287 376 442
#     4  11  23  44  69 111 137 186 247 315 356 443
#     4  11  25  46  71 101 151 199 238 301 378 434
#     4  11  24  43  76 107 142 192 252 299 368 441
#
# _framework density 26.806242999999998
#
# number of rings (size 3 to 8) (size 9 to 14) (size 15 to 20)
#    0.000    1.333    3.333    1.500    2.333    4.000 
#    0.000    5.000    0.000    4.000    0.000    0.000 
#    0.000    0.000    0.000    0.000    0.000    0.000 
#
# Total GULP energy -134394.013047 kJ/mol
# GULP energy per Si atom -5599.750544 kJ/mol
# Density = 2.674523 g / cm^3
# Si number density = 26.806243 Si / 1000 Ang^3
#
#
#
# Elastic Constant Matrix: (Units=GPa)
#
#
# Indices 1 2 3 4 5 6 
#
# 1 130.1861 11.8158 49.3556 0.0000 26.6471 0.0000
# 2 11.8158 82.1375 6.0492 0.0000 20.0029 0.0000
# 3 49.3556 6.0492 110.5906 0.0000 3.7653 0.0000
# 4 0.0000 0.0000 0.0000 -1.0933 0.0000 -9.2149
# 5 26.6471 20.0029 3.7653 0.0000 59.6825 0.0000
# 6 0.0000 0.0000 0.0000 -9.2149 0.0000 19.7090
#
#
#
# Elastic Compliance Matrix: (Units=1/GPa)
#
#
# Indices 1 2 3 4 5 6 
#
# 1 0.010237 -0.000111 -0.004418 0.000000 -0.004255 0.000000
# 2 -0.000111 0.013295 -0.000529 0.000000 -0.004373 0.000000
# 3 -0.004418 -0.000529 0.010993 0.000000 0.001456 0.000000
# 4 0.000000 0.000000 0.000000 -0.185124 0.000000 -0.086555
# 5 -0.004255 -0.004373 0.001456 0.000000 0.020029 0.000000
# 6 0.000000 0.000000 0.000000 -0.086555 0.000000 0.010270
#
#
# Mechanical properties :
#
#
# Convention : Reuss Voigt Hill
#
# Bulk Modulus (GPa) = 40.96740 50.81729 45.89234
# Shear Modulus (GPa) = -48.99600 32.70587 -8.14506
#
# Velocity S-wave (km/s) = -4.27990 3.49676 -1.74502
# Velocity P-wave (km/s) = 3.01784 5.94151 3.61899
#
# Compressibility (1/GPa) = 0.02440965
#
# Stress axis : x y z
#
# Youngs Moduli (GPa) = 97.68362 75.21891 90.96424
#
# Poissons Ratio (x) = 0.00836 0.40186
# Poissons Ratio (y) = 0.01086 0.04809
# Poissons Ratio (z) = 0.43155 0.03977
#
# Static dielectric constant tensor:
#      x y z
#    x 2.142910 0.000000 0.091400 
#    y 0.000000 2.178480 0.000000 
#    z 0.091400 0.000000 2.129250 
# 
# From -- ./inp_files/289101.got.cif
#   From: 2010.05.17/outbox.cif.g08.bks.cpg/sg15_145_cif.got.tgz:289101.got - 2010.06.03 18:47:42.
