data_PCOD9294469
_publ_section_title
;
Structure prediction by ZEFSAII (Michael W. Deem and Ramdas Pophale) SiO2 
 PCOD9294469
Probable space group: C 2/C
;
_chemical_formula_sum "Si O2"
_cell_formula_units_Z 40
_cell_length_a 12.062356
_cell_length_b 19.237955
_cell_length_c 8.701253
_cell_angle_alpha 90.000000
_cell_angle_beta 81.027774
_cell_angle_gamma 90.000000
_cell_volume 1994.463355
_symmetry_space_group_name_H-M "C 2/C"
_symmetry_group_IT_number 15
_symmetry_cell_setting 'monoclinic'
loop_
_space_group_symop_operation_xyz
x,y,z
-x,y,1/2-z
-x,-y,-z
x,-y,1/2+z
1/2+x,1/2+y,z
1/2-x,1/2+y,1/2-z
1/2-x,1/2-y,-z
1/2+x,1/2-y,1/2+z
loop_
_atom_site_type_symbol
_atom_site_label
_atom_site_fract_x
_atom_site_fract_y
_atom_site_fract_z
Si Si1 0.000000 0.155260 0.250000
Si Si2 0.404692 0.440449 0.525149
Si Si3 0.349510 0.972818 0.870429
Si Si4 0.500000 0.338281 0.250000
Si Si5 0.877976 0.248956 0.527131
Si Si6 0.562273 0.909511 0.965771
O O1 0.916544 0.104355 0.177938
O O2 0.941807 0.204387 0.385275
O O3 0.500000 0.500000 0.500000
O O4 0.279110 0.469032 0.551438
O O5 0.432868 0.388161 0.380675
O O6 0.432356 0.926802 0.959438
O O7 0.371810 0.944146 0.694151
O O8 0.393900 0.050548 0.893163
O O9 0.588596 0.290497 0.322945
O O10 0.750000 0.250000 0.500000
O O11 0.918118 0.328100 0.530820
#
# Coordination Sequence:
#
# PCOD9294469 Si02
#       6
#     4   8   8   4   8   8
#     4  10  25  42  60 101 122 174 220 256 338 399
#     4  11  24  40  66  96 133 169 222 280 333 393
#     4  10  23  40  66  90 130 161 224 266 330 385
#     4  10  25  42  62 101 126 180 226 262 344 393
#     4  11  24  43  68  92 140 175 223 273 331 409
#     4  10  23  42  63  96 122 173 212 273 328 389
#
# _framework density 20.055519
#
# number of rings (size 3 to 8) (size 9 to 14) (size 15 to 20)
#    0.000    1.600    0.000    3.000   11.200    4.800 
#    0.000    5.000    0.000    0.000    0.000    0.000 
#    0.000    0.000    0.000    0.000    0.000    0.000 
#
# Total GULP energy -111753.764306 kJ/mol
# GULP energy per Si atom -5587.688215 kJ/mol
# Density = 2.000987 g / cm^3
# Si number density = 20.055519 Si / 1000 Ang^3
#
#
#
# Elastic Constant Matrix: (Units=GPa)
#
#
# Indices 1 2 3 4 5 6 
#
# 1 168.4693 62.6083 37.8778 0.0000 -4.5829 0.0000
# 2 62.6083 166.4644 52.9847 0.0000 9.7340 0.0000
# 3 37.8778 52.9847 78.8876 0.0000 16.7400 0.0000
# 4 0.0000 0.0000 0.0000 23.3185 0.0000 2.2121
# 5 -4.5829 9.7340 16.7400 0.0000 22.3663 0.0000
# 6 0.0000 0.0000 0.0000 2.2121 0.0000 17.4864
#
#
#
# Elastic Compliance Matrix: (Units=1/GPa)
#
#
# Indices 1 2 3 4 5 6 
#
# 1 0.007586 -0.002098 -0.003278 0.000000 0.004921 0.000000
# 2 -0.002098 0.008228 -0.004361 0.000000 -0.000747 0.000000
# 3 -0.003278 -0.004361 0.020113 0.000000 -0.013827 0.000000
# 4 0.000000 0.000000 0.000000 0.043405 0.000000 -0.005491
# 5 0.004921 -0.000747 -0.013827 0.000000 0.056393 0.000000
# 6 0.000000 0.000000 0.000000 -0.005491 0.000000 0.057882
#
#
# Mechanical properties :
#
#
# Convention : Reuss Voigt Hill
#
# Bulk Modulus (GPa) = 60.77114 80.08475 70.42794
# Shear Modulus (GPa) = 22.87663 29.99094 26.43379
#
# Velocity S-wave (km/s) = 3.38104 3.87123 3.63441
# Velocity P-wave (km/s) = 6.75345 7.74597 7.26668
#
# Compressibility (1/GPa) = 0.01645518
#
# Stress axis : x y z
#
# Youngs Moduli (GPa) = 131.81905 121.53872 49.71908
#
# Poissons Ratio (x) = 0.25494 0.16297
# Poissons Ratio (y) = 0.27651 0.21680
# Poissons Ratio (z) = 0.43207 0.52997
#
# Static dielectric constant tensor:
#      x y z
#    x 1.702740 0.000000 0.029660 
#    y 0.000000 1.685890 0.000000 
#    z 0.029660 0.000000 1.755310 
# 
# From -- ./inp_files/29121.got.cif
#   From: 2010.05.17/outbox.cif.g08.bks.cpg/sg15_15_cif.got.tgz:29121.got - 2010.06.03 18:47:42.
