data_PCOD9294292
_publ_section_title
;
Structure prediction by ZEFSAII (Michael W. Deem and Ramdas Pophale) SiO2 
 PCOD9294292
Probable space group: C 2/C
;
_chemical_formula_sum "Si O2"
_cell_formula_units_Z 52
_cell_length_a 26.898007
_cell_length_b 11.285466
_cell_length_c 8.824698
_cell_angle_alpha 90.000000
_cell_angle_beta 124.801582
_cell_angle_gamma 90.000000
_cell_volume 2199.648036
_symmetry_space_group_name_H-M "C 2/C"
_symmetry_group_IT_number 15
_symmetry_cell_setting 'monoclinic'
loop_
_space_group_symop_operation_xyz
x,y,z
-x,y,1/2-z
-x,-y,-z
x,-y,1/2+z
1/2+x,1/2+y,z
1/2-x,1/2+y,1/2-z
1/2-x,1/2-y,-z
1/2+x,1/2-y,1/2+z
loop_
_atom_site_type_symbol
_atom_site_label
_atom_site_fract_x
_atom_site_fract_y
_atom_site_fract_z
Si Si1 0.000000 0.804708 0.250000
Si Si2 0.637477 0.979876 0.366924
Si Si3 0.182834 0.110823 0.741061
Si Si4 0.110533 0.655141 0.091187
Si Si5 0.017838 0.363951 0.064816
Si Si6 0.138260 0.873765 0.504387
Si Si7 0.714673 0.175606 0.809064
O O1 0.013646 0.720613 0.415141
O O2 0.065446 0.869505 0.342413
O O3 0.635652 0.957295 0.541495
O O4 0.586162 0.882051 0.234109
O O5 0.695466 0.935095 0.380739
O O6 0.618654 0.109467 0.278371
O O7 0.146542 0.227285 0.622486
O O8 0.175529 0.116596 0.910444
O O9 0.246768 0.128754 0.767766
O O10 0.152998 0.990888 0.627482
O O11 0.040059 0.675326 0.938794
O O12 0.000000 0.500000 0.000000
O O13 0.164045 0.762269 0.646151
O O14 0.750000 0.250000 0.000000
#
# Coordination Sequence:
#
# PCOD9294292 Si02
#       7
#     4   8   8   8   8   8   8
#     4  12  24  50  76 112 152 204 258 322 392 456
#     4  11  25  42  73 106 146 191 242 312 382 440
#     4  12  28  49  73 108 155 204 257 308 380 460
#     4  11  25  44  73 110 145 191 246 313 383 452
#     4  10  23  39  71 107 149 179 244 313 382 450
#     4  12  29  52  77 111 156 207 263 319 383 461
#     4  12  26  49  76 108 153 197 254 315 380 461
#
# _framework density 23.640145
#
# number of rings (size 3 to 8) (size 9 to 14) (size 15 to 20)
#    0.000    0.615    4.615    1.846   12.923    1.846 
#    2.769    0.000    0.000    0.000    0.000    0.000 
#    0.000    0.000    0.000    0.000    0.000    0.000 
#
# Total GULP energy -145189.192587 kJ/mol
# GULP energy per Si atom -5584.199715 kJ/mol
# Density = 2.358634 g / cm^3
# Si number density = 23.640145 Si / 1000 Ang^3
#
#
#
# Elastic Constant Matrix: (Units=GPa)
#
#
# Indices 1 2 3 4 5 6 
#
# 1 112.9033 3.7241 3.8683 0.0000 -15.0617 0.0000
# 2 3.7241 52.8692 6.9832 0.0000 0.5619 0.0000
# 3 3.8683 6.9832 81.7695 0.0000 -6.0312 0.0000
# 4 0.0000 0.0000 0.0000 41.8956 0.0000 -8.5945
# 5 -15.0617 0.5619 -6.0312 0.0000 39.0780 0.0000
# 6 0.0000 0.0000 0.0000 -8.5945 0.0000 31.9109
#
#
#
# Elastic Compliance Matrix: (Units=1/GPa)
#
#
# Indices 1 2 3 4 5 6 
#
# 1 0.009364 -0.000682 -0.000119 0.000000 0.003601 0.000000
# 2 -0.000682 0.019191 -0.001665 0.000000 -0.000796 0.000000
# 3 -0.000119 -0.001665 0.012518 0.000000 0.001910 0.000000
# 4 0.000000 0.000000 0.000000 0.025265 0.000000 0.006804
# 5 0.003601 -0.000796 0.001910 0.000000 0.027284 0.000000
# 6 0.000000 0.000000 0.000000 0.006804 0.000000 0.033170
#
#
# Mechanical properties :
#
#
# Convention : Reuss Voigt Hill
#
# Bulk Modulus (GPa) = 27.67014 30.74369 29.20691
# Shear Modulus (GPa) = 34.77733 38.10800 36.44266
#
# Velocity S-wave (km/s) = 3.83967 4.01933 3.93053
# Velocity P-wave (km/s) = 5.60246 5.87989 5.74285
#
# Compressibility (1/GPa) = 0.03614004
#
# Stress axis : x y z
#
# Youngs Moduli (GPa) = 106.79148 52.10750 79.88338
#
# Poissons Ratio (x) = 0.03554 0.00952
# Poissons Ratio (y) = 0.07285 0.13304
# Poissons Ratio (z) = 0.01273 0.08678
#
# Static dielectric constant tensor:
#      x y z
#    x 1.935970 0.000000 -0.028900 
#    y 0.000000 1.828360 0.000000 
#    z -0.028900 0.000000 1.930590 
# 
# From -- ./inp_files/65613.got.cif
#   From: 2010.05.17/outbox.cif.g08.bks.cpg/sg15_33_cif.got.tgz:65613.got - 2010.06.03 18:47:42.
