data_PCOD9294226
_publ_section_title
;
Structure prediction by ZEFSAII (Michael W. Deem and Ramdas Pophale) SiO2 
 PCOD9294226
Probable space group: C 2/C
;
_chemical_formula_sum "Si O2"
_cell_formula_units_Z 48
_cell_length_a 5.839489
_cell_length_b 13.466628
_cell_length_c 29.787132
_cell_angle_alpha 90.000000
_cell_angle_beta 57.972175
_cell_angle_gamma 90.000000
_cell_volume 1985.870934
_symmetry_space_group_name_H-M "C 2/C"
_symmetry_group_IT_number 15
_symmetry_cell_setting 'monoclinic'
loop_
_space_group_symop_operation_xyz
x,y,z
-x,y,1/2-z
-x,-y,-z
x,-y,1/2+z
1/2+x,1/2+y,z
1/2-x,1/2+y,1/2-z
1/2-x,1/2-y,-z
1/2+x,1/2-y,1/2+z
loop_
_atom_site_type_symbol
_atom_site_label
_atom_site_fract_x
_atom_site_fract_y
_atom_site_fract_z
Si Si1 0.142790 0.934985 0.579122
Si Si2 0.168673 0.229606 0.436527
Si Si3 0.694965 0.766795 0.823648
Si Si4 0.239292 0.598961 0.990417
Si Si5 0.445947 0.555011 0.196824
Si Si6 0.500000 0.217008 0.250000
Si Si7 0.000000 0.606176 0.750000
O O1 0.465758 0.934281 0.543221
O O2 0.017880 0.827224 0.580081
O O3 0.047188 0.973428 0.636948
O O4 0.068731 0.012746 0.547696
O O5 0.475362 0.228284 0.385480
O O6 0.134246 0.341513 0.457115
O O7 0.123598 0.170189 0.487742
O O8 0.560187 0.733130 0.790852
O O9 0.921781 0.679669 0.800086
O O10 0.809070 0.880225 0.806115
O O11 0.242233 0.645211 0.211664
O O12 0.255012 0.466528 0.234672
#
# Coordination Sequence:
#
# PCOD9294226 Si02
#       7
#     8   8   8   8   8   4   4
#     4  11  21  41  67  95 135 173 218 272 336 397
#     4  11  22  40  68  94 133 176 217 275 337 396
#     4  12  23  46  71  98 141 180 226 289 342 402
#     4  10  23  39  65 101 131 169 225 271 326 409
#     4  11  23  44  69  99 137 181 225 280 345 403
#     4  11  22  44  69  92 132 179 222 280 337 388
#     4  11  26  44  71 102 132 179 238 278 339 408
#
# _framework density 24.170755
#
# number of rings (size 3 to 8) (size 9 to 14) (size 15 to 20)
#    0.000    1.000    5.000    2.000    0.000    0.000 
#    6.000    0.000    0.000    0.000    0.000    0.000 
#    0.000    0.000    0.000    0.000    0.000    0.000 
#
# Total GULP energy -133732.429727 kJ/mol
# GULP energy per Si atom -5572.184572 kJ/mol
# Density = 2.411574 g / cm^3
# Si number density = 24.170755 Si / 1000 Ang^3
#
#
#
# Elastic Constant Matrix: (Units=GPa)
#
#
# Indices 1 2 3 4 5 6 
#
# 1 39.1853 21.7213 14.6187 -0.0010 2.8630 0.0005
# 2 21.7213 131.1647 28.6123 -0.0002 -4.7620 0.0000
# 3 14.6187 28.6123 125.7925 -0.0012 -10.4524 0.0008
# 4 -0.0010 -0.0002 -0.0012 37.3460 0.0010 -3.4750
# 5 2.8630 -4.7620 -10.4524 0.0010 28.4125 -0.0006
# 6 0.0005 0.0000 0.0008 -3.4750 -0.0006 30.0282
#
#
#
# Elastic Compliance Matrix: (Units=1/GPa)
#
#
# Indices 1 2 3 4 5 6 
#
# 1 0.029362 -0.004424 -0.002799 0.000001 -0.004730 0.000000
# 2 -0.004424 0.008702 -0.001348 0.000000 0.001408 0.000000
# 3 -0.002799 -0.001348 0.008857 0.000000 0.003314 0.000000
# 4 0.000001 0.000000 0.000000 0.027068 -0.000001 0.003132
# 5 -0.004730 0.001408 0.003314 -0.000001 0.037128 0.000001
# 6 0.000000 0.000000 0.000000 0.003132 0.000001 0.033665
#
#
# Mechanical properties :
#
#
# Convention : Reuss Voigt Hill
#
# Bulk Modulus (GPa) = 33.58091 47.33859 40.45975
# Shear Modulus (GPa) = 29.09540 34.57002 31.83271
#
# Velocity S-wave (km/s) = 3.47327 3.78596 3.63298
# Velocity P-wave (km/s) = 5.47797 6.22406 5.86289
#
# Compressibility (1/GPa) = 0.02977882
#
# Stress axis : x y z
#
# Youngs Moduli (GPa) = 34.05804 114.91917 112.90578
#
# Poissons Ratio (x) = 0.50835 0.31603
# Poissons Ratio (y) = 0.15066 0.15222
# Poissons Ratio (z) = 0.09533 0.15493
#
# Static dielectric constant tensor:
#      x y z
#    x 2.130910 0.000000 0.011490 
#    y 0.000000 2.008050 0.000000 
#    z 0.011490 0.000000 1.950110 
# 
# From -- ./inp_files/305318.got.cif
#   From: 2010.05.17/outbox.cif.g08.bks.cpg/sg15_153_cif.got.tgz:305318.got - 2010.06.03 18:47:42.
