data_PCOD9294111
_publ_section_title
;
Structure prediction by ZEFSAII (Michael W. Deem and Ramdas Pophale) SiO2 
 PCOD9294111
Probable space group: C 2/C
;
_chemical_formula_sum "Si O2"
_cell_formula_units_Z 60
_cell_length_a 24.709183
_cell_length_b 5.637317
_cell_length_c 21.264177
_cell_angle_alpha 90.000000
_cell_angle_beta 96.234057
_cell_angle_gamma 90.000000
_cell_volume 2944.446298
_symmetry_space_group_name_H-M "C 2/C"
_symmetry_group_IT_number 15
_symmetry_cell_setting 'monoclinic'
loop_
_space_group_symop_operation_xyz
x,y,z
-x,y,1/2-z
-x,-y,-z
x,-y,1/2+z
1/2+x,1/2+y,z
1/2-x,1/2+y,1/2-z
1/2-x,1/2-y,-z
1/2+x,1/2-y,1/2+z
loop_
_atom_site_type_symbol
_atom_site_label
_atom_site_fract_x
_atom_site_fract_y
_atom_site_fract_z
Si Si1 0.544489 0.049244 0.832013
Si Si2 0.775515 0.679877 0.403656
Si Si3 0.320857 0.143684 0.817879
Si Si4 0.500000 0.333087 0.250000
Si Si5 0.065231 0.785453 0.706448
Si Si6 0.285326 0.027645 0.182588
Si Si7 0.815314 0.966401 0.516427
Si Si8 0.860068 0.453946 0.571007
O O1 0.545545 0.810856 0.792245
O O2 0.578753 0.010459 0.898411
O O3 0.568318 0.233201 0.782792
O O4 0.480005 0.107138 0.828236
O O5 0.822189 0.526263 0.378262
O O6 0.796093 0.912434 0.443188
O O7 0.739070 0.527147 0.447247
O O8 0.737667 0.771177 0.342108
O O9 0.315076 0.994941 0.752673
O O10 0.376636 0.284992 0.817311
O O11 0.266330 0.300066 0.817142
O O12 0.467411 0.472585 0.298928
O O13 0.325916 0.091191 0.131094
O O14 0.840669 0.707170 0.539170
O O15 0.848972 0.209407 0.530987
#
# Coordination Sequence:
#
# PCOD9294111 Si02
#       8
#     8   8   8   4   8   8   8   8
#     4   9  19  35  57  83 116 152 205 251 296 358
#     4  10  23  39  55  84 125 158 203 240 300 368
#     4  12  21  36  54  87 131 154 195 237 319 376
#     4   8  18  32  52  80 114 152 196 238 312 350
#     4   9  20  33  53  85 118 160 189 247 310 368
#     4  11  23  33  57  91 119 160 189 245 309 368
#     4  10  24  39  63  86 118 164 209 254 288 344
#     4  11  22  39  64  90 117 154 210 256 293 349
#
# _framework density 20.377344000000001
#
# number of rings (size 3 to 8) (size 9 to 14) (size 15 to 20)
#    0.000    2.133    4.000    0.000    5.600    4.800 
#    0.000    0.000    0.000    1.600    0.000    0.000 
#    0.000    0.000    0.000    0.000    0.000    0.000 
#
# Total GULP energy -167102.284788 kJ/mol
# GULP energy per Si atom -5570.076160 kJ/mol
# Density = 2.033096 g / cm^3
# Si number density = 20.377344 Si / 1000 Ang^3
#
#
#
# Elastic Constant Matrix: (Units=GPa)
#
#
# Indices 1 2 3 4 5 6 
#
# 1 50.6367 4.6917 7.4171 0.0000 9.7608 0.0000
# 2 4.6917 64.3960 13.2459 0.0000 6.3455 0.0000
# 3 7.4171 13.2459 59.6183 0.0000 9.7725 0.0000
# 4 0.0000 0.0000 0.0000 17.2672 0.0000 2.4892
# 5 9.7608 6.3455 9.7725 0.0000 27.6910 0.0000
# 6 0.0000 0.0000 0.0000 2.4892 0.0000 6.8789
#
#
#
# Elastic Compliance Matrix: (Units=1/GPa)
#
#
# Indices 1 2 3 4 5 6 
#
# 1 0.021336 -0.000589 -0.001394 0.000000 -0.006894 0.000000
# 2 -0.000589 0.016468 -0.003185 0.000000 -0.002442 0.000000
# 3 -0.001394 -0.003185 0.018526 0.000000 -0.005317 0.000000
# 4 0.000000 0.000000 0.000000 0.061101 0.000000 -0.022110
# 5 -0.006894 -0.002442 -0.005317 0.000000 0.040979 0.000000
# 6 0.000000 0.000000 0.000000 -0.022110 0.000000 0.153372
#
#
# Mechanical properties :
#
#
# Convention : Reuss Voigt Hill
#
# Bulk Modulus (GPa) = 21.74146 25.04004 23.39075
# Shear Modulus (GPa) = 14.81710 20.32052 17.56881
#
# Velocity S-wave (km/s) = 2.69947 3.16129 2.93946
# Velocity P-wave (km/s) = 4.51761 5.06358 4.79837
#
# Compressibility (1/GPa) = 0.04599507
#
# Stress axis : x y z
#
# Youngs Moduli (GPa) = 46.86895 60.72523 53.97823
#
# Poissons Ratio (x) = 0.03574 0.07522
# Poissons Ratio (y) = 0.02758 0.17193
# Poissons Ratio (z) = 0.06532 0.19342
#
# Static dielectric constant tensor:
#      x y z
#    x 1.725850 0.000000 0.030750 
#    y 0.000000 1.822570 0.000000 
#    z 0.030750 0.000000 1.769900 
# 
# From -- ./inp_files/256579.got.cif
#   From: 2010.05.17/outbox.cif.g08.bks.cpg/sg15_129_cif.got.tgz:256579.got - 2010.06.03 18:47:42.
