data_PCOD9294120
_publ_section_title
;
Structure prediction by ZEFSAII (Michael W. Deem and Ramdas Pophale) SiO2 
 PCOD9294120
Probable space group: C 2/C
;
_chemical_formula_sum "Si O2"
_cell_formula_units_Z 40
_cell_length_a 34.159894
_cell_length_b 10.553666
_cell_length_c 12.971477
_cell_angle_alpha 90.000000
_cell_angle_beta 159.385540
_cell_angle_gamma 90.000000
_cell_volume 1646.448020
_symmetry_space_group_name_H-M "C 2/C"
_symmetry_group_IT_number 15
_symmetry_cell_setting 'monoclinic'
loop_
_space_group_symop_operation_xyz
x,y,z
-x,y,1/2-z
-x,-y,-z
x,-y,1/2+z
1/2+x,1/2+y,z
1/2-x,1/2+y,1/2-z
1/2-x,1/2-y,-z
1/2+x,1/2-y,1/2+z
loop_
_atom_site_type_symbol
_atom_site_label
_atom_site_fract_x
_atom_site_fract_y
_atom_site_fract_z
Si Si1 0.542142 0.637495 0.136849
Si Si2 0.388089 0.213526 0.400388
Si Si3 0.868334 0.549904 0.936902
Si Si4 0.617939 0.683045 0.100035
Si Si5 0.218066 0.065406 0.749573
O O1 0.592877 0.693904 0.158457
O O2 0.628048 0.601784 0.439123
O O3 0.500000 0.500000 0.000000
O O4 0.444760 0.729754 0.937707
O O5 0.295377 0.312383 0.211256
O O6 0.339872 0.072455 0.297784
O O7 0.500000 0.214124 0.750000
O O8 0.000000 0.560230 0.250000
O O9 0.825961 0.686609 0.797036
O O10 0.828531 0.535662 0.956638
O O11 0.684217 0.558664 0.229468
O O12 0.500000 0.669203 0.750000
#
# Coordination Sequence:
#
# PCOD9294120 Si02
#       5
#     8   8   8   8   8
#     4  11  20  37  64  91 114 147 200 241 285 349
#     4   9  19  38  61  86 119 153 187 236 292 347
#     4  10  23  39  58  87 122 156 192 240 293 336
#     4  11  21  38  63  89 116 149 195 249 288 340
#     4  11  20  38  64  86 115 158 196 233 289 349
#
# _framework density 24.294723999999999
#
# number of rings (size 3 to 8) (size 9 to 14) (size 15 to 20)
#    0.000    1.600    4.000    1.800    0.000    1.600 
#    0.000    5.000    0.000    0.000    0.000    0.000 
#    0.000    0.000    0.000    0.000    0.000    0.000 
#
# Total GULP energy -111851.108056 kJ/mol
# GULP energy per Si atom -5592.555403 kJ/mol
# Density = 2.423943 g / cm^3
# Si number density = 24.294724 Si / 1000 Ang^3
#
#
#
# Elastic Constant Matrix: (Units=GPa)
#
#
# Indices 1 2 3 4 5 6 
#
# 1 162.4692 66.1039 30.2908 0.0000 27.0311 0.0000
# 2 66.1039 208.6029 13.2740 0.0000 20.0035 0.0000
# 3 30.2908 13.2740 84.7801 0.0000 11.7033 0.0000
# 4 0.0000 0.0000 0.0000 14.4927 0.0000 8.4764
# 5 27.0311 20.0035 11.7033 0.0000 39.9135 0.0000
# 6 0.0000 0.0000 0.0000 8.4764 0.0000 29.8583
#
#
#
# Elastic Compliance Matrix: (Units=1/GPa)
#
#
# Indices 1 2 3 4 5 6 
#
# 1 0.007992 -0.002040 -0.002012 0.000000 -0.003801 0.000000
# 2 -0.002040 0.005574 0.000053 0.000000 -0.001427 0.000000
# 3 -0.002012 0.000053 0.012841 0.000000 -0.002430 0.000000
# 4 0.000000 0.000000 0.000000 0.082738 0.000000 -0.023488
# 5 -0.003801 -0.001427 -0.002430 0.000000 0.029056 0.000000
# 6 0.000000 0.000000 0.000000 -0.023488 0.000000 0.040160
#
#
# Mechanical properties :
#
#
# Convention : Reuss Voigt Hill
#
# Bulk Modulus (GPa) = 54.31765 75.02108 64.66937
# Shear Modulus (GPa) = 25.97479 39.93181 32.95330
#
# Velocity S-wave (km/s) = 3.27334 4.05858 3.68693
# Velocity P-wave (km/s) = 6.05745 7.27389 6.69336
#
# Compressibility (1/GPa) = 0.01841022
#
# Stress axis : x y z
#
# Youngs Moduli (GPa) = 125.11736 179.41030 77.87587
#
# Poissons Ratio (x) = 0.36605 0.15665
# Poissons Ratio (y) = 0.25528 -0.00415
# Poissons Ratio (z) = 0.25168 -0.00956
#
# Static dielectric constant tensor:
#      x y z
#    x 2.318230 0.000000 0.095360 
#    y 0.000000 2.194790 0.000000 
#    z 0.095360 0.000000 2.111720 
# 
# From -- ./inp_files/94685.got.cif
#   From: 2010.05.17/outbox.cif.g08.bks.cpg/sg15_48_cif.got.tgz:94685.got - 2010.06.03 18:47:42.
