data_PCOD9294698
_publ_section_title
;
Structure prediction by ZEFSAII (Michael W. Deem and Ramdas Pophale) SiO2 
 PCOD9294698
Probable space group: C 2/C
;
_chemical_formula_sum "Si O2"
_cell_formula_units_Z 60
_cell_length_a 11.989302
_cell_length_b 25.521239
_cell_length_c 16.495234
_cell_angle_alpha 90.000000
_cell_angle_beta 40.171469
_cell_angle_gamma 90.000000
_cell_volume 3255.861132
_symmetry_space_group_name_H-M "C 2/C"
_symmetry_group_IT_number 15
_symmetry_cell_setting 'monoclinic'
loop_
_space_group_symop_operation_xyz
x,y,z
-x,y,1/2-z
-x,-y,-z
x,-y,1/2+z
1/2+x,1/2+y,z
1/2-x,1/2+y,1/2-z
1/2-x,1/2-y,-z
1/2+x,1/2-y,1/2+z
loop_
_atom_site_type_symbol
_atom_site_label
_atom_site_fract_x
_atom_site_fract_y
_atom_site_fract_z
Si Si1 0.492307 0.247070 0.513351
Si Si2 0.007368 0.352437 0.379603
Si Si3 0.014198 0.952908 0.929597
Si Si4 0.500000 0.543666 0.250000
Si Si5 0.606155 0.223518 0.269610
Si Si6 0.285926 0.649628 0.593347
Si Si7 0.391664 0.097846 0.231438
Si Si8 0.084400 0.557634 0.455218
O O1 0.543009 0.193052 0.529034
O O2 0.519549 0.240748 0.401946
O O3 0.297532 0.255352 0.650512
O O4 0.597509 0.298661 0.481371
O O5 0.863494 0.349618 0.390346
O O6 0.000127 0.407938 0.427687
O O7 0.191654 0.346677 0.232812
O O8 0.982857 0.973632 0.854682
O O9 0.204740 0.928737 0.834214
O O10 0.888462 0.904397 0.021741
O O11 0.000000 0.000000 0.000000
O O12 0.294753 0.562907 0.352601
O O13 0.500000 0.240862 0.250000
O O14 0.619641 0.160545 0.260599
O O15 0.500000 0.080809 0.250000
O O16 0.467514 0.082031 0.102569
O O17 0.000000 0.500000 0.500000
#
# Coordination Sequence:
#
# PCOD9294698 Si02
#       8
#     8   8   8   4   8   8   8   8
#     4  12  22  44  66  94 132 168 218 268 336 394
#     4  11  24  42  64  96 128 167 214 271 326 386
#     4  11  24  43  68  94 131 171 218 274 328 390
#     4  10  24  46  66  98 124 184 224 268 340 390
#     4  11  23  41  66  91 129 171 220 266 322 393
#     4  11  24  42  64  96 128 167 214 271 326 386
#     4  10  23  41  64  92 124 173 217 257 318 396
#     4  11  24  43  68  94 131 171 218 274 328 390
#
# _framework density 18.428304000000001
#
# number of rings (size 3 to 8) (size 9 to 14) (size 15 to 20)
#    0.000    1.067    5.333    0.800    5.600    0.000 
#    0.000    0.000    2.933    0.000    0.000    0.000 
#    0.000    0.000    0.000    0.000    0.000    0.000 
#
# Total GULP energy -167033.233432 kJ/mol
# GULP energy per Si atom -5567.774448 kJ/mol
# Density = 1.838636 g / cm^3
# Si number density = 18.428304 Si / 1000 Ang^3
#
#
#
# Elastic Constant Matrix: (Units=GPa)
#
#
# Indices 1 2 3 4 5 6 
#
# 1 107.2589 22.4132 22.3998 0.0004 26.9896 0.0000
# 2 22.4132 90.7072 17.3188 0.0003 12.2819 0.0000
# 3 22.3998 17.3188 76.1039 0.0012 24.0574 0.0001
# 4 0.0004 0.0003 0.0012 20.2151 -0.0003 12.3709
# 5 26.9896 12.2819 24.0574 -0.0003 36.2080 0.0000
# 6 0.0000 0.0000 0.0001 12.3709 0.0000 17.2764
#
#
#
# Elastic Compliance Matrix: (Units=1/GPa)
#
#
# Indices 1 2 3 4 5 6 
#
# 1 0.011772 -0.001739 -0.000610 0.000000 -0.007780 0.000000
# 2 -0.001739 0.012001 -0.001699 0.000000 -0.001646 0.000000
# 3 -0.000610 -0.001699 0.016938 -0.000002 -0.010223 0.000001
# 4 0.000000 0.000000 -0.000002 0.088053 0.000002 -0.063051
# 5 -0.007780 -0.001646 -0.010223 0.000002 0.040768 -0.000002
# 6 0.000000 0.000000 0.000001 -0.063051 -0.000002 0.103030
#
#
# Mechanical properties :
#
#
# Convention : Reuss Voigt Hill
#
# Bulk Modulus (GPa) = 30.66065 44.25927 37.45996
# Shear Modulus (GPa) = 17.15098 28.86910 23.01004
#
# Velocity S-wave (km/s) = 3.05403 3.96228 3.53742
# Velocity P-wave (km/s) = 5.39537 6.70835 6.08737
#
# Compressibility (1/GPa) = 0.03261509
#
# Stress axis : x y z
#
# Youngs Moduli (GPa) = 84.95080 83.32357 59.04008
#
# Poissons Ratio (x) = 0.14489 0.03600
# Poissons Ratio (y) = 0.14772 0.10031
# Poissons Ratio (z) = 0.05180 0.14157
#
# Static dielectric constant tensor:
#      x y z
#    x 1.626490 0.000000 -0.000950 
#    y 0.000000 1.628270 0.000000 
#    z -0.000950 0.000000 1.659870 
# 
# From -- ./inp_files/200928.got.cif
#   From: 2010.05.17/outbox.cif.g08.bks.cpg/sg15_101_cif.got.tgz:200928.got - 2010.06.03 18:47:42.
