data_PCOD9294885
_publ_section_title
;
Structure prediction by ZEFSAII (Michael W. Deem and Ramdas Pophale) SiO2 
 PCOD9294885
Probable space group: C 2/C
;
_chemical_formula_sum "Si O2"
_cell_formula_units_Z 52
_cell_length_a 5.371047
_cell_length_b 15.209810
_cell_length_c 31.092603
_cell_angle_alpha 90.000000
_cell_angle_beta 75.604100
_cell_angle_gamma 90.000000
_cell_volume 2460.281019
_symmetry_space_group_name_H-M "C 2/C"
_symmetry_group_IT_number 15
_symmetry_cell_setting 'monoclinic'
loop_
_space_group_symop_operation_xyz
x,y,z
-x,y,1/2-z
-x,-y,-z
x,-y,1/2+z
1/2+x,1/2+y,z
1/2-x,1/2+y,1/2-z
1/2-x,1/2-y,-z
1/2+x,1/2-y,1/2+z
loop_
_atom_site_type_symbol
_atom_site_label
_atom_site_fract_x
_atom_site_fract_y
_atom_site_fract_z
Si Si1 0.247095 0.557268 0.003042
Si Si2 0.087515 0.813925 0.832336
Si Si3 0.629406 0.848374 0.597267
Si Si4 0.021611 0.374632 0.143277
Si Si5 0.077649 0.850860 0.090233
Si Si6 0.500000 0.149982 0.250000
Si Si7 0.716669 0.951306 0.818683
O O1 0.320264 0.620411 0.960470
O O2 0.500000 0.500000 0.000000
O O3 0.188655 0.605857 0.050129
O O4 0.000000 0.500000 0.000000
O O5 0.133425 0.829184 0.880952
O O6 0.334823 0.796135 0.791688
O O7 0.943742 0.720510 0.835359
O O8 0.988492 0.908523 0.819922
O O9 0.515781 0.752608 0.592517
O O10 0.451178 0.906911 0.635696
O O11 0.310148 0.399137 0.114924
O O12 0.813184 0.365844 0.113392
O O13 0.879525 0.448877 0.177537
O O14 0.335784 0.089997 0.225261
#
# Coordination Sequence:
#
# PCOD9294885 Si02
#       7
#     8   8   8   8   8   4   8
#     4  12  26  40  63 102 137 180 235 284 332 406
#     4  10  23  46  67  98 135 178 227 282 350 415
#     4  10  23  41  68  92 137 184 221 283 345 399
#     4  11  25  43  73 101 135 183 228 281 341 414
#     4  11  23  45  64 101 137 180 235 278 340 407
#     4  10  24  44  66 100 132 174 220 284 346 416
#     4  11  22  44  69  96 137 175 229 278 351 412
#
# _framework density 21.135795999999999
#
# number of rings (size 3 to 8) (size 9 to 14) (size 15 to 20)
#    0.000    1.231    1.538    3.692    8.615    0.000 
#    5.538    3.846    0.000    0.000    0.000    0.000 
#    0.000    0.000    0.000    0.000    0.000    0.000 
#
# Total GULP energy -144890.828656 kJ/mol
# GULP energy per Si atom -5572.724179 kJ/mol
# Density = 2.108769 g / cm^3
# Si number density = 21.135796 Si / 1000 Ang^3
#
#
#
# Elastic Constant Matrix: (Units=GPa)
#
#
# Indices 1 2 3 4 5 6 
#
# 1 89.7085 19.6588 28.5848 0.0000 -5.4193 0.0000
# 2 19.6588 72.0403 30.1355 0.0000 -5.3517 0.0000
# 3 28.5848 30.1355 106.2682 0.0000 5.7906 0.0000
# 4 0.0000 0.0000 0.0000 9.0798 0.0000 -11.9228
# 5 -5.4193 -5.3517 5.7906 0.0000 24.7251 0.0000
# 6 0.0000 0.0000 0.0000 -11.9228 0.0000 24.4923
#
#
#
# Elastic Compliance Matrix: (Units=1/GPa)
#
#
# Indices 1 2 3 4 5 6 
#
# 1 0.012732 -0.001978 -0.003031 0.000000 0.003072 0.000000
# 2 -0.001978 0.016570 -0.004395 0.000000 0.004182 0.000000
# 3 -0.003031 -0.004395 0.011709 0.000000 -0.004358 0.000000
# 4 0.000000 0.000000 0.000000 0.305265 0.000000 0.148602
# 5 0.003072 0.004182 -0.004358 0.000000 0.043044 0.000000
# 6 0.000000 0.000000 0.000000 0.148602 0.000000 0.113168
#
#
# Mechanical properties :
#
#
# Convention : Reuss Voigt Hill
#
# Bulk Modulus (GPa) = 45.03860 47.19723 46.11791
# Shear Modulus (GPa) = 9.45720 24.30198 16.87959
#
# Velocity S-wave (km/s) = 2.11760 3.39455 2.82906
# Velocity P-wave (km/s) = 5.22823 6.14353 5.70427
#
# Compressibility (1/GPa) = 0.02220318
#
# Stress axis : x y z
#
# Youngs Moduli (GPa) = 78.54107 60.35009 85.40274
#
# Poissons Ratio (x) = 0.11938 0.25888
# Poissons Ratio (y) = 0.15537 0.37532
# Poissons Ratio (z) = 0.23808 0.26522
#
# Static dielectric constant tensor:
#      x y z
#    x 1.933670 0.000000 -0.052630 
#    y 0.000000 1.811520 0.000000 
#    z -0.052630 0.000000 1.743650 
# 
# From -- ./inp_files/305327.got.cif
#   From: 2010.05.17/outbox.cif.g08.bks.cpg/sg15_153_cif.got.tgz:305327.got - 2010.06.03 18:47:42.
