data_PCOD9294563
_publ_section_title
;
Structure prediction by ZEFSAII (Michael W. Deem and Ramdas Pophale) SiO2 
 PCOD9294563
Probable space group: C 2/C
;
_chemical_formula_sum "Si O2"
_cell_formula_units_Z 48
_cell_length_a 29.320650
_cell_length_b 5.356966
_cell_length_c 13.250476
_cell_angle_alpha 90.000000
_cell_angle_beta 110.792332
_cell_angle_gamma 90.000000
_cell_volume 1945.703545
_symmetry_space_group_name_H-M "C 2/C"
_symmetry_group_IT_number 15
_symmetry_cell_setting 'monoclinic'
loop_
_space_group_symop_operation_xyz
x,y,z
-x,y,1/2-z
-x,-y,-z
x,-y,1/2+z
1/2+x,1/2+y,z
1/2-x,1/2+y,1/2-z
1/2-x,1/2-y,-z
1/2+x,1/2-y,1/2+z
loop_
_atom_site_type_symbol
_atom_site_label
_atom_site_fract_x
_atom_site_fract_y
_atom_site_fract_z
Si Si1 0.949862 0.291200 0.483424
Si Si2 0.368566 0.893599 0.975800
Si Si3 0.894307 0.002950 0.619858
Si Si4 0.305824 0.234911 0.070234
Si Si5 0.217537 0.280056 0.729919
Si Si6 0.030559 0.890754 0.172442
O O1 0.910528 0.507336 0.433720
O O2 0.917279 0.129962 0.538103
O O3 0.963609 0.121009 0.399539
O O4 0.000079 0.321116 0.587934
O O5 0.327829 0.738403 0.882088
O O6 0.401362 0.781658 0.093379
O O7 0.334175 0.085605 0.007102
O O8 0.836231 0.010467 0.590956
O O9 0.917187 0.136236 0.734276
O O10 0.306601 0.135614 0.183780
O O11 0.250000 0.250000 0.000000
O O12 0.252968 0.517630 0.731905
O O13 0.000000 0.956088 0.250000
#
# Coordination Sequence:
#
# PCOD9294563 Si02
#       6
#     8   8   8   8   8   8
#     4   9  21  43  65  98 137 179 234 301 364 439
#     4  11  25  42  69 104 140 189 251 297 369 436
#     4  10  23  40  69  98 136 187 239 302 359 437
#     4  11  24  45  65  98 145 193 236 303 359 437
#     4  12  28  45  73 109 150 200 248 305 365 432
#     4   9  19  42  68  95 139 185 229 302 369 436
#
# _framework density 24.669737999999999
#
# number of rings (size 3 to 8) (size 9 to 14) (size 15 to 20)
#    0.000    1.667    1.667    1.000    9.333    1.333 
#    0.000   20.000    0.000    0.000    0.000    0.000 
#    0.000    0.000    0.000    0.000    0.000    0.000 
#
# Total GULP energy -133635.258672 kJ/mol
# GULP energy per Si atom -5568.135778 kJ/mol
# Density = 2.461359 g / cm^3
# Si number density = 24.669738 Si / 1000 Ang^3
#
#
#
# Elastic Constant Matrix: (Units=GPa)
#
#
# Indices 1 2 3 4 5 6 
#
# 1 124.5569 1.7652 34.5386 0.0000 15.5493 0.0000
# 2 1.7652 32.7308 8.7802 0.0000 21.7393 0.0000
# 3 34.5386 8.7802 129.1668 0.0000 4.6010 0.0000
# 4 0.0000 0.0000 0.0000 27.2120 0.0000 0.5662
# 5 15.5493 21.7393 4.6010 0.0000 38.8043 0.0000
# 6 0.0000 0.0000 0.0000 0.5662 0.0000 27.4128
#
#
#
# Elastic Compliance Matrix: (Units=1/GPa)
#
#
# Indices 1 2 3 4 5 6 
#
# 1 0.009396 0.003954 -0.002579 0.000000 -0.005674 0.000000
# 2 0.003954 0.051040 -0.003466 0.000000 -0.029767 0.000000
# 3 -0.002579 -0.003466 0.008598 0.000000 0.001956 0.000000
# 4 0.000000 0.000000 0.000000 0.036764 0.000000 -0.000759
# 5 -0.005674 -0.029767 0.001956 0.000000 0.044489 0.000000
# 6 0.000000 0.000000 0.000000 -0.000759 0.000000 0.036495
#
#
# Mechanical properties :
#
#
# Convention : Reuss Voigt Hill
#
# Bulk Modulus (GPa) = 15.42010 41.84692 28.63351
# Shear Modulus (GPa) = 23.52040 34.77718 29.14879
#
# Velocity S-wave (km/s) = 3.09109 3.75868 3.44111
# Velocity P-wave (km/s) = 4.35935 5.98637 5.23644
#
# Compressibility (1/GPa) = 0.06485044
#
# Stress axis : x y z
#
# Youngs Moduli (GPa) = 106.42876 19.59248 116.31271
#
# Poissons Ratio (x) = -0.07747 0.29998
# Poissons Ratio (y) = -0.42081 0.40318
# Poissons Ratio (z) = 0.27449 0.06792
#
# Static dielectric constant tensor:
#      x y z
#    x 1.992170 0.000000 0.086240 
#    y 0.000000 2.277280 0.000000 
#    z 0.086240 0.000000 2.169540 
# 
# From -- ./inp_files/180221.got.cif
#   From: 2010.05.17/outbox.cif.g08.bks.cpg/sg15_91_cif.got.tgz:180221.got - 2010.06.03 18:47:42.
