data_PCOD9294085
_publ_section_title
;
Structure prediction by ZEFSAII (Michael W. Deem and Ramdas Pophale) SiO2 
 PCOD9294085
Probable space group: C 2/C
;
_chemical_formula_sum "Si O2"
_cell_formula_units_Z 32
_cell_length_a 22.534189
_cell_length_b 9.437243
_cell_length_c 8.111823
_cell_angle_alpha 90.000000
_cell_angle_beta 133.659233
_cell_angle_gamma 90.000000
_cell_volume 1248.013211
_symmetry_space_group_name_H-M "C 2/C"
_symmetry_group_IT_number 15
_symmetry_cell_setting 'monoclinic'
loop_
_space_group_symop_operation_xyz
x,y,z
-x,y,1/2-z
-x,-y,-z
x,-y,1/2+z
1/2+x,1/2+y,z
1/2-x,1/2+y,1/2-z
1/2-x,1/2-y,-z
1/2+x,1/2-y,1/2+z
loop_
_atom_site_type_symbol
_atom_site_label
_atom_site_fract_x
_atom_site_fract_y
_atom_site_fract_z
Si Si1 0.392432 0.670721 0.973043
Si Si2 0.190776 0.031675 0.987378
Si Si3 0.310398 0.914856 0.998445
Si Si4 0.453718 0.130819 0.328029
O O1 0.325248 0.620666 0.707252
O O2 0.391617 0.533115 0.090111
O O3 0.373342 0.795425 0.064646
O O4 0.453922 0.742485 0.961399
O O5 0.242077 0.106122 0.226092
O O6 0.256083 0.910358 0.058525
O O7 0.363784 0.061541 0.114714
O O8 0.500000 0.171161 0.250000
O O9 0.500000 0.000000 0.500000
#
# Coordination Sequence:
#
# PCOD9294085 Si02
#       4
#     8   8   8   8
#     4  11  23  43  64  98 140 167 222 270 329 401
#     4  10  23  38  67 104 130 172 205 280 356 366
#     4  11  20  40  70  98 132 167 216 283 324 389
#     4  12  24  44  69  97 128 180 227 269 316 389
#
# _framework density 25.640753
#
# number of rings (size 3 to 8) (size 9 to 14) (size 15 to 20)
#    0.000    1.000    5.000    1.500    3.500    0.000 
#    9.000    1.250    0.000    0.000    0.000    0.000 
#    0.000    0.000    0.000    0.000    0.000    0.000 
#
# Total GULP energy -89141.061689 kJ/mol
# GULP energy per Si atom -5571.316356 kJ/mol
# Density = 2.558239 g / cm^3
# Si number density = 25.640753 Si / 1000 Ang^3
#
#
#
# Elastic Constant Matrix: (Units=GPa)
#
#
# Indices 1 2 3 4 5 6 
#
# 1 162.5350 40.6416 23.6534 0.0000 -21.4084 0.0000
# 2 40.6416 58.1322 28.6668 0.0000 3.7400 0.0000
# 3 23.6534 28.6668 67.7477 0.0000 1.6958 0.0000
# 4 0.0000 0.0000 0.0000 23.8477 0.0000 -5.8881
# 5 -21.4084 3.7400 1.6958 0.0000 28.7111 0.0000
# 6 0.0000 0.0000 0.0000 -5.8881 0.0000 53.0539
#
#
#
# Elastic Compliance Matrix: (Units=1/GPa)
#
#
# Indices 1 2 3 4 5 6 
#
# 1 0.008801 -0.006348 -0.000572 0.000000 0.007423 0.000000
# 2 -0.006348 0.026469 -0.008792 0.000000 -0.007662 0.000000
# 3 -0.000572 -0.008792 0.018690 0.000000 -0.000385 0.000000
# 4 0.000000 0.000000 0.000000 0.043114 0.000000 0.004785
# 5 0.007423 -0.007662 -0.000385 0.000000 0.041386 0.000000
# 6 0.000000 0.000000 0.000000 0.004785 0.000000 0.019380
#
#
# Mechanical properties :
#
#
# Convention : Reuss Voigt Hill
#
# Bulk Modulus (GPa) = 44.37500 52.70429 48.53964
# Shear Modulus (GPa) = 25.40954 34.15274 29.78114
#
# Velocity S-wave (km/s) = 3.15140 3.65358 3.41174
# Velocity P-wave (km/s) = 5.53044 6.19659 5.87297
#
# Compressibility (1/GPa) = 0.02253521
#
# Stress axis : x y z
#
# Youngs Moduli (GPa) = 113.62419 37.78016 53.50366
#
# Poissons Ratio (x) = 0.23984 0.03062
# Poissons Ratio (y) = 0.72132 0.47040
# Poissons Ratio (z) = 0.06503 0.33216
#
# Static dielectric constant tensor:
#      x y z
#    x 2.131750 0.000000 0.135880 
#    y 0.000000 2.144530 0.000000 
#    z 0.135880 0.000000 2.011880 
# 
# From -- ./inp_files/53454.got.cif
#   From: 2010.05.17/outbox.cif.g08.bks.cpg/sg15_27_cif.got.tgz:53454.got - 2010.06.03 18:47:42.
