data_PCOD9294412
_publ_section_title
;
Structure prediction by ZEFSAII (Michael W. Deem and Ramdas Pophale) SiO2 
 PCOD9294412
Probable space group: C 2/C
;
_chemical_formula_sum "Si O2"
_cell_formula_units_Z 60
_cell_length_a 22.196996
_cell_length_b 19.279201
_cell_length_c 9.435419
_cell_angle_alpha 90.000000
_cell_angle_beta 44.434772
_cell_angle_gamma 90.000000
_cell_volume 2826.848459
_symmetry_space_group_name_H-M "C 2/C"
_symmetry_group_IT_number 15
_symmetry_cell_setting 'monoclinic'
loop_
_space_group_symop_operation_xyz
x,y,z
-x,y,1/2-z
-x,-y,-z
x,-y,1/2+z
1/2+x,1/2+y,z
1/2-x,1/2+y,1/2-z
1/2-x,1/2-y,-z
1/2+x,1/2-y,1/2+z
loop_
_atom_site_type_symbol
_atom_site_label
_atom_site_fract_x
_atom_site_fract_y
_atom_site_fract_z
Si Si1 0.589769 0.871314 0.758705
Si Si2 0.771509 0.521414 0.362223
Si Si3 0.000000 0.985268 0.250000
Si Si4 0.180246 0.931256 0.745920
Si Si5 0.101287 0.394053 0.414538
Si Si6 0.807157 0.305933 0.479587
Si Si7 0.519578 0.405239 0.483534
Si Si8 0.568935 0.253453 0.506504
O O1 0.667754 0.914384 0.696031
O O2 0.608883 0.861633 0.559566
O O3 0.499677 0.913148 0.926823
O O4 0.569284 0.800292 0.875801
O O5 0.719297 0.489629 0.579374
O O6 0.700515 0.540979 0.366958
O O7 0.836201 0.460495 0.199867
O O8 0.043470 0.039402 0.066042
O O9 0.046034 0.934023 0.285166
O O10 0.243665 0.866573 0.629335
O O11 0.085157 0.907439 0.856853
O O12 0.127166 0.341483 0.243960
O O13 0.750000 0.250000 0.500000
O O14 0.846499 0.267023 0.548381
O O15 0.555011 0.330755 0.469595
O O16 0.500000 0.243692 0.750000
#
# Coordination Sequence:
#
# PCOD9294412 Si02
#       8
#     8   8   4   8   8   8   8   8
#     4  11  22  40  64  97 139 176 225 280 344 417
#     4  11  21  41  64 101 136 182 223 290 345 403
#     4  10  24  46  74  98 130 170 248 290 340 382
#     4  11  23  40  70  94 141 175 230 281 349 407
#     4  10  23  40  64  96 136 180 233 282 340 415
#     4  11  24  43  65  95 133 189 228 280 348 412
#     4  11  24  46  71 105 130 182 230 291 341 409
#     4  12  23  43  69  95 137 180 228 276 341 421
#
# _framework density 21.225051000000001
#
# number of rings (size 3 to 8) (size 9 to 14) (size 15 to 20)
#    0.000    1.067    4.667    2.000    0.000    1.067 
#    4.800    0.667    0.000    0.000    0.000    0.000 
#    0.000    0.000    0.000    0.000    0.000    0.000 
#
# Total GULP energy -167413.642673 kJ/mol
# GULP energy per Si atom -5580.454756 kJ/mol
# Density = 2.117674 g / cm^3
# Si number density = 21.225051 Si / 1000 Ang^3
#
#
#
# Elastic Constant Matrix: (Units=GPa)
#
#
# Indices 1 2 3 4 5 6 
#
# 1 124.6065 64.8469 64.7647 0.0000 8.6082 0.0000
# 2 64.8469 143.3550 63.4747 0.0000 17.3953 0.0000
# 3 64.7647 63.4747 113.9961 0.0000 10.3918 0.0000
# 4 0.0000 0.0000 0.0000 14.8485 0.0000 10.5017
# 5 8.6082 17.3953 10.3918 0.0000 42.2154 0.0000
# 6 0.0000 0.0000 0.0000 10.5017 0.0000 49.0224
#
#
#
# Elastic Compliance Matrix: (Units=1/GPa)
#
#
# Indices 1 2 3 4 5 6 
#
# 1 0.012479 -0.003339 -0.005242 0.000000 0.000121 0.000000
# 2 -0.003339 0.010440 -0.003669 0.000000 -0.002718 0.000000
# 3 -0.005242 -0.003669 0.013869 0.000000 -0.000833 0.000000
# 4 0.000000 0.000000 0.000000 0.079373 0.000000 -0.017003
# 5 0.000121 -0.002718 -0.000833 0.000000 0.024988 0.000000
# 6 0.000000 0.000000 0.000000 -0.017003 0.000000 0.024041
#
#
# Mechanical properties :
#
#
# Convention : Reuss Voigt Hill
#
# Bulk Modulus (GPa) = 81.36739 85.34781 83.35760
# Shear Modulus (GPa) = 25.80182 33.80868 29.80525
#
# Velocity S-wave (km/s) = 3.49037 3.99540 3.75140
# Velocity P-wave (km/s) = 7.39340 7.84745 7.62381
#
# Compressibility (1/GPa) = 0.01228994
#
# Stress axis : x y z
#
# Youngs Moduli (GPa) = 80.13676 95.78398 72.10386
#
# Poissons Ratio (x) = 0.31979 0.37794
# Poissons Ratio (y) = 0.26755 0.26453
# Poissons Ratio (z) = 0.42004 0.35140
#
# Static dielectric constant tensor:
#      x y z
#    x 1.856180 0.000000 0.025000 
#    y 0.000000 1.736810 0.000000 
#    z 0.025000 0.000000 1.801330 
# 
# From -- ./inp_files/58063.got.cif
#   From: 2010.05.17/outbox.cif.g08.bks.cpg/sg15_30_cif.got.tgz:58063.got - 2010.06.03 18:47:42.
