data_PCOD9294478
_publ_section_title
;
Structure prediction by ZEFSAII (Michael W. Deem and Ramdas Pophale) SiO2 
 PCOD9294478
Probable space group: C 2/C
;
_chemical_formula_sum "Si O2"
_cell_formula_units_Z 40
_cell_length_a 5.540024
_cell_length_b 18.349356
_cell_length_c 17.295149
_cell_angle_alpha 90.000000
_cell_angle_beta 107.772311
_cell_angle_gamma 90.000000
_cell_volume 1674.249129
_symmetry_space_group_name_H-M "C 2/C"
_symmetry_group_IT_number 15
_symmetry_cell_setting 'monoclinic'
loop_
_space_group_symop_operation_xyz
x,y,z
-x,y,1/2-z
-x,-y,-z
x,-y,1/2+z
1/2+x,1/2+y,z
1/2-x,1/2+y,1/2-z
1/2-x,1/2-y,-z
1/2+x,1/2-y,1/2+z
loop_
_atom_site_type_symbol
_atom_site_label
_atom_site_fract_x
_atom_site_fract_y
_atom_site_fract_z
Si Si1 0.923872 0.161656 0.331391
Si Si2 0.609110 0.798554 0.548860
Si Si3 0.121725 0.965797 0.343111
Si Si4 0.795240 0.197321 0.615765
Si Si5 0.375087 0.022761 0.155817
O O1 0.849393 0.244627 0.344399
O O2 0.704391 0.107364 0.339942
O O3 0.000000 0.153783 0.250000
O O4 0.182969 0.144814 0.402798
O O5 0.750000 0.750000 0.500000
O O6 0.358543 0.822431 0.478574
O O7 0.533450 0.744474 0.610625
O O8 0.153080 0.879205 0.340831
O O9 0.000000 0.993367 0.250000
O O10 0.400312 0.000773 0.380176
O O11 0.895849 0.983306 0.381204
O O12 0.500000 0.998626 0.250000
#
# Coordination Sequence:
#
# PCOD9294478 Si02
#       5
#     8   8   8   8   8
#     4  11  24  38  70  99 130 172 226 272 336 406
#     4   9  22  43  62  94 137 172 215 286 339 383
#     4  10  23  40  66  95 133 174 218 273 334 393
#     4  10  23  41  69  94 133 174 228 275 336 397
#     4  10  23  42  60  97 140 173 207 277 341 388
#
# _framework density 23.891307999999999
#
# number of rings (size 3 to 8) (size 9 to 14) (size 15 to 20)
#    0.000    2.000    0.000    1.800   14.000    0.800 
#    0.000    2.000    0.000    0.000    0.000    0.000 
#    0.000    0.000    0.000    0.000    0.000    0.000 
#
# Total GULP energy -111625.847926 kJ/mol
# GULP energy per Si atom -5581.292396 kJ/mol
# Density = 2.383693 g / cm^3
# Si number density = 23.891308 Si / 1000 Ang^3
#
#
#
# Elastic Constant Matrix: (Units=GPa)
#
#
# Indices 1 2 3 4 5 6 
#
# 1 193.7301 74.8768 19.8891 0.0000 15.2817 0.0000
# 2 74.8768 153.6901 17.8028 0.0000 -4.5916 0.0000
# 3 19.8891 17.8028 37.4906 0.0000 0.6337 0.0000
# 4 0.0000 0.0000 0.0000 -11.3585 0.0000 17.8745
# 5 15.2817 -4.5916 0.6337 0.0000 24.1689 0.0000
# 6 0.0000 0.0000 0.0000 17.8745 0.0000 16.3342
#
#
#
# Elastic Compliance Matrix: (Units=1/GPa)
#
#
# Indices 1 2 3 4 5 6 
#
# 1 0.007070 -0.003355 -0.002072 0.000000 -0.005053 0.000000
# 2 -0.003355 0.008525 -0.002332 0.000000 0.003802 0.000000
# 3 -0.002072 -0.002332 0.028878 0.000000 0.000110 0.000000
# 4 0.000000 0.000000 0.000000 -0.032343 0.000000 0.035393
# 5 -0.005053 0.003802 0.000110 0.000000 0.045290 0.000000
# 6 0.000000 0.000000 0.000000 0.035393 0.000000 0.022491
#
#
# Mechanical properties :
#
#
# Convention : Reuss Voigt Hill
#
# Bulk Modulus (GPa) = 34.53773 67.78311 51.16042
# Shear Modulus (GPa) = 47.58183 23.98507 35.78345
#
# Velocity S-wave (km/s) = 4.46757 3.17191 3.87429
# Velocity P-wave (km/s) = 6.41091 6.46898 6.44002
#
# Compressibility (1/GPa) = 0.02895384
#
# Stress axis : x y z
#
# Youngs Moduli (GPa) = 141.44205 117.30041 34.62811
#
# Poissons Ratio (x) = 0.39359 0.07175
# Poissons Ratio (y) = 0.47460 0.08077
# Poissons Ratio (z) = 0.29306 0.27359
#
# Static dielectric constant tensor:
#      x y z
#    x 2.082900 0.000000 0.130290 
#    y 0.000000 1.895510 0.000000 
#    z 0.130290 0.000000 2.060800 
# 
# From -- ./inp_files/184330.got.cif
#   From: 2010.05.17/outbox.cif.g08.bks.cpg/sg15_93_cif.got.tgz:184330.got - 2010.06.03 18:47:42.
