data_PCOD9294543
_publ_section_title
;
Structure prediction by ZEFSAII (Michael W. Deem and Ramdas Pophale) SiO2 
 PCOD9294543
Probable space group: C 2/C
;
_chemical_formula_sum "Si O2"
_cell_formula_units_Z 40
_cell_length_a 25.513815
_cell_length_b 9.073820
_cell_length_c 9.786796
_cell_angle_alpha 90.000000
_cell_angle_beta 51.387986
_cell_angle_gamma 90.000000
_cell_volume 1770.409557
_symmetry_space_group_name_H-M "C 2/C"
_symmetry_group_IT_number 15
_symmetry_cell_setting 'monoclinic'
loop_
_space_group_symop_operation_xyz
x,y,z
-x,y,1/2-z
-x,-y,-z
x,-y,1/2+z
1/2+x,1/2+y,z
1/2-x,1/2+y,1/2-z
1/2-x,1/2-y,-z
1/2+x,1/2-y,1/2+z
loop_
_atom_site_type_symbol
_atom_site_label
_atom_site_fract_x
_atom_site_fract_y
_atom_site_fract_z
Si Si1 0.999314 0.291477 0.898816
Si Si2 0.285882 0.185726 0.806537
Si Si3 0.104646 0.911214 0.818128
Si Si4 0.855902 0.843665 0.049940
Si Si5 0.894533 0.447920 0.606276
O O1 0.000000 0.218180 0.750000
O O2 0.069838 0.357806 0.830418
O O3 0.965124 0.175970 0.056587
O O4 0.949125 0.431781 0.971475
O O5 0.341573 0.309366 0.686189
O O6 0.328077 0.036242 0.757026
O O7 0.250000 0.250000 0.000000
O O8 0.224867 0.158462 0.802746
O O9 0.125700 0.913804 0.625933
O O10 0.109626 0.065466 0.885631
O O11 0.878982 0.673632 0.016995
#
# Coordination Sequence:
#
# PCOD9294543 Si02
#       5
#     8   8   8   8   8
#     4  10  24  42  65  93 132 172 236 272 323 403
#     4   9  20  42  67  96 132 169 224 275 332 401
#     4  10  24  43  63  97 136 179 222 279 332 396
#     4  11  23  42  67  97 138 174 223 275 343 395
#     4  10  23  40  68  95 127 182 216 277 336 388
#
# _framework density 22.593643
#
# number of rings (size 3 to 8) (size 9 to 14) (size 15 to 20)
#    0.000    2.000    0.000    1.200   14.000    0.800 
#    3.600    5.000    0.000    0.000    0.000    0.000 
#    0.000    0.000    0.000    0.000    0.000    0.000 
#
# Total GULP energy -111727.310675 kJ/mol
# GULP energy per Si atom -5586.365534 kJ/mol
# Density = 2.254222 g / cm^3
# Si number density = 22.593643 Si / 1000 Ang^3
#
#
#
# Elastic Constant Matrix: (Units=GPa)
#
#
# Indices 1 2 3 4 5 6 
#
# 1 91.6212 40.9058 24.4301 0.0000 -22.5538 0.0000
# 2 40.9058 128.0505 27.6088 0.0000 -10.9318 0.0000
# 3 24.4301 27.6088 51.6018 0.0000 2.0121 0.0000
# 4 0.0000 0.0000 0.0000 26.7189 0.0000 -0.3793
# 5 -22.5538 -10.9318 2.0121 0.0000 35.2931 0.0000
# 6 0.0000 0.0000 0.0000 -0.3793 0.0000 38.3609
#
#
#
# Elastic Compliance Matrix: (Units=1/GPa)
#
#
# Indices 1 2 3 4 5 6 
#
# 1 0.016456 -0.002987 -0.006581 0.000000 0.009966 0.000000
# 2 -0.002987 0.009701 -0.003827 0.000000 0.001314 0.000000
# 3 -0.006581 -0.003827 0.024808 0.000000 -0.006806 0.000000
# 4 0.000000 0.000000 0.000000 0.037432 0.000000 0.000370
# 5 0.009966 0.001314 -0.006806 0.000000 0.035498 0.000000
# 6 0.000000 0.000000 0.000000 0.000370 0.000000 0.026072
#
#
# Mechanical properties :
#
#
# Convention : Reuss Voigt Hill
#
# Bulk Modulus (GPa) = 41.36730 50.79587 46.08158
# Shear Modulus (GPa) = 27.05371 31.96317 29.50844
#
# Velocity S-wave (km/s) = 3.46411 3.76533 3.61785
# Velocity P-wave (km/s) = 5.86081 6.43698 6.15564
#
# Compressibility (1/GPa) = 0.02417369
#
# Stress axis : x y z
#
# Youngs Moduli (GPa) = 60.76658 103.08120 40.30919
#
# Poissons Ratio (x) = 0.30792 0.26529
# Poissons Ratio (y) = 0.18152 0.15428
# Poissons Ratio (z) = 0.39993 0.39454
#
# Static dielectric constant tensor:
#      x y z
#    x 1.893670 0.000000 -0.030070 
#    y 0.000000 1.847460 0.000000 
#    z -0.030070 0.000000 1.811870 
# 
# From -- ./inp_files/109687.got.cif
#   From: 2010.05.17/outbox.cif.g08.bks.cpg/sg15_55_cif.got.tgz:109687.got - 2010.06.03 18:47:42.
