data_PCOD9294162
_publ_section_title
;
Structure prediction by ZEFSAII (Michael W. Deem and Ramdas Pophale) SiO2 
 PCOD9294162
Probable space group: C 2/C
;
_chemical_formula_sum "Si O2"
_cell_formula_units_Z 56
_cell_length_a 8.062869
_cell_length_b 12.423968
_cell_length_c 30.690550
_cell_angle_alpha 90.000000
_cell_angle_beta 51.586944
_cell_angle_gamma 90.000000
_cell_volume 2408.919932
_symmetry_space_group_name_H-M "C 2/C"
_symmetry_group_IT_number 15
_symmetry_cell_setting 'monoclinic'
loop_
_space_group_symop_operation_xyz
x,y,z
-x,y,1/2-z
-x,-y,-z
x,-y,1/2+z
1/2+x,1/2+y,z
1/2-x,1/2+y,1/2-z
1/2-x,1/2-y,-z
1/2+x,1/2-y,1/2+z
loop_
_atom_site_type_symbol
_atom_site_label
_atom_site_fract_x
_atom_site_fract_y
_atom_site_fract_z
Si Si1 0.265986 0.507662 0.925877
Si Si2 0.377091 0.064793 0.866495
Si Si3 0.315487 0.949556 0.966652
Si Si4 0.737773 0.265252 0.921147
Si Si5 0.834386 0.725881 0.719282
Si Si6 0.296928 0.269820 0.165200
Si Si7 0.816881 0.888331 0.653472
O O1 0.222191 0.636004 0.926180
O O2 0.475509 0.459269 0.869963
O O3 0.060090 0.441716 0.943277
O O4 0.294597 0.498497 0.973409
O O5 0.597071 0.126090 0.822446
O O6 0.201481 0.144543 0.874524
O O7 0.325584 0.026531 0.922938
O O8 0.361523 0.966526 0.835716
O O9 0.199169 0.839907 0.969781
O O10 0.622454 0.310017 0.897101
O O11 0.987176 0.292311 0.873278
O O12 0.720603 0.689781 0.781933
O O13 0.735462 0.816220 0.705831
O O14 0.064157 0.777003 0.694959
#
# Coordination Sequence:
#
# PCOD9294162 Si02
#       7
#     8   8   8   8   8   8   8
#     4  11  22  42  59  91 122 157 206 252 293 373
#     4   9  19  40  60  88 118 159 195 252 294 362
#     4  10  23  39  62  89 120 160 205 245 311 355
#     4  11  22  40  59  91 122 161 193 256 293 364
#     4   9  19  39  62  85 119 160 190 256 294 353
#     4   9  19  40  61  81 126 152 196 248 303 344
#     4  11  22  37  66  87 119 160 205 240 310 360
#
# _framework density 23.246931
#
# number of rings (size 3 to 8) (size 9 to 14) (size 15 to 20)
#    0.857    1.143    1.429    2.143    0.000    2.857 
#   12.857    2.143    3.143    0.000    0.000    0.000 
#    0.000    0.000    0.000    0.000    0.000    0.000 
#
# Total GULP energy -155980.218459 kJ/mol
# GULP energy per Si atom -5570.722088 kJ/mol
# Density = 2.319402 g / cm^3
# Si number density = 23.246931 Si / 1000 Ang^3
#
#
#
# Elastic Constant Matrix: (Units=GPa)
#
#
# Indices 1 2 3 4 5 6 
#
# 1 44.6417 24.6267 11.8803 -0.0001 8.1428 0.0000
# 2 24.6267 82.8050 19.7095 0.0000 13.3733 0.0000
# 3 11.8803 19.7095 60.9708 -0.0001 7.0042 0.0001
# 4 -0.0001 0.0000 -0.0001 13.5679 0.0001 23.2470
# 5 8.1428 13.3733 7.0042 0.0001 28.9055 0.0000
# 6 0.0000 0.0000 0.0001 23.2470 0.0000 30.2607
#
#
#
# Elastic Compliance Matrix: (Units=1/GPa)
#
#
# Indices 1 2 3 4 5 6 
#
# 1 0.027669 -0.006954 -0.002693 0.000000 -0.003925 0.000000
# 2 -0.006954 0.015629 -0.003180 0.000000 -0.004501 0.000000
# 3 -0.002693 -0.003180 0.018205 -0.000001 -0.002181 0.000000
# 4 0.000000 0.000000 -0.000001 -0.233043 0.000001 0.179030
# 5 -0.003925 -0.004501 -0.002181 0.000001 0.038312 -0.000001
# 6 0.000000 0.000000 0.000000 0.179030 -0.000001 -0.104489
#
#
# Mechanical properties :
#
#
# Convention : Reuss Voigt Hill
#
# Bulk Modulus (GPa) = 27.89487 33.42786 30.66136
# Shear Modulus (GPa) = -24.98577 23.36021 -0.81278
#
# Velocity S-wave (km/s) = -3.28197 3.17341 -0.59194
# Velocity P-wave (km/s) = 1.52851 5.27618 3.57084
#
# Compressibility (1/GPa) = 0.03584889
#
# Stress axis : x y z
#
# Youngs Moduli (GPa) = 36.14103 63.98496 54.93142
#
# Poissons Ratio (x) = 0.44497 0.14790
# Poissons Ratio (y) = 0.25134 0.17468
# Poissons Ratio (z) = 0.09731 0.20347
#
# Static dielectric constant tensor:
#      x y z
#    x 1.930280 0.000000 0.023060 
#    y 0.000000 1.936690 0.000000 
#    z 0.023060 0.000000 1.895520 
# 
# From -- ./inp_files/307404.got.cif
#   From: 2010.05.17/outbox.cif.g08.bks.cpg/sg15_154_cif.got.tgz:307404.got - 2010.06.03 18:47:42.
