data_PCOD9294966
_publ_section_title
;
Structure prediction by ZEFSAII (Michael W. Deem and Ramdas Pophale) SiO2 
 PCOD9294966
Probable space group: C 2/C
;
_chemical_formula_sum "Si O2"
_cell_formula_units_Z 40
_cell_length_a 11.899776
_cell_length_b 9.553504
_cell_length_c 15.312688
_cell_angle_alpha 90.000000
_cell_angle_beta 66.648457
_cell_angle_gamma 90.000000
_cell_volume 1598.226221
_symmetry_space_group_name_H-M "C 2/C"
_symmetry_group_IT_number 15
_symmetry_cell_setting 'monoclinic'
loop_
_space_group_symop_operation_xyz
x,y,z
-x,y,1/2-z
-x,-y,-z
x,-y,1/2+z
1/2+x,1/2+y,z
1/2-x,1/2+y,1/2-z
1/2-x,1/2-y,-z
1/2+x,1/2-y,1/2+z
loop_
_atom_site_type_symbol
_atom_site_label
_atom_site_fract_x
_atom_site_fract_y
_atom_site_fract_z
Si Si1 0.017382 0.848466 0.381776
Si Si2 0.856779 0.211017 0.302470
Si Si3 0.612794 0.915773 0.508669
Si Si4 0.256406 0.586321 0.791539
Si Si5 0.668030 0.595416 0.009974
O O1 0.109096 0.855330 0.272126
O O2 0.105993 0.856692 0.439887
O O3 0.940650 0.708530 0.417705
O O4 0.928097 0.980769 0.419163
O O5 0.827884 0.350946 0.258423
O O6 0.826728 0.208865 0.414081
O O7 0.000000 0.181933 0.250000
O O8 0.776574 0.081391 0.288674
O O9 0.694039 0.865607 0.400721
O O10 0.500000 0.000000 0.500000
O O11 0.705731 0.010793 0.534427
#
# Coordination Sequence:
#
# PCOD9294966 Si02
#       5
#     8   8   8   8   8
#     4  11  22  44  69 103 135 185 241 280 350 430
#     4  11  22  45  67 102 141 183 235 294 353 422
#     4  11  25  44  67 105 146 181 237 296 351 426
#     4  11  25  42  76 102 138 193 237 287 361 423
#     4  10  23  41  71  97 141 186 225 297 352 405
#
# _framework density 25.027746
#
# number of rings (size 3 to 8) (size 9 to 14) (size 15 to 20)
#    0.000    1.200    2.000    4.200    2.800    4.800 
#    0.000    1.000    0.000    0.000    0.000    0.000 
#    0.000    0.000    0.000    0.000    0.000    0.000 
#
# Total GULP energy -112117.150390 kJ/mol
# GULP energy per Si atom -5605.857520 kJ/mol
# Density = 2.497078 g / cm^3
# Si number density = 25.027746 Si / 1000 Ang^3
#
#
#
# Elastic Constant Matrix: (Units=GPa)
#
#
# Indices 1 2 3 4 5 6 
#
# 1 139.8518 36.6906 27.8738 0.0000 3.3602 0.0000
# 2 36.6906 91.0230 57.3352 0.0000 -1.5189 0.0000
# 3 27.8738 57.3352 137.4144 0.0000 -24.4290 0.0000
# 4 0.0000 0.0000 0.0000 39.4661 0.0000 2.4887
# 5 3.3602 -1.5189 -24.4290 0.0000 45.7825 0.0000
# 6 0.0000 0.0000 0.0000 2.4887 0.0000 43.4349
#
#
#
# Elastic Compliance Matrix: (Units=1/GPa)
#
#
# Indices 1 2 3 4 5 6 
#
# 1 0.008052 -0.002876 -0.000613 0.000000 -0.001014 0.000000
# 2 -0.002876 0.016345 -0.006742 0.000000 -0.002844 0.000000
# 3 -0.000613 -0.006742 0.011250 0.000000 0.005824 0.000000
# 4 0.000000 0.000000 0.000000 0.025430 0.000000 -0.001457
# 5 -0.001014 -0.002844 0.005824 0.000000 0.024930 0.000000
# 6 0.000000 0.000000 0.000000 -0.001457 0.000000 0.023106
#
#
# Mechanical properties :
#
#
# Convention : Reuss Voigt Hill
#
# Bulk Modulus (GPa) = 65.86028 68.00985 66.93506
# Shear Modulus (GPa) = 37.13673 42.16266 39.64970
#
# Velocity S-wave (km/s) = 3.85622 4.10889 3.98456
# Velocity P-wave (km/s) = 6.79701 7.05290 6.92613
#
# Compressibility (1/GPa) = 0.01518366
#
# Stress axis : x y z
#
# Youngs Moduli (GPa) = 124.19920 61.18130 88.88753
#
# Poissons Ratio (x) = 0.17596 0.05453
# Poissons Ratio (y) = 0.35720 0.59928
# Poissons Ratio (z) = 0.07619 0.41249
#
# Static dielectric constant tensor:
#      x y z
#    x 2.003270 0.000000 -0.025290 
#    y 0.000000 1.997810 0.000000 
#    z -0.025290 0.000000 2.004320 
# 
# From -- ./inp_files/142145.got.cif
#   From: 2010.05.17/outbox.cif.g08.bks.cpg/sg15_72_cif.got.tgz:142145.got - 2010.06.03 18:47:42.
