data_PCOD9294532
_publ_section_title
;
Structure prediction by ZEFSAII (Michael W. Deem and Ramdas Pophale) SiO2 
 PCOD9294532
Probable space group: C 2/C
;
_chemical_formula_sum "Si O2"
_cell_formula_units_Z 28
_cell_length_a 11.836370
_cell_length_b 9.053505
_cell_length_c 9.409095
_cell_angle_alpha 90.000000
_cell_angle_beta 92.553002
_cell_angle_gamma 90.000000
_cell_volume 1007.283815
_symmetry_space_group_name_H-M "C 2/C"
_symmetry_group_IT_number 15
_symmetry_cell_setting 'monoclinic'
loop_
_space_group_symop_operation_xyz
x,y,z
-x,y,1/2-z
-x,-y,-z
x,-y,1/2+z
1/2+x,1/2+y,z
1/2-x,1/2+y,1/2-z
1/2-x,1/2-y,-z
1/2+x,1/2-y,1/2+z
loop_
_atom_site_type_symbol
_atom_site_label
_atom_site_fract_x
_atom_site_fract_y
_atom_site_fract_z
Si Si1 0.460853 0.260068 0.967122
Si Si2 0.791865 0.480351 0.408976
Si Si3 0.500000 0.034701 0.750000
Si Si4 0.635436 0.563617 0.641885
O O1 0.357757 0.150083 0.995680
O O2 0.537379 0.149834 0.875711
O O3 0.410745 0.395081 0.872351
O O4 0.530456 0.334375 0.095573
O O5 0.893035 0.543842 0.315078
O O6 0.722551 0.576320 0.515146
O O7 0.701298 0.416988 0.291549
#
# Coordination Sequence:
#
# PCOD9294532 Si02
#       4
#     8   8   4   8
#     4   9  21  41  63 101 132 171 232 267 317 418
#     4  10  23  40  68 101 131 179 219 278 330 402
#     4   8  20  40  56  96 134 156 228 272 308 402
#     4  11  21  42  73  92 138 181 214 276 351 374
#
# _framework density 27.797526999999999
#
# number of rings (size 3 to 8) (size 9 to 14) (size 15 to 20)
#    1.714    0.571    0.000    2.571    0.000    5.714 
#    0.000    0.000    0.000    0.000    0.000    0.000 
#    0.000    0.000    0.000    0.000    0.000    0.000 
#
# Total GULP energy -78375.571406 kJ/mol
# GULP energy per Si atom -5598.255100 kJ/mol
# Density = 2.773426 g / cm^3
# Si number density = 27.797527 Si / 1000 Ang^3
#
#
#
# Elastic Constant Matrix: (Units=GPa)
#
#
# Indices 1 2 3 4 5 6 
#
# 1 188.6666 35.7653 70.8070 0.0000 -5.3319 0.0000
# 2 35.7653 113.2633 20.6330 0.0000 10.7865 0.0000
# 3 70.8070 20.6330 143.6203 0.0000 -3.8054 0.0000
# 4 0.0000 0.0000 0.0000 25.3095 0.0000 12.1613
# 5 -5.3319 10.7865 -3.8054 0.0000 56.5716 0.0000
# 6 0.0000 0.0000 0.0000 12.1613 0.0000 46.1106
#
#
#
# Elastic Compliance Matrix: (Units=1/GPa)
#
#
# Indices 1 2 3 4 5 6 
#
# 1 0.006796 -0.001654 -0.003093 0.000000 0.000748 0.000000
# 2 -0.001654 0.009660 -0.000626 0.000000 -0.002040 0.000000
# 3 -0.003093 -0.000626 0.008588 0.000000 0.000406 0.000000
# 4 0.000000 0.000000 0.000000 0.045245 0.000000 -0.011933
# 5 0.000748 -0.002040 0.000406 0.000000 0.018163 0.000000
# 6 0.000000 0.000000 0.000000 -0.011933 0.000000 0.024834
#
#
# Mechanical properties :
#
#
# Convention : Reuss Voigt Hill
#
# Bulk Modulus (GPa) = 69.94275 77.77344 73.85809
# Shear Modulus (GPa) = 38.82035 46.82134 42.82084
#
# Velocity S-wave (km/s) = 3.74108 4.10856 3.92912
# Velocity P-wave (km/s) = 6.62398 7.10959 6.87108
#
# Compressibility (1/GPa) = 0.01429741
#
# Stress axis : x y z
#
# Youngs Moduli (GPa) = 147.14977 103.52450 116.43517
#
# Poissons Ratio (x) = 0.17120 0.36014
# Poissons Ratio (y) = 0.24334 0.07294
# Poissons Ratio (z) = 0.45514 0.06486
#
# Static dielectric constant tensor:
#      x y z
#    x 2.150770 0.000000 -0.008410 
#    y 0.000000 2.144000 0.000000 
#    z -0.008410 0.000000 2.134570 
# 
# From -- ./inp_files/27261.got.cif
#   From: 2010.05.17/outbox.cif.g08.bks.cpg/sg15_14_cif.got.tgz:27261.got - 2010.06.03 18:47:42.
