data_PCOD9294790
_publ_section_title
;
Structure prediction by ZEFSAII (Michael W. Deem and Ramdas Pophale) SiO2 
 PCOD9294790
Probable space group: C 2/C
;
_chemical_formula_sum "Si O2"
_cell_formula_units_Z 48
_cell_length_a 8.147624
_cell_length_b 19.283043
_cell_length_c 27.791720
_cell_angle_alpha 90.000000
_cell_angle_beta 32.854750
_cell_angle_gamma 90.000000
_cell_volume 2368.812399
_symmetry_space_group_name_H-M "C 2/C"
_symmetry_group_IT_number 15
_symmetry_cell_setting 'monoclinic'
loop_
_space_group_symop_operation_xyz
x,y,z
-x,y,1/2-z
-x,-y,-z
x,-y,1/2+z
1/2+x,1/2+y,z
1/2-x,1/2+y,1/2-z
1/2-x,1/2-y,-z
1/2+x,1/2-y,1/2+z
loop_
_atom_site_type_symbol
_atom_site_label
_atom_site_fract_x
_atom_site_fract_y
_atom_site_fract_z
Si Si1 0.646769 0.509899 0.097567
Si Si2 0.705204 0.109464 0.248894
Si Si3 0.284417 0.187536 0.953412
Si Si4 0.093598 0.115638 0.675925
Si Si5 0.633832 0.441193 0.932880
Si Si6 0.890189 0.266153 0.222600
O O1 0.522057 0.569879 0.163262
O O2 0.540802 0.437761 0.146334
O O3 0.486233 0.531376 0.088350
O O4 0.000000 0.500000 0.000000
O O5 0.500000 0.111812 0.250000
O O6 0.492921 0.069221 0.339199
O O7 0.777926 0.187643 0.245168
O O8 0.562369 0.140317 0.903739
O O9 0.370682 0.216514 0.879181
O O10 0.250000 0.250000 0.000000
O O11 0.003316 0.134757 0.021902
O O12 0.000000 0.082965 0.750000
O O13 0.888355 0.182874 0.719313
O O14 0.500000 0.500000 0.000000
O O15 0.000000 0.278166 0.250000
#
# Coordination Sequence:
#
# PCOD9294790 Si02
#       6
#     8   8   8   8   8   8
#     4  11  23  41  68  97 130 171 224 267 338 406
#     4  10  23  45  65  91 137 178 217 271 347 407
#     4  11  22  44  69  92 136 180 231 271 349 418
#     4  10  23  41  66  93 132 177 220 269 342 404
#     4  11  25  41  66 101 133 176 220 287 340 404
#     4  11  25  41  67  99 131 178 228 286 332 400
#
# _framework density 20.263318999999999
#
# number of rings (size 3 to 8) (size 9 to 14) (size 15 to 20)
#    0.000    1.333    1.667    4.500    7.000    2.667 
#    0.000    1.667    0.000    0.000    0.000    0.000 
#    0.000    0.000    0.000    0.000    0.000    0.000 
#
# Total GULP energy -134000.313562 kJ/mol
# GULP energy per Si atom -5583.346398 kJ/mol
# Density = 2.021720 g / cm^3
# Si number density = 20.263319 Si / 1000 Ang^3
#
#
#
# Elastic Constant Matrix: (Units=GPa)
#
#
# Indices 1 2 3 4 5 6 
#
# 1 52.6237 16.4324 37.1789 -0.0756 11.7685 0.0806
# 2 16.4324 118.0912 59.0632 -0.0929 16.3572 0.0108
# 3 37.1789 59.0632 121.7477 -0.3162 11.7610 0.3191
# 4 -0.0756 -0.0929 -0.3162 35.3423 0.0979 6.8515
# 5 11.7685 16.3572 11.7610 0.0979 29.2433 -0.0911
# 6 0.0806 0.0108 0.3191 6.8515 -0.0911 20.1725
#
#
#
# Elastic Compliance Matrix: (Units=1/GPa)
#
#
# Indices 1 2 3 4 5 6 
#
# 1 0.025885 0.001425 -0.007816 0.000016 -0.008071 -0.000022
# 2 0.001425 0.011788 -0.005683 -0.000015 -0.004882 0.000061
# 3 -0.007816 -0.005683 0.013263 0.000126 0.000989 -0.000214
# 4 0.000016 -0.000015 0.000126 0.030291 -0.000182 -0.010291
# 5 -0.008071 -0.004882 0.000989 -0.000182 0.039778 0.000261
# 6 -0.000022 0.000061 -0.000214 -0.010291 0.000261 0.053072
#
#
# Mechanical properties :
#
#
# Convention : Reuss Voigt Hill
#
# Bulk Modulus (GPa) = 37.32932 57.53463 47.43197
# Shear Modulus (GPa) = 24.13658 28.93750 26.53704
#
# Velocity S-wave (km/s) = 3.45504 3.78308 3.62278
# Velocity P-wave (km/s) = 5.86332 6.89474 6.39984
#
# Compressibility (1/GPa) = 0.02678859
#
# Stress axis : x y z
#
# Youngs Moduli (GPa) = 38.63228 84.83226 75.39887
#
# Poissons Ratio (x) = -0.12092 0.58935
# Poissons Ratio (y) = -0.05507 0.42846
# Poissons Ratio (z) = 0.30197 0.48207
#
# Static dielectric constant tensor:
#      x y z
#    x 1.681930 -0.000150 0.040220 
#    y -0.000150 1.662800 0.000190 
#    z 0.040220 0.000190 1.798220 
# 
# From -- ./inp_files/308724.got.cif
#   From: 2010.05.17/outbox.cif.g08.bks.cpg/sg15_155_cif.got.tgz:308724.got - 2010.06.03 18:47:42.
