data_PCOD9294554
_publ_section_title
;
Structure prediction by ZEFSAII (Michael W. Deem and Ramdas Pophale) SiO2 
 PCOD9294554
Probable space group: C 2/C
;
_chemical_formula_sum "Si O2"
_cell_formula_units_Z 48
_cell_length_a 14.765708
_cell_length_b 25.281086
_cell_length_c 9.449100
_cell_angle_alpha 90.000000
_cell_angle_beta 37.959327
_cell_angle_gamma 90.000000
_cell_volume 2169.639285
_symmetry_space_group_name_H-M "C 2/C"
_symmetry_group_IT_number 15
_symmetry_cell_setting 'monoclinic'
loop_
_space_group_symop_operation_xyz
x,y,z
-x,y,1/2-z
-x,-y,-z
x,-y,1/2+z
1/2+x,1/2+y,z
1/2-x,1/2+y,1/2-z
1/2-x,1/2-y,-z
1/2+x,1/2-y,1/2+z
loop_
_atom_site_type_symbol
_atom_site_label
_atom_site_fract_x
_atom_site_fract_y
_atom_site_fract_z
Si Si1 0.811618 0.610432 0.778829
Si Si2 0.391745 0.325328 0.590333
Si Si3 0.297542 0.059869 0.494465
Si Si4 0.000000 0.263202 0.750000
Si Si5 0.908010 0.346911 0.657429
Si Si6 0.000000 0.535361 0.750000
Si Si7 0.500000 0.416241 0.250000
Si Si8 0.500000 0.652403 0.250000
O O1 0.776530 0.592124 0.663429
O O2 0.929255 0.657447 0.608168
O O3 0.916112 0.570278 0.737489
O O4 0.654184 0.620913 0.043103
O O5 0.418163 0.275124 0.459135
O O6 0.218403 0.339248 0.802844
O O7 0.462969 0.376345 0.424389
O O8 0.470284 0.316329 0.642368
O O9 0.383605 0.097320 0.273477
O O10 0.141425 0.049813 0.614229
O O11 0.375341 0.006389 0.448649
O O12 0.893472 0.302102 0.794514
#
# Coordination Sequence:
#
# PCOD9294554 Si02
#       8
#     8   8   8   4   8   4   4   4
#     4  12  24  44  65  95 138 179 220 276 342 402
#     4  10  23  40  69 102 135 176 222 272 332 403
#     4  11  21  42  70  98 128 176 228 284 321 400
#     4  11  21  42  76 107 128 169 236 280 315 401
#     4  11  22  43  73  99 128 178 229 278 329 389
#     4  12  25  40  68 102 130 174 228 286 339 392
#     4   9  20  41  67  96 134 176 227 269 330 391
#     4  12  26  47  63  99 146 183 205 279 358 394
#
# _framework density 22.123493
#
# number of rings (size 3 to 8) (size 9 to 14) (size 15 to 20)
#    0.000    1.000    5.000    2.000    0.000    2.000 
#    0.000    5.833    0.000    0.000    0.000    0.000 
#    0.000    0.000    0.000    0.000    0.000    0.000 
#
# Total GULP energy -133949.325183 kJ/mol
# GULP energy per Si atom -5581.221883 kJ/mol
# Density = 2.207314 g / cm^3
# Si number density = 22.123493 Si / 1000 Ang^3
#
#
#
# Elastic Constant Matrix: (Units=GPa)
#
#
# Indices 1 2 3 4 5 6 
#
# 1 167.3169 32.2690 44.0531 0.0000 -24.1021 0.0000
# 2 32.2690 61.2229 24.3921 0.0000 -10.1681 0.0000
# 3 44.0531 24.3921 99.2272 0.0000 -22.5515 0.0000
# 4 0.0000 0.0000 0.0000 11.5467 0.0000 3.7751
# 5 -24.1021 -10.1681 -22.5515 0.0000 31.8948 0.0000
# 6 0.0000 0.0000 0.0000 3.7751 0.0000 6.0668
#
#
#
# Elastic Compliance Matrix: (Units=1/GPa)
#
#
# Indices 1 2 3 4 5 6 
#
# 1 0.007479 -0.002612 -0.001886 0.000000 0.003485 0.000000
# 2 -0.002612 0.019285 -0.003136 0.000000 0.001957 0.000000
# 3 -0.001886 -0.003136 0.013267 0.000000 0.006955 0.000000
# 4 0.000000 0.000000 0.000000 0.108725 0.000000 -0.067655
# 5 0.003485 0.001957 0.006955 0.000000 0.039529 0.000000
# 6 0.000000 0.000000 0.000000 -0.067655 0.000000 0.206929
#
#
# Mechanical properties :
#
#
# Convention : Reuss Voigt Hill
#
# Bulk Modulus (GPa) = 40.38393 58.79950 49.59171
# Shear Modulus (GPa) = 11.94069 25.03851 18.48960
#
# Velocity S-wave (km/s) = 2.32573 3.36782 2.89406
# Velocity P-wave (km/s) = 5.05030 6.46208 5.79931
#
# Compressibility (1/GPa) = 0.02476232
#
# Stress axis : x y z
#
# Youngs Moduli (GPa) = 133.70607 51.85412 75.37475
#
# Poissons Ratio (x) = 0.13542 0.14218
# Poissons Ratio (y) = 0.34919 0.23641
# Poissons Ratio (z) = 0.25221 0.16264
#
# Static dielectric constant tensor:
#      x y z
#    x 1.810530 0.000000 -0.015210 
#    y 0.000000 1.833830 0.000000 
#    z -0.015210 0.000000 1.884060 
# 
# From -- ./inp_files/43893.got.cif
#   From: 2010.05.17/outbox.cif.g08.bks.cpg/sg15_22_cif.got.tgz:43893.got - 2010.06.03 18:47:42.
