data_PCOD9294018
_publ_section_title
;
Structure prediction by ZEFSAII (Michael W. Deem and Ramdas Pophale) SiO2 
 PCOD9294018
Probable space group: C 2/C
;
_chemical_formula_sum "Si O2"
_cell_formula_units_Z 56
_cell_length_a 12.776804
_cell_length_b 26.581754
_cell_length_c 8.946335
_cell_angle_alpha 90.000000
_cell_angle_beta 115.040350
_cell_angle_gamma 90.000000
_cell_volume 2752.859109
_symmetry_space_group_name_H-M "C 2/C"
_symmetry_group_IT_number 15
_symmetry_cell_setting 'monoclinic'
loop_
_space_group_symop_operation_xyz
x,y,z
-x,y,1/2-z
-x,-y,-z
x,-y,1/2+z
1/2+x,1/2+y,z
1/2-x,1/2+y,1/2-z
1/2-x,1/2-y,-z
1/2+x,1/2-y,1/2+z
loop_
_atom_site_type_symbol
_atom_site_label
_atom_site_fract_x
_atom_site_fract_y
_atom_site_fract_z
Si Si1 0.544686 0.330743 0.497864
Si Si2 0.911691 0.006816 0.813813
Si Si3 0.473455 0.223735 0.908261
Si Si4 0.808392 0.102322 0.182225
Si Si5 0.764242 0.316935 0.435427
Si Si6 0.681449 0.393600 0.161370
Si Si7 0.595375 0.855027 0.703569
O O1 0.486988 0.279634 0.522610
O O2 0.613749 0.358414 0.675175
O O3 0.633314 0.314181 0.419307
O O4 0.446464 0.370205 0.393237
O O5 0.817815 0.047417 0.803193
O O6 0.000000 0.030281 0.750000
O O7 0.862648 0.953251 0.731724
O O8 0.000000 0.000000 0.000000
O O9 0.500000 0.215440 0.750000
O O10 0.337001 0.221289 0.874848
O O11 0.538044 0.181686 0.046718
O O12 0.683447 0.106903 0.181586
O O13 0.796708 0.115319 0.000765
O O14 0.763059 0.365799 0.328331
O O15 0.835434 0.321995 0.631978
O O16 0.500000 0.880948 0.750000
#
# Coordination Sequence:
#
# PCOD9294018 Si02
#       7
#     8   8   8   8   8   8   8
#     4  11  22  38  58  89 125 158 197 246 301 361
#     4  12  22  38  61  93 125 157 188 241 307 364
#     4  11  22  40  62  84 117 161 208 250 294 346
#     4  11  22  39  60  89 124 156 199 248 294 360
#     4  10  23  38  59  85 118 160 201 247 299 357
#     4  12  23  37  61  92 123 155 195 241 306 361
#     4   9  22  42  61  83 118 159 205 251 292 346
#
# _framework density 20.342485
#
# number of rings (size 3 to 8) (size 9 to 14) (size 15 to 20)
#    0.000    1.143    2.857    3.857    2.000    5.714 
#    0.000    5.000    0.000    8.571    0.000    0.000 
#    0.000    0.000    0.000    0.000    0.000    0.000 
#
# Total GULP energy -156152.961248 kJ/mol
# GULP energy per Si atom -5576.891473 kJ/mol
# Density = 2.029618 g / cm^3
# Si number density = 20.342485 Si / 1000 Ang^3
#
#
#
# Elastic Constant Matrix: (Units=GPa)
#
#
# Indices 1 2 3 4 5 6 
#
# 1 107.9385 13.8670 26.7931 0.0000 -26.0199 0.0000
# 2 13.8670 82.4124 24.9953 0.0000 -7.7067 0.0000
# 3 26.7931 24.9953 116.6295 0.0000 -27.7390 0.0000
# 4 0.0000 0.0000 0.0000 12.0550 0.0000 -19.6092
# 5 -26.0199 -7.7067 -27.7390 0.0000 33.8394 0.0000
# 6 0.0000 0.0000 0.0000 -19.6092 0.0000 6.5300
#
#
#
# Elastic Compliance Matrix: (Units=1/GPa)
#
#
# Indices 1 2 3 4 5 6 
#
# 1 0.011494 -0.001024 -0.000465 0.000000 0.008223 0.000000
# 2 -0.001024 0.013088 -0.002544 0.000000 0.000108 0.000000
# 3 -0.000465 -0.002544 0.011184 0.000000 0.008231 0.000000
# 4 0.000000 0.000000 0.000000 -0.021354 0.000000 -0.064124
# 5 0.008223 0.000108 0.008231 0.000000 0.042646 0.000000
# 6 0.000000 0.000000 0.000000 -0.064124 0.000000 -0.039421
#
#
# Mechanical properties :
#
#
# Convention : Reuss Voigt Hill
#
# Bulk Modulus (GPa) = 36.10176 48.69903 42.40040
# Shear Modulus (GPa) = 143.11617 26.57321 84.84469
#
# Velocity S-wave (km/s) = 8.39679 3.61819 6.46519
# Velocity P-wave (km/s) = 10.57325 6.43790 8.75329
#
# Compressibility (1/GPa) = 0.02769948
#
# Stress axis : x y z
#
# Youngs Moduli (GPa) = 87.00257 76.40540 89.41504
#
# Poissons Ratio (x) = 0.07823 0.04160
# Poissons Ratio (y) = 0.08908 0.22748
# Poissons Ratio (z) = 0.04047 0.19438
#
# Static dielectric constant tensor:
#      x y z
#    x 1.643940 0.000000 -0.019290 
#    y 0.000000 1.813660 0.000000 
#    z -0.019290 0.000000 1.705670 
# 
# From -- ./inp_files/34336.got.cif
#   From: 2010.05.17/outbox.cif.g08.bks.cpg/sg15_18_cif.got.tgz:34336.got - 2010.06.03 18:47:42.
