data_PCOD9294129
_publ_section_title
;
Structure prediction by ZEFSAII (Michael W. Deem and Ramdas Pophale) SiO2 
 PCOD9294129
Probable space group: C 2/C
;
_chemical_formula_sum "Si O2"
_cell_formula_units_Z 48
_cell_length_a 19.392654
_cell_length_b 8.758463
_cell_length_c 25.473083
_cell_angle_alpha 90.000000
_cell_angle_beta 36.810623
_cell_angle_gamma 90.000000
_cell_volume 2592.377269
_symmetry_space_group_name_H-M "C 2/C"
_symmetry_group_IT_number 15
_symmetry_cell_setting 'monoclinic'
loop_
_space_group_symop_operation_xyz
x,y,z
-x,y,1/2-z
-x,-y,-z
x,-y,1/2+z
1/2+x,1/2+y,z
1/2-x,1/2+y,1/2-z
1/2-x,1/2-y,-z
1/2+x,1/2-y,1/2+z
loop_
_atom_site_type_symbol
_atom_site_label
_atom_site_fract_x
_atom_site_fract_y
_atom_site_fract_z
Si Si1 0.324958 0.876320 0.278219
Si Si2 0.998481 0.927011 0.059143
Si Si3 0.277304 0.410602 0.735633
Si Si4 0.578160 0.118436 0.596288
Si Si5 0.208630 0.102952 0.959976
Si Si6 0.543355 0.068643 0.420350
O O1 0.295178 0.757458 0.249113
O O2 0.284688 0.044790 0.282166
O O3 0.461849 0.856579 0.201011
O O4 0.256740 0.846230 0.373538
O O5 0.900748 0.010659 0.153505
O O6 0.968802 0.750240 0.073572
O O7 0.124159 0.960087 0.005101
O O8 0.000000 0.000000 0.000000
O O9 0.177981 0.474502 0.834077
O O10 0.682525 0.068118 0.569716
O O11 0.629597 0.265068 0.534227
O O12 0.531623 0.001705 0.580984
O O13 0.500000 0.000000 0.500000
#
# Coordination Sequence:
#
# PCOD9294129 Si02
#       6
#     8   8   8   8   8   8
#     4  11  21  37  60  89 120 154 203 249 303 356
#     4  12  22  37  62  90 119 161 198 252 303 355
#     4  11  21  35  59  91 115 152 196 250 300 349
#     4  10  23  39  60  87 123 163 202 248 296 363
#     4  11  22  40  61  87 121 165 205 242 304 359
#     4  11  24  39  62  92 123 153 202 255 302 353
#
# _framework density 18.515823000000001
#
# number of rings (size 3 to 8) (size 9 to 14) (size 15 to 20)
#    0.000    1.000    5.000    2.500    2.333    0.667 
#    0.000    0.000    0.000    0.000    4.333    0.000 
#    0.000    0.000    0.000    0.000    0.000    0.000 
#
# Total GULP energy -133694.282428 kJ/mol
# GULP energy per Si atom -5570.595101 kJ/mol
# Density = 1.847368 g / cm^3
# Si number density = 18.515823 Si / 1000 Ang^3
#
#
#
# Elastic Constant Matrix: (Units=GPa)
#
#
# Indices 1 2 3 4 5 6 
#
# 1 84.2277 36.2887 49.2771 0.0000 -20.2988 0.0000
# 2 36.2887 70.0604 45.2790 0.0000 -3.1477 0.0001
# 3 49.2771 45.2790 164.8754 0.0000 -18.7417 0.0000
# 4 0.0000 0.0000 0.0000 20.1103 0.0000 -5.6273
# 5 -20.2988 -3.1477 -18.7417 0.0000 37.2409 0.0000
# 6 0.0000 0.0001 0.0000 -5.6273 0.0000 27.2186
#
#
#
# Elastic Compliance Matrix: (Units=1/GPa)
#
#
# Indices 1 2 3 4 5 6 
#
# 1 0.018633 -0.007644 -0.002534 0.000000 0.008235 0.000000
# 2 -0.007644 0.020523 -0.003848 0.000000 -0.004368 0.000000
# 3 -0.002534 -0.003848 0.008152 0.000000 0.002396 0.000000
# 4 0.000000 0.000000 0.000000 0.052779 0.000000 0.010912
# 5 0.008235 -0.004368 0.002396 0.000000 0.032177 0.000000
# 6 0.000000 0.000000 0.000000 0.010912 0.000000 0.038996
#
#
# Mechanical properties :
#
#
# Convention : Reuss Voigt Hill
#
# Bulk Modulus (GPa) = 51.93034 64.53923 58.23479
# Shear Modulus (GPa) = 24.30375 29.46855 26.88615
#
# Velocity S-wave (km/s) = 3.62690 3.99373 3.81473
# Velocity P-wave (km/s) = 6.75623 7.49656 7.13600
#
# Compressibility (1/GPa) = 0.01925656
#
# Stress axis : x y z
#
# Youngs Moduli (GPa) = 53.66933 48.72509 122.67484
#
# Poissons Ratio (x) = 0.37243 0.31081
# Poissons Ratio (y) = 0.41023 0.47209
# Poissons Ratio (z) = 0.13598 0.18751
#
# Static dielectric constant tensor:
#      x y z
#    x 1.648950 0.000000 -0.008400 
#    y 0.000000 1.646150 0.000000 
#    z -0.008400 0.000000 1.671390 
# 
# From -- ./inp_files/213077.got.cif
#   From: 2010.05.17/outbox.cif.g08.bks.cpg/sg15_107_cif.got.tgz:213077.got - 2010.06.03 18:47:42.
