data_PCOD9294071
_publ_section_title
;
Structure prediction by ZEFSAII (Michael W. Deem and Ramdas Pophale) SiO2 
 PCOD9294071
Probable space group: C 2/C
;
_chemical_formula_sum "Si O2"
_cell_formula_units_Z 64
_cell_length_a 14.184460
_cell_length_b 12.054318
_cell_length_c 29.833344
_cell_angle_alpha 90.000000
_cell_angle_beta 35.414322
_cell_angle_gamma 90.000000
_cell_volume 2955.966563
_symmetry_space_group_name_H-M "C 2/C"
_symmetry_group_IT_number 15
_symmetry_cell_setting 'monoclinic'
loop_
_space_group_symop_operation_xyz
x,y,z
-x,y,1/2-z
-x,-y,-z
x,-y,1/2+z
1/2+x,1/2+y,z
1/2-x,1/2+y,1/2-z
1/2-x,1/2-y,-z
1/2+x,1/2-y,1/2+z
loop_
_atom_site_type_symbol
_atom_site_label
_atom_site_fract_x
_atom_site_fract_y
_atom_site_fract_z
Si Si1 0.727526 0.566351 0.555184
Si Si2 0.220261 0.185569 0.880335
Si Si3 0.104922 0.843383 0.328749
Si Si4 0.981428 0.597973 0.393439
Si Si5 0.410292 0.020641 0.331984
Si Si6 0.146579 0.216897 0.441136
Si Si7 0.732736 0.936619 0.873797
Si Si8 0.174198 0.165272 0.701127
O O1 0.533496 0.565593 0.626746
O O2 0.783587 0.685613 0.553721
O O3 0.789280 0.474902 0.566424
O O4 0.800653 0.562995 0.477438
O O5 0.204595 0.139049 0.835465
O O6 0.332696 0.100837 0.863011
O O7 0.291471 0.310029 0.850785
O O8 0.038149 0.192861 0.972385
O O9 0.011311 0.727846 0.375251
O O10 0.190055 0.827484 0.248109
O O11 0.078291 0.566615 0.400691
O O12 0.027116 0.540431 0.329324
O O13 0.500000 0.036228 0.250000
O O14 0.264647 0.110527 0.394560
O O15 0.177120 0.273040 0.380850
O O16 0.828387 0.038233 0.814575
O O17 0.000000 0.211423 0.750000
#
# Coordination Sequence:
#
# PCOD9294071 Si02
#       8
#     8   8   8   8   8   8   8   8
#     4  11  19  37  71  99 121 155 220 273 313 370
#     4  11  26  43  64  93 132 174 210 257 323 395
#     4  11  20  38  64  98 119 163 220 264 310 370
#     4  11  21  38  67  90 124 167 212 261 314 381
#     4  12  26  43  62  91 135 172 210 261 326 381
#     4  11  20  40  68  94 122 161 218 275 312 360
#     4  10  23  38  65  92 128 160 209 260 324 377
#     4  11  21  36  65  98 127 158 217 275 316 366
#
# _framework density 21.651125
#
# number of rings (size 3 to 8) (size 9 to 14) (size 15 to 20)
#    0.000    1.000    6.250    3.000    3.500    0.500 
#    0.000    0.625    5.500    0.000    0.000    0.000 
#    0.000    0.000    0.000    0.000    0.000    0.000 
#
# Total GULP energy -178625.642856 kJ/mol
# GULP energy per Si atom -5582.051339 kJ/mol
# Density = 2.160185 g / cm^3
# Si number density = 21.651125 Si / 1000 Ang^3
#
#
#
# Elastic Constant Matrix: (Units=GPa)
#
#
# Indices 1 2 3 4 5 6 
#
# 1 43.0320 19.4197 15.7945 0.0000 18.6544 0.0000
# 2 19.4197 91.6822 8.0139 0.0000 0.0825 0.0000
# 3 15.7945 8.0139 95.6876 0.0004 35.0057 -0.0001
# 4 0.0000 0.0000 0.0004 15.4194 0.0000 -1.6476
# 5 18.6544 0.0825 35.0057 0.0000 30.9598 0.0000
# 6 0.0000 0.0000 -0.0001 -1.6476 0.0000 18.6956
#
#
#
# Elastic Compliance Matrix: (Units=1/GPa)
#
#
# Indices 1 2 3 4 5 6 
#
# 1 0.037282 -0.008282 0.004689 0.000000 -0.027743 0.000000
# 2 -0.008282 0.012882 -0.002600 0.000000 0.007896 0.000000
# 3 0.004689 -0.002600 0.018633 0.000000 -0.023886 0.000000
# 4 0.000000 0.000000 0.000000 0.065470 0.000000 0.005770
# 5 -0.027743 0.007896 -0.023886 0.000000 0.076003 0.000000
# 6 0.000000 0.000000 0.000000 0.005770 0.000000 0.053997
#
#
# Mechanical properties :
#
#
# Convention : Reuss Voigt Hill
#
# Bulk Modulus (GPa) = 17.72729 35.20647 26.46688
# Shear Modulus (GPa) = 16.92302 25.49320 21.20811
#
# Velocity S-wave (km/s) = 2.79879 3.43513 3.13315
# Velocity P-wave (km/s) = 4.31853 5.65947 5.03385
#
# Compressibility (1/GPa) = 0.05641019
#
# Stress axis : x y z
#
# Youngs Moduli (GPa) = 26.82290 77.62982 53.66860
#
# Poissons Ratio (x) = 0.64291 -0.25167
# Poissons Ratio (y) = 0.22214 0.13956
# Poissons Ratio (z) = -0.12578 0.20187
#
# Static dielectric constant tensor:
#      x y z
#    x 1.843280 0.000000 -0.042520 
#    y 0.000000 1.778350 0.000000 
#    z -0.042520 0.000000 1.844260 
# 
# From -- ./inp_files/313592.got.cif
#   From: 2010.05.17/outbox.cif.g08.bks.cpg/sg15_157_cif.got.tgz:313592.got - 2010.06.03 18:47:42.
