data_PCOD9294212
_publ_section_title
;
Structure prediction by ZEFSAII (Michael W. Deem and Ramdas Pophale) SiO2 
 PCOD9294212
Probable space group: C 2/C
;
_chemical_formula_sum "Si O2"
_cell_formula_units_Z 40
_cell_length_a 11.335894
_cell_length_b 12.447872
_cell_length_c 25.576053
_cell_angle_alpha 90.000000
_cell_angle_beta 29.258755
_cell_angle_gamma 90.000000
_cell_volume 1763.905167
_symmetry_space_group_name_H-M "C 2/C"
_symmetry_group_IT_number 15
_symmetry_cell_setting 'monoclinic'
loop_
_space_group_symop_operation_xyz
x,y,z
-x,y,1/2-z
-x,-y,-z
x,-y,1/2+z
1/2+x,1/2+y,z
1/2-x,1/2+y,1/2-z
1/2-x,1/2-y,-z
1/2+x,1/2-y,1/2+z
loop_
_atom_site_type_symbol
_atom_site_label
_atom_site_fract_x
_atom_site_fract_y
_atom_site_fract_z
Si Si1 0.838104 0.368130 0.955504
Si Si2 0.545039 0.533476 0.346191
Si Si3 0.448716 0.978633 0.330606
Si Si4 0.414922 0.692109 0.479557
Si Si5 0.360732 0.891347 0.568248
O O1 0.856951 0.407295 0.888655
O O2 0.090352 0.376329 0.889434
O O3 0.750000 0.250000 0.000000
O O4 0.649573 0.450883 0.054447
O O5 0.591300 0.620770 0.374936
O O6 0.406352 0.591059 0.351917
O O7 0.791015 0.468834 0.241529
O O8 0.500000 0.970855 0.250000
O O9 0.254765 0.890073 0.422687
O O10 0.250000 0.750000 0.500000
O O11 0.483157 0.789645 0.491368
O O12 0.500000 0.000000 0.500000
#
# Coordination Sequence:
#
# PCOD9294212 Si02
#       5
#     8   8   8   8   8
#     4  10  23  39  64  93 130 172 220 273 333 395
#     4   9  21  41  63  91 132 169 219 273 328 401
#     4  11  25  40  63 100 130 170 226 270 339 407
#     4   9  20  41  68  92 131 175 214 272 346 401
#     4   9  19  40  66  92 123 173 217 267 332 399
#
# _framework density 22.676955
#
# number of rings (size 3 to 8) (size 9 to 14) (size 15 to 20)
#    0.000    2.400    0.000    1.200    5.600    5.600 
#    0.000    0.000    0.000    0.000    0.000    0.000 
#    0.000    0.000    0.000    0.000    0.000    0.000 
#
# Total GULP energy -111557.665119 kJ/mol
# GULP energy per Si atom -5577.883256 kJ/mol
# Density = 2.262534 g / cm^3
# Si number density = 22.676955 Si / 1000 Ang^3
#
#
#
# Elastic Constant Matrix: (Units=GPa)
#
#
# Indices 1 2 3 4 5 6 
#
# 1 100.0519 35.9794 7.8710 -0.0004 13.7966 -0.0023
# 2 35.9794 132.0877 27.1477 0.0001 15.2594 0.0020
# 3 7.8710 27.1477 55.5260 0.0006 -3.4899 -0.0065
# 4 -0.0004 0.0001 0.0006 14.5453 -0.0001 -3.3173
# 5 13.7966 15.2594 -3.4899 -0.0001 39.8671 0.0019
# 6 -0.0023 0.0020 -0.0065 -3.3173 0.0019 30.2959
#
#
#
# Elastic Compliance Matrix: (Units=1/GPa)
#
#
# Indices 1 2 3 4 5 6 
#
# 1 0.011400 -0.002659 -0.000503 0.000001 -0.002972 0.000001
# 2 -0.002659 0.009584 -0.004507 0.000000 -0.003143 -0.000002
# 3 -0.000503 -0.004507 0.020516 0.000000 0.003695 0.000004
# 4 0.000001 0.000000 0.000000 0.070511 0.000000 0.007721
# 5 -0.002972 -0.003143 0.003695 0.000000 0.027638 -0.000001
# 6 0.000001 -0.000002 0.000004 0.007721 -0.000001 0.033853
#
#
# Mechanical properties :
#
#
# Convention : Reuss Voigt Hill
#
# Bulk Modulus (GPa) = 38.21957 47.74022 42.97989
# Shear Modulus (GPa) = 25.30859 31.38616 28.34737
#
# Velocity S-wave (km/s) = 3.34436 3.72433 3.53944
# Velocity P-wave (km/s) = 5.63946 6.29223 5.97476
#
# Compressibility (1/GPa) = 0.02616461
#
# Stress axis : x y z
#
# Youngs Moduli (GPa) = 87.71760 104.33812 48.74131
#
# Poissons Ratio (x) = 0.27740 0.02451
# Poissons Ratio (y) = 0.23321 0.21966
# Poissons Ratio (z) = 0.04412 0.47021
#
# Static dielectric constant tensor:
#      x y z
#    x 1.908790 0.000000 -0.013140 
#    y 0.000000 1.821810 0.000000 
#    z -0.013140 0.000000 1.899300 
# 
# From -- ./inp_files/292377.got.cif
#   From: 2010.05.17/outbox.cif.g08.bks.cpg/sg15_147_cif.got.tgz:292377.got - 2010.06.03 18:47:42.
