data_PCOD9294000
_publ_section_title
;
Structure prediction by ZEFSAII (Michael W. Deem and Ramdas Pophale) SiO2 
 PCOD9294000
Probable space group: C 2/C
;
_chemical_formula_sum "Si O2"
_cell_formula_units_Z 60
_cell_length_a 23.300970
_cell_length_b 13.170435
_cell_length_c 9.237171
_cell_angle_alpha 90.000000
_cell_angle_beta 67.942089
_cell_angle_gamma 90.000000
_cell_volume 2627.249726
_symmetry_space_group_name_H-M "C 2/C"
_symmetry_group_IT_number 15
_symmetry_cell_setting 'monoclinic'
loop_
_space_group_symop_operation_xyz
x,y,z
-x,y,1/2-z
-x,-y,-z
x,-y,1/2+z
1/2+x,1/2+y,z
1/2-x,1/2+y,1/2-z
1/2-x,1/2-y,-z
1/2+x,1/2-y,1/2+z
loop_
_atom_site_type_symbol
_atom_site_label
_atom_site_fract_x
_atom_site_fract_y
_atom_site_fract_z
Si Si1 0.688149 0.255429 0.224088
Si Si2 0.825960 0.179657 0.085408
Si Si3 0.332944 0.932939 0.351170
Si Si4 0.414060 0.026337 0.501528
Si Si5 0.000000 0.681819 0.250000
Si Si6 0.306594 0.552544 0.584183
Si Si7 0.871536 0.784283 0.835421
Si Si8 0.563576 0.196376 0.471911
O O1 0.755339 0.209506 0.197698
O O2 0.683965 0.369712 0.291879
O O3 0.633692 0.191079 0.345785
O O4 0.672561 0.264442 0.069642
O O5 0.875952 0.211923 0.158220
O O6 0.833891 0.059271 0.064804
O O7 0.266537 0.964393 0.359312
O O8 0.329025 0.815017 0.396975
O O9 0.353077 0.998866 0.467591
O O10 0.388552 0.941464 0.181962
O O11 0.449614 0.108425 0.372539
O O12 0.452953 0.920573 0.477189
O O13 0.973194 0.737837 0.132890
O O14 0.336117 0.615909 0.423569
O O15 0.929522 0.761299 0.887043
#
# Coordination Sequence:
#
# PCOD9294000 Si02
#       8
#     8   8   8   8   4   8   8   8
#     4  10  23  38  55  92 126 167 216 253 304 379
#     4  11  22  35  62  88 129 167 211 255 309 383
#     4  11  23  36  60  87 134 172 211 247 309 379
#     4  11  24  38  60  90 123 175 210 252 312 377
#     4  12  24  42  64  88 124 164 220 268 316 384
#     4  11  22  37  59  92 132 176 205 249 313 375
#     4  10  23  39  57  89 126 168 211 263 299 375
#     4  10  23  41  59  82 124 165 208 262 314 361
#
# _framework density 22.837572000000002
#
# number of rings (size 3 to 8) (size 9 to 14) (size 15 to 20)
#    0.000    1.333    2.667    2.400    9.333    0.000 
#    0.000    0.000    0.000    0.000    0.000   14.933 
#    0.000    0.000    0.000    0.000    0.000    0.000 
#
# Total GULP energy -167581.153184 kJ/mol
# GULP energy per Si atom -5586.038439 kJ/mol
# Density = 2.278559 g / cm^3
# Si number density = 22.837572 Si / 1000 Ang^3
#
#
#
# Elastic Constant Matrix: (Units=GPa)
#
#
# Indices 1 2 3 4 5 6 
#
# 1 61.0412 5.8152 40.7745 0.0000 27.0188 0.0000
# 2 5.8152 84.3069 13.9161 0.0000 3.1217 0.0000
# 3 40.7745 13.9161 95.2000 0.0000 38.2285 0.0000
# 4 0.0000 0.0000 0.0000 28.1848 0.0000 4.1844
# 5 27.0188 3.1217 38.2285 0.0000 47.0983 0.0000
# 6 0.0000 0.0000 0.0000 4.1844 0.0000 18.6417
#
#
#
# Elastic Compliance Matrix: (Units=1/GPa)
#
#
# Indices 1 2 3 4 5 6 
#
# 1 0.024999 -0.000208 -0.007304 0.000000 -0.008399 0.000000
# 2 -0.000208 0.012185 -0.002100 0.000000 0.001016 0.000000
# 3 -0.007304 -0.002100 0.018101 0.000000 -0.010363 0.000000
# 4 0.000000 0.000000 0.000000 0.036703 0.000000 -0.008238
# 5 -0.008399 0.001016 -0.010363 0.000000 0.034394 0.000000
# 6 0.000000 0.000000 0.000000 -0.008238 0.000000 0.055492
#
#
# Mechanical properties :
#
#
# Convention : Reuss Voigt Hill
#
# Bulk Modulus (GPa) = 27.73147 40.17331 33.95239
# Shear Modulus (GPa) = 23.46117 30.78778 27.12447
#
# Velocity S-wave (km/s) = 3.20864 3.67566 3.45006
# Velocity P-wave (km/s) = 5.08885 5.97018 5.54705
#
# Compressibility (1/GPa) = 0.03606012
#
# Stress axis : x y z
#
# Youngs Moduli (GPa) = 40.00205 82.06940 55.24613
#
# Poissons Ratio (x) = 0.01704 0.40353
# Poissons Ratio (y) = 0.00831 0.11603
# Poissons Ratio (z) = 0.29218 0.17237
#
# Static dielectric constant tensor:
#      x y z
#    x 1.872080 0.000000 0.043580 
#    y 0.000000 1.859550 0.000000 
#    z 0.043580 0.000000 1.910050 
# 
# From -- ./inp_files/61538.got.cif
#   From: 2010.05.17/outbox.cif.g08.bks.cpg/sg15_31_cif.got.tgz:61538.got - 2010.06.03 18:47:42.
