data_PCOD9294510
_publ_section_title
;
Structure prediction by ZEFSAII (Michael W. Deem and Ramdas Pophale) SiO2 
 PCOD9294510
Probable space group: C 2/C
;
_chemical_formula_sum "Si O2"
_cell_formula_units_Z 52
_cell_length_a 19.417303
_cell_length_b 26.771188
_cell_length_c 5.274944
_cell_angle_alpha 90.000000
_cell_angle_beta 116.608398
_cell_angle_gamma 90.000000
_cell_volume 2451.630194
_symmetry_space_group_name_H-M "C 2/C"
_symmetry_group_IT_number 15
_symmetry_cell_setting 'monoclinic'
loop_
_space_group_symop_operation_xyz
x,y,z
-x,y,1/2-z
-x,-y,-z
x,-y,1/2+z
1/2+x,1/2+y,z
1/2-x,1/2+y,1/2-z
1/2-x,1/2-y,-z
1/2+x,1/2-y,1/2+z
loop_
_atom_site_type_symbol
_atom_site_label
_atom_site_fract_x
_atom_site_fract_y
_atom_site_fract_z
Si Si1 0.767227 0.705164 0.837122
Si Si2 0.394310 0.282825 0.536525
Si Si3 0.500000 0.098190 0.750000
Si Si4 0.135659 0.532173 0.191528
Si Si5 0.612772 0.821486 0.301355
Si Si6 0.581385 0.655253 0.940879
Si Si7 0.750123 0.120172 0.307656
O O1 0.696111 0.713185 0.531344
O O2 0.854591 0.705670 0.891076
O O3 0.750000 0.750000 0.000000
O O4 0.756124 0.650972 0.942170
O O5 0.413193 0.224090 0.563189
O O6 0.402405 0.310011 0.279595
O O7 0.433746 0.311600 0.833269
O O8 0.440233 0.065340 0.491602
O O9 0.449486 0.135844 0.836836
O O10 0.134506 0.510215 0.472129
O O11 0.211081 0.566378 0.273528
O O12 0.689868 0.848879 0.533146
O O13 0.500000 0.628095 0.750000
O O14 0.659529 0.623192 0.113816
#
# Coordination Sequence:
#
# PCOD9294510 Si02
#       7
#     8   8   4   8   8   8   8
#     4  11  20  37  63  92 129 175 229 273 319 383
#     4  11  22  37  58  90 129 182 220 256 315 375
#     4  10  26  42  66  96 134 180 214 292 338 402
#     4  11  26  49  72  96 128 168 226 287 353 406
#     4  11  21  39  57  89 133 171 233 269 315 385
#     4  11  24  39  60  91 135 170 211 264 326 394
#     4  10  23  40  67  94 117 174 222 272 334 398
#
# _framework density 21.210377000000001
#
# number of rings (size 3 to 8) (size 9 to 14) (size 15 to 20)
#    0.000    1.231    3.077    3.231    6.462    0.000 
#    2.769    0.000    0.000    0.923    0.000    0.000 
#    0.000    0.000    0.000    0.000    0.000    0.000 
#
# Total GULP energy -145116.513774 kJ/mol
# GULP energy per Si atom -5581.404376 kJ/mol
# Density = 2.116210 g / cm^3
# Si number density = 21.210377 Si / 1000 Ang^3
#
#
#
# Elastic Constant Matrix: (Units=GPa)
#
#
# Indices 1 2 3 4 5 6 
#
# 1 99.4718 27.2162 28.8421 0.0000 28.6661 0.0000
# 2 27.2162 66.3861 11.4956 0.0000 16.9699 0.0000
# 3 28.8421 11.4956 61.8259 0.0000 12.4597 0.0000
# 4 0.0000 0.0000 0.0000 20.1232 0.0000 7.4383
# 5 28.6661 16.9699 12.4597 0.0000 46.2210 0.0000
# 6 0.0000 0.0000 0.0000 7.4383 0.0000 34.4037
#
#
#
# Elastic Compliance Matrix: (Units=1/GPa)
#
#
# Indices 1 2 3 4 5 6 
#
# 1 0.014150 -0.003384 -0.004709 0.000000 -0.006264 0.000000
# 2 -0.003384 0.017663 -0.000869 0.000000 -0.004152 0.000000
# 3 -0.004709 -0.000869 0.018907 0.000000 -0.001857 0.000000
# 4 0.000000 0.000000 0.000000 0.054010 0.000000 -0.011677
# 5 -0.006264 -0.004152 -0.001857 0.000000 0.027545 0.000000
# 6 0.000000 0.000000 0.000000 -0.011677 0.000000 0.031591
#
#
# Mechanical properties :
#
#
# Convention : Reuss Voigt Hill
#
# Bulk Modulus (GPa) = 30.49265 40.31018 35.40142
# Shear Modulus (GPa) = 25.94418 30.82490 28.38454
#
# Velocity S-wave (km/s) = 3.50120 3.81634 3.66216
# Velocity P-wave (km/s) = 5.54545 6.20206 5.88292
#
# Compressibility (1/GPa) = 0.03279479
#
# Stress axis : x y z
#
# Youngs Moduli (GPa) = 70.67346 56.61709 52.89010
#
# Poissons Ratio (x) = 0.19161 0.24908
# Poissons Ratio (y) = 0.23918 0.04594
# Poissons Ratio (z) = 0.33282 0.04918
#
# Static dielectric constant tensor:
#      x y z
#    x 1.932560 0.000000 -0.020840 
#    y 0.000000 1.748260 0.000000 
#    z -0.020840 0.000000 1.857350 
# 
# From -- ./inp_files/13959.got.cif
#   From: 2010.05.17/outbox.cif.g08.bks.cpg/sg15_7_cif.got.tgz:13959.got - 2010.06.03 18:47:42.
