data_PCOD9294007
_publ_section_title
;
Structure prediction by ZEFSAII (Michael W. Deem and Ramdas Pophale) SiO2 
 PCOD9294007
Probable space group: C 2/C
;
_chemical_formula_sum "Si O2"
_cell_formula_units_Z 40
_cell_length_a 12.799760
_cell_length_b 26.896701
_cell_length_c 5.311834
_cell_angle_alpha 90.000000
_cell_angle_beta 87.729837
_cell_angle_gamma 90.000000
_cell_volume 1827.276841
_symmetry_space_group_name_H-M "C 2/C"
_symmetry_group_IT_number 15
_symmetry_cell_setting 'monoclinic'
loop_
_space_group_symop_operation_xyz
x,y,z
-x,y,1/2-z
-x,-y,-z
x,-y,1/2+z
1/2+x,1/2+y,z
1/2-x,1/2+y,1/2-z
1/2-x,1/2-y,-z
1/2+x,1/2-y,1/2+z
loop_
_atom_site_type_symbol
_atom_site_label
_atom_site_fract_x
_atom_site_fract_y
_atom_site_fract_z
Si Si1 0.929434 0.750219 0.507015
Si Si2 0.751072 0.831602 0.497168
Si Si3 0.121230 0.479687 0.196227
Si Si4 0.955451 0.943358 0.003688
Si Si5 0.740454 0.895455 0.999496
O O1 0.852603 0.797539 0.531820
O O2 0.851431 0.703236 0.493712
O O3 0.000000 0.746665 0.750000
O O4 0.000000 0.753164 0.250000
O O5 0.759663 0.857050 0.223443
O O6 0.741397 0.870172 0.728396
O O7 0.166779 0.484380 0.473672
O O8 0.135936 0.425420 0.077585
O O9 0.000000 0.491704 0.250000
O O10 0.832100 0.936884 0.008755
O O11 0.000000 0.919080 0.250000
O O12 0.000000 0.918522 0.750000
O O13 0.000000 0.000000 0.000000
#
# Coordination Sequence:
#
# PCOD9294007 Si02
#       5
#     8   8   8   8   8
#     4  11  24  46  73  94 139 178 208 276 345 419
#     4  11  26  43  65 109 127 171 232 264 344 406
#     4  10  23  41  63  89 123 173 224 270 333 384
#     4  10  23  38  57  89 125 174 220 258 319 394
#     4  12  24  40  68  93 139 169 221 295 311 396
#
# _framework density 21.890498000000001
#
# number of rings (size 3 to 8) (size 9 to 14) (size 15 to 20)
#    0.000    1.200    0.000    4.800    5.600   10.400 
#    0.000    0.000    0.000    0.000    0.000    0.000 
#    0.000    0.000    0.000    0.000    0.000    0.000 
#
# Total GULP energy -111738.005543 kJ/mol
# GULP energy per Si atom -5586.900277 kJ/mol
# Density = 2.184067 g / cm^3
# Si number density = 21.890498 Si / 1000 Ang^3
#
#
#
# Elastic Constant Matrix: (Units=GPa)
#
#
# Indices 1 2 3 4 5 6 
#
# 1 64.5418 30.6091 61.9550 0.0000 -0.8250 0.0000
# 2 30.6091 70.2967 21.0345 0.0000 -1.1773 0.0000
# 3 61.9550 21.0345 171.9398 0.0000 3.7861 0.0000
# 4 0.0000 0.0000 0.0000 23.7277 0.0000 -7.1039
# 5 -0.8250 -1.1773 3.7861 0.0000 31.1483 0.0000
# 6 0.0000 0.0000 0.0000 -7.1039 0.0000 19.2883
#
#
#
# Elastic Compliance Matrix: (Units=1/GPa)
#
#
# Indices 1 2 3 4 5 6 
#
# 1 0.029154 -0.009877 -0.009331 0.000000 0.001533 0.000000
# 2 -0.009877 0.018131 0.001335 0.000000 0.000261 0.000000
# 3 -0.009331 0.001335 0.009043 0.000000 -0.001296 0.000000
# 4 0.000000 0.000000 0.000000 0.047368 0.000000 0.017446
# 5 0.001533 0.000261 -0.001296 0.000000 0.032313 0.000000
# 6 0.000000 0.000000 0.000000 0.017446 0.000000 0.058270
#
#
# Mechanical properties :
#
#
# Convention : Reuss Voigt Hill
#
# Bulk Modulus (GPa) = 48.58214 59.33061 53.95638
# Shear Modulus (GPa) = 21.10731 27.71150 24.40941
#
# Velocity S-wave (km/s) = 3.10856 3.56183 3.34289
# Velocity P-wave (km/s) = 5.92669 6.63910 6.29299
#
# Compressibility (1/GPa) = 0.02058370
#
# Stress axis : x y z
#
# Youngs Moduli (GPa) = 34.30040 55.15430 110.57941
#
# Poissons Ratio (x) = 0.54475 1.03177
# Poissons Ratio (y) = 0.33878 -0.14763
# Poissons Ratio (z) = 0.32004 -0.07364
#
# Static dielectric constant tensor:
#      x y z
#    x 1.831110 0.000000 0.011970 
#    y 0.000000 1.794680 0.000000 
#    z 0.011970 0.000000 1.843830 
# 
# From -- ./inp_files/4921.got.cif
#   From: 2010.05.17/outbox.cif.g08.bks.cpg/sg15_3_cif.got.tgz:4921.got - 2010.06.03 18:47:42.
