data_PCOD9294565
_publ_section_title
;
Structure prediction by ZEFSAII (Michael W. Deem and Ramdas Pophale) SiO2 
 PCOD9294565
Probable space group: C 2/C
;
_chemical_formula_sum "Si O2"
_cell_formula_units_Z 60
_cell_length_a 8.586264
_cell_length_b 23.341611
_cell_length_c 20.568500
_cell_angle_alpha 90.000000
_cell_angle_beta 138.738085
_cell_angle_gamma 90.000000
_cell_volume 2718.653766
_symmetry_space_group_name_H-M "C 2/C"
_symmetry_group_IT_number 15
_symmetry_cell_setting 'monoclinic'
loop_
_space_group_symop_operation_xyz
x,y,z
-x,y,1/2-z
-x,-y,-z
x,-y,1/2+z
1/2+x,1/2+y,z
1/2-x,1/2+y,1/2-z
1/2-x,1/2-y,-z
1/2+x,1/2-y,1/2+z
loop_
_atom_site_type_symbol
_atom_site_label
_atom_site_fract_x
_atom_site_fract_y
_atom_site_fract_z
Si Si1 0.477419 0.208475 0.340906
Si Si2 0.476465 0.588768 0.886569
Si Si3 0.290917 0.159179 0.520726
Si Si4 0.270272 0.297566 0.353869
Si Si5 0.044328 0.433361 0.019128
Si Si6 0.920892 0.581912 0.113414
Si Si7 0.123107 0.233636 0.119509
Si Si8 0.000000 0.488136 0.250000
O O1 0.393653 0.236071 0.382069
O O2 0.484391 0.141146 0.328226
O O3 0.307185 0.238246 0.235352
O O4 0.742875 0.224036 0.405661
O O5 0.403337 0.654552 0.853388
O O6 0.671249 0.574803 0.892081
O O7 0.642948 0.581925 0.003925
O O8 0.238430 0.550515 0.816184
O O9 0.242281 0.169467 0.581435
O O10 0.401088 0.100413 0.529427
O O11 0.475709 0.209318 0.564440
O O12 0.044231 0.180314 0.413440
O O13 0.000000 0.289570 0.250000
O O14 0.000000 0.500000 0.000000
O O15 0.961480 0.414304 0.921291
O O16 0.971106 0.529375 0.177440
#
# Coordination Sequence:
#
# PCOD9294565 Si02
#       8
#     8   8   8   8   8   8   8   4
#     4  11  23  44  65 109 143 182 249 296 374 433
#     4  10  25  45  74 106 142 190 246 295 369 441
#     4  11  24  43  68  99 144 191 236 293 371 433
#     4  12  24  41  70 107 142 189 239 306 362 446
#     4  10  26  47  68 102 143 190 242 300 368 437
#     4  10  26  43  74 107 142 189 240 309 361 442
#     4  10  23  40  70 100 144 186 232 302 363 444
#     4  12  22  48  78 112 144 192 254 310 372 440
#
# _framework density 22.069745999999999
#
# number of rings (size 3 to 8) (size 9 to 14) (size 15 to 20)
#    0.800    0.533    2.000    2.800    5.600    3.200 
#    0.000    3.333    0.000    0.000    0.000    0.000 
#    0.000    0.000    0.000    0.000    0.000    0.000 
#
# Total GULP energy -167127.010793 kJ/mol
# GULP energy per Si atom -5570.900360 kJ/mol
# Density = 2.201951 g / cm^3
# Si number density = 22.069746 Si / 1000 Ang^3
#
#
#
# Elastic Constant Matrix: (Units=GPa)
#
#
# Indices 1 2 3 4 5 6 
#
# 1 96.0959 48.6335 19.7496 0.0000 16.8337 -0.0001
# 2 48.6335 121.9279 26.2280 0.0000 22.2531 -0.0001
# 3 19.7496 26.2280 82.6320 0.0002 7.3579 -0.0004
# 4 0.0000 0.0000 0.0002 -7.9487 0.0001 42.8075
# 5 16.8337 22.2531 7.3579 0.0001 31.4363 -0.0003
# 6 -0.0001 -0.0001 -0.0004 42.8075 -0.0003 -26.8170
#
#
#
# Elastic Compliance Matrix: (Units=1/GPa)
#
#
# Indices 1 2 3 4 5 6 
#
# 1 0.013618 -0.004409 -0.001515 0.000000 -0.003816 0.000000
# 2 -0.004409 0.011357 -0.002089 0.000000 -0.005189 0.000000
# 3 -0.001515 -0.002089 0.013198 0.000000 -0.000799 0.000000
# 4 0.000000 0.000000 0.000000 0.016561 0.000000 0.026435
# 5 -0.003816 -0.005189 -0.000799 0.000000 0.037714 0.000000
# 6 0.000000 0.000000 0.000000 0.026435 0.000000 0.004909
#
#
# Mechanical properties :
#
#
# Convention : Reuss Voigt Hill
#
# Bulk Modulus (GPa) = 45.15539 54.43089 49.79314
# Shear Modulus (GPa) = 41.40282 13.07045 27.23664
#
# Velocity S-wave (km/s) = 4.33598 2.43623 3.51681
# Velocity P-wave (km/s) = 6.75073 5.71229 6.25310
#
# Compressibility (1/GPa) = 0.02214575
#
# Stress axis : x y z
#
# Youngs Moduli (GPa) = 73.43382 88.05390 75.76802
#
# Poissons Ratio (x) = 0.38825 0.11482
# Poissons Ratio (y) = 0.32379 0.15826
# Poissons Ratio (z) = 0.11128 0.18393
#
# Static dielectric constant tensor:
#      x y z
#    x 1.961130 0.000000 -0.321040 
#    y 0.000000 2.190220 0.000000 
#    z -0.321040 0.000000 2.512570 
# 
# From -- ./inp_files/266244.got.cif
#   From: 2010.05.17/outbox.cif.g08.bks.cpg/sg15_134_cif.got.tgz:266244.got - 2010.06.03 18:47:42.
