data_PCOD9294665
_publ_section_title
;
Structure prediction by ZEFSAII (Michael W. Deem and Ramdas Pophale) SiO2 
 PCOD9294665
Probable space group: C 2/C
;
_chemical_formula_sum "Si O2"
_cell_formula_units_Z 56
_cell_length_a 26.802402
_cell_length_b 15.093933
_cell_length_c 8.970078
_cell_angle_alpha 90.000000
_cell_angle_beta 40.028796
_cell_angle_gamma 90.000000
_cell_volume 2333.994574
_symmetry_space_group_name_H-M "C 2/C"
_symmetry_group_IT_number 15
_symmetry_cell_setting 'monoclinic'
loop_
_space_group_symop_operation_xyz
x,y,z
-x,y,1/2-z
-x,-y,-z
x,-y,1/2+z
1/2+x,1/2+y,z
1/2-x,1/2+y,1/2-z
1/2-x,1/2-y,-z
1/2+x,1/2-y,1/2+z
loop_
_atom_site_type_symbol
_atom_site_label
_atom_site_fract_x
_atom_site_fract_y
_atom_site_fract_z
Si Si1 0.329033 0.954261 0.220778
Si Si2 0.064010 0.781873 0.473734
Si Si3 0.541534 0.080024 0.494557
Si Si4 0.201172 0.743985 0.376316
Si Si5 0.134640 0.273995 0.354885
Si Si6 0.739590 0.554185 0.212356
Si Si7 0.572536 0.394446 0.163094
O O1 0.391507 0.875220 0.078348
O O2 0.259190 0.933586 0.494826
O O3 0.289422 0.973291 0.156042
O O4 0.373746 0.040445 0.172855
O O5 0.048013 0.684234 0.434847
O O6 0.148217 0.779136 0.363608
O O7 0.061344 0.858738 0.355948
O O8 0.000000 0.793763 0.750000
O O9 0.500000 0.084830 0.750000
O O10 0.500000 0.000000 0.500000
O O11 0.151666 0.746964 0.643116
O O12 0.284993 0.780790 0.233975
O O13 0.224488 0.642053 0.295229
O O14 0.086964 0.195282 0.533783
O O15 0.650646 0.549690 0.461190
O O16 0.500000 0.440217 0.250000
#
# Coordination Sequence:
#
# PCOD9294665 Si02
#       7
#     8   8   8   8   8   8   8
#     4  11  22  39  64  94 130 169 215 261 325 379
#     4  11  24  38  62  89 131 170 212 265 316 389
#     4  11  25  37  57  93 136 170 206 255 321 394
#     4   9  18  41  55  92 123 160 209 263 311 380
#     4   9  21  34  67  86 122 163 209 261 318 381
#     4  10  23  41  63  92 128 170 213 273 316 391
#     4  11  25  43  64  92 128 170 225 267 329 382
#
# _framework density 23.993202
#
# number of rings (size 3 to 8) (size 9 to 14) (size 15 to 20)
#    0.000    1.714    1.429    2.571   12.000    3.429 
#    0.000    0.714    0.000    0.857    0.000    0.000 
#    0.000    0.000    0.000    0.000    0.000    0.000 
#
# Total GULP energy -156393.397949 kJ/mol
# GULP energy per Si atom -5585.478498 kJ/mol
# Density = 2.393859 g / cm^3
# Si number density = 23.993202 Si / 1000 Ang^3
#
#
#
# Elastic Constant Matrix: (Units=GPa)
#
#
# Indices 1 2 3 4 5 6 
#
# 1 115.9903 -7.0205 17.9245 0.0000 -6.7770 0.0000
# 2 -7.0205 21.3453 -8.0803 0.0000 4.1467 0.0000
# 3 17.9245 -8.0803 62.8980 0.0000 -12.7393 0.0000
# 4 0.0000 0.0000 0.0000 -24.5366 0.0000 14.9351
# 5 -6.7770 4.1467 -12.7393 0.0000 22.4815 0.0000
# 6 0.0000 0.0000 0.0000 14.9351 0.0000 22.1429
#
#
#
# Elastic Compliance Matrix: (Units=1/GPa)
#
#
# Indices 1 2 3 4 5 6 
#
# 1 0.009137 0.001975 -0.002108 0.000000 0.001195 0.000000
# 2 0.001975 0.050450 0.004693 0.000000 -0.006051 0.000000
# 3 -0.002108 0.004693 0.018976 0.000000 0.009252 0.000000
# 4 0.000000 0.000000 0.000000 -0.028893 0.000000 0.019488
# 5 0.001195 -0.006051 0.009252 0.000000 0.051200 0.000000
# 6 0.000000 0.000000 0.000000 0.019488 0.000000 0.032017
#
#
# Mechanical properties :
#
#
# Convention : Reuss Voigt Hill
#
# Bulk Modulus (GPa) = 11.40478 22.87567 17.14023
# Shear Modulus (GPa) = 32.68090 17.17821 24.92955
#
# Velocity S-wave (km/s) = 3.69465 2.67865 3.22689
# Velocity P-wave (km/s) = 4.79211 4.37285 4.58727
#
# Compressibility (1/GPa) = 0.08768250
#
# Stress axis : x y z
#
# Youngs Moduli (GPa) = 109.45077 19.82153 52.69758
#
# Poissons Ratio (x) = -0.03914 0.11108
# Poissons Ratio (y) = -0.21615 -0.24730
# Poissons Ratio (z) = 0.23071 -0.09302
#
# Static dielectric constant tensor:
#      x y z
#    x 1.910420 0.000000 -0.036540 
#    y 0.000000 1.995670 0.000000 
#    z -0.036540 0.000000 1.877250 
# 
# From -- ./inp_files/62692.got.cif
#   From: 2010.05.17/outbox.cif.g08.bks.cpg/sg15_32_cif.got.tgz:62692.got - 2010.06.03 18:47:42.
