data_PCOD9294288
_publ_section_title
;
Structure prediction by ZEFSAII (Michael W. Deem and Ramdas Pophale) SiO2 
 PCOD9294288
Probable space group: C 2/C
;
_chemical_formula_sum "Si O2"
_cell_formula_units_Z 40
_cell_length_a 17.782439
_cell_length_b 5.453261
_cell_length_c 15.788863
_cell_angle_alpha 90.000000
_cell_angle_beta 88.650072
_cell_angle_gamma 90.000000
_cell_volume 1530.657124
_symmetry_space_group_name_H-M "C 2/C"
_symmetry_group_IT_number 15
_symmetry_cell_setting 'monoclinic'
loop_
_space_group_symop_operation_xyz
x,y,z
-x,y,1/2-z
-x,-y,-z
x,-y,1/2+z
1/2+x,1/2+y,z
1/2-x,1/2+y,1/2-z
1/2-x,1/2-y,-z
1/2+x,1/2-y,1/2+z
loop_
_atom_site_type_symbol
_atom_site_label
_atom_site_fract_x
_atom_site_fract_y
_atom_site_fract_z
Si Si1 0.093280 0.610285 0.615212
Si Si2 0.245478 0.313312 0.632719
Si Si3 0.391814 0.292549 0.704537
Si Si4 0.315839 0.438213 0.978674
Si Si5 0.536162 0.204221 0.342694
O O1 0.174313 0.491927 0.634210
O O2 0.074734 0.762152 0.701169
O O3 0.107197 0.792075 0.536470
O O4 0.033632 0.395168 0.599819
O O5 0.301634 0.327479 0.708898
O O6 0.303859 0.366245 0.553090
O O7 0.206021 0.061046 0.609355
O O8 0.426354 0.528671 0.655138
O O9 0.406647 0.027409 0.660270
O O10 0.250000 0.250000 0.000000
O O11 0.500000 0.205504 0.250000
#
# Coordination Sequence:
#
# PCOD9294288 Si02
#       5
#     8   8   8   8   8
#     4  10  23  39  70  92 131 181 220 268 341 402
#     4  10  23  40  68  97 129 172 227 281 324 398
#     4  11  25  39  66 101 134 164 225 280 324 385
#     4   9  21  42  65  91 135 173 220 267 345 391
#     4  10  23  42  60  95 138 176 207 272 342 392
#
# _framework density 26.132566000000001
#
# number of rings (size 3 to 8) (size 9 to 14) (size 15 to 20)
#    0.000    2.000    0.000    1.800   16.800    0.000 
#    0.000    2.000    0.000    0.000    0.000    0.000 
#    0.000    0.000    0.000    0.000    0.000    0.000 
#
# Total GULP energy -111695.544482 kJ/mol
# GULP energy per Si atom -5584.777224 kJ/mol
# Density = 2.607309 g / cm^3
# Si number density = 26.132566 Si / 1000 Ang^3
#
#
#
# Elastic Constant Matrix: (Units=GPa)
#
#
# Indices 1 2 3 4 5 6 
#
# 1 114.6591 52.7956 7.7700 0.0000 -3.0675 0.0000
# 2 52.7956 169.9713 27.0301 0.0000 -7.1823 0.0000
# 3 7.7700 27.0301 52.5766 0.0000 -9.0692 0.0000
# 4 0.0000 0.0000 0.0000 27.0683 0.0000 -3.8945
# 5 -3.0675 -7.1823 -9.0692 0.0000 35.4032 0.0000
# 6 0.0000 0.0000 0.0000 -3.8945 0.0000 43.8065
#
#
#
# Elastic Compliance Matrix: (Units=1/GPa)
#
#
# Indices 1 2 3 4 5 6 
#
# 1 0.010181 -0.003179 0.000178 0.000000 0.000283 0.000000
# 2 -0.003179 0.007407 -0.003271 0.000000 0.000389 0.000000
# 3 0.000178 -0.003271 0.021514 0.000000 0.004863 0.000000
# 4 0.000000 0.000000 0.000000 0.037422 0.000000 0.003327
# 5 0.000283 0.000389 0.004863 0.000000 0.029595 0.000000
# 6 0.000000 0.000000 0.000000 0.003327 0.000000 0.023123
#
#
# Mechanical properties :
#
#
# Convention : Reuss Voigt Hill
#
# Bulk Modulus (GPa) = 37.65184 56.93316 47.29250
# Shear Modulus (GPa) = 33.19191 37.89635 35.54413
#
# Velocity S-wave (km/s) = 3.56776 3.81223 3.69202
# Velocity P-wave (km/s) = 5.60457 6.41958 6.02587
#
# Compressibility (1/GPa) = 0.02655913
#
# Stress axis : x y z
#
# Youngs Moduli (GPa) = 98.22574 135.00071 46.48106
#
# Poissons Ratio (x) = 0.42912 -0.00829
# Poissons Ratio (y) = 0.31223 0.15205
# Poissons Ratio (z) = -0.01753 0.44162
#
# Static dielectric constant tensor:
#      x y z
#    x 2.158920 0.000000 -0.033610 
#    y 0.000000 2.052520 0.000000 
#    z -0.033610 0.000000 2.115890 
# 
# From -- ./inp_files/208097.got.cif
#   From: 2010.05.17/outbox.cif.g08.bks.cpg/sg15_105_cif.got.tgz:208097.got - 2010.06.03 18:47:42.
