data_PCOD9294403
_publ_section_title
;
Structure prediction by ZEFSAII (Michael W. Deem and Ramdas Pophale) SiO2 
 PCOD9294403
Probable space group: C 2/C
;
_chemical_formula_sum "Si O2"
_cell_formula_units_Z 48
_cell_length_a 16.900153
_cell_length_b 20.511698
_cell_length_c 13.077713
_cell_angle_alpha 90.000000
_cell_angle_beta 32.641665
_cell_angle_gamma 90.000000
_cell_volume 2445.240168
_symmetry_space_group_name_H-M "C 2/C"
_symmetry_group_IT_number 15
_symmetry_cell_setting 'monoclinic'
loop_
_space_group_symop_operation_xyz
x,y,z
-x,y,1/2-z
-x,-y,-z
x,-y,1/2+z
1/2+x,1/2+y,z
1/2-x,1/2+y,1/2-z
1/2-x,1/2-y,-z
1/2+x,1/2-y,1/2+z
loop_
_atom_site_type_symbol
_atom_site_label
_atom_site_fract_x
_atom_site_fract_y
_atom_site_fract_z
Si Si1 0.113422 0.040465 0.805788
Si Si2 0.005578 0.817296 0.365249
Si Si3 0.735700 0.256345 0.257325
Si Si4 0.161515 0.399904 0.289842
Si Si5 0.339757 0.426126 0.894446
Si Si6 0.599409 0.149601 0.539457
O O1 0.266699 0.059195 0.695739
O O2 0.036602 0.108096 0.860637
O O3 0.142426 0.996631 0.675427
O O4 0.000000 0.000000 0.000000
O O5 0.863284 0.790434 0.578200
O O6 0.000000 0.810173 0.250000
O O7 0.138516 0.775521 0.266117
O O8 0.795083 0.324131 0.238893
O O9 0.637364 0.218092 0.446365
O O10 0.990787 0.395103 0.443564
O O11 0.245226 0.426761 0.099683
O O12 0.500000 0.400074 0.750000
O O13 0.251081 0.382790 0.909994
O O14 0.500000 0.156460 0.750000
#
# Coordination Sequence:
#
# PCOD9294403 Si02
#       6
#     8   8   8   8   8   8
#     4  11  22  40  65  95 127 174 221 267 324 390
#     4  11  24  41  69  95 130 172 221 273 324 394
#     4  11  22  43  65  97 133 170 216 270 336 391
#     4  10  23  40  64  94 130 169 214 269 330 387
#     4  11  22  38  64  93 129 169 223 267 318 393
#     4  10  23  41  63  97 135 171 214 274 331 392
#
# _framework density 19.629974000000001
#
# number of rings (size 3 to 8) (size 9 to 14) (size 15 to 20)
#    0.000    1.333    3.333    2.000    2.333    4.000 
#    0.000    0.000    0.000    0.000    0.000    0.000 
#    0.000    0.000    0.000    0.000    0.000    0.000 
#
# Total GULP energy -134032.782589 kJ/mol
# GULP energy per Si atom -5584.699275 kJ/mol
# Density = 1.958529 g / cm^3
# Si number density = 19.629974 Si / 1000 Ang^3
#
#
#
# Elastic Constant Matrix: (Units=GPa)
#
#
# Indices 1 2 3 4 5 6 
#
# 1 143.8242 60.0880 45.7129 -0.0008 -24.6978 0.0021
# 2 60.0880 90.9105 37.1655 0.0003 -1.4763 0.0036
# 3 45.7129 37.1655 63.4137 -0.0014 -10.1377 0.0034
# 4 -0.0008 0.0003 -0.0014 27.6368 0.0000 12.6763
# 5 -24.6978 -1.4763 -10.1377 0.0000 39.4183 -0.0030
# 6 0.0021 0.0036 0.0034 12.6763 -0.0030 31.8208
#
#
#
# Elastic Compliance Matrix: (Units=1/GPa)
#
#
# Indices 1 2 3 4 5 6 
#
# 1 0.011813 -0.006087 -0.003964 0.000000 0.006154 0.000001
# 2 -0.006087 0.017714 -0.006776 0.000000 -0.004893 -0.000001
# 3 -0.003964 -0.006776 0.023111 0.000002 0.003206 -0.000002
# 4 0.000000 0.000000 0.000002 0.044273 -0.000001 -0.017637
# 5 0.006154 -0.004893 0.003206 -0.000001 0.029866 0.000003
# 6 0.000001 -0.000001 -0.000002 -0.017637 0.000003 0.038452
#
#
# Mechanical properties :
#
#
# Convention : Reuss Voigt Hill
#
# Bulk Modulus (GPa) = 52.67852 64.89791 58.78822
# Shear Modulus (GPa) = 24.36522 30.12066 27.24294
#
# Velocity S-wave (km/s) = 3.52692 3.92142 3.72939
# Velocity P-wave (km/s) = 6.59391 7.32364 6.96833
#
# Compressibility (1/GPa) = 0.01898307
#
# Stress axis : x y z
#
# Youngs Moduli (GPa) = 84.65378 56.45293 43.26989
#
# Poissons Ratio (x) = 0.34365 0.17152
# Poissons Ratio (y) = 0.51531 0.29319
# Poissons Ratio (z) = 0.33557 0.38252
#
# Static dielectric constant tensor:
#      x y z
#    x 1.716550 0.000000 -0.025440 
#    y 0.000000 1.663550 0.000000 
#    z -0.025440 0.000000 1.642170 
# 
# From -- ./inp_files/50416.got.cif
#   From: 2010.05.17/outbox.cif.g08.bks.cpg/sg15_26_cif.got.tgz:50416.got - 2010.06.03 18:47:42.
