data_PCOD9294933
_publ_section_title
;
Structure prediction by ZEFSAII (Michael W. Deem and Ramdas Pophale) SiO2 
 PCOD9294933
Probable space group: C 2/C
;
_chemical_formula_sum "Si O2"
_cell_formula_units_Z 48
_cell_length_a 8.504707
_cell_length_b 11.772354
_cell_length_c 20.992901
_cell_angle_alpha 90.000000
_cell_angle_beta 106.163633
_cell_angle_gamma 90.000000
_cell_volume 2018.734434
_symmetry_space_group_name_H-M "C 2/C"
_symmetry_group_IT_number 15
_symmetry_cell_setting 'monoclinic'
loop_
_space_group_symop_operation_xyz
x,y,z
-x,y,1/2-z
-x,-y,-z
x,-y,1/2+z
1/2+x,1/2+y,z
1/2-x,1/2+y,1/2-z
1/2-x,1/2-y,-z
1/2+x,1/2-y,1/2+z
loop_
_atom_site_type_symbol
_atom_site_label
_atom_site_fract_x
_atom_site_fract_y
_atom_site_fract_z
Si Si1 0.113858 0.220600 0.819602
Si Si2 0.153967 0.820504 0.914921
Si Si3 0.863754 0.430388 0.285243
Si Si4 0.005641 0.397515 0.905058
Si Si5 0.415978 0.498197 0.838675
Si Si6 0.242489 0.426332 0.449201
O O1 0.280838 0.179441 0.807260
O O2 0.000000 0.268865 0.750000
O O3 0.111214 0.305782 0.877855
O O4 0.030450 0.104335 0.833854
O O5 0.344232 0.841783 0.916783
O O6 0.137558 0.685557 0.918485
O O7 0.139424 0.879887 0.982471
O O8 0.028110 0.887105 0.856235
O O9 0.938242 0.512292 0.346337
O O10 0.724670 0.499940 0.230465
O O11 0.000000 0.396474 0.250000
O O12 0.128731 0.471425 0.961731
O O13 0.332771 0.528029 0.896815
#
# Coordination Sequence:
#
# PCOD9294933 Si02
#       6
#     8   8   8   8   8   8
#     4  10  23  41  69  97 140 173 216 283 344 404
#     4  11  25  46  70  96 143 180 226 293 327 400
#     4  11  23  44  70 102 137 176 231 278 350 415
#     4  12  23  45  70 100 137 178 223 284 337 411
#     4  11  22  46  68 100 135 181 224 282 346 401
#     4  11  25  45  68 101 135 184 238 270 338 407
#
# _framework density 23.777273000000001
#
# number of rings (size 3 to 8) (size 9 to 14) (size 15 to 20)
#    0.000    1.000    5.000    1.500    0.000    1.333 
#    3.000    2.500    0.000    0.000    0.000    0.000 
#    0.000    0.000    0.000    0.000    0.000    0.000 
#
# Total GULP energy -134426.326787 kJ/mol
# GULP energy per Si atom -5601.096949 kJ/mol
# Density = 2.372315 g / cm^3
# Si number density = 23.777273 Si / 1000 Ang^3
#
#
#
# Elastic Constant Matrix: (Units=GPa)
#
#
# Indices 1 2 3 4 5 6 
#
# 1 74.4449 18.5962 12.0489 0.0000 0.6350 0.0000
# 2 18.5962 89.4542 10.7841 0.0000 24.0765 0.0000
# 3 12.0489 10.7841 32.9384 0.0000 1.1410 0.0000
# 4 0.0000 0.0000 0.0000 25.2233 0.0000 2.0284
# 5 0.6350 24.0765 1.1410 0.0000 35.3828 0.0000
# 6 0.0000 0.0000 0.0000 2.0284 0.0000 36.4494
#
#
#
# Elastic Compliance Matrix: (Units=1/GPa)
#
#
# Indices 1 2 3 4 5 6 
#
# 1 0.014918 -0.003090 -0.004514 0.000000 0.001981 0.000000
# 2 -0.003090 0.014920 -0.003409 0.000000 -0.009987 0.000000
# 3 -0.004514 -0.003409 0.033081 0.000000 0.001334 0.000000
# 4 0.000000 0.000000 0.000000 0.039824 0.000000 -0.002216
# 5 0.001981 -0.009987 0.001334 0.000000 0.034980 0.000000
# 6 0.000000 0.000000 0.000000 -0.002216 0.000000 0.027559
#
#
# Mechanical properties :
#
#
# Convention : Reuss Voigt Hill
#
# Bulk Modulus (GPa) = 24.45360 31.07734 27.76547
# Shear Modulus (GPa) = 24.88323 29.77166 27.32744
#
# Velocity S-wave (km/s) = 3.23849 3.54235 3.39382
# Velocity P-wave (km/s) = 4.92855 5.46164 5.20193
#
# Compressibility (1/GPa) = 0.04089377
#
# Stress axis : x y z
#
# Youngs Moduli (GPa) = 67.03145 67.02285 30.22908
#
# Poissons Ratio (x) = 0.20711 0.13645
# Poissons Ratio (y) = 0.20714 0.10304
# Poissons Ratio (z) = 0.30258 0.22845
#
# Static dielectric constant tensor:
#      x y z
#    x 1.934340 0.000000 0.011970 
#    y 0.000000 1.864750 0.000000 
#    z 0.011970 0.000000 1.911740 
# 
# From -- ./inp_files/263260.got.cif
#   From: 2010.05.17/outbox.cif.g08.bks.cpg/sg15_132_cif.got.tgz:263260.got - 2010.06.03 18:47:42.
