data_PCOD9294652
_publ_section_title
;
Structure prediction by ZEFSAII (Michael W. Deem and Ramdas Pophale) SiO2 
 PCOD9294652
Probable space group: C 2/C
;
_chemical_formula_sum "Si O2"
_cell_formula_units_Z 44
_cell_length_a 16.377701
_cell_length_b 22.409237
_cell_length_c 5.456807
_cell_angle_alpha 90.000000
_cell_angle_beta 106.558271
_cell_angle_gamma 90.000000
_cell_volume 1919.660762
_symmetry_space_group_name_H-M "C 2/C"
_symmetry_group_IT_number 15
_symmetry_cell_setting 'monoclinic'
loop_
_space_group_symop_operation_xyz
x,y,z
-x,y,1/2-z
-x,-y,-z
x,-y,1/2+z
1/2+x,1/2+y,z
1/2-x,1/2+y,1/2-z
1/2-x,1/2-y,-z
1/2+x,1/2-y,1/2+z
loop_
_atom_site_type_symbol
_atom_site_label
_atom_site_fract_x
_atom_site_fract_y
_atom_site_fract_z
Si Si1 0.669477 0.963736 0.062993
Si Si2 0.000000 0.134538 0.750000
Si Si3 0.704894 0.793958 0.652646
Si Si4 0.406947 0.146505 0.776106
Si Si5 0.628641 0.536243 0.725289
Si Si6 0.876863 0.771750 0.013056
O O1 0.617736 0.902594 0.047174
O O2 0.770613 0.950400 0.171272
O O3 0.650421 0.003343 0.290414
O O4 0.069169 0.093888 0.675868
O O5 0.947007 0.178748 0.533051
O O6 0.750000 0.750000 0.500000
O O7 0.665582 0.852371 0.497638
O O8 0.784411 0.803271 0.901419
O O9 0.630691 0.757054 0.723266
O O10 0.500000 0.136256 0.750000
O O11 0.397543 0.213466 0.871393
O O12 0.610332 0.499703 0.461426
#
# Coordination Sequence:
#
# PCOD9294652 Si02
#       6
#     8   4   8   8   8   8
#     4  10  25  47  74 101 133 188 246 289 358 420
#     4  12  24  40  72 104 140 184 230 286 352 428
#     4   9  21  41  64  92 138 186 226 274 351 418
#     4  11  24  43  68  99 143 174 232 305 345 411
#     4  10  24  48  69 102 142 186 237 294 346 415
#     4  10  23  41  63 103 142 182 233 275 356 428
#
# _framework density 22.920718000000001
#
# number of rings (size 3 to 8) (size 9 to 14) (size 15 to 20)
#    0.000    1.818    0.000    1.636   10.182    3.636 
#   13.091    0.000    0.000    0.000    0.000    0.000 
#    0.000    0.000    0.000    0.000    0.000    0.000 
#
# Total GULP energy -122948.507474 kJ/mol
# GULP energy per Si atom -5588.568522 kJ/mol
# Density = 2.286855 g / cm^3
# Si number density = 22.920718 Si / 1000 Ang^3
#
#
#
# Elastic Constant Matrix: (Units=GPa)
#
#
# Indices 1 2 3 4 5 6 
#
# 1 62.7629 52.6072 22.1126 0.0000 -2.2385 0.0000
# 2 52.6072 114.3980 25.7634 0.0000 -3.1637 0.0000
# 3 22.1126 25.7634 74.0188 0.0000 -23.5065 0.0000
# 4 0.0000 0.0000 0.0000 25.1413 0.0000 1.2080
# 5 -2.2385 -3.1637 -23.5065 0.0000 23.4812 0.0000
# 6 0.0000 0.0000 0.0000 1.2080 0.0000 32.2946
#
#
#
# Elastic Compliance Matrix: (Units=1/GPa)
#
#
# Indices 1 2 3 4 5 6 
#
# 1 0.027336 -0.011426 -0.005645 0.000000 -0.004585 0.000000
# 2 -0.011426 0.014404 -0.001950 0.000000 -0.001100 0.000000
# 3 -0.005645 -0.001950 0.022902 0.000000 0.022126 0.000000
# 4 0.000000 0.000000 0.000000 0.039847 0.000000 -0.001491
# 5 -0.004585 -0.001100 0.022126 0.000000 0.064151 0.000000
# 6 0.000000 0.000000 0.000000 -0.001491 0.000000 0.031021
#
#
# Mechanical properties :
#
#
# Convention : Reuss Voigt Hill
#
# Bulk Modulus (GPa) = 37.59449 50.23846 43.91648
# Shear Modulus (GPa) = 20.27828 26.22986 23.25407
#
# Velocity S-wave (km/s) = 2.97764 3.38653 3.18865
# Velocity P-wave (km/s) = 5.31595 6.10388 5.72349
#
# Compressibility (1/GPa) = 0.02659964
#
# Stress axis : x y z
#
# Youngs Moduli (GPa) = 36.58238 69.42308 43.66473
#
# Poissons Ratio (x) = 0.79323 0.24651
# Poissons Ratio (y) = 0.41799 0.08513
# Poissons Ratio (z) = 0.20652 0.13535
#
# Static dielectric constant tensor:
#      x y z
#    x 1.858530 0.000000 0.056910 
#    y 0.000000 1.846530 0.000000 
#    z 0.056910 0.000000 2.026100 
# 
# From -- ./inp_files/7602.got.cif
#   From: 2010.05.17/outbox.cif.g08.bks.cpg/sg15_4_cif.got.tgz:7602.got - 2010.06.03 18:47:42.
