data_PCOD9294513
_publ_section_title
;
Structure prediction by ZEFSAII (Michael W. Deem and Ramdas Pophale) SiO2 
 PCOD9294513
Probable space group: C 2/C
;
_chemical_formula_sum "Si O2"
_cell_formula_units_Z 36
_cell_length_a 12.403855
_cell_length_b 25.071914
_cell_length_c 5.203129
_cell_angle_alpha 90.000000
_cell_angle_beta 96.184809
_cell_angle_gamma 90.000000
_cell_volume 1608.694566
_symmetry_space_group_name_H-M "C 2/C"
_symmetry_group_IT_number 15
_symmetry_cell_setting 'monoclinic'
loop_
_space_group_symop_operation_xyz
x,y,z
-x,y,1/2-z
-x,-y,-z
x,-y,1/2+z
1/2+x,1/2+y,z
1/2-x,1/2+y,1/2-z
1/2-x,1/2-y,-z
1/2+x,1/2-y,1/2+z
loop_
_atom_site_type_symbol
_atom_site_label
_atom_site_fract_x
_atom_site_fract_y
_atom_site_fract_z
Si Si1 0.048426 0.440079 0.512538
Si Si2 0.430758 0.248228 0.988615
Si Si3 0.724036 0.400753 0.832971
Si Si4 0.235871 0.167436 0.841999
Si Si5 0.500000 0.463300 0.750000
O O1 0.177506 0.439477 0.557355
O O2 0.000000 0.412683 0.750000
O O3 0.000000 0.500000 0.500000
O O4 0.000000 0.412487 0.250000
O O5 0.500000 0.227584 0.250000
O O6 0.338083 0.206628 0.883187
O O7 0.500000 0.260026 0.750000
O O8 0.368740 0.299854 0.086219
O O9 0.722287 0.355224 0.051967
O O10 0.750774 0.378634 0.557399
O O11 0.608299 0.428402 0.790037
O O12 0.500000 0.500000 0.500000
#
# Coordination Sequence:
#
# PCOD9294513 Si02
#       5
#     8   8   8   8   4
#     4  10  23  40  67  94 130 175 222 287 361 401
#     4  11  24  44  73 101 153 184 226 290 355 420
#     4  12  26  45  73 103 142 182 250 287 347 436
#     4  11  26  44  69 111 137 187 237 286 348 419
#     4  12  30  48  74 100 144 188 240 306 352 412
#
# _framework density 22.378392000000002
#
# number of rings (size 3 to 8) (size 9 to 14) (size 15 to 20)
#    0.000    0.889    0.000    5.333   10.889    8.889 
#    0.000    0.000    0.000    0.000    0.000    0.000 
#    0.000    0.000    0.000    0.000    0.000    0.000 
#
# Total GULP energy -100758.979527 kJ/mol
# GULP energy per Si atom -5597.721085 kJ/mol
# Density = 2.232746 g / cm^3
# Si number density = 22.378392 Si / 1000 Ang^3
#
#
#
# Elastic Constant Matrix: (Units=GPa)
#
#
# Indices 1 2 3 4 5 6 
#
# 1 162.1657 23.8774 21.5306 0.0000 20.3424 0.0000
# 2 23.8774 37.6290 -12.2506 0.0000 13.6089 0.0000
# 3 21.5306 -12.2506 136.0692 0.0000 3.1413 0.0000
# 4 0.0000 0.0000 0.0000 27.4407 0.0000 6.5348
# 5 20.3424 13.6089 3.1413 0.0000 41.9432 0.0000
# 6 0.0000 0.0000 0.0000 6.5348 0.0000 15.4062
#
#
#
# Elastic Compliance Matrix: (Units=1/GPa)
#
#
# Indices 1 2 3 4 5 6 
#
# 1 0.007259 -0.004374 -0.001496 0.000000 -0.001989 0.000000
# 2 -0.004374 0.033967 0.003962 0.000000 -0.009196 0.000000
# 3 -0.001496 0.003962 0.007969 0.000000 -0.001157 0.000000
# 4 0.000000 0.000000 0.000000 0.040537 0.000000 -0.017195
# 5 -0.001989 -0.009196 -0.001157 0.000000 0.027877 0.000000
# 6 0.000000 0.000000 0.000000 -0.017195 0.000000 0.072202
#
#
# Mechanical properties :
#
#
# Convention : Reuss Voigt Hill
#
# Bulk Modulus (GPa) = 22.03649 44.68654 33.36151
# Shear Modulus (GPa) = 23.95176 37.13846 30.54511
#
# Velocity S-wave (km/s) = 3.27510 4.07820 3.69851
# Velocity P-wave (km/s) = 4.91633 6.49520 5.76012
#
# Compressibility (1/GPa) = 0.04537927
#
# Stress axis : x y z
#
# Youngs Moduli (GPa) = 137.76477 29.44072 125.47939
#
# Poissons Ratio (x) = 0.12877 0.18777
# Poissons Ratio (y) = 0.60255 -0.49721
# Poissons Ratio (z) = 0.20615 -0.11666
#
# Static dielectric constant tensor:
#      x y z
#    x 1.819160 0.000000 -0.030820 
#    y 0.000000 1.794220 0.000000 
#    z -0.030820 0.000000 1.863120 
# 
# From -- ./inp_files/4415.got.cif
#   From: 2010.05.17/outbox.cif.g08.bks.cpg/sg15_3_cif.got.tgz:4415.got - 2010.06.03 18:47:42.
