data_PCOD9294919
_publ_section_title
;
Structure prediction by ZEFSAII (Michael W. Deem and Ramdas Pophale) SiO2 
 PCOD9294919
Probable space group: C 2/C
;
_chemical_formula_sum "Si O2"
_cell_formula_units_Z 40
_cell_length_a 9.684423
_cell_length_b 23.125319
_cell_length_c 9.942675
_cell_angle_alpha 90.000000
_cell_angle_beta 42.005881
_cell_angle_gamma 90.000000
_cell_volume 1490.133316
_symmetry_space_group_name_H-M "C 2/C"
_symmetry_group_IT_number 15
_symmetry_cell_setting 'monoclinic'
loop_
_space_group_symop_operation_xyz
x,y,z
-x,y,1/2-z
-x,-y,-z
x,-y,1/2+z
1/2+x,1/2+y,z
1/2-x,1/2+y,1/2-z
1/2-x,1/2-y,-z
1/2+x,1/2-y,1/2+z
loop_
_atom_site_type_symbol
_atom_site_label
_atom_site_fract_x
_atom_site_fract_y
_atom_site_fract_z
Si Si1 0.321168 0.465846 0.202981
Si Si2 0.000000 0.854727 0.750000
Si Si3 0.913092 0.673371 0.517031
Si Si4 0.609514 0.068831 0.508584
Si Si5 0.500000 0.366134 0.250000
Si Si6 0.651104 0.276524 0.435957
O O1 0.222789 0.509698 0.383251
O O2 0.429678 0.409624 0.184368
O O3 0.116448 0.447921 0.269402
O O4 0.500000 0.500000 0.000000
O O5 0.796608 0.891608 0.923412
O O6 0.020510 0.817023 0.870699
O O7 0.710403 0.668908 0.570687
O O8 0.028278 0.611623 0.443508
O O9 0.057526 0.729232 0.402342
O O10 0.818699 0.686665 0.734443
O O11 0.750000 0.250000 0.500000
#
# Coordination Sequence:
#
# PCOD9294919 Si02
#       6
#     8   4   8   8   4   8
#     4  10  23  49  72 100 139 187 242 298 359 445
#     4  12  23  38  68 106 138 180 239 304 360 422
#     4  11  23  44  68 101 144 189 236 302 368 428
#     4  10  23  41  69 105 139 176 240 294 362 435
#     4  10  25  46  68 102 146 180 243 292 366 448
#     4  12  22  41  69 101 142 186 244 303 350 432
#
# _framework density 26.843236000000001
#
# number of rings (size 3 to 8) (size 9 to 14) (size 15 to 20)
#    0.000    1.200    4.000    0.600    5.600    0.800 
#    3.600   10.000    0.000    0.000    0.000    0.000 
#    0.000    0.000    0.000    0.000    0.000    0.000 
#
# Total GULP energy -111786.578954 kJ/mol
# GULP energy per Si atom -5589.328948 kJ/mol
# Density = 2.678214 g / cm^3
# Si number density = 26.843236 Si / 1000 Ang^3
#
#
#
# Elastic Constant Matrix: (Units=GPa)
#
#
# Indices 1 2 3 4 5 6 
#
# 1 114.6896 43.8809 35.0383 0.0000 -56.0760 0.0000
# 2 43.8809 122.4782 29.2860 0.0000 -25.1485 0.0000
# 3 35.0383 29.2860 152.1225 0.0000 -31.0634 0.0000
# 4 0.0000 0.0000 0.0000 41.6635 0.0000 -13.4674
# 5 -56.0760 -25.1485 -31.0634 0.0000 56.5565 0.0000
# 6 0.0000 0.0000 0.0000 -13.4674 0.0000 42.4153
#
#
#
# Elastic Compliance Matrix: (Units=1/GPa)
#
#
# Indices 1 2 3 4 5 6 
#
# 1 0.017907 -0.003018 -0.000216 0.000000 0.016294 0.000000
# 2 -0.003018 0.009639 -0.001010 0.000000 0.000739 0.000000
# 3 -0.000216 -0.001010 0.007527 0.000000 0.003471 0.000000
# 4 0.000000 0.000000 0.000000 0.026747 0.000000 0.008492
# 5 0.016294 0.000739 0.003471 0.000000 0.036071 0.000000
# 6 0.000000 0.000000 0.000000 0.008492 0.000000 0.026273
#
#
# Mechanical properties :
#
#
# Convention : Reuss Voigt Hill
#
# Bulk Modulus (GPa) = 37.61622 67.30007 52.45815
# Shear Modulus (GPa) = 35.33244 46.86608 41.09926
#
# Velocity S-wave (km/s) = 3.63195 4.18295 3.91715
# Velocity P-wave (km/s) = 5.62422 6.96099 6.32800
#
# Compressibility (1/GPa) = 0.02658428
#
# Stress axis : x y z
#
# Youngs Moduli (GPa) = 55.84546 103.74266 132.86383
#
# Poissons Ratio (x) = 0.31312 0.02873
# Poissons Ratio (y) = 0.16855 0.13414
# Poissons Ratio (z) = 0.01207 0.10474
#
# Static dielectric constant tensor:
#      x y z
#    x 2.275600 0.000000 0.037370 
#    y 0.000000 2.135680 0.000000 
#    z 0.037370 0.000000 2.151770 
# 
# From -- ./inp_files/148015.got.cif
#   From: 2010.05.17/outbox.cif.g08.bks.cpg/sg15_75_cif.got.tgz:148015.got - 2010.06.03 18:47:42.
