data_PCOD9294631
_publ_section_title
;
Structure prediction by ZEFSAII (Michael W. Deem and Ramdas Pophale) SiO2 
 PCOD9294631
Probable space group: C 2/C
;
_chemical_formula_sum "Si O2"
_cell_formula_units_Z 56
_cell_length_a 16.576271
_cell_length_b 25.445958
_cell_length_c 8.946464
_cell_angle_alpha 90.000000
_cell_angle_beta 139.490408
_cell_angle_gamma 90.000000
_cell_volume 2451.244276
_symmetry_space_group_name_H-M "C 2/C"
_symmetry_group_IT_number 15
_symmetry_cell_setting 'monoclinic'
loop_
_space_group_symop_operation_xyz
x,y,z
-x,y,1/2-z
-x,-y,-z
x,-y,1/2+z
1/2+x,1/2+y,z
1/2-x,1/2+y,1/2-z
1/2-x,1/2-y,-z
1/2+x,1/2-y,1/2+z
loop_
_atom_site_type_symbol
_atom_site_label
_atom_site_fract_x
_atom_site_fract_y
_atom_site_fract_z
Si Si1 0.373256 0.557405 0.998131
Si Si2 0.612573 0.156627 0.991824
Si Si3 0.406799 0.047971 0.398015
Si Si4 0.997602 0.795343 0.089407
Si Si5 0.740186 0.744537 0.775080
Si Si6 0.743457 0.989831 0.056220
Si Si7 0.668907 0.665717 0.419476
O O1 0.500000 0.539159 0.250000
O O2 0.275923 0.528107 0.966705
O O3 0.363794 0.619089 0.012931
O O4 0.352374 0.538673 0.800705
O O5 0.556328 0.105731 0.994034
O O6 0.687036 0.196211 0.201182
O O7 0.714220 0.144256 0.009453
O O8 0.500000 0.185574 0.750000
O O9 0.500000 0.000000 0.500000
O O10 0.326213 0.025521 0.421702
O O11 0.337814 0.053965 0.142074
O O12 0.000000 0.827136 0.250000
O O13 0.141704 0.781982 0.252143
O O14 0.891708 0.750092 0.983423
O O15 0.934259 0.820475 0.851890
O O16 0.705728 0.715861 0.570214
#
# Coordination Sequence:
#
# PCOD9294631 Si02
#       7
#     8   8   8   8   8   8   8
#     4  11  22  42  64  92 122 174 223 279 337 403
#     4  11  21  38  67  97 128 175 227 278 347 416
#     4  11  22  41  64  95 133 175 211 280 347 418
#     4  11  23  43  65 100 136 180 227 294 352 417
#     4  11  23  44  70  96 140 183 236 287 353 426
#     4  10  23  41  62  90 130 162 225 270 341 401
#     4  11  23  43  67  95 133 179 230 280 346 426
#
# _framework density 22.845541999999998
#
# number of rings (size 3 to 8) (size 9 to 14) (size 15 to 20)
#    0.000    1.143    1.429    6.857    2.000    0.000 
#   12.857    0.714    0.000    0.000    0.000    0.000 
#    0.000    0.000    0.000    0.000    0.000    0.000 
#
# Total GULP energy -155965.354849 kJ/mol
# GULP energy per Si atom -5570.191245 kJ/mol
# Density = 2.279354 g / cm^3
# Si number density = 22.845542 Si / 1000 Ang^3
#
#
#
# Elastic Constant Matrix: (Units=GPa)
#
#
# Indices 1 2 3 4 5 6 
#
# 1 69.4046 24.3116 17.6889 0.0000 1.5877 0.0000
# 2 24.3116 72.4595 13.3542 0.0000 -8.1612 0.0000
# 3 17.6889 13.3542 109.2019 0.0000 -5.6519 0.0000
# 4 0.0000 0.0000 0.0000 15.0241 0.0000 3.6643
# 5 1.5877 -8.1612 -5.6519 0.0000 44.0934 0.0000
# 6 0.0000 0.0000 0.0000 3.6643 0.0000 28.1162
#
#
#
# Elastic Compliance Matrix: (Units=1/GPa)
#
#
# Indices 1 2 3 4 5 6 
#
# 1 0.016929 -0.005495 -0.002169 0.000000 -0.001905 0.000000
# 2 -0.005495 0.016161 -0.000927 0.000000 0.003070 0.000000
# 3 -0.002169 -0.000927 0.009681 0.000000 0.001147 0.000000
# 4 0.000000 0.000000 0.000000 0.068745 0.000000 -0.008959
# 5 -0.001905 0.003070 0.001147 0.000000 0.023463 0.000000
# 6 0.000000 0.000000 0.000000 -0.008959 0.000000 0.036734
#
#
# Mechanical properties :
#
#
# Convention : Reuss Voigt Hill
#
# Bulk Modulus (GPa) = 39.07822 40.19727 39.63774
# Shear Modulus (GPa) = 25.32584 30.49415 27.91000
#
# Velocity S-wave (km/s) = 3.33313 3.65745 3.49905
# Velocity P-wave (km/s) = 5.65292 5.95562 5.80624
#
# Compressibility (1/GPa) = 0.02558971
#
# Stress axis : x y z
#
# Youngs Moduli (GPa) = 59.06875 61.87661 103.29009
#
# Poissons Ratio (x) = 0.34001 0.22403
# Poissons Ratio (y) = 0.32458 0.09578
# Poissons Ratio (z) = 0.12811 0.05738
#
# Static dielectric constant tensor:
#      x y z
#    x 1.998930 0.000000 0.082030 
#    y 0.000000 1.862280 0.000000 
#    z 0.082030 0.000000 2.056870 
# 
# From -- ./inp_files/34223.got.cif
#   From: 2010.05.17/outbox.cif.g08.bks.cpg/sg15_18_cif.got.tgz:34223.got - 2010.06.03 18:47:42.
