data_PCOD9294625
_publ_section_title
;
Structure prediction by ZEFSAII (Michael W. Deem and Ramdas Pophale) SiO2 
 PCOD9294625
Probable space group: C 2/C
;
_chemical_formula_sum "Si O2"
_cell_formula_units_Z 56
_cell_length_a 16.379820
_cell_length_b 24.537081
_cell_length_c 8.204777
_cell_angle_alpha 90.000000
_cell_angle_beta 126.055433
_cell_angle_gamma 90.000000
_cell_volume 2665.943016
_symmetry_space_group_name_H-M "C 2/C"
_symmetry_group_IT_number 15
_symmetry_cell_setting 'monoclinic'
loop_
_space_group_symop_operation_xyz
x,y,z
-x,y,1/2-z
-x,-y,-z
x,-y,1/2+z
1/2+x,1/2+y,z
1/2-x,1/2+y,1/2-z
1/2-x,1/2-y,-z
1/2+x,1/2-y,1/2+z
loop_
_atom_site_type_symbol
_atom_site_label
_atom_site_fract_x
_atom_site_fract_y
_atom_site_fract_z
Si Si1 0.279747 0.803230 0.137124
Si Si2 0.525699 0.778521 0.968299
Si Si3 0.914488 0.984692 0.525051
Si Si4 0.159984 0.880852 0.216221
Si Si5 0.908692 0.627644 0.533274
Si Si6 0.712316 0.404101 0.630345
Si Si7 0.036634 0.157088 0.107579
O O1 0.356983 0.791782 0.373457
O O2 0.191840 0.835346 0.123798
O O3 0.341309 0.840690 0.085657
O O4 0.250000 0.750000 0.000000
O O5 0.500000 0.772197 0.750000
O O6 0.459537 0.826187 0.975989
O O7 0.520766 0.721072 0.055847
O O8 0.837276 0.938986 0.371182
O O9 0.000000 0.962994 0.750000
O O10 0.846978 0.038827 0.472590
O O11 0.000000 0.000000 0.500000
O O12 0.215709 0.877803 0.453864
O O13 0.041461 0.872525 0.105234
O O14 0.825988 0.592031 0.337000
O O15 0.000000 0.601912 0.750000
O O16 0.644550 0.367315 0.676206
O O17 0.000000 0.147993 0.250000
#
# Coordination Sequence:
#
# PCOD9294625 Si02
#       7
#     8   8   8   8   8   8   8
#     4  11  23  39  63  93 125 171 217 263 327 390
#     4  11  22  40  61  87 125 167 218 268 319 382
#     4  12  24  42  66 101 135 168 210 264 333 397
#     4  12  24  39  64  97 134 166 212 265 329 395
#     4  10  23  41  62  87 122 168 219 267 321 382
#     4  12  24  41  64  95 129 170 217 268 328 389
#     4  12  23  36  60  92 131 169 209 263 328 400
#
# _framework density 21.005700999999998
#
# number of rings (size 3 to 8) (size 9 to 14) (size 15 to 20)
#    0.000    0.571    2.857    7.286    2.000    0.000 
#    0.000    4.286    0.000    8.571    0.000    0.000 
#    0.000    0.000    0.000    0.000    0.000    0.000 
#
# Total GULP energy -156036.721212 kJ/mol
# GULP energy per Si atom -5572.740043 kJ/mol
# Density = 2.095789 g / cm^3
# Si number density = 21.005701 Si / 1000 Ang^3
#
#
#
# Elastic Constant Matrix: (Units=GPa)
#
#
# Indices 1 2 3 4 5 6 
#
# 1 85.7952 34.1233 50.6912 0.0000 -1.2459 0.0000
# 2 34.1233 85.1868 31.3079 0.0000 2.0388 0.0000
# 3 50.6912 31.3079 175.1615 0.0000 12.2430 0.0000
# 4 0.0000 0.0000 0.0000 18.4350 0.0000 -0.7744
# 5 -1.2459 2.0388 12.2430 0.0000 43.6892 0.0000
# 6 0.0000 0.0000 0.0000 -0.7744 0.0000 10.5236
#
#
#
# Elastic Compliance Matrix: (Units=1/GPa)
#
#
# Indices 1 2 3 4 5 6 
#
# 1 0.015947 -0.005018 -0.003841 0.000000 0.001765 0.000000
# 2 -0.005018 0.014144 -0.001040 0.000000 -0.000512 0.000000
# 3 -0.003841 -0.001040 0.007151 0.000000 -0.002065 0.000000
# 4 0.000000 0.000000 0.000000 0.054413 0.000000 0.004004
# 5 0.001765 -0.000512 -0.002065 0.000000 0.023542 0.000000
# 6 0.000000 0.000000 0.000000 0.004004 0.000000 0.095319
#
#
# Mechanical properties :
#
#
# Convention : Reuss Voigt Hill
#
# Bulk Modulus (GPa) = 57.33276 64.26536 60.79906
# Shear Modulus (GPa) = 21.17492 29.86431 25.51962
#
# Velocity S-wave (km/s) = 3.17843 3.77467 3.48931
# Velocity P-wave (km/s) = 6.38929 7.04685 6.72611
#
# Compressibility (1/GPa) = 0.01744204
#
# Stress axis : x y z
#
# Youngs Moduli (GPa) = 62.70818 70.70376 139.84225
#
# Poissons Ratio (x) = 0.35481 0.53719
# Poissons Ratio (y) = 0.31469 0.14543
# Poissons Ratio (z) = 0.24089 0.07353
#
# Static dielectric constant tensor:
#      x y z
#    x 1.877110 0.000000 -0.084470 
#    y 0.000000 1.848610 0.000000 
#    z -0.084470 0.000000 1.887490 
# 
# From -- ./inp_files/51590.got.cif
#   From: 2010.05.17/outbox.cif.g08.bks.cpg/sg15_26_cif.got.tgz:51590.got - 2010.06.03 18:47:42.
