data_PCOD9294079
_publ_section_title
;
Structure prediction by ZEFSAII (Michael W. Deem and Ramdas Pophale) SiO2 
 PCOD9294079
Probable space group: C 2/C
;
_chemical_formula_sum "Si O2"
_cell_formula_units_Z 40
_cell_length_a 8.985353
_cell_length_b 27.273902
_cell_length_c 8.788902
_cell_angle_alpha 90.000000
_cell_angle_beta 89.936427
_cell_angle_gamma 90.000000
_cell_volume 2153.856543
_symmetry_space_group_name_H-M "C 2/C"
_symmetry_group_IT_number 15
_symmetry_cell_setting 'monoclinic'
loop_
_space_group_symop_operation_xyz
x,y,z
-x,y,1/2-z
-x,-y,-z
x,-y,1/2+z
1/2+x,1/2+y,z
1/2-x,1/2+y,1/2-z
1/2-x,1/2-y,-z
1/2+x,1/2-y,1/2+z
loop_
_atom_site_type_symbol
_atom_site_label
_atom_site_fract_x
_atom_site_fract_y
_atom_site_fract_z
Si Si1 0.757139 0.331516 0.706063
Si Si2 0.660931 0.011334 0.572798
Si Si3 0.546420 0.826250 0.495616
Si Si4 0.669370 0.556144 0.207152
Si Si5 0.500000 0.908941 0.250000
Si Si6 0.500000 0.255657 0.750000
O O1 0.830088 0.327406 0.873582
O O2 0.690535 0.385812 0.689388
O O3 0.631611 0.290452 0.690898
O O4 0.888429 0.325335 0.583249
O O5 0.774778 0.029554 0.445333
O O6 0.630252 0.055457 0.690955
O O7 0.500000 0.000000 0.500000
O O8 0.723379 0.964597 0.661049
O O9 0.549697 0.874140 0.388266
O O10 0.556935 0.779680 0.384621
O O11 0.500000 0.544646 0.250000
#
# Coordination Sequence:
#
# PCOD9294079 Si02
#       6
#     8   8   8   8   4   4
#     4  11  22  40  63  90 123 164 207 252 318 374
#     4  12  23  40  66  91 124 171 218 252 303 376
#     4  10  23  38  66  89 121 161 209 258 308 373
#     4  12  25  41  62  94 133 168 203 265 319 367
#     4  11  20  38  62  94 116 158 222 255 286 366
#     4  11  22  42  62  92 122 156 204 267 316 368
#
# _framework density 18.571338999999998
#
# number of rings (size 3 to 8) (size 9 to 14) (size 15 to 20)
#    0.000    0.800    5.000    3.000    2.800    0.000 
#    0.000    0.000    0.000    0.000    0.000    0.000 
#    0.000    0.000    0.000    0.000    0.000    0.000 
#
# Total GULP energy -111817.020529 kJ/mol
# GULP energy per Si atom -5590.851026 kJ/mol
# Density = 1.852907 g / cm^3
# Si number density = 18.571339 Si / 1000 Ang^3
#
#
#
# Elastic Constant Matrix: (Units=GPa)
#
#
# Indices 1 2 3 4 5 6 
#
# 1 50.2649 -1.0975 -4.1437 0.0000 -18.5667 0.0000
# 2 -1.0975 90.1733 13.3050 0.0000 -9.3875 0.0000
# 3 -4.1437 13.3050 69.1917 0.0000 -18.3910 0.0000
# 4 0.0000 0.0000 0.0000 21.9408 0.0000 -12.2669
# 5 -18.5667 -9.3875 -18.3910 0.0000 29.8845 0.0000
# 6 0.0000 0.0000 0.0000 -12.2669 0.0000 31.7978
#
#
#
# Elastic Compliance Matrix: (Units=1/GPa)
#
#
# Indices 1 2 3 4 5 6 
#
# 1 0.029187 0.001660 0.007636 0.000000 0.023354 0.000000
# 2 0.001660 0.011689 -0.001074 0.000000 0.004042 0.000000
# 3 0.007636 -0.001074 0.019473 0.000000 0.016391 0.000000
# 4 0.000000 0.000000 0.000000 0.058111 0.000000 0.022418
# 5 0.023354 0.004042 0.016391 0.000000 0.059328 0.000000
# 6 0.000000 0.000000 0.000000 0.022418 0.000000 0.040097
#
#
# Mechanical properties :
#
#
# Convention : Reuss Voigt Hill
#
# Bulk Modulus (GPa) = 13.02202 25.08414 19.05308
# Shear Modulus (GPa) = 22.02272 30.16236 26.09254
#
# Velocity S-wave (km/s) = 3.44734 4.03443 3.75239
# Velocity P-wave (km/s) = 4.78254 5.93619 5.39032
#
# Compressibility (1/GPa) = 0.07679298
#
# Stress axis : x y z
#
# Youngs Moduli (GPa) = 34.26216 85.54883 51.35312
#
# Poissons Ratio (x) = -0.14199 -0.39214
# Poissons Ratio (y) = -0.05687 0.05515
# Poissons Ratio (z) = -0.26163 0.09187
#
# Static dielectric constant tensor:
#      x y z
#    x 1.611250 0.000000 0.002930 
#    y 0.000000 1.622080 0.000000 
#    z 0.002930 0.000000 1.640290 
# 
# From -- ./inp_files/23530.got.cif
#   From: 2010.05.17/outbox.cif.g08.bks.cpg/sg15_12_cif.got.tgz:23530.got - 2010.06.03 18:47:42.
