data_PCOD9294290
_publ_section_title
;
Structure prediction by ZEFSAII (Michael W. Deem and Ramdas Pophale) SiO2 
 PCOD9294290
Probable space group: C 2/C
;
_chemical_formula_sum "Si O2"
_cell_formula_units_Z 40
_cell_length_a 16.166011
_cell_length_b 7.377438
_cell_length_c 14.575306
_cell_angle_alpha 90.000000
_cell_angle_beta 65.815314
_cell_angle_gamma 90.000000
_cell_volume 1585.733870
_symmetry_space_group_name_H-M "C 2/C"
_symmetry_group_IT_number 15
_symmetry_cell_setting 'monoclinic'
loop_
_space_group_symop_operation_xyz
x,y,z
-x,y,1/2-z
-x,-y,-z
x,-y,1/2+z
1/2+x,1/2+y,z
1/2-x,1/2+y,1/2-z
1/2-x,1/2-y,-z
1/2+x,1/2-y,1/2+z
loop_
_atom_site_type_symbol
_atom_site_label
_atom_site_fract_x
_atom_site_fract_y
_atom_site_fract_z
Si Si1 0.402922 0.581872 0.828836
Si Si2 0.788141 0.547805 0.642459
Si Si3 0.577249 0.031214 0.270615
Si Si4 0.066913 0.280138 0.955539
Si Si5 0.614973 0.607059 0.445447
O O1 0.500000 0.513563 0.750000
O O2 0.314945 0.491133 0.823376
O O3 0.399729 0.792646 0.799930
O O4 0.394632 0.568374 0.941786
O O5 0.830788 0.542361 0.725637
O O6 0.852692 0.414835 0.551572
O O7 0.804375 0.753611 0.604303
O O8 0.500000 0.924269 0.250000
O O9 0.530277 0.111903 0.383908
O O10 0.023816 0.786473 0.952836
O O11 0.114399 0.092497 0.902939
#
# Coordination Sequence:
#
# PCOD9294290 Si02
#       5
#     8   8   8   8   8
#     4  11  21  41  66  96 136 174 213 277 330 376
#     4  10  23  39  70  93 131 176 222 262 326 396
#     4   9  19  42  64  91 134 165 212 271 318 384
#     4   9  21  38  65  97 128 164 221 266 316 404
#     4  11  20  41  71  93 128 177 212 273 332 380
#
# _framework density 25.224913000000001
#
# number of rings (size 3 to 8) (size 9 to 14) (size 15 to 20)
#    1.200    0.800    4.000    1.200    0.000    2.400 
#    0.000    1.000   13.200    2.400    0.000    0.000 
#    0.000    0.000    0.000    0.000    0.000    0.000 
#
# Total GULP energy -111542.343605 kJ/mol
# GULP energy per Si atom -5577.117180 kJ/mol
# Density = 2.516750 g / cm^3
# Si number density = 25.224913 Si / 1000 Ang^3
#
#
#
# Elastic Constant Matrix: (Units=GPa)
#
#
# Indices 1 2 3 4 5 6 
#
# 1 204.5398 25.8745 47.7688 0.0000 -26.3682 0.0000
# 2 25.8745 100.2567 8.6397 0.0000 -13.7663 0.0000
# 3 47.7688 8.6397 45.1088 0.0000 -4.3055 0.0000
# 4 0.0000 0.0000 0.0000 12.4902 0.0000 -4.6257
# 5 -26.3682 -13.7663 -4.3055 0.0000 48.2346 0.0000
# 6 0.0000 0.0000 0.0000 -4.6257 0.0000 22.3965
#
#
#
# Elastic Compliance Matrix: (Units=1/GPa)
#
#
# Indices 1 2 3 4 5 6 
#
# 1 0.007004 -0.000797 -0.006980 0.000000 0.002978 0.000000
# 2 -0.000797 0.010606 -0.000948 0.000000 0.002507 0.000000
# 3 -0.006980 -0.000948 0.029604 0.000000 -0.001444 0.000000
# 4 0.000000 0.000000 0.000000 0.086694 0.000000 0.017905
# 5 0.002978 0.002507 -0.001444 0.000000 0.022947 0.000000
# 6 0.000000 0.000000 0.000000 0.017905 0.000000 0.048348
#
#
# Mechanical properties :
#
#
# Convention : Reuss Voigt Hill
#
# Bulk Modulus (GPa) = 33.59796 57.16346 45.38071
# Shear Modulus (GPa) = 21.49852 34.46574 27.98213
#
# Velocity S-wave (km/s) = 2.92254 3.70041 3.33424
# Velocity P-wave (km/s) = 4.97359 6.40063 5.73170
#
# Compressibility (1/GPa) = 0.02976371
#
# Stress axis : x y z
#
# Youngs Moduli (GPa) = 142.77701 94.28633 33.77922
#
# Poissons Ratio (x) = 0.07516 0.23578
# Poissons Ratio (y) = 0.11381 0.03202
# Poissons Ratio (z) = 0.99658 0.08938
#
# Static dielectric constant tensor:
#      x y z
#    x 2.037500 0.000000 -0.008950 
#    y 0.000000 2.036780 0.000000 
#    z -0.008950 0.000000 2.054890 
# 
# From -- ./inp_files/203171.got.cif
#   From: 2010.05.17/outbox.cif.g08.bks.cpg/sg15_102_cif.got.tgz:203171.got - 2010.06.03 18:47:42.
