data_PCOD9294875
_publ_section_title
;
Structure prediction by ZEFSAII (Michael W. Deem and Ramdas Pophale) SiO2 
 PCOD9294875
Probable space group: C 2/C
;
_chemical_formula_sum "Si O2"
_cell_formula_units_Z 32
_cell_length_a 18.791802
_cell_length_b 14.099500
_cell_length_c 8.124364
_cell_angle_alpha 90.000000
_cell_angle_beta 37.022660
_cell_angle_gamma 90.000000
_cell_volume 1296.141383
_symmetry_space_group_name_H-M "C 2/C"
_symmetry_group_IT_number 15
_symmetry_cell_setting 'monoclinic'
loop_
_space_group_symop_operation_xyz
x,y,z
-x,y,1/2-z
-x,-y,-z
x,-y,1/2+z
1/2+x,1/2+y,z
1/2-x,1/2+y,1/2-z
1/2-x,1/2-y,-z
1/2+x,1/2-y,1/2+z
loop_
_atom_site_type_symbol
_atom_site_label
_atom_site_fract_x
_atom_site_fract_y
_atom_site_fract_z
Si Si1 0.663763 0.914926 0.230991
Si Si2 0.873312 0.989283 0.643568
Si Si3 0.500000 0.962919 0.250000
Si Si4 0.000000 0.850383 0.750000
Si Si5 0.587222 0.277392 0.942093
O O1 0.603537 0.972090 0.487807
O O2 0.683718 0.805790 0.245050
O O3 0.559577 0.905988 0.286703
O O4 0.762974 0.982096 0.967945
O O5 0.870460 0.882187 0.576718
O O6 0.000000 0.000000 0.500000
O O7 0.887640 0.080507 0.500726
O O8 0.970707 0.797646 0.631952
O O9 0.500000 0.245469 0.250000
#
# Coordination Sequence:
#
# PCOD9294875 Si02
#       5
#     8   8   4   4   8
#     4  11  23  44  66  99 139 181 238 289 350 422
#     4  10  23  41  71 101 137 183 228 291 354 417
#     4  10  25  41  66  92 136 190 226 289 355 420
#     4  10  23  41  68 110 144 178 236 289 357 420
#     4  11  22  41  70 101 141 184 236 292 351 420
#
# _framework density 24.688666000000001
#
# number of rings (size 3 to 8) (size 9 to 14) (size 15 to 20)
#    0.000    1.500    2.500    1.500    7.000    0.000 
#    0.000    0.000    0.000   16.500    0.000    0.000 
#    0.000    0.000    0.000    0.000    0.000    0.000 
#
# Total GULP energy -89240.613168 kJ/mol
# GULP energy per Si atom -5577.538323 kJ/mol
# Density = 2.463247 g / cm^3
# Si number density = 24.688666 Si / 1000 Ang^3
#
#
#
# Elastic Constant Matrix: (Units=GPa)
#
#
# Indices 1 2 3 4 5 6 
#
# 1 113.2593 25.1390 11.7013 0.0000 24.1648 0.0000
# 2 25.1390 173.5224 76.1738 0.0000 1.2439 0.0000
# 3 11.7013 76.1738 215.3579 0.0000 6.5750 0.0000
# 4 0.0000 0.0000 0.0000 -0.8704 0.0000 -42.4289
# 5 24.1648 1.2439 6.5750 0.0000 32.5065 0.0000
# 6 0.0000 0.0000 0.0000 -42.4289 0.0000 4.2616
#
#
#
# Elastic Compliance Matrix: (Units=1/GPa)
#
#
# Indices 1 2 3 4 5 6 
#
# 1 0.010889 -0.001620 0.000228 0.000000 -0.008079 0.000000
# 2 -0.001620 0.007065 -0.002455 0.000000 0.001430 0.000000
# 3 0.000228 -0.002455 0.005536 0.000000 -0.001195 0.000000
# 4 0.000000 0.000000 0.000000 -0.002362 0.000000 -0.023520
# 5 -0.008079 0.001430 -0.001195 0.000000 0.036956 0.000000
# 6 0.000000 0.000000 0.000000 -0.023520 0.000000 0.000482
#
#
# Mechanical properties :
#
#
# Convention : Reuss Voigt Hill
#
# Bulk Modulus (GPa) = 63.30369 80.90753 72.10561
# Shear Modulus (GPa) = 69.90702 33.12123 51.51412
#
# Velocity S-wave (km/s) = 5.32700 3.66670 4.57283
# Velocity P-wave (km/s) = 7.97072 7.12520 7.55979
#
# Compressibility (1/GPa) = 0.01579687
#
# Stress axis : x y z
#
# Youngs Moduli (GPa) = 91.83644 141.54570 180.64442
#
# Poissons Ratio (x) = 0.22926 -0.04117
# Poissons Ratio (y) = 0.14874 0.44340
# Poissons Ratio (z) = -0.02093 0.34743
#
# Static dielectric constant tensor:
#      x y z
#    x 2.150060 0.000000 -0.000360 
#    y 0.000000 1.959240 0.000000 
#    z -0.000360 0.000000 2.072180 
# 
# From -- ./inp_files/27697.got.cif
#   From: 2010.05.17/outbox.cif.g08.bks.cpg/sg15_14_cif.got.tgz:27697.got - 2010.06.03 18:47:42.
