data_PCOD9294944
_publ_section_title
;
Structure prediction by ZEFSAII (Michael W. Deem and Ramdas Pophale) SiO2 
 PCOD9294944
Probable space group: C 2/C
;
_chemical_formula_sum "Si O2"
_cell_formula_units_Z 56
_cell_length_a 20.954970
_cell_length_b 13.352453
_cell_length_c 8.607441
_cell_angle_alpha 90.000000
_cell_angle_beta 59.831688
_cell_angle_gamma 90.000000
_cell_volume 2082.158147
_symmetry_space_group_name_H-M "C 2/C"
_symmetry_group_IT_number 15
_symmetry_cell_setting 'monoclinic'
loop_
_space_group_symop_operation_xyz
x,y,z
-x,y,1/2-z
-x,-y,-z
x,-y,1/2+z
1/2+x,1/2+y,z
1/2-x,1/2+y,1/2-z
1/2-x,1/2-y,-z
1/2+x,1/2-y,1/2+z
loop_
_atom_site_type_symbol
_atom_site_label
_atom_site_fract_x
_atom_site_fract_y
_atom_site_fract_z
Si Si1 0.286581 0.784013 0.616875
Si Si2 0.796767 0.487886 0.453265
Si Si3 0.061049 0.062939 0.784338
Si Si4 0.509639 0.737655 0.420493
Si Si5 0.067565 0.604299 0.273846
Si Si6 0.639039 0.722773 0.474612
Si Si7 0.809049 0.922696 0.188460
O O1 0.250000 0.750000 0.500000
O O2 0.316012 0.892935 0.538781
O O3 0.334685 0.690914 0.619706
O O4 0.223200 0.792606 0.824823
O O5 0.870768 0.520976 0.275989
O O6 0.731004 0.459685 0.416636
O O7 0.758128 0.571076 0.608070
O O8 0.109556 0.128053 0.606286
O O9 0.122751 0.015612 0.821660
O O10 0.000000 0.009171 0.750000
O O11 0.017803 0.141251 0.946998
O O12 0.500000 0.729358 0.250000
O O13 0.468449 0.835542 0.539800
O O14 0.595129 0.742437 0.367725
O O15 0.111483 0.687339 0.118481
O O16 0.000000 0.566703 0.250000
#
# Coordination Sequence:
#
# PCOD9294944 Si02
#       7
#     8   8   8   8   8   8   8
#     4  10  23  41  70 102 144 184 240 299 357 427
#     4  11  25  44  69 109 147 191 246 294 361 437
#     4   9  21  42  69 100 136 183 243 299 372 430
#     4   9  19  35  70 110 138 186 249 299 365 428
#     4   9  19  43  71 102 150 196 235 294 367 442
#     4   9  18  39  69 100 138 189 237 296 357 440
#     4  11  25  46  70 102 146 188 243 300 360 435
#
# _framework density 26.895173
#
# number of rings (size 3 to 8) (size 9 to 14) (size 15 to 20)
#    0.000    2.286    1.429    1.714    6.000    2.857 
#    2.571    1.429   12.571    0.000    0.000    0.000 
#    0.000    0.000    0.000    0.000    0.000    0.000 
#
# Total GULP energy -156788.181838 kJ/mol
# GULP energy per Si atom -5599.577923 kJ/mol
# Density = 2.683396 g / cm^3
# Si number density = 26.895173 Si / 1000 Ang^3
#
#
#
# Elastic Constant Matrix: (Units=GPa)
#
#
# Indices 1 2 3 4 5 6 
#
# 1 127.0126 69.4168 42.0439 0.0000 14.9737 0.0000
# 2 69.4168 86.2969 39.4145 0.0000 4.9192 0.0000
# 3 42.0439 39.4145 124.8700 0.0000 12.3718 0.0000
# 4 0.0000 0.0000 0.0000 36.2528 0.0000 -6.8065
# 5 14.9737 4.9192 12.3718 0.0000 43.4389 0.0000
# 6 0.0000 0.0000 0.0000 -6.8065 0.0000 25.0022
#
#
#
# Elastic Compliance Matrix: (Units=1/GPa)
#
#
# Indices 1 2 3 4 5 6 
#
# 1 0.014752 -0.011167 -0.001095 0.000000 -0.003509 0.000000
# 2 -0.011167 0.021997 -0.003414 0.000000 0.002331 0.000000
# 3 -0.001095 -0.003414 0.009651 0.000000 -0.001985 0.000000
# 4 0.000000 0.000000 0.000000 0.029070 0.000000 0.007914
# 5 -0.003509 0.002331 -0.001985 0.000000 0.024532 0.000000
# 6 0.000000 0.000000 0.000000 0.007914 0.000000 0.042151
#
#
# Mechanical properties :
#
#
# Convention : Reuss Voigt Hill
#
# Bulk Modulus (GPa) = 66.44940 71.10331 68.77635
# Shear Modulus (GPa) = 28.00798 33.42573 30.71686
#
# Velocity S-wave (km/s) = 3.23054 3.52918 3.38316
# Velocity P-wave (km/s) = 6.21897 6.56517 6.39441
#
# Compressibility (1/GPa) = 0.01504905
#
# Stress axis : x y z
#
# Youngs Moduli (GPa) = 67.78643 45.46115 103.61324
#
# Poissons Ratio (x) = 0.50765 0.11343
# Poissons Ratio (y) = 0.75694 0.35376
# Poissons Ratio (z) = 0.07421 0.15522
#
# Static dielectric constant tensor:
#      x y z
#    x 2.118280 0.000000 0.001790 
#    y 0.000000 2.166260 0.000000 
#    z 0.001790 0.000000 2.013150 
# 
# From -- ./inp_files/56506.got.cif
#   From: 2010.05.17/outbox.cif.g08.bks.cpg/sg15_29_cif.got.tgz:56506.got - 2010.06.03 18:47:42.
