data_PCOD9294781
_publ_section_title
;
Structure prediction by ZEFSAII (Michael W. Deem and Ramdas Pophale) SiO2 
 PCOD9294781
Probable space group: C 2/C
;
_chemical_formula_sum "Si O2"
_cell_formula_units_Z 56
_cell_length_a 15.440498
_cell_length_b 16.964750
_cell_length_c 11.086007
_cell_angle_alpha 90.000000
_cell_angle_beta 103.577201
_cell_angle_gamma 90.000000
_cell_volume 2822.763720
_symmetry_space_group_name_H-M "C 2/C"
_symmetry_group_IT_number 15
_symmetry_cell_setting 'monoclinic'
loop_
_space_group_symop_operation_xyz
x,y,z
-x,y,1/2-z
-x,-y,-z
x,-y,1/2+z
1/2+x,1/2+y,z
1/2-x,1/2+y,1/2-z
1/2-x,1/2-y,-z
1/2+x,1/2-y,1/2+z
loop_
_atom_site_type_symbol
_atom_site_label
_atom_site_fract_x
_atom_site_fract_y
_atom_site_fract_z
Si Si1 0.311002 0.241974 0.183923
Si Si2 0.057433 0.442688 0.601143
Si Si3 0.231884 0.431792 0.494703
Si Si4 0.687373 0.287327 0.875500
Si Si5 0.240908 0.611216 0.518438
Si Si6 0.500000 0.785744 0.250000
Si Si7 0.000000 0.312499 0.750000
Si Si8 0.129313 0.413004 0.219661
O O1 0.238143 0.234879 0.266833
O O2 0.301315 0.320407 0.099678
O O3 0.413908 0.238902 0.251621
O O4 0.298617 0.161010 0.104453
O O5 0.144559 0.420680 0.551925
O O6 0.001216 0.371160 0.635410
O O7 0.091732 0.498802 0.720894
O O8 0.000000 0.500000 0.500000
O O9 0.305431 0.379164 0.585881
O O10 0.265643 0.521936 0.488817
O O11 0.196209 0.400888 0.353334
O O12 0.583492 0.261383 0.834394
O O13 0.750000 0.250000 0.000000
O O14 0.177082 0.591257 0.608516
O O15 0.552157 0.848176 0.184031
#
# Coordination Sequence:
#
# PCOD9294781 Si02
#       8
#     8   8   8   8   8   4   4   8
#     4  11  23  43  61  97 132 176 220 267 340 396
#     4  11  21  32  57  99 133 166 209 272 343 406
#     4  11  22  40  65  95 134 173 218 275 336 397
#     4  12  25  45  67  97 137 175 226 276 330 404
#     4  10  23  41  66  90 134 175 214 273 331 403
#     4  12  23  40  69  94 132 178 226 274 333 399
#     4  12  21  36  61  90 134 170 206 266 333 407
#     4  11  21  38  62  97 131 166 216 275 340 397
#
# _framework density 19.838712000000001
#
# number of rings (size 3 to 8) (size 9 to 14) (size 15 to 20)
#    0.000    0.857    4.286    4.714    2.000    1.143 
#    0.000    0.714    0.000    0.857    0.000    0.000 
#    0.000    0.000    0.000    0.000    0.000    0.000 
#
# Total GULP energy -155988.379519 kJ/mol
# GULP energy per Si atom -5571.013554 kJ/mol
# Density = 1.979356 g / cm^3
# Si number density = 19.838712 Si / 1000 Ang^3
#
#
#
# Elastic Constant Matrix: (Units=GPa)
#
#
# Indices 1 2 3 4 5 6 
#
# 1 73.2553 37.8098 32.0092 0.0000 16.9686 0.0000
# 2 37.8098 110.0804 23.1149 0.0000 15.2577 0.0000
# 3 32.0092 23.1149 69.1081 0.0000 5.2760 0.0000
# 4 0.0000 0.0000 0.0000 96.5778 0.0000 -125.4947
# 5 16.9686 15.2577 5.2760 0.0000 29.3759 0.0000
# 6 0.0000 0.0000 0.0000 -125.4947 0.0000 294.5651
#
#
#
# Elastic Compliance Matrix: (Units=1/GPa)
#
#
# Indices 1 2 3 4 5 6 
#
# 1 0.021349 -0.004520 -0.007720 0.000000 -0.008598 0.000000
# 2 -0.004520 0.011367 -0.001477 0.000000 -0.003028 0.000000
# 3 -0.007720 -0.001477 0.018393 0.000000 0.001923 0.000000
# 4 0.000000 0.000000 0.000000 0.023195 0.000000 0.009882
# 5 -0.008598 -0.003028 0.001923 0.000000 0.040235 0.000000
# 6 0.000000 0.000000 0.000000 0.009882 0.000000 0.007605
#
#
# Mechanical properties :
#
#
# Convention : Reuss Voigt Hill
#
# Bulk Modulus (GPa) = 42.24035 48.70126 45.47081
# Shear Modulus (GPa) = 31.75244 94.73777 63.24511
#
# Velocity S-wave (km/s) = 4.00500 6.91792 5.65233
# Velocity P-wave (km/s) = 6.53642 9.40277 8.09744
#
# Compressibility (1/GPa) = 0.02367404
#
# Stress axis : x y z
#
# Youngs Moduli (GPa) = 46.84160 87.97731 54.36844
#
# Poissons Ratio (x) = 0.39765 0.41972
# Poissons Ratio (y) = 0.21172 0.08031
# Poissons Ratio (z) = 0.36161 0.12996
#
# Static dielectric constant tensor:
#      x y z
#    x 1.716980 0.000000 0.022070 
#    y 0.000000 1.825940 0.000000 
#    z 0.022070 0.000000 1.774700 
# 
# From -- ./inp_files/98414.got.cif
#   From: 2010.05.17/outbox.cif.g08.bks.cpg/sg15_50_cif.got.tgz:98414.got - 2010.06.03 18:47:42.
