data_PCOD9294851
_publ_section_title
;
Structure prediction by ZEFSAII (Michael W. Deem and Ramdas Pophale) SiO2 
 PCOD9294851
Probable space group: C 2/C
;
_chemical_formula_sum "Si O2"
_cell_formula_units_Z 48
_cell_length_a 13.868408
_cell_length_b 12.044423
_cell_length_c 27.699098
_cell_angle_alpha 90.000000
_cell_angle_beta 29.045547
_cell_angle_gamma 90.000000
_cell_volume 2246.320456
_symmetry_space_group_name_H-M "C 2/C"
_symmetry_group_IT_number 15
_symmetry_cell_setting 'monoclinic'
loop_
_space_group_symop_operation_xyz
x,y,z
-x,y,1/2-z
-x,-y,-z
x,-y,1/2+z
1/2+x,1/2+y,z
1/2-x,1/2+y,1/2-z
1/2-x,1/2-y,-z
1/2+x,1/2-y,1/2+z
loop_
_atom_site_type_symbol
_atom_site_label
_atom_site_fract_x
_atom_site_fract_y
_atom_site_fract_z
Si Si1 0.610824 0.635449 0.595383
Si Si2 0.158341 0.350587 0.777566
Si Si3 0.014715 0.155564 0.447737
Si Si4 0.740983 0.951613 0.570901
Si Si5 0.102078 0.382737 0.444927
Si Si6 0.126831 0.024393 0.237708
O O1 0.451939 0.733514 0.668403
O O2 0.684413 0.612648 0.509607
O O3 0.789327 0.658164 0.554334
O O4 0.514277 0.523962 0.659225
O O5 0.350630 0.342853 0.659268
O O6 0.219287 0.396588 0.803239
O O7 0.995449 0.433906 0.825463
O O8 0.156029 0.101360 0.427218
O O9 0.972081 0.282524 0.481416
O O10 0.822626 0.076877 0.529468
O O11 0.267854 0.417917 0.333114
O O12 0.000000 0.500000 0.500000
O O13 0.000000 0.077648 0.250000
#
# Coordination Sequence:
#
# PCOD9294851 Si02
#       6
#     8   8   8   8   8   8
#     4  11  22  42  70  96 133 182 240 270 344 414
#     4  12  22  43  72  96 138 187 231 285 344 419
#     4  11  24  42  66 104 143 175 231 287 344 409
#     4  11  24  40  68 105 135 179 234 281 340 418
#     4  11  23  42  68 100 134 181 229 287 341 410
#     4  10  23  41  67  97 133 176 229 292 342 395
#
# _framework density 21.368278
#
# number of rings (size 3 to 8) (size 9 to 14) (size 15 to 20)
#    0.000    1.000    5.000    2.000    2.333    0.000 
#    0.000    6.667    0.000    0.000    0.000    0.000 
#    0.000    0.000    0.000    0.000    0.000    0.000 
#
# Total GULP energy -134168.036343 kJ/mol
# GULP energy per Si atom -5590.334848 kJ/mol
# Density = 2.131964 g / cm^3
# Si number density = 21.368278 Si / 1000 Ang^3
#
#
#
# Elastic Constant Matrix: (Units=GPa)
#
#
# Indices 1 2 3 4 5 6 
#
# 1 95.0661 40.7109 -4.9812 -0.0001 5.0209 0.0000
# 2 40.7109 123.6690 21.2229 0.0003 -7.9093 0.0000
# 3 -4.9812 21.2229 40.2263 0.0005 9.0125 0.0000
# 4 -0.0001 0.0003 0.0005 32.9736 -0.0003 -5.0780
# 5 5.0209 -7.9093 9.0125 -0.0003 36.3979 -0.0001
# 6 0.0000 0.0000 0.0000 -5.0780 -0.0001 32.5491
#
#
#
# Elastic Compliance Matrix: (Units=1/GPa)
#
#
# Indices 1 2 3 4 5 6 
#
# 1 0.013501 -0.005711 0.005696 0.000000 -0.004514 0.000000
# 2 -0.005711 0.011691 -0.008069 0.000000 0.005326 0.000000
# 3 0.005696 -0.008069 0.032175 -0.000001 -0.010506 0.000000
# 4 0.000000 0.000000 -0.000001 0.031074 0.000000 0.004848
# 5 -0.004514 0.005326 -0.010506 0.000000 0.031856 0.000000
# 6 0.000000 0.000000 0.000000 0.004848 0.000000 0.031479
#
#
# Mechanical properties :
#
#
# Convention : Reuss Voigt Hill
#
# Bulk Modulus (GPa) = 24.27090 41.42960 32.85025
# Shear Modulus (GPa) = 27.52131 33.85136 30.68633
#
# Velocity S-wave (km/s) = 3.59270 3.98450 3.79366
# Velocity P-wave (km/s) = 5.34724 6.37172 5.88183
#
# Compressibility (1/GPa) = 0.04120160
#
# Stress axis : x y z
#
# Youngs Moduli (GPa) = 74.06627 85.53334 31.07956
#
# Poissons Ratio (x) = 0.48846 -0.17703
# Poissons Ratio (y) = 0.42297 0.25077
# Poissons Ratio (z) = -0.42189 0.69014
#
# Static dielectric constant tensor:
#      x y z
#    x 1.766680 0.000000 -0.009380 
#    y 0.000000 1.789890 0.000000 
#    z -0.009380 0.000000 1.835260 
# 
# From -- ./inp_files/313538.got.cif
#   From: 2010.05.17/outbox.cif.g08.bks.cpg/sg15_157_cif.got.tgz:313538.got - 2010.06.03 18:47:42.
