data_PCOD9294298
_publ_section_title
;
Structure prediction by ZEFSAII (Michael W. Deem and Ramdas Pophale) SiO2 
 PCOD9294298
Probable space group: C 2/C
;
_chemical_formula_sum "Si O2"
_cell_formula_units_Z 56
_cell_length_a 9.427921
_cell_length_b 17.986846
_cell_length_c 26.912374
_cell_angle_alpha 90.000000
_cell_angle_beta 149.878942
_cell_angle_gamma 90.000000
_cell_volume 2290.226487
_symmetry_space_group_name_H-M "C 2/C"
_symmetry_group_IT_number 15
_symmetry_cell_setting 'monoclinic'
loop_
_space_group_symop_operation_xyz
x,y,z
-x,y,1/2-z
-x,-y,-z
x,-y,1/2+z
1/2+x,1/2+y,z
1/2-x,1/2+y,1/2-z
1/2-x,1/2-y,-z
1/2+x,1/2-y,1/2+z
loop_
_atom_site_type_symbol
_atom_site_label
_atom_site_fract_x
_atom_site_fract_y
_atom_site_fract_z
Si Si1 0.035359 0.134184 0.588133
Si Si2 0.401831 0.480441 0.775382
Si Si3 0.141446 0.419092 0.047182
Si Si4 0.099394 0.164338 0.403309
Si Si5 0.282491 0.332684 0.905377
Si Si6 0.715813 0.997595 0.881309
Si Si7 0.695561 0.264857 0.767297
O O1 0.222884 0.060279 0.640066
O O2 0.194443 0.192228 0.671000
O O3 0.736796 0.113249 0.523107
O O4 0.959675 0.162047 0.510081
O O5 0.500000 0.459795 0.750000
O O6 0.570279 0.556383 0.839248
O O7 0.469679 0.410960 0.834347
O O8 0.073723 0.503506 0.676627
O O9 0.000000 0.500000 0.000000
O O10 0.924797 0.361654 0.005905
O O11 0.971898 0.191714 0.416753
O O12 0.023575 0.232398 0.344175
O O13 0.206931 0.413920 0.860831
O O14 0.985648 0.296921 0.831695
O O15 0.000000 0.000000 0.000000
O O16 0.500000 0.303894 0.750000
#
# Coordination Sequence:
#
# PCOD9294298 Si02
#       7
#     8   8   8   8   8   8   8
#     4  11  26  46  74 107 158 203 262 330 421 491
#     4  11  24  40  74 116 161 203 266 344 421 481
#     4  10  24  43  75 113 153 201 264 339 417 482
#     4  11  24  45  75 110 151 203 269 335 406 492
#     4  11  24  46  77 107 145 204 271 330 405 486
#     4  10  23  39  75 112 152 196 267 335 410 472
#     4  12  26  46  73 105 151 210 266 319 401 500
#
# _framework density 24.451729
#
# number of rings (size 3 to 8) (size 9 to 14) (size 15 to 20)
#    0.000    1.143    1.429    3.857   14.000    1.143 
#    0.000    5.714    0.000    0.000    0.000    0.000 
#    0.000    0.000    0.000    0.000    0.000    0.000 
#
# Total GULP energy -156270.120248 kJ/mol
# GULP energy per Si atom -5581.075723 kJ/mol
# Density = 2.439608 g / cm^3
# Si number density = 24.451729 Si / 1000 Ang^3
#
#
#
# Elastic Constant Matrix: (Units=GPa)
#
#
# Indices 1 2 3 4 5 6 
#
# 1 210.1841 63.0808 54.1147 -0.0007 19.1191 0.0001
# 2 63.0808 86.6181 46.3688 0.0005 -6.4474 0.0000
# 3 54.1147 46.3688 127.9112 -0.0066 26.1771 -0.0001
# 4 -0.0007 0.0005 -0.0066 39.2120 -0.0012 2.1748
# 5 19.1191 -6.4474 26.1771 -0.0012 47.1873 -0.0001
# 6 0.0001 0.0000 -0.0001 2.1748 -0.0001 33.9087
#
#
#
# Elastic Compliance Matrix: (Units=1/GPa)
#
#
# Indices 1 2 3 4 5 6 
#
# 1 0.006589 -0.004810 -0.000410 0.000000 -0.003100 0.000000
# 2 -0.004810 0.019201 -0.006612 -0.000001 0.008240 0.000000
# 3 -0.000410 -0.006612 0.011889 0.000002 -0.007333 0.000000
# 4 0.000000 -0.000001 0.000002 0.025593 -0.000001 -0.001641
# 5 -0.003100 0.008240 -0.007333 -0.000001 0.027642 0.000000
# 6 0.000000 0.000000 0.000000 -0.001641 0.000000 0.029596
#
#
# Mechanical properties :
#
#
# Convention : Reuss Voigt Hill
#
# Bulk Modulus (GPa) = 71.34919 83.53799 77.44359
# Shear Modulus (GPa) = 33.59236 41.47153 37.53195
#
# Velocity S-wave (km/s) = 3.71053 4.12279 3.92208
# Velocity P-wave (km/s) = 6.89930 7.54333 7.22849
#
# Compressibility (1/GPa) = 0.01401558
#
# Stress axis : x y z
#
# Youngs Moduli (GPa) = 151.77681 52.08186 84.11363
#
# Poissons Ratio (x) = 0.25050 0.03445
# Poissons Ratio (y) = 0.73001 0.55615
# Poissons Ratio (z) = 0.06216 0.34436
#
# Static dielectric constant tensor:
#      x y z
#    x 1.976690 0.000010 -0.011990 
#    y 0.000010 2.076730 0.000010 
#    z -0.011990 0.000010 1.957840 
# 
# From -- ./inp_files/309028.got.cif
#   From: 2010.05.17/outbox.cif.g08.bks.cpg/sg15_155_cif.got.tgz:309028.got - 2010.06.03 18:47:42.
