data_PCOD9294231
_publ_section_title
;
Structure prediction by ZEFSAII (Michael W. Deem and Ramdas Pophale) SiO2 
 PCOD9294231
Probable space group: C 2/C
;
_chemical_formula_sum "Si O2"
_cell_formula_units_Z 48
_cell_length_a 13.164414
_cell_length_b 15.782354
_cell_length_c 14.664585
_cell_angle_alpha 90.000000
_cell_angle_beta 120.515419
_cell_angle_gamma 90.000000
_cell_volume 2624.790301
_symmetry_space_group_name_H-M "C 2/C"
_symmetry_group_IT_number 15
_symmetry_cell_setting 'monoclinic'
loop_
_space_group_symop_operation_xyz
x,y,z
-x,y,1/2-z
-x,-y,-z
x,-y,1/2+z
1/2+x,1/2+y,z
1/2-x,1/2+y,1/2-z
1/2-x,1/2-y,-z
1/2+x,1/2-y,1/2+z
loop_
_atom_site_type_symbol
_atom_site_label
_atom_site_fract_x
_atom_site_fract_y
_atom_site_fract_z
Si Si1 0.254369 0.387855 0.016407
Si Si2 0.446723 0.762209 0.624019
Si Si3 0.365913 0.492333 0.701626
Si Si4 0.380709 0.697534 0.145531
Si Si5 0.862251 0.005929 0.910473
Si Si6 0.650173 0.294636 0.079431
O O1 0.352231 0.314212 0.072956
O O2 0.271360 0.445193 0.114003
O O3 0.128555 0.344512 0.940888
O O4 0.291245 0.447550 0.948407
O O5 0.500000 0.769845 0.750000
O O6 0.552987 0.739557 0.604525
O O7 0.500000 0.527609 0.750000
O O8 0.363959 0.403404 0.647988
O O9 0.347469 0.476438 0.799760
O O10 0.500000 0.720682 0.250000
O O11 0.271932 0.744527 0.142485
O O12 0.389177 0.718882 0.043033
O O13 0.830550 0.105090 0.899139
O O14 0.000000 0.000000 0.000000
#
# Coordination Sequence:
#
# PCOD9294231 Si02
#       6
#     8   8   8   8   8   8
#     4  11  23  40  62  96 126 164 211 263 320 374
#     4  11  25  40  62  94 132 165 206 261 328 386
#     4  11  20  37  63  92 119 158 217 261 304 372
#     4  10  23  39  65  89 118 161 214 259 311 370
#     4  12  20  36  65  92 123 163 214 264 309 372
#     4  11  22  41  62  90 126 159 208 263 309 384
#
# _framework density 18.287175000000001
#
# number of rings (size 3 to 8) (size 9 to 14) (size 15 to 20)
#    0.000    1.000    5.000    2.500    2.333    2.667 
#    0.000    1.667    0.000    0.000    0.000    0.000 
#    0.000    0.000    0.000    0.000    0.000    0.000 
#
# Total GULP energy -134089.335773 kJ/mol
# GULP energy per Si atom -5587.055657 kJ/mol
# Density = 1.824555 g / cm^3
# Si number density = 18.287175 Si / 1000 Ang^3
#
#
#
# Elastic Constant Matrix: (Units=GPa)
#
#
# Indices 1 2 3 4 5 6 
#
# 1 50.8690 39.2165 58.4405 0.0000 9.8162 0.0000
# 2 39.2165 81.3502 50.6579 0.0000 16.9414 0.0000
# 3 58.4405 50.6579 118.2632 0.0000 8.0289 0.0000
# 4 0.0000 0.0000 0.0000 27.2754 0.0000 2.8449
# 5 9.8162 16.9414 8.0289 0.0000 24.7701 0.0000
# 6 0.0000 0.0000 0.0000 2.8449 0.0000 32.6657
#
#
#
# Elastic Compliance Matrix: (Units=1/GPa)
#
#
# Indices 1 2 3 4 5 6 
#
# 1 0.054678 -0.011459 -0.021648 0.000000 -0.006814 0.000000
# 2 -0.011459 0.021586 -0.002955 0.000000 -0.009265 0.000000
# 3 -0.021648 -0.002955 0.020143 0.000000 0.004071 0.000000
# 4 0.000000 0.000000 0.000000 0.036999 0.000000 -0.003222
# 5 -0.006814 -0.009265 0.004071 0.000000 0.048089 0.000000
# 6 0.000000 0.000000 0.000000 -0.003222 0.000000 0.030894
#
#
# Mechanical properties :
#
#
# Convention : Reuss Voigt Hill
#
# Bulk Modulus (GPa) = 41.18214 60.79025 50.98620
# Shear Modulus (GPa) = 17.08780 23.75339 20.42059
#
# Velocity S-wave (km/s) = 3.06014 3.60795 3.34527
# Velocity P-wave (km/s) = 5.92068 7.11833 6.54695
#
# Compressibility (1/GPa) = 0.02428237
#
# Stress axis : x y z
#
# Youngs Moduli (GPa) = 18.28897 46.32647 49.64550
#
# Poissons Ratio (x) = 0.53084 1.07475
# Poissons Ratio (y) = 0.20957 0.14670
# Poissons Ratio (z) = 0.39593 0.13689
#
# Static dielectric constant tensor:
#      x y z
#    x 1.613100 0.000000 -0.023580 
#    y 0.000000 1.639160 0.000000 
#    z -0.023580 0.000000 1.630300 
# 
# From -- ./inp_files/143464.got.cif
#   From: 2010.05.17/outbox.cif.g08.bks.cpg/sg15_72_cif.got.tgz:143464.got - 2010.06.03 18:47:42.
