data_PCOD9294104
_publ_section_title
;
Structure prediction by ZEFSAII (Michael W. Deem and Ramdas Pophale) SiO2 
 PCOD9294104
Probable space group: C 2/C
;
_chemical_formula_sum "Si O2"
_cell_formula_units_Z 48
_cell_length_a 11.501613
_cell_length_b 22.625817
_cell_length_c 8.808684
_cell_angle_alpha 90.000000
_cell_angle_beta 112.824235
_cell_angle_gamma 90.000000
_cell_volume 2112.823613
_symmetry_space_group_name_H-M "C 2/C"
_symmetry_group_IT_number 15
_symmetry_cell_setting 'monoclinic'
loop_
_space_group_symop_operation_xyz
x,y,z
-x,y,1/2-z
-x,-y,-z
x,-y,1/2+z
1/2+x,1/2+y,z
1/2-x,1/2+y,1/2-z
1/2-x,1/2-y,-z
1/2+x,1/2-y,1/2+z
loop_
_atom_site_type_symbol
_atom_site_label
_atom_site_fract_x
_atom_site_fract_y
_atom_site_fract_z
Si Si1 0.000000 0.552058 0.750000
Si Si2 0.677348 0.437847 0.049244
Si Si3 0.862817 0.644857 0.834719
Si Si4 0.650475 0.154496 0.325896
Si Si5 0.697837 0.267791 0.808287
Si Si6 0.715963 0.969060 0.715349
Si Si7 0.000000 0.870538 0.750000
O O1 0.013301 0.603419 0.622650
O O2 0.096099 0.506203 0.715747
O O3 0.758600 0.387066 0.175061
O O4 0.668392 0.492000 0.160740
O O5 0.763549 0.462637 0.953633
O O6 0.552912 0.410721 0.912813
O O7 0.879314 0.711675 0.790520
O O8 0.812824 0.648951 0.979659
O O9 0.500000 0.153126 0.250000
O O10 0.695717 0.212553 0.258505
O O11 0.703952 0.095860 0.274658
O O12 0.612280 0.325705 0.771491
O O13 0.750000 0.250000 0.000000
#
# Coordination Sequence:
#
# PCOD9294104 Si02
#       7
#     4   8   8   8   8   8   4
#     4  10  23  38  78 104 144 199 236 318 382 434
#     4  11  25  45  70 105 144 199 247 313 376 455
#     4  11  25  43  68 108 149 191 251 310 386 448
#     4  12  27  44  74 113 151 194 251 321 385 452
#     4  12  26  51  74 106 148 197 257 311 377 462
#     4  11  22  43  66 106 151 183 250 312 376 449
#     4  12  25  46  78 100 142 203 256 304 382 456
#
# _framework density 22.718413000000002
#
# number of rings (size 3 to 8) (size 9 to 14) (size 15 to 20)
#    0.000    0.667    4.167    3.000    9.333    4.000 
#    0.000    0.833    0.000    0.000    0.000    0.000 
#    0.000    0.000    0.000    0.000    0.000    0.000 
#
# Total GULP energy -133932.654801 kJ/mol
# GULP energy per Si atom -5580.527283 kJ/mol
# Density = 2.266670 g / cm^3
# Si number density = 22.718413 Si / 1000 Ang^3
#
#
#
# Elastic Constant Matrix: (Units=GPa)
#
#
# Indices 1 2 3 4 5 6 
#
# 1 53.2587 53.5788 36.0475 0.0000 4.5501 0.0000
# 2 53.5788 153.4603 49.8301 0.0000 -9.1501 0.0000
# 3 36.0475 49.8301 155.6013 0.0000 -17.2644 0.0000
# 4 0.0000 0.0000 0.0000 28.9070 0.0000 -0.7976
# 5 4.5501 -9.1501 -17.2644 0.0000 40.1527 0.0000
# 6 0.0000 0.0000 0.0000 -0.7976 0.0000 44.1153
#
#
#
# Elastic Compliance Matrix: (Units=1/GPa)
#
#
# Indices 1 2 3 4 5 6 
#
# 1 0.033769 -0.010549 -0.005394 0.000000 -0.008550 0.000000
# 2 -0.010549 0.010586 -0.000573 0.000000 0.003361 0.000000
# 3 -0.005394 -0.000573 0.008310 0.000000 0.004053 0.000000
# 4 0.000000 0.000000 0.000000 0.034611 0.000000 0.000626
# 5 -0.008550 0.003361 0.004053 0.000000 0.028383 0.000000
# 6 0.000000 0.000000 0.000000 0.000626 0.000000 0.022679
#
#
# Mechanical properties :
#
#
# Convention : Reuss Voigt Hill
#
# Bulk Modulus (GPa) = 50.93338 71.24813 61.09075
# Shear Modulus (GPa) = 28.10357 37.49260 32.79809
#
# Velocity S-wave (km/s) = 3.52097 4.06682 3.80370
# Velocity P-wave (km/s) = 6.24482 7.31310 6.79997
#
# Compressibility (1/GPa) = 0.01963349
#
# Stress axis : x y z
#
# Youngs Moduli (GPa) = 29.61262 94.46589 120.34313
#
# Poissons Ratio (x) = 0.99648 0.64910
# Poissons Ratio (y) = 0.31237 0.06900
# Poissons Ratio (z) = 0.15972 0.05416
#
# Static dielectric constant tensor:
#      x y z
#    x 1.997420 0.000000 0.056570 
#    y 0.000000 1.799370 0.000000 
#    z 0.056570 0.000000 1.915860 
# 
# From -- ./inp_files/32165.got.cif
#   From: 2010.05.17/outbox.cif.g08.bks.cpg/sg15_17_cif.got.tgz:32165.got - 2010.06.03 18:47:42.
