data_PCOD9294294
_publ_section_title
;
Structure prediction by ZEFSAII (Michael W. Deem and Ramdas Pophale) SiO2 
 PCOD9294294
Probable space group: C 2/C
;
_chemical_formula_sum "Si O2"
_cell_formula_units_Z 64
_cell_length_a 24.378349
_cell_length_b 9.837266
_cell_length_c 17.721138
_cell_angle_alpha 90.000000
_cell_angle_beta 38.986824
_cell_angle_gamma 90.000000
_cell_volume 2673.737427
_symmetry_space_group_name_H-M "C 2/C"
_symmetry_group_IT_number 15
_symmetry_cell_setting 'monoclinic'
loop_
_space_group_symop_operation_xyz
x,y,z
-x,y,1/2-z
-x,-y,-z
x,-y,1/2+z
1/2+x,1/2+y,z
1/2-x,1/2+y,1/2-z
1/2-x,1/2-y,-z
1/2+x,1/2-y,1/2+z
loop_
_atom_site_type_symbol
_atom_site_label
_atom_site_fract_x
_atom_site_fract_y
_atom_site_fract_z
Si Si1 0.856390 0.831454 0.066075
Si Si2 0.652342 0.244531 0.752183
Si Si3 0.849830 0.935558 0.469216
Si Si4 0.404912 0.280452 0.267896
Si Si5 0.846540 0.514896 0.868831
Si Si6 0.572228 0.241562 0.001169
Si Si7 0.313421 0.539932 0.764467
Si Si8 0.377011 0.957110 0.512396
O O1 0.753598 0.793614 0.163600
O O2 0.861033 0.919666 0.136609
O O3 0.903886 0.687075 0.017363
O O4 0.886083 0.925515 0.965685
O O5 0.650890 0.404305 0.733082
O O6 0.626999 0.138230 0.714552
O O7 0.595897 0.238704 0.888492
O O8 0.903518 0.868239 0.344848
O O9 0.753418 0.973171 0.542757
O O10 0.853042 0.824020 0.533152
O O11 0.398148 0.124086 0.298360
O O12 0.484031 0.308620 0.126480
O O13 0.320890 0.332602 0.311725
O O14 0.858391 0.557069 0.943091
O O15 0.563602 0.085581 0.036271
O O16 0.214019 0.503789 0.852290
#
# Coordination Sequence:
#
# PCOD9294294 Si02
#       8
#     8   8   8   8   8   8   8   8
#     4  10  23  39  71  98 127 170 221 274 328 379
#     4  10  24  40  67  97 133 163 216 273 327 384
#     4  11  22  43  67  94 125 170 225 267 317 389
#     4  12  26  39  68  93 133 173 222 261 330 392
#     4  11  24  42  66  99 125 171 218 273 322 384
#     4  12  24  43  64  93 134 176 208 269 324 395
#     4  11  22  42  65 100 124 170 220 268 323 388
#     4  11  23  41  69  96 133 165 220 275 325 384
#
# _framework density 23.936530999999999
#
# number of rings (size 3 to 8) (size 9 to 14) (size 15 to 20)
#    0.000    1.000    5.000    1.500    3.500    2.500 
#    0.000    0.000    2.750    0.000    0.000    0.000 
#    0.000    0.000    0.000    0.000    0.000    0.000 
#
# Total GULP energy -179020.976643 kJ/mol
# GULP energy per Si atom -5594.405520 kJ/mol
# Density = 2.388205 g / cm^3
# Si number density = 23.936531 Si / 1000 Ang^3
#
#
#
# Elastic Constant Matrix: (Units=GPa)
#
#
# Indices 1 2 3 4 5 6 
#
# 1 21.3869 8.1497 24.5148 0.0000 1.3513 0.0000
# 2 8.1497 138.0009 50.9955 -0.0005 5.6951 0.0004
# 3 24.5148 50.9955 98.1561 -0.0002 12.7932 0.0002
# 4 0.0000 -0.0005 -0.0002 31.5794 0.0001 28.7320
# 5 1.3513 5.6951 12.7932 0.0001 21.0005 -0.0001
# 6 0.0000 0.0004 0.0002 28.7320 -0.0001 15.3396
#
#
#
# Elastic Compliance Matrix: (Units=1/GPa)
#
#
# Indices 1 2 3 4 5 6 
#
# 1 0.067150 0.002818 -0.019088 0.000000 0.006543 0.000000
# 2 0.002818 0.009090 -0.005520 0.000000 0.000716 0.000001
# 3 -0.019088 -0.005520 0.018974 0.000000 -0.008834 0.000000
# 4 0.000000 0.000000 0.000000 -0.044969 0.000001 0.084230
# 5 0.006543 0.000716 -0.008834 0.000001 0.052384 -0.000001
# 6 0.000000 0.000001 0.000000 0.084230 -0.000001 -0.092578
#
#
# Mechanical properties :
#
#
# Convention : Reuss Voigt Hill
#
# Bulk Modulus (GPa) = 19.36670 47.20711 33.28691
# Shear Modulus (GPa) = 70.57994 25.17615 47.87805
#
# Velocity S-wave (km/s) = 5.43602 3.24665 4.47722
# Velocity P-wave (km/s) = 6.89266 5.81540 6.37682
#
# Compressibility (1/GPa) = 0.05163502
#
# Stress axis : x y z
#
# Youngs Moduli (GPa) = 14.89207 110.01017 52.70346
#
# Poissons Ratio (x) = -0.31000 1.00599
# Poissons Ratio (y) = -0.04196 0.29091
# Poissons Ratio (z) = 0.28425 0.60723
#
# Static dielectric constant tensor:
#      x y z
#    x 1.957860 0.000000 -0.040490 
#    y 0.000000 1.891110 0.000000 
#    z -0.040490 0.000000 1.899110 
# 
# From -- ./inp_files/224610.got.cif
#   From: 2010.05.17/outbox.cif.g08.bks.cpg/sg15_113_cif.got.tgz:224610.got - 2010.06.03 18:47:42.
