data_PCOD9294357
_publ_section_title
;
Structure prediction by ZEFSAII (Michael W. Deem and Ramdas Pophale) SiO2 
 PCOD9294357
Probable space group: C 2/C
;
_chemical_formula_sum "Si O2"
_cell_formula_units_Z 48
_cell_length_a 24.486283
_cell_length_b 8.843063
_cell_length_c 15.257608
_cell_angle_alpha 90.000000
_cell_angle_beta 130.729692
_cell_angle_gamma 90.000000
_cell_volume 2503.597550
_symmetry_space_group_name_H-M "C 2/C"
_symmetry_group_IT_number 15
_symmetry_cell_setting 'monoclinic'
loop_
_space_group_symop_operation_xyz
x,y,z
-x,y,1/2-z
-x,-y,-z
x,-y,1/2+z
1/2+x,1/2+y,z
1/2-x,1/2+y,1/2-z
1/2-x,1/2-y,-z
1/2+x,1/2-y,1/2+z
loop_
_atom_site_type_symbol
_atom_site_label
_atom_site_fract_x
_atom_site_fract_y
_atom_site_fract_z
Si Si1 0.944999 0.134530 0.436416
Si Si2 0.780496 0.911167 0.726606
Si Si3 0.713537 0.096907 0.496741
Si Si4 0.036069 0.432685 0.124046
Si Si5 0.707994 0.934924 0.312543
Si Si6 0.949698 0.682055 0.125029
O O1 0.866313 0.075978 0.327739
O O2 0.972562 0.253313 0.392119
O O3 0.941357 0.222587 0.526189
O O4 0.000000 0.000000 0.500000
O O5 0.768956 0.736117 0.687107
O O6 0.748274 0.025468 0.620558
O O7 0.745004 0.952300 0.782412
O O8 0.750000 0.250000 0.500000
O O9 0.629682 0.136285 0.425993
O O10 0.723823 0.977255 0.429032
O O11 0.121850 0.454270 0.212286
O O12 0.995329 0.529865 0.153176
O O13 0.000000 0.500000 0.000000
O O14 0.000000 0.764733 0.250000
#
# Coordination Sequence:
#
# PCOD9294357 Si02
#       6
#     8   8   8   8   8   8
#     4  10  23  40  62  94 127 169 208 269 331 373
#     4  11  24  42  64  93 133 167 216 268 322 394
#     4  12  25  41  67  97 127 172 218 269 323 382
#     4   9  19  38  62  87 122 166 212 249 306 387
#     4  11  22  41  62  94 127 168 214 262 325 378
#     4  11  22  41  66  94 126 170 223 259 316 394
#
# _framework density 19.172411
#
# number of rings (size 3 to 8) (size 9 to 14) (size 15 to 20)
#    0.000    1.333    1.667    5.500    2.333    4.000 
#    0.000    2.500    0.000    0.000    0.000    0.000 
#    0.000    0.000    0.000    0.000    0.000    0.000 
#
# Total GULP energy -133947.940973 kJ/mol
# GULP energy per Si atom -5581.164207 kJ/mol
# Density = 1.912877 g / cm^3
# Si number density = 19.172411 Si / 1000 Ang^3
#
#
#
# Elastic Constant Matrix: (Units=GPa)
#
#
# Indices 1 2 3 4 5 6 
#
# 1 98.3515 57.7447 23.0681 0.0000 2.7365 0.0000
# 2 57.7447 76.5225 18.1823 0.0000 22.8163 0.0000
# 3 23.0681 18.1823 103.3938 0.0000 -0.3176 0.0000
# 4 0.0000 0.0000 0.0000 23.0244 0.0000 2.9791
# 5 2.7365 22.8163 -0.3176 0.0000 37.2484 0.0000
# 6 0.0000 0.0000 0.0000 2.9791 0.0000 28.6870
#
#
#
# Elastic Compliance Matrix: (Units=1/GPa)
#
#
# Indices 1 2 3 4 5 6 
#
# 1 0.021078 -0.018477 -0.001424 0.000000 0.009757 0.000000
# 2 -0.018477 0.033066 -0.001750 0.000000 -0.018912 0.000000
# 3 -0.001424 -0.001750 0.010301 0.000000 0.001265 0.000000
# 4 0.000000 0.000000 0.000000 0.044024 0.000000 -0.004572
# 5 0.009757 -0.018912 0.001265 0.000000 0.037725 0.000000
# 6 0.000000 0.000000 0.000000 -0.004572 0.000000 0.035334
#
#
# Mechanical properties :
#
#
# Convention : Reuss Voigt Hill
#
# Bulk Modulus (GPa) = 47.29661 52.91756 50.10708
# Shear Modulus (GPa) = 21.56315 29.74348 25.65331
#
# Velocity S-wave (km/s) = 3.35729 3.94301 3.66188
# Velocity P-wave (km/s) = 6.30485 6.95634 6.63859
#
# Compressibility (1/GPa) = 0.02114316
#
# Stress axis : x y z
#
# Youngs Moduli (GPa) = 47.44215 30.24285 97.07726
#
# Poissons Ratio (x) = 0.55880 0.13819
# Poissons Ratio (y) = 0.87659 0.16993
# Poissons Ratio (z) = 0.06754 0.05294
#
# Static dielectric constant tensor:
#      x y z
#    x 1.651700 0.000000 -0.030030 
#    y 0.000000 1.679040 0.000000 
#    z -0.030030 0.000000 1.706960 
# 
# From -- ./inp_files/176975.got.cif
#   From: 2010.05.17/outbox.cif.g08.bks.cpg/sg15_89_cif.got.tgz:176975.got - 2010.06.03 18:47:42.
