data_PCOD9294704
_publ_section_title
;
Structure prediction by ZEFSAII (Michael W. Deem and Ramdas Pophale) SiO2 
 PCOD9294704
Probable space group: C 2/C
;
_chemical_formula_sum "Si O2"
_cell_formula_units_Z 32
_cell_length_a 19.955084
_cell_length_b 15.329222
_cell_length_c 14.560003
_cell_angle_alpha 90.000000
_cell_angle_beta 18.926690
_cell_angle_gamma 90.000000
_cell_volume 1444.640818
_symmetry_space_group_name_H-M "C 2/C"
_symmetry_group_IT_number 15
_symmetry_cell_setting 'monoclinic'
loop_
_space_group_symop_operation_xyz
x,y,z
-x,y,1/2-z
-x,-y,-z
x,-y,1/2+z
1/2+x,1/2+y,z
1/2-x,1/2+y,1/2-z
1/2-x,1/2-y,-z
1/2+x,1/2-y,1/2+z
loop_
_atom_site_type_symbol
_atom_site_label
_atom_site_fract_x
_atom_site_fract_y
_atom_site_fract_z
Si Si1 0.460533 0.474831 0.656280
Si Si2 0.322820 0.971647 0.828751
Si Si3 0.734834 0.799035 0.906214
Si Si4 0.471207 0.859906 0.488091
O O1 0.500000 0.500000 0.500000
O O2 0.657380 0.491524 0.467239
O O3 0.374935 0.375284 0.768954
O O4 0.286295 0.533477 0.932200
O O5 0.421057 0.885890 0.657037
O O6 0.488655 0.048752 0.615686
O O7 0.840559 0.705273 0.773470
O O8 0.500000 0.799793 0.250000
O O9 0.720082 0.818874 0.817014
#
# Coordination Sequence:
#
# PCOD9294704 Si02
#       4
#     8   8   8   8
#     4  11  22  41  67  93 129 172 220 268 326 394
#     4  10  23  41  64  94 133 170 213 270 330 392
#     4  12  23  39  65 101 129 171 225 276 324 387
#     4  11  23  40  63  96 132 166 217 276 328 383
#
# _framework density 22.150834
#
# number of rings (size 3 to 8) (size 9 to 14) (size 15 to 20)
#    0.000    1.000    5.000    2.250    3.500    0.000 
#    0.000    1.250    0.000    0.000    0.000    0.000 
#    0.000    0.000    0.000    0.000    0.000    0.000 
#
# Total GULP energy -89362.463028 kJ/mol
# GULP energy per Si atom -5585.153939 kJ/mol
# Density = 2.210042 g / cm^3
# Si number density = 22.150834 Si / 1000 Ang^3
#
#
#
# Elastic Constant Matrix: (Units=GPa)
#
#
# Indices 1 2 3 4 5 6 
#
# 1 89.6591 29.3860 34.1865 0.0004 31.6713 0.0003
# 2 29.3860 93.5549 45.5201 -0.0101 6.6607 0.0075
# 3 34.1865 45.5201 109.4963 -0.0095 29.2688 0.0054
# 4 0.0004 -0.0101 -0.0095 26.5107 0.0010 3.9406
# 5 31.6713 6.6607 29.2688 0.0010 48.3927 -0.0014
# 6 0.0003 0.0075 0.0054 3.9406 -0.0014 36.5473
#
#
#
# Elastic Compliance Matrix: (Units=1/GPa)
#
#
# Indices 1 2 3 4 5 6 
#
# 1 0.016137 -0.003982 -0.000842 -0.000002 -0.009503 0.000001
# 2 -0.003982 0.014517 -0.005910 0.000004 0.004182 -0.000002
# 3 -0.000842 -0.005910 0.013703 0.000003 -0.006923 -0.000001
# 4 -0.000002 0.000004 0.000003 0.038335 -0.000002 -0.004133
# 5 -0.009503 0.004182 -0.006923 -0.000002 0.030495 0.000002
# 6 0.000001 -0.000002 -0.000001 -0.004133 0.000002 0.027807
#
#
# Mechanical properties :
#
#
# Convention : Reuss Voigt Hill
#
# Bulk Modulus (GPa) = 43.69017 56.76616 50.22817
# Shear Modulus (GPa) = 29.39558 34.53134 31.96346
#
# Velocity S-wave (km/s) = 3.64684 3.95260 3.80279
# Velocity P-wave (km/s) = 6.12367 6.82008 6.48123
#
# Compressibility (1/GPa) = 0.02288844
#
# Stress axis : x y z
#
# Youngs Moduli (GPa) = 61.97066 68.88248 72.97548
#
# Poissons Ratio (x) = 0.27430 0.06148
# Poissons Ratio (y) = 0.24677 0.43128
# Poissons Ratio (z) = 0.05220 0.40709
#
# Static dielectric constant tensor:
#      x y z
#    x 1.930330 0.000000 -0.037830 
#    y 0.000000 1.803490 0.000000 
#    z -0.037830 0.000000 1.882000 
# 
# From -- ./inp_files/61775.got.cif
#   From: 2010.05.17/outbox.cif.g08.bks.cpg/sg15_31_cif.got.tgz:61775.got - 2010.06.03 18:47:42.
