data_PCOD9294449
_publ_section_title
;
Structure prediction by ZEFSAII (Michael W. Deem and Ramdas Pophale) SiO2 
 PCOD9294449
Probable space group: C 2/C
;
_chemical_formula_sum "Si O2"
_cell_formula_units_Z 36
_cell_length_a 9.667996
_cell_length_b 18.773582
_cell_length_c 13.862548
_cell_angle_alpha 90.000000
_cell_angle_beta 33.985647
_cell_angle_gamma 90.000000
_cell_volume 1406.458698
_symmetry_space_group_name_H-M "C 2/C"
_symmetry_group_IT_number 15
_symmetry_cell_setting 'monoclinic'
loop_
_space_group_symop_operation_xyz
x,y,z
-x,y,1/2-z
-x,-y,-z
x,-y,1/2+z
1/2+x,1/2+y,z
1/2-x,1/2+y,1/2-z
1/2-x,1/2-y,-z
1/2+x,1/2-y,1/2+z
loop_
_atom_site_type_symbol
_atom_site_label
_atom_site_fract_x
_atom_site_fract_y
_atom_site_fract_z
Si Si1 0.105993 0.108784 0.885886
Si Si2 0.040267 0.758389 0.927158
Si Si3 0.662124 0.034243 0.249647
Si Si4 0.500000 0.680604 0.750000
Si Si5 0.747919 0.135602 0.355364
O O1 0.987392 0.130907 0.851957
O O2 0.316727 0.050187 0.747322
O O3 0.139714 0.184517 0.917369
O O4 0.923296 0.068073 0.065413
O O5 0.259712 0.730708 0.871641
O O6 0.164858 0.804609 0.771883
O O7 0.899044 0.685058 0.984338
O O8 0.500000 0.048454 0.250000
O O9 0.593622 0.077688 0.385096
O O10 0.000000 0.102098 0.250000
#
# Coordination Sequence:
#
# PCOD9294449 Si02
#       5
#     8   8   8   4   8
#     4  10  23  40  65  97 129 171 220 272 325 394
#     4  11  23  42  69  97 136 174 220 275 335 386
#     4  10  23  45  66  90 136 177 219 267 336 388
#     4  12  22  40  70 104 128 170 234 268 324 400
#     4  11  24  42  68 100 137 173 219 276 331 395
#
# _framework density 25.596202000000002
#
# number of rings (size 3 to 8) (size 9 to 14) (size 15 to 20)
#    0.000    1.333    2.222    2.667    7.778    0.889 
#   12.000    2.222    0.000    0.000    0.000    0.000 
#    0.000    0.000    0.000    0.000    0.000    0.000 
#
# Total GULP energy -100577.215102 kJ/mol
# GULP energy per Si atom -5587.623061 kJ/mol
# Density = 2.553794 g / cm^3
# Si number density = 25.596202 Si / 1000 Ang^3
#
#
#
# Elastic Constant Matrix: (Units=GPa)
#
#
# Indices 1 2 3 4 5 6 
#
# 1 93.6500 23.9454 -9.6245 0.0041 -5.2337 0.0005
# 2 23.9454 153.9522 28.0426 0.0130 1.6768 0.0028
# 3 -9.6245 28.0426 42.4730 0.0204 13.4868 0.0058
# 4 0.0041 0.0130 0.0204 -24.8329 -0.0043 -33.8739
# 5 -5.2337 1.6768 13.4868 -0.0043 42.5194 -0.0001
# 6 0.0005 0.0028 0.0058 -33.8739 -0.0001 21.0509
#
#
#
# Elastic Compliance Matrix: (Units=1/GPa)
#
#
# Indices 1 2 3 4 5 6 
#
# 1 0.011809 -0.002633 0.004359 0.000002 0.000175 0.000002
# 2 -0.002633 0.008046 -0.006344 -0.000001 0.001371 -0.000001
# 3 0.004359 -0.006344 0.031660 0.000011 -0.009255 0.000010
# 4 0.000002 -0.000001 0.000011 -0.012604 -0.000005 -0.020281
# 5 0.000175 0.001371 -0.009255 -0.000005 0.026422 -0.000005
# 6 0.000002 -0.000001 0.000010 -0.020281 -0.000005 0.014868
#
#
# Mechanical properties :
#
#
# Convention : Reuss Voigt Hill
#
# Bulk Modulus (GPa) = 23.65293 41.64470 32.64881
# Shear Modulus (GPa) = 48.29566 24.26159 36.27863
#
# Velocity S-wave (km/s) = 4.34848 3.08207 3.76885
# Velocity P-wave (km/s) = 5.87139 5.38245 5.63223
#
# Compressibility (1/GPa) = 0.04227806
#
# Stress axis : x y z
#
# Youngs Moduli (GPa) = 84.68211 124.29139 31.58607
#
# Poissons Ratio (x) = 0.32720 -0.13767
# Poissons Ratio (y) = 0.22293 0.20038
# Poissons Ratio (z) = -0.36909 0.78850
#
# Static dielectric constant tensor:
#      x y z
#    x 2.015730 0.000000 0.002210 
#    y 0.000000 1.995060 0.000000 
#    z 0.002210 0.000000 2.149520 
# 
# From -- ./inp_files/22555.got.cif
#   From: 2010.05.17/outbox.cif.g08.bks.cpg/sg15_12_cif.got.tgz:22555.got - 2010.06.03 18:47:42.
