data_PCOD9294337
_publ_section_title
;
Structure prediction by ZEFSAII (Michael W. Deem and Ramdas Pophale) SiO2 
 PCOD9294337
Probable space group: C 2/C
;
_chemical_formula_sum "Si O2"
_cell_formula_units_Z 48
_cell_length_a 16.144479
_cell_length_b 11.040779
_cell_length_c 27.168931
_cell_angle_alpha 90.000000
_cell_angle_beta 150.413442
_cell_angle_gamma 90.000000
_cell_volume 2391.072449
_symmetry_space_group_name_H-M "C 2/C"
_symmetry_group_IT_number 15
_symmetry_cell_setting 'monoclinic'
loop_
_space_group_symop_operation_xyz
x,y,z
-x,y,1/2-z
-x,-y,-z
x,-y,1/2+z
1/2+x,1/2+y,z
1/2-x,1/2+y,1/2-z
1/2-x,1/2-y,-z
1/2+x,1/2-y,1/2+z
loop_
_atom_site_type_symbol
_atom_site_label
_atom_site_fract_x
_atom_site_fract_y
_atom_site_fract_z
Si Si1 0.313800 0.703673 0.605526
Si Si2 0.003711 0.797328 0.832228
Si Si3 0.659235 0.643472 0.512228
Si Si4 0.767240 0.107350 0.843348
Si Si5 0.000000 0.580111 0.250000
Si Si6 0.917689 0.114657 0.553303
Si Si7 0.500000 0.506560 0.750000
O O1 0.418837 0.824213 0.670817
O O2 0.133002 0.762295 0.501860
O O3 0.386586 0.647069 0.593396
O O4 0.344521 0.600377 0.662209
O O5 0.174876 0.725671 0.906788
O O6 0.848253 0.715997 0.735444
O O7 0.993920 0.918749 0.794273
O O8 0.024147 0.815492 0.901565
O O9 0.622799 0.640990 0.551401
O O10 0.693288 0.504029 0.515486
O O11 0.897519 0.075729 0.868021
O O12 0.639072 0.003276 0.795337
#
# Coordination Sequence:
#
# PCOD9294337 Si02
#       7
#     8   8   8   8   4   8   4
#     4  10  23  40  61  89 130 168 204 260 321 381
#     4  11  22  39  66  92 120 161 212 259 316 366
#     4  11  21  39  65  91 121 164 208 263 310 373
#     4  12  22  41  66  94 124 164 215 265 307 382
#     4  11  21  40  66  92 125 169 212 262 318 371
#     4  11  23  40  62  93 125 164 214 256 321 378
#     4  11  19  42  64  82 127 167 202 260 320 367
#
# _framework density 20.074674999999999
#
# number of rings (size 3 to 8) (size 9 to 14) (size 15 to 20)
#    0.000    1.000    6.667    0.500    0.000    1.333 
#    3.000    0.833    0.000    0.000    0.000    0.000 
#    0.000    0.000    0.000    0.000    0.000    0.000 
#
# Total GULP energy -133722.834802 kJ/mol
# GULP energy per Si atom -5571.784783 kJ/mol
# Density = 2.002898 g / cm^3
# Si number density = 20.074675 Si / 1000 Ang^3
#
#
#
# Elastic Constant Matrix: (Units=GPa)
#
#
# Indices 1 2 3 4 5 6 
#
# 1 69.7583 34.7394 31.3632 0.0000 2.8453 0.0000
# 2 34.7394 140.8999 53.6654 0.0000 -3.2543 0.0000
# 3 31.3632 53.6654 69.5256 0.0002 -21.7316 0.0000
# 4 0.0000 0.0000 0.0002 44.3047 0.0000 -23.0701
# 5 2.8453 -3.2543 -21.7316 0.0000 32.8101 0.0000
# 6 0.0000 0.0000 0.0000 -23.0701 0.0000 22.9276
#
#
#
# Elastic Compliance Matrix: (Units=1/GPa)
#
#
# Indices 1 2 3 4 5 6 
#
# 1 0.020287 -0.000869 -0.011423 0.000000 -0.009411 0.000000
# 2 -0.000869 0.010854 -0.009617 0.000000 -0.005218 0.000000
# 3 -0.011423 -0.009617 0.034012 0.000000 0.022565 0.000000
# 4 0.000000 0.000000 0.000000 0.047413 0.000000 0.047708
# 5 -0.009411 -0.005218 0.022565 0.000000 0.045723 0.000000
# 6 0.000000 0.000000 0.000000 0.047708 0.000000 0.091620
#
#
# Mechanical properties :
#
#
# Convention : Reuss Voigt Hill
#
# Bulk Modulus (GPa) = 46.86824 57.74667 52.30745
# Shear Modulus (GPa) = 16.62020 30.70287 23.66153
#
# Velocity S-wave (km/s) = 2.88048 3.91504 3.43691
# Velocity P-wave (km/s) = 5.87031 7.01891 6.47015
#
# Compressibility (1/GPa) = 0.02133641
#
# Stress axis : x y z
#
# Youngs Moduli (GPa) = 49.29174 92.13423 29.40112
#
# Poissons Ratio (x) = 0.08002 0.33585
# Poissons Ratio (y) = 0.04281 0.28275
# Poissons Ratio (z) = 0.56306 0.88605
#
# Static dielectric constant tensor:
#      x y z
#    x 1.699340 0.000000 -0.051650 
#    y 0.000000 1.720320 0.000000 
#    z -0.051650 0.000000 1.803200 
# 
# From -- ./inp_files/296238.got.cif
#   From: 2010.05.17/outbox.cif.g08.bks.cpg/sg15_149_cif.got.tgz:296238.got - 2010.06.03 18:47:42.
