data_PCOD9294396
_publ_section_title
;
Structure prediction by ZEFSAII (Michael W. Deem and Ramdas Pophale) SiO2 
 PCOD9294396
Probable space group: C 2/C
;
_chemical_formula_sum "Si O2"
_cell_formula_units_Z 40
_cell_length_a 11.775637
_cell_length_b 7.231103
_cell_length_c 24.098273
_cell_angle_alpha 90.000000
_cell_angle_beta 110.148462
_cell_angle_gamma 90.000000
_cell_volume 1926.413254
_symmetry_space_group_name_H-M "C 2/C"
_symmetry_group_IT_number 15
_symmetry_cell_setting 'monoclinic'
loop_
_space_group_symop_operation_xyz
x,y,z
-x,y,1/2-z
-x,-y,-z
x,-y,1/2+z
1/2+x,1/2+y,z
1/2-x,1/2+y,1/2-z
1/2-x,1/2-y,-z
1/2+x,1/2-y,1/2+z
loop_
_atom_site_type_symbol
_atom_site_label
_atom_site_fract_x
_atom_site_fract_y
_atom_site_fract_z
Si Si1 0.958003 0.488629 0.636607
Si Si2 0.615296 0.743717 0.734385
Si Si3 0.615454 0.687656 0.961889
Si Si4 0.774965 0.971339 0.837359
Si Si5 0.505122 0.687217 0.058894
O O1 0.922240 0.298975 0.599064
O O2 0.842676 0.554913 0.652503
O O3 0.065748 0.429923 0.695838
O O4 0.986587 0.638543 0.595031
O O5 0.500000 0.671390 0.750000
O O6 0.721090 0.797864 0.794442
O O7 0.662300 0.605790 0.695866
O O8 0.599358 0.467125 0.952654
O O9 0.750000 0.750000 0.000000
O O10 0.526963 0.736915 0.998472
O O11 0.872550 0.911902 0.899192
#
# Coordination Sequence:
#
# PCOD9294396 Si02
#       5
#     8   8   8   8   8
#     4  11  23  42  64  94 126 164 211 257 314 373
#     4  10  23  40  64  90 128 160 208 268 308 372
#     4  11  23  43  63  94 132 164 211 258 306 374
#     4  11  22  42  63  95 123 164 214 255 317 376
#     4  11  24  40  66  93 127 168 207 256 315 372
#
# _framework density 20.763977000000001
#
# number of rings (size 3 to 8) (size 9 to 14) (size 15 to 20)
#    0.000    1.200    4.000    1.800    0.000    4.000 
#    0.000    0.000    0.000    0.000    0.000    0.000 
#    0.000    0.000    0.000    0.000    0.000    0.000 
#
# Total GULP energy -111785.300740 kJ/mol
# GULP energy per Si atom -5589.265037 kJ/mol
# Density = 2.071672 g / cm^3
# Si number density = 20.763977 Si / 1000 Ang^3
#
#
#
# Elastic Constant Matrix: (Units=GPa)
#
#
# Indices 1 2 3 4 5 6 
#
# 1 79.9369 32.8938 15.3742 0.0000 -12.8154 0.0000
# 2 32.8938 29.9834 -0.3066 0.0000 -14.7612 0.0000
# 3 15.3742 -0.3066 74.1315 0.0000 -7.9091 0.0000
# 4 0.0000 0.0000 0.0000 37.8824 0.0000 -6.7023
# 5 -12.8154 -14.7612 -7.9091 0.0000 51.1807 0.0000
# 6 0.0000 0.0000 0.0000 -6.7023 0.0000 18.7134
#
#
#
# Elastic Compliance Matrix: (Units=1/GPa)
#
#
# Indices 1 2 3 4 5 6 
#
# 1 0.025050 -0.028997 -0.005631 0.000000 -0.002961 0.000000
# 2 -0.028997 0.072576 0.007903 0.000000 0.014892 0.000000
# 3 -0.005631 0.007903 0.015031 0.000000 0.003192 0.000000
# 4 0.000000 0.000000 0.000000 0.028183 0.000000 0.010094
# 5 -0.002961 0.014892 0.003192 0.000000 0.023586 0.000000
# 6 0.000000 0.000000 0.000000 0.010094 0.000000 0.057053
#
#
# Mechanical properties :
#
#
# Convention : Reuss Voigt Hill
#
# Bulk Modulus (GPa) = 16.89015 31.10828 23.99922
# Shear Modulus (GPa) = 16.96842 30.62801 23.79822
#
# Velocity S-wave (km/s) = 2.86178 3.84481 3.38913
# Velocity P-wave (km/s) = 4.36712 5.89275 5.18634
#
# Compressibility (1/GPa) = 0.05920610
#
# Stress axis : x y z
#
# Youngs Moduli (GPa) = 39.91946 13.77866 66.53093
#
# Poissons Ratio (x) = 0.39954 0.37464
# Poissons Ratio (y) = 1.15755 -0.52578
# Poissons Ratio (z) = 0.22479 -0.10889
#
# Static dielectric constant tensor:
#      x y z
#    x 1.733260 0.000000 0.005030 
#    y 0.000000 1.723870 0.000000 
#    z 0.005030 0.000000 1.746350 
# 
# From -- ./inp_files/235732.got.cif
#   From: 2010.05.17/outbox.cif.g08.bks.cpg/sg15_118_cif.got.tgz:235732.got - 2010.06.03 18:47:42.
