data_PCOD9294873
_publ_section_title
;
Structure prediction by ZEFSAII (Michael W. Deem and Ramdas Pophale) SiO2 
 PCOD9294873
Probable space group: C 2/C
;
_chemical_formula_sum "Si O2"
_cell_formula_units_Z 36
_cell_length_a 5.124844
_cell_length_b 27.458820
_cell_length_c 11.305474
_cell_angle_alpha 90.000000
_cell_angle_beta 78.065711
_cell_angle_gamma 90.000000
_cell_volume 1556.543498
_symmetry_space_group_name_H-M "C 2/C"
_symmetry_group_IT_number 15
_symmetry_cell_setting 'monoclinic'
loop_
_space_group_symop_operation_xyz
x,y,z
-x,y,1/2-z
-x,-y,-z
x,-y,1/2+z
1/2+x,1/2+y,z
1/2-x,1/2+y,1/2-z
1/2-x,1/2-y,-z
1/2+x,1/2-y,1/2+z
loop_
_atom_site_type_symbol
_atom_site_label
_atom_site_fract_x
_atom_site_fract_y
_atom_site_fract_z
Si Si1 0.500000 0.559309 0.750000
Si Si2 0.000000 0.106617 0.250000
Si Si3 0.000000 0.378676 0.250000
Si Si4 0.982531 0.805554 0.917837
Si Si5 0.907122 0.700112 0.565658
Si Si6 0.351685 0.982955 0.634321
O O1 0.265834 0.590248 0.716498
O O2 0.615403 0.521878 0.645906
O O3 0.084658 0.146462 0.341028
O O4 0.218083 0.070646 0.167637
O O5 0.037064 0.344701 0.357439
O O6 0.086428 0.752211 0.869259
O O7 0.120343 0.806988 0.033313
O O8 0.661626 0.801361 0.952380
O O9 0.500000 0.990651 0.750000
O O10 0.500000 0.000000 0.500000
#
# Coordination Sequence:
#
# PCOD9294873 Si02
#       6
#     4   4   4   8   8   8
#     4  11  26  46  71 104 143 188 248 307 376 448
#     4  11  27  44  80 108 148 204 255 311 386 462
#     4  12  23  40  71 102 135 192 227 298 364 444
#     4  10  23  43  67 105 144 191 238 302 363 449
#     4  10  23  41  68 105 150 183 241 296 365 448
#     4  11  28  51  76 109 149 199 258 328 383 450
#
# _framework density 23.128167000000001
#
# number of rings (size 3 to 8) (size 9 to 14) (size 15 to 20)
#    0.000    1.333    1.111    2.000    6.222    7.111 
#    0.000    6.667    0.000    0.000    0.000    0.000 
#    0.000    0.000    0.000    0.000    0.000    0.000 
#
# Total GULP energy -100279.761798 kJ/mol
# GULP energy per Si atom -5571.097878 kJ/mol
# Density = 2.307553 g / cm^3
# Si number density = 23.128167 Si / 1000 Ang^3
#
#
#
# Elastic Constant Matrix: (Units=GPa)
#
#
# Indices 1 2 3 4 5 6 
#
# 1 104.3080 60.5663 31.8264 0.0000 -1.1377 0.0000
# 2 60.5663 210.2388 60.4381 0.0000 -4.5407 0.0000
# 3 31.8264 60.4381 99.6995 0.0000 -14.4764 0.0000
# 4 0.0000 0.0000 0.0000 142.0967 0.0000 50.8833
# 5 -1.1377 -4.5407 -14.4764 0.0000 36.9759 0.0000
# 6 0.0000 0.0000 0.0000 50.8833 0.0000 39.7196
#
#
#
# Elastic Compliance Matrix: (Units=1/GPa)
#
#
# Indices 1 2 3 4 5 6 
#
# 1 0.011882 -0.002804 -0.002216 0.000000 -0.000846 0.000000
# 2 -0.002804 0.006439 -0.003081 0.000000 -0.000502 0.000000
# 3 -0.002216 -0.003081 0.013296 0.000000 0.004759 0.000000
# 4 0.000000 0.000000 0.000000 0.013002 0.000000 -0.016656
# 5 -0.000846 -0.000502 0.004759 0.000000 0.028820 0.000000
# 6 0.000000 0.000000 0.000000 -0.016656 0.000000 0.046514
#
#
# Mechanical properties :
#
#
# Convention : Reuss Voigt Hill
#
# Bulk Modulus (GPa) = 64.87218 79.98977 72.43097
# Shear Modulus (GPa) = 35.38691 61.18615 48.28653
#
# Velocity S-wave (km/s) = 3.91581 5.14905 4.57418
# Velocity P-wave (km/s) = 6.96812 8.36724 7.69953
#
# Compressibility (1/GPa) = 0.01541493
#
# Stress axis : x y z
#
# Youngs Moduli (GPa) = 84.15936 155.29666 75.20847
#
# Poissons Ratio (x) = 0.43550 0.16666
# Poissons Ratio (y) = 0.23601 0.23173
# Poissons Ratio (z) = 0.18650 0.47850
#
# Static dielectric constant tensor:
#      x y z
#    x 1.713920 0.000000 0.224260 
#    y 0.000000 1.872620 0.000000 
#    z 0.224260 0.000000 1.611230 
# 
# From -- ./inp_files/72537.got.cif
#   From: 2010.05.17/outbox.cif.g08.bks.cpg/sg15_37_cif.got.tgz:72537.got - 2010.06.03 18:47:42.
