data_PCOD9294517
_publ_section_title
;
Structure prediction by ZEFSAII (Michael W. Deem and Ramdas Pophale) SiO2 
 PCOD9294517
Probable space group: C 2/C
;
_chemical_formula_sum "Si O2"
_cell_formula_units_Z 32
_cell_length_a 7.716032
_cell_length_b 35.930733
_cell_length_c 5.212850
_cell_angle_alpha 90.000000
_cell_angle_beta 93.039826
_cell_angle_gamma 90.000000
_cell_volume 1443.190980
_symmetry_space_group_name_H-M "C 2/C"
_symmetry_group_IT_number 15
_symmetry_cell_setting 'monoclinic'
loop_
_space_group_symop_operation_xyz
x,y,z
-x,y,1/2-z
-x,-y,-z
x,-y,1/2+z
1/2+x,1/2+y,z
1/2-x,1/2+y,1/2-z
1/2-x,1/2-y,-z
1/2+x,1/2-y,1/2+z
loop_
_atom_site_type_symbol
_atom_site_label
_atom_site_fract_x
_atom_site_fract_y
_atom_site_fract_z
Si Si1 0.197832 0.515390 0.490362
Si Si2 0.614927 0.716686 0.514062
Si Si3 0.199295 0.095937 0.179129
Si Si4 0.200508 0.359871 0.319245
O O1 0.213204 0.557485 0.401275
O O2 0.280185 0.490312 0.274430
O O3 0.000000 0.500000 0.500000
O O4 0.500000 0.725972 0.750000
O O5 0.750000 0.750000 0.500000
O O6 0.705242 0.677448 0.582155
O O7 0.500000 0.713397 0.250000
O O8 0.290241 0.111911 0.440409
O O9 0.000000 0.090410 0.250000
O O10 0.215097 0.123300 0.934144
O O11 0.000000 0.351845 0.250000
#
# Coordination Sequence:
#
# PCOD9294517 Si02
#       4
#     8   8   8   8
#     4  10  23  40  67  95 136 179 240 287 374 422
#     4  12  26  48  77 108 153 190 240 293 352 428
#     4  12  26  45  71 104 143 185 241 310 365 426
#     4  12  27  45  73 105 143 193 243 290 365 427
#
# _framework density 22.173086999999999
#
# number of rings (size 3 to 8) (size 9 to 14) (size 15 to 20)
#    0.000    0.500    0.000    8.250   10.500    3.000 
#    0.000    0.000    0.000    0.000    0.000    0.000 
#    0.000    0.000    0.000    0.000    0.000    0.000 
#
# Total GULP energy -89616.403406 kJ/mol
# GULP energy per Si atom -5601.025213 kJ/mol
# Density = 2.212262 g / cm^3
# Si number density = 22.173087 Si / 1000 Ang^3
#
#
#
# Elastic Constant Matrix: (Units=GPa)
#
#
# Indices 1 2 3 4 5 6 
#
# 1 144.6192 86.5377 78.7020 0.0000 0.2601 0.0000
# 2 86.5377 135.8615 66.7686 0.0000 -16.6990 0.0000
# 3 78.7020 66.7686 217.5156 0.0000 -11.8995 0.0000
# 4 0.0000 0.0000 0.0000 50.1049 0.0000 -4.0145
# 5 0.2601 -16.6990 -11.8995 0.0000 34.9760 0.0000
# 6 0.0000 0.0000 0.0000 -4.0145 0.0000 32.2212
#
#
#
# Elastic Compliance Matrix: (Units=1/GPa)
#
#
# Indices 1 2 3 4 5 6 
#
# 1 0.012771 -0.007416 -0.002591 0.000000 -0.004517 0.000000
# 2 -0.007416 0.013364 -0.001087 0.000000 0.006066 0.000000
# 3 -0.002591 -0.001087 0.005952 0.000000 0.001525 0.000000
# 4 0.000000 0.000000 0.000000 0.020159 0.000000 0.002512
# 5 -0.004517 0.006066 0.001525 0.000000 0.032040 0.000000
# 6 0.000000 0.000000 0.000000 0.002512 0.000000 0.031348
#
#
# Mechanical properties :
#
#
# Convention : Reuss Voigt Hill
#
# Bulk Modulus (GPa) = 101.03368 106.89032 103.96200
# Shear Modulus (GPa) = 35.43019 41.19295 38.31157
#
# Velocity S-wave (km/s) = 4.00170 4.31489 4.16124
# Velocity P-wave (km/s) = 8.18635 8.55197 8.37116
#
# Compressibility (1/GPa) = 0.00989769
#
# Stress axis : x y z
#
# Youngs Moduli (GPa) = 78.30391 74.82828 168.00696
#
# Poissons Ratio (x) = 0.55493 0.43538
# Poissons Ratio (y) = 0.58071 0.18263
# Poissons Ratio (z) = 0.20292 0.08134
#
# Static dielectric constant tensor:
#      x y z
#    x 1.344870 0.000000 0.157030 
#    y 0.000000 1.790110 0.000000 
#    z 0.157030 0.000000 1.754030 
# 
# From -- ./inp_files/2650.got.cif
#   From: 2010.05.17/outbox.cif.g08.bks.cpg/sg15_2_cif.got.tgz:2650.got - 2010.06.03 18:47:42.
