data_PCOD9294502
_publ_section_title
;
Structure prediction by ZEFSAII (Michael W. Deem and Ramdas Pophale) SiO2 
 PCOD9294502
Probable space group: C 2/C
;
_chemical_formula_sum "Si O2"
_cell_formula_units_Z 52
_cell_length_a 5.647907
_cell_length_b 26.635443
_cell_length_c 15.044697
_cell_angle_alpha 90.000000
_cell_angle_beta 111.426004
_cell_angle_gamma 90.000000
_cell_volume 2106.829191
_symmetry_space_group_name_H-M "C 2/C"
_symmetry_group_IT_number 15
_symmetry_cell_setting 'monoclinic'
loop_
_space_group_symop_operation_xyz
x,y,z
-x,y,1/2-z
-x,-y,-z
x,-y,1/2+z
1/2+x,1/2+y,z
1/2-x,1/2+y,1/2-z
1/2-x,1/2-y,-z
1/2+x,1/2-y,1/2+z
loop_
_atom_site_type_symbol
_atom_site_label
_atom_site_fract_x
_atom_site_fract_y
_atom_site_fract_z
Si Si1 0.314163 0.325868 0.468872
Si Si2 0.351264 0.888271 0.906107
Si Si3 0.103632 0.090239 0.931454
Si Si4 0.016155 0.018626 0.146066
Si Si5 0.627552 0.236534 0.681963
Si Si6 0.500000 0.651754 0.750000
Si Si7 0.500000 0.923267 0.750000
Si Si8 0.250000 0.750000 0.500000
O O1 0.261937 0.338477 0.564611
O O2 0.354118 0.381091 0.434510
O O3 0.566056 0.297320 0.474637
O O4 0.088555 0.290291 0.408081
O O5 0.359300 0.888689 0.801250
O O6 0.178813 0.936909 0.903181
O O7 0.637835 0.896679 0.981157
O O8 0.127576 0.115616 0.838755
O O9 0.050930 0.031577 0.915186
O O10 0.298565 0.040886 0.172783
O O11 0.000000 0.008236 0.250000
O O12 0.500000 0.263626 0.750000
O O13 0.787262 0.258940 0.620676
O O14 0.781189 0.190471 0.748446
#
# Coordination Sequence:
#
# PCOD9294502 Si02
#       8
#     8   8   8   8   8   4   4   4
#     4  12  25  43  74 102 140 186 238 310 377 442
#     4  11  24  44  68 103 146 203 246 311 369 443
#     4  12  23  41  71 112 148 191 250 305 371 450
#     4  10  23  40  67 101 152 205 249 305 365 439
#     4  12  24  46  74 107 146 186 232 305 378 450
#     4  12  22  42  72 113 148 186 242 301 368 452
#     4  10  24  46  64  97 150 208 262 307 358 448
#     4  12  26  48  70 106 140 180 242 306 382 456
#
# _framework density 24.681638
#
# number of rings (size 3 to 8) (size 9 to 14) (size 15 to 20)
#    0.000    0.615    5.385    1.846    0.000    6.154 
#    0.000    5.385    0.000    4.615    0.000    0.000 
#    0.000    0.000    0.000    0.000    0.000    0.000 
#
# Total GULP energy -144791.261759 kJ/mol
# GULP energy per Si atom -5568.894683 kJ/mol
# Density = 2.462546 g / cm^3
# Si number density = 24.681638 Si / 1000 Ang^3
#
#
#
# Elastic Constant Matrix: (Units=GPa)
#
#
# Indices 1 2 3 4 5 6 
#
# 1 49.1237 14.5423 -7.6485 0.0000 1.3712 0.0000
# 2 14.5423 44.7670 25.6995 0.0000 5.3533 0.0000
# 3 -7.6485 25.6995 51.6843 0.0000 -2.3831 0.0000
# 4 0.0000 0.0000 0.0000 36.0273 0.0000 3.2579
# 5 1.3712 5.3533 -2.3831 0.0000 45.9610 0.0000
# 6 0.0000 0.0000 0.0000 3.2579 0.0000 15.5333
#
#
#
# Elastic Compliance Matrix: (Units=1/GPa)
#
#
# Indices 1 2 3 4 5 6 
#
# 1 0.026808 -0.015711 0.011855 0.000000 0.001645 0.000000
# 2 -0.015711 0.041407 -0.023170 0.000000 -0.005556 0.000000
# 3 0.011855 -0.023170 0.032810 0.000000 0.004046 0.000000
# 4 0.000000 0.000000 0.000000 0.028293 0.000000 -0.005934
# 5 0.001645 -0.005556 0.004046 0.000000 0.022565 0.000000
# 6 0.000000 0.000000 0.000000 -0.005934 0.000000 0.065622
#
#
# Mechanical properties :
#
#
# Convention : Reuss Voigt Hill
#
# Bulk Modulus (GPa) = 21.28884 23.41797 22.35341
# Shear Modulus (GPa) = 17.40850 27.03643 22.22247
#
# Velocity S-wave (km/s) = 2.65867 3.31328 3.00386
# Velocity P-wave (km/s) = 4.25074 4.91383 4.59427
#
# Compressibility (1/GPa) = 0.04697297
#
# Stress axis : x y z
#
# Youngs Moduli (GPa) = 37.30299 24.15040 30.47810
#
# Poissons Ratio (x) = 0.37942 -0.36131
# Poissons Ratio (y) = 0.58605 0.70619
# Poissons Ratio (z) = -0.44222 0.55957
#
# Static dielectric constant tensor:
#      x y z
#    x 2.155060 0.000000 -0.107620 
#    y 0.000000 1.923150 0.000000 
#    z -0.107620 0.000000 2.101740 
# 
# From -- ./inp_files/130893.got.cif
#   From: 2010.05.17/outbox.cif.g08.bks.cpg/sg15_66_cif.got.tgz:130893.got - 2010.06.03 18:47:42.
