data_PCOD9294514
_publ_section_title
;
Structure prediction by ZEFSAII (Michael W. Deem and Ramdas Pophale) SiO2 
 PCOD9294514
Probable space group: C 2/C
;
_chemical_formula_sum "Si O2"
_cell_formula_units_Z 60
_cell_length_a 28.314837
_cell_length_b 17.380487
_cell_length_c 11.070313
_cell_angle_alpha 90.000000
_cell_angle_beta 35.292077
_cell_angle_gamma 90.000000
_cell_volume 3147.544824
_symmetry_space_group_name_H-M "C 2/C"
_symmetry_group_IT_number 15
_symmetry_cell_setting 'monoclinic'
loop_
_space_group_symop_operation_xyz
x,y,z
-x,y,1/2-z
-x,-y,-z
x,-y,1/2+z
1/2+x,1/2+y,z
1/2-x,1/2+y,1/2-z
1/2-x,1/2-y,-z
1/2+x,1/2-y,1/2+z
loop_
_atom_site_type_symbol
_atom_site_label
_atom_site_fract_x
_atom_site_fract_y
_atom_site_fract_z
Si Si1 0.564875 0.944200 0.930285
Si Si2 0.500000 0.816402 0.750000
Si Si3 0.865689 0.564424 0.563298
Si Si4 0.491216 0.771950 0.500509
Si Si5 0.759516 0.541920 0.568712
Si Si6 0.678757 0.299816 0.212168
Si Si7 0.263397 0.874547 0.487842
Si Si8 0.661549 0.262298 0.529722
O O1 0.530352 0.858501 0.999037
O O2 0.652885 0.945231 0.679955
O O3 0.586842 0.985122 0.011357
O O4 0.500000 0.000000 0.000000
O O5 0.575827 0.872995 0.619060
O O6 0.514901 0.772674 0.593624
O O7 0.784780 0.549655 0.655878
O O8 0.840335 0.601962 0.743333
O O9 0.408917 0.723096 0.657400
O O10 0.566683 0.743043 0.263353
O O11 0.700568 0.610430 0.653505
O O12 0.729701 0.456059 0.603466
O O13 0.676437 0.280822 0.359482
O O14 0.750000 0.250000 0.000000
O O15 0.295709 0.818707 0.524913
O O16 0.203113 0.825831 0.529435
#
# Coordination Sequence:
#
# PCOD9294514 Si02
#       8
#     8   4   8   8   8   8   8   8
#     4  11  20  35  57  96 130 161 208 261 337 401
#     4  12  20  38  62  92 136 166 212 260 338 410
#     4  11  19  36  59  93 134 169 205 266 325 409
#     4  12  24  40  64  97 131 173 218 274 337 391
#     4  11  22  40  63  94 127 177 220 263 318 400
#     4  12  25  44  64  94 132 179 224 273 325 399
#     4  10  23  40  67  94 131 174 219 267 337 391
#     4  11  24  44  64  98 137 170 221 281 335 388
#
# _framework density 19.062476
#
# number of rings (size 3 to 8) (size 9 to 14) (size 15 to 20)
#    0.000    0.800    6.667    1.200    1.867    0.000 
#    2.400    0.667    0.000    0.000    0.000    0.000 
#    0.000    0.000    0.000    0.000    0.000    0.000 
#
# Total GULP energy -167613.122682 kJ/mol
# GULP energy per Si atom -5587.104089 kJ/mol
# Density = 1.901909 g / cm^3
# Si number density = 19.062476 Si / 1000 Ang^3
#
#
#
# Elastic Constant Matrix: (Units=GPa)
#
#
# Indices 1 2 3 4 5 6 
#
# 1 70.1004 41.3808 27.4359 0.0000 -8.9184 0.0000
# 2 41.3808 138.2480 48.0033 0.0000 -15.3040 0.0000
# 3 27.4359 48.0033 95.4497 0.0000 -5.6620 0.0000
# 4 0.0000 0.0000 0.0000 30.4359 0.0000 -7.1493
# 5 -8.9184 -15.3040 -5.6620 0.0000 31.5072 0.0000
# 6 0.0000 0.0000 0.0000 -7.1493 0.0000 25.6394
#
#
#
# Elastic Compliance Matrix: (Units=1/GPa)
#
#
# Indices 1 2 3 4 5 6 
#
# 1 0.018204 -0.004115 -0.003008 0.000000 0.002613 0.000000
# 2 -0.004115 0.010094 -0.003711 0.000000 0.003071 0.000000
# 3 -0.003008 -0.003711 0.013191 0.000000 -0.000284 0.000000
# 4 0.000000 0.000000 0.000000 0.035159 0.000000 0.009804
# 5 0.002613 0.003071 -0.000284 0.000000 0.033919 0.000000
# 6 0.000000 0.000000 0.000000 0.009804 0.000000 0.041736
#
#
# Mechanical properties :
#
#
# Convention : Reuss Voigt Hill
#
# Bulk Modulus (GPa) = 50.45391 59.71535 55.08463
# Shear Modulus (GPa) = 27.68874 29.98170 28.83522
#
# Velocity S-wave (km/s) = 3.81534 3.97017 3.89352
# Velocity P-wave (km/s) = 6.77748 7.23951 7.01230
#
# Compressibility (1/GPa) = 0.01982007
#
# Stress axis : x y z
#
# Youngs Moduli (GPa) = 54.93229 99.07097 75.80936
#
# Poissons Ratio (x) = 0.40770 0.22803
# Poissons Ratio (y) = 0.22606 0.28135
# Poissons Ratio (z) = 0.16523 0.36768
#
# Static dielectric constant tensor:
#      x y z
#    x 1.701460 0.000000 0.041590 
#    y 0.000000 1.670710 0.000000 
#    z 0.041590 0.000000 1.675790 
# 
# From -- ./inp_files/127214.got.cif
#   From: 2010.05.17/outbox.cif.g08.bks.cpg/sg15_64_cif.got.tgz:127214.got - 2010.06.03 18:47:42.
