data_PCOD9294058
_publ_section_title
;
Structure prediction by ZEFSAII (Michael W. Deem and Ramdas Pophale) SiO2 
 PCOD9294058
Probable space group: C 2/C
;
_chemical_formula_sum "Si O2"
_cell_formula_units_Z 56
_cell_length_a 14.335935
_cell_length_b 11.805448
_cell_length_c 18.674685
_cell_angle_alpha 90.000000
_cell_angle_beta 132.003146
_cell_angle_gamma 90.000000
_cell_volume 2348.625471
_symmetry_space_group_name_H-M "C 2/C"
_symmetry_group_IT_number 15
_symmetry_cell_setting 'monoclinic'
loop_
_space_group_symop_operation_xyz
x,y,z
-x,y,1/2-z
-x,-y,-z
x,-y,1/2+z
1/2+x,1/2+y,z
1/2-x,1/2+y,1/2-z
1/2-x,1/2-y,-z
1/2+x,1/2-y,1/2+z
loop_
_atom_site_type_symbol
_atom_site_label
_atom_site_fract_x
_atom_site_fract_y
_atom_site_fract_z
Si Si1 0.604545 0.680494 0.597598
Si Si2 0.000000 0.556974 0.250000
Si Si3 0.000000 0.171778 0.250000
Si Si4 0.719394 0.202208 0.295227
Si Si5 0.693683 0.927207 0.129673
Si Si6 0.821936 0.358729 0.110422
Si Si7 0.065679 0.380236 0.475305
Si Si8 0.415186 0.463794 0.835064
O O1 0.687304 0.735190 0.703935
O O2 0.688388 0.623889 0.578047
O O3 0.546058 0.789269 0.528721
O O4 0.533784 0.574959 0.598358
O O5 0.094924 0.634177 0.252947
O O6 0.094850 0.472159 0.338945
O O7 0.117287 0.256494 0.312692
O O8 0.995511 0.098503 0.175376
O O9 0.750682 0.306338 0.364257
O O10 0.842297 0.123988 0.348980
O O11 0.633340 0.007673 0.039192
O O12 0.801936 0.993781 0.225688
O O13 0.575809 0.905437 0.122373
O O14 0.846073 0.330537 0.040187
#
# Coordination Sequence:
#
# PCOD9294058 Si02
#       8
#     8   4   4   8   8   8   8   8
#     4  11  23  39  67  94 130 167 216 270 326 378
#     4  11  24  39  72  98 128 173 221 268 328 392
#     4  11  22  39  70 100 126 169 221 278 324 378
#     4  11  21  42  66  97 127 168 218 270 315 397
#     4  10  23  38  64  91 134 171 210 268 327 379
#     4  11  22  38  67  99 126 169 224 273 317 390
#     4  11  22  40  64  97 129 178 216 265 327 386
#     4  11  21  41  67  96 127 165 220 273 319 389
#
# _framework density 23.843734000000001
#
# number of rings (size 3 to 8) (size 9 to 14) (size 15 to 20)
#    0.000    1.143    4.286    2.143    6.000    2.286 
#    0.000    3.571    3.143    0.000    0.000    0.000 
#    0.000    0.000    0.000    0.000    0.000    0.000 
#
# Total GULP energy -156494.917967 kJ/mol
# GULP energy per Si atom -5589.104213 kJ/mol
# Density = 2.378946 g / cm^3
# Si number density = 23.843734 Si / 1000 Ang^3
#
#
#
# Elastic Constant Matrix: (Units=GPa)
#
#
# Indices 1 2 3 4 5 6 
#
# 1 92.3877 37.9637 3.7718 0.0000 -17.8048 0.0000
# 2 37.9637 153.2666 21.8484 0.0000 -11.4416 0.0000
# 3 3.7718 21.8484 37.0418 0.0000 -6.9624 0.0000
# 4 0.0000 0.0000 0.0000 23.3005 0.0000 0.4425
# 5 -17.8048 -11.4416 -6.9624 0.0000 29.4137 0.0000
# 6 0.0000 0.0000 0.0000 0.4425 0.0000 35.7868
#
#
#
# Elastic Compliance Matrix: (Units=1/GPa)
#
#
# Indices 1 2 3 4 5 6 
#
# 1 0.013416 -0.003030 0.001807 0.000000 0.007370 0.000000
# 2 -0.003030 0.007907 -0.004314 0.000000 0.000220 0.000000
# 3 0.001807 -0.004314 0.030609 0.000000 0.006661 0.000000
# 4 0.000000 0.000000 0.000000 0.042928 0.000000 -0.000531
# 5 0.007370 0.000220 0.006661 0.000000 0.040121 0.000000
# 6 0.000000 0.000000 0.000000 -0.000531 0.000000 0.027950
#
#
# Mechanical properties :
#
#
# Convention : Reuss Voigt Hill
#
# Bulk Modulus (GPa) = 24.47604 45.54043 35.00823
# Shear Modulus (GPa) = 26.64915 32.30767 29.47841
#
# Velocity S-wave (km/s) = 3.34677 3.68499 3.51994
# Velocity P-wave (km/s) = 5.02214 6.10300 5.58876
#
# Compressibility (1/GPa) = 0.04085629
#
# Stress axis : x y z
#
# Youngs Moduli (GPa) = 74.53953 126.47756 32.67030
#
# Poissons Ratio (x) = 0.38328 -0.05902
# Poissons Ratio (y) = 0.22588 0.14093
# Poissons Ratio (z) = -0.13466 0.54557
#
# Static dielectric constant tensor:
#      x y z
#    x 1.915690 0.000000 -0.011800 
#    y 0.000000 1.951840 0.000000 
#    z -0.011800 0.000000 1.966460 
# 
# From -- ./inp_files/204577.got.cif
#   From: 2010.05.17/outbox.cif.g08.bks.cpg/sg15_103_cif.got.tgz:204577.got - 2010.06.03 18:47:42.
