data_PCOD9294037
_publ_section_title
;
Structure prediction by ZEFSAII (Michael W. Deem and Ramdas Pophale) SiO2 
 PCOD9294037
Probable space group: C 2/C
;
_chemical_formula_sum "Si O2"
_cell_formula_units_Z 36
_cell_length_a 8.616464
_cell_length_b 12.318709
_cell_length_c 18.406205
_cell_angle_alpha 90.000000
_cell_angle_beta 46.176007
_cell_angle_gamma 90.000000
_cell_volume 1409.538691
_symmetry_space_group_name_H-M "C 2/C"
_symmetry_group_IT_number 15
_symmetry_cell_setting 'monoclinic'
loop_
_space_group_symop_operation_xyz
x,y,z
-x,y,1/2-z
-x,-y,-z
x,-y,1/2+z
1/2+x,1/2+y,z
1/2-x,1/2+y,1/2-z
1/2-x,1/2-y,-z
1/2+x,1/2-y,1/2+z
loop_
_atom_site_type_symbol
_atom_site_label
_atom_site_fract_x
_atom_site_fract_y
_atom_site_fract_z
Si Si1 0.443695 0.770652 0.495308
Si Si2 0.039447 0.549166 0.391761
Si Si3 0.500000 0.446297 0.750000
Si Si4 0.713370 0.079832 0.633950
Si Si5 0.795403 0.859991 0.687656
O O1 0.250000 0.750000 0.500000
O O2 0.484690 0.878845 0.528918
O O3 0.381442 0.676174 0.573308
O O4 0.655362 0.736747 0.381759
O O5 0.275045 0.493381 0.321624
O O6 0.084578 0.629488 0.307035
O O7 0.867245 0.464429 0.418604
O O8 0.485402 0.367710 0.685659
O O9 0.500000 0.109511 0.750000
O O10 0.810117 0.973756 0.640557
#
# Coordination Sequence:
#
# PCOD9294037 Si02
#       5
#     8   8   4   8   8
#     4  12  21  35  65  89 113 159 201 243 302 365
#     4   9  20  39  59  87 119 154 204 242 296 363
#     4   8  16  36  58  78 122 150 186 254 286 340
#     4  10  23  38  62  83 121 163 192 247 310 354
#     4   9  19  39  55  87 124 149 195 254 294 349
#
# _framework density 25.540272000000002
#
# number of rings (size 3 to 8) (size 9 to 14) (size 15 to 20)
#    1.333    0.889    2.222    0.667    4.667    1.778 
#    0.000    0.000    7.333    0.000    0.000    0.000 
#    0.000    0.000    0.000    0.000    0.000    0.000 
#
# Total GULP energy -100422.351165 kJ/mol
# GULP energy per Si atom -5579.019509 kJ/mol
# Density = 2.548214 g / cm^3
# Si number density = 25.540272 Si / 1000 Ang^3
#
#
#
# Elastic Constant Matrix: (Units=GPa)
#
#
# Indices 1 2 3 4 5 6 
#
# 1 88.3977 45.0743 21.0483 0.0001 16.6371 0.0000
# 2 45.0743 115.5454 46.3485 0.0001 14.3992 0.0000
# 3 21.0483 46.3485 93.2212 -0.0001 16.3797 0.0001
# 4 0.0001 0.0001 -0.0001 35.3381 0.0000 -0.4195
# 5 16.6371 14.3992 16.3797 0.0000 34.2243 0.0000
# 6 0.0000 0.0000 0.0001 -0.4195 0.0000 25.3027
#
#
#
# Elastic Compliance Matrix: (Units=1/GPa)
#
#
# Indices 1 2 3 4 5 6 
#
# 1 0.014911 -0.005233 0.000133 0.000000 -0.005110 0.000000
# 2 -0.005233 0.012795 -0.005111 0.000000 -0.000393 0.000000
# 3 0.000133 -0.005111 0.014054 0.000000 -0.004640 0.000000
# 4 0.000000 0.000000 0.000000 0.028304 0.000000 0.000469
# 5 -0.005110 -0.000393 -0.004640 0.000000 0.034090 0.000000
# 6 0.000000 0.000000 0.000000 0.000469 0.000000 0.039529
#
#
# Mechanical properties :
#
#
# Convention : Reuss Voigt Hill
#
# Bulk Modulus (GPa) = 46.86547 58.01186 52.43866
# Shear Modulus (GPa) = 29.20264 31.28591 30.24427
#
# Velocity S-wave (km/s) = 3.38508 3.50375 3.44492
# Velocity P-wave (km/s) = 5.80240 6.25552 6.03321
#
# Compressibility (1/GPa) = 0.02133767
#
# Stress axis : x y z
#
# Youngs Moduli (GPa) = 67.06389 78.15365 71.15634
#
# Poissons Ratio (x) = 0.40901 -0.00948
# Poissons Ratio (y) = 0.35097 0.36368
# Poissons Ratio (z) = -0.00893 0.39944
#
# Static dielectric constant tensor:
#      x y z
#    x 2.111440 0.000000 0.040410 
#    y 0.000000 1.977960 0.000000 
#    z 0.040410 0.000000 2.092130 
# 
# From -- ./inp_files/269412.got.cif
#   From: 2010.05.17/outbox.cif.g08.bks.cpg/sg15_135_cif.got.tgz:269412.got - 2010.06.03 18:47:42.
