data_PCOD9294084
_publ_section_title
;
Structure prediction by ZEFSAII (Michael W. Deem and Ramdas Pophale) SiO2 
 PCOD9294084
Probable space group: C 2/C
;
_chemical_formula_sum "Si O2"
_cell_formula_units_Z 64
_cell_length_a 23.091644
_cell_length_b 13.968350
_cell_length_c 10.901842
_cell_angle_alpha 90.000000
_cell_angle_beta 48.952447
_cell_angle_gamma 90.000000
_cell_volume 2651.954784
_symmetry_space_group_name_H-M "C 2/C"
_symmetry_group_IT_number 15
_symmetry_cell_setting 'monoclinic'
loop_
_space_group_symop_operation_xyz
x,y,z
-x,y,1/2-z
-x,-y,-z
x,-y,1/2+z
1/2+x,1/2+y,z
1/2-x,1/2+y,1/2-z
1/2-x,1/2-y,-z
1/2+x,1/2-y,1/2+z
loop_
_atom_site_type_symbol
_atom_site_label
_atom_site_fract_x
_atom_site_fract_y
_atom_site_fract_z
Si Si1 0.570642 0.954076 0.469475
Si Si2 0.191930 0.426244 0.881765
Si Si3 0.684509 0.777017 0.685981
Si Si4 0.192293 0.644652 0.636538
Si Si5 0.858840 0.048053 0.435623
Si Si6 0.670556 0.563881 0.765156
Si Si7 0.050231 0.781663 0.795696
Si Si8 0.485070 0.764049 0.643493
O O1 0.638839 0.934458 0.277336
O O2 0.541643 0.855810 0.567524
O O3 0.500000 0.000000 0.500000
O O4 0.606331 0.032543 0.508884
O O5 0.206928 0.366671 0.738555
O O6 0.246558 0.514955 0.834112
O O7 0.203285 0.353754 0.975798
O O8 0.750000 0.750000 0.500000
O O9 0.672386 0.677846 0.775488
O O10 0.602829 0.798122 0.738575
O O11 0.278263 0.609794 0.554890
O O12 0.130717 0.732394 0.730744
O O13 0.874802 0.020458 0.554868
O O14 0.922789 0.118140 0.294768
O O15 0.852397 0.965428 0.341527
O O16 0.000000 0.737114 0.750000
O O17 0.001218 0.784532 0.989261
O O18 0.500000 0.708837 0.750000
#
# Coordination Sequence:
#
# PCOD9294084 Si02
#       8
#     8   8   8   8   8   8   8   8
#     4  11  23  38  66 100 150 182 220 285 369 440
#     4  11  23  42  68 106 142 187 234 292 365 428
#     4  12  27  46  72 102 149 192 237 302 362 436
#     4  10  23  38  66  99 141 183 234 283 357 441
#     4  11  23  45  72 100 142 185 244 302 361 431
#     4  11  25  44  71 107 141 188 250 297 354 433
#     4  11  24  46  70 100 137 192 242 300 359 434
#     4  11  27  44  67 110 148 184 238 296 368 434
#
# _framework density 24.133140999999998
#
# number of rings (size 3 to 8) (size 9 to 14) (size 15 to 20)
#    0.000    1.000    2.500    3.375    7.000    4.000 
#    0.000    3.125    0.000    0.000    0.000    0.000 
#    0.000    0.000    0.000    0.000    0.000    0.000 
#
# Total GULP energy -178488.339702 kJ/mol
# GULP energy per Si atom -5577.760616 kJ/mol
# Density = 2.407821 g / cm^3
# Si number density = 24.133141 Si / 1000 Ang^3
#
#
#
# Elastic Constant Matrix: (Units=GPa)
#
#
# Indices 1 2 3 4 5 6 
#
# 1 50.3479 14.5748 52.9828 0.0000 22.2774 0.0000
# 2 14.5748 58.0485 -1.0820 0.0000 -6.7015 0.0000
# 3 52.9828 -1.0820 124.1534 0.0000 8.7674 0.0000
# 4 0.0000 0.0000 0.0000 10.6128 0.0000 -12.0208
# 5 22.2774 -6.7015 8.7674 0.0000 42.6410 0.0000
# 6 0.0000 0.0000 0.0000 -12.0208 0.0000 13.8962
#
#
#
# Elastic Compliance Matrix: (Units=1/GPa)
#
#
# Indices 1 2 3 4 5 6 
#
# 1 0.071930 -0.022665 -0.028401 0.000000 -0.035302 0.000000
# 2 -0.022665 0.024687 0.008907 0.000000 0.013890 0.000000
# 3 -0.028401 0.008907 0.019387 0.000000 0.012251 0.000000
# 4 0.000000 0.000000 0.000000 4.666445 0.000000 4.036682
# 5 -0.035302 0.013890 0.012251 0.000000 0.041558 0.000000
# 6 0.000000 0.000000 0.000000 4.036682 0.000000 3.563872
#
#
# Mechanical properties :
#
#
# Convention : Reuss Voigt Hill
#
# Bulk Modulus (GPa) = 31.55982 40.61123 36.08553
# Shear Modulus (GPa) = 0.58943 24.50163 12.54553
#
# Velocity S-wave (km/s) = 0.49474 3.18979 2.28249
# Velocity P-wave (km/s) = 3.66499 5.51641 4.68311
#
# Compressibility (1/GPa) = 0.03168586
#
# Stress axis : x y z
#
# Youngs Moduli (GPa) = 13.90242 40.50686 51.58056
#
# Poissons Ratio (x) = 0.91808 1.46493
# Poissons Ratio (y) = 0.31510 -0.45941
# Poissons Ratio (z) = 0.39484 -0.36078
#
# Static dielectric constant tensor:
#      x y z
#    x 2.045110 0.000000 0.044430 
#    y 0.000000 2.001240 0.000000 
#    z 0.044430 0.000000 1.955190 
# 
# From -- ./inp_files/123515.got.cif
#   From: 2010.05.17/outbox.cif.g08.bks.cpg/sg15_62_cif.got.tgz:123515.got - 2010.06.03 18:47:42.
