data_PCOD9294945
_publ_section_title
;
Structure prediction by ZEFSAII (Michael W. Deem and Ramdas Pophale) SiO2 
 PCOD9294945
Probable space group: C 2/C
;
_chemical_formula_sum "Si O2"
_cell_formula_units_Z 36
_cell_length_a 6.066518
_cell_length_b 25.893926
_cell_length_c 11.916759
_cell_angle_alpha 90.000000
_cell_angle_beta 122.651885
_cell_angle_gamma 90.000000
_cell_volume 1576.119546
_symmetry_space_group_name_H-M "C 2/C"
_symmetry_group_IT_number 15
_symmetry_cell_setting 'monoclinic'
loop_
_space_group_symop_operation_xyz
x,y,z
-x,y,1/2-z
-x,-y,-z
x,-y,1/2+z
1/2+x,1/2+y,z
1/2-x,1/2+y,1/2-z
1/2-x,1/2-y,-z
1/2+x,1/2-y,1/2+z
loop_
_atom_site_type_symbol
_atom_site_label
_atom_site_fract_x
_atom_site_fract_y
_atom_site_fract_z
Si Si1 0.475881 0.938729 0.875526
Si Si2 0.265602 0.461155 0.471375
Si Si3 0.500000 0.709024 0.750000
Si Si4 0.475120 0.630341 0.545408
Si Si5 0.995212 0.220343 0.382622
O O1 0.500000 0.924540 0.750000
O O2 0.524936 0.000731 0.888797
O O3 0.242014 0.938345 0.903307
O O4 0.706833 0.902302 0.990405
O O5 0.500000 0.500000 0.500000
O O6 0.299053 0.411955 0.403273
O O7 0.541584 0.671405 0.657659
O O8 0.745955 0.744799 0.843515
O O9 0.460829 0.664597 0.429278
O O10 0.250000 0.250000 0.500000
O O11 0.000000 0.215848 0.250000
#
# Coordination Sequence:
#
# PCOD9294945 Si02
#       5
#     8   8   4   8   8
#     4  10  23  41  70 102 144 185 242 306 372 453
#     4   9  22  43  62 102 139 186 243 295 371 445
#     4  12  28  48  70 108 150 192 254 314 378 448
#     4  11  26  41  72 102 142 195 243 306 379 445
#     4  12  28  49  74 107 149 196 258 318 377 449
#
# _framework density 22.840906
#
# number of rings (size 3 to 8) (size 9 to 14) (size 15 to 20)
#    0.000    1.333    2.222    0.667    7.778    8.000 
#    0.000    0.000    0.000    0.000    0.000    0.000 
#    0.000    0.000    0.000    0.000    0.000    0.000 
#
# Total GULP energy -100408.441650 kJ/mol
# GULP energy per Si atom -5578.246758 kJ/mol
# Density = 2.278892 g / cm^3
# Si number density = 22.840906 Si / 1000 Ang^3
#
#
#
# Elastic Constant Matrix: (Units=GPa)
#
#
# Indices 1 2 3 4 5 6 
#
# 1 97.3148 40.9244 20.6389 0.0000 -7.3070 0.0000
# 2 40.9244 151.4068 10.5592 0.0000 9.2736 0.0000
# 3 20.6389 10.5592 62.8761 0.0000 -2.3146 0.0000
# 4 0.0000 0.0000 0.0000 -5.4390 0.0000 6.3136
# 5 -7.3070 9.2736 -2.3146 0.0000 37.0307 0.0000
# 6 0.0000 0.0000 0.0000 6.3136 0.0000 40.1549
#
#
#
# Elastic Compliance Matrix: (Units=1/GPa)
#
#
# Indices 1 2 3 4 5 6 
#
# 1 0.012666 -0.003373 -0.003476 0.000000 0.003127 0.000000
# 2 -0.003373 0.007696 -0.000281 0.000000 -0.002610 0.000000
# 3 -0.003476 -0.000281 0.017109 0.000000 0.000454 0.000000
# 4 0.000000 0.000000 0.000000 -0.155479 0.000000 0.024446
# 5 0.003127 -0.002610 0.000454 0.000000 0.028304 0.000000
# 6 0.000000 0.000000 0.000000 0.024446 0.000000 0.021060
#
#
# Mechanical properties :
#
#
# Convention : Reuss Voigt Hill
#
# Bulk Modulus (GPa) = 43.08330 50.64918 46.86624
# Shear Modulus (GPa) = -107.18913 30.31433 -38.43740
#
# Velocity S-wave (km/s) = -6.85788 3.64702 -4.10668
# Velocity P-wave (km/s) = 6.61846 6.32118 1.38686
#
# Compressibility (1/GPa) = 0.02321085
#
# Stress axis : x y z
#
# Youngs Moduli (GPa) = 78.94976 129.94007 58.44769
#
# Poissons Ratio (x) = 0.43825 0.20317
# Poissons Ratio (y) = 0.26627 0.01645
# Poissons Ratio (z) = 0.27444 0.03657
#
# Static dielectric constant tensor:
#      x y z
#    x 1.947960 0.000000 -0.047190 
#    y 0.000000 1.790050 0.000000 
#    z -0.047190 0.000000 1.956540 
# 
# From -- ./inp_files/73414.got.cif
#   From: 2010.05.17/outbox.cif.g08.bks.cpg/sg15_37_cif.got.tgz:73414.got - 2010.06.03 18:47:42.
