data_PCOD9294300
_publ_section_title
;
Structure prediction by ZEFSAII (Michael W. Deem and Ramdas Pophale) SiO2 
 PCOD9294300
Probable space group: C 2/C
;
_chemical_formula_sum "Si O2"
_cell_formula_units_Z 56
_cell_length_a 11.754178
_cell_length_b 31.835003
_cell_length_c 13.916740
_cell_angle_alpha 90.000000
_cell_angle_beta 32.041807
_cell_angle_gamma 90.000000
_cell_volume 2762.810519
_symmetry_space_group_name_H-M "C 2/C"
_symmetry_group_IT_number 15
_symmetry_cell_setting 'monoclinic'
loop_
_space_group_symop_operation_xyz
x,y,z
-x,y,1/2-z
-x,-y,-z
x,-y,1/2+z
1/2+x,1/2+y,z
1/2-x,1/2+y,1/2-z
1/2-x,1/2-y,-z
1/2+x,1/2-y,1/2+z
loop_
_atom_site_type_symbol
_atom_site_label
_atom_site_fract_x
_atom_site_fract_y
_atom_site_fract_z
Si Si1 0.000000 0.128064 0.250000
Si Si2 0.801731 0.157078 0.206834
Si Si3 0.739818 0.057763 0.536289
Si Si4 0.748917 0.209873 0.073727
Si Si5 0.530233 0.419204 0.440847
Si Si6 0.122536 0.393674 0.447329
Si Si7 0.000000 0.160080 0.750000
Si Si8 0.799172 0.534854 0.465213
O O1 0.050035 0.156218 0.306168
O O2 0.810897 0.096023 0.417511
O O3 0.789849 0.201090 0.157951
O O4 0.581216 0.136318 0.402610
O O5 0.889360 0.121007 0.071851
O O6 0.500000 0.062887 0.750000
O O7 0.907785 0.056532 0.505795
O O8 0.751666 0.013233 0.473933
O O9 0.500000 0.194042 0.250000
O O10 0.750000 0.250000 0.000000
O O11 0.948219 0.186554 0.880799
O O12 0.757192 0.402748 0.237829
O O13 0.400225 0.444454 0.451335
O O14 0.295043 0.368117 0.385132
O O15 0.114292 0.438024 0.507757
O O16 0.000000 0.533955 0.250000
#
# Coordination Sequence:
#
# PCOD9294300 Si02
#       8
#     4   8   8   8   8   8   4   8
#     4  10  24  43  64  84 118 174 216 252 308 353
#     4  11  23  41  63  92 124 159 211 255 294 388
#     4  10  23  40  53  78 119 162 222 265 301 359
#     4  12  24  40  66 101 132 152 187 246 315 376
#     4  11  21  36  57  81 116 165 207 256 315 361
#     4  12  21  34  62  87 119 161 205 252 317 356
#     4  12  22  35  60  96 128 160 186 242 310 375
#     4  11  21  35  52  84 121 157 208 270 322 362
#
# _framework density 20.269216
#
# number of rings (size 3 to 8) (size 9 to 14) (size 15 to 20)
#    0.000    0.857    6.429    1.286    2.000    0.000 
#    0.000    2.143    0.000    0.857    0.000    0.000 
#    0.000    0.000    0.000    0.000    0.000    0.000 
#
# Total GULP energy -155927.985088 kJ/mol
# GULP energy per Si atom -5568.856610 kJ/mol
# Density = 2.022308 g / cm^3
# Si number density = 20.269216 Si / 1000 Ang^3
#
#
#
# Elastic Constant Matrix: (Units=GPa)
#
#
# Indices 1 2 3 4 5 6 
#
# 1 48.8584 21.1954 -12.4408 0.0000 3.6366 0.0000
# 2 21.1954 49.4786 3.0207 0.0000 2.1206 0.0000
# 3 -12.4408 3.0207 93.1447 0.0000 3.7574 0.0000
# 4 0.0000 0.0000 0.0000 10.2234 0.0000 7.8187
# 5 3.6366 2.1206 3.7574 0.0000 22.9116 0.0000
# 6 0.0000 0.0000 0.0000 7.8187 0.0000 23.2082
#
#
#
# Elastic Compliance Matrix: (Units=1/GPa)
#
#
# Indices 1 2 3 4 5 6 
#
# 1 0.026824 -0.011577 0.004114 0.000000 -0.003861 0.000000
# 2 -0.011577 0.025319 -0.002363 0.000000 -0.000118 0.000000
# 3 0.004114 -0.002363 0.011455 0.000000 -0.002313 0.000000
# 4 0.000000 0.000000 0.000000 0.131765 0.000000 -0.044391
# 5 -0.003861 -0.000118 -0.002313 0.000000 0.044649 0.000000
# 6 0.000000 0.000000 0.000000 -0.044391 0.000000 0.058043
#
#
# Mechanical properties :
#
#
# Convention : Reuss Voigt Hill
#
# Bulk Modulus (GPa) = 22.75388 23.89248 23.32318
# Shear Modulus (GPa) = 15.04412 23.24906 19.14659
#
# Velocity S-wave (km/s) = 2.72732 3.39043 3.07679
# Velocity P-wave (km/s) = 4.60086 5.20959 4.91466
#
# Compressibility (1/GPa) = 0.04394856
#
# Stress axis : x y z
#
# Youngs Moduli (GPa) = 37.27968 39.49582 87.29524
#
# Poissons Ratio (x) = 0.45722 -0.35913
# Poissons Ratio (y) = 0.43157 0.20624
# Poissons Ratio (z) = -0.15337 0.09331
#
# Static dielectric constant tensor:
#      x y z
#    x 1.767240 0.000000 0.063910 
#    y 0.000000 1.749780 0.000000 
#    z 0.063910 0.000000 1.730560 
# 
# From -- ./inp_files/149293.got.cif
#   From: 2010.05.17/outbox.cif.g08.bks.cpg/sg15_75_cif.got.tgz:149293.got - 2010.06.03 18:47:42.
