data_PCOD9294414
_publ_section_title
;
Structure prediction by ZEFSAII (Michael W. Deem and Ramdas Pophale) SiO2 
 PCOD9294414
Probable space group: C 2/C
;
_chemical_formula_sum "Si O2"
_cell_formula_units_Z 60
_cell_length_a 25.806590
_cell_length_b 14.080893
_cell_length_c 15.705178
_cell_angle_alpha 90.000000
_cell_angle_beta 148.424802
_cell_angle_gamma 90.000000
_cell_volume 2988.254332
_symmetry_space_group_name_H-M "C 2/C"
_symmetry_group_IT_number 15
_symmetry_cell_setting 'monoclinic'
loop_
_space_group_symop_operation_xyz
x,y,z
-x,y,1/2-z
-x,-y,-z
x,-y,1/2+z
1/2+x,1/2+y,z
1/2-x,1/2+y,1/2-z
1/2-x,1/2-y,-z
1/2+x,1/2-y,1/2+z
loop_
_atom_site_type_symbol
_atom_site_label
_atom_site_fract_x
_atom_site_fract_y
_atom_site_fract_z
Si Si1 0.294391 0.934474 0.977159
Si Si2 0.322811 0.141238 0.778352
Si Si3 0.500000 0.367012 0.750000
Si Si4 0.816137 0.982271 0.515355
Si Si5 0.206520 0.800542 0.522357
Si Si6 0.602426 0.118645 0.434483
Si Si7 0.049885 0.694921 0.702255
Si Si8 0.684216 0.191026 0.148308
O O1 0.388590 0.877038 0.149867
O O2 0.320092 0.043844 0.995358
O O3 0.209613 0.934353 0.929754
O O4 0.270211 0.885540 0.853496
O O5 0.277765 0.046579 0.673586
O O6 0.388285 0.193010 0.798317
O O7 0.231790 0.209759 0.679904
O O8 0.388754 0.115201 0.951750
O O9 0.409988 0.435534 0.601785
O O10 0.542760 0.295957 0.738910
O O11 0.829674 0.093687 0.546586
O O12 0.250000 0.750000 0.500000
O O13 0.125090 0.726639 0.441128
O O14 0.283075 0.811903 0.707978
O O15 0.500000 0.089422 0.250000
O O16 0.933814 0.674423 0.523652
#
# Coordination Sequence:
#
# PCOD9294414 Si02
#       8
#     8   8   4   8   8   8   8   8
#     4  11  21  40  67  98 128 163 214 279 326 386
#     4  10  23  40  64  97 130 168 215 270 320 391
#     4  12  22  40  68  96 132 162 206 274 328 396
#     4  11  23  41  66  95 130 171 218 260 334 379
#     4  11  25  44  62  88 131 182 215 262 307 390
#     4  11  24  41  64  91 132 173 221 264 317 375
#     4  11  21  38  68 101 126 162 212 272 341 376
#     4  11  21  40  65  92 134 164 212 269 327 378
#
# _framework density 20.078612
#
# number of rings (size 3 to 8) (size 9 to 14) (size 15 to 20)
#    0.000    1.067    4.000    2.400    2.800    2.133 
#    0.000    3.333    0.000    4.000    0.000    0.000 
#    0.000    0.000    0.000    0.000    0.000    0.000 
#
# Total GULP energy -167385.581162 kJ/mol
# GULP energy per Si atom -5579.519372 kJ/mol
# Density = 2.003291 g / cm^3
# Si number density = 20.078612 Si / 1000 Ang^3
#
#
#
# Elastic Constant Matrix: (Units=GPa)
#
#
# Indices 1 2 3 4 5 6 
#
# 1 103.2944 37.3536 43.7601 0.0000 -18.8769 0.0000
# 2 37.3536 113.5449 22.3932 0.0000 1.9840 0.0000
# 3 43.7601 22.3932 55.5655 0.0000 -15.7993 0.0000
# 4 0.0000 0.0000 0.0000 7.3919 0.0000 -9.1194
# 5 -18.8769 1.9840 -15.7993 0.0000 25.6254 0.0000
# 6 0.0000 0.0000 0.0000 -9.1194 0.0000 10.2424
#
#
#
# Elastic Compliance Matrix: (Units=1/GPa)
#
#
# Indices 1 2 3 4 5 6 
#
# 1 0.016135 -0.003548 -0.009481 0.000000 0.006315 0.000000
# 2 -0.003548 0.010660 -0.003006 0.000000 -0.005293 0.000000
# 3 -0.009481 -0.003006 0.030018 0.000000 0.011756 0.000000
# 4 0.000000 0.000000 0.000000 -1.374159 0.000000 -1.223496
# 5 0.006315 -0.005293 0.011756 0.000000 0.051333 0.000000
# 6 0.000000 0.000000 0.000000 -1.223496 0.000000 -0.991718
#
#
# Mechanical properties :
#
#
# Convention : Reuss Voigt Hill
#
# Bulk Modulus (GPa) = 40.41979 53.26874 46.84426
# Shear Modulus (GPa) = -2.25488 19.91179 8.82845
#
# Velocity S-wave (km/s) = -1.06088 3.15253 2.09916
# Velocity P-wave (km/s) = 4.32133 6.31181 5.40892
#
# Compressibility (1/GPa) = 0.02474036
#
# Stress axis : x y z
#
# Youngs Moduli (GPa) = 61.97685 93.80999 33.31335
#
# Poissons Ratio (x) = 0.33288 0.31586
# Poissons Ratio (y) = 0.21992 0.10015
# Poissons Ratio (z) = 0.58763 0.28203
#
# Static dielectric constant tensor:
#      x y z
#    x 1.722510 0.000000 -0.009870 
#    y 0.000000 1.719170 0.000000 
#    z -0.009870 0.000000 1.718390 
# 
# From -- ./inp_files/178556.got.cif
#   From: 2010.05.17/outbox.cif.g08.bks.cpg/sg15_90_cif.got.tgz:178556.got - 2010.06.03 18:47:42.
