data_PCOD9294358
_publ_section_title
;
Structure prediction by ZEFSAII (Michael W. Deem and Ramdas Pophale) SiO2 
 PCOD9294358
Probable space group: C 2/C
;
_chemical_formula_sum "Si O2"
_cell_formula_units_Z 48
_cell_length_a 11.967366
_cell_length_b 11.414492
_cell_length_c 17.264660
_cell_angle_alpha 90.000000
_cell_angle_beta 71.094005
_cell_angle_gamma 90.000000
_cell_volume 2231.145805
_symmetry_space_group_name_H-M "C 2/C"
_symmetry_group_IT_number 15
_symmetry_cell_setting 'monoclinic'
loop_
_space_group_symop_operation_xyz
x,y,z
-x,y,1/2-z
-x,-y,-z
x,-y,1/2+z
1/2+x,1/2+y,z
1/2-x,1/2+y,1/2-z
1/2-x,1/2-y,-z
1/2+x,1/2-y,1/2+z
loop_
_atom_site_type_symbol
_atom_site_label
_atom_site_fract_x
_atom_site_fract_y
_atom_site_fract_z
Si Si1 0.870644 0.687148 0.494483
Si Si2 0.519267 0.093172 0.331318
Si Si3 0.030444 0.905574 0.429384
Si Si4 0.734408 0.748919 0.839511
Si Si5 0.819059 0.391588 0.179499
Si Si6 0.105268 0.049430 0.172713
O O1 0.750000 0.750000 0.500000
O O2 0.854732 0.635680 0.583175
O O3 0.911097 0.601200 0.415711
O O4 0.967547 0.788259 0.472530
O O5 0.500000 0.143331 0.250000
O O6 0.624886 0.167332 0.344521
O O7 0.572615 0.964899 0.310691
O O8 0.168011 0.868384 0.386359
O O9 0.000000 0.000000 0.500000
O O10 0.960510 0.959971 0.371309
O O11 0.792609 0.713273 0.744346
O O12 0.823093 0.832425 0.868912
O O13 0.700854 0.470893 0.197773
O O14 0.000000 0.093175 0.250000
#
# Coordination Sequence:
#
# PCOD9294358 Si02
#       6
#     8   8   8   8   8   8
#     4  11  22  39  66  90 123 171 221 268 331 406
#     4  10  23  40  62  94 130 166 218 281 335 401
#     4  11  25  43  65  97 134 177 226 283 348 409
#     4  10  24  41  68  96 128 179 228 271 342 413
#     4  11  22  41  64  95 129 172 226 274 341 407
#     4  11  23  43  68  96 134 181 226 283 341 412
#
# _framework density 21.51361
#
# number of rings (size 3 to 8) (size 9 to 14) (size 15 to 20)
#    0.000    1.333    3.333    1.500    4.667    2.667 
#    0.000    0.000    0.000    0.000    0.000    0.000 
#    0.000    0.000    0.000    0.000    0.000    0.000 
#
# Total GULP energy -133749.695832 kJ/mol
# GULP energy per Si atom -5572.903993 kJ/mol
# Density = 2.146464 g / cm^3
# Si number density = 21.513610 Si / 1000 Ang^3
#
#
#
# Elastic Constant Matrix: (Units=GPa)
#
#
# Indices 1 2 3 4 5 6 
#
# 1 62.4640 29.1691 31.1952 0.0000 -21.6260 0.0000
# 2 29.1691 58.1621 15.5606 0.0000 -11.4496 0.0000
# 3 31.1952 15.5606 83.1892 0.0000 -29.1167 0.0000
# 4 0.0000 0.0000 0.0000 42.1570 0.0000 -8.8046
# 5 -21.6260 -11.4496 -29.1167 0.0000 25.4832 0.0000
# 6 0.0000 0.0000 0.0000 -8.8046 0.0000 -12.6741
#
#
#
# Elastic Compliance Matrix: (Units=1/GPa)
#
#
# Indices 1 2 3 4 5 6 
#
# 1 0.027510 -0.009950 -0.003080 0.000000 0.015357 0.000000
# 2 -0.009950 0.022504 0.000175 0.000000 0.001868 0.000000
# 3 -0.003080 0.000175 0.020423 0.000000 0.020800 0.000000
# 4 0.000000 0.000000 0.000000 0.020715 0.000000 -0.014391
# 5 0.015357 0.001868 0.020800 0.000000 0.076879 0.000000
# 6 0.000000 0.000000 0.000000 -0.014391 0.000000 -0.068904
#
#
# Mechanical properties :
#
#
# Convention : Reuss Voigt Hill
#
# Bulk Modulus (GPa) = 22.35705 39.51836 30.93770
# Shear Modulus (GPa) = 35.77903 19.51924 27.64914
#
# Velocity S-wave (km/s) = 4.08252 3.01541 3.58885
# Velocity P-wave (km/s) = 5.71290 5.52562 5.62004
#
# Compressibility (1/GPa) = 0.04472863
#
# Stress axis : x y z
#
# Youngs Moduli (GPa) = 36.34976 44.43648 48.96406
#
# Poissons Ratio (x) = 0.44213 0.15082
# Poissons Ratio (y) = 0.36167 -0.00859
# Poissons Ratio (z) = 0.11196 -0.00779
#
# Static dielectric constant tensor:
#      x y z
#    x 1.854320 0.000000 -0.091820 
#    y 0.000000 1.928820 0.000000 
#    z -0.091820 0.000000 2.177460 
# 
# From -- ./inp_files/196519.got.cif
#   From: 2010.05.17/outbox.cif.g08.bks.cpg/sg15_99_cif.got.tgz:196519.got - 2010.06.03 18:47:42.
