data_PCOD9294095
_publ_section_title
;
Structure prediction by ZEFSAII (Michael W. Deem and Ramdas Pophale) SiO2 
 PCOD9294095
Probable space group: C 2/C
;
_chemical_formula_sum "Si O2"
_cell_formula_units_Z 56
_cell_length_a 25.330654
_cell_length_b 15.825582
_cell_length_c 9.119584
_cell_angle_alpha 90.000000
_cell_angle_beta 43.823469
_cell_angle_gamma 90.000000
_cell_volume 2531.409988
_symmetry_space_group_name_H-M "C 2/C"
_symmetry_group_IT_number 15
_symmetry_cell_setting 'monoclinic'
loop_
_space_group_symop_operation_xyz
x,y,z
-x,y,1/2-z
-x,-y,-z
x,-y,1/2+z
1/2+x,1/2+y,z
1/2-x,1/2+y,1/2-z
1/2-x,1/2-y,-z
1/2+x,1/2-y,1/2+z
loop_
_atom_site_type_symbol
_atom_site_label
_atom_site_fract_x
_atom_site_fract_y
_atom_site_fract_z
Si Si1 0.158361 0.901802 0.971318
Si Si2 0.050031 0.042921 0.273095
Si Si3 0.725635 0.095887 0.710203
Si Si4 0.841256 0.813465 0.814110
Si Si5 0.312689 0.691197 0.794760
Si Si6 0.814430 0.527687 0.022302
Si Si7 0.088244 0.310018 0.108009
O O1 0.154650 0.823221 0.867999
O O2 0.235398 0.950822 0.769036
O O3 0.156060 0.867652 0.139694
O O4 0.091190 0.969180 0.098723
O O5 0.114955 0.100951 0.215756
O O6 0.000000 0.091200 0.250000
O O7 0.000000 0.000000 0.500000
O O8 0.754844 0.172977 0.546284
O O9 0.781790 0.128251 0.731571
O O10 0.707043 0.033510 0.605967
O O11 0.661739 0.061233 0.952265
O O12 0.889917 0.739545 0.786808
O O13 0.370467 0.755074 0.600595
O O14 0.250000 0.750000 0.000000
O O15 0.873792 0.599073 0.947311
O O16 0.000000 0.315267 0.250000
#
# Coordination Sequence:
#
# PCOD9294095 Si02
#       7
#     8   8   8   8   8   8   8
#     4  11  23  38  62  93 126 173 220 265 315 393
#     4  12  24  36  56  90 134 174 208 256 325 394
#     4  10  23  38  69  96 120 167 215 281 314 379
#     4  10  23  39  62  93 133 170 215 265 328 391
#     4  11  24  41  69  95 128 163 219 269 327 385
#     4  11  22  43  68  93 130 169 227 267 329 384
#     4  11  26  44  65  95 136 176 213 274 335 391
#
# _framework density 22.122059
#
# number of rings (size 3 to 8) (size 9 to 14) (size 15 to 20)
#    0.000    1.143    4.286    1.286   10.000    1.714 
#    0.000    0.714    0.000    0.000    0.000    0.000 
#    0.000    0.000    0.000    0.000    0.000    0.000 
#
# Total GULP energy -155874.365749 kJ/mol
# GULP energy per Si atom -5566.941634 kJ/mol
# Density = 2.207171 g / cm^3
# Si number density = 22.122059 Si / 1000 Ang^3
#
#
#
# Elastic Constant Matrix: (Units=GPa)
#
#
# Indices 1 2 3 4 5 6 
#
# 1 119.4488 27.0496 60.1653 0.0000 20.5699 0.0000
# 2 27.0496 74.6480 33.2700 0.0000 -1.1441 0.0000
# 3 60.1653 33.2700 98.2866 0.0000 8.6069 0.0000
# 4 0.0000 0.0000 0.0000 14.6672 0.0000 8.2724
# 5 20.5699 -1.1441 8.6069 0.0000 48.0326 0.0000
# 6 0.0000 0.0000 0.0000 8.2724 0.0000 25.2235
#
#
#
# Elastic Compliance Matrix: (Units=1/GPa)
#
#
# Indices 1 2 3 4 5 6 
#
# 1 0.013046 -0.001655 -0.007044 0.000000 -0.004364 0.000000
# 2 -0.001655 0.016073 -0.004595 0.000000 0.001915 0.000000
# 3 -0.007044 -0.004595 0.016039 0.000000 0.000033 0.000000
# 4 0.000000 0.000000 0.000000 0.083653 0.000000 -0.027435
# 5 -0.004364 0.001915 0.000033 0.000000 0.022728 0.000000
# 6 0.000000 0.000000 0.000000 -0.027435 0.000000 0.048643
#
#
# Mechanical properties :
#
#
# Convention : Reuss Voigt Hill
#
# Bulk Modulus (GPa) = 53.85040 59.26149 56.55595
# Shear Modulus (GPa) = 21.46293 29.04456 25.25374
#
# Velocity S-wave (km/s) = 3.11819 3.62736 3.38237
# Velocity P-wave (km/s) = 6.11223 6.66260 6.39334
#
# Compressibility (1/GPa) = 0.01856996
#
# Stress axis : x y z
#
# Youngs Moduli (GPa) = 76.65258 62.21447 62.34935
#
# Poissons Ratio (x) = 0.10296 0.43916
# Poissons Ratio (y) = 0.12686 0.28653
# Poissons Ratio (z) = 0.53991 0.28591
#
# Static dielectric constant tensor:
#      x y z
#    x 1.961330 0.000000 0.081650 
#    y 0.000000 2.098790 0.000000 
#    z 0.081650 0.000000 1.895240 
# 
# From -- ./inp_files/67101.got.cif
#   From: 2010.05.17/outbox.cif.g08.bks.cpg/sg15_34_cif.got.tgz:67101.got - 2010.06.03 18:47:42.
