data_PCOD9294379
_publ_section_title
;
Structure prediction by ZEFSAII (Michael W. Deem and Ramdas Pophale) SiO2 
 PCOD9294379
Probable space group: C 2/C
;
_chemical_formula_sum "Si O2"
_cell_formula_units_Z 48
_cell_length_a 18.751157
_cell_length_b 11.793243
_cell_length_c 11.556293
_cell_angle_alpha 90.000000
_cell_angle_beta 65.391161
_cell_angle_gamma 90.000000
_cell_volume 2323.410010
_symmetry_space_group_name_H-M "C 2/C"
_symmetry_group_IT_number 15
_symmetry_cell_setting 'monoclinic'
loop_
_space_group_symop_operation_xyz
x,y,z
-x,y,1/2-z
-x,-y,-z
x,-y,1/2+z
1/2+x,1/2+y,z
1/2-x,1/2+y,1/2-z
1/2-x,1/2-y,-z
1/2+x,1/2-y,1/2+z
loop_
_atom_site_type_symbol
_atom_site_label
_atom_site_fract_x
_atom_site_fract_y
_atom_site_fract_z
Si Si1 0.681600 0.386913 0.655516
Si Si2 0.862109 0.291941 0.151994
Si Si3 0.419191 0.814623 0.876693
Si Si4 0.347729 0.246465 0.045849
Si Si5 0.409050 0.066446 0.839307
Si Si6 0.687250 0.654189 0.690572
O O1 0.631126 0.329986 0.791728
O O2 0.652042 0.345993 0.550131
O O3 0.764593 0.320619 0.607816
O O4 0.687012 0.520065 0.669294
O O5 0.866607 0.377888 0.257617
O O6 0.777421 0.309026 0.149375
O O7 0.926977 0.310413 0.010046
O O8 0.500000 0.803773 0.750000
O O9 0.358606 0.718153 0.879547
O O10 0.381989 0.938136 0.875695
O O11 0.358028 0.303172 0.163003
O O12 0.400571 0.146931 0.956512
O O13 0.500000 0.060377 0.750000
#
# Coordination Sequence:
#
# PCOD9294379 Si02
#       6
#     8   8   8   8   8   8
#     4   9  20  39  61  91 119 161 204 258 304 362
#     4  10  23  40  63  92 121 162 210 254 310 365
#     4  11  26  40  61  95 127 163 206 256 316 367
#     4   9  20  39  62  91 121 158 211 249 309 364
#     4  10  23  40  66  90 124 163 203 262 312 369
#     4  11  23  37  67  91 125 162 206 261 302 369
#
# _framework density 20.659288
#
# number of rings (size 3 to 8) (size 9 to 14) (size 15 to 20)
#    0.000    2.000    0.000    2.500   11.667    1.333 
#    0.000    4.167    0.000    0.000    0.000    0.000 
#    0.000    0.000    0.000    0.000    0.000    0.000 
#
# Total GULP energy -133928.964557 kJ/mol
# GULP energy per Si atom -5580.373523 kJ/mol
# Density = 2.061227 g / cm^3
# Si number density = 20.659288 Si / 1000 Ang^3
#
#
#
# Elastic Constant Matrix: (Units=GPa)
#
#
# Indices 1 2 3 4 5 6 
#
# 1 34.7639 17.3904 4.3701 0.0000 6.3863 0.0000
# 2 17.3904 141.4130 53.1779 0.0000 13.4030 0.0000
# 3 4.3701 53.1779 121.4869 0.0000 -1.9184 0.0000
# 4 0.0000 0.0000 0.0000 10.4805 0.0000 -3.2945
# 5 6.3863 13.4030 -1.9184 0.0000 20.2350 0.0000
# 6 0.0000 0.0000 0.0000 -3.2945 0.0000 17.1351
#
#
#
# Elastic Compliance Matrix: (Units=1/GPa)
#
#
# Indices 1 2 3 4 5 6 
#
# 1 0.031807 -0.003215 0.000139 0.000000 -0.007896 0.000000
# 2 -0.003215 0.009576 -0.004166 0.000000 -0.005723 0.000000
# 3 0.000139 -0.004166 0.010108 0.000000 0.003674 0.000000
# 4 0.000000 0.000000 0.000000 0.101553 0.000000 0.019525
# 5 -0.007896 -0.005723 0.003674 0.000000 0.056050 0.000000
# 6 0.000000 0.000000 0.000000 0.019525 0.000000 0.062114
#
#
# Mechanical properties :
#
#
# Convention : Reuss Voigt Hill
#
# Bulk Modulus (GPa) = 27.02341 49.72674 38.37508
# Shear Modulus (GPa) = 16.77686 24.41847 20.59766
#
# Velocity S-wave (km/s) = 2.85278 3.44170 3.16098
# Velocity P-wave (km/s) = 4.89490 6.31790 5.65137
#
# Compressibility (1/GPa) = 0.03700495
#
# Stress axis : x y z
#
# Youngs Moduli (GPa) = 31.43967 104.42676 98.93029
#
# Poissons Ratio (x) = 0.33576 -0.01371
# Poissons Ratio (y) = 0.10109 0.41218
# Poissons Ratio (z) = -0.00436 0.43509
#
# Static dielectric constant tensor:
#      x y z
#    x 1.752160 0.000000 -0.024280 
#    y 0.000000 1.716130 0.000000 
#    z -0.024280 0.000000 1.814970 
# 
# From -- ./inp_files/104193.got.cif
#   From: 2010.05.17/outbox.cif.g08.bks.cpg/sg15_53_cif.got.tgz:104193.got - 2010.06.03 18:47:42.
