data_PCOD9294716
_publ_section_title
;
Structure prediction by ZEFSAII (Michael W. Deem and Ramdas Pophale) SiO2 
 PCOD9294716
Probable space group: C 2/C
;
_chemical_formula_sum "Si O2"
_cell_formula_units_Z 44
_cell_length_a 12.089751
_cell_length_b 22.811187
_cell_length_c 12.305060
_cell_angle_alpha 90.000000
_cell_angle_beta 38.680458
_cell_angle_gamma 90.000000
_cell_volume 2120.863023
_symmetry_space_group_name_H-M "C 2/C"
_symmetry_group_IT_number 15
_symmetry_cell_setting 'monoclinic'
loop_
_space_group_symop_operation_xyz
x,y,z
-x,y,1/2-z
-x,-y,-z
x,-y,1/2+z
1/2+x,1/2+y,z
1/2-x,1/2+y,1/2-z
1/2-x,1/2-y,-z
1/2+x,1/2-y,1/2+z
loop_
_atom_site_type_symbol
_atom_site_label
_atom_site_fract_x
_atom_site_fract_y
_atom_site_fract_z
Si Si1 0.723775 0.171951 0.912252
Si Si2 0.091524 0.243879 0.894130
Si Si3 0.905493 0.051892 0.707923
Si Si4 0.263533 0.439069 0.710923
Si Si5 0.500000 0.885594 0.750000
Si Si6 0.604331 0.325681 0.781236
O O1 0.865354 0.219256 0.759342
O O2 0.794062 0.111195 0.809467
O O3 0.545807 0.202804 0.006571
O O4 0.663192 0.154126 0.080230
O O5 0.261372 0.271254 0.821877
O O6 0.020415 0.191045 0.021576
O O7 0.000000 0.037121 0.750000
O O8 0.067756 0.060245 0.499997
O O9 0.778868 0.000278 0.762302
O O10 0.086966 0.425153 0.777457
O O11 0.294778 0.385342 0.768630
O O12 0.500000 0.330491 0.750000
#
# Coordination Sequence:
#
# PCOD9294716 Si02
#       6
#     8   8   8   8   4   8
#     4  11  23  43  66  97 135 173 218 273 328 388
#     4  10  23  41  64  96 133 175 219 269 322 397
#     4  11  23  45  69  92 134 173 216 276 329 390
#     4  11  24  43  67  98 126 173 223 267 336 387
#     4  12  24  44  68  98 134 172 218 280 322 396
#     4  11  21  41  65  93 130 171 221 269 326 390
#
# _framework density 20.746271
#
# number of rings (size 3 to 8) (size 9 to 14) (size 15 to 20)
#    0.000    1.091    5.455    1.091    0.000    1.455 
#    1.636    0.000    2.000    0.000    0.000    0.000 
#    0.000    0.000    0.000    0.000    0.000    0.000 
#
# Total GULP energy -122746.629177 kJ/mol
# GULP energy per Si atom -5579.392235 kJ/mol
# Density = 2.069905 g / cm^3
# Si number density = 20.746271 Si / 1000 Ang^3
#
#
#
# Elastic Constant Matrix: (Units=GPa)
#
#
# Indices 1 2 3 4 5 6 
#
# 1 144.5080 63.9868 12.9328 -0.0001 -2.9465 0.0001
# 2 63.9868 111.1449 21.1379 0.0000 4.8035 0.0000
# 3 12.9328 21.1379 69.9171 0.0000 -0.6845 0.0000
# 4 -0.0001 0.0000 0.0000 10.5728 0.0000 14.0710
# 5 -2.9465 4.8035 -0.6845 0.0000 14.8675 0.0000
# 6 0.0001 0.0000 0.0000 14.0710 0.0000 5.6403
#
#
#
# Elastic Compliance Matrix: (Units=1/GPa)
#
#
# Indices 1 2 3 4 5 6 
#
# 1 0.009484 -0.005616 -0.000020 0.000000 0.003693 0.000000
# 2 -0.005616 0.013028 -0.002953 0.000000 -0.005458 0.000000
# 3 -0.000020 -0.002953 0.015215 0.000000 0.001651 0.000000
# 4 0.000000 0.000000 0.000000 -0.040766 0.000000 0.101700
# 5 0.003693 -0.005458 0.001651 0.000000 0.069832 0.000000
# 6 0.000000 0.000000 0.000000 0.101700 0.000000 -0.076416
#
#
# Mechanical properties :
#
#
# Convention : Reuss Voigt Hill
#
# Bulk Modulus (GPa) = 48.66565 57.96503 53.31534
# Shear Modulus (GPa) = 347.11999 21.38362 184.25180
#
# Velocity S-wave (km/s) = 12.94913 3.21397 9.43424
# Velocity P-wave (km/s) = 15.71884 6.46324 12.01780
#
# Compressibility (1/GPa) = 0.02054838
#
# Stress axis : x y z
#
# Youngs Moduli (GPa) = 105.44455 76.75942 65.72265
#
# Poissons Ratio (x) = 0.43104 0.00134
# Poissons Ratio (y) = 0.59213 0.19410
# Poissons Ratio (z) = 0.00214 0.22670
#
# Static dielectric constant tensor:
#      x y z
#    x 1.715890 0.000000 0.000280 
#    y 0.000000 1.728990 0.000000 
#    z 0.000280 0.000000 1.804950 
# 
# From -- ./inp_files/30689.got.cif
#   From: 2010.05.17/outbox.cif.g08.bks.cpg/sg15_16_cif.got.tgz:30689.got - 2010.06.03 18:47:42.
