data_PCOD9294794
_publ_section_title
;
Structure prediction by ZEFSAII (Michael W. Deem and Ramdas Pophale) SiO2 
 PCOD9294794
Probable space group: C 2/C
;
_chemical_formula_sum "Si O2"
_cell_formula_units_Z 48
_cell_length_a 11.053439
_cell_length_b 12.043965
_cell_length_c 20.191919
_cell_angle_alpha 90.000000
_cell_angle_beta 49.900612
_cell_angle_gamma 90.000000
_cell_volume 2056.199348
_symmetry_space_group_name_H-M "C 2/C"
_symmetry_group_IT_number 15
_symmetry_cell_setting 'monoclinic'
loop_
_space_group_symop_operation_xyz
x,y,z
-x,y,1/2-z
-x,-y,-z
x,-y,1/2+z
1/2+x,1/2+y,z
1/2-x,1/2+y,1/2-z
1/2-x,1/2-y,-z
1/2+x,1/2-y,1/2+z
loop_
_atom_site_type_symbol
_atom_site_label
_atom_site_fract_x
_atom_site_fract_y
_atom_site_fract_z
Si Si1 0.818584 0.942603 0.368534
Si Si2 0.734923 0.204366 0.080606
Si Si3 0.634319 0.914614 0.029579
Si Si4 0.107956 0.943575 0.792965
Si Si5 0.458000 0.974902 0.696711
Si Si6 0.450476 0.671579 0.461311
O O1 0.680174 0.989749 0.462683
O O2 0.844111 0.031852 0.300423
O O3 0.987397 0.953567 0.347523
O O4 0.790142 0.814100 0.364853
O O5 0.584031 0.124397 0.141670
O O6 0.899839 0.148126 0.045005
O O7 0.750000 0.250000 0.000000
O O8 0.603169 0.797241 0.006993
O O9 0.484185 0.946172 0.125472
O O10 0.789795 0.899663 0.021393
O O11 0.278215 0.938790 0.765994
O O12 0.009914 0.845451 0.863674
O O13 0.500000 0.034508 0.750000
#
# Coordination Sequence:
#
# PCOD9294794 Si02
#       6
#     8   8   8   8   8   8
#     4  10  23  44  70  95 126 180 220 270 328 394
#     4  12  25  41  68  99 133 173 221 272 332 394
#     4  10  23  45  68  94 131 176 223 267 327 396
#     4  10  23  41  66  94 131 170 225 272 322 388
#     4  12  25  41  63  99 136 170 216 273 333 388
#     4  10  23  45  66  96 134 173 222 270 325 397
#
# _framework density 23.344041000000001
#
# number of rings (size 3 to 8) (size 9 to 14) (size 15 to 20)
#    0.000    1.333    3.333    1.000    4.667    4.667 
#    9.000    0.000    0.000    0.000    0.000    0.000 
#    0.000    0.000    0.000    0.000    0.000    0.000 
#
# Total GULP energy -133847.960587 kJ/mol
# GULP energy per Si atom -5576.998358 kJ/mol
# Density = 2.329091 g / cm^3
# Si number density = 23.344041 Si / 1000 Ang^3
#
#
#
# Elastic Constant Matrix: (Units=GPa)
#
#
# Indices 1 2 3 4 5 6 
#
# 1 98.6574 -4.2407 1.2546 0.0000 -27.1511 0.0000
# 2 -4.2407 50.9037 -12.5120 0.0000 1.5902 0.0000
# 3 1.2546 -12.5120 81.0332 0.0000 -2.6005 0.0000
# 4 0.0000 0.0000 0.0000 30.6330 0.0000 -1.3743
# 5 -27.1511 1.5902 -2.6005 0.0000 46.5504 0.0000
# 6 0.0000 0.0000 0.0000 -1.3743 0.0000 22.3669
#
#
#
# Elastic Compliance Matrix: (Units=1/GPa)
#
#
# Indices 1 2 3 4 5 6 
#
# 1 0.012108 0.000830 0.000167 0.000000 0.007043 0.000000
# 2 0.000830 0.020489 0.003150 0.000000 -0.000040 0.000000
# 3 0.000167 0.003150 0.012847 0.000000 0.000707 0.000000
# 4 0.000000 0.000000 0.000000 0.032735 0.000000 0.002011
# 5 0.007043 -0.000040 0.000707 0.000000 0.025631 0.000000
# 6 0.000000 0.000000 0.000000 0.002011 0.000000 0.044832
#
#
# Mechanical properties :
#
#
# Convention : Reuss Voigt Hill
#
# Bulk Modulus (GPa) = 18.60944 22.17757 20.39350
# Shear Modulus (GPa) = 31.59300 36.31623 33.95461
#
# Velocity S-wave (km/s) = 3.68280 3.94851 3.81797
# Velocity P-wave (km/s) = 5.10619 5.50532 5.30951
#
# Compressibility (1/GPa) = 0.05373617
#
# Stress axis : x y z
#
# Youngs Moduli (GPa) = 82.59053 48.80556 77.83887
#
# Poissons Ratio (x) = -0.04049 -0.01297
# Poissons Ratio (y) = -0.06852 -0.24516
# Poissons Ratio (z) = -0.01376 -0.15372
#
# Static dielectric constant tensor:
#      x y z
#    x 2.042090 0.000000 0.051740 
#    y 0.000000 1.828620 0.000000 
#    z 0.051740 0.000000 1.859470 
# 
# From -- ./inp_files/237430.got.cif
#   From: 2010.05.17/outbox.cif.g08.bks.cpg/sg15_119_cif.got.tgz:237430.got - 2010.06.03 18:47:42.
