data_PCOD9294615
_publ_section_title
;
Structure prediction by ZEFSAII (Michael W. Deem and Ramdas Pophale) SiO2 
 PCOD9294615
Probable space group: C 2/C
;
_chemical_formula_sum "Si O2"
_cell_formula_units_Z 56
_cell_length_a 21.194593
_cell_length_b 11.314003
_cell_length_c 12.033084
_cell_angle_alpha 90.000000
_cell_angle_beta 78.320849
_cell_angle_gamma 90.000000
_cell_volume 2825.742202
_symmetry_space_group_name_H-M "C 2/C"
_symmetry_group_IT_number 15
_symmetry_cell_setting 'monoclinic'
loop_
_space_group_symop_operation_xyz
x,y,z
-x,y,1/2-z
-x,-y,-z
x,-y,1/2+z
1/2+x,1/2+y,z
1/2-x,1/2+y,1/2-z
1/2-x,1/2-y,-z
1/2+x,1/2-y,1/2+z
loop_
_atom_site_type_symbol
_atom_site_label
_atom_site_fract_x
_atom_site_fract_y
_atom_site_fract_z
Si Si1 0.000000 0.199280 0.250000
Si Si2 0.539913 0.385495 0.513741
Si Si3 0.930931 0.277673 0.960018
Si Si4 0.294269 0.241570 0.805597
Si Si5 0.500000 0.093948 0.250000
Si Si6 0.410032 0.102270 0.680046
Si Si7 0.186075 0.889635 0.475884
Si Si8 0.703064 0.337969 0.947462
O O1 0.037333 0.124491 0.147237
O O2 0.050076 0.283268 0.293721
O O3 0.500000 0.500000 0.500000
O O4 0.498192 0.278550 0.478404
O O5 0.613642 0.391698 0.454492
O O6 0.949776 0.327470 0.835206
O O7 0.907748 0.384160 0.048516
O O8 0.871043 0.188849 0.989855
O O9 0.342368 0.129862 0.763934
O O10 0.228476 0.187322 0.876025
O O11 0.290868 0.308182 0.687241
O O12 0.314758 0.327224 0.901406
O O13 0.546314 0.008744 0.305265
O O14 0.213431 0.023465 0.469188
O O15 0.750000 0.250000 0.000000
#
# Coordination Sequence:
#
# PCOD9294615 Si02
#       8
#     4   8   8   8   4   8   8   8
#     4   9  18  35  62  84 122 163 202 255 312 376
#     4  11  21  39  64  96 126 162 214 266 321 391
#     4  10  23  41  60  98 128 169 219 265 335 392
#     4  10  24  46  68  98 128 180 232 270 341 404
#     4  11  22  37  62  96 132 167 210 275 326 380
#     4   9  19  40  63  84 127 171 211 259 321 392
#     4  11  24  44  72  98 131 180 229 276 336 408
#     4  11  26  46  67  97 137 174 223 285 341 396
#
# _framework density 19.817802
#
# number of rings (size 3 to 8) (size 9 to 14) (size 15 to 20)
#    0.000    1.714    2.857    0.429    4.000    1.714 
#    0.000    0.000    0.000    0.000    0.000    0.000 
#    0.000    0.000    0.000    0.000    0.000    0.000 
#
# Total GULP energy -156036.076962 kJ/mol
# GULP energy per Si atom -5572.717034 kJ/mol
# Density = 1.977270 g / cm^3
# Si number density = 19.817802 Si / 1000 Ang^3
#
#
#
# Elastic Constant Matrix: (Units=GPa)
#
#
# Indices 1 2 3 4 5 6 
#
# 1 101.6948 22.3216 22.7707 0.0000 -23.3204 0.0000
# 2 22.3216 69.3097 30.5072 0.0000 -9.3543 0.0000
# 3 22.7707 30.5072 97.8521 0.0000 -21.8978 0.0000
# 4 0.0000 0.0000 0.0000 -5.6141 0.0000 -24.4979
# 5 -23.3204 -9.3543 -21.8978 0.0000 27.1669 0.0000
# 6 0.0000 0.0000 0.0000 -24.4979 0.0000 -13.5322
#
#
#
# Elastic Compliance Matrix: (Units=1/GPa)
#
#
# Indices 1 2 3 4 5 6 
#
# 1 0.012727 -0.002813 0.000175 0.000000 0.010098 0.000000
# 2 -0.002813 0.017425 -0.004851 0.000000 -0.000325 0.000000
# 3 0.000175 -0.004851 0.013849 0.000000 0.009643 0.000000
# 4 0.000000 0.000000 0.000000 0.025816 0.000000 -0.046736
# 5 0.010098 -0.000325 0.009643 0.000000 0.053138 0.000000
# 6 0.000000 0.000000 0.000000 -0.046736 0.000000 0.010710
#
#
# Mechanical properties :
#
#
# Convention : Reuss Voigt Hill
#
# Bulk Modulus (GPa) = 34.45430 46.67286 40.56358
# Shear Modulus (GPa) = 31.58191 14.48792 23.03491
#
# Velocity S-wave (km/s) = 3.99634 2.70674 3.41300
# Velocity P-wave (km/s) = 6.22234 5.77674 6.00368
#
# Compressibility (1/GPa) = 0.02902395
#
# Stress axis : x y z
#
# Youngs Moduli (GPa) = 78.57195 57.38805 72.20733
#
# Poissons Ratio (x) = 0.16144 -0.01264
# Poissons Ratio (y) = 0.22103 0.35026
# Poissons Ratio (z) = -0.01375 0.27837
#
# Static dielectric constant tensor:
#      x y z
#    x 10.749190 0.000000 5.068890 
#    y 0.000000 1.710620 0.000000 
#    z 5.068890 0.000000 4.556910 
# 
# From -- ./inp_files/111163.got.cif
#   From: 2010.05.17/outbox.cif.g08.bks.cpg/sg15_56_cif.got.tgz:111163.got - 2010.06.03 18:47:42.
