data_PCOD9294540
_publ_section_title
;
Structure prediction by ZEFSAII (Michael W. Deem and Ramdas Pophale) SiO2 
 PCOD9294540
Probable space group: C 2/C
;
_chemical_formula_sum "Si O2"
_cell_formula_units_Z 32
_cell_length_a 9.957643
_cell_length_b 14.546182
_cell_length_c 9.687948
_cell_angle_alpha 90.000000
_cell_angle_beta 107.868290
_cell_angle_gamma 90.000000
_cell_volume 1335.570468
_symmetry_space_group_name_H-M "C 2/C"
_symmetry_group_IT_number 15
_symmetry_cell_setting 'monoclinic'
loop_
_space_group_symop_operation_xyz
x,y,z
-x,y,1/2-z
-x,-y,-z
x,-y,1/2+z
1/2+x,1/2+y,z
1/2-x,1/2+y,1/2-z
1/2-x,1/2-y,-z
1/2+x,1/2-y,1/2+z
loop_
_atom_site_type_symbol
_atom_site_label
_atom_site_fract_x
_atom_site_fract_y
_atom_site_fract_z
Si Si1 0.846575 0.472747 0.253288
Si Si2 0.830891 0.970982 0.044962
Si Si3 0.263773 0.762920 0.168414
Si Si4 0.500000 0.378096 0.750000
Si Si5 0.500000 0.311871 0.250000
O O1 0.805326 0.486612 0.398780
O O2 0.822258 0.364930 0.214629
O O3 0.000000 0.500345 0.250000
O O4 0.728449 0.523994 0.126058
O O5 0.909899 0.879751 0.121932
O O6 0.933992 0.055932 0.112408
O O7 0.376090 0.689834 0.258230
O O8 0.112887 0.755840 0.196265
O O9 0.250000 0.750000 0.000000
#
# Coordination Sequence:
#
# PCOD9294540 Si02
#       5
#     8   8   8   4   4
#     4  11  22  41  65  97 130 175 219 273 325 392
#     4  10  23  40  68  91 134 173 222 264 330 395
#     4  11  22  41  68  93 138 167 220 269 337 384
#     4  11  22  40  66  97 124 182 210 273 326 394
#     4   9  24  42  64 101 128 176 216 271 328 394
#
# _framework density 23.959799
#
# number of rings (size 3 to 8) (size 9 to 14) (size 15 to 20)
#    0.000    1.500    3.750    0.750    3.500    3.000 
#    2.250    1.250    0.000    0.000    0.000    0.000 
#    0.000    0.000    0.000    0.000    0.000    0.000 
#
# Total GULP energy -89690.625744 kJ/mol
# GULP energy per Si atom -5605.664109 kJ/mol
# Density = 2.390527 g / cm^3
# Si number density = 23.959799 Si / 1000 Ang^3
#
#
#
# Elastic Constant Matrix: (Units=GPa)
#
#
# Indices 1 2 3 4 5 6 
#
# 1 219.0248 53.6644 10.1852 0.0000 0.1719 0.0000
# 2 53.6644 86.1430 27.5478 0.0000 0.4866 0.0000
# 3 10.1852 27.5478 50.7001 0.0000 -3.7110 0.0000
# 4 0.0000 0.0000 0.0000 12.7795 0.0000 -4.7100
# 5 0.1719 0.4866 -3.7110 0.0000 36.9323 0.0000
# 6 0.0000 0.0000 0.0000 -4.7100 0.0000 46.6849
#
#
#
# Elastic Compliance Matrix: (Units=1/GPa)
#
#
# Indices 1 2 3 4 5 6 
#
# 1 0.005423 -0.003671 0.000914 0.000000 0.000115 0.000000
# 2 -0.003671 0.016569 -0.008341 0.000000 -0.001039 0.000000
# 3 0.000914 -0.008341 0.024259 0.000000 0.002543 0.000000
# 4 0.000000 0.000000 0.000000 0.081272 0.000000 0.008199
# 5 0.000115 -0.001039 0.002543 0.000000 0.027345 0.000000
# 6 0.000000 0.000000 0.000000 0.008199 0.000000 0.022247
#
#
# Mechanical properties :
#
#
# Convention : Reuss Voigt Hill
#
# Bulk Modulus (GPa) = 41.57490 59.85139 50.71314
# Shear Modulus (GPa) = 24.11621 36.91071 30.51346
#
# Velocity S-wave (km/s) = 3.17602 3.92921 3.57252
# Velocity P-wave (km/s) = 5.55330 6.75419 6.18297
#
# Compressibility (1/GPa) = 0.02405297
#
# Stress axis : x y z
#
# Youngs Moduli (GPa) = 184.41536 60.35449 41.22250
#
# Poissons Ratio (x) = 0.22156 -0.03766
# Poissons Ratio (y) = 0.67697 0.34385
# Poissons Ratio (z) = -0.16849 0.50343
#
# Static dielectric constant tensor:
#      x y z
#    x 1.961910 0.000000 -0.029000 
#    y 0.000000 1.878060 0.000000 
#    z -0.029000 0.000000 1.867130 
# 
# From -- ./inp_files/75703.got.cif
#   From: 2010.05.17/outbox.cif.g08.bks.cpg/sg15_38_cif.got.tgz:75703.got - 2010.06.03 18:47:42.
