data_PCOD9294814
_publ_section_title
;
Structure prediction by ZEFSAII (Michael W. Deem and Ramdas Pophale) SiO2 
 PCOD9294814
Probable space group: C 2/C
;
_chemical_formula_sum "Si O2"
_cell_formula_units_Z 44
_cell_length_a 12.109452
_cell_length_b 15.095704
_cell_length_c 11.505120
_cell_angle_alpha 90.000000
_cell_angle_beta 76.192872
_cell_angle_gamma 90.000000
_cell_volume 2042.372830
_symmetry_space_group_name_H-M "C 2/C"
_symmetry_group_IT_number 15
_symmetry_cell_setting 'monoclinic'
loop_
_space_group_symop_operation_xyz
x,y,z
-x,y,1/2-z
-x,-y,-z
x,-y,1/2+z
1/2+x,1/2+y,z
1/2-x,1/2+y,1/2-z
1/2-x,1/2-y,-z
1/2+x,1/2-y,1/2+z
loop_
_atom_site_type_symbol
_atom_site_label
_atom_site_fract_x
_atom_site_fract_y
_atom_site_fract_z
Si Si1 0.156997 0.315910 0.805964
Si Si2 0.517204 0.122155 0.557486
Si Si3 0.086411 0.798367 0.815492
Si Si4 0.398614 0.563223 0.985770
Si Si5 0.143034 0.456674 0.596575
Si Si6 0.500000 0.338226 0.250000
O O1 0.289495 0.291483 0.771489
O O2 0.137625 0.389842 0.708365
O O3 0.083064 0.228726 0.797439
O O4 0.113953 0.353153 0.938927
O O5 0.472156 0.206484 0.636613
O O6 0.413077 0.089184 0.502529
O O7 0.570202 0.045946 0.624294
O O8 0.000000 0.846872 0.750000
O O9 0.100487 0.852187 0.930020
O O10 0.425020 0.600177 0.851933
O O11 0.500000 0.500000 0.000000
O O12 0.274168 0.522302 0.035157
#
# Coordination Sequence:
#
# PCOD9294814 Si02
#       6
#     8   8   8   8   8   4
#     4  11  22  43  71  97 137 181 228 281 344 422
#     4  11  22  42  71 100 134 176 226 291 342 405
#     4  11  26  43  65  99 139 174 229 281 342 412
#     4  11  26  42  65  96 136 183 227 282 342 413
#     4  10  23  41  67 100 136 170 232 280 347 402
#     4  12  22  44  72  92 130 184 230 268 352 414
#
# _framework density 21.543569999999999
#
# number of rings (size 3 to 8) (size 9 to 14) (size 15 to 20)
#    0.000    1.091    3.636    1.091    3.818    9.455 
#    0.000    0.000    0.000    0.000    0.000    0.000 
#    0.000    0.000    0.000    0.000    0.000    0.000 
#
# Total GULP energy -123077.590053 kJ/mol
# GULP energy per Si atom -5594.435912 kJ/mol
# Density = 2.149454 g / cm^3
# Si number density = 21.543570 Si / 1000 Ang^3
#
#
#
# Elastic Constant Matrix: (Units=GPa)
#
#
# Indices 1 2 3 4 5 6 
#
# 1 118.3204 25.4004 54.6718 0.0000 -24.9126 0.0000
# 2 25.4004 73.3879 27.5688 0.0000 -2.3078 0.0000
# 3 54.6718 27.5688 84.0929 0.0000 -16.4814 0.0000
# 4 0.0000 0.0000 0.0000 11.5517 0.0000 -9.5449
# 5 -24.9126 -2.3078 -16.4814 0.0000 24.1909 0.0000
# 6 0.0000 0.0000 0.0000 -9.5449 0.0000 6.5968
#
#
#
# Elastic Compliance Matrix: (Units=1/GPa)
#
#
# Indices 1 2 3 4 5 6 
#
# 1 0.013942 -0.002089 -0.006468 0.000000 0.009752 0.000000
# 2 -0.002089 0.015964 -0.004615 0.000000 -0.003773 0.000000
# 3 -0.006468 -0.004615 0.018717 0.000000 0.005651 0.000000
# 4 0.000000 0.000000 0.000000 -0.442718 0.000000 -0.640566
# 5 0.009752 -0.003773 0.005651 0.000000 0.054871 0.000000
# 6 0.000000 0.000000 0.000000 -0.640566 0.000000 -0.775244
#
#
# Mechanical properties :
#
#
# Convention : Reuss Voigt Hill
#
# Bulk Modulus (GPa) = 44.88436 54.56479 49.72458
# Shear Modulus (GPa) = -4.62664 19.67856 7.52596
#
# Velocity S-wave (km/s) = -1.46705 3.02558 1.87108
# Velocity P-wave (km/s) = 4.24380 6.13092 5.27247
#
# Compressibility (1/GPa) = 0.02227947
#
# Stress axis : x y z
#
# Youngs Moduli (GPa) = 71.72531 62.63998 53.42678
#
# Poissons Ratio (x) = 0.13086 0.34557
# Poissons Ratio (y) = 0.14984 0.24656
# Poissons Ratio (z) = 0.46393 0.28908
#
# Static dielectric constant tensor:
#      x y z
#    x 1.773280 0.000000 0.020250 
#    y 0.000000 1.825960 0.000000 
#    z 0.020250 0.000000 1.794190 
# 
# From -- ./inp_files/86046.got.cif
#   From: 2010.05.17/outbox.cif.g08.bks.cpg/sg15_44_cif.got.tgz:86046.got - 2010.06.03 18:47:42.
