data_PCOD9294176
_publ_section_title
;
Structure prediction by ZEFSAII (Michael W. Deem and Ramdas Pophale) SiO2 
 PCOD9294176
Probable space group: C 2/C
;
_chemical_formula_sum "Si O2"
_cell_formula_units_Z 60
_cell_length_a 22.027397
_cell_length_b 20.175841
_cell_length_c 10.823207
_cell_angle_alpha 90.000000
_cell_angle_beta 146.394575
_cell_angle_gamma 90.000000
_cell_volume 2662.227705
_symmetry_space_group_name_H-M "C 2/C"
_symmetry_group_IT_number 15
_symmetry_cell_setting 'monoclinic'
loop_
_space_group_symop_operation_xyz
x,y,z
-x,y,1/2-z
-x,-y,-z
x,-y,1/2+z
1/2+x,1/2+y,z
1/2-x,1/2+y,1/2-z
1/2-x,1/2-y,-z
1/2+x,1/2-y,1/2+z
loop_
_atom_site_type_symbol
_atom_site_label
_atom_site_fract_x
_atom_site_fract_y
_atom_site_fract_z
Si Si1 0.000000 0.613165 0.750000
Si Si2 0.130545 0.330979 0.812796
Si Si3 0.612430 0.037127 0.162598
Si Si4 0.106295 0.162444 0.167387
Si Si5 0.091867 0.169794 0.510142
Si Si6 0.230956 0.914339 0.081511
Si Si7 0.401321 0.191497 0.793095
Si Si8 0.284030 0.273039 0.875236
O O1 0.080992 0.658234 0.808266
O O2 0.920685 0.573728 0.521528
O O3 0.128623 0.410259 0.801383
O O4 0.237829 0.312838 0.914149
O O5 0.020574 0.308598 0.557428
O O6 0.137776 0.286782 0.946895
O O7 0.711700 0.985494 0.320297
O O8 0.500000 0.000000 0.000000
O O9 0.163257 0.103810 0.341601
O O10 0.138503 0.233793 0.280750
O O11 0.153792 0.176895 0.111613
O O12 0.976215 0.158755 0.978422
O O13 0.155806 0.104620 0.570939
O O14 0.176242 0.231073 0.651341
O O15 0.000000 0.182141 0.250000
O O16 0.325882 0.858777 0.239885
#
# Coordination Sequence:
#
# PCOD9294176 Si02
#       8
#     4   8   8   8   8   8   8   8
#     4  10  24  36  70  98 142 174 222 292 344 426
#     4  10  24  41  66 100 145 177 223 296 355 427
#     4  11  23  44  65 101 141 186 227 278 358 428
#     4  11  24  38  70 100 136 179 239 293 346 425
#     4  10  23  39  62  97 135 172 234 293 340 419
#     4  11  23  39  64 101 135 186 226 284 354 414
#     4  11  21  39  65 102 134 174 223 287 353 414
#     4  11  23  42  66 102 131 185 229 291 367 401
#
# _framework density 22.537517000000001
#
# number of rings (size 3 to 8) (size 9 to 14) (size 15 to 20)
#    0.000    1.333    5.333    0.400    8.400    1.600 
#    0.000    0.000    0.000    8.800    0.000    0.000 
#    0.000    0.000    0.000    0.000    0.000    0.000 
#
# Total GULP energy -167480.450228 kJ/mol
# GULP energy per Si atom -5582.681674 kJ/mol
# Density = 2.248622 g / cm^3
# Si number density = 22.537517 Si / 1000 Ang^3
#
#
#
# Elastic Constant Matrix: (Units=GPa)
#
#
# Indices 1 2 3 4 5 6 
#
# 1 93.8248 -15.5276 3.2537 0.0000 15.7440 0.0000
# 2 -15.5276 71.5864 12.8582 0.0000 1.4951 0.0000
# 3 3.2537 12.8582 70.4193 0.0000 4.3687 0.0000
# 4 0.0000 0.0000 0.0000 40.1215 0.0000 3.4676
# 5 15.7440 1.4951 4.3687 0.0000 23.2042 0.0000
# 6 0.0000 0.0000 0.0000 3.4676 0.0000 26.3864
#
#
#
# Elastic Compliance Matrix: (Units=1/GPa)
#
#
# Indices 1 2 3 4 5 6 
#
# 1 0.012632 0.003028 -0.000600 0.000000 -0.008653 0.000000
# 2 0.003028 0.015173 -0.002755 0.000000 -0.002514 0.000000
# 3 -0.000600 -0.002755 0.014869 0.000000 -0.002215 0.000000
# 4 0.000000 0.000000 0.000000 0.025211 0.000000 -0.003313
# 5 -0.008653 -0.002514 -0.002215 0.000000 0.049546 0.000000
# 6 0.000000 0.000000 0.000000 -0.003313 0.000000 0.038334
#
#
# Mechanical properties :
#
#
# Convention : Reuss Voigt Hill
#
# Bulk Modulus (GPa) = 23.79683 26.33323 25.06503
# Shear Modulus (GPa) = 29.33868 33.62550 31.48209
#
# Velocity S-wave (km/s) = 3.61192 3.86680 3.74153
# Velocity P-wave (km/s) = 5.28926 5.62546 5.45995
#
# Compressibility (1/GPa) = 0.04202240
#
# Stress axis : x y z
#
# Youngs Moduli (GPa) = 79.16299 65.90522 67.25522
#
# Poissons Ratio (x) = -0.19959 0.04034
# Poissons Ratio (y) = -0.23974 0.18526
# Poissons Ratio (z) = 0.04748 0.18154
#
# Static dielectric constant tensor:
#      x y z
#    x 1.988020 0.000000 -0.027720 
#    y 0.000000 1.840970 0.000000 
#    z -0.027720 0.000000 1.890980 
# 
# From -- ./inp_files/119967.got.cif
#   From: 2010.05.17/outbox.cif.g08.bks.cpg/sg15_60_cif.got.tgz:119967.got - 2010.06.03 18:47:42.
