data_PCOD9294076
_publ_section_title
;
Structure prediction by ZEFSAII (Michael W. Deem and Ramdas Pophale) SiO2 
 PCOD9294076
Probable space group: C 2/C
;
_chemical_formula_sum "Si O2"
_cell_formula_units_Z 40
_cell_length_a 9.773292
_cell_length_b 20.924157
_cell_length_c 9.025234
_cell_angle_alpha 90.000000
_cell_angle_beta 100.737741
_cell_angle_gamma 90.000000
_cell_volume 1813.324710
_symmetry_space_group_name_H-M "C 2/C"
_symmetry_group_IT_number 15
_symmetry_cell_setting 'monoclinic'
loop_
_space_group_symop_operation_xyz
x,y,z
-x,y,1/2-z
-x,-y,-z
x,-y,1/2+z
1/2+x,1/2+y,z
1/2-x,1/2+y,1/2-z
1/2-x,1/2-y,-z
1/2+x,1/2-y,1/2+z
loop_
_atom_site_type_symbol
_atom_site_label
_atom_site_fract_x
_atom_site_fract_y
_atom_site_fract_z
Si Si1 0.000000 0.627066 0.750000
Si Si2 0.871969 0.707026 0.456421
Si Si3 0.218140 0.002120 0.505734
Si Si4 0.500000 0.704365 0.750000
Si Si5 0.848800 0.418859 0.789990
Si Si6 0.691691 0.587616 0.746102
O O1 0.950455 0.670023 0.602902
O O2 0.860818 0.589153 0.770764
O O3 0.750000 0.750000 0.500000
O O4 0.979498 0.750536 0.387010
O O5 0.810438 0.652520 0.334216
O O6 0.339283 0.037662 0.435846
O O7 0.145300 0.060420 0.577180
O O8 0.259733 0.953069 0.643834
O O9 0.145793 0.960910 0.364638
O O10 0.631630 0.656613 0.772140
O O11 0.000000 0.415461 0.750000
#
# Coordination Sequence:
#
# PCOD9294076 Si02
#       6
#     4   8   8   4   8   8
#     4  12  24  42  67 101 136 172 230 278 342 388
#     4  12  25  44  66  98 139 182 227 279 330 407
#     4  10  23  38  65  99 135 165 224 279 340 401
#     4  12  26  48  67  93 142 184 230 272 336 408
#     4  11  20  36  61  96 129 171 214 279 338 386
#     4  11  25  42  68 101 132 181 219 285 340 400
#
# _framework density 22.058928000000002
#
# number of rings (size 3 to 8) (size 9 to 14) (size 15 to 20)
#    0.000    0.800    5.000    1.800    5.600    3.200 
#    0.000    0.000    0.000    0.000    0.000    0.000 
#    0.000    0.000    0.000    0.000    0.000    0.000 
#
# Total GULP energy -111696.327825 kJ/mol
# GULP energy per Si atom -5584.816391 kJ/mol
# Density = 2.200872 g / cm^3
# Si number density = 22.058928 Si / 1000 Ang^3
#
#
#
# Elastic Constant Matrix: (Units=GPa)
#
#
# Indices 1 2 3 4 5 6 
#
# 1 103.2010 31.5619 32.6228 0.0000 -32.5598 0.0000
# 2 31.5619 132.5528 58.2714 0.0000 -26.7349 0.0000
# 3 32.6228 58.2714 132.5486 0.0000 -35.6282 0.0000
# 4 0.0000 0.0000 0.0000 136.6548 0.0000 -240.8381
# 5 -32.5598 -26.7349 -35.6282 0.0000 28.4881 0.0000
# 6 0.0000 0.0000 0.0000 -240.8381 0.0000 602.9285
#
#
#
# Elastic Compliance Matrix: (Units=1/GPa)
#
#
# Indices 1 2 3 4 5 6 
#
# 1 0.015353 -0.000503 0.001555 0.000000 0.019020 0.000000
# 2 -0.000503 0.009971 -0.002861 0.000000 0.005205 0.000000
# 3 0.001555 -0.002861 0.012315 0.000000 0.014494 0.000000
# 4 0.000000 0.000000 0.000000 0.024720 0.000000 0.009874
# 5 0.019020 0.005205 0.014494 0.000000 0.079852 0.000000
# 6 0.000000 0.000000 0.000000 0.009874 0.000000 0.005603
#
#
# Mechanical properties :
#
#
# Convention : Reuss Voigt Hill
#
# Bulk Modulus (GPa) = 29.39303 68.13495 48.76399
# Shear Modulus (GPa) = 30.71757 170.00405 100.36081
#
# Velocity S-wave (km/s) = 3.73570 8.78837 6.75244
# Velocity P-wave (km/s) = 5.65340 11.57304 9.10759
#
# Compressibility (1/GPa) = 0.03402168
#
# Stress axis : x y z
#
# Youngs Moduli (GPa) = 65.13458 100.28712 81.19914
#
# Poissons Ratio (x) = 0.05045 -0.12625
# Poissons Ratio (y) = 0.03277 0.23229
# Poissons Ratio (z) = -0.10128 0.28690
#
# Static dielectric constant tensor:
#      x y z
#    x 1.839030 0.000000 0.001220 
#    y 0.000000 1.831690 0.000000 
#    z 0.001220 0.000000 1.795220 
# 
# From -- ./inp_files/29292.got.cif
#   From: 2010.05.17/outbox.cif.g08.bks.cpg/sg15_15_cif.got.tgz:29292.got - 2010.06.03 18:47:42.
