data_PCOD9294915
_publ_section_title
;
Structure prediction by ZEFSAII (Michael W. Deem and Ramdas Pophale) SiO2 
 PCOD9294915
Probable space group: C 2/C
;
_chemical_formula_sum "Si O2"
_cell_formula_units_Z 52
_cell_length_a 17.603461
_cell_length_b 10.042008
_cell_length_c 16.533450
_cell_angle_alpha 90.000000
_cell_angle_beta 44.637597
_cell_angle_gamma 90.000000
_cell_volume 2053.537785
_symmetry_space_group_name_H-M "C 2/C"
_symmetry_group_IT_number 15
_symmetry_cell_setting 'monoclinic'
loop_
_space_group_symop_operation_xyz
x,y,z
-x,y,1/2-z
-x,-y,-z
x,-y,1/2+z
1/2+x,1/2+y,z
1/2-x,1/2+y,1/2-z
1/2-x,1/2-y,-z
1/2+x,1/2-y,1/2+z
loop_
_atom_site_type_symbol
_atom_site_label
_atom_site_fract_x
_atom_site_fract_y
_atom_site_fract_z
Si Si1 0.231584 0.584554 0.625712
Si Si2 0.577604 0.468250 0.291757
Si Si3 0.452646 0.753284 0.186748
Si Si4 0.893248 0.510535 0.428227
Si Si5 0.942725 0.193914 0.543029
Si Si6 0.182051 0.538428 0.335903
Si Si7 0.000000 0.743875 0.250000
O O1 0.205729 0.512872 0.560474
O O2 0.353603 0.620367 0.554147
O O3 0.179796 0.515067 0.745330
O O4 0.159574 0.718329 0.683570
O O5 0.517012 0.602730 0.314650
O O6 0.522485 0.398582 0.410476
O O7 0.693228 0.518637 0.235190
O O8 0.585736 0.349458 0.221111
O O9 0.534098 0.876476 0.139712
O O10 0.456483 0.743524 0.086111
O O11 0.872505 0.518750 0.539944
O O12 0.951723 0.643382 0.352720
O O13 0.871672 0.316852 0.629115
#
# Coordination Sequence:
#
# PCOD9294915 Si02
#       7
#     8   8   8   8   8   8   4
#     4  11  22  43  69  95 138 172 231 282 327 415
#     4  11  25  43  64 105 139 175 229 290 348 400
#     4  11  23  42  70  97 134 179 226 282 344 409
#     4  11  25  45  68 101 131 188 233 274 345 416
#     4  10  23  41  69 102 131 181 228 282 347 410
#     4  10  24  44  71  97 135 186 228 279 347 409
#     4  12  26  40  66  94 144 172 230 294 336 406
#
# _framework density 25.322154999999999
#
# number of rings (size 3 to 8) (size 9 to 14) (size 15 to 20)
#    0.000    1.231    3.077    1.385    4.308    5.538 
#    0.000    0.000    0.000    0.000    0.000    0.000 
#    0.000    0.000    0.000    0.000    0.000    0.000 
#
# Total GULP energy -145137.748323 kJ/mol
# GULP energy per Si atom -5582.221089 kJ/mol
# Density = 2.526452 g / cm^3
# Si number density = 25.322155 Si / 1000 Ang^3
#
#
#
# Elastic Constant Matrix: (Units=GPa)
#
#
# Indices 1 2 3 4 5 6 
#
# 1 87.6342 36.4831 16.6638 0.0000 30.1219 0.0000
# 2 36.4831 158.4876 29.3225 0.0000 18.8351 0.0000
# 3 16.6638 29.3225 81.5657 0.0000 15.0653 0.0000
# 4 0.0000 0.0000 0.0000 29.8054 0.0000 9.9282
# 5 30.1219 18.8351 15.0653 0.0000 28.9333 0.0000
# 6 0.0000 0.0000 0.0000 9.9282 0.0000 3.4320
#
#
#
# Elastic Compliance Matrix: (Units=1/GPa)
#
#
# Indices 1 2 3 4 5 6 
#
# 1 0.018415 -0.002169 0.000329 0.000000 -0.017931 0.000000
# 2 -0.002169 0.007345 -0.001915 0.000000 -0.001526 0.000000
# 3 0.000329 -0.001915 0.014067 0.000000 -0.006421 0.000000
# 4 0.000000 0.000000 0.000000 0.922165 0.000000 -2.667704
# 5 -0.017931 -0.001526 -0.006421 0.000000 0.057566 0.000000
# 6 0.000000 0.000000 0.000000 -2.667704 0.000000 8.008703
#
#
# Mechanical properties :
#
#
# Convention : Reuss Voigt Hill
#
# Bulk Modulus (GPa) = 30.94384 54.73623 42.84003
# Shear Modulus (GPa) = 0.55270 28.78200 14.66735
#
# Velocity S-wave (km/s) = 0.46770 3.37506 2.40933
# Velocity P-wave (km/s) = 3.54094 6.07049 4.96936
#
# Compressibility (1/GPa) = 0.03231661
#
# Stress axis : x y z
#
# Youngs Moduli (GPa) = 54.30485 136.15360 71.08703
#
# Poissons Ratio (x) = 0.29531 -0.02342
# Poissons Ratio (y) = 0.11779 0.13616
# Poissons Ratio (z) = -0.01789 0.26079
#
# Static dielectric constant tensor:
#      x y z
#    x 2.066110 0.000000 0.026540 
#    y 0.000000 2.038970 0.000000 
#    z 0.026540 0.000000 2.026390 
# 
# From -- ./inp_files/214239.got.cif
#   From: 2010.05.17/outbox.cif.g08.bks.cpg/sg15_108_cif.got.tgz:214239.got - 2010.06.03 18:47:42.
