data_PCOD9294527
_publ_section_title
;
Structure prediction by ZEFSAII (Michael W. Deem and Ramdas Pophale) SiO2 
 PCOD9294527
Probable space group: C 2/C
;
_chemical_formula_sum "Si O2"
_cell_formula_units_Z 44
_cell_length_a 18.574284
_cell_length_b 26.232361
_cell_length_c 13.091403
_cell_angle_alpha 90.000000
_cell_angle_beta 160.576260
_cell_angle_gamma 90.000000
_cell_volume 2121.265911
_symmetry_space_group_name_H-M "C 2/C"
_symmetry_group_IT_number 15
_symmetry_cell_setting 'monoclinic'
loop_
_space_group_symop_operation_xyz
x,y,z
-x,y,1/2-z
-x,-y,-z
x,-y,1/2+z
1/2+x,1/2+y,z
1/2-x,1/2+y,1/2-z
1/2-x,1/2-y,-z
1/2+x,1/2-y,1/2+z
loop_
_atom_site_type_symbol
_atom_site_label
_atom_site_fract_x
_atom_site_fract_y
_atom_site_fract_z
Si Si1 0.000000 0.614125 0.750000
Si Si2 0.865561 0.196058 0.171998
Si Si3 0.146509 0.472365 0.607910
Si Si4 0.500000 0.242003 0.250000
Si Si5 0.941060 0.087400 0.780320
Si Si6 0.500000 0.951625 0.750000
Si Si7 0.058637 0.807356 0.143212
O O1 0.805349 0.651835 0.524724
O O2 0.946533 0.577000 0.580148
O O3 0.000000 0.182077 0.250000
O O4 0.015931 0.207795 0.470676
O O5 0.750000 0.250000 0.000000
O O6 0.147416 0.514833 0.521790
O O7 0.000000 0.500000 0.500000
O O8 0.385254 0.457498 0.967776
O O9 0.699928 0.205116 0.496864
O O10 0.432365 0.276585 0.062334
O O11 0.685576 0.076764 0.436454
O O12 0.981853 0.132631 0.912511
O O13 0.000000 0.109652 0.750000
#
# Coordination Sequence:
#
# PCOD9294527 Si02
#       7
#     4   8   8   4   8   4   8
#     4  11  26  48  71 106 142 187 252 288 369 434
#     4  12  25  45  72 104 144 195 243 300 361 430
#     4  11  24  47  71 100 140 184 232 306 357 433
#     4  10  23  40  67  98 142 185 230 287 362 420
#     4  12  23  44  69  99 135 177 234 287 356 426
#     4  11  25  42  70  98 132 180 224 289 361 422
#     4  11  23  43  65 102 139 184 235 294 352 431
#
# _framework density 20.742329999999999
#
# number of rings (size 3 to 8) (size 9 to 14) (size 15 to 20)
#    0.000    0.727    5.455    2.182    0.000    1.455 
#    9.818    0.000    0.000    0.000    0.000    0.000 
#    0.000    0.000    0.000    0.000    0.000    0.000 
#
# Total GULP energy -122536.114913 kJ/mol
# GULP energy per Si atom -5569.823405 kJ/mol
# Density = 2.069512 g / cm^3
# Si number density = 20.742330 Si / 1000 Ang^3
#
#
#
# Elastic Constant Matrix: (Units=GPa)
#
#
# Indices 1 2 3 4 5 6 
#
# 1 103.1653 33.8040 31.7999 -0.0001 9.5847 -0.0002
# 2 33.8040 86.8998 32.5351 -0.0001 17.1158 -0.0001
# 3 31.7999 32.5351 86.6724 -0.0005 9.3100 -0.0004
# 4 -0.0001 -0.0001 -0.0005 -1.8601 -0.0002 2.0646
# 5 9.5847 17.1158 9.3100 -0.0002 44.0663 -0.0002
# 6 -0.0002 -0.0001 -0.0004 2.0646 -0.0002 1.2553
#
#
#
# Elastic Compliance Matrix: (Units=1/GPa)
#
#
# Indices 1 2 3 4 5 6 
#
# 1 0.011768 -0.003330 -0.003000 0.000000 -0.000632 0.000000
# 2 -0.003330 0.015151 -0.004002 0.000000 -0.004315 -0.000001
# 3 -0.003000 -0.004002 0.014226 0.000000 -0.000799 0.000003
# 4 0.000000 0.000000 0.000000 -0.190264 0.000000 0.312935
# 5 -0.000632 -0.004315 -0.000799 0.000000 0.024675 0.000002
# 6 0.000000 -0.000001 0.000003 0.312935 0.000002 0.281936
#
#
# Mechanical properties :
#
#
# Convention : Reuss Voigt Hill
#
# Bulk Modulus (GPa) = 48.82414 52.55729 50.69072
# Shear Modulus (GPa) = 27.02951 20.59885 23.81418
#
# Velocity S-wave (km/s) = 3.61378 3.15474 3.39203
# Velocity P-wave (km/s) = 6.40328 6.21796 6.31130
#
# Compressibility (1/GPa) = 0.02048167
#
# Stress axis : x y z
#
# Youngs Moduli (GPa) = 84.97848 66.00144 70.29197
#
# Poissons Ratio (x) = 0.21979 0.21085
# Poissons Ratio (y) = 0.28298 0.28132
# Poissons Ratio (z) = 0.25490 0.26415
#
# Static dielectric constant tensor:
#      x y z
#    x 1.791600 0.000000 0.089850 
#    y 0.000000 1.750160 0.000000 
#    z 0.089850 0.000000 1.651590 
# 
# From -- ./inp_files/108687.got.cif
#   From: 2010.05.17/outbox.cif.g08.bks.cpg/sg15_55_cif.got.tgz:108687.got - 2010.06.03 18:47:42.
