data_PCOD9294309
_publ_section_title
;
Structure prediction by ZEFSAII (Michael W. Deem and Ramdas Pophale) SiO2 
 PCOD9294309
Probable space group: C 2/C
;
_chemical_formula_sum "Si O2"
_cell_formula_units_Z 56
_cell_length_a 19.425053
_cell_length_b 14.157334
_cell_length_c 13.765703
_cell_angle_alpha 90.000000
_cell_angle_beta 44.082547
_cell_angle_gamma 90.000000
_cell_volume 2633.663909
_symmetry_space_group_name_H-M "C 2/C"
_symmetry_group_IT_number 15
_symmetry_cell_setting 'monoclinic'
loop_
_space_group_symop_operation_xyz
x,y,z
-x,y,1/2-z
-x,-y,-z
x,-y,1/2+z
1/2+x,1/2+y,z
1/2-x,1/2+y,1/2-z
1/2-x,1/2-y,-z
1/2+x,1/2-y,1/2+z
loop_
_atom_site_type_symbol
_atom_site_label
_atom_site_fract_x
_atom_site_fract_y
_atom_site_fract_z
Si Si1 0.680231 0.591195 0.470535
Si Si2 0.662371 0.589302 0.712837
Si Si3 0.147450 0.695071 0.952406
Si Si4 0.539930 0.276035 0.449182
Si Si5 0.539933 0.024702 0.112565
Si Si6 0.997962 0.053249 0.366855
Si Si7 0.637421 0.917408 0.850158
O O1 0.698682 0.575322 0.565863
O O2 0.673389 0.704360 0.470096
O O3 0.583380 0.530140 0.543841
O O4 0.763229 0.563583 0.308948
O O5 0.755382 0.635115 0.675789
O O6 0.578144 0.670441 0.813157
O O7 0.602312 0.492932 0.795390
O O8 0.088727 0.626194 0.084919
O O9 0.065722 0.723337 0.954668
O O10 0.531386 0.357373 0.538442
O O11 0.618384 0.193217 0.387158
O O12 0.500000 0.977999 0.250000
O O13 0.448460 0.044597 0.134141
O O14 0.620429 0.966835 0.970366
O O15 0.000000 0.077645 0.250000
#
# Coordination Sequence:
#
# PCOD9294309 Si02
#       7
#     8   8   8   8   8   8   8
#     4  11  22  37  62  97 128 162 208 268 332 385
#     4  11  22  38  61  95 128 165 212 266 325 386
#     4  11  23  34  64  93 125 165 210 271 325 384
#     4  11  23  40  63  94 128 170 216 267 331 385
#     4  10  23  40  60  84 122 171 213 265 319 381
#     4  10  24  42  65  94 133 173 216 267 322 393
#     4  10  23  40  58  91 126 160 219 266 318 388
#
# _framework density 21.263154
#
# number of rings (size 3 to 8) (size 9 to 14) (size 15 to 20)
#    0.000    1.429    2.857    1.714    6.000    0.571 
#    0.000    0.000    0.000    0.857    0.000    0.000 
#    0.000    0.000    0.000    0.000    0.000    0.000 
#
# Total GULP energy -156185.482867 kJ/mol
# GULP energy per Si atom -5578.052960 kJ/mol
# Density = 2.121476 g / cm^3
# Si number density = 21.263154 Si / 1000 Ang^3
#
#
#
# Elastic Constant Matrix: (Units=GPa)
#
#
# Indices 1 2 3 4 5 6 
#
# 1 57.3498 25.7002 44.3239 0.0000 -5.3338 0.0000
# 2 25.7002 87.7520 59.4566 0.0000 6.8990 0.0000
# 3 44.3239 59.4566 164.3680 0.0000 8.4683 0.0000
# 4 0.0000 0.0000 0.0000 24.8345 0.0000 -3.3741
# 5 -5.3338 6.8990 8.4683 0.0000 36.7013 0.0000
# 6 0.0000 0.0000 0.0000 -3.3741 0.0000 24.3245
#
#
#
# Elastic Compliance Matrix: (Units=1/GPa)
#
#
# Indices 1 2 3 4 5 6 
#
# 1 0.023735 -0.003775 -0.005312 0.000000 0.005385 0.000000
# 2 -0.003775 0.015789 -0.004566 0.000000 -0.002463 0.000000
# 3 -0.005312 -0.004566 0.009274 0.000000 -0.002053 0.000000
# 4 0.000000 0.000000 0.000000 0.041040 0.000000 0.005693
# 5 0.005385 -0.002463 -0.002053 0.000000 0.028966 0.000000
# 6 0.000000 0.000000 0.000000 0.005693 0.000000 0.041901
#
#
# Mechanical properties :
#
#
# Convention : Reuss Voigt Hill
#
# Bulk Modulus (GPa) = 46.53283 63.15901 54.84592
# Shear Modulus (GPa) = 25.61781 29.17132 27.39457
#
# Velocity S-wave (km/s) = 3.47479 3.70796 3.59327
# Velocity P-wave (km/s) = 6.16690 6.93541 6.56241
#
# Compressibility (1/GPa) = 0.02149020
#
# Stress axis : x y z
#
# Youngs Moduli (GPa) = 42.13150 63.33491 107.82825
#
# Poissons Ratio (x) = 0.23912 0.57281
# Poissons Ratio (y) = 0.15906 0.49238
# Poissons Ratio (z) = 0.22381 0.28921
#
# Static dielectric constant tensor:
#      x y z
#    x 1.828890 0.000000 -0.038640 
#    y 0.000000 1.768100 0.000000 
#    z -0.038640 0.000000 1.788900 
# 
# From -- ./inp_files/168441.got.cif
#   From: 2010.05.17/outbox.cif.g08.bks.cpg/sg15_85_cif.got.tgz:168441.got - 2010.06.03 18:47:42.
