data_PCOD9294813
_publ_section_title
;
Structure prediction by ZEFSAII (Michael W. Deem and Ramdas Pophale) SiO2 
 PCOD9294813
Probable space group: C 2/C
;
_chemical_formula_sum "Si O2"
_cell_formula_units_Z 56
_cell_length_a 22.337486
_cell_length_b 16.588885
_cell_length_c 8.442562
_cell_angle_alpha 90.000000
_cell_angle_beta 54.074862
_cell_angle_gamma 90.000000
_cell_volume 2533.349443
_symmetry_space_group_name_H-M "C 2/C"
_symmetry_group_IT_number 15
_symmetry_cell_setting 'monoclinic'
loop_
_space_group_symop_operation_xyz
x,y,z
-x,y,1/2-z
-x,-y,-z
x,-y,1/2+z
1/2+x,1/2+y,z
1/2-x,1/2+y,1/2-z
1/2-x,1/2-y,-z
1/2+x,1/2-y,1/2+z
loop_
_atom_site_type_symbol
_atom_site_label
_atom_site_fract_x
_atom_site_fract_y
_atom_site_fract_z
Si Si1 0.425173 0.580181 0.781754
Si Si2 0.646065 0.803915 0.357698
Si Si3 0.021933 0.415835 0.539156
Si Si4 0.214698 0.109727 0.928580
Si Si5 0.415874 0.762723 0.696366
Si Si6 0.911369 0.218160 0.369637
Si Si7 0.174253 0.031245 0.288857
O O1 0.500000 0.550983 0.750000
O O2 0.440336 0.669124 0.684899
O O3 0.387782 0.518587 0.715623
O O4 0.365412 0.584924 0.016777
O O5 0.606520 0.890275 0.387559
O O6 0.732649 0.817827 0.201350
O O7 0.625087 0.781375 0.572242
O O8 0.615157 0.749836 0.260831
O O9 0.000000 0.430879 0.750000
O O10 0.000000 0.500000 0.500000
O O11 0.977574 0.332057 0.577297
O O12 0.223932 0.035133 0.798101
O O13 0.128104 0.132400 0.054593
O O14 0.224117 0.082473 0.093426
O O15 0.380468 0.763462 0.575451
O O16 0.000000 0.217146 0.250000
#
# Coordination Sequence:
#
# PCOD9294813 Si02
#       7
#     8   8   8   8   8   8   8
#     4  11  21  39  68  96 136 181 230 293 351 418
#     4  11  25  46  68  99 140 180 240 295 355 427
#     4  10  23  41  67 100 131 173 233 293 357 414
#     4  11  25  45  65 101 139 190 231 293 355 427
#     4  11  24  44  70 103 135 181 235 292 358 423
#     4  12  25  43  73 104 137 180 240 291 358 427
#     4  10  24  42  61  97 141 181 235 281 351 426
#
# _framework density 22.105122999999999
#
# number of rings (size 3 to 8) (size 9 to 14) (size 15 to 20)
#    0.000    1.143    2.857    3.000    4.000    5.143 
#    5.143    0.000    0.000    0.000    0.000    0.000 
#    0.000    0.000    0.000    0.000    0.000    0.000 
#
# Total GULP energy -156033.754687 kJ/mol
# GULP energy per Si atom -5572.634096 kJ/mol
# Density = 2.205481 g / cm^3
# Si number density = 22.105123 Si / 1000 Ang^3
#
#
#
# Elastic Constant Matrix: (Units=GPa)
#
#
# Indices 1 2 3 4 5 6 
#
# 1 56.8442 18.9687 42.1090 0.0000 -1.7651 0.0000
# 2 18.9687 81.4278 29.3239 0.0000 1.8335 0.0000
# 3 42.1090 29.3239 100.1170 0.0000 17.7317 0.0000
# 4 0.0000 0.0000 0.0000-6495.5773 0.0000 -324.6309
# 5 -1.7651 1.8335 17.7317 0.0000 33.4667 0.0000
# 6 0.0000 0.0000 0.0000 -324.6309 0.0000 15.7319
#
#
#
# Elastic Compliance Matrix: (Units=1/GPa)
#
#
# Indices 1 2 3 4 5 6 
#
# 1 0.027860 -0.002158 -0.012544 0.000000 0.008234 0.000000
# 2 -0.002158 0.013967 -0.003341 0.000000 0.000891 0.000000
# 3 -0.012544 -0.003341 0.018018 0.000000 -0.010025 0.000000
# 4 0.000000 0.000000 0.000000 -0.000076 0.000000 -0.001564
# 5 0.008234 0.000891 -0.010025 0.000000 0.035578 0.000000
# 6 0.000000 0.000000 0.000000 -0.001564 0.000000 0.031293
#
#
# Mechanical properties :
#
#
# Convention : Reuss Voigt Hill
#
# Bulk Modulus (GPa) = 42.08926 46.57690 44.33308
# Shear Modulus (GPa) = 29.30043 -1279.40989 -625.05473
#
# Velocity S-wave (km/s) = 3.64470 -24.08404 -16.83385
# Velocity P-wave (km/s) = 6.06577 27.42757 18.91399
#
# Compressibility (1/GPa) = 0.02375903
#
# Stress axis : x y z
#
# Youngs Moduli (GPa) = 35.89354 71.59938 55.49855
#
# Poissons Ratio (x) = 0.15451 0.69618
# Poissons Ratio (y) = 0.07746 0.18542
# Poissons Ratio (z) = 0.45025 0.23921
#
# Static dielectric constant tensor:
#      x y z
#    x 1.839000 0.000000 -0.017710 
#    y 0.000000 1.657810 0.000000 
#    z -0.017710 0.000000 1.922070 
# 
# From -- ./inp_files/62685.got.cif
#   From: 2010.05.17/outbox.cif.g08.bks.cpg/sg15_32_cif.got.tgz:62685.got - 2010.06.03 18:47:42.
