data_PCOD9294756
_publ_section_title
;
Structure prediction by ZEFSAII (Michael W. Deem and Ramdas Pophale) SiO2 
 PCOD9294756
Probable space group: C 2/C
;
_chemical_formula_sum "Si O2"
_cell_formula_units_Z 40
_cell_length_a 25.910749
_cell_length_b 8.765207
_cell_length_c 16.625670
_cell_angle_alpha 90.000000
_cell_angle_beta 27.259084
_cell_angle_gamma 90.000000
_cell_volume 1729.421557
_symmetry_space_group_name_H-M "C 2/C"
_symmetry_group_IT_number 15
_symmetry_cell_setting 'monoclinic'
loop_
_space_group_symop_operation_xyz
x,y,z
-x,y,1/2-z
-x,-y,-z
x,-y,1/2+z
1/2+x,1/2+y,z
1/2-x,1/2+y,1/2-z
1/2-x,1/2-y,-z
1/2+x,1/2-y,1/2+z
loop_
_atom_site_type_symbol
_atom_site_label
_atom_site_fract_x
_atom_site_fract_y
_atom_site_fract_z
Si Si1 0.974562 0.051684 0.880329
Si Si2 0.988340 0.313491 0.358542
Si Si3 0.685463 0.706398 0.670483
Si Si4 0.739016 0.998098 0.785830
Si Si5 0.875502 0.460137 0.199657
O O1 0.000000 0.092302 0.750000
O O2 0.065904 0.138577 0.807803
O O3 0.987928 0.868640 0.866850
O O4 0.852837 0.073933 0.090677
O O5 0.869314 0.388596 0.549838
O O6 0.000000 0.357168 0.250000
O O7 0.098511 0.369811 0.255304
O O8 0.750000 0.750000 0.500000
O O9 0.735918 0.590421 0.666603
O O10 0.677382 0.874807 0.716811
O O11 0.695616 0.111151 0.773849
O O12 0.000000 0.500000 0.000000
#
# Coordination Sequence:
#
# PCOD9294756 Si02
#       5
#     8   8   8   8   8
#     4  11  26  44  67 101 138 181 235 289 349 417
#     4  10  23  44  68  98 136 182 232 285 348 418
#     4  12  26  45  70 102 136 182 235 290 348 413
#     4  11  23  42  67  98 137 180 227 288 349 410
#     4  10  23  41  65  97 130 175 225 276 342 408
#
# _framework density 23.129121000000001
#
# number of rings (size 3 to 8) (size 9 to 14) (size 15 to 20)
#    0.000    1.200    0.000    5.400    0.000   13.600 
#    0.000    5.000    0.000    0.000    0.000    0.000 
#    0.000    0.000    0.000    0.000    0.000    0.000 
#
# Total GULP energy -111612.199798 kJ/mol
# GULP energy per Si atom -5580.609990 kJ/mol
# Density = 2.307648 g / cm^3
# Si number density = 23.129121 Si / 1000 Ang^3
#
#
#
# Elastic Constant Matrix: (Units=GPa)
#
#
# Indices 1 2 3 4 5 6 
#
# 1 207.1866 49.0947 67.9119 -0.0001 -7.8576 0.0001
# 2 49.0947 65.6354 29.7307 -0.0009 1.4817 0.0003
# 3 67.9119 29.7307 139.3709 -0.0008 8.8531 0.0000
# 4 -0.0001 -0.0009 -0.0008 28.6464 0.0001 17.9924
# 5 -7.8576 1.4817 8.8531 0.0001 43.4716 0.0001
# 6 0.0001 0.0003 0.0000 17.9924 0.0001 -3.3172
#
#
#
# Elastic Compliance Matrix: (Units=1/GPa)
#
#
# Indices 1 2 3 4 5 6 
#
# 1 0.006641 -0.003864 -0.002529 0.000000 0.001847 0.000000
# 2 -0.003864 0.019114 -0.002137 0.000000 -0.000915 0.000001
# 3 -0.002529 -0.002137 0.009004 0.000000 -0.002218 0.000000
# 4 0.000000 0.000000 0.000000 0.007922 0.000000 0.042967
# 5 0.001847 -0.000915 -0.002218 0.000000 0.023820 0.000000
# 6 0.000000 0.000001 0.000000 0.042967 0.000000 -0.068409
#
#
# Mechanical properties :
#
#
# Convention : Reuss Voigt Hill
#
# Bulk Modulus (GPa) = 56.49561 78.40748 67.45155
# Shear Modulus (GPa) = 237.51153 31.45720 134.48437
#
# Velocity S-wave (km/s) = 10.14457 3.69191 7.63356
# Velocity P-wave (km/s) = 12.71596 7.22130 10.34028
#
# Compressibility (1/GPa) = 0.01770049
#
# Stress axis : x y z
#
# Youngs Moduli (GPa) = 150.57602 52.31734 111.05899
#
# Poissons Ratio (x) = 0.20213 0.28089
# Poissons Ratio (y) = 0.58176 0.23730
# Poissons Ratio (z) = 0.38084 0.11179
#
# Static dielectric constant tensor:
#      x y z
#    x 2.010660 0.000000 0.078870 
#    y 0.000000 1.730160 0.000000 
#    z 0.078870 0.000000 1.909750 
# 
# From -- ./inp_files/221780.got.cif
#   From: 2010.05.17/outbox.cif.g08.bks.cpg/sg15_111_cif.got.tgz:221780.got - 2010.06.03 18:47:42.
