data_PCOD9294045
_publ_section_title
;
Structure prediction by ZEFSAII (Michael W. Deem and Ramdas Pophale) SiO2 
 PCOD9294045
Probable space group: C 2/C
;
_chemical_formula_sum "Si O2"
_cell_formula_units_Z 52
_cell_length_a 9.373885
_cell_length_b 25.761017
_cell_length_c 17.095994
_cell_angle_alpha 90.000000
_cell_angle_beta 41.344298
_cell_angle_gamma 90.000000
_cell_volume 2727.117937
_symmetry_space_group_name_H-M "C 2/C"
_symmetry_group_IT_number 15
_symmetry_cell_setting 'monoclinic'
loop_
_space_group_symop_operation_xyz
x,y,z
-x,y,1/2-z
-x,-y,-z
x,-y,1/2+z
1/2+x,1/2+y,z
1/2-x,1/2+y,1/2-z
1/2-x,1/2-y,-z
1/2+x,1/2-y,1/2+z
loop_
_atom_site_type_symbol
_atom_site_label
_atom_site_fract_x
_atom_site_fract_y
_atom_site_fract_z
Si Si1 0.682516 0.044122 0.326581
Si Si2 0.711819 0.342050 0.201708
Si Si3 0.238458 0.947465 0.089970
Si Si4 0.000000 0.867574 0.750000
Si Si5 0.255983 0.862575 0.358073
Si Si6 0.862439 0.024855 0.625395
Si Si7 0.284616 0.189874 0.004306
O O1 0.441219 0.059844 0.448941
O O2 0.843656 0.092663 0.267366
O O3 0.737107 0.000106 0.369563
O O4 0.709621 0.015760 0.232585
O O5 0.500000 0.316042 0.250000
O O6 0.731625 0.398386 0.150971
O O7 0.654429 0.346064 0.317472
O O8 0.955792 0.319722 0.093759
O O9 0.030831 0.955468 0.121736
O O10 0.152848 0.832258 0.632510
O O11 0.500000 0.843353 0.250000
O O12 0.253637 0.924666 0.360307
O O13 0.186281 0.840764 0.469828
O O14 0.000000 0.000000 0.500000
O O15 0.250000 0.250000 0.000000
#
# Coordination Sequence:
#
# PCOD9294045 Si02
#       7
#     8   8   8   4   8   8   8
#     4  11  22  36  57  92 129 174 219 254 327 408
#     4  11  20  43  71  97 127 172 221 280 334 405
#     4  11  21  36  60  93 132 177 216 263 323 409
#     4  12  22  42  66  92 138 178 224 270 342 406
#     4  10  23  38  62  94 129 162 223 274 321 391
#     4  12  23  34  57  89 135 173 216 262 325 396
#     4  11  27  46  71  98 127 177 235 291 341 395
#
# _framework density 19.067748999999999
#
# number of rings (size 3 to 8) (size 9 to 14) (size 15 to 20)
#    0.000    0.923    6.154    0.923    5.385    0.000 
#    0.000    0.769    3.385    0.000    0.000    0.000 
#    0.000    0.000    0.000    0.000    0.000    0.000 
#
# Total GULP energy -145031.673945 kJ/mol
# GULP energy per Si atom -5578.141306 kJ/mol
# Density = 1.902435 g / cm^3
# Si number density = 19.067749 Si / 1000 Ang^3
#
#
#
# Elastic Constant Matrix: (Units=GPa)
#
#
# Indices 1 2 3 4 5 6 
#
# 1 84.2542 34.3089 41.0021 0.0000 2.2306 0.0000
# 2 34.3089 100.9645 45.9678 0.0000 3.3997 0.0000
# 3 41.0021 45.9678 143.5664 0.0000 2.0836 0.0000
# 4 0.0000 0.0000 0.0000 16.4538 0.0000 -2.1349
# 5 2.2306 3.3997 2.0836 0.0000 36.2102 0.0000
# 6 0.0000 0.0000 0.0000 -2.1349 0.0000 23.9471
#
#
#
# Elastic Compliance Matrix: (Units=1/GPa)
#
#
# Indices 1 2 3 4 5 6 
#
# 1 0.014855 -0.003636 -0.003073 0.000000 -0.000397 0.000000
# 2 -0.003636 0.012512 -0.002957 0.000000 -0.000781 0.000000
# 3 -0.003073 -0.002957 0.008790 0.000000 -0.000039 0.000000
# 4 0.000000 0.000000 0.000000 0.061487 0.000000 0.005482
# 5 -0.000397 -0.000781 -0.000039 0.000000 0.027717 0.000000
# 6 0.000000 0.000000 0.000000 0.005482 0.000000 0.042247
#
#
# Mechanical properties :
#
#
# Convention : Reuss Voigt Hill
#
# Bulk Modulus (GPa) = 59.42572 63.48251 61.45411
# Shear Modulus (GPa) = 25.96753 29.15598 27.56176
#
# Velocity S-wave (km/s) = 3.69434 3.91458 3.80605
# Velocity P-wave (km/s) = 7.03070 7.33466 7.18429
#
# Compressibility (1/GPa) = 0.01682773
#
# Stress axis : x y z
#
# Youngs Moduli (GPa) = 67.31682 79.92153 113.76291
#
# Poissons Ratio (x) = 0.29056 0.34957
# Poissons Ratio (y) = 0.24474 0.33635
# Poissons Ratio (z) = 0.20685 0.23630
#
# Static dielectric constant tensor:
#      x y z
#    x 1.705710 0.000000 0.002830 
#    y 0.000000 1.651950 0.000000 
#    z 0.002830 0.000000 1.704630 
# 
# From -- ./inp_files/138440.got.cif
#   From: 2010.05.17/outbox.cif.g08.bks.cpg/sg15_70_cif.got.tgz:138440.got - 2010.06.03 18:47:42.
