data_PCOD9294723
_publ_section_title
;
Structure prediction by ZEFSAII (Michael W. Deem and Ramdas Pophale) SiO2 
 PCOD9294723
Probable space group: C 2/C
;
_chemical_formula_sum "Si O2"
_cell_formula_units_Z 40
_cell_length_a 16.555164
_cell_length_b 6.946221
_cell_length_c 25.059273
_cell_angle_alpha 90.000000
_cell_angle_beta 31.620994
_cell_angle_gamma 90.000000
_cell_volume 1510.875629
_symmetry_space_group_name_H-M "C 2/C"
_symmetry_group_IT_number 15
_symmetry_cell_setting 'monoclinic'
loop_
_space_group_symop_operation_xyz
x,y,z
-x,y,1/2-z
-x,-y,-z
x,-y,1/2+z
1/2+x,1/2+y,z
1/2-x,1/2+y,1/2-z
1/2-x,1/2-y,-z
1/2+x,1/2-y,1/2+z
loop_
_atom_site_type_symbol
_atom_site_label
_atom_site_fract_x
_atom_site_fract_y
_atom_site_fract_z
Si Si1 0.433209 0.465265 0.477708
Si Si2 0.969899 0.396415 0.430004
Si Si3 0.829699 0.933210 0.247712
Si Si4 0.468544 0.257571 0.825957
Si Si5 0.716377 0.635958 0.611003
O O1 0.500000 0.500000 0.500000
O O2 0.405856 0.683537 0.476281
O O3 0.561452 0.384706 0.363645
O O4 0.278287 0.342048 0.557515
O O5 0.928418 0.407224 0.390707
O O6 0.885070 0.536636 0.518061
O O7 0.151724 0.411496 0.334898
O O8 0.854617 0.827566 0.290565
O O9 0.873570 0.150786 0.239431
O O10 0.500000 0.179423 0.750000
O O11 0.371232 0.460744 0.871364
#
# Coordination Sequence:
#
# PCOD9294723 Si02
#       5
#     8   8   8   8   8
#     4  11  25  39  66 102 135 177 239 278 344 422
#     4  11  23  41  70 101 134 185 235 283 345 422
#     4  10  23  41  65 101 141 177 229 290 339 413
#     4   9  22  43  68 102 143 183 229 288 356 411
#     4  11  23  44  69  96 142 184 222 294 354 399
#
# _framework density 26.474713000000001
#
# number of rings (size 3 to 8) (size 9 to 14) (size 15 to 20)
#    0.000    1.600    2.000    1.200    5.600    4.800 
#    0.000    0.000    0.000   10.800    0.000    0.000 
#    0.000    0.000    0.000    0.000    0.000    0.000 
#
# Total GULP energy -111557.644910 kJ/mol
# GULP energy per Si atom -5577.882245 kJ/mol
# Density = 2.641445 g / cm^3
# Si number density = 26.474713 Si / 1000 Ang^3
#
#
#
# Elastic Constant Matrix: (Units=GPa)
#
#
# Indices 1 2 3 4 5 6 
#
# 1 136.3992 20.2966 29.0650 0.0055 14.6872 -0.0129
# 2 20.2966 64.3493 25.2925 0.0080 -5.1694 -0.0031
# 3 29.0650 25.2925 105.4505 0.0011 27.8836 -0.0025
# 4 0.0055 0.0080 0.0011 36.2146 -0.0003 -4.5335
# 5 14.6872 -5.1694 27.8836 -0.0003 46.5479 0.0050
# 6 -0.0129 -0.0031 -0.0025 -4.5335 0.0050 19.1197
#
#
#
# Elastic Compliance Matrix: (Units=1/GPa)
#
#
# Indices 1 2 3 4 5 6 
#
# 1 0.008145 -0.002300 -0.001124 0.000000 -0.002152 0.000006
# 2 -0.002300 0.018933 -0.005531 -0.000004 0.006142 -0.000002
# 3 -0.001124 -0.005531 0.013294 0.000001 -0.008223 0.000002
# 4 0.000000 -0.000004 0.000001 0.028458 -0.000002 0.006748
# 5 -0.002152 0.006142 -0.008223 -0.000002 0.027770 -0.000009
# 6 0.000006 -0.000002 0.000002 0.006748 -0.000009 0.053902
#
#
# Mechanical properties :
#
#
# Convention : Reuss Voigt Hill
#
# Bulk Modulus (GPa) = 44.52143 50.61191 47.56667
# Shear Modulus (GPa) = 28.42520 35.81276 32.11898
#
# Velocity S-wave (km/s) = 3.28025 3.68192 3.48687
# Velocity P-wave (km/s) = 5.58568 6.10196 5.84952
#
# Compressibility (1/GPa) = 0.02246110
#
# Stress axis : x y z
#
# Youngs Moduli (GPa) = 122.77539 52.81767 75.22164
#
# Poissons Ratio (x) = 0.12148 0.08457
# Poissons Ratio (y) = 0.28238 0.41607
# Poissons Ratio (z) = 0.13804 0.29214
#
# Static dielectric constant tensor:
#      x y z
#    x 2.181750 0.000000 0.035610 
#    y 0.000000 2.081800 0.000000 
#    z 0.035610 0.000000 2.218060 
# 
# From -- ./inp_files/298295.got.cif
#   From: 2010.05.17/outbox.cif.g08.bks.cpg/sg15_150_cif.got.tgz:298295.got - 2010.06.03 18:47:42.
