data_PCOD9294643
_publ_section_title
;
Structure prediction by ZEFSAII (Michael W. Deem and Ramdas Pophale) SiO2 
 PCOD9294643
Probable space group: C 2/C
;
_chemical_formula_sum "Si O2"
_cell_formula_units_Z 40
_cell_length_a 10.526906
_cell_length_b 24.217519
_cell_length_c 8.207059
_cell_angle_alpha 90.000000
_cell_angle_beta 88.647682
_cell_angle_gamma 90.000000
_cell_volume 2091.688321
_symmetry_space_group_name_H-M "C 2/C"
_symmetry_group_IT_number 15
_symmetry_cell_setting 'monoclinic'
loop_
_space_group_symop_operation_xyz
x,y,z
-x,y,1/2-z
-x,-y,-z
x,-y,1/2+z
1/2+x,1/2+y,z
1/2-x,1/2+y,1/2-z
1/2-x,1/2-y,-z
1/2+x,1/2-y,1/2+z
loop_
_atom_site_type_symbol
_atom_site_label
_atom_site_fract_x
_atom_site_fract_y
_atom_site_fract_z
Si Si1 0.000000 0.605040 0.750000
Si Si2 0.638492 0.172022 0.019160
Si Si3 0.739318 0.919286 0.730388
Si Si4 0.000000 0.144538 0.250000
Si Si5 0.425071 0.298699 0.419567
Si Si6 0.639333 0.021008 0.549423
O O1 0.113990 0.564215 0.695234
O O2 0.955689 0.643041 0.603792
O O3 0.653641 0.131530 0.171982
O O4 0.592199 0.232669 0.068500
O O5 0.780516 0.177521 0.935324
O O6 0.877922 0.894323 0.745100
O O7 0.721836 0.968802 0.601529
O O8 0.695971 0.945362 0.899709
O O9 0.005053 0.180443 0.416857
O O10 0.500000 0.312951 0.250000
O O11 0.500000 0.000000 0.500000
#
# Coordination Sequence:
#
# PCOD9294643 Si02
#       6
#     4   8   8   4   8   8
#     4  12  23  36  64  90 126 160 205 256 318 376
#     4  10  23  41  62  94 123 161 211 255 315 377
#     4  11  23  42  63  91 127 165 206 264 311 379
#     4  10  25  46  64  90 130 168 221 250 316 380
#     4  10  23  44  64  92 128 164 211 263 305 381
#     4  12  22  38  61  93 124 157 206 260 310 370
#
# _framework density 19.123308000000002
#
# number of rings (size 3 to 8) (size 9 to 14) (size 15 to 20)
#    0.000    1.200    4.000    0.600    5.600    0.800 
#    0.000    4.000    0.000    0.000    0.000    0.000 
#    0.000    0.000    0.000    0.000    0.000    0.000 
#
# Total GULP energy -111711.628231 kJ/mol
# GULP energy per Si atom -5585.581412 kJ/mol
# Density = 1.907978 g / cm^3
# Si number density = 19.123308 Si / 1000 Ang^3
#
#
#
# Elastic Constant Matrix: (Units=GPa)
#
#
# Indices 1 2 3 4 5 6 
#
# 1 83.2986 46.3194 44.4213 0.0000 13.2104 0.0000
# 2 46.3194 134.6371 60.4477 0.0000 3.9265 0.0000
# 3 44.4213 60.4477 133.5986 0.0000 -6.6183 0.0000
# 4 0.0000 0.0000 0.0000 27.5435 0.0000 9.4813
# 5 13.2104 3.9265 -6.6183 0.0000 29.9793 0.0000
# 6 0.0000 0.0000 0.0000 9.4813 0.0000 29.3057
#
#
#
# Elastic Compliance Matrix: (Units=1/GPa)
#
#
# Indices 1 2 3 4 5 6 
#
# 1 0.017961 -0.003845 -0.004650 0.000000 -0.008438 0.000000
# 2 -0.003845 0.010287 -0.003396 0.000000 -0.000402 0.000000
# 3 -0.004650 -0.003396 0.010809 0.000000 0.004880 0.000000
# 4 0.000000 0.000000 0.000000 0.040856 0.000000 -0.013218
# 5 -0.008438 -0.000402 0.004880 0.000000 0.038204 0.000000
# 6 0.000000 0.000000 0.000000 -0.013218 0.000000 0.038400
#
#
# Mechanical properties :
#
#
# Convention : Reuss Voigt Hill
#
# Bulk Modulus (GPa) = 65.46692 72.65678 69.06185
# Shear Modulus (GPa) = 26.96996 30.72209 28.84602
#
# Velocity S-wave (km/s) = 3.75949 4.01250 3.88805
# Velocity P-wave (km/s) = 7.29064 7.71642 7.50655
#
# Compressibility (1/GPa) = 0.01527489
#
# Stress axis : x y z
#
# Youngs Moduli (GPa) = 55.67536 97.21437 92.51199
#
# Poissons Ratio (x) = 0.37383 0.43020
# Poissons Ratio (y) = 0.21409 0.31413
# Poissons Ratio (z) = 0.25890 0.33010
#
# Static dielectric constant tensor:
#      x y z
#    x 1.602260 0.000000 -0.010040 
#    y 0.000000 1.657120 0.000000 
#    z -0.010040 0.000000 1.682930 
# 
# From -- ./inp_files/23550.got.cif
#   From: 2010.05.17/outbox.cif.g08.bks.cpg/sg15_12_cif.got.tgz:23550.got - 2010.06.03 18:47:42.
