data_PCOD9294869
_publ_section_title
;
Structure prediction by ZEFSAII (Michael W. Deem and Ramdas Pophale) SiO2 
 PCOD9294869
Probable space group: C 2/C
;
_chemical_formula_sum "Si O2"
_cell_formula_units_Z 56
_cell_length_a 12.283433
_cell_length_b 13.582303
_cell_length_c 17.744474
_cell_angle_alpha 90.000000
_cell_angle_beta 115.380889
_cell_angle_gamma 90.000000
_cell_volume 2674.693601
_symmetry_space_group_name_H-M "C 2/C"
_symmetry_group_IT_number 15
_symmetry_cell_setting 'monoclinic'
loop_
_space_group_symop_operation_xyz
x,y,z
-x,y,1/2-z
-x,-y,-z
x,-y,1/2+z
1/2+x,1/2+y,z
1/2-x,1/2+y,1/2-z
1/2-x,1/2-y,-z
1/2+x,1/2-y,1/2+z
loop_
_atom_site_type_symbol
_atom_site_label
_atom_site_fract_x
_atom_site_fract_y
_atom_site_fract_z
Si Si1 0.276763 0.722317 0.846478
Si Si2 0.292147 0.554738 0.973345
Si Si3 0.492063 0.050721 0.577718
Si Si4 0.856496 0.271734 0.337886
Si Si5 0.031491 0.369329 0.671683
Si Si6 0.235191 0.665601 0.434042
Si Si7 0.933302 0.130543 0.157558
O O1 0.319693 0.637662 0.917339
O O2 0.209393 0.679573 0.753037
O O3 0.379876 0.792814 0.842103
O O4 0.175409 0.794930 0.851839
O O5 0.148330 0.571346 0.945420
O O6 0.304823 0.438953 0.956661
O O7 0.373287 0.569726 0.071954
O O8 0.568256 0.149246 0.594398
O O9 0.500000 0.000000 0.500000
O O10 0.559666 0.982666 0.660233
O O11 0.762561 0.215153 0.362145
O O12 0.956319 0.194967 0.340022
O O13 0.902331 0.361832 0.595307
O O14 0.000000 0.354426 0.750000
O O15 0.250000 0.750000 0.500000
O O16 0.000000 0.079912 0.250000
#
# Coordination Sequence:
#
# PCOD9294869 Si02
#       7
#     8   8   8   8   8   8   8
#     4  11  23  41  70 102 137 177 235 283 344 414
#     4  11  24  43  73 101 132 188 233 280 343 421
#     4  11  24  40  73 103 132 179 237 289 337 412
#     4  11  23  41  66 102 138 177 223 291 345 407
#     4  11  24  44  69  99 136 182 228 286 346 407
#     4  11  26  46  67  97 141 181 228 284 348 410
#     4  10  23  41  68 104 138 173 226 293 350 410
#
# _framework density 20.936976000000001
#
# number of rings (size 3 to 8) (size 9 to 14) (size 15 to 20)
#    0.000    1.143    2.857    3.000    8.000    0.571 
#    0.000    2.143    0.000    0.000    0.000    0.000 
#    0.000    0.000    0.000    0.000    0.000    0.000 
#
# Total GULP energy -156102.270365 kJ/mol
# GULP energy per Si atom -5575.081084 kJ/mol
# Density = 2.088932 g / cm^3
# Si number density = 20.936976 Si / 1000 Ang^3
#
#
#
# Elastic Constant Matrix: (Units=GPa)
#
#
# Indices 1 2 3 4 5 6 
#
# 1 84.3938 21.6031 12.6104 0.0000 -16.7093 0.0000
# 2 21.6031 67.3853 45.8009 0.0000 -0.8084 0.0000
# 3 12.6104 45.8009 117.4911 0.0000 -6.0797 0.0000
# 4 0.0000 0.0000 0.0000 28.5375 0.0000 -1.4583
# 5 -16.7093 -0.8084 -6.0797 0.0000 30.9294 0.0000
# 6 0.0000 0.0000 0.0000 -1.4583 0.0000 25.2627
#
#
#
# Elastic Compliance Matrix: (Units=1/GPa)
#
#
# Indices 1 2 3 4 5 6 
#
# 1 0.014615 -0.005174 0.000859 0.000000 0.007929 0.000000
# 2 -0.005174 0.022054 -0.008240 0.000000 -0.003839 0.000000
# 3 0.000859 -0.008240 0.011764 0.000000 0.002561 0.000000
# 4 0.000000 0.000000 0.000000 0.035145 0.000000 0.002029
# 5 0.007929 -0.003839 0.002561 0.000000 0.037018 0.000000
# 6 0.000000 0.000000 0.000000 0.002029 0.000000 0.039701
#
#
# Mechanical properties :
#
#
# Convention : Reuss Voigt Hill
#
# Bulk Modulus (GPa) = 42.87914 47.69987 45.28951
# Shear Modulus (GPa) = 25.88219 29.56296 27.72257
#
# Velocity S-wave (km/s) = 3.51977 3.76173 3.64276
# Velocity P-wave (km/s) = 6.08629 6.45752 6.27465
#
# Compressibility (1/GPa) = 0.02332136
#
# Stress axis : x y z
#
# Youngs Moduli (GPa) = 68.42141 45.34413 85.00566
#
# Poissons Ratio (x) = 0.23461 -0.07299
# Poissons Ratio (y) = 0.35401 0.70047
# Poissons Ratio (z) = -0.05875 0.37365
#
# Static dielectric constant tensor:
#      x y z
#    x 1.708940 0.000000 0.005130 
#    y 0.000000 1.833840 0.000000 
#    z 0.005130 0.000000 1.778100 
# 
# From -- ./inp_files/198433.got.cif
#   From: 2010.05.17/outbox.cif.g08.bks.cpg/sg15_100_cif.got.tgz:198433.got - 2010.06.03 18:47:42.
