data_PCOD9294115
_publ_section_title
;
Structure prediction by ZEFSAII (Michael W. Deem and Ramdas Pophale) SiO2 
 PCOD9294115
Probable space group: C 2/C
;
_chemical_formula_sum "Si O2"
_cell_formula_units_Z 52
_cell_length_a 6.419690
_cell_length_b 23.356671
_cell_length_c 23.322720
_cell_angle_alpha 90.000000
_cell_angle_beta 126.779251
_cell_angle_gamma 90.000000
_cell_volume 2800.971271
_symmetry_space_group_name_H-M "C 2/C"
_symmetry_group_IT_number 15
_symmetry_cell_setting 'monoclinic'
loop_
_space_group_symop_operation_xyz
x,y,z
-x,y,1/2-z
-x,-y,-z
x,-y,1/2+z
1/2+x,1/2+y,z
1/2-x,1/2+y,1/2-z
1/2-x,1/2-y,-z
1/2+x,1/2-y,1/2+z
loop_
_atom_site_type_symbol
_atom_site_label
_atom_site_fract_x
_atom_site_fract_y
_atom_site_fract_z
Si Si1 0.982845 0.277536 0.181404
Si Si2 0.721833 0.167949 0.172905
Si Si3 0.470072 0.058698 0.418634
Si Si4 0.343447 0.548988 0.584481
Si Si5 0.271952 0.118037 0.822883
Si Si6 0.000000 0.702997 0.250000
Si Si7 0.431177 0.012415 0.676885
O O1 0.754100 0.230247 0.147731
O O2 0.000000 0.299174 0.250000
O O3 0.007239 0.333355 0.146359
O O4 0.239922 0.241054 0.208368
O O5 0.659580 0.119073 0.117363
O O6 0.519774 0.169870 0.192713
O O7 0.000000 0.156862 0.250000
O O8 0.706856 0.063319 0.502000
O O9 0.273644 0.011870 0.413182
O O10 0.558302 0.032497 0.372623
O O11 0.272798 0.596496 0.620152
O O12 0.649908 0.541390 0.630820
O O13 0.360958 0.062189 0.802241
O O14 0.000000 0.138373 0.750000
O O15 0.500000 0.986839 0.750000
#
# Coordination Sequence:
#
# PCOD9294115 Si02
#       7
#     8   8   8   8   8   4   8
#     4   9  18  32  54  85 113 141 188 240 287 330
#     4   9  20  33  55  86 109 146 197 229 280 337
#     4  10  23  39  57  80 124 156 185 237 288 358
#     4  10  23  40  55  84 120 156 187 231 304 343
#     4  11  20  34  59  87 114 146 194 246 287 341
#     4   8  16  32  50  82 110 142 176 232 280 316
#     4  11  22  34  59  89 111 150 200 239 288 341
#
# _framework density 18.564989000000001
#
# number of rings (size 3 to 8) (size 9 to 14) (size 15 to 20)
#    0.000    2.462    2.308    0.923    3.231    1.231 
#    0.000    0.769    0.000    1.846    0.000    0.000 
#    0.000    0.000    0.000    0.000    0.000    0.000 
#
# Total GULP energy -144912.838906 kJ/mol
# GULP energy per Si atom -5573.570727 kJ/mol
# Density = 1.852273 g / cm^3
# Si number density = 18.564989 Si / 1000 Ang^3
#
#
#
# Elastic Constant Matrix: (Units=GPa)
#
#
# Indices 1 2 3 4 5 6 
#
# 1 79.1924 15.3997 23.5551 0.0000 -5.5267 0.0000
# 2 15.3997 84.4200 27.5612 0.0000 -15.5765 0.0000
# 3 23.5551 27.5612 83.2073 0.0000 -12.9157 0.0000
# 4 0.0000 0.0000 0.0000 3227.6597 0.0000-2644.5122
# 5 -5.5267 -15.5765 -12.9157 0.0000 21.0740 0.0000
# 6 0.0000 0.0000 0.0000-2644.5122 0.0000 2179.9817
#
#
#
# Elastic Compliance Matrix: (Units=1/GPa)
#
#
# Indices 1 2 3 4 5 6 
#
# 1 0.013942 -0.001319 -0.003419 0.000000 0.000586 0.000000
# 2 -0.001319 0.014703 -0.003165 0.000000 0.008582 0.000000
# 3 -0.003419 -0.003165 0.014955 0.000000 0.005930 0.000000
# 4 0.000000 0.000000 0.000000 0.050941 0.000000 0.061796
# 5 0.000586 0.008582 0.005930 0.000000 0.057583 0.000000
# 6 0.000000 0.000000 0.000000 0.061796 0.000000 0.075422
#
#
# Mechanical properties :
#
#
# Convention : Reuss Voigt Hill
#
# Bulk Modulus (GPa) = 35.97847 42.20573 39.09210
# Shear Modulus (GPa) = 19.79297 1097.76333 558.77815
#
# Velocity S-wave (km/s) = 3.26873 24.34321 17.36774
# Velocity P-wave (km/s) = 5.80241 28.51151 20.57394
#
# Compressibility (1/GPa) = 0.02779440
#
# Stress axis : x y z
#
# Youngs Moduli (GPa) = 71.72684 68.01440 66.86867
#
# Poissons Ratio (x) = 0.08970 0.22862
# Poissons Ratio (y) = 0.09460 0.21161
# Poissons Ratio (z) = 0.24523 0.21524
#
# Static dielectric constant tensor:
#      x y z
#    x 1.672300 0.000000 -0.003280 
#    y 0.000000 1.669660 0.000000 
#    z -0.003280 0.000000 1.621100 
# 
# From -- ./inp_files/261841.got.cif
#   From: 2010.05.17/outbox.cif.g08.bks.cpg/sg15_131_cif.got.tgz:261841.got - 2010.06.03 18:47:42.
