data_PCOD9294902
_publ_section_title
;
Structure prediction by ZEFSAII (Michael W. Deem and Ramdas Pophale) SiO2 
 PCOD9294902
Probable space group: C 2/C
;
_chemical_formula_sum "Si O2"
_cell_formula_units_Z 60
_cell_length_a 12.536367
_cell_length_b 13.882599
_cell_length_c 20.811922
_cell_angle_alpha 90.000000
_cell_angle_beta 125.980844
_cell_angle_gamma 90.000000
_cell_volume 2931.013156
_symmetry_space_group_name_H-M "C 2/C"
_symmetry_group_IT_number 15
_symmetry_cell_setting 'monoclinic'
loop_
_space_group_symop_operation_xyz
x,y,z
-x,y,1/2-z
-x,-y,-z
x,-y,1/2+z
1/2+x,1/2+y,z
1/2-x,1/2+y,1/2-z
1/2-x,1/2-y,-z
1/2+x,1/2-y,1/2+z
loop_
_atom_site_type_symbol
_atom_site_label
_atom_site_fract_x
_atom_site_fract_y
_atom_site_fract_z
Si Si1 0.567812 0.293120 0.093032
Si Si2 0.651627 0.525964 0.814941
Si Si3 0.549117 0.797342 0.391154
Si Si4 0.722132 0.519254 0.693778
Si Si5 0.000000 0.572203 0.750000
Si Si6 0.228110 0.644912 0.067380
Si Si7 0.873477 0.166756 0.408245
Si Si8 0.601445 0.256159 0.341615
O O1 0.660084 0.379087 0.150432
O O2 0.655242 0.205614 0.097237
O O3 0.473887 0.259876 0.117518
O O4 0.481489 0.332287 0.002837
O O5 0.500000 0.493996 0.750000
O O6 0.720369 0.518352 0.770117
O O7 0.723491 0.456851 0.890215
O O8 0.643457 0.634615 0.837914
O O9 0.523040 0.859748 0.319551
O O10 0.646460 0.708493 0.409621
O O11 0.626842 0.858919 0.472251
O O12 0.418466 0.751128 0.375372
O O13 0.869135 0.512470 0.718336
O O14 0.636838 0.432677 0.633951
O O15 0.731867 0.192409 0.387438
O O16 0.500000 0.225056 0.250000
#
# Coordination Sequence:
#
# PCOD9294902 Si02
#       8
#     8   8   8   8   4   8   8   8
#     4  11  23  46  65  94 131 170 216 275 319 389
#     4  11  23  40  68  96 127 174 222 266 323 393
#     4  10  23  42  66  97 133 166 217 271 331 380
#     4  12  25  41  64 100 130 170 221 263 330 387
#     4  12  26  42  66  98 138 170 210 288 328 376
#     4  10  23  41  68  99 128 170 219 270 327 386
#     4  11  26  42  69  91 130 178 218 263 330 389
#     4  11  24  43  64  93 133 167 219 270 319 391
#
# _framework density 20.470738000000001
#
# number of rings (size 3 to 8) (size 9 to 14) (size 15 to 20)
#    0.000    1.067    4.000    2.400    5.600    1.067 
#    0.000    6.000    0.000    0.000    0.000    0.000 
#    0.000    0.000    0.000    0.000    0.000    0.000 
#
# Total GULP energy -167889.651495 kJ/mol
# GULP energy per Si atom -5596.321716 kJ/mol
# Density = 2.042415 g / cm^3
# Si number density = 20.470738 Si / 1000 Ang^3
#
#
#
# Elastic Constant Matrix: (Units=GPa)
#
#
# Indices 1 2 3 4 5 6 
#
# 1 111.7342 1.0731 5.1295 0.0000 -10.0560 0.0000
# 2 1.0731 32.7771 22.7383 0.0000 1.2173 0.0000
# 3 5.1295 22.7383 53.4026 0.0000 -16.4473 0.0000
# 4 0.0000 0.0000 0.0000 24.9800 0.0000 -1.8396
# 5 -10.0560 1.2173 -16.4473 0.0000 34.2787 0.0000
# 6 0.0000 0.0000 0.0000 -1.8396 0.0000 10.2460
#
#
#
# Elastic Compliance Matrix: (Units=1/GPa)
#
#
# Indices 1 2 3 4 5 6 
#
# 1 0.009199 -0.000564 0.000227 0.000000 0.002828 0.000000
# 2 -0.000564 0.048153 -0.024672 0.000000 -0.013714 0.000000
# 3 0.000227 -0.024672 0.034615 0.000000 0.017551 0.000000
# 4 0.000000 0.000000 0.000000 0.040568 0.000000 0.007284
# 5 0.002828 -0.013714 0.017551 0.000000 0.038910 0.000000
# 6 0.000000 0.000000 0.000000 0.007284 0.000000 0.098906
#
#
# Mechanical properties :
#
#
# Convention : Reuss Voigt Hill
#
# Bulk Modulus (GPa) = 23.83855 28.42174 26.13015
# Shear Modulus (GPa) = 14.95426 25.16583 20.06005
#
# Velocity S-wave (km/s) = 2.70574 3.51002 3.13379
# Velocity P-wave (km/s) = 4.62946 5.50829 5.08788
#
# Compressibility (1/GPa) = 0.04194886
#
# Stress axis : x y z
#
# Youngs Moduli (GPa) = 108.70409 20.76726 28.88946
#
# Poissons Ratio (x) = 0.01171 -0.00657
# Poissons Ratio (y) = 0.06131 0.71277
# Poissons Ratio (z) = -0.02473 0.51238
#
# Static dielectric constant tensor:
#      x y z
#    x 1.726840 0.000000 0.008270 
#    y 0.000000 1.685370 0.000000 
#    z 0.008270 0.000000 1.699940 
# 
# From -- ./inp_files/238804.got.cif
#   From: 2010.05.17/outbox.cif.g08.bks.cpg/sg15_120_cif.got.tgz:238804.got - 2010.06.03 18:47:42.
