data_PCOD9294395
_publ_section_title
;
Structure prediction by ZEFSAII (Michael W. Deem and Ramdas Pophale) SiO2 
 PCOD9294395
Probable space group: C 2/C
;
_chemical_formula_sum "Si O2"
_cell_formula_units_Z 48
_cell_length_a 31.503702
_cell_length_b 6.045714
_cell_length_c 12.649017
_cell_angle_alpha 90.000000
_cell_angle_beta 56.208149
_cell_angle_gamma 90.000000
_cell_volume 2002.166620
_symmetry_space_group_name_H-M "C 2/C"
_symmetry_group_IT_number 15
_symmetry_cell_setting 'monoclinic'
loop_
_space_group_symop_operation_xyz
x,y,z
-x,y,1/2-z
-x,-y,-z
x,-y,1/2+z
1/2+x,1/2+y,z
1/2-x,1/2+y,1/2-z
1/2-x,1/2-y,-z
1/2+x,1/2-y,1/2+z
loop_
_atom_site_type_symbol
_atom_site_label
_atom_site_fract_x
_atom_site_fract_y
_atom_site_fract_z
Si Si1 0.500000 0.000000 0.500000
Si Si2 0.567735 0.339259 0.553334
Si Si3 0.250984 0.503125 0.093700
Si Si4 0.323112 0.101005 0.457672
Si Si5 0.428433 0.959488 0.242351
Si Si6 0.179431 0.282735 0.855254
Si Si7 0.500000 0.289240 0.250000
O O1 0.532640 0.200634 0.521411
O O2 0.555418 0.872872 0.393030
O O3 0.625847 0.348584 0.429556
O O4 0.541354 0.564152 0.631405
O O5 0.570232 0.204459 0.661508
O O6 0.217363 0.431636 0.039982
O O7 0.207019 0.651174 0.210287
O O8 0.276199 0.348992 0.145051
O O9 0.297018 0.662236 0.995399
O O10 0.376393 0.088855 0.324098
O O11 0.331606 0.006742 0.563294
O O12 0.476127 0.131080 0.191650
#
# Coordination Sequence:
#
# PCOD9294395 Si02
#       7
#     4   8   8   8   8   8   4
#     4  12  20  44  62  90 128 166 210 254 320 372
#     4  11  24  41  63  93 130 166 211 266 316 372
#     4  11  21  41  64  93 119 165 205 259 313 373
#     4  10  23  40  64  88 128 160 207 258 315 376
#     4  11  23  42  63  91 128 168 205 267 322 369
#     4  11  22  40  64  92 125 164 210 254 317 375
#     4  12  20  44  64  88 128 168 212 258 322 370
#
# _framework density 23.974031
#
# number of rings (size 3 to 8) (size 9 to 14) (size 15 to 20)
#    0.000    1.000    5.000    2.500    0.000    0.667 
#    0.000    0.000    0.000    0.000    0.000    0.000 
#    0.000    0.000    0.000    0.000    0.000    0.000 
#
# Total GULP energy -133609.712430 kJ/mol
# GULP energy per Si atom -5567.071351 kJ/mol
# Density = 2.391946 g / cm^3
# Si number density = 23.974031 Si / 1000 Ang^3
#
#
#
# Elastic Constant Matrix: (Units=GPa)
#
#
# Indices 1 2 3 4 5 6 
#
# 1 61.0203 16.4203 4.9810 0.0000 -17.0013 0.0000
# 2 16.4203 18.8896 -2.1205 0.0000 -6.6389 0.0000
# 3 4.9810 -2.1205 98.2634 0.0000 -33.9144 0.0000
# 4 0.0000 0.0000 0.0000 17.9449 0.0000 -4.3813
# 5 -17.0013 -6.6389 -33.9144 0.0000 47.0633 0.0000
# 6 0.0000 0.0000 0.0000 -4.3813 0.0000 23.2720
#
#
#
# Elastic Compliance Matrix: (Units=1/GPa)
#
#
# Indices 1 2 3 4 5 6 
#
# 1 0.022791 -0.017569 0.000601 0.000000 0.006188 0.000000
# 2 -0.017569 0.071323 0.004940 0.000000 0.007274 0.000000
# 3 0.000601 0.004940 0.014067 0.000000 0.011051 0.000000
# 4 0.000000 0.000000 0.000000 0.058411 0.000000 0.010997
# 5 0.006188 0.007274 0.011051 0.000000 0.032473 0.000000
# 6 0.000000 0.000000 0.000000 0.010997 0.000000 0.045040
#
#
# Mechanical properties :
#
#
# Convention : Reuss Voigt Hill
#
# Bulk Modulus (GPa) = 11.88700 24.08165 17.98432
# Shear Modulus (GPa) = 16.88038 28.24887 22.56463
#
# Velocity S-wave (km/s) = 2.65639 3.43638 3.07124
# Velocity P-wave (km/s) = 3.79178 5.08051 4.48270
#
# Compressibility (1/GPa) = 0.08412552
#
# Stress axis : x y z
#
# Youngs Moduli (GPa) = 43.87741 14.02075 71.08850
#
# Poissons Ratio (x) = 0.24633 -0.04274
# Poissons Ratio (y) = 0.77089 -0.35120
# Poissons Ratio (z) = -0.02638 -0.06927
#
# Static dielectric constant tensor:
#      x y z
#    x 1.965100 0.000000 -0.048310 
#    y 0.000000 1.878650 0.000000 
#    z -0.048310 0.000000 1.593550 
# 
# From -- ./inp_files/180020.got.cif
#   From: 2010.05.17/outbox.cif.g08.bks.cpg/sg15_91_cif.got.tgz:180020.got - 2010.06.03 18:47:42.
