data_PCOD9294789
_publ_section_title
;
Structure prediction by ZEFSAII (Michael W. Deem and Ramdas Pophale) SiO2 
 PCOD9294789
Probable space group: C 2/C
;
_chemical_formula_sum "Si O2"
_cell_formula_units_Z 52
_cell_length_a 14.792509
_cell_length_b 14.266037
_cell_length_c 14.265374
_cell_angle_alpha 90.000000
_cell_angle_beta 115.583908
_cell_angle_gamma 90.000000
_cell_volume 2715.267773
_symmetry_space_group_name_H-M "C 2/C"
_symmetry_group_IT_number 15
_symmetry_cell_setting 'monoclinic'
loop_
_space_group_symop_operation_xyz
x,y,z
-x,y,1/2-z
-x,-y,-z
x,-y,1/2+z
1/2+x,1/2+y,z
1/2-x,1/2+y,1/2-z
1/2-x,1/2-y,-z
1/2+x,1/2-y,1/2+z
loop_
_atom_site_type_symbol
_atom_site_label
_atom_site_fract_x
_atom_site_fract_y
_atom_site_fract_z
Si Si1 0.341259 0.742828 0.795650
Si Si2 0.235703 0.421732 0.353997
Si Si3 0.396984 0.008429 0.076417
Si Si4 0.627992 0.956302 0.648056
Si Si5 0.500000 0.383960 0.250000
Si Si6 0.751730 0.827518 0.923018
Si Si7 0.589182 0.470090 0.472044
O O1 0.280073 0.673158 0.833892
O O2 0.370501 0.842721 0.853855
O O3 0.429223 0.683185 0.782626
O O4 0.268604 0.777043 0.681910
O O5 0.137480 0.421837 0.374455
O O6 0.207928 0.492968 0.254299
O O7 0.321020 0.459033 0.463866
O O8 0.515782 0.020140 0.132564
O O9 0.336382 0.097321 0.092586
O O10 0.363182 0.995327 0.953583
O O11 0.557735 0.450162 0.350843
O O12 0.750000 0.750000 0.000000
O O13 0.860126 0.874036 0.971939
O O14 0.500000 0.500000 0.500000
#
# Coordination Sequence:
#
# PCOD9294789 Si02
#       7
#     8   8   8   8   4   8   8
#     4  12  23  39  69  98 127 176 226 279 329 402
#     4  11  24  41  63  98 138 171 223 283 338 396
#     4  10  23  41  66  93 132 176 215 281 340 393
#     4  11  23  42  67  97 132 175 223 278 344 402
#     4  12  24  38  68  96 132 174 230 278 334 396
#     4  11  21  39  66  97 123 166 224 272 321 392
#     4  11  23  40  61  94 134 171 211 276 341 391
#
# _framework density 19.150963999999998
#
# number of rings (size 3 to 8) (size 9 to 14) (size 15 to 20)
#    0.000    0.923    6.154    2.308    2.154    0.615 
#    0.000    0.000    0.000    0.000    0.000    0.000 
#    0.000    0.000    0.000    0.000    0.000    0.000 
#
# Total GULP energy -144923.530218 kJ/mol
# GULP energy per Si atom -5573.981931 kJ/mol
# Density = 1.910738 g / cm^3
# Si number density = 19.150964 Si / 1000 Ang^3
#
#
#
# Elastic Constant Matrix: (Units=GPa)
#
#
# Indices 1 2 3 4 5 6 
#
# 1 82.0631 43.1690 5.0561 0.0000 7.5049 0.0000
# 2 43.1690 84.6613 36.7753 0.0000 4.6208 0.0000
# 3 5.0561 36.7753 108.2927 0.0000 16.1816 0.0000
# 4 0.0000 0.0000 0.0000 39.1177 0.0000 -2.7513
# 5 7.5049 4.6208 16.1816 0.0000 16.7910 0.0000
# 6 0.0000 0.0000 0.0000 -2.7513 0.0000 26.1232
#
#
#
# Elastic Compliance Matrix: (Units=1/GPa)
#
#
# Indices 1 2 3 4 5 6 
#
# 1 0.018397 -0.010678 0.004155 0.000000 -0.009288 0.000000
# 2 -0.010678 0.020064 -0.007247 0.000000 0.006235 0.000000
# 3 0.004155 -0.007247 0.013412 0.000000 -0.012788 0.000000
# 4 0.000000 0.000000 0.000000 0.025755 0.000000 0.002713
# 5 -0.009288 0.006235 -0.012788 0.000000 0.074316 0.000000
# 6 0.000000 0.000000 0.000000 0.002713 0.000000 0.038566
#
#
# Mechanical properties :
#
#
# Convention : Reuss Voigt Hill
#
# Bulk Modulus (GPa) = 41.09638 49.44643 45.27141
# Shear Modulus (GPa) = 22.10823 29.07415 25.59119
#
# Velocity S-wave (km/s) = 3.40136 3.90058 3.65949
# Velocity P-wave (km/s) = 6.07712 6.79422 6.44565
#
# Compressibility (1/GPa) = 0.02433305
#
# Stress axis : x y z
#
# Youngs Moduli (GPa) = 54.35796 49.83968 74.55982
#
# Poissons Ratio (x) = 0.53221 -0.30982
# Poissons Ratio (y) = 0.58046 0.54032
# Poissons Ratio (z) = -0.22587 0.36118
#
# Static dielectric constant tensor:
#      x y z
#    x 1.631640 0.000000 0.065930 
#    y 0.000000 1.692000 0.000000 
#    z 0.065930 0.000000 1.665090 
# 
# From -- ./inp_files/154063.got.cif
#   From: 2010.05.17/outbox.cif.g08.bks.cpg/sg15_78_cif.got.tgz:154063.got - 2010.06.03 18:47:42.
