data_PCOD9294556
_publ_section_title
;
Structure prediction by ZEFSAII (Michael W. Deem and Ramdas Pophale) SiO2 
 PCOD9294556
Probable space group: C 2/C
;
_chemical_formula_sum "Si O2"
_cell_formula_units_Z 44
_cell_length_a 23.892034
_cell_length_b 7.156478
_cell_length_c 15.593289
_cell_angle_alpha 90.000000
_cell_angle_beta 129.596639
_cell_angle_gamma 90.000000
_cell_volume 2054.430123
_symmetry_space_group_name_H-M "C 2/C"
_symmetry_group_IT_number 15
_symmetry_cell_setting 'monoclinic'
loop_
_space_group_symop_operation_xyz
x,y,z
-x,y,1/2-z
-x,-y,-z
x,-y,1/2+z
1/2+x,1/2+y,z
1/2-x,1/2+y,1/2-z
1/2-x,1/2-y,-z
1/2+x,1/2-y,1/2+z
loop_
_atom_site_type_symbol
_atom_site_label
_atom_site_fract_x
_atom_site_fract_y
_atom_site_fract_z
Si Si1 0.938466 0.530363 0.013900
Si Si2 0.170063 0.264009 0.669964
Si Si3 0.000000 0.350961 0.750000
Si Si4 0.259356 0.529351 0.997765
Si Si5 0.173093 0.132491 0.116110
Si Si6 0.145211 0.257370 0.831251
O O1 0.977287 0.532004 0.144164
O O2 0.873968 0.377322 0.943734
O O3 0.892330 0.722749 0.958368
O O4 0.000000 0.500000 0.000000
O O5 0.257492 0.281600 0.764500
O O6 0.141897 0.338172 0.733208
O O7 0.148468 0.049695 0.642325
O O8 0.933209 0.221922 0.710014
O O9 0.296608 0.455196 0.944890
O O10 0.183465 0.418725 0.924322
O O11 0.250000 0.750000 0.000000
O O12 0.306392 0.428144 0.116860
#
# Coordination Sequence:
#
# PCOD9294556 Si02
#       6
#     8   8   4   8   8   8
#     4  12  26  48  70 103 151 195 241 307 379 447
#     4  11  24  42  71 105 135 186 245 306 360 441
#     4  12  24  48  68  98 152 196 232 300 378 438
#     4  10  23  40  69 103 133 187 246 303 358 434
#     4  11  24  42  73 104 139 186 246 302 371 434
#     4  10  23  43  65  97 145 181 238 300 358 438
#
# _framework density 21.417131999999999
#
# number of rings (size 3 to 8) (size 9 to 14) (size 15 to 20)
#    0.000    1.091    5.455    0.000    5.091    0.727 
#    0.000    1.818    0.000    0.000    0.000    0.000 
#    0.000    0.000    0.000    0.000    0.000    0.000 
#
# Total GULP energy -122797.593571 kJ/mol
# GULP energy per Si atom -5581.708799 kJ/mol
# Density = 2.136839 g / cm^3
# Si number density = 21.417132 Si / 1000 Ang^3
#
#
#
# Elastic Constant Matrix: (Units=GPa)
#
#
# Indices 1 2 3 4 5 6 
#
# 1 79.7096 24.7598 38.0603 0.0000 17.5193 0.0000
# 2 24.7598 147.6771 59.3123 0.0000 18.6864 0.0000
# 3 38.0603 59.3123 149.8334 0.0000 4.6209 0.0000
# 4 0.0000 0.0000 0.0000 23.7494 0.0000 3.0317
# 5 17.5193 18.6864 4.6209 0.0000 28.9695 0.0000
# 6 0.0000 0.0000 0.0000 3.0317 0.0000 24.7755
#
#
#
# Elastic Compliance Matrix: (Units=1/GPa)
#
#
# Indices 1 2 3 4 5 6 
#
# 1 0.016455 -0.000019 -0.003885 0.000000 -0.009319 0.000000
# 2 -0.000019 0.008746 -0.003300 0.000000 -0.005103 0.000000
# 3 -0.003885 -0.003300 0.008873 0.000000 0.003062 0.000000
# 4 0.000000 0.000000 0.000000 0.042774 0.000000 -0.005234
# 5 -0.009319 -0.005103 0.003062 0.000000 0.042958 0.000000
# 6 0.000000 0.000000 0.000000 -0.005234 0.000000 0.041003
#
#
# Mechanical properties :
#
#
# Convention : Reuss Voigt Hill
#
# Bulk Modulus (GPa) = 50.85087 69.05390 59.95238
# Shear Modulus (GPa) = 27.50711 32.50473 30.00592
#
# Velocity S-wave (km/s) = 3.58767 3.89999 3.74709
# Velocity P-wave (km/s) = 6.39972 7.25205 6.83918
#
# Compressibility (1/GPa) = 0.01966535
#
# Stress axis : x y z
#
# Youngs Moduli (GPa) = 60.77317 114.34010 112.70610
#
# Poissons Ratio (x) = 0.00222 0.43783
# Poissons Ratio (y) = 0.00118 0.37190
# Poissons Ratio (z) = 0.23608 0.37729
#
# Static dielectric constant tensor:
#      x y z
#    x 1.889660 0.000000 -0.088790 
#    y 0.000000 1.759960 0.000000 
#    z -0.088790 0.000000 1.861240 
# 
# From -- ./inp_files/221401.got.cif
#   From: 2010.05.17/outbox.cif.g08.bks.cpg/sg15_111_cif.got.tgz:221401.got - 2010.06.03 18:47:42.
