data_PCOD9294855
_publ_section_title
;
Structure prediction by ZEFSAII (Michael W. Deem and Ramdas Pophale) SiO2 
 PCOD9294855
Probable space group: C 2/C
;
_chemical_formula_sum "Si O2"
_cell_formula_units_Z 64
_cell_length_a 21.931550
_cell_length_b 16.398534
_cell_length_c 17.335350
_cell_angle_alpha 90.000000
_cell_angle_beta 154.294748
_cell_angle_gamma 90.000000
_cell_volume 2704.195728
_symmetry_space_group_name_H-M "C 2/C"
_symmetry_group_IT_number 15
_symmetry_cell_setting 'monoclinic'
loop_
_space_group_symop_operation_xyz
x,y,z
-x,y,1/2-z
-x,-y,-z
x,-y,1/2+z
1/2+x,1/2+y,z
1/2-x,1/2+y,1/2-z
1/2-x,1/2-y,-z
1/2+x,1/2-y,1/2+z
loop_
_atom_site_type_symbol
_atom_site_label
_atom_site_fract_x
_atom_site_fract_y
_atom_site_fract_z
Si Si1 0.297759 0.856791 0.346235
Si Si2 0.403971 0.754988 0.209270
Si Si3 0.789977 0.066526 0.445272
Si Si4 0.657861 0.693394 0.195827
Si Si5 0.433179 0.821976 0.752359
Si Si6 0.826533 0.460349 0.852743
Si Si7 0.449221 0.644320 0.821065
Si Si8 0.930160 0.447201 0.252161
O O1 0.272094 0.775970 0.263113
O O2 0.458787 0.847581 0.556780
O O3 0.203882 0.864927 0.316515
O O4 0.272439 0.946283 0.282236
O O5 0.500000 0.721502 0.250000
O O6 0.410263 0.715008 0.300127
O O7 0.430618 0.850289 0.252057
O O8 0.250000 0.750000 0.000000
O O9 0.722160 0.143027 0.412762
O O10 0.707106 0.073119 0.269851
O O11 0.955170 0.077065 0.614097
O O12 0.723204 0.988190 0.411724
O O13 0.753434 0.612958 0.318358
O O14 0.542155 0.665408 0.002539
O O15 0.500000 0.852644 0.750000
O O16 0.439820 0.725382 0.760958
O O17 0.974955 0.469582 0.065054
O O18 0.000000 0.472099 0.250000
#
# Coordination Sequence:
#
# PCOD9294855 Si02
#       8
#     8   8   8   8   8   8   8   8
#     4  11  24  42  70 101 135 177 225 278 342 396
#     4  11  25  44  68 101 133 180 228 280 340 398
#     4  11  23  40  64 101 129 168 228 279 336 395
#     4  10  23  41  67  98 139 177 223 283 337 405
#     4  11  23  43  67  95 133 180 226 270 333 413
#     4  11  23  42  69 100 132 176 230 275 332 408
#     4  10  24  40  63  99 134 174 219 277 345 402
#     4  11  23  41  70  95 132 176 232 277 329 406
#
# _framework density 23.666926
#
# number of rings (size 3 to 8) (size 9 to 14) (size 15 to 20)
#    0.000    1.250    1.250    5.250    7.000    4.000 
#    2.250    0.000    0.000    0.000    0.000    0.000 
#    0.000    0.000    0.000    0.000    0.000    0.000 
#
# Total GULP energy -178543.267255 kJ/mol
# GULP energy per Si atom -5579.477102 kJ/mol
# Density = 2.361306 g / cm^3
# Si number density = 23.666926 Si / 1000 Ang^3
#
#
#
# Elastic Constant Matrix: (Units=GPa)
#
#
# Indices 1 2 3 4 5 6 
#
# 1 120.8977 12.7036 -1.6707 0.0000 7.2371 -0.0001
# 2 12.7036 77.1073 0.4573 0.0000 1.7877 -0.0002
# 3 -1.6707 0.4573 38.6645 -0.0001 2.7858 -0.0004
# 4 0.0000 0.0000 -0.0001 -60.1518 0.0000 9.9923
# 5 7.2371 1.7877 2.7858 0.0000 44.5947 -0.0002
# 6 -0.0001 -0.0002 -0.0004 9.9923 -0.0002 28.5107
#
#
#
# Elastic Compliance Matrix: (Units=1/GPa)
#
#
# Indices 1 2 3 4 5 6 
#
# 1 0.008503 -0.001372 0.000481 0.000000 -0.001355 0.000000
# 2 -0.001372 0.013203 -0.000194 0.000000 -0.000294 0.000000
# 3 0.000481 -0.000194 0.026009 0.000000 -0.001695 0.000000
# 4 0.000000 0.000000 0.000000 -0.015710 0.000000 0.005506
# 5 -0.001355 -0.000294 -0.001695 0.000000 0.022762 0.000000
# 6 0.000000 0.000000 0.000000 0.005506 0.000000 0.033145
#
#
# Mechanical properties :
#
#
# Convention : Reuss Voigt Hill
#
# Bulk Modulus (GPa) = 21.95654 28.85000 25.40327
# Shear Modulus (GPa) = 47.49957 17.60267 32.55112
#
# Velocity S-wave (km/s) = 4.48482 2.73017 3.71264
# Velocity P-wave (km/s) = 6.00962 4.70690 5.39771
#
# Compressibility (1/GPa) = 0.04554452
#
# Stress axis : x y z
#
# Youngs Moduli (GPa) = 117.59957 75.74026 38.44857
#
# Poissons Ratio (x) = 0.10395 -0.01851
# Poissons Ratio (y) = 0.16139 0.00747
# Poissons Ratio (z) = -0.05660 0.01471
#
# Static dielectric constant tensor:
#      x y z
#    x 1.993350 0.000000 0.092000 
#    y 0.000000 1.919220 0.000000 
#    z 0.092000 0.000000 1.948320 
# 
# From -- ./inp_files/216190.got.cif
#   From: 2010.05.17/outbox.cif.g08.bks.cpg/sg15_109_cif.got.tgz:216190.got - 2010.06.03 18:47:42.
