data_PCOD9294533
_publ_section_title
;
Structure prediction by ZEFSAII (Michael W. Deem and Ramdas Pophale) SiO2 
 PCOD9294533
Probable space group: C 2/C
;
_chemical_formula_sum "Si O2"
_cell_formula_units_Z 40
_cell_length_a 11.003630
_cell_length_b 7.869073
_cell_length_c 19.639246
_cell_angle_alpha 90.000000
_cell_angle_beta 103.450904
_cell_angle_gamma 90.000000
_cell_volume 1653.884029
_symmetry_space_group_name_H-M "C 2/C"
_symmetry_group_IT_number 15
_symmetry_cell_setting 'monoclinic'
loop_
_space_group_symop_operation_xyz
x,y,z
-x,y,1/2-z
-x,-y,-z
x,-y,1/2+z
1/2+x,1/2+y,z
1/2-x,1/2+y,1/2-z
1/2-x,1/2-y,-z
1/2+x,1/2-y,1/2+z
loop_
_atom_site_type_symbol
_atom_site_label
_atom_site_fract_x
_atom_site_fract_y
_atom_site_fract_z
Si Si1 0.652692 0.889737 0.194018
Si Si2 0.815703 0.184145 0.169545
Si Si3 0.605412 0.204642 0.472091
Si Si4 0.412301 0.677441 0.678897
Si Si5 0.927983 0.679612 0.564411
O O1 0.656264 0.833463 0.273078
O O2 0.766838 0.782235 0.175016
O O3 0.525589 0.851239 0.139167
O O4 0.695401 0.081052 0.181423
O O5 0.811983 0.240618 0.090333
O O6 0.915019 0.028531 0.182213
O O7 0.750000 0.250000 0.500000
O O8 0.558550 0.265486 0.392706
O O9 0.511010 0.270989 0.517883
O O10 0.606572 0.000497 0.471690
O O11 0.500000 0.744977 0.750000
#
# Coordination Sequence:
#
# PCOD9294533 Si02
#       5
#     8   8   8   8   8
#     4  10  23  42  66  99 137 175 229 280 343 402
#     4  10  24  41  68 104 135 173 227 281 340 398
#     4  11  24  46  69  98 142 185 223 283 344 404
#     4  10  23  40  68 102 130 177 232 280 343 403
#     4  11  24  44  69  97 138 183 230 275 343 408
#
# _framework density 24.185493999999998
#
# number of rings (size 3 to 8) (size 9 to 14) (size 15 to 20)
#    1.200    0.400    2.000    1.800    5.600    0.800 
#    0.000    9.000    0.000    0.000    0.000    0.000 
#    0.000    0.000    0.000    0.000    0.000    0.000 
#
# Total GULP energy -111654.182443 kJ/mol
# GULP energy per Si atom -5582.709122 kJ/mol
# Density = 2.413045 g / cm^3
# Si number density = 24.185494 Si / 1000 Ang^3
#
#
#
# Elastic Constant Matrix: (Units=GPa)
#
#
# Indices 1 2 3 4 5 6 
#
# 1 76.2150 38.8012 54.2533 0.0000 -19.4579 0.0000
# 2 38.8012 52.7944 31.7596 0.0000 -14.2666 0.0000
# 3 54.2533 31.7596 163.2526 0.0000 -47.6538 0.0000
# 4 0.0000 0.0000 0.0000 40.7499 0.0000 -3.6011
# 5 -19.4579 -14.2666 -47.6538 0.0000 54.2167 0.0000
# 6 0.0000 0.0000 0.0000 -3.6011 0.0000 28.0307
#
#
#
# Elastic Compliance Matrix: (Units=1/GPa)
#
#
# Indices 1 2 3 4 5 6 
#
# 1 0.024354 -0.014718 -0.005124 0.000000 0.000364 0.000000
# 2 -0.014718 0.030636 -0.000346 0.000000 0.002475 0.000000
# 3 -0.005124 -0.000346 0.009863 0.000000 0.006739 0.000000
# 4 0.000000 0.000000 0.000000 0.024822 0.000000 0.003189
# 5 0.000364 0.002475 0.006739 0.000000 0.025149 0.000000
# 6 0.000000 0.000000 0.000000 0.003189 0.000000 0.036085
#
#
# Mechanical properties :
#
#
# Convention : Reuss Voigt Hill
#
# Bulk Modulus (GPa) = 40.85721 60.21002 50.53362
# Shear Modulus (GPa) = 25.06958 35.76267 30.41612
#
# Velocity S-wave (km/s) = 3.22305 3.84954 3.55014
# Velocity P-wave (km/s) = 5.54803 6.68638 6.14363
#
# Compressibility (1/GPa) = 0.02447548
#
# Stress axis : x y z
#
# Youngs Moduli (GPa) = 41.06032 32.64152 101.39132
#
# Poissons Ratio (x) = 0.48043 0.51954
# Poissons Ratio (y) = 0.60435 0.03510
# Poissons Ratio (z) = 0.21040 0.01130
#
# Static dielectric constant tensor:
#      x y z
#    x 1.960990 0.000000 -0.041770 
#    y 0.000000 1.983480 0.000000 
#    z -0.041770 0.000000 1.912850 
# 
# From -- ./inp_files/235845.got.cif
#   From: 2010.05.17/outbox.cif.g08.bks.cpg/sg15_118_cif.got.tgz:235845.got - 2010.06.03 18:47:42.
