data_PCOD9294134
_publ_section_title
;
Structure prediction by ZEFSAII (Michael W. Deem and Ramdas Pophale) SiO2 
 PCOD9294134
Probable space group: C 2/C
;
_chemical_formula_sum "Si O2"
_cell_formula_units_Z 56
_cell_length_a 8.055962
_cell_length_b 14.116275
_cell_length_c 19.934804
_cell_angle_alpha 90.000000
_cell_angle_beta 95.200027
_cell_angle_gamma 90.000000
_cell_volume 2257.659278
_symmetry_space_group_name_H-M "C 2/C"
_symmetry_group_IT_number 15
_symmetry_cell_setting 'monoclinic'
loop_
_space_group_symop_operation_xyz
x,y,z
-x,y,1/2-z
-x,-y,-z
x,-y,1/2+z
1/2+x,1/2+y,z
1/2-x,1/2+y,1/2-z
1/2-x,1/2-y,-z
1/2+x,1/2-y,1/2+z
loop_
_atom_site_type_symbol
_atom_site_label
_atom_site_fract_x
_atom_site_fract_y
_atom_site_fract_z
Si Si1 0.642862 0.305604 0.707444
Si Si2 0.588938 0.565023 0.079089
Si Si3 0.051152 0.088581 0.828948
Si Si4 0.590868 0.202062 0.169921
Si Si5 0.070921 0.414129 0.180252
Si Si6 0.751040 0.844611 0.543149
Si Si7 0.057121 0.545495 0.424612
O O1 0.500000 0.347701 0.750000
O O2 0.632934 0.359508 0.638089
O O3 0.814673 0.306384 0.756001
O O4 0.595227 0.197288 0.691098
O O5 0.548535 0.470987 0.119875
O O6 0.421870 0.599669 0.037337
O O7 0.757302 0.561362 0.042576
O O8 0.008124 0.199133 0.840947
O O9 0.243297 0.054655 0.835259
O O10 0.000000 0.073305 0.750000
O O11 0.737425 0.194132 0.119233
O O12 0.479922 0.114505 0.141346
O O13 0.000000 0.448544 0.250000
O O14 0.958330 0.445327 0.113846
O O15 0.750000 0.750000 0.500000
O O16 0.589192 0.914741 0.532508
#
# Coordination Sequence:
#
# PCOD9294134 Si02
#       7
#     8   8   8   8   8   8   8
#     4  11  21  36  59  94 128 165 200 244 318 384
#     4  12  24  38  68  93 127 167 206 257 322 378
#     4  12  22  36  59  95 135 168 201 244 317 386
#     4  10  23  39  60  92 129 165 206 258 312 380
#     4  11  23  36  57  92 139 166 196 249 307 387
#     4  10  24  47  66  87 121 165 219 273 313 362
#     4  10  24  39  61  94 122 166 208 259 310 374
#
# _framework density 24.804452999999999
#
# number of rings (size 3 to 8) (size 9 to 14) (size 15 to 20)
#    0.857    0.286    4.286    2.143    6.000    0.571 
#    0.000    0.714    0.000    1.714    0.000    0.000 
#    0.000    0.000    0.000    0.000    0.000    0.000 
#
# Total GULP energy -156575.759326 kJ/mol
# GULP energy per Si atom -5591.991405 kJ/mol
# Density = 2.474800 g / cm^3
# Si number density = 24.804453 Si / 1000 Ang^3
#
#
#
# Elastic Constant Matrix: (Units=GPa)
#
#
# Indices 1 2 3 4 5 6 
#
# 1 191.5037 16.9226 20.4339 0.0000 -12.9372 0.0000
# 2 16.9226 54.6255 25.0573 0.0000 -6.8118 0.0000
# 3 20.4339 25.0573 81.1999 0.0000 -7.4957 0.0000
# 4 0.0000 0.0000 0.0000 46.2453 0.0000 -3.0242
# 5 -12.9372 -6.8118 -7.4957 0.0000 30.9488 0.0000
# 6 0.0000 0.0000 0.0000 -3.0242 0.0000 29.8497
#
#
#
# Elastic Compliance Matrix: (Units=1/GPa)
#
#
# Indices 1 2 3 4 5 6 
#
# 1 0.005538 -0.001075 -0.000890 0.000000 0.001863 0.000000
# 2 -0.001075 0.021842 -0.006206 0.000000 0.002855 0.000000
# 3 -0.000890 -0.006206 0.014621 0.000000 0.001803 0.000000
# 4 0.000000 0.000000 0.000000 0.021768 0.000000 0.002205
# 5 0.001863 0.002855 0.001803 0.000000 0.034155 0.000000
# 6 0.000000 0.000000 0.000000 0.002205 0.000000 0.033725
#
#
# Mechanical properties :
#
#
# Convention : Reuss Voigt Hill
#
# Bulk Modulus (GPa) = 38.97324 50.23962 44.60643
# Shear Modulus (GPa) = 31.93997 39.06979 35.50488
#
# Velocity S-wave (km/s) = 3.59231 3.97307 3.78748
# Velocity P-wave (km/s) = 5.74043 6.43003 6.09499
#
# Compressibility (1/GPa) = 0.02565863
#
# Stress axis : x y z
#
# Youngs Moduli (GPa) = 180.58310 45.78254 68.39557
#
# Poissons Ratio (x) = 0.04922 0.06086
# Poissons Ratio (y) = 0.19414 0.42448
# Poissons Ratio (z) = 0.16069 0.28414
#
# Static dielectric constant tensor:
#      x y z
#    x 2.052610 0.000000 -0.033930 
#    y 0.000000 1.972160 0.000000 
#    z -0.033930 0.000000 2.031750 
# 
# From -- ./inp_files/231592.got.cif
#   From: 2010.05.17/outbox.cif.g08.bks.cpg/sg15_116_cif.got.tgz:231592.got - 2010.06.03 18:47:42.
