data_PCOD9294598
_publ_section_title
;
Structure prediction by ZEFSAII (Michael W. Deem and Ramdas Pophale) SiO2 
 PCOD9294598
Probable space group: C 2/C
;
_chemical_formula_sum "Si O2"
_cell_formula_units_Z 52
_cell_length_a 11.194371
_cell_length_b 9.781167
_cell_length_c 28.595565
_cell_angle_alpha 90.000000
_cell_angle_beta 125.963429
_cell_angle_gamma 90.000000
_cell_volume 2534.241283
_symmetry_space_group_name_H-M "C 2/C"
_symmetry_group_IT_number 15
_symmetry_cell_setting 'monoclinic'
loop_
_space_group_symop_operation_xyz
x,y,z
-x,y,1/2-z
-x,-y,-z
x,-y,1/2+z
1/2+x,1/2+y,z
1/2-x,1/2+y,1/2-z
1/2-x,1/2-y,-z
1/2+x,1/2-y,1/2+z
loop_
_atom_site_type_symbol
_atom_site_label
_atom_site_fract_x
_atom_site_fract_y
_atom_site_fract_z
Si Si1 0.000000 0.125057 0.750000
Si Si2 0.967459 0.089829 0.928635
Si Si3 0.994071 0.251801 0.848650
Si Si4 0.773263 0.089719 0.443189
Si Si5 0.301861 0.998226 0.848646
Si Si6 0.431536 0.839822 0.071290
Si Si7 0.806174 0.339685 0.943129
O O1 0.980180 0.217486 0.791428
O O2 0.855880 0.032619 0.708587
O O3 0.961496 0.118362 0.872621
O O4 0.872700 0.211923 0.930092
O O5 0.892546 0.952776 0.931150
O O6 0.129574 0.109882 0.987984
O O7 0.886468 0.375011 0.840985
O O8 0.161342 0.295402 0.900424
O O9 0.667685 0.961967 0.430257
O O10 0.406434 0.131608 0.872664
O O11 0.289808 0.954631 0.900392
O O12 0.349139 0.702768 0.068826
O O13 0.415707 0.859718 0.011960
#
# Coordination Sequence:
#
# PCOD9294598 Si02
#       7
#     4   8   8   8   8   8   8
#     4  12  28  40  60  84 104 168 216 224 296 340
#     4   9  18  33  57  88 116 146 181 229 298 352
#     4  10  23  41  56  80 116 148 194 246 278 336
#     4   9  18  33  57  88 116 146 181 229 298 352
#     4  10  23  41  56  80 116 148 194 246 278 336
#     4   9  18  33  57  88 116 146 181 229 298 352
#     4   9  18  33  57  88 116 146 181 229 298 352
#
# _framework density 20.518961999999998
#
# number of rings (size 3 to 8) (size 9 to 14) (size 15 to 20)
#    0.000    2.462    0.000    0.923    4.308    2.462 
#    0.000    0.000    0.000    0.000    0.000    0.000 
#    0.000    0.000    0.000    0.000    0.000    0.000 
#
# Total GULP energy -145161.248887 kJ/mol
# GULP energy per Si atom -5583.124957 kJ/mol
# Density = 2.047226 g / cm^3
# Si number density = 20.518962 Si / 1000 Ang^3
#
#
#
# Elastic Constant Matrix: (Units=GPa)
#
#
# Indices 1 2 3 4 5 6 
#
# 1 90.7435 24.1451 69.5362 0.0000 2.9774 0.0000
# 2 24.1451 35.6666 26.9251 0.0000 0.1349 0.0000
# 3 69.5362 26.9251 122.7531 0.0000 -1.3558 0.0000
# 4 0.0000 0.0000 0.0000 12.4920 0.0000 -0.2621
# 5 2.9774 0.1349 -1.3558 0.0000 36.3344 0.0000
# 6 0.0000 0.0000 0.0000 -0.2621 0.0000 17.6956
#
#
#
# Elastic Compliance Matrix: (Units=1/GPa)
#
#
# Indices 1 2 3 4 5 6 
#
# 1 0.020689 -0.006152 -0.010393 0.000000 -0.002060 0.000000
# 2 -0.006152 0.035436 -0.004285 0.000000 0.000213 0.000000
# 3 -0.010393 -0.004285 0.014989 0.000000 0.001427 0.000000
# 4 0.000000 0.000000 0.000000 0.080076 0.000000 0.001186
# 5 -0.002060 0.000213 0.001427 0.000000 0.027743 0.000000
# 6 0.000000 0.000000 0.000000 0.001186 0.000000 0.056529
#
#
# Mechanical properties :
#
#
# Convention : Reuss Voigt Hill
#
# Bulk Modulus (GPa) = 33.95144 54.48620 44.21882
# Shear Modulus (GPa) = 17.42514 21.87485 19.65000
#
# Velocity S-wave (km/s) = 2.91730 3.26863 3.09795
# Velocity P-wave (km/s) = 5.28487 6.39195 5.86459
#
# Compressibility (1/GPa) = 0.02945383
#
# Stress axis : x y z
#
# Youngs Moduli (GPa) = 48.33583 28.21954 66.71365
#
# Poissons Ratio (x) = 0.17361 0.69335
# Poissons Ratio (y) = 0.29736 0.28590
# Poissons Ratio (z) = 0.50235 0.12093
#
# Static dielectric constant tensor:
#      x y z
#    x 1.790180 0.000000 -0.007280 
#    y 0.000000 1.763190 0.000000 
#    z -0.007280 0.000000 1.669270 
# 
# From -- ./inp_files/269316.got.cif
#   From: 2010.05.17/outbox.cif.g08.bks.cpg/sg15_135_cif.got.tgz:269316.got - 2010.06.03 18:47:42.
