data_PCOD9294498
_publ_section_title
;
Structure prediction by ZEFSAII (Michael W. Deem and Ramdas Pophale) SiO2 
 PCOD9294498
Probable space group: C 2/C
;
_chemical_formula_sum "Si O2"
_cell_formula_units_Z 64
_cell_length_a 20.227296
_cell_length_b 9.445838
_cell_length_c 20.211324
_cell_angle_alpha 90.000000
_cell_angle_beta 136.563023
_cell_angle_gamma 90.000000
_cell_volume 2655.102787
_symmetry_space_group_name_H-M "C 2/C"
_symmetry_group_IT_number 15
_symmetry_cell_setting 'monoclinic'
loop_
_space_group_symop_operation_xyz
x,y,z
-x,y,1/2-z
-x,-y,-z
x,-y,1/2+z
1/2+x,1/2+y,z
1/2-x,1/2+y,1/2-z
1/2-x,1/2-y,-z
1/2+x,1/2-y,1/2+z
loop_
_atom_site_type_symbol
_atom_site_label
_atom_site_fract_x
_atom_site_fract_y
_atom_site_fract_z
Si Si1 0.392204 0.767786 0.166352
Si Si2 0.822168 0.296697 0.677328
Si Si3 0.637957 0.215461 0.706108
Si Si4 0.373744 0.440660 0.126148
Si Si5 0.905078 0.762790 0.024243
Si Si6 0.154738 0.525339 0.432064
Si Si7 0.469223 0.159376 0.497379
Si Si8 0.795670 0.580274 0.297667
O O1 0.500000 0.823991 0.250000
O O2 0.346359 0.797800 0.204358
O O3 0.396670 0.602154 0.155403
O O4 0.346516 0.858024 0.074549
O O5 0.877280 0.154915 0.694546
O O6 0.705196 0.283517 0.582582
O O7 0.860542 0.409747 0.651716
O O8 0.839855 0.348859 0.763820
O O9 0.525579 0.201877 0.604933
O O10 0.687246 0.364127 0.723395
O O11 0.690007 0.087403 0.703398
O O12 0.421476 0.372562 0.095885
O O13 0.261574 0.429925 0.027841
O O14 0.909779 0.607590 0.062366
O O15 0.980631 0.762481 0.020067
O O16 0.355277 0.145385 0.402944
O O17 0.500000 0.000000 0.500000
#
# Coordination Sequence:
#
# PCOD9294498 Si02
#       8
#     8   8   8   8   8   8   8   8
#     4  12  26  41  59  91 138 171 211 274 328 380
#     4   9  17  38  67  93 125 164 221 265 328 389
#     4  11  26  47  65  99 135 170 227 268 327 402
#     4   9  21  38  63  95 126 173 211 268 329 387
#     4   9  18  38  68  95 128 161 222 280 315 393
#     4   9  19  37  65  93 121 171 215 269 322 387
#     4  10  23  40  67 101 129 170 225 276 326 390
#     4  11  23  43  70  94 129 181 212 274 331 390
#
# _framework density 24.104527999999998
#
# number of rings (size 3 to 8) (size 9 to 14) (size 15 to 20)
#    0.000    2.000    2.500    1.875    5.250    2.000 
#    2.250    3.125    0.000    0.000    0.000    0.000 
#    0.000    0.000    0.000    0.000    0.000    0.000 
#
# Total GULP energy -178767.120626 kJ/mol
# GULP energy per Si atom -5586.472520 kJ/mol
# Density = 2.404967 g / cm^3
# Si number density = 24.104528 Si / 1000 Ang^3
#
#
#
# Elastic Constant Matrix: (Units=GPa)
#
#
# Indices 1 2 3 4 5 6 
#
# 1 41.8170 9.8427 1.5056 0.0000 -3.9171 0.0000
# 2 9.8427 82.3258 15.3541 0.0000 1.7567 0.0000
# 3 1.5056 15.3541 83.0120 0.0000 2.6160 0.0000
# 4 0.0000 0.0000 0.0000 16.0182 0.0000 -31.5927
# 5 -3.9171 1.7567 2.6160 0.0000 27.6125 0.0000
# 6 0.0000 0.0000 0.0000 -31.5927 0.0000 -32.5896
#
#
#
# Elastic Compliance Matrix: (Units=1/GPa)
#
#
# Indices 1 2 3 4 5 6 
#
# 1 0.024986 -0.003066 -0.000004 0.000000 0.003740 0.000000
# 2 -0.003066 0.012966 -0.002310 0.000000 -0.001041 0.000000
# 3 -0.000004 -0.002310 0.012506 0.000000 -0.001038 0.000000
# 4 0.000000 0.000000 0.000000 0.021439 0.000000 -0.020783
# 5 0.003740 -0.001041 -0.001038 0.000000 0.036911 0.000000
# 6 0.000000 0.000000 0.000000 -0.020783 0.000000 -0.010537
#
#
# Mechanical properties :
#
#
# Convention : Reuss Voigt Hill
#
# Bulk Modulus (GPa) = 25.18974 28.95107 27.07040
# Shear Modulus (GPa) = 40.89514 14.23839 27.56677
#
# Velocity S-wave (km/s) = 4.12342 2.43306 3.38544
# Velocity P-wave (km/s) = 5.75700 4.46427 5.15135
#
# Compressibility (1/GPa) = 0.03969870
#
# Stress axis : x y z
#
# Youngs Moduli (GPa) = 40.02253 77.12195 79.95850
#
# Poissons Ratio (x) = 0.23648 0.00031
# Poissons Ratio (y) = 0.12272 0.18470
# Poissons Ratio (z) = 0.00015 0.17814
#
# Static dielectric constant tensor:
#      x y z
#    x 1.912830 0.000000 0.008270 
#    y 0.000000 1.901380 0.000000 
#    z 0.008270 0.000000 1.974620 
# 
# From -- ./inp_files/255059.got.cif
#   From: 2010.05.17/outbox.cif.g08.bks.cpg/sg15_128_cif.got.tgz:255059.got - 2010.06.03 18:47:42.
