data_PCOD9294736
_publ_section_title
;
Structure prediction by ZEFSAII (Michael W. Deem and Ramdas Pophale) SiO2 
 PCOD9294736
Probable space group: C 2/C
;
_chemical_formula_sum "Si O2"
_cell_formula_units_Z 64
_cell_length_a 31.638426
_cell_length_b 8.723883
_cell_length_c 14.205971
_cell_angle_alpha 90.000000
_cell_angle_beta 138.841517
_cell_angle_gamma 90.000000
_cell_volume 2580.575712
_symmetry_space_group_name_H-M "C 2/C"
_symmetry_group_IT_number 15
_symmetry_cell_setting 'monoclinic'
loop_
_space_group_symop_operation_xyz
x,y,z
-x,y,1/2-z
-x,-y,-z
x,-y,1/2+z
1/2+x,1/2+y,z
1/2-x,1/2+y,1/2-z
1/2-x,1/2-y,-z
1/2+x,1/2-y,1/2+z
loop_
_atom_site_type_symbol
_atom_site_label
_atom_site_fract_x
_atom_site_fract_y
_atom_site_fract_z
Si Si1 0.861223 0.197654 0.746090
Si Si2 0.622817 0.359580 0.735829
Si Si3 0.423214 0.575489 0.131486
Si Si4 0.796045 0.592045 0.270735
Si Si5 0.575420 0.081422 0.928326
Si Si6 0.726253 0.223147 0.789155
Si Si7 0.498328 0.168292 0.535306
Si Si8 0.124960 0.261305 0.949790
O O1 0.803638 0.279261 0.705102
O O2 0.855014 0.236017 0.625106
O O3 0.861794 0.023009 0.782929
O O4 0.933964 0.248359 0.894337
O O5 0.605420 0.408783 0.812089
O O6 0.684162 0.259857 0.809967
O O7 0.558965 0.265494 0.603119
O O8 0.500000 0.574115 0.250000
O O9 0.402529 0.742965 0.058011
O O10 0.405425 0.402580 0.069453
O O11 0.870743 0.539644 0.401505
O O12 0.776496 0.649293 0.341794
O O13 0.750819 0.451758 0.164901
O O14 0.507207 0.126076 0.862367
O O15 0.582414 0.919765 0.883553
O O16 0.682863 0.221596 0.621009
O O17 0.500000 0.000000 0.500000
#
# Coordination Sequence:
#
# PCOD9294736 Si02
#       8
#     8   8   8   8   8   8   8   8
#     4  10  23  41  65  92 131 167 213 269 323 388
#     4  11  23  40  62  95 128 168 218 262 320 390
#     4  11  24  41  65  98 132 174 215 263 331 381
#     4  10  23  43  67  95 120 172 218 264 336 375
#     4  10  23  42  65  92 134 170 213 273 317 389
#     4  11  24  43  69  93 127 169 219 271 322 394
#     4  11  22  38  62  94 127 172 215 260 329 384
#     4  10  25  41  64  98 132 170 215 267 328 386
#
# _framework density 24.800667000000001
#
# number of rings (size 3 to 8) (size 9 to 14) (size 15 to 20)
#    0.000    1.500    1.250    3.375    8.750    5.000 
#    0.000    1.875    0.000    0.000    0.000    0.000 
#    0.000    0.000    0.000    0.000    0.000    0.000 
#
# Total GULP energy -178223.514260 kJ/mol
# GULP energy per Si atom -5569.484821 kJ/mol
# Density = 2.474422 g / cm^3
# Si number density = 24.800667 Si / 1000 Ang^3
#
#
#
# Elastic Constant Matrix: (Units=GPa)
#
#
# Indices 1 2 3 4 5 6 
#
# 1 120.0156 21.0654 -3.7156 0.0000 1.3387 0.0000
# 2 21.0654 161.8476 8.9685 0.0000 -0.5308 0.0000
# 3 -3.7156 8.9685 35.6707 0.0000 7.0245 0.0000
# 4 0.0000 0.0000 0.0000 16.4902 0.0000 -4.3988
# 5 1.3387 -0.5308 7.0245 0.0000 26.2110 0.0000
# 6 0.0000 0.0000 0.0000 -4.3988 0.0000 45.6032
#
#
#
# Elastic Compliance Matrix: (Units=1/GPa)
#
#
# Indices 1 2 3 4 5 6 
#
# 1 0.008594 -0.001197 0.001359 0.000000 -0.000827 0.000000
# 2 -0.001197 0.006441 -0.001881 0.000000 0.000696 0.000000
# 3 0.001359 -0.001881 0.030267 0.000000 -0.008219 0.000000
# 4 0.000000 0.000000 0.000000 0.062244 0.000000 0.006004
# 5 -0.000827 0.000696 -0.008219 0.000000 0.040411 0.000000
# 6 0.000000 0.000000 0.000000 0.006004 0.000000 0.022507
#
#
# Mechanical properties :
#
#
# Convention : Reuss Voigt Hill
#
# Bulk Modulus (GPa) = 23.88666 41.13008 32.50837
# Shear Modulus (GPa) = 26.61616 37.07525 31.84571
#
# Velocity S-wave (km/s) = 3.27953 3.87063 3.58727
# Velocity P-wave (km/s) = 4.89825 6.04946 5.50403
#
# Compressibility (1/GPa) = 0.04186438
#
# Stress axis : x y z
#
# Youngs Moduli (GPa) = 116.36611 155.25779 33.03901
#
# Poissons Ratio (x) = 0.18577 -0.04490
# Poissons Ratio (y) = 0.13923 0.06215
# Poissons Ratio (z) = -0.15813 0.29205
#
# Static dielectric constant tensor:
#      x y z
#    x 2.065780 0.000000 -0.016670 
#    y 0.000000 2.143000 0.000000 
#    z -0.016670 0.000000 2.110610 
# 
# From -- ./inp_files/181178.got.cif
#   From: 2010.05.17/outbox.cif.g08.bks.cpg/sg15_91_cif.got.tgz:181178.got - 2010.06.03 18:47:42.
