data_PCOD9294871
_publ_section_title
;
Structure prediction by ZEFSAII (Michael W. Deem and Ramdas Pophale) SiO2 
 PCOD9294871
Probable space group: C 2/C
;
_chemical_formula_sum "Si O2"
_cell_formula_units_Z 44
_cell_length_a 14.028574
_cell_length_b 5.119231
_cell_length_c 24.854940
_cell_angle_alpha 90.000000
_cell_angle_beta 107.899940
_cell_angle_gamma 90.000000
_cell_volume 1698.568242
_symmetry_space_group_name_H-M "C 2/C"
_symmetry_group_IT_number 15
_symmetry_cell_setting 'monoclinic'
loop_
_space_group_symop_operation_xyz
x,y,z
-x,y,1/2-z
-x,-y,-z
x,-y,1/2+z
1/2+x,1/2+y,z
1/2-x,1/2+y,1/2-z
1/2-x,1/2-y,-z
1/2+x,1/2-y,1/2+z
loop_
_atom_site_type_symbol
_atom_site_label
_atom_site_fract_x
_atom_site_fract_y
_atom_site_fract_z
Si Si1 0.580972 0.246393 0.451089
Si Si2 0.696002 0.496149 0.823516
Si Si3 0.420410 0.025143 0.340810
Si Si4 0.565314 0.648448 0.060999
Si Si5 0.223436 0.486868 0.395433
Si Si6 0.000000 0.258088 0.250000
O O1 0.494292 0.197485 0.390769
O O2 0.547860 0.543470 0.458757
O O3 0.581892 0.156677 0.513638
O O4 0.675423 0.122068 0.439017
O O5 0.802080 0.408413 0.814622
O O6 0.702277 0.794553 0.845118
O O7 0.597581 0.426871 0.772798
O O8 0.683998 0.296643 0.872002
O O9 0.418006 0.775148 0.378723
O O10 0.474164 0.945287 0.295504
O O11 0.659147 0.454426 0.074433
#
# Coordination Sequence:
#
# PCOD9294871 Si02
#       6
#     8   8   8   8   8   4
#     4  11  21  41  71 102 144 189 232 293 363 439
#     4  11  26  47  72 103 142 187 242 304 358 434
#     4  11  24  46  69 102 144 185 247 297 367 433
#     4  10  23  41  68 105 143 188 235 295 361 439
#     4  11  23  46  70 105 144 184 239 292 363 435
#     4  12  26  50  74 104 144 200 246 316 370 436
#
# _framework density 25.904167999999999
#
# number of rings (size 3 to 8) (size 9 to 14) (size 15 to 20)
#    0.000    1.091    3.636    2.182    0.000    3.636 
#    6.545    2.727    0.000    0.000    0.000    0.000 
#    0.000    0.000    0.000    0.000    0.000    0.000 
#
# Total GULP energy -122716.085577 kJ/mol
# GULP energy per Si atom -5578.003890 kJ/mol
# Density = 2.584521 g / cm^3
# Si number density = 25.904168 Si / 1000 Ang^3
#
#
#
# Elastic Constant Matrix: (Units=GPa)
#
#
# Indices 1 2 3 4 5 6 
#
# 1 125.1603 11.6356 53.0792 0.0000 -15.2983 0.0000
# 2 11.6356 54.2720 4.8546 0.0000 10.5796 0.0000
# 3 53.0792 4.8546 127.7783 0.0000 -4.4749 0.0000
# 4 0.0000 0.0000 0.0000 21.5245 0.0000 9.0553
# 5 -15.2983 10.5796 -4.4749 0.0000 54.0699 0.0000
# 6 0.0000 0.0000 0.0000 9.0553 0.0000 35.7817
#
#
#
# Elastic Compliance Matrix: (Units=1/GPa)
#
#
# Indices 1 2 3 4 5 6 
#
# 1 0.010325 -0.002445 -0.004089 0.000000 0.003061 0.000000
# 2 -0.002445 0.019830 0.000102 0.000000 -0.004563 0.000000
# 3 -0.004089 0.000102 0.009507 0.000000 -0.000390 0.000000
# 4 0.000000 0.000000 0.000000 0.051994 0.000000 -0.013158
# 5 0.003061 -0.004563 -0.000390 0.000000 0.020221 0.000000
# 6 0.000000 0.000000 0.000000 -0.013158 0.000000 0.031277
#
#
# Mechanical properties :
#
#
# Convention : Reuss Voigt Hill
#
# Bulk Modulus (GPa) = 37.31370 49.59436 43.45403
# Shear Modulus (GPa) = 30.31193 38.11799 34.21496
#
# Velocity S-wave (km/s) = 3.42447 3.84018 3.63826
# Velocity P-wave (km/s) = 5.48377 6.23294 5.87032
#
# Compressibility (1/GPa) = 0.02679981
#
# Stress axis : x y z
#
# Youngs Moduli (GPa) = 96.84913 50.42808 105.18447
#
# Poissons Ratio (x) = 0.12328 0.43011
# Poissons Ratio (y) = 0.23677 -0.01076
# Poissons Ratio (z) = 0.39602 -0.00516
#
# Static dielectric constant tensor:
#      x y z
#    x 2.058010 0.000000 0.041950 
#    y 0.000000 2.186410 0.000000 
#    z 0.041950 0.000000 2.155000 
# 
# From -- ./inp_files/294216.got.cif
#   From: 2010.05.17/outbox.cif.g08.bks.cpg/sg15_148_cif.got.tgz:294216.got - 2010.06.03 18:47:42.
