data_PCOD9294679
_publ_section_title
;
Structure prediction by ZEFSAII (Michael W. Deem and Ramdas Pophale) SiO2 
 PCOD9294679
Probable space group: C 2/C
;
_chemical_formula_sum "Si O2"
_cell_formula_units_Z 32
_cell_length_a 17.699161
_cell_length_b 7.757684
_cell_length_c 9.193130
_cell_angle_alpha 90.000000
_cell_angle_beta 123.402518
_cell_angle_gamma 90.000000
_cell_volume 1053.762940
_symmetry_space_group_name_H-M "C 2/C"
_symmetry_group_IT_number 15
_symmetry_cell_setting 'monoclinic'
loop_
_space_group_symop_operation_xyz
x,y,z
-x,y,1/2-z
-x,-y,-z
x,-y,1/2+z
1/2+x,1/2+y,z
1/2-x,1/2+y,1/2-z
1/2-x,1/2-y,-z
1/2+x,1/2-y,1/2+z
loop_
_atom_site_type_symbol
_atom_site_label
_atom_site_fract_x
_atom_site_fract_y
_atom_site_fract_z
Si Si1 0.925141 0.731173 0.063548
Si Si2 0.844359 0.612668 0.608481
Si Si3 0.443856 0.667730 0.998480
Si Si4 0.221228 0.985231 0.725404
O O1 0.000000 0.815434 0.250000
O O2 0.984662 0.693610 0.982512
O O3 0.895518 0.558605 0.110033
O O4 0.841465 0.858228 0.938521
O O5 0.905613 0.773872 0.616148
O O6 0.804656 0.561516 0.723195
O O7 0.756349 0.606138 0.407162
O O8 0.348376 0.640527 0.813330
O O9 0.500000 0.500000 0.000000
#
# Coordination Sequence:
#
# PCOD9294679 Si02
#       4
#     8   8   8   8
#     4  11  23  43  68 100 143 187 228 287 357 421
#     4  12  23  43  70 102 138 185 234 290 351 421
#     4  10  23  41  63  98 137 177 229 289 346 409
#     4  11  24  43  70 102 140 185 235 288 351 423
#
# _framework density 30.367360000000001
#
# number of rings (size 3 to 8) (size 9 to 14) (size 15 to 20)
#    0.000    1.000    0.000    6.750    0.000    0.000 
#    0.000   17.500    0.000    0.000    0.000    0.000 
#    0.000    0.000    0.000    0.000    0.000    0.000 
#
# Total GULP energy -89581.685957 kJ/mol
# GULP energy per Si atom -5598.855372 kJ/mol
# Density = 3.029824 g / cm^3
# Si number density = 30.367360 Si / 1000 Ang^3
#
#
#
# Elastic Constant Matrix: (Units=GPa)
#
#
# Indices 1 2 3 4 5 6 
#
# 1 297.5992 67.4864 31.0418 0.0000 3.9270 0.0000
# 2 67.4864 155.8140 14.0669 0.0000 0.0448 0.0000
# 3 31.0418 14.0669 138.8349 0.0000 2.9917 0.0000
# 4 0.0000 0.0000 0.0000 44.1547 0.0000 0.1972
# 5 3.9270 0.0448 2.9917 0.0000 60.6818 0.0000
# 6 0.0000 0.0000 0.0000 0.1972 0.0000 56.0638
#
#
#
# Elastic Compliance Matrix: (Units=1/GPa)
#
#
# Indices 1 2 3 4 5 6 
#
# 1 0.003793 -0.001581 -0.000683 0.000000 -0.000211 0.000000
# 2 -0.001581 0.007136 -0.000372 0.000000 0.000115 0.000000
# 3 -0.000683 -0.000372 0.007400 0.000000 -0.000320 0.000000
# 4 0.000000 0.000000 0.000000 0.022648 0.000000 -0.000080
# 5 -0.000211 0.000115 -0.000320 0.000000 0.016509 0.000000
# 6 0.000000 0.000000 0.000000 -0.000080 0.000000 0.017837
#
#
# Mechanical properties :
#
#
# Convention : Reuss Voigt Hill
#
# Bulk Modulus (GPa) = 76.59003 90.82646 83.70824
# Shear Modulus (GPa) = 58.85963 64.15694 61.50829
#
# Velocity S-wave (km/s) = 4.40734 4.60139 4.50541
# Velocity P-wave (km/s) = 7.15370 7.62919 7.39527
#
# Compressibility (1/GPa) = 0.01305653
#
# Stress axis : x y z
#
# Youngs Moduli (GPa) = 263.65773 140.13011 135.13188
#
# Poissons Ratio (x) = 0.22154 0.09234
# Poissons Ratio (y) = 0.41684 0.05028
# Poissons Ratio (z) = 0.18016 0.05213
#
# Static dielectric constant tensor:
#      x y z
#    x 2.395420 0.000000 -0.014900 
#    y 0.000000 2.519610 0.000000 
#    z -0.014900 0.000000 2.545940 
# 
# From -- ./inp_files/102386.got.cif
#   From: 2010.05.17/outbox.cif.g08.bks.cpg/sg15_52_cif.got.tgz:102386.got - 2010.06.03 18:47:42.
