data_PCOD9294420
_publ_section_title
;
Structure prediction by ZEFSAII (Michael W. Deem and Ramdas Pophale) SiO2 
 PCOD9294420
Probable space group: C 2/C
;
_chemical_formula_sum "Si O2"
_cell_formula_units_Z 52
_cell_length_a 16.410495
_cell_length_b 29.200077
_cell_length_c 7.570507
_cell_angle_alpha 90.000000
_cell_angle_beta 42.290271
_cell_angle_gamma 90.000000
_cell_volume 2441.027794
_symmetry_space_group_name_H-M "C 2/C"
_symmetry_group_IT_number 15
_symmetry_cell_setting 'monoclinic'
loop_
_space_group_symop_operation_xyz
x,y,z
-x,y,1/2-z
-x,-y,-z
x,-y,1/2+z
1/2+x,1/2+y,z
1/2-x,1/2+y,1/2-z
1/2-x,1/2-y,-z
1/2+x,1/2-y,1/2+z
loop_
_atom_site_type_symbol
_atom_site_label
_atom_site_fract_x
_atom_site_fract_y
_atom_site_fract_z
Si Si1 0.817467 0.723410 0.545028
Si Si2 0.500000 0.296814 0.250000
Si Si3 0.000000 0.076111 0.250000
Si Si4 0.279929 0.061296 0.405751
Si Si5 0.000000 0.349078 0.750000
Si Si6 0.658610 0.646032 0.771947
Si Si7 0.287607 0.466539 0.869527
Si Si8 0.042089 0.581354 0.880136
O O1 0.750000 0.750000 0.500000
O O2 0.722087 0.687427 0.781167
O O3 0.901372 0.762219 0.499421
O O4 0.907328 0.686701 0.313089
O O5 0.428253 0.328402 0.228249
O O6 0.089879 0.046351 0.226705
O O7 0.917072 0.110506 0.493891
O O8 0.251193 0.111748 0.522049
O O9 0.215284 0.054077 0.321570
O O10 0.231492 0.021025 0.607697
O O11 0.423949 0.054699 0.143737
O O12 0.056050 0.379051 0.503140
O O13 0.167324 0.445903 0.158179
O O14 0.000000 0.596396 0.750000
#
# Coordination Sequence:
#
# PCOD9294420 Si02
#       8
#     8   4   4   8   4   8   8   8
#     4   9  19  36  64  91 117 157 209 255 326 393
#     4   9  20  37  66  90 118 152 204 259 322 391
#     4  12  26  41  60  91 130 171 216 257 310 396
#     4  11  23  41  65  91 127 170 212 268 317 376
#     4  11  18  36  70  87 122 173 202 266 328 371
#     4  11  21  40  62  89 123 164 208 252 319 381
#     4  11  25  40  60  94 132 168 217 265 307 378
#     4  10  23  40  64  99 127 168 222 271 319 384
#
# _framework density 21.302502
#
# number of rings (size 3 to 8) (size 9 to 14) (size 15 to 20)
#    0.000    1.538    1.538    3.231    2.154    3.077 
#    0.000    0.769   15.231    0.000    0.000    0.000 
#    0.000    0.000    0.000    0.000    0.000    0.000 
#
# Total GULP energy -144966.847741 kJ/mol
# GULP energy per Si atom -5575.647990 kJ/mol
# Density = 2.125402 g / cm^3
# Si number density = 21.302502 Si / 1000 Ang^3
#
#
#
# Elastic Constant Matrix: (Units=GPa)
#
#
# Indices 1 2 3 4 5 6 
#
# 1 97.9054 42.1100 15.7974 0.0000 -15.9056 0.0000
# 2 42.1100 127.3113 21.0718 0.0000 -1.2674 0.0000
# 3 15.7974 21.0718 47.9929 0.0000 -1.8738 0.0000
# 4 0.0000 0.0000 0.0000 -73.5188 0.0000 136.4399
# 5 -15.9056 -1.2674 -1.8738 0.0000 24.1203 0.0000
# 6 0.0000 0.0000 0.0000 136.4399 0.0000 -212.2327
#
#
#
# Elastic Compliance Matrix: (Units=1/GPa)
#
#
# Indices 1 2 3 4 5 6 
#
# 1 0.013760 -0.004067 -0.002405 0.000000 0.008673 0.000000
# 2 -0.004067 0.009673 -0.003002 0.000000 -0.002407 0.000000
# 3 -0.002405 -0.003002 0.022948 0.000000 0.000039 0.000000
# 4 0.000000 0.000000 0.000000 0.070445 0.000000 0.045288
# 5 0.008673 -0.002407 0.000039 0.000000 0.047055 0.000000
# 6 0.000000 0.000000 0.000000 0.045288 0.000000 0.024403
#
#
# Mechanical properties :
#
#
# Convention : Reuss Voigt Hill
#
# Bulk Modulus (GPa) = 36.45331 47.90757 42.18044
# Shear Modulus (GPa) = 23.10787 -39.37756 -8.13484
#
# Velocity S-wave (km/s) = 3.29713 -4.30408 -1.95628
# Velocity P-wave (km/s) = 5.62531 1.47041 3.83940
#
# Compressibility (1/GPa) = 0.02743235
#
# Stress axis : x y z
#
# Youngs Moduli (GPa) = 72.67267 103.38114 43.57718
#
# Poissons Ratio (x) = 0.42045 0.10481
# Poissons Ratio (y) = 0.29556 0.13083
# Poissons Ratio (z) = 0.17478 0.31038
#
# Static dielectric constant tensor:
#      x y z
#    x 1.788580 0.000000 -0.047400 
#    y 0.000000 1.750980 0.000000 
#    z -0.047400 0.000000 1.777680 
# 
# From -- ./inp_files/52161.got.cif
#   From: 2010.05.17/outbox.cif.g08.bks.cpg/sg15_27_cif.got.tgz:52161.got - 2010.06.03 18:47:42.
