data_PCOD9294695
_publ_section_title
;
Structure prediction by ZEFSAII (Michael W. Deem and Ramdas Pophale) SiO2 
 PCOD9294695
Probable space group: C 2/C
;
_chemical_formula_sum "Si O2"
_cell_formula_units_Z 52
_cell_length_a 13.873434
_cell_length_b 5.424443
_cell_length_c 31.357158
_cell_angle_alpha 90.000000
_cell_angle_beta 116.033460
_cell_angle_gamma 90.000000
_cell_volume 2120.372739
_symmetry_space_group_name_H-M "C 2/C"
_symmetry_group_IT_number 15
_symmetry_cell_setting 'monoclinic'
loop_
_space_group_symop_operation_xyz
x,y,z
-x,y,1/2-z
-x,-y,-z
x,-y,1/2+z
1/2+x,1/2+y,z
1/2-x,1/2+y,1/2-z
1/2-x,1/2-y,-z
1/2+x,1/2-y,1/2+z
loop_
_atom_site_type_symbol
_atom_site_label
_atom_site_fract_x
_atom_site_fract_y
_atom_site_fract_z
Si Si1 0.080282 0.904883 0.351807
Si Si2 0.233140 0.329969 0.948230
Si Si3 0.183477 0.680559 0.732948
Si Si4 0.893755 0.149425 0.363857
Si Si5 0.732639 0.697505 0.606930
Si Si6 0.432714 0.058009 0.945736
Si Si7 0.000000 0.967320 0.750000
O O1 0.167018 0.129271 0.364471
O O2 0.966419 0.976810 0.349427
O O3 0.052490 0.859678 0.296889
O O4 0.130620 0.732835 0.398733
O O5 0.254353 0.612212 0.939879
O O6 0.327800 0.186177 0.943622
O O7 0.250000 0.250000 0.000000
O O8 0.236516 0.419016 0.755241
O O9 0.141431 0.642503 0.676347
O O10 0.089296 0.787820 0.745317
O O11 0.969832 0.258493 0.416097
O O12 0.787826 0.025551 0.364087
O O13 0.615142 0.819320 0.585867
O O14 0.500000 0.000000 0.000000
#
# Coordination Sequence:
#
# PCOD9294695 Si02
#       7
#     8   8   8   8   8   8   4
#     4  10  23  43  65  93 129 171 224 280 341 418
#     4  10  24  39  62  96 128 176 220 278 343 409
#     4  11  26  46  76 104 146 189 241 306 363 434
#     4  10  24  41  65  99 125 178 224 277 350 414
#     4  10  23  41  64  90 133 170 218 285 338 413
#     4  10  24  39  64  92 128 174 221 279 339 417
#     4  10  24  48  68 106 138 188 246 294 366 440
#
# _framework density 24.523989
#
# number of rings (size 3 to 8) (size 9 to 14) (size 15 to 20)
#    0.000    1.846    0.000    0.923   15.077    3.077 
#    8.308    0.000    0.000    0.000    0.000    0.000 
#    0.000    0.000    0.000    0.000    0.000    0.000 
#
# Total GULP energy -144926.712931 kJ/mol
# GULP energy per Si atom -5574.104343 kJ/mol
# Density = 2.446817 g / cm^3
# Si number density = 24.523989 Si / 1000 Ang^3
#
#
#
# Elastic Constant Matrix: (Units=GPa)
#
#
# Indices 1 2 3 4 5 6 
#
# 1 73.8143 8.0432 22.1994 0.0000 -8.8182 0.0000
# 2 8.0432 43.0955 18.7406 0.0000 -3.1436 0.0000
# 3 22.1994 18.7406 158.4012 0.0000 -15.6419 0.0000
# 4 0.0000 0.0000 0.0000 21.6813 0.0000 -3.0288
# 5 -8.8182 -3.1436 -15.6419 0.0000 36.6708 0.0000
# 6 0.0000 0.0000 0.0000 -3.0288 0.0000 11.3076
#
#
#
# Elastic Compliance Matrix: (Units=1/GPa)
#
#
# Indices 1 2 3 4 5 6 
#
# 1 0.014535 -0.001842 -0.001555 0.000000 0.002674 0.000000
# 2 -0.001842 0.024725 -0.002612 0.000000 0.000563 0.000000
# 3 -0.001555 -0.002612 0.007079 0.000000 0.002422 0.000000
# 4 0.000000 0.000000 0.000000 0.047916 0.000000 0.012835
# 5 0.002674 0.000563 0.002422 0.000000 0.028994 0.000000
# 6 0.000000 0.000000 0.000000 0.012835 0.000000 0.091874
#
#
# Mechanical properties :
#
#
# Convention : Reuss Voigt Hill
#
# Bulk Modulus (GPa) = 29.13518 41.47528 35.30523
# Shear Modulus (GPa) = 20.95735 29.02048 24.98891
#
# Velocity S-wave (km/s) = 2.92647 3.44372 3.19557
# Velocity P-wave (km/s) = 4.82960 5.72373 5.29557
#
# Compressibility (1/GPa) = 0.03432276
#
# Stress axis : x y z
#
# Youngs Moduli (GPa) = 68.79788 40.44542 141.25990
#
# Poissons Ratio (x) = 0.07448 0.21968
# Poissons Ratio (y) = 0.12669 0.36891
# Poissons Ratio (z) = 0.10699 0.10563
#
# Static dielectric constant tensor:
#      x y z
#    x 1.955340 0.000000 0.076580 
#    y 0.000000 2.182720 0.000000 
#    z 0.076580 0.000000 2.187690 
# 
# From -- ./inp_files/312391.got.cif
#   From: 2010.05.17/outbox.cif.g08.bks.cpg/sg15_157_cif.got.tgz:312391.got - 2010.06.03 18:47:42.
