data_PCOD9294593
_publ_section_title
;
Structure prediction by ZEFSAII (Michael W. Deem and Ramdas Pophale) SiO2 
 PCOD9294593
Probable space group: C 2/C
;
_chemical_formula_sum "Si O2"
_cell_formula_units_Z 56
_cell_length_a 19.063353
_cell_length_b 5.649629
_cell_length_c 26.776660
_cell_angle_alpha 90.000000
_cell_angle_beta 131.080732
_cell_angle_gamma 90.000000
_cell_volume 2173.815992
_symmetry_space_group_name_H-M "C 2/C"
_symmetry_group_IT_number 15
_symmetry_cell_setting 'monoclinic'
loop_
_space_group_symop_operation_xyz
x,y,z
-x,y,1/2-z
-x,-y,-z
x,-y,1/2+z
1/2+x,1/2+y,z
1/2-x,1/2+y,1/2-z
1/2-x,1/2-y,-z
1/2+x,1/2-y,1/2+z
loop_
_atom_site_type_symbol
_atom_site_label
_atom_site_fract_x
_atom_site_fract_y
_atom_site_fract_z
Si Si1 0.985032 0.248218 0.905891
Si Si2 0.714578 0.129990 0.812508
Si Si3 0.167033 0.022119 0.486677
Si Si4 0.112782 0.152745 0.357344
Si Si5 0.429155 0.255630 0.831929
Si Si6 0.232018 0.247004 0.885247
Si Si7 0.116046 0.355893 0.551696
O O1 0.951489 0.498456 0.866751
O O2 0.977678 0.306385 0.961538
O O3 0.934888 0.999762 0.866353
O O4 0.090868 0.184522 0.941136
O O5 0.645935 0.184042 0.827641
O O6 0.668645 0.224920 0.741676
O O7 0.810974 0.243611 0.873906
O O8 0.729382 0.853945 0.828379
O O9 0.249887 0.910612 0.557717
O O10 0.177833 0.143619 0.437812
O O11 0.117878 0.205830 0.501820
O O12 0.010609 0.205239 0.328770
O O13 0.136824 0.894766 0.347096
O O14 0.326242 0.092681 0.930453
#
# Coordination Sequence:
#
# PCOD9294593 Si02
#       7
#     8   8   8   8   8   8   8
#     4  11  27  45  72 102 141 185 237 288 347 415
#     4  10  24  44  68  99 135 184 233 291 350 413
#     4  10  23  42  69 105 140 181 229 289 357 418
#     4  10  23  43  66 102 136 176 231 283 352 413
#     4  11  27  46  71 101 137 186 237 292 346 413
#     4  10  23  40  74 100 141 181 233 285 357 413
#     4  10  24  44  68 101 139 182 235 287 350 416
#
# _framework density 25.761151000000002
#
# number of rings (size 3 to 8) (size 9 to 14) (size 15 to 20)
#    0.000    1.714    0.000    1.286   16.000    6.857 
#    0.000    0.000    0.000    0.000    0.000    0.000 
#    0.000    0.000    0.000    0.000    0.000    0.000 
#
# Total GULP energy -156322.622591 kJ/mol
# GULP energy per Si atom -5582.950807 kJ/mol
# Density = 2.570252 g / cm^3
# Si number density = 25.761151 Si / 1000 Ang^3
#
#
#
# Elastic Constant Matrix: (Units=GPa)
#
#
# Indices 1 2 3 4 5 6 
#
# 1 80.6573 20.1882 -16.5808 0.0001 -26.3863 -0.0008
# 2 20.1882 134.5484 48.6543 -0.0014 -14.0714 -0.0018
# 3 -16.5808 48.6543 99.5076 0.0005 0.2190 -0.0009
# 4 0.0001 -0.0014 0.0005 24.4304 0.0009 -12.2731
# 5 -26.3863 -14.0714 0.2190 0.0009 18.5951 0.0002
# 6 -0.0008 -0.0018 -0.0009 -12.2731 0.0002 29.9255
#
#
#
# Elastic Compliance Matrix: (Units=1/GPa)
#
#
# Indices 1 2 3 4 5 6 
#
# 1 0.025074 -0.002058 0.005110 -0.000002 0.033962 0.000000
# 2 -0.002058 0.010174 -0.005328 0.000001 0.004841 0.000001
# 3 0.005110 -0.005328 0.013499 -0.000001 0.003059 0.000000
# 4 -0.000002 0.000001 -0.000001 0.051555 -0.000004 0.021144
# 5 0.033962 0.004841 0.003059 -0.000004 0.105597 -0.000001
# 6 0.000000 0.000001 0.000000 0.021144 -0.000001 0.042088
#
#
# Mechanical properties :
#
#
# Convention : Reuss Voigt Hill
#
# Bulk Modulus (GPa) = 22.62738 46.58185 34.60462
# Shear Modulus (GPa) = 18.70753 32.08697 25.39725
#
# Velocity S-wave (km/s) = 2.69772 3.53307 3.14327
# Velocity P-wave (km/s) = 4.30188 5.89618 5.16096
#
# Compressibility (1/GPa) = 0.04419424
#
# Stress axis : x y z
#
# Youngs Moduli (GPa) = 39.88181 98.28829 74.07738
#
# Poissons Ratio (x) = 0.20228 -0.37851
# Poissons Ratio (y) = 0.08208 0.39470
# Poissons Ratio (z) = -0.20378 0.52370
#
# Static dielectric constant tensor:
#      x y z
#    x 2.092680 0.000000 0.008540 
#    y 0.000000 2.240980 0.000000 
#    z 0.008540 0.000000 2.011190 
# 
# From -- ./inp_files/301706.got.cif
#   From: 2010.05.17/outbox.cif.g08.bks.cpg/sg15_151_cif.got.tgz:301706.got - 2010.06.03 18:47:42.
