data_PCOD9294398
_publ_section_title
;
Structure prediction by ZEFSAII (Michael W. Deem and Ramdas Pophale) SiO2 
 PCOD9294398
Probable space group: C 2/C
;
_chemical_formula_sum "Si O2"
_cell_formula_units_Z 64
_cell_length_a 16.078323
_cell_length_b 11.856176
_cell_length_c 28.543340
_cell_angle_alpha 90.000000
_cell_angle_beta 140.640161
_cell_angle_gamma 90.000000
_cell_volume 3450.711792
_symmetry_space_group_name_H-M "C 2/C"
_symmetry_group_IT_number 15
_symmetry_cell_setting 'monoclinic'
loop_
_space_group_symop_operation_xyz
x,y,z
-x,y,1/2-z
-x,-y,-z
x,-y,1/2+z
1/2+x,1/2+y,z
1/2-x,1/2+y,1/2-z
1/2-x,1/2-y,-z
1/2+x,1/2-y,1/2+z
loop_
_atom_site_type_symbol
_atom_site_label
_atom_site_fract_x
_atom_site_fract_y
_atom_site_fract_z
Si Si1 0.688647 0.600212 0.095731
Si Si2 0.595236 0.640394 0.572885
Si Si3 0.559224 0.387804 0.168662
Si Si4 0.184949 0.726215 0.674070
Si Si5 0.032649 0.150308 0.186601
Si Si6 0.633478 0.064589 0.568239
Si Si7 0.211207 0.230454 0.929733
Si Si8 0.791704 0.158805 0.144576
O O1 0.687619 0.466322 0.100913
O O2 0.721525 0.665397 0.158007
O O3 0.779912 0.653468 0.095464
O O4 0.538849 0.629828 0.014993
O O5 0.561874 0.629880 0.613573
O O6 0.671491 0.754592 0.594378
O O7 0.688981 0.330773 0.246879
O O8 0.548996 0.520361 0.177007
O O9 0.431217 0.326114 0.133595
O O10 0.081727 0.768594 0.667109
O O11 0.125080 0.637176 0.611682
O O12 0.125159 0.171367 0.271750
O O13 0.886595 0.174297 0.141443
O O14 0.683958 0.147680 0.549514
O O15 0.500000 0.000000 0.500000
O O16 0.741988 0.968736 0.621784
O O17 0.250000 0.250000 0.000000
#
# Coordination Sequence:
#
# PCOD9294398 Si02
#       8
#     8   8   8   8   8   8   8   8
#     4  10  23  40  64  91 132 162 212 255 324 379
#     4  11  22  42  64  91 128 175 200 262 326 380
#     4  12  22  41  69  90 128 171 215 261 322 380
#     4  11  23  41  67  95 122 168 219 261 315 384
#     4  11  23  41  62  95 127 164 212 264 318 384
#     4  11  24  41  63  93 130 166 211 268 318 382
#     4  11  23  42  64  96 123 168 217 262 313 384
#     4  11  22  40  63  92 128 165 208 261 324 378
#
# _framework density 18.546897000000001
#
# number of rings (size 3 to 8) (size 9 to 14) (size 15 to 20)
#    0.000    1.000    6.250    1.500    0.000    2.000 
#    2.250    3.750    0.000    0.000    0.000    0.000 
#    0.000    0.000    0.000    0.000    0.000    0.000 
#
# Total GULP energy -178770.930427 kJ/mol
# GULP energy per Si atom -5586.591576 kJ/mol
# Density = 1.850468 g / cm^3
# Si number density = 18.546897 Si / 1000 Ang^3
#
#
#
# Elastic Constant Matrix: (Units=GPa)
#
#
# Indices 1 2 3 4 5 6 
#
# 1 142.0244 51.1676 27.7444 0.0000 -10.6790 0.0000
# 2 51.1676 99.2590 12.1583 0.0000 0.4076 0.0000
# 3 27.7444 12.1583 45.7786 0.0000 -4.2540 0.0000
# 4 0.0000 0.0000 0.0000 26.7433 0.0000 6.3489
# 5 -10.6790 0.4076 -4.2540 0.0000 25.1668 0.0000
# 6 0.0000 0.0000 0.0000 6.3489 0.0000 39.7815
#
#
#
# Elastic Compliance Matrix: (Units=1/GPa)
#
#
# Indices 1 2 3 4 5 6 
#
# 1 0.009794 -0.004523 -0.004411 0.000000 0.003484 0.000000
# 2 -0.004523 0.012512 -0.000792 0.000000 -0.002256 0.000000
# 3 -0.004411 -0.000792 0.024947 0.000000 0.002358 0.000000
# 4 0.000000 0.000000 0.000000 0.038865 0.000000 -0.006203
# 5 0.003484 -0.002256 0.002358 0.000000 0.041648 0.000000
# 6 0.000000 0.000000 0.000000 -0.006203 0.000000 0.026127
#
#
# Mechanical properties :
#
#
# Convention : Reuss Voigt Hill
#
# Bulk Modulus (GPa) = 35.96780 52.13361 44.05070
# Shear Modulus (GPa) = 27.38043 31.40441 29.39242
#
# Velocity S-wave (km/s) = 3.84641 4.11937 3.98523
# Velocity P-wave (km/s) = 6.25791 7.12711 6.70661
#
# Compressibility (1/GPa) = 0.02780265
#
# Stress axis : x y z
#
# Youngs Moduli (GPa) = 102.10244 79.92081 40.08522
#
# Poissons Ratio (x) = 0.36147 0.17681
# Poissons Ratio (y) = 0.46179 0.03173
# Poissons Ratio (z) = 0.45036 0.06327
#
# Static dielectric constant tensor:
#      x y z
#    x 1.640660 0.000000 -0.004790 
#    y 0.000000 1.635170 0.000000 
#    z -0.004790 0.000000 1.627760 
# 
# From -- ./inp_files/296173.got.cif
#   From: 2010.05.17/outbox.cif.g08.bks.cpg/sg15_149_cif.got.tgz:296173.got - 2010.06.03 18:47:42.
