data_PCOD9294859
_publ_section_title
;
Structure prediction by ZEFSAII (Michael W. Deem and Ramdas Pophale) SiO2 
 PCOD9294859
Probable space group: C 2/C
;
_chemical_formula_sum "Si O2"
_cell_formula_units_Z 44
_cell_length_a 12.344984
_cell_length_b 23.895474
_cell_length_c 8.994487
_cell_angle_alpha 90.000000
_cell_angle_beta 50.853996
_cell_angle_gamma 90.000000
_cell_volume 2057.721784
_symmetry_space_group_name_H-M "C 2/C"
_symmetry_group_IT_number 15
_symmetry_cell_setting 'monoclinic'
loop_
_space_group_symop_operation_xyz
x,y,z
-x,y,1/2-z
-x,-y,-z
x,-y,1/2+z
1/2+x,1/2+y,z
1/2-x,1/2+y,1/2-z
1/2-x,1/2-y,-z
1/2+x,1/2-y,1/2+z
loop_
_atom_site_type_symbol
_atom_site_label
_atom_site_fract_x
_atom_site_fract_y
_atom_site_fract_z
Si Si1 0.601156 0.053196 0.915494
Si Si2 0.000000 0.003840 0.750000
Si Si3 0.500000 0.869178 0.750000
Si Si4 0.897038 0.065642 0.568175
Si Si5 0.500000 0.863078 0.250000
Si Si6 0.000916 0.190327 0.426832
Si Si7 0.665950 0.200332 0.353242
O O1 0.760611 0.038877 0.759311
O O2 0.569777 0.096249 0.809444
O O3 0.590987 0.089081 0.072880
O O4 0.500000 0.000000 0.000000
O O5 0.003959 0.042268 0.600294
O O6 0.110064 0.957472 0.594461
O O7 0.408795 0.832891 0.715676
O O8 0.932390 0.130924 0.529076
O O9 0.386914 0.827375 0.443577
O O10 0.167071 0.197652 0.317291
O O11 0.000000 0.195621 0.250000
O O12 0.902665 0.238231 0.581561
#
# Coordination Sequence:
#
# PCOD9294859 Si02
#       7
#     8   4   4   8   4   8   8
#     4  11  25  43  71 101 141 188 235 292 353 430
#     4  10  26  44  66 102 132 186 230 294 350 436
#     4  10  27  45  66 110 151 185 244 294 374 422
#     4  11  26  44  71 100 145 182 238 290 362 426
#     4  10  23  41  68 100 137 187 234 288 356 420
#     4  12  25  45  76 105 144 193 248 301 365 434
#     4  11  26  45  73 105 146 188 246 307 359 438
#
# _framework density 21.38287
#
# number of rings (size 3 to 8) (size 9 to 14) (size 15 to 20)
#    0.000    1.091    1.818    2.182   12.727    4.364 
#    0.000    0.000    0.000    0.000    0.000    0.000 
#    0.000    0.000    0.000    0.000    0.000    0.000 
#
# Total GULP energy -122530.375774 kJ/mol
# GULP energy per Si atom -5569.562535 kJ/mol
# Density = 2.133420 g / cm^3
# Si number density = 21.382870 Si / 1000 Ang^3
#
#
#
# Elastic Constant Matrix: (Units=GPa)
#
#
# Indices 1 2 3 4 5 6 
#
# 1 47.5425 30.6597 38.0441 0.0000 -11.6277 0.0000
# 2 30.6597 150.5013 58.6942 0.0000 -7.4535 0.0000
# 3 38.0441 58.6942 93.6479 0.0000 5.6768 0.0000
# 4 0.0000 0.0000 0.0000 38.0256 0.0000 -2.5530
# 5 -11.6277 -7.4535 5.6768 0.0000 45.8431 0.0000
# 6 0.0000 0.0000 0.0000 -2.5530 0.0000 16.4571
#
#
#
# Elastic Compliance Matrix: (Units=1/GPa)
#
#
# Indices 1 2 3 4 5 6 
#
# 1 0.036084 -0.001119 -0.014611 0.000000 0.010780 0.000000
# 2 -0.001119 0.009040 -0.005323 0.000000 0.001845 0.000000
# 3 -0.014611 -0.005323 0.020380 0.000000 -0.007095 0.000000
# 4 0.000000 0.000000 0.000000 0.026575 0.000000 0.004122
# 5 0.010780 0.001845 -0.007095 0.000000 0.025726 0.000000
# 6 0.000000 0.000000 0.000000 0.004122 0.000000 0.061403
#
#
# Mechanical properties :
#
#
# Convention : Reuss Voigt Hill
#
# Bulk Modulus (GPa) = 42.73882 60.72086 51.72984
# Shear Modulus (GPa) = 21.82323 31.01808 26.42066
#
# Velocity S-wave (km/s) = 3.19814 3.81281 3.51892
# Velocity P-wave (km/s) = 5.80244 6.91679 6.38397
#
# Compressibility (1/GPa) = 0.02339793
#
# Stress axis : x y z
#
# Youngs Moduli (GPa) = 27.71323 110.62343 49.06691
#
# Poissons Ratio (x) = 0.12377 0.71692
# Poissons Ratio (y) = 0.03101 0.26118
# Poissons Ratio (z) = 0.40492 0.58885
#
# Static dielectric constant tensor:
#      x y z
#    x 2.072740 0.000000 -0.199220 
#    y 0.000000 1.844970 0.000000 
#    z -0.199220 0.000000 1.702900 
# 
# From -- ./inp_files/34031.got.cif
#   From: 2010.05.17/outbox.cif.g08.bks.cpg/sg15_18_cif.got.tgz:34031.got - 2010.06.03 18:47:42.
