data_PCOD9294958
_publ_section_title
;
Structure prediction by ZEFSAII (Michael W. Deem and Ramdas Pophale) SiO2 
 PCOD9294958
Probable space group: C 2/C
;
_chemical_formula_sum "Si O2"
_cell_formula_units_Z 40
_cell_length_a 13.103495
_cell_length_b 14.294780
_cell_length_c 9.658689
_cell_angle_alpha 90.000000
_cell_angle_beta 105.818319
_cell_angle_gamma 90.000000
_cell_volume 1740.672080
_symmetry_space_group_name_H-M "C 2/C"
_symmetry_group_IT_number 15
_symmetry_cell_setting 'monoclinic'
loop_
_space_group_symop_operation_xyz
x,y,z
-x,y,1/2-z
-x,-y,-z
x,-y,1/2+z
1/2+x,1/2+y,z
1/2-x,1/2+y,1/2-z
1/2-x,1/2-y,-z
1/2+x,1/2-y,1/2+z
loop_
_atom_site_type_symbol
_atom_site_label
_atom_site_fract_x
_atom_site_fract_y
_atom_site_fract_z
Si Si1 0.766459 0.548309 0.343065
Si Si2 0.914678 0.746614 0.117748
Si Si3 0.804308 0.245173 0.297928
Si Si4 0.122671 0.415177 0.340054
Si Si5 0.435288 0.462942 0.102777
O O1 0.702032 0.638490 0.260253
O O2 0.814279 0.490691 0.232094
O O3 0.857539 0.572542 0.488691
O O4 0.685225 0.487418 0.406888
O O5 0.808981 0.753474 0.169651
O O6 0.000000 0.696799 0.250000
O O7 0.951058 0.852388 0.106413
O O8 0.884463 0.719087 0.949927
O O9 0.825895 0.315377 0.181398
O O10 0.000000 0.418143 0.250000
O O11 0.500000 0.507501 0.250000
O O12 0.500000 0.500000 0.000000
#
# Coordination Sequence:
#
# PCOD9294958 Si02
#       5
#     8   8   8   8   8
#     4  12  26  48  73 105 147 187 239 300 354 434
#     4  10  23  41  71 102 146 180 233 294 366 419
#     4  11  25  45  70 107 141 190 239 297 352 434
#     4  12  28  48  73 105 145 192 245 294 361 428
#     4  11  22  40  70 103 134 179 226 290 361 420
#
# _framework density 22.97963
#
# number of rings (size 3 to 8) (size 9 to 14) (size 15 to 20)
#    0.000    0.800    2.000    4.800    8.400    3.200 
#    0.000    0.000    0.000    0.000    0.000    0.000 
#    0.000    0.000    0.000    0.000    0.000    0.000 
#
# Total GULP energy -111626.735646 kJ/mol
# GULP energy per Si atom -5581.336782 kJ/mol
# Density = 2.292733 g / cm^3
# Si number density = 22.979630 Si / 1000 Ang^3
#
#
#
# Elastic Constant Matrix: (Units=GPa)
#
#
# Indices 1 2 3 4 5 6 
#
# 1 38.1373 0.3514 31.2482 0.0000 -0.2961 0.0000
# 2 0.3514 61.6021 -4.9998 0.0000 -17.5250 0.0000
# 3 31.2482 -4.9998 126.6983 0.0000 4.4465 0.0000
# 4 0.0000 0.0000 0.0000 23.1280 0.0000 -1.3986
# 5 -0.2961 -17.5250 4.4465 0.0000 47.8329 0.0000
# 6 0.0000 0.0000 0.0000 -1.3986 0.0000 26.1747
#
#
#
# Elastic Compliance Matrix: (Units=1/GPa)
#
#
# Indices 1 2 3 4 5 6 
#
# 1 0.032929 -0.000644 -0.008172 0.000000 0.000727 0.000000
# 2 -0.000644 0.018164 0.000644 0.000000 0.006591 0.000000
# 3 -0.008172 0.000644 0.009960 0.000000 -0.000740 0.000000
# 4 0.000000 0.000000 0.000000 0.043378 0.000000 0.002318
# 5 0.000727 0.006591 -0.000740 0.000000 0.023394 0.000000
# 6 0.000000 0.000000 0.000000 0.002318 0.000000 0.038329
#
#
# Mechanical properties :
#
#
# Convention : Reuss Voigt Hill
#
# Bulk Modulus (GPa) = 22.36714 31.07082 26.71898
# Shear Modulus (GPa) = 25.32920 32.74964 29.03942
#
# Velocity S-wave (km/s) = 3.32361 3.77922 3.55872
# Velocity P-wave (km/s) = 4.94804 5.70909 5.34214
#
# Compressibility (1/GPa) = 0.04470844
#
# Stress axis : x y z
#
# Youngs Moduli (GPa) = 30.36866 55.05315 100.40404
#
# Poissons Ratio (x) = 0.03546 0.82053
# Poissons Ratio (y) = 0.01956 -0.06470
# Poissons Ratio (z) = 0.24818 -0.03547
#
# Static dielectric constant tensor:
#      x y z
#    x 1.819340 0.000000 0.122650 
#    y 0.000000 1.892900 0.000000 
#    z 0.122650 0.000000 2.020420 
# 
# From -- ./inp_files/38027.got.cif
#   From: 2010.05.17/outbox.cif.g08.bks.cpg/sg15_20_cif.got.tgz:38027.got - 2010.06.03 18:47:42.
