data_PCOD9294230
_publ_section_title
;
Structure prediction by ZEFSAII (Michael W. Deem and Ramdas Pophale) SiO2 
 PCOD9294230
Probable space group: C 2/C
;
_chemical_formula_sum "Si O2"
_cell_formula_units_Z 56
_cell_length_a 8.653050
_cell_length_b 20.581016
_cell_length_c 21.585010
_cell_angle_alpha 90.000000
_cell_angle_beta 48.342727
_cell_angle_gamma 90.000000
_cell_volume 2872.015702
_symmetry_space_group_name_H-M "C 2/C"
_symmetry_group_IT_number 15
_symmetry_cell_setting 'monoclinic'
loop_
_space_group_symop_operation_xyz
x,y,z
-x,y,1/2-z
-x,-y,-z
x,-y,1/2+z
1/2+x,1/2+y,z
1/2-x,1/2+y,1/2-z
1/2-x,1/2-y,-z
1/2+x,1/2-y,1/2+z
loop_
_atom_site_type_symbol
_atom_site_label
_atom_site_fract_x
_atom_site_fract_y
_atom_site_fract_z
Si Si1 0.324618 0.060954 0.704142
Si Si2 0.380145 0.162675 0.917389
Si Si3 0.796688 0.347122 0.969536
Si Si4 0.366868 0.560647 0.881858
Si Si5 0.113369 0.438539 0.663836
Si Si6 0.034773 0.255519 0.982991
Si Si7 0.924127 0.044454 0.462096
O O1 0.448038 0.128659 0.670239
O O2 0.256463 0.054330 0.649829
O O3 0.111709 0.061803 0.799697
O O4 0.484242 0.005254 0.685173
O O5 0.465050 0.200524 0.955186
O O6 0.247351 0.217562 0.919462
O O7 0.221071 0.104289 0.979771
O O8 0.875507 0.402886 0.904113
O O9 0.640092 0.300301 0.974213
O O10 0.689803 0.377974 0.059292
O O11 0.985649 0.303620 0.940838
O O12 0.317117 0.499444 0.938940
O O13 0.350182 0.438802 0.623569
O O14 0.000000 0.403082 0.750000
O O15 0.000000 0.000000 0.500000
#
# Coordination Sequence:
#
# PCOD9294230 Si02
#       7
#     8   8   8   8   8   8   8
#     4  11  24  38  64  98 128 155 201 263 316 367
#     4  11  21  40  64  94 123 163 211 256 301 368
#     4  11  22  43  65  88 122 171 210 251 306 370
#     4  11  23  40  63  96 128 159 201 257 317 380
#     4  12  24  40  64  95 124 160 200 262 317 376
#     4  10  23  39  65  87 120 169 213 249 294 359
#     4  12  21  37  66  94 123 160 204 245 320 376
#
# _framework density 19.4985
#
# number of rings (size 3 to 8) (size 9 to 14) (size 15 to 20)
#    0.000    0.857    7.143    0.000    2.000    1.143 
#    0.000    2.857    3.143    0.000    0.000    0.000 
#    0.000    0.000    0.000    0.000    0.000    0.000 
#
# Total GULP energy -156116.267212 kJ/mol
# GULP energy per Si atom -5575.580972 kJ/mol
# Density = 1.945412 g / cm^3
# Si number density = 19.498500 Si / 1000 Ang^3
#
#
#
# Elastic Constant Matrix: (Units=GPa)
#
#
# Indices 1 2 3 4 5 6 
#
# 1 83.2938 35.4047 19.5607 0.0000 3.0305 0.0000
# 2 35.4047 86.9292 29.5464 0.0000 4.7714 0.0000
# 3 19.5607 29.5464 76.6708 0.0000 8.4904 0.0000
# 4 0.0000 0.0000 0.0000 11.5415 0.0000 4.4583
# 5 3.0305 4.7714 8.4904 0.0000 20.9595 0.0000
# 6 0.0000 0.0000 0.0000 4.4583 0.0000 36.5594
#
#
#
# Elastic Compliance Matrix: (Units=1/GPa)
#
#
# Indices 1 2 3 4 5 6 
#
# 1 0.014702 -0.005419 -0.001637 0.000000 -0.000229 0.000000
# 2 -0.005419 0.015254 -0.004395 0.000000 -0.000909 0.000000
# 3 -0.001637 -0.004395 0.015723 0.000000 -0.005132 0.000000
# 4 0.000000 0.000000 0.000000 0.090927 0.000000 -0.011088
# 5 -0.000229 -0.000909 -0.005132 0.000000 0.050030 0.000000
# 6 0.000000 0.000000 0.000000 -0.011088 0.000000 0.028705
#
#
# Mechanical properties :
#
#
# Convention : Reuss Voigt Hill
#
# Bulk Modulus (GPa) = 43.90603 46.21305 45.05954
# Shear Modulus (GPa) = 20.33883 24.63755 22.48819
#
# Velocity S-wave (km/s) = 3.23321 3.55852 3.39975
# Velocity P-wave (km/s) = 6.04191 6.37466 6.21052
#
# Compressibility (1/GPa) = 0.02277592
#
# Stress axis : x y z
#
# Youngs Moduli (GPa) = 68.01888 65.55476 63.60263
#
# Poissons Ratio (x) = 0.35522 0.10413
# Poissons Ratio (y) = 0.36858 0.27956
# Poissons Ratio (z) = 0.11136 0.28814
#
# Static dielectric constant tensor:
#      x y z
#    x 1.745550 0.000000 -0.011590 
#    y 0.000000 1.702300 0.000000 
#    z -0.011590 0.000000 1.690630 
# 
# From -- ./inp_files/233745.got.cif
#   From: 2010.05.17/outbox.cif.g08.bks.cpg/sg15_117_cif.got.tgz:233745.got - 2010.06.03 18:47:42.
