data_PCOD9294451
_publ_section_title
;
Structure prediction by ZEFSAII (Michael W. Deem and Ramdas Pophale) SiO2 
 PCOD9294451
Probable space group: C 2/C
;
_chemical_formula_sum "Si O2"
_cell_formula_units_Z 52
_cell_length_a 12.022845
_cell_length_b 20.126114
_cell_length_c 10.536798
_cell_angle_alpha 90.000000
_cell_angle_beta 73.431218
_cell_angle_gamma 90.000000
_cell_volume 2443.757014
_symmetry_space_group_name_H-M "C 2/C"
_symmetry_group_IT_number 15
_symmetry_cell_setting 'monoclinic'
loop_
_space_group_symop_operation_xyz
x,y,z
-x,y,1/2-z
-x,-y,-z
x,-y,1/2+z
1/2+x,1/2+y,z
1/2-x,1/2+y,1/2-z
1/2-x,1/2-y,-z
1/2+x,1/2-y,1/2+z
loop_
_atom_site_type_symbol
_atom_site_label
_atom_site_fract_x
_atom_site_fract_y
_atom_site_fract_z
Si Si1 0.323101 0.285424 0.585900
Si Si2 0.811290 0.635557 0.148438
Si Si3 0.000000 0.443737 0.250000
Si Si4 0.950121 0.653065 0.553317
Si Si5 0.907767 0.075237 0.980289
Si Si6 0.151718 0.441275 0.631184
Si Si7 0.595732 0.555728 0.120334
O O1 0.250000 0.250000 0.500000
O O2 0.250273 0.314489 0.729693
O O3 0.405016 0.225795 0.602404
O O4 0.387743 0.346073 0.492911
O O5 0.877943 0.584209 0.219062
O O6 0.712384 0.596201 0.104133
O O7 0.914448 0.661887 0.027728
O O8 0.066638 0.396601 0.324712
O O9 0.085443 0.489832 0.138836
O O10 0.882291 0.615178 0.459929
O O11 0.894714 0.024469 0.867022
O O12 0.791144 0.050719 0.092212
O O13 0.031864 0.064935 0.006390
O O14 0.500000 0.581720 0.250000
#
# Coordination Sequence:
#
# PCOD9294451 Si02
#       7
#     8   8   4   8   8   8   8
#     4  11  23  44  68  98 137 182 228 278 342 419
#     4  11  23  43  73  95 137 182 220 293 340 404
#     4  12  26  38  68 108 136 174 226 290 346 420
#     4  12  25  44  67 103 139 178 228 279 354 410
#     4  10  23  40  65  97 133 177 225 281 332 408
#     4  11  21  39  66  98 135 171 223 286 339 393
#     4  11  21  41  66  95 132 177 226 280 346 386
#
# _framework density 21.278711999999999
#
# number of rings (size 3 to 8) (size 9 to 14) (size 15 to 20)
#    0.000    0.923    7.692    1.385    2.154    1.231 
#    2.769    4.615    0.000    0.000    0.000    0.000 
#    0.000    0.000    0.000    0.000    0.000    0.000 
#
# Total GULP energy -144857.765041 kJ/mol
# GULP energy per Si atom -5571.452502 kJ/mol
# Density = 2.123028 g / cm^3
# Si number density = 21.278712 Si / 1000 Ang^3
#
#
#
# Elastic Constant Matrix: (Units=GPa)
#
#
# Indices 1 2 3 4 5 6 
#
# 1 96.6497 57.4707 21.2340 0.0000 7.2600 0.0000
# 2 57.4707 151.5060 21.1961 0.0000 -4.5882 0.0000
# 3 21.2340 21.1961 41.0814 0.0000 -7.1883 0.0000
# 4 0.0000 0.0000 0.0000 -35.3355 0.0000 2.7284
# 5 7.2600 -4.5882 -7.1883 0.0000 27.7922 0.0000
# 6 0.0000 0.0000 0.0000 2.7284 0.0000 39.0234
#
#
#
# Elastic Compliance Matrix: (Units=1/GPa)
#
#
# Indices 1 2 3 4 5 6 
#
# 1 0.015268 -0.005093 -0.006398 0.000000 -0.006484 0.000000
# 2 -0.005093 0.008814 -0.001496 0.000000 0.002399 0.000000
# 3 -0.006398 -0.001496 0.030029 0.000000 0.009191 0.000000
# 4 0.000000 0.000000 0.000000 -0.028148 0.000000 0.001968
# 5 -0.006484 0.002399 0.009191 0.000000 0.040448 0.000000
# 6 0.000000 0.000000 0.000000 0.001968 0.000000 0.025488
#
#
# Mechanical properties :
#
#
# Convention : Reuss Voigt Hill
#
# Bulk Modulus (GPa) = 35.54008 54.33766 44.93887
# Shear Modulus (GPa) = 39.29214 18.91845 29.10529
#
# Velocity S-wave (km/s) = 4.30181 2.98498 3.70241
# Velocity P-wave (km/s) = 6.43526 6.12141 6.28030
#
# Compressibility (1/GPa) = 0.02813724
#
# Stress axis : x y z
#
# Youngs Moduli (GPa) = 65.49772 113.45470 33.30098
#
# Poissons Ratio (x) = 0.57779 0.21308
# Poissons Ratio (y) = 0.33356 0.04981
# Poissons Ratio (z) = 0.41909 0.16969
#
# Static dielectric constant tensor:
#      x y z
#    x 1.842500 0.000000 0.004530 
#    y 0.000000 1.818350 0.000000 
#    z 0.004530 0.000000 1.861420 
# 
# From -- ./inp_files/88818.got.cif
#   From: 2010.05.17/outbox.cif.g08.bks.cpg/sg15_45_cif.got.tgz:88818.got - 2010.06.03 18:47:42.
