data_PCOD9294065
_publ_section_title
;
Structure prediction by ZEFSAII (Michael W. Deem and Ramdas Pophale) SiO2 
 PCOD9294065
Probable space group: C 2/C
;
_chemical_formula_sum "Si O2"
_cell_formula_units_Z 48
_cell_length_a 17.404500
_cell_length_b 10.519138
_cell_length_c 18.056708
_cell_angle_alpha 90.000000
_cell_angle_beta 145.328719
_cell_angle_gamma 90.000000
_cell_volume 1880.577754
_symmetry_space_group_name_H-M "C 2/C"
_symmetry_group_IT_number 15
_symmetry_cell_setting 'monoclinic'
loop_
_space_group_symop_operation_xyz
x,y,z
-x,y,1/2-z
-x,-y,-z
x,-y,1/2+z
1/2+x,1/2+y,z
1/2-x,1/2+y,1/2-z
1/2-x,1/2-y,-z
1/2+x,1/2-y,1/2+z
loop_
_atom_site_type_symbol
_atom_site_label
_atom_site_fract_x
_atom_site_fract_y
_atom_site_fract_z
Si Si1 0.573021 0.990702 0.475088
Si Si2 0.157818 0.367806 0.897365
Si Si3 0.600961 0.387179 0.176980
Si Si4 0.142697 0.752429 0.587597
Si Si5 0.822743 0.152328 0.219577
Si Si6 0.209311 0.425322 0.317240
O O1 0.646172 0.038964 0.458506
O O2 0.577636 0.113646 0.529986
O O3 0.667496 0.885323 0.585723
O O4 0.425230 0.961386 0.332083
O O5 0.222617 0.461018 0.886279
O O6 0.000000 0.335518 0.750000
O O7 0.250000 0.250000 0.000000
O O8 0.697776 0.283626 0.294435
O O9 0.544144 0.668267 0.956674
O O10 0.600724 0.516614 0.225331
O O11 0.674279 0.413034 0.154129
O O12 0.138772 0.808603 0.666481
O O13 0.827822 0.285462 0.179189
#
# Coordination Sequence:
#
# PCOD9294065 Si02
#       6
#     8   8   8   8   8   8
#     4  10  24  45  68  94 138 185 224 284 352 406
#     4  10  24  49  74  96 127 183 237 286 338 404
#     4  10  23  39  64 100 145 177 226 284 351 410
#     4  10  23  39  64  98 139 175 224 279 350 415
#     4  10  23  38  64  98 136 176 220 277 350 410
#     4  10  24  40  69  92 142 175 227 282 349 408
#
# _framework density 25.524070999999999
#
# number of rings (size 3 to 8) (size 9 to 14) (size 15 to 20)
#    0.000    2.000    0.000    0.500   16.333    8.000 
#    3.000    0.000    0.000    0.000    0.000    0.000 
#    0.000    0.000    0.000    0.000    0.000    0.000 
#
# Total GULP energy -134037.064405 kJ/mol
# GULP energy per Si atom -5584.877684 kJ/mol
# Density = 2.546598 g / cm^3
# Si number density = 25.524071 Si / 1000 Ang^3
#
#
#
# Elastic Constant Matrix: (Units=GPa)
#
#
# Indices 1 2 3 4 5 6 
#
# 1 73.4223 43.3074 51.8617 0.0000 9.2817 0.0000
# 2 43.3074 192.1485 84.9504 0.0000 7.0130 0.0000
# 3 51.8617 84.9504 197.1511 0.0000 3.1748 0.0000
# 4 0.0000 0.0000 0.0000 54.3022 0.0000 -8.5825
# 5 9.2817 7.0130 3.1748 0.0000 22.1752 0.0000
# 6 0.0000 0.0000 0.0000 -8.5825 0.0000 22.2534
#
#
#
# Elastic Compliance Matrix: (Units=1/GPa)
#
#
# Indices 1 2 3 4 5 6 
#
# 1 0.018430 -0.002249 -0.003775 0.000000 -0.006462 0.000000
# 2 -0.002249 0.006764 -0.002309 0.000000 -0.000867 0.000000
# 3 -0.003775 -0.002309 0.007039 0.000000 0.001302 0.000000
# 4 0.000000 0.000000 0.000000 0.019611 0.000000 0.007563
# 5 -0.006462 -0.000867 0.001302 0.000000 0.047888 0.000000
# 6 0.000000 0.000000 0.000000 0.007563 0.000000 0.047854
#
#
# Mechanical properties :
#
#
# Convention : Reuss Voigt Hill
#
# Bulk Modulus (GPa) = 64.23827 91.44008 77.83918
# Shear Modulus (GPa) = 29.50905 38.58634 34.04770
#
# Velocity S-wave (km/s) = 3.40387 3.89236 3.65628
# Velocity P-wave (km/s) = 6.37737 7.49022 6.95609
#
# Compressibility (1/GPa) = 0.01556704
#
# Stress axis : x y z
#
# Youngs Moduli (GPa) = 54.26018 147.85079 142.06335
#
# Poissons Ratio (x) = 0.33252 0.53628
# Poissons Ratio (y) = 0.12203 0.32799
# Poissons Ratio (z) = 0.20483 0.34135
#
# Static dielectric constant tensor:
#      x y z
#    x 2.175910 0.000000 -0.003580 
#    y 0.000000 2.116340 0.000000 
#    z -0.003580 0.000000 1.919360 
# 
# From -- ./inp_files/252607.got.cif
#   From: 2010.05.17/outbox.cif.g08.bks.cpg/sg15_127_cif.got.tgz:252607.got - 2010.06.03 18:47:42.
