data_PCOD9294192
_publ_section_title
;
Structure prediction by ZEFSAII (Michael W. Deem and Ramdas Pophale) SiO2 
 PCOD9294192
Probable space group: C 2/C
;
_chemical_formula_sum "Si O2"
_cell_formula_units_Z 40
_cell_length_a 11.562081
_cell_length_b 10.195770
_cell_length_c 15.339722
_cell_angle_alpha 90.000000
_cell_angle_beta 69.969198
_cell_angle_gamma 90.000000
_cell_volume 1698.925339
_symmetry_space_group_name_H-M "C 2/C"
_symmetry_group_IT_number 15
_symmetry_cell_setting 'monoclinic'
loop_
_space_group_symop_operation_xyz
x,y,z
-x,y,1/2-z
-x,-y,-z
x,-y,1/2+z
1/2+x,1/2+y,z
1/2-x,1/2+y,1/2-z
1/2-x,1/2-y,-z
1/2+x,1/2-y,1/2+z
loop_
_atom_site_type_symbol
_atom_site_label
_atom_site_fract_x
_atom_site_fract_y
_atom_site_fract_z
Si Si1 0.100509 0.219230 0.303561
Si Si2 0.979141 0.524733 0.903426
Si Si3 0.736475 0.405026 0.526485
Si Si4 0.856873 0.694073 0.166248
Si Si5 0.010223 0.048694 0.853347
O O1 0.038518 0.333991 0.373415
O O2 0.242292 0.252754 0.248742
O O3 0.000000 0.209740 0.250000
O O4 0.102389 0.073067 0.340293
O O5 0.045051 0.414508 0.829058
O O6 0.000000 0.500000 0.000000
O O7 0.831810 0.528922 0.935006
O O8 0.750000 0.250000 0.500000
O O9 0.785175 0.391724 0.612706
O O10 0.612867 0.489001 0.570533
O O11 0.937961 0.819226 0.116942
O O12 0.000000 0.075469 0.750000
#
# Coordination Sequence:
#
# PCOD9294192 Si02
#       5
#     8   8   8   8   8
#     4  11  20  41  67  90 130 180 221 268 331 407
#     4  10  23  39  63  95 131 167 215 284 332 384
#     4  11  21  43  64  89 133 170 220 274 336 399
#     4  11  23  39  65  96 128 171 221 273 338 386
#     4  11  23  41  66  95 128 174 226 271 328 407
#
# _framework density 23.544294000000001
#
# number of rings (size 3 to 8) (size 9 to 14) (size 15 to 20)
#    0.000    1.200    6.000    1.200    2.800    2.400 
#    0.000    2.000    0.000    0.000    0.000    0.000 
#    0.000    0.000    0.000    0.000    0.000    0.000 
#
# Total GULP energy -111405.572177 kJ/mol
# GULP energy per Si atom -5570.278609 kJ/mol
# Density = 2.349071 g / cm^3
# Si number density = 23.544294 Si / 1000 Ang^3
#
#
#
# Elastic Constant Matrix: (Units=GPa)
#
#
# Indices 1 2 3 4 5 6 
#
# 1 71.4168 32.9299 40.8299 0.0000 -33.3072 0.0000
# 2 32.9299 93.2809 -4.7206 0.0000 -9.1199 0.0000
# 3 40.8299 -4.7206 66.1116 0.0000 -33.6689 0.0000
# 4 0.0000 0.0000 0.0000 138.9311 0.0000 -2.0836
# 5 -33.3072 -9.1199 -33.6689 0.0000 49.6893 0.0000
# 6 0.0000 0.0000 0.0000 -2.0836 0.0000 38.6167
#
#
#
# Elastic Compliance Matrix: (Units=1/GPa)
#
#
# Indices 1 2 3 4 5 6 
#
# 1 0.033021 -0.011673 -0.016866 0.000000 0.008564 0.000000
# 2 -0.011673 0.015380 0.008795 0.000000 0.000958 0.000000
# 3 -0.016866 0.008795 0.032423 0.000000 0.012279 0.000000
# 4 0.000000 0.000000 0.000000 0.007204 0.000000 0.000389
# 5 0.008564 0.000958 0.012279 0.000000 0.034361 0.000000
# 6 0.000000 0.000000 0.000000 0.000389 0.000000 0.025917
#
#
# Mechanical properties :
#
#
# Convention : Reuss Voigt Hill
#
# Bulk Modulus (GPa) = 24.19166 40.98752 32.58959
# Shear Modulus (GPa) = 24.80509 56.23210 40.51859
#
# Velocity S-wave (km/s) = 3.24936 4.89238 4.15294
# Velocity P-wave (km/s) = 4.93711 7.02569 6.07188
#
# Compressibility (1/GPa) = 0.04133655
#
# Stress axis : x y z
#
# Youngs Moduli (GPa) = 30.28375 65.01999 30.84216
#
# Poissons Ratio (x) = 0.75899 0.52017
# Poissons Ratio (y) = 0.35351 -0.27126
# Poissons Ratio (z) = 0.51075 -0.57186
#
# Static dielectric constant tensor:
#      x y z
#    x 2.081880 0.000000 -0.004760 
#    y 0.000000 1.957590 0.000000 
#    z -0.004760 0.000000 2.056820 
# 
# From -- ./inp_files/150695.got.cif
#   From: 2010.05.17/outbox.cif.g08.bks.cpg/sg15_76_cif.got.tgz:150695.got - 2010.06.03 18:47:42.
