data_PCOD9294626
_publ_section_title
;
Structure prediction by ZEFSAII (Michael W. Deem and Ramdas Pophale) SiO2 
 PCOD9294626
Probable space group: C 2/C
;
_chemical_formula_sum "Si O2"
_cell_formula_units_Z 40
_cell_length_a 13.308488
_cell_length_b 4.795279
_cell_length_c 25.379392
_cell_angle_alpha 90.000000
_cell_angle_beta 77.797681
_cell_angle_gamma 90.000000
_cell_volume 1583.067408
_symmetry_space_group_name_H-M "C 2/C"
_symmetry_group_IT_number 15
_symmetry_cell_setting 'monoclinic'
loop_
_space_group_symop_operation_xyz
x,y,z
-x,y,1/2-z
-x,-y,-z
x,-y,1/2+z
1/2+x,1/2+y,z
1/2-x,1/2+y,1/2-z
1/2-x,1/2-y,-z
1/2+x,1/2-y,1/2+z
loop_
_atom_site_type_symbol
_atom_site_label
_atom_site_fract_x
_atom_site_fract_y
_atom_site_fract_z
Si Si1 0.183184 0.692544 0.816385
Si Si2 0.171911 0.310844 0.202711
Si Si3 0.082558 0.699327 0.041753
Si Si4 0.155536 0.800518 0.591963
Si Si5 0.628622 0.481517 0.928155
O O1 0.129191 0.742601 0.765901
O O2 0.223761 0.376934 0.813688
O O3 0.129257 0.800607 0.874606
O O4 0.289017 0.872358 0.802875
O O5 0.112696 0.244460 0.155669
O O6 0.094366 0.378379 0.055329
O O7 0.149616 0.879890 0.075932
O O8 0.120266 0.783681 0.979973
O O9 0.968062 0.812280 0.061233
O O10 0.268747 0.667752 0.578730
#
# Coordination Sequence:
#
# PCOD9294626 Si02
#       5
#     8   8   8   8   8
#     4   9  18  34  59  85 114 156 196 241 298 347
#     4   9  18  34  59  87 112 152 203 240 292 358
#     4  11  25  38  61  94 120 157 204 239 294 365
#     4  11  22  40  62  87 121 158 197 248 297 348
#     4  10  23  41  62  88 125 159 196 248 297 350
#
# _framework density 25.267403999999999
#
# number of rings (size 3 to 8) (size 9 to 14) (size 15 to 20)
#    0.000    2.000    0.000    3.600    0.000   11.200 
#    0.000    1.000    0.000    9.600    0.000    0.000 
#    0.000    0.000    0.000    0.000    0.000    0.000 
#
# Total GULP energy -112062.959466 kJ/mol
# GULP energy per Si atom -5603.147973 kJ/mol
# Density = 2.520989 g / cm^3
# Si number density = 25.267404 Si / 1000 Ang^3
#
#
#
# Elastic Constant Matrix: (Units=GPa)
#
#
# Indices 1 2 3 4 5 6 
#
# 1 73.9895 7.6474 25.3537 0.0002 1.3696 0.0005
# 2 7.6474 80.9545 3.0779 0.0011 4.5725 0.0013
# 3 25.3537 3.0779 190.8140 0.0000 6.3024 0.0001
# 4 0.0002 0.0011 0.0000 42.3856 0.0001 10.9526
# 5 1.3696 4.5725 6.3024 0.0001 24.6900 0.0002
# 6 0.0005 0.0013 0.0001 10.9526 0.0002 21.3698
#
#
#
# Elastic Compliance Matrix: (Units=1/GPa)
#
#
# Indices 1 2 3 4 5 6 
#
# 1 0.014291 -0.001274 -0.001876 0.000000 -0.000078 0.000000
# 2 -0.001274 0.012600 0.000041 0.000000 -0.002273 -0.000001
# 3 -0.001876 0.000041 0.005533 0.000000 -0.001316 0.000000
# 4 0.000000 0.000000 0.000000 0.027195 0.000000 -0.013938
# 5 -0.000078 -0.002273 -0.001316 0.000000 0.041263 0.000000
# 6 0.000000 -0.000001 0.000000 -0.013938 0.000000 0.053939
#
#
# Mechanical properties :
#
#
# Convention : Reuss Voigt Hill
#
# Bulk Modulus (GPa) = 38.15910 46.43509 42.29709
# Shear Modulus (GPa) = 29.45098 38.33436 33.89267
#
# Velocity S-wave (km/s) = 3.41775 3.89928 3.66643
# Velocity P-wave (km/s) = 5.54162 6.22012 5.89065
#
# Compressibility (1/GPa) = 0.02620607
#
# Stress axis : x y z
#
# Youngs Moduli (GPa) = 69.97241 79.36615 180.74225
#
# Poissons Ratio (x) = 0.10114 0.33903
# Poissons Ratio (y) = 0.08917 -0.00744
# Poissons Ratio (z) = 0.13125 -0.00327
#
# Static dielectric constant tensor:
#      x y z
#    x 1.997870 0.000000 0.027070 
#    y 0.000000 1.891440 0.000000 
#    z 0.027070 0.000000 2.018410 
# 
# From -- ./inp_files/271701.got.cif
#   From: 2010.05.17/outbox.cif.g08.bks.cpg/sg15_136_cif.got.tgz:271701.got - 2010.06.03 18:47:42.
