data_PCOD9294917
_publ_section_title
;
Structure prediction by ZEFSAII (Michael W. Deem and Ramdas Pophale) SiO2 
 PCOD9294917
Probable space group: C 2/C
;
_chemical_formula_sum "Si O2"
_cell_formula_units_Z 48
_cell_length_a 16.961947
_cell_length_b 7.127777
_cell_length_c 23.613805
_cell_angle_alpha 90.000000
_cell_angle_beta 128.940204
_cell_angle_gamma 90.000000
_cell_volume 2220.572784
_symmetry_space_group_name_H-M "C 2/C"
_symmetry_group_IT_number 15
_symmetry_cell_setting 'monoclinic'
loop_
_space_group_symop_operation_xyz
x,y,z
-x,y,1/2-z
-x,-y,-z
x,-y,1/2+z
1/2+x,1/2+y,z
1/2-x,1/2+y,1/2-z
1/2-x,1/2-y,-z
1/2+x,1/2-y,1/2+z
loop_
_atom_site_type_symbol
_atom_site_label
_atom_site_fract_x
_atom_site_fract_y
_atom_site_fract_z
Si Si1 0.584526 0.538500 0.583892
Si Si2 0.316614 0.002815 0.988880
Si Si3 0.095671 0.607086 0.264195
Si Si4 0.720560 0.876264 0.404304
Si Si5 0.198072 0.688893 0.631881
Si Si6 0.545658 0.928702 0.615384
O O1 0.500000 0.500000 0.500000
O O2 0.682133 0.590107 0.590803
O O3 0.621701 0.341225 0.625386
O O4 0.545699 0.703833 0.606188
O O5 0.290600 0.002997 0.043973
O O6 0.440451 0.981336 0.044990
O O7 0.241771 0.836285 0.933824
O O8 0.302036 0.169452 0.936701
O O9 0.130597 0.439779 0.322002
O O10 0.190174 0.748735 0.300207
O O11 0.062432 0.531868 0.188546
O O12 0.000000 0.704920 0.250000
O O13 0.146114 0.498087 0.628418
#
# Coordination Sequence:
#
# PCOD9294917 Si02
#       6
#     8   8   8   8   8   8
#     4  11  22  40  69 104 135 173 237 281 344 416
#     4  11  21  43  74  99 137 180 233 288 352 412
#     4  11  26  47  65  97 145 186 228 284 353 421
#     4  10  23  41  69 103 135 182 234 283 348 419
#     4  11  25  40  72 102 135 182 230 286 347 416
#     4  12  24  45  72 101 144 182 230 292 354 411
#
# _framework density 21.616043999999999
#
# number of rings (size 3 to 8) (size 9 to 14) (size 15 to 20)
#    0.000    1.000    5.000    1.500    4.667    4.000 
#    0.000    0.833    0.000    0.000    0.000    0.000 
#    0.000    0.000    0.000    0.000    0.000    0.000 
#
# Total GULP energy -133687.935341 kJ/mol
# GULP energy per Si atom -5570.330639 kJ/mol
# Density = 2.156684 g / cm^3
# Si number density = 21.616044 Si / 1000 Ang^3
#
#
#
# Elastic Constant Matrix: (Units=GPa)
#
#
# Indices 1 2 3 4 5 6 
#
# 1 68.3678 6.4338 18.6080 0.0000 2.6172 0.0000
# 2 6.4338 65.7820 22.9109 0.0000 -8.2442 0.0000
# 3 18.6080 22.9109 95.9751 0.0000 2.8761 0.0000
# 4 0.0000 0.0000 0.0000 24.1315 0.0000 -2.7336
# 5 2.6172 -8.2442 2.8761 0.0000 42.8064 0.0000
# 6 0.0000 0.0000 0.0000 -2.7336 0.0000 18.8436
#
#
#
# Elastic Compliance Matrix: (Units=1/GPa)
#
#
# Indices 1 2 3 4 5 6 
#
# 1 0.015489 -0.000642 -0.002823 0.000000 -0.000881 0.000000
# 2 -0.000642 0.017136 -0.004075 0.000000 0.003613 0.000000
# 3 -0.002823 -0.004075 0.011982 0.000000 -0.001417 0.000000
# 4 0.000000 0.000000 0.000000 0.042132 0.000000 0.006112
# 5 -0.000881 0.003613 -0.001417 0.000000 0.024206 0.000000
# 6 0.000000 0.000000 0.000000 0.006112 0.000000 0.053955
#
#
# Mechanical properties :
#
#
# Convention : Reuss Voigt Hill
#
# Bulk Modulus (GPa) = 33.86646 36.22557 35.04602
# Shear Modulus (GPa) = 26.34024 29.30110 27.82067
#
# Velocity S-wave (km/s) = 3.49456 3.68574 3.59142
# Velocity P-wave (km/s) = 5.65543 5.90829 5.78325
#
# Compressibility (1/GPa) = 0.02952774
#
# Stress axis : x y z
#
# Youngs Moduli (GPa) = 64.56030 58.35507 83.45895
#
# Poissons Ratio (x) = 0.03746 0.23565
# Poissons Ratio (y) = 0.04145 0.34006
# Poissons Ratio (z) = 0.18229 0.23777
#
# Static dielectric constant tensor:
#      x y z
#    x 1.815500 0.000000 -0.021790 
#    y 0.000000 1.882150 0.000000 
#    z -0.021790 0.000000 1.749150 
# 
# From -- ./inp_files/298018.got.cif
#   From: 2010.05.17/outbox.cif.g08.bks.cpg/sg15_150_cif.got.tgz:298018.got - 2010.06.03 18:47:42.
