data_PCOD9294190
_publ_section_title
;
Structure prediction by ZEFSAII (Michael W. Deem and Ramdas Pophale) SiO2 
 PCOD9294190
Probable space group: C 2/C
;
_chemical_formula_sum "Si O2"
_cell_formula_units_Z 48
_cell_length_a 19.066728
_cell_length_b 23.834572
_cell_length_c 7.600087
_cell_angle_alpha 90.000000
_cell_angle_beta 133.996473
_cell_angle_gamma 90.000000
_cell_volume 2484.631563
_symmetry_space_group_name_H-M "C 2/C"
_symmetry_group_IT_number 15
_symmetry_cell_setting 'monoclinic'
loop_
_space_group_symop_operation_xyz
x,y,z
-x,y,1/2-z
-x,-y,-z
x,-y,1/2+z
1/2+x,1/2+y,z
1/2-x,1/2+y,1/2-z
1/2-x,1/2-y,-z
1/2+x,1/2-y,1/2+z
loop_
_atom_site_type_symbol
_atom_site_label
_atom_site_fract_x
_atom_site_fract_y
_atom_site_fract_z
Si Si1 0.779388 0.718046 0.373389
Si Si2 0.112665 0.399613 0.396165
Si Si3 0.612105 0.647591 0.905851
Si Si4 0.758437 0.048600 0.420406
Si Si5 0.387914 0.328409 0.494549
Si Si6 0.254703 0.075017 0.686952
O O1 0.750000 0.750000 0.500000
O O2 0.846773 0.663619 0.511029
O O3 0.841370 0.767018 0.391596
O O4 0.682252 0.695139 0.109090
O O5 0.167063 0.438954 0.633712
O O6 0.147215 0.415960 0.258289
O O7 0.000000 0.401474 0.250000
O O8 0.500000 0.656065 0.750000
O O9 0.614784 0.647489 0.702661
O O10 0.658495 0.587061 0.025904
O O11 0.734493 0.066576 0.581717
O O12 0.786565 0.983640 0.458235
O O13 0.500000 0.325875 0.750000
O O14 0.317506 0.371973 0.476525
#
# Coordination Sequence:
#
# PCOD9294190 Si02
#       6
#     8   8   8   8   8   8
#     4  11  21  41  65  87 129 160 202 261 308 370
#     4  11  24  41  65  91 123 167 210 255 315 369
#     4  10  23  39  63  95 123 163 208 255 313 372
#     4  10  23  41  64  89 131 160 206 266 307 368
#     4  11  23  39  66  93 123 167 207 251 315 374
#     4  11  22  42  62  92 127 164 208 259 313 367
#
# _framework density 19.318759
#
# number of rings (size 3 to 8) (size 9 to 14) (size 15 to 20)
#    0.000    1.333    3.333    2.000    2.333    2.000 
#    0.000    3.333    0.000    0.000    0.000    0.000 
#    0.000    0.000    0.000    0.000    0.000    0.000 
#
# Total GULP energy -133708.181394 kJ/mol
# GULP energy per Si atom -5571.174225 kJ/mol
# Density = 1.927479 g / cm^3
# Si number density = 19.318759 Si / 1000 Ang^3
#
#
#
# Elastic Constant Matrix: (Units=GPa)
#
#
# Indices 1 2 3 4 5 6 
#
# 1 95.8902 25.9879 51.7342 0.0000 3.5661 0.0000
# 2 25.9879 120.3618 36.5610 0.0000 23.3334 0.0000
# 3 51.7342 36.5610 106.9360 0.0000 23.0821 0.0000
# 4 0.0000 0.0000 0.0000 -48.2495 0.0000 19.5515
# 5 3.5661 23.3334 23.0821 0.0000 26.5417 0.0000
# 6 0.0000 0.0000 0.0000 19.5515 0.0000 10.1793
#
#
#
# Elastic Compliance Matrix: (Units=1/GPa)
#
#
# Indices 1 2 3 4 5 6 
#
# 1 0.015099 -0.002144 -0.008052 0.000000 0.006858 0.000000
# 2 -0.002144 0.010635 -0.000792 0.000000 -0.008373 0.000000
# 3 -0.008052 -0.000792 0.016169 0.000000 -0.012284 0.000000
# 4 0.000000 0.000000 0.000000 -0.011655 0.000000 0.022385
# 5 0.006858 -0.008373 -0.012284 0.000000 0.054798 0.000000
# 6 0.000000 0.000000 0.000000 0.022385 0.000000 0.055243
#
#
# Mechanical properties :
#
#
# Convention : Reuss Voigt Hill
#
# Bulk Modulus (GPa) = 50.18153 61.30604 55.74378
# Shear Modulus (GPa) = 29.60222 11.62128 20.61175
#
# Velocity S-wave (km/s) = 3.91871 2.45532 3.26993
# Velocity P-wave (km/s) = 6.81961 6.31197 6.57069
#
# Compressibility (1/GPa) = 0.01992765
#
# Stress axis : x y z
#
# Youngs Moduli (GPa) = 66.23079 94.03113 61.84713
#
# Poissons Ratio (x) = 0.20158 0.49799
# Poissons Ratio (y) = 0.14198 0.04896
# Poissons Ratio (z) = 0.53329 0.07443
#
# Static dielectric constant tensor:
#      x y z
#    x 1.676740 0.000000 -0.022880 
#    y 0.000000 1.411090 0.000000 
#    z -0.022880 0.000000 1.671690 
# 
# From -- ./inp_files/50399.got.cif
#   From: 2010.05.17/outbox.cif.g08.bks.cpg/sg15_26_cif.got.tgz:50399.got - 2010.06.03 18:47:42.
