data_PCOD9294997
_publ_section_title
;
Structure prediction by ZEFSAII (Michael W. Deem and Ramdas Pophale) SiO2 
 PCOD9294997
Probable space group: C 2/C
;
_chemical_formula_sum "Si O2"
_cell_formula_units_Z 40
_cell_length_a 16.329682
_cell_length_b 9.902978
_cell_length_c 12.169587
_cell_angle_alpha 90.000000
_cell_angle_beta 98.605958
_cell_angle_gamma 90.000000
_cell_volume 1945.816351
_symmetry_space_group_name_H-M "C 2/C"
_symmetry_group_IT_number 15
_symmetry_cell_setting 'monoclinic'
loop_
_space_group_symop_operation_xyz
x,y,z
-x,y,1/2-z
-x,-y,-z
x,-y,1/2+z
1/2+x,1/2+y,z
1/2-x,1/2+y,1/2-z
1/2-x,1/2-y,-z
1/2+x,1/2-y,1/2+z
loop_
_atom_site_type_symbol
_atom_site_label
_atom_site_fract_x
_atom_site_fract_y
_atom_site_fract_z
Si Si1 0.787977 0.862405 0.586053
Si Si2 0.032373 0.659390 0.378706
Si Si3 0.914259 0.926658 0.006317
Si Si4 0.589007 0.748440 0.209590
Si Si5 0.115333 0.490297 0.569178
O O1 0.750000 0.750000 0.500000
O O2 0.841005 0.784822 0.687981
O O3 0.847296 0.967547 0.535241
O O4 0.707911 0.944510 0.610953
O O5 0.068629 0.808238 0.401959
O O6 0.099130 0.556945 0.445928
O O7 0.000000 0.636635 0.250000
O O8 0.949880 0.632558 0.435073
O O9 0.893735 0.851925 0.888548
O O10 0.000000 0.000000 0.000000
O O11 0.500000 0.727400 0.250000
O O12 0.591279 0.895985 0.154004
#
# Coordination Sequence:
#
# PCOD9294997 Si02
#       5
#     8   8   8   8   8
#     4  12  28  43  70 101 143 180 230 287 344 405
#     4  10  23  41  74  94 136 180 226 279 342 409
#     4  11  24  44  67 102 131 176 234 275 345 405
#     4  11  25  46  72  96 137 185 225 292 342 413
#     4  10  25  44  66 106 134 178 233 279 346 415
#
# _framework density 20.556923999999999
#
# number of rings (size 3 to 8) (size 9 to 14) (size 15 to 20)
#    0.000    1.200    2.000    1.800   14.000    4.800 
#    0.000    0.000    0.000    0.000    0.000    0.000 
#    0.000    0.000    0.000    0.000    0.000    0.000 
#
# Total GULP energy -111779.950312 kJ/mol
# GULP energy per Si atom -5588.997516 kJ/mol
# Density = 2.051014 g / cm^3
# Si number density = 20.556924 Si / 1000 Ang^3
#
#
#
# Elastic Constant Matrix: (Units=GPa)
#
#
# Indices 1 2 3 4 5 6 
#
# 1 106.3265 37.9746 29.1063 0.0000 25.2165 0.0000
# 2 37.9746 105.2419 46.7176 0.0000 7.0441 0.0000
# 3 29.1063 46.7176 145.8188 0.0000 35.8752 0.0000
# 4 0.0000 0.0000 0.0000 16.2692 0.0000 4.0907
# 5 25.2165 7.0441 35.8752 0.0000 35.0233 0.0000
# 6 0.0000 0.0000 0.0000 4.0907 0.0000 41.0724
#
#
#
# Elastic Compliance Matrix: (Units=1/GPa)
#
#
# Indices 1 2 3 4 5 6 
#
# 1 0.013015 -0.004611 0.001279 0.000000 -0.009753 0.000000
# 2 -0.004611 0.012805 -0.004499 0.000000 0.005353 0.000000
# 3 0.001279 -0.004499 0.010759 0.000000 -0.011037 0.000000
# 4 0.000000 0.000000 0.000000 0.063045 0.000000 -0.006279
# 5 -0.009753 0.005353 -0.011037 0.000000 0.045804 0.000000
# 6 0.000000 0.000000 0.000000 -0.006279 0.000000 0.024973
#
#
# Mechanical properties :
#
#
# Convention : Reuss Voigt Hill
#
# Bulk Modulus (GPa) = 47.80860 64.99823 56.40341
# Shear Modulus (GPa) = 25.90217 34.71220 30.30719
#
# Velocity S-wave (km/s) = 3.55353 4.11370 3.84383
# Velocity P-wave (km/s) = 6.33592 7.36551 6.87003
#
# Compressibility (1/GPa) = 0.02091674
#
# Stress axis : x y z
#
# Youngs Moduli (GPa) = 76.83534 78.09712 92.94300
#
# Poissons Ratio (x) = 0.36012 -0.11888
# Poissons Ratio (y) = 0.35430 0.41814
# Poissons Ratio (z) = -0.09828 0.35135
#
# Static dielectric constant tensor:
#      x y z
#    x 1.711980 0.000000 -0.028320 
#    y 0.000000 1.767700 0.000000 
#    z -0.028320 0.000000 1.662350 
# 
# From -- ./inp_files/102858.got.cif
#   From: 2010.05.17/outbox.cif.g08.bks.cpg/sg15_52_cif.got.tgz:102858.got - 2010.06.03 18:47:42.
