data_PCOD9294229
_publ_section_title
;
Structure prediction by ZEFSAII (Michael W. Deem and Ramdas Pophale) SiO2 
 PCOD9294229
Probable space group: C 2/C
;
_chemical_formula_sum "Si O2"
_cell_formula_units_Z 48
_cell_length_a 13.992551
_cell_length_b 22.880966
_cell_length_c 10.220183
_cell_angle_alpha 90.000000
_cell_angle_beta 136.721303
_cell_angle_gamma 90.000000
_cell_volume 2243.198023
_symmetry_space_group_name_H-M "C 2/C"
_symmetry_group_IT_number 15
_symmetry_cell_setting 'monoclinic'
loop_
_space_group_symop_operation_xyz
x,y,z
-x,y,1/2-z
-x,-y,-z
x,-y,1/2+z
1/2+x,1/2+y,z
1/2-x,1/2+y,1/2-z
1/2-x,1/2-y,-z
1/2+x,1/2-y,1/2+z
loop_
_atom_site_type_symbol
_atom_site_label
_atom_site_fract_x
_atom_site_fract_y
_atom_site_fract_z
Si Si1 0.711776 0.516381 0.907368
Si Si2 0.500000 0.127154 0.750000
Si Si3 0.500000 0.385584 0.250000
Si Si4 0.899277 0.443748 0.391027
Si Si5 0.699008 0.219491 0.082028
Si Si6 0.000000 0.086758 0.250000
Si Si7 0.500000 0.060506 0.250000
Si Si8 0.502499 0.320155 0.523029
O O1 0.628259 0.569637 0.887057
O O2 0.749260 0.533554 0.793725
O O3 0.627048 0.456959 0.839426
O O4 0.961377 0.593797 0.077828
O O5 0.584667 0.091266 0.725008
O O6 0.393698 0.165647 0.559448
O O7 0.485421 0.347197 0.363766
O O8 0.862991 0.520043 0.124733
O O9 0.000000 0.500000 0.500000
O O10 0.837587 0.199836 0.295615
O O11 0.750000 0.250000 0.000000
O O12 0.601052 0.265983 0.057457
O O13 0.029158 0.129785 0.400362
#
# Coordination Sequence:
#
# PCOD9294229 Si02
#       8
#     8   4   4   8   8   4   4   8
#     4   9  24  44  68 107 153 189 246 274 361 453
#     4  12  26  42  79 105 148 191 238 315 348 418
#     4  11  28  48  72 109 152 187 229 306 380 432
#     4  10  23  39  65 105 144 187 238 280 350 421
#     4  12  25  49  72 109 133 184 260 303 350 431
#     4  11  23  46  78  99 149 201 229 298 360 430
#     4   8  21  42  59  97 151 185 238 281 328 440
#     4  12  28  48  77 105 142 188 247 304 371 417
#
# _framework density 21.398022000000001
#
# number of rings (size 3 to 8) (size 9 to 14) (size 15 to 20)
#    1.000    0.333    3.333    0.500    7.000    4.667 
#    0.000    0.833    0.000    0.000    0.000    0.000 
#    0.000    0.000    0.000    0.000    0.000    0.000 
#
# Total GULP energy -133999.145522 kJ/mol
# GULP energy per Si atom -5583.297730 kJ/mol
# Density = 2.134932 g / cm^3
# Si number density = 21.398022 Si / 1000 Ang^3
#
#
#
# Elastic Constant Matrix: (Units=GPa)
#
#
# Indices 1 2 3 4 5 6 
#
# 1 141.2673 78.2535 43.6928 0.0000 -6.1933 0.0000
# 2 78.2535 125.2144 54.7090 0.0000 -2.3523 0.0000
# 3 43.6928 54.7090 88.4599 0.0000 6.8779 0.0000
# 4 0.0000 0.0000 0.0000 23.4106 0.0000 0.6755
# 5 -6.1933 -2.3523 6.8779 0.0000 53.3654 0.0000
# 6 0.0000 0.0000 0.0000 0.6755 0.0000 20.6228
#
#
#
# Elastic Compliance Matrix: (Units=1/GPa)
#
#
# Indices 1 2 3 4 5 6 
#
# 1 0.011074 -0.006119 -0.001782 0.000000 0.001245 0.000000
# 2 -0.006119 0.014424 -0.005952 0.000000 0.000693 0.000000
# 3 -0.001782 -0.005952 0.016064 0.000000 -0.002540 0.000000
# 4 0.000000 0.000000 0.000000 0.042756 0.000000 -0.001400
# 5 0.001245 0.000693 -0.002540 0.000000 0.019241 0.000000
# 6 0.000000 0.000000 0.000000 -0.001400 0.000000 0.048536
#
#
# Mechanical properties :
#
#
# Convention : Reuss Voigt Hill
#
# Bulk Modulus (GPa) = 72.17709 78.69469 75.43589
# Shear Modulus (GPa) = 27.11206 31.36551 29.23879
#
# Velocity S-wave (km/s) = 3.56341 3.83275 3.70053
# Velocity P-wave (km/s) = 7.12281 7.51286 7.32043
#
# Compressibility (1/GPa) = 0.01385481
#
# Stress axis : x y z
#
# Youngs Moduli (GPa) = 90.30170 69.32956 62.25206
#
# Poissons Ratio (x) = 0.42420 0.11096
# Poissons Ratio (y) = 0.55252 0.37055
# Poissons Ratio (z) = 0.16096 0.41267
#
# Static dielectric constant tensor:
#      x y z
#    x 1.416070 0.000000 -0.261190 
#    y 0.000000 1.770520 0.000000 
#    z -0.261190 0.000000 1.754770 
# 
# From -- ./inp_files/100109.got.cif
#   From: 2010.05.17/outbox.cif.g08.bks.cpg/sg15_51_cif.got.tgz:100109.got - 2010.06.03 18:47:42.
