data_PCOD9294996
_publ_section_title
;
Structure prediction by ZEFSAII (Michael W. Deem and Ramdas Pophale) SiO2 
 PCOD9294996
Probable space group: C 2/C
;
_chemical_formula_sum "Si O2"
_cell_formula_units_Z 44
_cell_length_a 17.618089
_cell_length_b 5.634605
_cell_length_c 21.184765
_cell_angle_alpha 90.000000
_cell_angle_beta 48.168632
_cell_angle_gamma 90.000000
_cell_volume 1566.992395
_symmetry_space_group_name_H-M "C 2/C"
_symmetry_group_IT_number 15
_symmetry_cell_setting 'monoclinic'
loop_
_space_group_symop_operation_xyz
x,y,z
-x,y,1/2-z
-x,-y,-z
x,-y,1/2+z
1/2+x,1/2+y,z
1/2-x,1/2+y,1/2-z
1/2-x,1/2-y,-z
1/2+x,1/2-y,1/2+z
loop_
_atom_site_type_symbol
_atom_site_label
_atom_site_fract_x
_atom_site_fract_y
_atom_site_fract_z
Si Si1 0.742208 0.498758 0.467550
Si Si2 0.350816 0.539265 0.645128
Si Si3 0.351939 0.280509 0.771999
Si Si4 0.000000 0.928246 0.250000
Si Si5 0.946225 0.247533 0.488559
Si Si6 0.543811 0.038682 0.133929
O O1 0.750000 0.750000 0.500000
O O2 0.633078 0.456106 0.494248
O O3 0.857617 0.506122 0.376212
O O4 0.750000 0.250000 0.500000
O O5 0.324667 0.467415 0.731073
O O6 0.239708 0.592909 0.677689
O O7 0.409026 0.767992 0.581802
O O8 0.437812 0.343089 0.579823
O O9 0.390603 0.440818 0.808450
O O10 0.456998 0.150911 0.696619
O O11 0.998275 0.785339 0.317040
O O12 0.927526 0.472342 0.453755
#
# Coordination Sequence:
#
# PCOD9294996 Si02
#       6
#     8   8   8   4   8   8
#     4  10  23  41  74 108 152 197 260 330 400 480
#     4  10  24  48  76 111 156 203 260 330 407 487
#     4  11  27  46  77 113 156 203 270 333 410 485
#     4  12  28  44  76 110 154 210 266 340 404 484
#     4   9  22  48  77 109 157 206 264 327 408 484
#     4  10  25  45  72 112 154 202 270 331 401 484
#
# _framework density 28.079267999999999
#
# number of rings (size 3 to 8) (size 9 to 14) (size 15 to 20)
#    0.000    1.818    0.000    0.545   15.273    1.455 
#    0.000    0.909    0.000    0.000    0.000    0.000 
#    0.000    0.000    0.000    0.000    0.000    0.000 
#
# Total GULP energy -122525.985994 kJ/mol
# GULP energy per Si atom -5569.363000 kJ/mol
# Density = 2.801536 g / cm^3
# Si number density = 28.079268 Si / 1000 Ang^3
#
#
#
# Elastic Constant Matrix: (Units=GPa)
#
#
# Indices 1 2 3 4 5 6 
#
# 1 214.3303 92.1616 34.6656 -0.0005 -50.5209 0.0089
# 2 92.1616 134.0653 29.6700 0.0143 -1.9386 0.0376
# 3 34.6656 29.6700 93.5671 -0.0023 -15.2456 0.0008
# 4 -0.0005 0.0143 -0.0023 34.6877 0.0030 -13.7148
# 5 -50.5209 -1.9386 -15.2456 0.0030 39.9171 0.0048
# 6 0.0089 0.0376 0.0008 -13.7148 0.0048 64.9518
#
#
#
# Elastic Compliance Matrix: (Units=1/GPa)
#
#
# Indices 1 2 3 4 5 6 
#
# 1 0.011096 -0.007548 0.000545 0.000003 0.013885 0.000002
# 2 -0.007548 0.013170 -0.003020 -0.000008 -0.010066 -0.000007
# 3 0.000545 -0.003020 0.012297 0.000002 0.005240 0.000002
# 4 0.000003 -0.000008 0.000002 0.031455 0.000001 0.006642
# 5 0.013885 -0.010066 0.005240 0.000001 0.044138 0.000001
# 6 0.000002 -0.000007 0.000002 0.006642 0.000001 0.016798
#
#
# Mechanical properties :
#
#
# Convention : Reuss Voigt Hill
#
# Bulk Modulus (GPa) = 60.54203 83.88410 72.21307
# Shear Modulus (GPa) = 32.36119 46.94236 39.65177
#
# Velocity S-wave (km/s) = 3.39852 4.09318 3.76192
# Velocity P-wave (km/s) = 6.08341 7.23033 6.68152
#
# Compressibility (1/GPa) = 0.01651745
#
# Stress axis : x y z
#
# Youngs Moduli (GPa) = 90.12308 75.92798 81.32000
#
# Poissons Ratio (x) = 0.57307 -0.04430
# Poissons Ratio (y) = 0.68021 0.24560
# Poissons Ratio (z) = -0.04910 0.22932
#
# Static dielectric constant tensor:
#      x y z
#    x 2.339700 -0.000030 0.133240 
#    y -0.000030 2.324620 -0.000020 
#    z 0.133240 -0.000020 2.350220 
# 
# From -- ./inp_files/297631.got.cif
#   From: 2010.05.17/outbox.cif.g08.bks.cpg/sg15_149_cif.got.tgz:297631.got - 2010.06.03 18:47:42.
