data_PCOD9294270
_publ_section_title
;
Structure prediction by ZEFSAII (Michael W. Deem and Ramdas Pophale) SiO2 
 PCOD9294270
Probable space group: C 2/C
;
_chemical_formula_sum "Si O2"
_cell_formula_units_Z 60
_cell_length_a 17.938535
_cell_length_b 12.638892
_cell_length_c 12.811702
_cell_angle_alpha 90.000000
_cell_angle_beta 87.969623
_cell_angle_gamma 90.000000
_cell_volume 2902.886534
_symmetry_space_group_name_H-M "C 2/C"
_symmetry_group_IT_number 15
_symmetry_cell_setting 'monoclinic'
loop_
_space_group_symop_operation_xyz
x,y,z
-x,y,1/2-z
-x,-y,-z
x,-y,1/2+z
1/2+x,1/2+y,z
1/2-x,1/2+y,1/2-z
1/2-x,1/2-y,-z
1/2+x,1/2-y,1/2+z
loop_
_atom_site_type_symbol
_atom_site_label
_atom_site_fract_x
_atom_site_fract_y
_atom_site_fract_z
Si Si1 0.444856 0.679937 0.454438
Si Si2 0.000000 0.934291 0.750000
Si Si3 0.097677 0.114641 0.818334
Si Si4 0.761234 0.654930 0.860323
Si Si5 0.835671 0.529408 0.684526
Si Si6 0.959294 0.611565 0.518950
Si Si7 0.082272 0.338695 0.709251
Si Si8 0.228319 0.879333 0.590521
O O1 0.491713 0.629861 0.357384
O O2 0.450012 0.635255 0.572945
O O3 0.476881 0.800119 0.458820
O O4 0.358716 0.648184 0.429571
O O5 0.930966 0.013287 0.740522
O O6 0.182687 0.098730 0.845930
O O7 0.093443 0.219110 0.747694
O O8 0.820602 0.606839 0.780992
O O9 0.751318 0.778926 0.839303
O O10 0.776017 0.638226 0.981861
O O11 0.895419 0.586294 0.607114
O O12 0.866750 0.421663 0.732797
O O13 0.758312 0.490294 0.633195
O O14 0.917872 0.648816 0.415116
O O15 0.000000 0.500000 0.500000
O O16 0.000000 0.369725 0.750000
#
# Coordination Sequence:
#
# PCOD9294270 Si02
#       8
#     8   4   8   8   8   8   8   8
#     4  11  25  41  65 101 134 173 228 283 335 411
#     4  12  24  38  70  94 134 164 226 286 332 382
#     4  11  21  45  65  90 127 186 220 259 342 416
#     4  10  23  39  68  90 129 175 222 267 331 411
#     4  12  24  42  68 102 132 176 225 288 341 404
#     4  12  26  41  66 104 139 170 222 286 352 401
#     4  12  22  40  67  92 128 173 219 263 332 416
#     4  10  23  43  67  94 132 179 229 269 335 422
#
# _framework density 20.669083000000001
#
# number of rings (size 3 to 8) (size 9 to 14) (size 15 to 20)
#    0.000    0.800    4.667    2.000    7.467    0.000 
#    0.000    0.667    0.000    0.000    0.000    0.000 
#    0.000    0.000    0.000    0.000    0.000    0.000 
#
# Total GULP energy -167351.105340 kJ/mol
# GULP energy per Si atom -5578.370178 kJ/mol
# Density = 2.062204 g / cm^3
# Si number density = 20.669083 Si / 1000 Ang^3
#
#
#
# Elastic Constant Matrix: (Units=GPa)
#
#
# Indices 1 2 3 4 5 6 
#
# 1 46.9664 17.8573 11.0055 0.0000 0.7692 0.0000
# 2 17.8573 91.7104 65.0156 0.0000 -11.1469 0.0000
# 3 11.0055 65.0156 95.5150 0.0000 -21.1906 0.0000
# 4 0.0000 0.0000 0.0000 250.0882 0.0000 -130.8467
# 5 0.7692 -11.1469 -21.1906 0.0000 34.7865 0.0000
# 6 0.0000 0.0000 0.0000 -130.8467 0.0000 106.0832
#
#
#
# Elastic Compliance Matrix: (Units=1/GPa)
#
#
# Indices 1 2 3 4 5 6 
#
# 1 0.023135 -0.004920 0.000254 0.000000 -0.001933 0.000000
# 2 -0.004920 0.022279 -0.015020 0.000000 -0.001902 0.000000
# 3 0.000254 -0.015020 0.022657 0.000000 0.008983 0.000000
# 4 0.000000 0.000000 0.000000 0.011274 0.000000 0.013906
# 5 -0.001933 -0.001902 0.008983 0.000000 0.033652 0.000000
# 6 0.000000 0.000000 0.000000 0.013906 0.000000 0.026579
#
#
# Mechanical properties :
#
#
# Convention : Reuss Voigt Hill
#
# Bulk Modulus (GPa) = 34.84375 46.88317 40.86346
# Shear Modulus (GPa) = 26.52346 87.54579 57.03462
#
# Velocity S-wave (km/s) = 3.58612 6.51520 5.25871
# Velocity P-wave (km/s) = 5.83451 8.90669 7.52897
#
# Compressibility (1/GPa) = 0.02869955
#
# Stress axis : x y z
#
# Youngs Moduli (GPa) = 43.22546 44.88630 44.13666
#
# Poissons Ratio (x) = 0.22084 -0.01123
# Poissons Ratio (y) = 0.21267 0.66292
# Poissons Ratio (z) = -0.01100 0.67418
#
# Static dielectric constant tensor:
#      x y z
#    x 1.793410 0.000000 0.068750 
#    y 0.000000 1.736690 0.000000 
#    z 0.068750 0.000000 1.866770 
# 
# From -- ./inp_files/111640.got.cif
#   From: 2010.05.17/outbox.cif.g08.bks.cpg/sg15_56_cif.got.tgz:111640.got - 2010.06.03 18:47:42.
