data_PCOD9294874
_publ_section_title
;
Structure prediction by ZEFSAII (Michael W. Deem and Ramdas Pophale) SiO2 
 PCOD9294874
Probable space group: C 2/C
;
_chemical_formula_sum "Si O2"
_cell_formula_units_Z 36
_cell_length_a 5.530019
_cell_length_b 22.614942
_cell_length_c 11.915677
_cell_angle_alpha 90.000000
_cell_angle_beta 69.727432
_cell_angle_gamma 90.000000
_cell_volume 1397.877438
_symmetry_space_group_name_H-M "C 2/C"
_symmetry_group_IT_number 15
_symmetry_cell_setting 'monoclinic'
loop_
_space_group_symop_operation_xyz
x,y,z
-x,y,1/2-z
-x,-y,-z
x,-y,1/2+z
1/2+x,1/2+y,z
1/2-x,1/2+y,1/2-z
1/2-x,1/2-y,-z
1/2+x,1/2-y,1/2+z
loop_
_atom_site_type_symbol
_atom_site_label
_atom_site_fract_x
_atom_site_fract_y
_atom_site_fract_z
Si Si1 0.307288 0.113155 0.519645
Si Si2 0.944695 0.729635 0.063536
Si Si3 0.772713 0.117344 0.217850
Si Si4 0.500000 0.309839 0.250000
Si Si5 0.300901 0.984801 0.185792
O O1 0.536891 0.158973 0.457706
O O2 0.158893 0.105387 0.424238
O O3 0.374210 0.049981 0.561259
O O4 0.155266 0.147306 0.642161
O O5 0.855168 0.765113 0.188821
O O6 0.750000 0.750000 0.000000
O O7 0.250000 0.750000 0.000000
O O8 0.500000 0.150011 0.250000
O O9 0.000000 0.147090 0.250000
O O10 0.707969 0.056086 0.294561
O O11 0.500000 0.963827 0.250000
O O12 0.000000 0.969871 0.250000
#
# Coordination Sequence:
#
# PCOD9294874 Si02
#       5
#     8   8   8   4   8
#     4  11  24  45  78 102 149 193 234 304 367 421
#     4  10  25  44  69 101 136 180 240 297 348 422
#     4  10  25  45  68 108 149 193 243 289 355 440
#     4  10  24  48  68 110 132 190 242 302 362 428
#     4  10  23  41  68 106 144 189 238 288 355 437
#
# _framework density 25.753332
#
# number of rings (size 3 to 8) (size 9 to 14) (size 15 to 20)
#    0.000    1.778    1.111    0.000    4.667   15.111 
#    0.000    0.000    0.000    0.000    0.000    0.000 
#    0.000    0.000    0.000    0.000    0.000    0.000 
#
# Total GULP energy -100399.351583 kJ/mol
# GULP energy per Si atom -5577.741755 kJ/mol
# Density = 2.569472 g / cm^3
# Si number density = 25.753332 Si / 1000 Ang^3
#
#
#
# Elastic Constant Matrix: (Units=GPa)
#
#
# Indices 1 2 3 4 5 6 
#
# 1 191.2234 38.6775 65.4507 0.0000 35.4258 0.0000
# 2 38.6775 192.1334 63.8212 0.0000 5.5014 0.0000
# 3 65.4507 63.8212 181.2431 0.0000 29.3960 0.0000
# 4 0.0000 0.0000 0.0000 59.4649 0.0000 -10.5422
# 5 35.4258 5.5014 29.3960 0.0000 53.9107 0.0000
# 6 0.0000 0.0000 0.0000 -10.5422 0.0000 -167.7527
#
#
#
# Elastic Compliance Matrix: (Units=1/GPa)
#
#
# Indices 1 2 3 4 5 6 
#
# 1 0.006530 -0.000698 -0.001567 0.000000 -0.003366 0.000000
# 2 -0.000698 0.005985 -0.002009 0.000000 0.000943 0.000000
# 3 -0.001567 -0.002009 0.007230 0.000000 -0.002708 0.000000
# 4 0.000000 0.000000 0.000000 0.016631 0.000000 -0.001045
# 5 -0.003366 0.000943 -0.002708 0.000000 0.022141 0.000000
# 6 0.000000 0.000000 0.000000 -0.001045 0.000000 -0.005895
#
#
# Mechanical properties :
#
#
# Convention : Reuss Voigt Hill
#
# Bulk Modulus (GPa) = 89.29111 100.05540 94.67326
# Shear Modulus (GPa) = 77.03972 15.56796 46.30384
#
# Velocity S-wave (km/s) = 5.47535 2.46133 4.24485
# Velocity P-wave (km/s) = 8.64404 6.85663 7.80169
#
# Compressibility (1/GPa) = 0.01119932
#
# Stress axis : x y z
#
# Youngs Moduli (GPa) = 153.13023 167.07360 138.31951
#
# Poissons Ratio (x) = 0.11659 0.21670
# Poissons Ratio (y) = 0.10686 0.27783
# Poissons Ratio (z) = 0.23990 0.33558
#
# Static dielectric constant tensor:
#      x y z
#    x -164.586750 0.000000 -35.141110 
#    y 0.000000 2.087680 0.000000 
#    z -35.141110 0.000000 -4.915820 
# 
# From -- ./inp_files/72504.got.cif
#   From: 2010.05.17/outbox.cif.g08.bks.cpg/sg15_37_cif.got.tgz:72504.got - 2010.06.03 18:47:42.
