data_PCOD9294397
_publ_section_title
;
Structure prediction by ZEFSAII (Michael W. Deem and Ramdas Pophale) SiO2 
 PCOD9294397
Probable space group: C 2/C
;
_chemical_formula_sum "Si O2"
_cell_formula_units_Z 44
_cell_length_a 9.316075
_cell_length_b 18.080791
_cell_length_c 12.486379
_cell_angle_alpha 90.000000
_cell_angle_beta 66.450607
_cell_angle_gamma 90.000000
_cell_volume 1928.065213
_symmetry_space_group_name_H-M "C 2/C"
_symmetry_group_IT_number 15
_symmetry_cell_setting 'monoclinic'
loop_
_space_group_symop_operation_xyz
x,y,z
-x,y,1/2-z
-x,-y,-z
x,-y,1/2+z
1/2+x,1/2+y,z
1/2-x,1/2+y,1/2-z
1/2-x,1/2-y,-z
1/2+x,1/2-y,1/2+z
loop_
_atom_site_type_symbol
_atom_site_label
_atom_site_fract_x
_atom_site_fract_y
_atom_site_fract_z
Si Si1 0.685625 0.697655 0.205458
Si Si2 0.500000 0.090236 0.250000
Si Si3 0.898584 0.838741 0.176562
Si Si4 0.530368 0.139642 0.475038
Si Si5 0.875880 0.444351 0.203905
Si Si6 0.366187 0.288441 0.548911
O O1 0.500000 0.698688 0.250000
O O2 0.776172 0.775975 0.175540
O O3 0.781966 0.646460 0.094327
O O4 0.708434 0.677478 0.323599
O O5 0.472194 0.134298 0.368719
O O6 0.374263 0.028954 0.243211
O O7 0.793411 0.908182 0.238220
O O8 0.000000 0.814807 0.250000
O O9 0.024578 0.846089 0.045175
O O10 0.454212 0.074260 0.566375
O O11 0.470921 0.215844 0.547047
O O12 0.000000 0.408016 0.250000
O O13 0.250000 0.250000 0.500000
#
# Coordination Sequence:
#
# PCOD9294397 Si02
#       6
#     8   4   8   8   8   8
#     4  11  24  36  61  99 129 161 200 268 331 386
#     4  10  24  40  68  86 122 180 228 256 308 368
#     4  11  21  37  61  93 127 164 202 256 327 381
#     4  11  22  40  64  90 128 166 216 260 319 386
#     4  10  23  40  64  91 123 166 219 263 305 374
#     4  11  21  36  63  94 132 161 204 258 328 395
#
# _framework density 22.820805
#
# number of rings (size 3 to 8) (size 9 to 14) (size 15 to 20)
#    0.545    0.727    3.636    2.182    5.091    1.455 
#    0.000    0.909    0.000    8.727    0.000    0.000 
#    0.000    0.000    0.000    0.000    0.000    0.000 
#
# Total GULP energy -122677.358213 kJ/mol
# GULP energy per Si atom -5576.243555 kJ/mol
# Density = 2.276886 g / cm^3
# Si number density = 22.820805 Si / 1000 Ang^3
#
#
#
# Elastic Constant Matrix: (Units=GPa)
#
#
# Indices 1 2 3 4 5 6 
#
# 1 92.2789 3.3376 0.5689 0.0000 -11.0555 0.0000
# 2 3.3376 69.6090 24.7209 0.0000 -11.2618 0.0000
# 3 0.5689 24.7209 134.6933 0.0000 -5.9882 0.0000
# 4 0.0000 0.0000 0.0000 25.6483 0.0000 7.2016
# 5 -11.0555 -11.2618 -5.9882 0.0000 38.4239 0.0000
# 6 0.0000 0.0000 0.0000 7.2016 0.0000 25.7105
#
#
#
# Elastic Compliance Matrix: (Units=1/GPa)
#
#
# Indices 1 2 3 4 5 6 
#
# 1 0.011225 -0.000053 0.000106 0.000000 0.003231 0.000000
# 2 -0.000053 0.016035 -0.002754 0.000000 0.004255 0.000000
# 3 0.000106 -0.002754 0.007950 0.000000 0.000462 0.000000
# 4 0.000000 0.000000 0.000000 0.042317 0.000000 -0.011853
# 5 0.003231 0.004255 0.000462 0.000000 0.028274 0.000000
# 6 0.000000 0.000000 0.000000 -0.011853 0.000000 0.042215
#
#
# Mechanical properties :
#
#
# Convention : Reuss Voigt Hill
#
# Bulk Modulus (GPa) = 33.54790 39.31512 36.43151
# Shear Modulus (GPa) = 30.60849 35.82012 33.21430
#
# Velocity S-wave (km/s) = 3.66629 3.96615 3.81916
# Velocity P-wave (km/s) = 5.71443 6.18376 5.95372
#
# Compressibility (1/GPa) = 0.02980812
#
# Stress axis : x y z
#
# Youngs Moduli (GPa) = 89.08659 62.36420 125.79003
#
# Poissons Ratio (x) = 0.00332 -0.01333
# Poissons Ratio (y) = 0.00474 0.34637
# Poissons Ratio (z) = -0.00944 0.17172
#
# Static dielectric constant tensor:
#      x y z
#    x 1.962680 0.000000 0.001580 
#    y 0.000000 1.850150 0.000000 
#    z 0.001580 0.000000 1.872240 
# 
# From -- ./inp_files/135846.got.cif
#   From: 2010.05.17/outbox.cif.g08.bks.cpg/sg15_68_cif.got.tgz:135846.got - 2010.06.03 18:47:42.
