data_PCOD9294245
_publ_section_title
;
Structure prediction by ZEFSAII (Michael W. Deem and Ramdas Pophale) SiO2 
 PCOD9294245
Probable space group: C 2/C
;
_chemical_formula_sum "Si O2"
_cell_formula_units_Z 56
_cell_length_a 8.774459
_cell_length_b 18.314568
_cell_length_c 23.352643
_cell_angle_alpha 90.000000
_cell_angle_beta 44.874840
_cell_angle_gamma 90.000000
_cell_volume 2647.812930
_symmetry_space_group_name_H-M "C 2/C"
_symmetry_group_IT_number 15
_symmetry_cell_setting 'monoclinic'
loop_
_space_group_symop_operation_xyz
x,y,z
-x,y,1/2-z
-x,-y,-z
x,-y,1/2+z
1/2+x,1/2+y,z
1/2-x,1/2+y,1/2-z
1/2-x,1/2-y,-z
1/2+x,1/2-y,1/2+z
loop_
_atom_site_type_symbol
_atom_site_label
_atom_site_fract_x
_atom_site_fract_y
_atom_site_fract_z
Si Si1 0.246539 0.835244 0.333877
Si Si2 0.732813 0.841364 0.670973
Si Si3 0.689832 0.501977 0.376868
Si Si4 0.685836 0.258173 0.083409
Si Si5 0.104192 0.200674 0.157508
Si Si6 0.193105 0.503048 0.531043
Si Si7 0.004966 0.616209 0.001628
O O1 0.500000 0.840444 0.250000
O O2 0.179726 0.919219 0.357327
O O3 0.277125 0.779447 0.378781
O O4 0.059742 0.790774 0.348601
O O5 0.500000 0.812159 0.750000
O O6 0.739685 0.815970 0.603068
O O7 0.916761 0.807055 0.661174
O O8 0.740151 0.928544 0.678671
O O9 0.444570 0.522442 0.458054
O O10 0.842975 0.500854 0.391836
O O11 0.750000 0.250000 0.000000
O O12 0.851130 0.319082 0.061527
O O13 0.290818 0.143323 0.091814
O O14 0.000000 0.191367 0.250000
O O15 0.058783 0.563294 0.533032
O O16 0.143351 0.428308 0.511406
#
# Coordination Sequence:
#
# PCOD9294245 Si02
#       7
#     8   8   8   8   8   8   8
#     4  11  24  44  66  95 141 180 220 281 347 400
#     4  12  27  45  71 103 137 182 236 280 347 417
#     4  11  23  42  68  98 135 177 226 278 342 406
#     4  12  25  43  73 103 137 181 231 289 343 406
#     4  11  25  43  70  99 140 181 232 288 346 409
#     4  10  23  39  66 101 136 173 224 287 334 411
#     4  11  22  43  68  99 138 178 230 279 351 403
#
# _framework density 21.149529000000001
#
# number of rings (size 3 to 8) (size 9 to 14) (size 15 to 20)
#    0.000    0.857    4.286    3.000    6.000    0.571 
#    0.000    0.000    0.000    0.000    0.000    0.000 
#    0.000    0.000    0.000    0.000    0.000    0.000 
#
# Total GULP energy -156057.666227 kJ/mol
# GULP energy per Si atom -5573.488080 kJ/mol
# Density = 2.110139 g / cm^3
# Si number density = 21.149529 Si / 1000 Ang^3
#
#
#
# Elastic Constant Matrix: (Units=GPa)
#
#
# Indices 1 2 3 4 5 6 
#
# 1 113.1480 30.5489 18.2050 -0.0028 -11.8035 0.0005
# 2 30.5489 95.0331 -10.1782 -0.0008 -1.5710 0.0001
# 3 18.2050 -10.1782 44.5574 -0.0075 -20.4018 -0.0015
# 4 -0.0028 -0.0008 -0.0075 3.8296 0.0046 -13.3967
# 5 -11.8035 -1.5710 -20.4018 0.0046 31.1484 -0.0003
# 6 0.0005 0.0001 -0.0015 -13.3967 -0.0003 28.7725
#
#
#
# Elastic Compliance Matrix: (Units=1/GPa)
#
#
# Indices 1 2 3 4 5 6 
#
# 1 0.010793 -0.004002 -0.005062 0.000008 0.000573 0.000003
# 2 -0.004002 0.012482 0.005828 -0.000014 0.002930 -0.000006
# 3 -0.005062 0.005828 0.035850 -0.000079 0.021857 -0.000035
# 4 0.000008 -0.000014 -0.000079 -0.415273 0.000010 -0.193354
# 5 0.000573 0.002930 0.021857 0.000010 0.046785 0.000006
# 6 0.000003 -0.000006 -0.000035 -0.193354 0.000006 -0.055272
#
#
# Mechanical properties :
#
#
# Convention : Reuss Voigt Hill
#
# Bulk Modulus (GPa) = 18.99208 36.65446 27.82327
# Shear Modulus (GPa) = -14.67944 27.02760 6.17408
#
# Velocity S-wave (km/s) = -2.63740 3.57869 1.71044
# Velocity P-wave (km/s) = 0.52447 5.86897 4.13338
#
# Compressibility (1/GPa) = 0.05265353
#
# Stress axis : x y z
#
# Youngs Moduli (GPa) = 92.65609 80.11715 27.89385
#
# Poissons Ratio (x) = 0.32063 0.14118
# Poissons Ratio (y) = 0.37081 -0.16256
# Poissons Ratio (z) = 0.46898 -0.46692
#
# Static dielectric constant tensor:
#      x y z
#    x 1.774880 0.000000 0.007530 
#    y 0.000000 1.831320 0.000000 
#    z 0.007530 0.000000 1.836020 
# 
# From -- ./inp_files/289720.got.cif
#   From: 2010.05.17/outbox.cif.g08.bks.cpg/sg15_145_cif.got.tgz:289720.got - 2010.06.03 18:47:42.
