data_PCOD9294181
_publ_section_title
;
Structure prediction by ZEFSAII (Michael W. Deem and Ramdas Pophale) SiO2 
 PCOD9294181
Probable space group: C 2/C
;
_chemical_formula_sum "Si O2"
_cell_formula_units_Z 48
_cell_length_a 24.978061
_cell_length_b 7.229169
_cell_length_c 13.924621
_cell_angle_alpha 90.000000
_cell_angle_beta 92.458122
_cell_angle_gamma 90.000000
_cell_volume 2512.063868
_symmetry_space_group_name_H-M "C 2/C"
_symmetry_group_IT_number 15
_symmetry_cell_setting 'monoclinic'
loop_
_space_group_symop_operation_xyz
x,y,z
-x,y,1/2-z
-x,-y,-z
x,-y,1/2+z
1/2+x,1/2+y,z
1/2-x,1/2+y,1/2-z
1/2-x,1/2-y,-z
1/2+x,1/2-y,1/2+z
loop_
_atom_site_type_symbol
_atom_site_label
_atom_site_fract_x
_atom_site_fract_y
_atom_site_fract_z
Si Si1 0.053094 0.897768 0.399226
Si Si2 0.626789 0.395872 0.226591
Si Si3 0.198141 0.583295 0.334694
Si Si4 0.808611 0.258863 0.313872
Si Si5 0.622724 0.909870 0.006691
Si Si6 0.939831 0.224815 0.955670
O O1 0.076512 0.911876 0.294701
O O2 0.093417 0.771878 0.464481
O O3 0.995673 0.799125 0.403438
O O4 0.052357 0.097837 0.449780
O O5 0.662831 0.229395 0.270696
O O6 0.659716 0.585426 0.227873
O O7 0.605966 0.353835 0.118348
O O8 0.206565 0.402825 0.270392
O O9 0.254978 0.679614 0.358763
O O10 0.165519 0.534629 0.428171
O O11 0.846221 0.360589 0.393750
O O12 0.578977 0.069905 0.019482
#
# Coordination Sequence:
#
# PCOD9294181 Si02
#       6
#     8   8   8   8   8   8
#     4  10  23  39  63  89 124 159 202 248 300 362
#     4  11  22  40  62  88 122 163 201 250 300 361
#     4  11  24  40  62  90 122 159 207 249 305 359
#     4  12  22  42  62  90 123 162 204 250 304 360
#     4  11  23  40  63  92 122 159 202 254 301 359
#     4  11  21  41  63  90 121 160 201 249 304 359
#
# _framework density 19.107793999999998
#
# number of rings (size 3 to 8) (size 9 to 14) (size 15 to 20)
#    0.000    1.000    5.000    2.500    0.000    0.000 
#    0.000    1.667    0.000    0.000    0.000    0.000 
#    0.000    0.000    0.000    0.000    0.000    0.000 
#
# Total GULP energy -134096.743546 kJ/mol
# GULP energy per Si atom -5587.364314 kJ/mol
# Density = 1.906430 g / cm^3
# Si number density = 19.107794 Si / 1000 Ang^3
#
#
#
# Elastic Constant Matrix: (Units=GPa)
#
#
# Indices 1 2 3 4 5 6 
#
# 1 74.2151 5.0205 0.3620 0.0000 -15.3427 0.0000
# 2 5.0205 26.5927 16.0565 0.0000 -2.7784 0.0000
# 3 0.3620 16.0565 40.4892 0.0000 -7.0886 0.0000
# 4 0.0000 0.0000 0.0000 17.9831 0.0000 0.7248
# 5 -15.3427 -2.7784 -7.0886 0.0000 24.3171 0.0000
# 6 0.0000 0.0000 0.0000 0.7248 0.0000 41.7765
#
#
#
# Elastic Compliance Matrix: (Units=1/GPa)
#
#
# Indices 1 2 3 4 5 6 
#
# 1 0.015896 -0.003850 0.003228 0.000000 0.010531 0.000000
# 2 -0.003850 0.050376 -0.020402 0.000000 -0.002621 0.000000
# 3 0.003228 -0.020402 0.034467 0.000000 0.009753 0.000000
# 4 0.000000 0.000000 0.000000 0.055647 0.000000 -0.000965
# 5 0.010531 -0.002621 0.009753 0.000000 0.050311 0.000000
# 6 0.000000 0.000000 0.000000 -0.000965 0.000000 0.023954
#
#
# Mechanical properties :
#
#
# Convention : Reuss Voigt Hill
#
# Bulk Modulus (GPa) = 17.03799 20.46390 18.75094
# Shear Modulus (GPa) = 17.10799 24.80588 20.95693
#
# Velocity S-wave (km/s) = 2.99547 3.60697 3.31535
# Velocity P-wave (km/s) = 4.57164 5.29905 4.94873
#
# Compressibility (1/GPa) = 0.05869238
#
# Stress axis : x y z
#
# Youngs Moduli (GPa) = 62.90852 19.85081 29.01316
#
# Poissons Ratio (x) = 0.07643 -0.09366
# Poissons Ratio (y) = 0.24220 0.59191
# Poissons Ratio (z) = -0.20309 0.40499
#
# Static dielectric constant tensor:
#      x y z
#    x 1.659010 0.000000 -0.007120 
#    y 0.000000 1.636970 0.000000 
#    z -0.007120 0.000000 1.632040 
# 
# From -- ./inp_files/116357.got.cif
#   From: 2010.05.17/outbox.cif.g08.bks.cpg/sg15_59_cif.got.tgz:116357.got - 2010.06.03 18:47:42.
