data_PCOD9294486
_publ_section_title
;
Structure prediction by ZEFSAII (Michael W. Deem and Ramdas Pophale) SiO2 
 PCOD9294486
Probable space group: C 2/C
;
_chemical_formula_sum "Si O2"
_cell_formula_units_Z 44
_cell_length_a 6.806301
_cell_length_b 13.567357
_cell_length_c 22.545769
_cell_angle_alpha 90.000000
_cell_angle_beta 102.120129
_cell_angle_gamma 90.000000
_cell_volume 2035.547809
_symmetry_space_group_name_H-M "C 2/C"
_symmetry_group_IT_number 15
_symmetry_cell_setting 'monoclinic'
loop_
_space_group_symop_operation_xyz
x,y,z
-x,y,1/2-z
-x,-y,-z
x,-y,1/2+z
1/2+x,1/2+y,z
1/2-x,1/2+y,1/2-z
1/2-x,1/2-y,-z
1/2+x,1/2-y,1/2+z
loop_
_atom_site_type_symbol
_atom_site_label
_atom_site_fract_x
_atom_site_fract_y
_atom_site_fract_z
Si Si1 0.302043 0.004981 0.566680
Si Si2 0.056901 0.152955 0.975109
Si Si3 0.000000 0.919362 0.250000
Si Si4 0.200075 0.446862 0.799473
Si Si5 0.930644 0.681050 0.932224
Si Si6 0.358634 0.773370 0.298377
O O1 0.489192 0.069757 0.555884
O O2 0.126478 0.086827 0.556584
O O3 0.209660 0.916015 0.522673
O O4 0.344319 0.964786 0.634581
O O5 0.990454 0.243045 0.012963
O O6 0.191347 0.187443 0.928627
O O7 0.821471 0.851891 0.213790
O O8 0.889006 0.987294 0.291212
O O9 0.262226 0.334728 0.791248
O O10 0.000000 0.471801 0.750000
O O11 0.976026 0.713934 0.868021
O O12 0.500000 0.786516 0.250000
#
# Coordination Sequence:
#
# PCOD9294486 Si02
#       6
#     8   8   4   8   8   8
#     4  11  22  42  65  95 132 170 220 276 333 397
#     4  10  23  40  66  97 128 172 220 268 336 398
#     4  12  24  44  68  92 136 176 230 280 348 400
#     4  12  25  45  69 100 136 182 230 282 342 408
#     4  11  22  42  65  95 132 170 220 276 333 397
#     4  12  25  45  69 100 136 182 230 282 342 408
#
# _framework density 21.615801999999999
#
# number of rings (size 3 to 8) (size 9 to 14) (size 15 to 20)
#    0.000    0.727    3.636    4.909    0.000    0.000 
#    0.000    1.818    0.000    0.000    0.000    0.000 
#    0.000    0.000    0.000    0.000    0.000    0.000 
#
# Total GULP energy -123031.590910 kJ/mol
# GULP energy per Si atom -5592.345041 kJ/mol
# Density = 2.156660 g / cm^3
# Si number density = 21.615802 Si / 1000 Ang^3
#
#
#
# Elastic Constant Matrix: (Units=GPa)
#
#
# Indices 1 2 3 4 5 6 
#
# 1 82.1936 19.5919 30.9738 0.0000 -15.4543 0.0000
# 2 19.5919 94.5823 3.5373 0.0000 -14.0903 0.0000
# 3 30.9738 3.5373 105.7117 0.0000 -14.7810 0.0000
# 4 0.0000 0.0000 0.0000 35.2891 0.0000 -17.3732
# 5 -15.4543 -14.0903 -14.7810 0.0000 22.7188 0.0000
# 6 0.0000 0.0000 0.0000 -17.3732 0.0000 61.3417
#
#
#
# Elastic Compliance Matrix: (Units=1/GPa)
#
#
# Indices 1 2 3 4 5 6 
#
# 1 0.015232 -0.002001 -0.003433 0.000000 0.006887 0.000000
# 2 -0.002001 0.011957 0.001136 0.000000 0.006794 0.000000
# 3 -0.003433 0.001136 0.011220 0.000000 0.005669 0.000000
# 4 0.000000 0.000000 0.000000 0.032929 0.000000 0.009326
# 5 0.006887 0.006794 0.005669 0.000000 0.056603 0.000000
# 6 0.000000 0.000000 0.000000 0.009326 0.000000 0.018943
#
#
# Mechanical properties :
#
#
# Convention : Reuss Voigt Hill
#
# Bulk Modulus (GPa) = 33.54186 43.41039 38.47613
# Shear Modulus (GPa) = 30.22645 39.09554 34.66100
#
# Velocity S-wave (km/s) = 3.74351 4.25744 4.00872
# Velocity P-wave (km/s) = 5.85116 6.65538 6.26619
#
# Compressibility (1/GPa) = 0.02981349
#
# Stress axis : x y z
#
# Youngs Moduli (GPa) = 65.65158 83.63398 89.12433
#
# Poissons Ratio (x) = 0.16733 0.30597
# Poissons Ratio (y) = 0.13135 -0.10125
# Poissons Ratio (z) = 0.22539 -0.09501
#
# Static dielectric constant tensor:
#      x y z
#    x 1.795290 0.000000 -0.009280 
#    y 0.000000 1.782020 0.000000 
#    z -0.009280 0.000000 1.769350 
# 
# From -- ./inp_files/260432.got.cif
#   From: 2010.05.17/outbox.cif.g08.bks.cpg/sg15_131_cif.got.tgz:260432.got - 2010.06.03 18:47:42.
