data_PCOD9294155
_publ_section_title
;
Structure prediction by ZEFSAII (Michael W. Deem and Ramdas Pophale) SiO2 
 PCOD9294155
Probable space group: C 2/C
;
_chemical_formula_sum "Si O2"
_cell_formula_units_Z 40
_cell_length_a 5.322883
_cell_length_b 13.310048
_cell_length_c 28.800060
_cell_angle_alpha 90.000000
_cell_angle_beta 112.755157
_cell_angle_gamma 90.000000
_cell_volume 1881.607850
_symmetry_space_group_name_H-M "C 2/C"
_symmetry_group_IT_number 15
_symmetry_cell_setting 'monoclinic'
loop_
_space_group_symop_operation_xyz
x,y,z
-x,y,1/2-z
-x,-y,-z
x,-y,1/2+z
1/2+x,1/2+y,z
1/2-x,1/2+y,1/2-z
1/2-x,1/2-y,-z
1/2+x,1/2-y,1/2+z
loop_
_atom_site_type_symbol
_atom_site_label
_atom_site_fract_x
_atom_site_fract_y
_atom_site_fract_z
Si Si1 0.224861 0.511861 0.435451
Si Si2 0.446454 0.547137 0.692026
Si Si3 0.720156 0.367079 0.988119
Si Si4 0.332918 0.865435 0.146438
Si Si5 0.254222 0.632568 0.120520
O O1 0.096273 0.436342 0.465051
O O2 0.421367 0.587755 0.477129
O O3 0.323469 0.430155 0.404563
O O4 0.046273 0.588537 0.392116
O O5 0.500000 0.532457 0.750000
O O6 0.685010 0.609832 0.684190
O O7 0.438679 0.441395 0.663972
O O8 0.149935 0.601036 0.666128
O O9 0.735149 0.382472 0.934213
O O10 0.750000 0.250000 0.000000
O O11 0.303637 0.747850 0.134577
#
# Coordination Sequence:
#
# PCOD9294155 Si02
#       5
#     8   8   8   8   8
#     4  10  23  39  61  99 134 174 217 268 319 394
#     4  11  26  46  69  97 130 170 224 284 334 392
#     4  11  21  39  63  97 135 177 218 264 326 395
#     4  11  24  44  70  99 132 171 222 271 334 395
#     4  11  24  41  68  94 136 176 220 271 333 396
#
# _framework density 21.258416
#
# number of rings (size 3 to 8) (size 9 to 14) (size 15 to 20)
#    0.000    1.200    4.000    1.200    2.800    2.400 
#    0.000    0.000    0.000    0.000    0.000    0.000 
#    0.000    0.000    0.000    0.000    0.000    0.000 
#
# Total GULP energy -111450.075768 kJ/mol
# GULP energy per Si atom -5572.503788 kJ/mol
# Density = 2.121003 g / cm^3
# Si number density = 21.258416 Si / 1000 Ang^3
#
#
#
# Elastic Constant Matrix: (Units=GPa)
#
#
# Indices 1 2 3 4 5 6 
#
# 1 55.2973 38.6113 10.6820 0.0000 -13.5840 -0.0001
# 2 38.6113 210.2555 59.6591 0.0000 1.6352 0.0000
# 3 10.6820 59.6591 118.8176 0.0000 -29.2021 0.0000
# 4 0.0000 0.0000 0.0000 26.4394 0.0000 -2.2744
# 5 -13.5840 1.6352 -29.2021 0.0000 39.2916 0.0000
# 6 -0.0001 0.0000 0.0000 -2.2744 0.0000 21.6063
#
#
#
# Elastic Compliance Matrix: (Units=1/GPa)
#
#
# Indices 1 2 3 4 5 6 
#
# 1 0.023899 -0.005392 0.003235 0.000000 0.010891 0.000000
# 2 -0.005392 0.007029 -0.004374 0.000000 -0.005407 0.000000
# 3 0.003235 -0.004374 0.013019 0.000000 0.010977 0.000000
# 4 0.000000 0.000000 0.000000 0.038168 0.000000 0.004018
# 5 0.010891 -0.005407 0.010977 0.000000 0.037599 0.000000
# 6 0.000000 0.000000 0.000000 0.004018 0.000000 0.046706
#
#
# Mechanical properties :
#
#
# Convention : Reuss Voigt Hill
#
# Bulk Modulus (GPa) = 32.37504 66.91948 49.64726
# Shear Modulus (GPa) = 26.34681 35.82865 31.08773
#
# Velocity S-wave (km/s) = 3.52427 4.10980 3.82825
# Velocity P-wave (km/s) = 5.64119 7.35309 6.55328
#
# Compressibility (1/GPa) = 0.03088799
#
# Stress axis : x y z
#
# Youngs Moduli (GPa) = 41.84228 142.26194 76.80978
#
# Poissons Ratio (x) = 0.76702 -0.24851
# Poissons Ratio (y) = 0.22560 0.33594
# Poissons Ratio (z) = -0.13538 0.62220
#
# Static dielectric constant tensor:
#      x y z
#    x 1.988190 0.000000 0.041360 
#    y 0.000000 1.701850 0.000000 
#    z 0.041360 0.000000 1.829870 
# 
# From -- ./inp_files/285151.got.cif
#   From: 2010.05.17/outbox.cif.g08.bks.cpg/sg15_143_cif.got.tgz:285151.got - 2010.06.03 18:47:42.
