data_PCOD9294122
_publ_section_title
;
Structure prediction by ZEFSAII (Michael W. Deem and Ramdas Pophale) SiO2 
 PCOD9294122
Probable space group: C 2/C
;
_chemical_formula_sum "Si O2"
_cell_formula_units_Z 56
_cell_length_a 30.808738
_cell_length_b 11.142619
_cell_length_c 24.323126
_cell_angle_alpha 90.000000
_cell_angle_beta 162.529087
_cell_angle_gamma 90.000000
_cell_volume 2506.816269
_symmetry_space_group_name_H-M "C 2/C"
_symmetry_group_IT_number 15
_symmetry_cell_setting 'monoclinic'
loop_
_space_group_symop_operation_xyz
x,y,z
-x,y,1/2-z
-x,-y,-z
x,-y,1/2+z
1/2+x,1/2+y,z
1/2-x,1/2+y,1/2-z
1/2-x,1/2-y,-z
1/2+x,1/2-y,1/2+z
loop_
_atom_site_type_symbol
_atom_site_label
_atom_site_fract_x
_atom_site_fract_y
_atom_site_fract_z
Si Si1 0.078718 0.810800 0.229663
Si Si2 0.168086 0.346283 0.438341
Si Si3 0.599605 0.896155 0.686449
Si Si4 0.064524 0.366493 0.519642
Si Si5 0.895457 0.000188 0.570536
Si Si6 0.247928 0.752716 0.144466
Si Si7 0.642642 0.101051 0.393262
O O1 0.034332 0.731277 0.124760
O O2 0.242112 0.855692 0.423097
O O3 0.093883 0.712135 0.296998
O O4 0.983513 0.922512 0.132023
O O5 0.250000 0.250000 0.500000
O O6 0.240290 0.343104 0.585669
O O7 0.194184 0.469812 0.436541
O O8 0.000000 0.317552 0.250000
O O9 0.632129 0.893962 0.660970
O O10 0.490618 0.004010 0.568700
O O11 0.748654 0.921138 0.898844
O O12 0.169599 0.300544 0.603768
O O13 0.914554 0.294608 0.350012
O O14 0.000000 0.994921 0.750000
O O15 0.842377 0.870730 0.484877
O O16 0.500000 0.060567 0.250000
#
# Coordination Sequence:
#
# PCOD9294122 Si02
#       7
#     8   8   8   8   8   8   8
#     4  11  22  38  66  91 134 175 226 282 349 416
#     4  11  25  40  67 100 143 185 224 286 357 421
#     4  10  24  46  69  95 140 187 232 289 353 413
#     4  10  25  48  71 100 134 192 241 288 343 412
#     4  11  24  42  68 104 140 178 225 292 365 414
#     4  11  25  44  72 101 142 183 239 290 346 417
#     4  10  23  39  58  98 133 173 225 276 344 427
#
# _framework density 22.339092999999998
#
# number of rings (size 3 to 8) (size 9 to 14) (size 15 to 20)
#    0.000    1.429    0.000    4.286   16.000    0.000 
#    0.000    1.429    0.000    0.000    0.000    0.000 
#    0.000    0.000    0.000    0.000    0.000    0.000 
#
# Total GULP energy -156284.387322 kJ/mol
# GULP energy per Si atom -5581.585261 kJ/mol
# Density = 2.228825 g / cm^3
# Si number density = 22.339093 Si / 1000 Ang^3
#
#
#
# Elastic Constant Matrix: (Units=GPa)
#
#
# Indices 1 2 3 4 5 6 
#
# 1 84.0788 30.1460 35.1124 -0.0003 9.7472 -0.0001
# 2 30.1460 70.5821 12.2427 -0.0008 9.4055 -0.0005
# 3 35.1124 12.2427 81.0458 -0.0004 3.7929 -0.0003
# 4 -0.0003 -0.0008 -0.0004 12.6904 -0.0003 3.0249
# 5 9.7472 9.4055 3.7929 -0.0003 27.9097 -0.0001
# 6 -0.0001 -0.0005 -0.0003 3.0249 -0.0001 51.9984
#
#
#
# Elastic Compliance Matrix: (Units=1/GPa)
#
#
# Indices 1 2 3 4 5 6 
#
# 1 0.016955 -0.005726 -0.006334 0.000000 -0.003131 0.000000
# 2 -0.005726 0.017104 0.000074 0.000001 -0.003774 0.000000
# 3 -0.006334 0.000074 0.015065 0.000000 0.000140 0.000000
# 4 0.000000 0.000001 0.000000 0.079908 0.000001 -0.004648
# 5 -0.003131 -0.003774 0.000140 0.000001 0.038176 0.000000
# 6 0.000000 0.000000 0.000000 -0.004648 0.000000 0.019502
#
#
# Mechanical properties :
#
#
# Convention : Reuss Voigt Hill
#
# Bulk Modulus (GPa) = 39.75943 43.41209 41.58576
# Shear Modulus (GPa) = 22.82432 29.06674 25.94553
#
# Velocity S-wave (km/s) = 3.19990 3.61107 3.41169
# Velocity P-wave (km/s) = 5.61153 6.07140 5.84599
#
# Compressibility (1/GPa) = 0.02515127
#
# Stress axis : x y z
#
# Youngs Moduli (GPa) = 58.98099 58.46753 66.37808
#
# Poissons Ratio (x) = 0.33476 0.42044
# Poissons Ratio (y) = 0.33770 -0.00488
# Poissons Ratio (z) = 0.37359 -0.00430
#
# Static dielectric constant tensor:
#      x y z
#    x 1.862630 0.000000 -0.009770 
#    y 0.000000 1.899900 0.000000 
#    z -0.009770 0.000000 1.853710 
# 
# From -- ./inp_files/284642.got.cif
#   From: 2010.05.17/outbox.cif.g08.bks.cpg/sg15_143_cif.got.tgz:284642.got - 2010.06.03 18:47:42.
