data_PCOD9294105
_publ_section_title
;
Structure prediction by ZEFSAII (Michael W. Deem and Ramdas Pophale) SiO2 
 PCOD9294105
Probable space group: C 2/C
;
_chemical_formula_sum "Si O2"
_cell_formula_units_Z 44
_cell_length_a 25.386495
_cell_length_b 9.947188
_cell_length_c 25.754489
_cell_angle_alpha 90.000000
_cell_angle_beta 164.715994
_cell_angle_gamma 90.000000
_cell_volume 1714.382204
_symmetry_space_group_name_H-M "C 2/C"
_symmetry_group_IT_number 15
_symmetry_cell_setting 'monoclinic'
loop_
_space_group_symop_operation_xyz
x,y,z
-x,y,1/2-z
-x,-y,-z
x,-y,1/2+z
1/2+x,1/2+y,z
1/2-x,1/2+y,1/2-z
1/2-x,1/2-y,-z
1/2+x,1/2-y,1/2+z
loop_
_atom_site_type_symbol
_atom_site_label
_atom_site_fract_x
_atom_site_fract_y
_atom_site_fract_z
Si Si1 0.926702 0.425609 0.507522
Si Si2 0.259286 0.216365 0.359687
Si Si3 0.048511 0.744466 0.868650
Si Si4 0.089861 0.426220 0.890418
Si Si5 0.500000 0.510720 0.250000
Si Si6 0.290916 0.419996 0.299497
O O1 0.789696 0.558051 0.384729
O O2 0.964701 0.373693 0.602891
O O3 0.794358 0.359913 0.336075
O O4 0.128363 0.479751 0.671935
O O5 0.500863 0.258880 0.613983
O O6 0.300687 0.293665 0.346223
O O7 0.209998 0.237648 0.377996
O O8 0.042626 0.586667 0.846610
O O9 0.087995 0.882268 0.874452
O O10 0.000000 0.375115 0.750000
O O11 0.328419 0.421332 0.111647
O O12 0.500000 0.500000 0.500000
#
# Coordination Sequence:
#
# PCOD9294105 Si02
#       6
#     8   8   8   8   4   8
#     4  10  23  39  51  82 115 147 196 238 266 337
#     4  11  19  35  54  71 111 151 185 232 278 313
#     4  11  18  29  47  73 107 149 185 213 253 329
#     4  11  21  31  48  74 113 151 183 220 261 327
#     4  12  20  28  48  76 108 148 194 204 252 338
#     4  11  23  36  58  76 104 156 197 235 284 321
#
# _framework density 25.665220999999999
#
# number of rings (size 3 to 8) (size 9 to 14) (size 15 to 20)
#    0.000    1.091    8.182    2.727    0.000    0.000 
#    0.000    0.000    0.000    0.000    0.000    0.000 
#    0.000    5.818    3.091    1.545    0.000    0.000 
#
# Total GULP energy -122705.165807 kJ/mol
# GULP energy per Si atom -5577.507537 kJ/mol
# Density = 2.560681 g / cm^3
# Si number density = 25.665221 Si / 1000 Ang^3
#
#
#
# Elastic Constant Matrix: (Units=GPa)
#
#
# Indices 1 2 3 4 5 6 
#
# 1 182.1010 14.1212 72.8271 0.0058 -34.5766 0.0011
# 2 14.1212 34.0027 -5.3225 0.0095 -9.9840 0.0058
# 3 72.8271 -5.3225 149.9020 0.0104 -21.5635 0.0188
# 4 0.0058 0.0095 0.0104 8.0302 0.0104 -0.7899
# 5 -34.5766 -9.9840 -21.5635 0.0104 92.9373 0.0073
# 6 0.0011 0.0058 0.0188 -0.7899 0.0073 28.3141
#
#
#
# Elastic Compliance Matrix: (Units=1/GPa)
#
#
# Indices 1 2 3 4 5 6 
#
# 1 0.007442 -0.003162 -0.003495 0.000001 0.001618 0.000002
# 2 -0.003162 0.032087 0.003106 -0.000044 0.002991 -0.000011
# 3 -0.003495 0.003106 0.008628 -0.000014 0.001035 -0.000007
# 4 0.000001 -0.000044 -0.000014 0.124873 -0.000022 0.003484
# 5 0.001618 0.002991 0.001035 -0.000022 0.011923 -0.000005
# 6 0.000002 -0.000011 -0.000007 0.003484 -0.000005 0.035415
#
#
# Mechanical properties :
#
#
# Convention : Reuss Voigt Hill
#
# Bulk Modulus (GPa) = 24.35799 58.80637 41.58218
# Shear Modulus (GPa) = 20.73344 44.81498 32.77421
#
# Velocity S-wave (km/s) = 2.84534 4.18321 3.57738
# Velocity P-wave (km/s) = 4.50620 6.80404 5.77065
#
# Compressibility (1/GPa) = 0.04105428
#
# Stress axis : x y z
#
# Youngs Moduli (GPa) = 134.37940 31.16506 115.89924
#
# Poissons Ratio (x) = 0.09856 0.40506
# Poissons Ratio (y) = 0.42497 -0.35998
# Poissons Ratio (z) = 0.46964 -0.09680
#
# Static dielectric constant tensor:
#      x y z
#    x 2.142630 0.000010 -0.060750 
#    y 0.000010 1.968950 -0.000010 
#    z -0.060750 -0.000010 2.232390 
# 
# From -- ./inp_files/282029.got.cif
#   From: 2010.05.17/outbox.cif.g08.bks.cpg/sg15_142_cif.got.tgz:282029.got - 2010.06.03 18:47:42.
