data_PCOD9294267
_publ_section_title
;
Structure prediction by ZEFSAII (Michael W. Deem and Ramdas Pophale) SiO2 
 PCOD9294267
Probable space group: C 2/C
;
_chemical_formula_sum "Si O2"
_cell_formula_units_Z 40
_cell_length_a 10.403552
_cell_length_b 9.954756
_cell_length_c 24.403050
_cell_angle_alpha 90.000000
_cell_angle_beta 133.624981
_cell_angle_gamma 90.000000
_cell_volume 1829.437683
_symmetry_space_group_name_H-M "C 2/C"
_symmetry_group_IT_number 15
_symmetry_cell_setting 'monoclinic'
loop_
_space_group_symop_operation_xyz
x,y,z
-x,y,1/2-z
-x,-y,-z
x,-y,1/2+z
1/2+x,1/2+y,z
1/2-x,1/2+y,1/2-z
1/2-x,1/2-y,-z
1/2+x,1/2-y,1/2+z
loop_
_atom_site_type_symbol
_atom_site_label
_atom_site_fract_x
_atom_site_fract_y
_atom_site_fract_z
Si Si1 0.128417 0.075424 0.954837
Si Si2 0.098752 0.642445 0.941737
Si Si3 0.788469 0.770493 0.918198
Si Si4 0.592752 0.792273 0.223283
Si Si5 0.776449 0.066011 0.314864
O O1 0.315279 0.999489 0.018047
O O2 0.095578 0.145913 0.003537
O O3 0.250000 0.750000 0.000000
O O4 0.152848 0.185631 0.914800
O O5 0.921450 0.674550 0.923764
O O6 0.049041 0.660480 0.863776
O O7 0.976554 0.972652 0.892722
O O8 0.697115 0.866182 0.846313
O O9 0.500000 0.733994 0.250000
O O10 0.710444 0.678399 0.228378
O O11 0.307498 0.927104 0.228770
#
# Coordination Sequence:
#
# PCOD9294267 Si02
#       5
#     8   8   8   8   8
#     4  11  22  41  69  97 129 172 216 273 330 390
#     4  11  22  43  68  96 128 173 223 267 325 393
#     4  10  23  39  68 100 128 169 219 275 326 396
#     4  11  26  43  66  97 134 177 216 276 332 390
#     4  11  25  43  64  95 135 171 222 272 331 395
#
# _framework density 21.864643000000001
#
# number of rings (size 3 to 8) (size 9 to 14) (size 15 to 20)
#    0.000    1.200    4.000    2.400    2.800    8.000 
#    0.000    0.000    0.000    0.000    0.000    0.000 
#    0.000    0.000    0.000    0.000    0.000    0.000 
#
# Total GULP energy -111863.354816 kJ/mol
# GULP energy per Si atom -5593.167741 kJ/mol
# Density = 2.181488 g / cm^3
# Si number density = 21.864643 Si / 1000 Ang^3
#
#
#
# Elastic Constant Matrix: (Units=GPa)
#
#
# Indices 1 2 3 4 5 6 
#
# 1 46.7786 18.1259 37.0368 0.0000 -32.7228 0.0000
# 2 18.1259 70.3088 14.4026 0.0000 -23.1547 0.0000
# 3 37.0368 14.4026 94.4263 0.0000 -30.2139 0.0000
# 4 0.0000 0.0000 0.0000 55.1055 0.0000 6.9314
# 5 -32.7228 -23.1547 -30.2139 0.0000 43.4335 0.0000
# 6 0.0000 0.0000 0.0000 6.9314 0.0000 24.0596
#
#
#
# Elastic Compliance Matrix: (Units=1/GPa)
#
#
# Indices 1 2 3 4 5 6 
#
# 1 0.051727 -0.000904 -0.010079 0.000000 0.031478 0.000000
# 2 -0.000904 0.017279 0.000577 0.000000 0.008932 0.000000
# 3 -0.010079 0.000577 0.015596 0.000000 0.003563 0.000000
# 4 0.000000 0.000000 0.000000 0.018829 0.000000 -0.005425
# 5 0.031478 0.008932 0.003563 0.000000 0.053980 0.000000
# 6 0.000000 0.000000 0.000000 -0.005425 0.000000 0.043126
#
#
# Mechanical properties :
#
#
# Convention : Reuss Voigt Hill
#
# Bulk Modulus (GPa) = 15.67640 38.96051 27.31846
# Shear Modulus (GPa) = 20.60893 33.98294 27.29594
#
# Velocity S-wave (km/s) = 3.07346 3.94666 3.53711
# Velocity P-wave (km/s) = 4.44749 6.21497 5.40398
#
# Compressibility (1/GPa) = 0.06379015
#
# Stress axis : x y z
#
# Youngs Moduli (GPa) = 19.33212 57.87231 64.12074
#
# Poissons Ratio (x) = 0.05233 0.64627
# Poissons Ratio (y) = 0.01748 -0.03700
# Poissons Ratio (z) = 0.19485 -0.03340
#
# Static dielectric constant tensor:
#      x y z
#    x 1.794250 0.000000 0.012440 
#    y 0.000000 1.812780 0.000000 
#    z 0.012440 0.000000 1.780890 
# 
# From -- ./inp_files/309480.got.cif
#   From: 2010.05.17/outbox.cif.g08.bks.cpg/sg15_155_cif.got.tgz:309480.got - 2010.06.03 18:47:42.
