data_PCOD9294788
_publ_section_title
;
Structure prediction by ZEFSAII (Michael W. Deem and Ramdas Pophale) SiO2 
 PCOD9294788
Probable space group: C 2/C
;
_chemical_formula_sum "Si O2"
_cell_formula_units_Z 60
_cell_length_a 19.627845
_cell_length_b 7.653254
_cell_length_c 16.670431
_cell_angle_alpha 90.000000
_cell_angle_beta 96.311417
_cell_angle_gamma 90.000000
_cell_volume 2489.002526
_symmetry_space_group_name_H-M "C 2/C"
_symmetry_group_IT_number 15
_symmetry_cell_setting 'monoclinic'
loop_
_space_group_symop_operation_xyz
x,y,z
-x,y,1/2-z
-x,-y,-z
x,-y,1/2+z
1/2+x,1/2+y,z
1/2-x,1/2+y,1/2-z
1/2-x,1/2-y,-z
1/2+x,1/2-y,1/2+z
loop_
_atom_site_type_symbol
_atom_site_label
_atom_site_fract_x
_atom_site_fract_y
_atom_site_fract_z
Si Si1 0.598695 0.156598 0.417557
Si Si2 0.234758 0.945833 0.787811
Si Si3 0.142519 0.245152 0.755544
Si Si4 0.000000 0.113630 0.250000
Si Si5 0.845081 0.875534 0.486109
Si Si6 0.212358 0.482967 0.038124
Si Si7 0.537282 0.340986 0.119190
Si Si8 0.123586 0.723546 0.844612
O O1 0.619695 0.271950 0.343799
O O2 0.523268 0.227292 0.428945
O O3 0.654358 0.144007 0.495549
O O4 0.604862 0.963096 0.379561
O O5 0.178410 0.062801 0.736806
O O6 0.299889 0.890899 0.745675
O O7 0.260933 0.053323 0.869195
O O8 0.196900 0.770583 0.814934
O O9 0.080225 0.279477 0.687425
O O10 0.066330 0.229080 0.273456
O O11 0.010044 0.992411 0.173649
O O12 0.818765 0.679960 0.460017
O O13 0.777266 0.994601 0.486381
O O14 0.907799 0.916851 0.436306
O O15 0.875381 0.853091 0.578950
#
# Coordination Sequence:
#
# PCOD9294788 Si02
#       8
#     8   8   8   4   8   8   8   8
#     4  11  24  41  66  94 130 169 215 268 333 380
#     4  11  22  43  66  96 129 169 221 267 324 380
#     4  12  24  40  65  95 131 171 211 272 320 392
#     4  12  24  42  62  90 130 170 212 260 326 384
#     4   9  20  40  64  91 130 166 212 264 331 370
#     4   9  20  39  67  94 123 169 216 270 312 387
#     4  12  23  42  64  93 134 174 201 268 331 391
#     4  10  23  41  66  93 124 170 219 267 317 398
#
# _framework density 24.10604
#
# number of rings (size 3 to 8) (size 9 to 14) (size 15 to 20)
#    0.000    1.333    4.000    1.600    3.733    3.200 
#    0.000    0.000    0.000    0.000    0.000    0.000 
#    0.000    0.000    0.000    0.000    0.000    0.000 
#
# Total GULP energy -167765.630143 kJ/mol
# GULP energy per Si atom -5592.187671 kJ/mol
# Density = 2.405117 g / cm^3
# Si number density = 24.106040 Si / 1000 Ang^3
#
#
#
# Elastic Constant Matrix: (Units=GPa)
#
#
# Indices 1 2 3 4 5 6 
#
# 1 125.6474 22.6188 38.0587 0.0000 14.4349 0.0000
# 2 22.6188 57.4620 6.3670 0.0000 11.2499 0.0000
# 3 38.0587 6.3670 41.4588 0.0000 6.7410 0.0000
# 4 0.0000 0.0000 0.0000 22.5000 0.0000 10.6058
# 5 14.4349 11.2499 6.7410 0.0000 51.0380 0.0000
# 6 0.0000 0.0000 0.0000 10.6058 0.0000 39.9150
#
#
#
# Elastic Compliance Matrix: (Units=1/GPa)
#
#
# Indices 1 2 3 4 5 6 
#
# 1 0.011742 -0.003257 -0.010072 0.000000 -0.001273 0.000000
# 2 -0.003257 0.019287 0.000582 0.000000 -0.003407 0.000000
# 3 -0.010072 0.000582 0.033555 0.000000 -0.001711 0.000000
# 4 0.000000 0.000000 0.000000 0.050808 0.000000 -0.013500
# 5 -0.001273 -0.003407 -0.001711 0.000000 0.020930 0.000000
# 6 0.000000 0.000000 0.000000 -0.013500 0.000000 0.028640
#
#
# Mechanical properties :
#
#
# Convention : Reuss Voigt Hill
#
# Bulk Modulus (GPa) = 25.58173 39.85080 32.71627
# Shear Modulus (GPa) = 24.57149 33.19218 28.88183
#
# Velocity S-wave (km/s) = 3.19612 3.71472 3.46514
# Velocity P-wave (km/s) = 4.92499 5.91322 5.44158
#
# Compressibility (1/GPa) = 0.03909040
#
# Stress axis : x y z
#
# Youngs Moduli (GPa) = 85.16352 51.84736 29.80157
#
# Poissons Ratio (x) = 0.16886 0.30016
# Poissons Ratio (y) = 0.27736 -0.01733
# Poissons Ratio (z) = 0.85777 -0.03016
#
# Static dielectric constant tensor:
#      x y z
#    x 1.947970 0.000000 0.003550 
#    y 0.000000 1.971970 0.000000 
#    z 0.003550 0.000000 1.902070 
# 
# From -- ./inp_files/209571.got.cif
#   From: 2010.05.17/outbox.cif.g08.bks.cpg/sg15_105_cif.got.tgz:209571.got - 2010.06.03 18:47:42.
