data_PCOD9294800
_publ_section_title
;
Structure prediction by ZEFSAII (Michael W. Deem and Ramdas Pophale) SiO2 
 PCOD9294800
Probable space group: C 2/C
;
_chemical_formula_sum "Si O2"
_cell_formula_units_Z 52
_cell_length_a 23.713858
_cell_length_b 17.584039
_cell_length_c 12.731271
_cell_angle_alpha 90.000000
_cell_angle_beta 29.140660
_cell_angle_gamma 90.000000
_cell_volume 2585.126150
_symmetry_space_group_name_H-M "C 2/C"
_symmetry_group_IT_number 15
_symmetry_cell_setting 'monoclinic'
loop_
_space_group_symop_operation_xyz
x,y,z
-x,y,1/2-z
-x,-y,-z
x,-y,1/2+z
1/2+x,1/2+y,z
1/2-x,1/2+y,1/2-z
1/2-x,1/2-y,-z
1/2+x,1/2-y,1/2+z
loop_
_atom_site_type_symbol
_atom_site_label
_atom_site_fract_x
_atom_site_fract_y
_atom_site_fract_z
Si Si1 0.791342 0.735680 0.552481
Si Si2 0.000000 0.150521 0.750000
Si Si3 0.241362 0.907104 0.414362
Si Si4 0.860749 0.247502 0.494964
Si Si5 0.085720 0.963572 0.278989
Si Si6 0.288558 0.926292 0.094641
Si Si7 0.378112 0.092141 0.889718
O O1 0.750000 0.750000 0.500000
O O2 0.885296 0.798056 0.434642
O O3 0.851743 0.652757 0.466280
O O4 0.685607 0.737384 0.809776
O O5 0.014394 0.093801 0.823743
O O6 0.190049 0.822203 0.489964
O O7 0.264422 0.928939 0.257137
O O8 0.356316 0.906170 0.299928
O O9 0.152913 0.969571 0.606351
O O10 0.816514 0.330718 0.530239
O O11 0.000000 0.244002 0.250000
O O12 0.177887 0.918629 0.199135
O O13 0.000000 0.000000 0.500000
O O14 0.336817 0.008582 0.988391
O O15 0.500000 0.098003 0.750000
#
# Coordination Sequence:
#
# PCOD9294800 Si02
#       7
#     8   4   8   8   8   8   8
#     4  11  25  47  67 102 140 178 232 283 352 419
#     4  12  26  42  72 104 138 186 222 292 356 414
#     4  10  23  41  66  96 133 169 228 285 346 408
#     4  10  24  44  69  98 134 182 230 287 341 412
#     4  11  24  39  69  99 131 172 228 286 350 409
#     4  10  23  43  63  95 133 176 220 284 337 412
#     4  10  23  43  65  93 130 177 229 275 336 416
#
# _framework density 20.115071
#
# number of rings (size 3 to 8) (size 9 to 14) (size 15 to 20)
#    0.000    1.538    1.538    1.385   12.923    0.615 
#   11.077    0.000    0.000    0.000    0.000    0.000 
#    0.000    0.000    0.000    0.000    0.000    0.000 
#
# Total GULP energy -144882.701275 kJ/mol
# GULP energy per Si atom -5572.411587 kJ/mol
# Density = 2.006929 g / cm^3
# Si number density = 20.115071 Si / 1000 Ang^3
#
#
#
# Elastic Constant Matrix: (Units=GPa)
#
#
# Indices 1 2 3 4 5 6 
#
# 1 176.8422 78.4176 63.0376 0.0000 14.4053 0.0000
# 2 78.4176 164.1860 37.3822 0.0000 11.8542 0.0000
# 3 63.0376 37.3822 66.3924 0.0000 8.0214 0.0000
# 4 0.0000 0.0000 0.0000 27.1130 0.0000 -3.6469
# 5 14.4053 11.8542 8.0214 0.0000 29.4512 0.0000
# 6 0.0000 0.0000 0.0000 -3.6469 0.0000 10.8334
#
#
#
# Elastic Compliance Matrix: (Units=1/GPa)
#
#
# Indices 1 2 3 4 5 6 
#
# 1 0.009674 -0.002820 -0.007407 0.000000 -0.001579 0.000000
# 2 -0.002820 0.007902 -0.001607 0.000000 -0.001364 0.000000
# 3 -0.007407 -0.001607 0.023248 0.000000 -0.002062 0.000000
# 4 0.000000 0.000000 0.000000 0.038632 0.000000 0.013005
# 5 -0.001579 -0.001364 -0.002062 0.000000 0.035838 0.000000
# 6 0.000000 0.000000 0.000000 0.013005 0.000000 0.096685
#
#
# Mechanical properties :
#
#
# Convention : Reuss Voigt Hill
#
# Bulk Modulus (GPa) = 58.28465 85.01063 71.64764
# Shear Modulus (GPa) = 20.71555 28.71840 24.71698
#
# Velocity S-wave (km/s) = 3.21261 3.78260 3.50920
# Velocity P-wave (km/s) = 6.54215 7.83781 7.21911
#
# Compressibility (1/GPa) = 0.01715718
#
# Stress axis : x y z
#
# Youngs Moduli (GPa) = 103.36847 126.55241 43.01404
#
# Poissons Ratio (x) = 0.35689 0.31859
# Poissons Ratio (y) = 0.29151 0.06911
# Poissons Ratio (z) = 0.76561 0.20334
#
# Static dielectric constant tensor:
#      x y z
#    x 1.698940 0.000000 -0.025230 
#    y 0.000000 1.641690 0.000000 
#    z -0.025230 0.000000 1.713250 
# 
# From -- ./inp_files/113619.got.cif
#   From: 2010.05.17/outbox.cif.g08.bks.cpg/sg15_57_cif.got.tgz:113619.got - 2010.06.03 18:47:42.
