data_PCOD9294138
_publ_section_title
;
Structure prediction by ZEFSAII (Michael W. Deem and Ramdas Pophale) SiO2 
 PCOD9294138
Probable space group: C 2/C
;
_chemical_formula_sum "Si O2"
_cell_formula_units_Z 56
_cell_length_a 21.996709
_cell_length_b 14.612561
_cell_length_c 8.471143
_cell_angle_alpha 90.000000
_cell_angle_beta 68.949461
_cell_angle_gamma 90.000000
_cell_volume 2541.151473
_symmetry_space_group_name_H-M "C 2/C"
_symmetry_group_IT_number 15
_symmetry_cell_setting 'monoclinic'
loop_
_space_group_symop_operation_xyz
x,y,z
-x,y,1/2-z
-x,-y,-z
x,-y,1/2+z
1/2+x,1/2+y,z
1/2-x,1/2+y,1/2-z
1/2-x,1/2-y,-z
1/2+x,1/2-y,1/2+z
loop_
_atom_site_type_symbol
_atom_site_label
_atom_site_fract_x
_atom_site_fract_y
_atom_site_fract_z
Si Si1 0.232848 0.370643 0.234138
Si Si2 0.881342 0.250214 0.208556
Si Si3 0.515272 0.899152 0.421474
Si Si4 0.330273 0.004301 0.977714
Si Si5 0.891871 0.625538 0.196136
Si Si6 0.493203 0.395972 0.566448
Si Si7 0.873257 0.800102 0.085246
O O1 0.193000 0.273899 0.271874
O O2 0.218059 0.430245 0.402770
O O3 0.203670 0.430551 0.117181
O O4 0.309356 0.361518 0.138273
O O5 0.881166 0.240314 0.399508
O O6 0.917689 0.345001 0.127760
O O7 0.926902 0.165982 0.101737
O O8 0.500000 0.895857 0.250000
O O9 0.463342 0.845588 0.575505
O O10 0.500000 0.000000 0.500000
O O11 0.386723 0.943143 0.844997
O O12 0.360473 0.066961 0.084145
O O13 0.856388 0.722090 0.230119
O O14 0.500000 0.396954 0.750000
O O15 0.500000 0.500000 0.500000
O O16 0.559001 0.348990 0.440385
#
# Coordination Sequence:
#
# PCOD9294138 Si02
#       7
#     8   8   8   8   8   8   8
#     4  11  23  41  64  96 127 168 206 261 320 383
#     4  11  21  40  64  92 124 163 212 252 318 386
#     4  12  20  33  59  91 123 162 196 248 312 377
#     4  10  23  39  60  96 132 160 208 255 320 387
#     4  11  20  39  60  90 129 163 206 258 310 380
#     4  10  23  46  66  89 121 168 222 268 310 371
#     4  11  22  40  69  88 125 169 214 262 316 372
#
# _framework density 22.037254999999998
#
# number of rings (size 3 to 8) (size 9 to 14) (size 15 to 20)
#    0.000    1.143    4.286    3.429    0.000    2.857 
#    5.143    0.714    0.000    0.000    0.000    0.000 
#    0.000    0.000    0.000    0.000    0.000    0.000 
#
# Total GULP energy -156226.121048 kJ/mol
# GULP energy per Si atom -5579.504323 kJ/mol
# Density = 2.198710 g / cm^3
# Si number density = 22.037255 Si / 1000 Ang^3
#
#
#
# Elastic Constant Matrix: (Units=GPa)
#
#
# Indices 1 2 3 4 5 6 
#
# 1 48.0381 34.1513 12.7337 0.0000 -23.1172 0.0000
# 2 34.1513 129.2230 28.7679 0.0000 -13.1812 0.0000
# 3 12.7337 28.7679 51.3858 0.0000 -19.2632 0.0000
# 4 0.0000 0.0000 0.0000 37.6994 0.0000 3.2868
# 5 -23.1172 -13.1812 -19.2632 0.0000 25.6945 0.0000
# 6 0.0000 0.0000 0.0000 3.2868 0.0000 20.2130
#
#
#
# Elastic Compliance Matrix: (Units=1/GPa)
#
#
# Indices 1 2 3 4 5 6 
#
# 1 0.046983 -0.010263 0.011093 0.000000 0.045322 0.000000
# 2 -0.010263 0.011107 -0.006955 0.000000 -0.008750 0.000000
# 3 0.011093 -0.006955 0.032004 0.000000 0.030406 0.000000
# 4 0.000000 0.000000 0.000000 0.026907 0.000000 -0.004375
# 5 0.045322 -0.008750 0.030406 0.000000 0.098001 0.000000
# 6 0.000000 0.000000 0.000000 -0.004375 0.000000 0.050185
#
#
# Mechanical properties :
#
#
# Convention : Reuss Voigt Hill
#
# Bulk Modulus (GPa) = 12.84637 42.21698 27.53168
# Shear Modulus (GPa) = 16.48077 26.92097 21.70087
#
# Velocity S-wave (km/s) = 2.73767 3.49895 3.14145
# Velocity P-wave (km/s) = 3.97934 5.96005 5.06741
#
# Compressibility (1/GPa) = 0.07784302
#
# Stress axis : x y z
#
# Youngs Moduli (GPa) = 21.28446 90.03539 31.24626
#
# Poissons Ratio (x) = 0.92406 -0.34662
# Poissons Ratio (y) = 0.21845 0.21732
# Poissons Ratio (z) = -0.23611 0.62619
#
# Static dielectric constant tensor:
#      x y z
#    x 1.879600 0.000000 -0.017120 
#    y 0.000000 1.890940 0.000000 
#    z -0.017120 0.000000 1.844320 
# 
# From -- ./inp_files/61810.got.cif
#   From: 2010.05.17/outbox.cif.g08.bks.cpg/sg15_31_cif.got.tgz:61810.got - 2010.06.03 18:47:42.
