data_PCOD9294094
_publ_section_title
;
Structure prediction by ZEFSAII (Michael W. Deem and Ramdas Pophale) SiO2 
 PCOD9294094
Probable space group: C 2/C
;
_chemical_formula_sum "Si O2"
_cell_formula_units_Z 64
_cell_length_a 29.444964
_cell_length_b 9.325281
_cell_length_c 14.212942
_cell_angle_alpha 90.000000
_cell_angle_beta 135.426375
_cell_angle_gamma 90.000000
_cell_volume 2738.961350
_symmetry_space_group_name_H-M "C 2/C"
_symmetry_group_IT_number 15
_symmetry_cell_setting 'monoclinic'
loop_
_space_group_symop_operation_xyz
x,y,z
-x,y,1/2-z
-x,-y,-z
x,-y,1/2+z
1/2+x,1/2+y,z
1/2-x,1/2+y,1/2-z
1/2-x,1/2-y,-z
1/2+x,1/2-y,1/2+z
loop_
_atom_site_type_symbol
_atom_site_label
_atom_site_fract_x
_atom_site_fract_y
_atom_site_fract_z
Si Si1 0.427680 0.854913 0.179805
Si Si2 0.744665 0.251932 0.185965
Si Si3 0.296457 0.013000 0.503712
Si Si4 0.059908 0.396842 0.082876
Si Si5 0.661951 0.422822 0.284085
Si Si6 0.113661 0.152510 0.068327
Si Si7 0.330287 0.887674 0.752128
Si Si8 0.640830 0.443249 0.956661
O O1 0.500000 0.887787 0.250000
O O2 0.370907 0.973727 0.078661
O O3 0.427143 0.841916 0.292187
O O4 0.403102 0.700472 0.105380
O O5 0.820229 0.244157 0.319243
O O6 0.711097 0.162022 0.219788
O O7 0.705194 0.397541 0.110325
O O8 0.731827 0.167370 0.068678
O O9 0.239879 0.914004 0.376951
O O10 0.298720 0.967390 0.615850
O O11 0.056761 0.259043 0.012197
O O12 0.115795 0.504464 0.133412
O O13 0.000000 0.500000 0.000000
O O14 0.623300 0.519582 0.153672
O O15 0.640076 0.258978 0.247434
O O16 0.655700 0.503839 0.373865
O O17 0.109618 0.078846 0.962131
#
# Coordination Sequence:
#
# PCOD9294094 Si02
#       8
#     8   8   8   8   8   8   8   8
#     4  10  23  45  68  94 133 188 231 281 352 410
#     4  10  23  38  69 104 145 178 224 292 369 416
#     4   9  22  38  67  99 138 181 220 288 348 427
#     4  11  27  47  70  97 142 189 235 288 343 429
#     4  11  22  41  69 106 137 173 234 289 364 416
#     4  11  24  43  70 106 134 186 233 284 355 429
#     4  11  23  43  66 102 142 181 231 290 356 416
#     4  11  23  43  71 102 139 180 228 299 351 424
#
# _framework density 23.366520000000001
#
# number of rings (size 3 to 8) (size 9 to 14) (size 15 to 20)
#    0.000    1.500    2.500    1.125    8.750    2.500 
#    4.500    1.250    0.000    0.000    0.000    0.000 
#    0.000    0.000    0.000    0.000    0.000    0.000 
#
# Total GULP energy -178767.570526 kJ/mol
# GULP energy per Si atom -5586.486579 kJ/mol
# Density = 2.331334 g / cm^3
# Si number density = 23.366520 Si / 1000 Ang^3
#
#
#
# Elastic Constant Matrix: (Units=GPa)
#
#
# Indices 1 2 3 4 5 6 
#
# 1 97.4533 56.4406 17.7208 0.0000 -11.1114 0.0000
# 2 56.4406 113.5317 28.5192 0.0000 -0.8079 0.0000
# 3 17.7208 28.5192 39.6468 0.0000 -8.3550 0.0000
# 4 0.0000 0.0000 0.0000 14.2017 0.0000 -9.0275
# 5 -11.1114 -0.8079 -8.3550 0.0000 27.2264 0.0000
# 6 0.0000 0.0000 0.0000 -9.0275 0.0000 49.0426
#
#
#
# Elastic Compliance Matrix: (Units=1/GPa)
#
#
# Indices 1 2 3 4 5 6 
#
# 1 0.015343 -0.007542 -0.000171 0.000000 0.005985 0.000000
# 2 -0.007542 0.014582 -0.008207 0.000000 -0.005164 0.000000
# 3 -0.000171 -0.008207 0.033289 0.000000 0.009902 0.000000
# 4 0.000000 0.000000 0.000000 0.079745 0.000000 0.014679
# 5 0.005985 -0.005164 0.009902 0.000000 0.042057 0.000000
# 6 0.000000 0.000000 0.000000 0.014679 0.000000 0.023092
#
#
# Mechanical properties :
#
#
# Convention : Reuss Voigt Hill
#
# Bulk Modulus (GPa) = 31.87281 50.66590 41.26935
# Shear Modulus (GPa) = 19.96749 27.95754 23.96252
#
# Velocity S-wave (km/s) = 2.92641 3.46277 3.20583
# Velocity P-wave (km/s) = 5.00884 6.14149 5.60386
#
# Compressibility (1/GPa) = 0.03137470
#
# Stress axis : x y z
#
# Youngs Moduli (GPa) = 65.17717 68.57680 30.03965
#
# Poissons Ratio (x) = 0.51719 0.00515
# Poissons Ratio (y) = 0.49155 0.24653
# Poissons Ratio (z) = 0.01117 0.56279
#
# Static dielectric constant tensor:
#      x y z
#    x 1.900380 0.000000 0.011800 
#    y 0.000000 1.917850 0.000000 
#    z 0.011800 0.000000 1.929850 
# 
# From -- ./inp_files/181192.got.cif
#   From: 2010.05.17/outbox.cif.g08.bks.cpg/sg15_91_cif.got.tgz:181192.got - 2010.06.03 18:47:42.
