data_PCOD9294861
_publ_section_title
;
Structure prediction by ZEFSAII (Michael W. Deem and Ramdas Pophale) SiO2 
 PCOD9294861
Probable space group: C 2/C
;
_chemical_formula_sum "Si O2"
_cell_formula_units_Z 56
_cell_length_a 14.612385
_cell_length_b 14.023959
_cell_length_c 22.845129
_cell_angle_alpha 90.000000
_cell_angle_beta 32.260605
_cell_angle_gamma 90.000000
_cell_volume 2498.851024
_symmetry_space_group_name_H-M "C 2/C"
_symmetry_group_IT_number 15
_symmetry_cell_setting 'monoclinic'
loop_
_space_group_symop_operation_xyz
x,y,z
-x,y,1/2-z
-x,-y,-z
x,-y,1/2+z
1/2+x,1/2+y,z
1/2-x,1/2+y,1/2-z
1/2-x,1/2-y,-z
1/2+x,1/2-y,1/2+z
loop_
_atom_site_type_symbol
_atom_site_label
_atom_site_fract_x
_atom_site_fract_y
_atom_site_fract_z
Si Si1 0.901660 0.581149 0.362958
Si Si2 0.746829 0.277875 0.245109
Si Si3 0.947292 0.350777 0.558411
Si Si4 0.562741 0.464412 0.528685
Si Si5 0.681913 0.717024 0.646696
Si Si6 0.610069 0.258445 0.527095
Si Si7 0.294071 0.994948 0.717092
O O1 0.719497 0.527893 0.467846
O O2 0.849428 0.693122 0.380024
O O3 0.000000 0.553941 0.250000
O O4 0.044030 0.546102 0.332685
O O5 0.619559 0.231025 0.360190
O O6 0.713473 0.244724 0.195989
O O7 0.765687 0.391887 0.234055
O O8 0.934475 0.241899 0.157958
O O9 0.905444 0.320329 0.514860
O O10 0.848225 0.447953 0.626538
O O11 0.152901 0.346065 0.456368
O O12 0.500000 0.500000 0.500000
O O13 0.632186 0.358408 0.482943
O O14 0.391124 0.460283 0.660422
O O15 0.500000 0.663814 0.750000
O O16 0.750000 0.250000 0.500000
#
# Coordination Sequence:
#
# PCOD9294861 Si02
#       7
#     8   8   8   8   8   8   8
#     4  11  22  38  68 105 136 183 243 298 350 426
#     4  11  23  45  66 103 140 186 231 296 362 427
#     4  11  24  44  70 102 144 188 232 306 360 428
#     4  12  22  43  69 102 140 187 243 298 343 434
#     4  10  23  41  68 100 142 183 236 293 362 428
#     4  11  25  44  67  96 141 188 239 288 356 435
#     4  12  25  42  72 104 143 186 242 296 370 428
#
# _framework density 22.410298999999998
#
# number of rings (size 3 to 8) (size 9 to 14) (size 15 to 20)
#    0.000    0.857    2.857    6.000    2.000    6.286 
#    0.000    1.429    0.000    0.000    0.000    0.000 
#    0.000    0.000    0.000    0.000    0.000    0.000 
#
# Total GULP energy -156341.524900 kJ/mol
# GULP energy per Si atom -5583.625889 kJ/mol
# Density = 2.235929 g / cm^3
# Si number density = 22.410299 Si / 1000 Ang^3
#
#
#
# Elastic Constant Matrix: (Units=GPa)
#
#
# Indices 1 2 3 4 5 6 
#
# 1 71.7304 10.3104 31.5867 -0.0003 -26.7219 0.0000
# 2 10.3104 81.9412 21.4474 -0.0007 -16.1264 0.0001
# 3 31.5867 21.4474 158.3692 -0.0022 -29.1628 0.0004
# 4 -0.0003 -0.0007 -0.0022 41.1924 0.0004 -0.5356
# 5 -26.7219 -16.1264 -29.1628 0.0004 36.9024 0.0000
# 6 0.0000 0.0001 0.0004 -0.5356 0.0000 20.4513
#
#
#
# Elastic Compliance Matrix: (Units=1/GPa)
#
#
# Indices 1 2 3 4 5 6 
#
# 1 0.019412 0.000533 -0.001536 0.000000 0.013076 0.000000
# 2 0.000533 0.013467 -0.000907 0.000000 0.005554 0.000000
# 3 -0.001536 -0.000907 0.007567 0.000000 0.004471 0.000000
# 4 0.000000 0.000000 0.000000 0.024285 0.000000 0.000636
# 5 0.013076 0.005554 0.004471 0.000000 0.042527 0.000000
# 6 0.000000 0.000000 0.000000 0.000636 0.000000 0.048913
#
#
# Mechanical properties :
#
#
# Convention : Reuss Voigt Hill
#
# Bulk Modulus (GPa) = 27.30364 48.74776 38.02570
# Shear Modulus (GPa) = 29.03581 36.28898 32.66240
#
# Velocity S-wave (km/s) = 3.60341 4.02842 3.82183
# Velocity P-wave (km/s) = 5.43348 6.59069 6.03986
#
# Compressibility (1/GPa) = 0.03662515
#
# Stress axis : x y z
#
# Youngs Moduli (GPa) = 51.51446 74.25348 132.15393
#
# Poissons Ratio (x) = -0.03957 0.20300
# Poissons Ratio (y) = -0.02745 0.11991
# Poissons Ratio (z) = 0.07913 0.06738
#
# Static dielectric constant tensor:
#      x y z
#    x 1.880330 0.000000 -0.068450 
#    y 0.000000 1.927400 0.000000 
#    z -0.068450 0.000000 2.013320 
# 
# From -- ./inp_files/274457.got.cif
#   From: 2010.05.17/outbox.cif.g08.bks.cpg/sg15_138_cif.got.tgz:274457.got - 2010.06.03 18:47:42.
