data_PCOD9294745
_publ_section_title
;
Structure prediction by ZEFSAII (Michael W. Deem and Ramdas Pophale) SiO2 
 PCOD9294745
Probable space group: C 2/C
;
_chemical_formula_sum "Si O2"
_cell_formula_units_Z 40
_cell_length_a 10.356787
_cell_length_b 18.173972
_cell_length_c 16.526999
_cell_angle_alpha 90.000000
_cell_angle_beta 144.260417
_cell_angle_gamma 90.000000
_cell_volume 1817.011474
_symmetry_space_group_name_H-M "C 2/C"
_symmetry_group_IT_number 15
_symmetry_cell_setting 'monoclinic'
loop_
_space_group_symop_operation_xyz
x,y,z
-x,y,1/2-z
-x,-y,-z
x,-y,1/2+z
1/2+x,1/2+y,z
1/2-x,1/2+y,1/2-z
1/2-x,1/2-y,-z
1/2+x,1/2-y,1/2+z
loop_
_atom_site_type_symbol
_atom_site_label
_atom_site_fract_x
_atom_site_fract_y
_atom_site_fract_z
Si Si1 0.040019 0.202850 0.366248
Si Si2 0.541309 0.416746 0.430196
Si Si3 0.199386 0.202439 0.789131
Si Si4 0.158763 0.926558 0.669030
Si Si5 0.433776 0.076213 0.008549
O O1 0.250000 0.250000 0.500000
O O2 0.000000 0.209840 0.250000
O O3 0.838287 0.233872 0.317974
O O4 0.046947 0.116969 0.394926
O O5 0.416638 0.343362 0.341353
O O6 0.663502 0.406863 0.577182
O O7 0.376342 0.485697 0.349334
O O8 0.713304 0.435510 0.447853
O O9 0.000000 0.222916 0.750000
O O10 0.369251 0.145049 0.918680
O O11 0.368934 0.906493 0.829540
O O12 0.500000 0.000000 0.000000
#
# Coordination Sequence:
#
# PCOD9294745 Si02
#       5
#     8   8   8   8   8
#     4  12  27  44  69 102 138 181 225 278 345 405
#     4  10  23  41  65  95 129 170 226 277 335 390
#     4  10  23  45  67  95 135 178 220 282 333 407
#     4  11  24  41  64  95 132 173 218 277 335 405
#     4  11  22  39  67  95 126 169 226 275 332 393
#
# _framework density 22.014168999999999
#
# number of rings (size 3 to 8) (size 9 to 14) (size 15 to 20)
#    0.000    1.200    2.000    3.000    5.600    1.600 
#    0.000    5.000    0.000    0.000    0.000    0.000 
#    0.000    0.000    0.000    0.000    0.000    0.000 
#
# Total GULP energy -111850.043098 kJ/mol
# GULP energy per Si atom -5592.502155 kJ/mol
# Density = 2.196406 g / cm^3
# Si number density = 22.014169 Si / 1000 Ang^3
#
#
#
# Elastic Constant Matrix: (Units=GPa)
#
#
# Indices 1 2 3 4 5 6 
#
# 1 67.8869 35.6538 7.2296 0.0008 -18.4645 0.0005
# 2 35.6538 68.3684 9.8523 0.0004 -2.5962 -0.0003
# 3 7.2296 9.8523 65.1202 0.0020 -16.1482 -0.0017
# 4 0.0008 0.0004 0.0020 4.7574 0.0013 21.8175
# 5 -18.4645 -2.5962 -16.1482 0.0013 36.4034 -0.0005
# 6 0.0005 -0.0003 -0.0017 21.8175 -0.0005 28.9356
#
#
#
# Elastic Compliance Matrix: (Units=1/GPa)
#
#
# Indices 1 2 3 4 5 6 
#
# 1 0.024554 -0.012660 0.002308 0.000003 0.012575 -0.000002
# 2 -0.012660 0.021480 -0.003435 -0.000001 -0.006413 0.000001
# 3 0.002308 -0.003435 0.017808 0.000006 0.008825 -0.000004
# 4 0.000003 -0.000001 0.000006 -0.085521 0.000008 0.064483
# 5 0.012575 -0.006413 0.008825 0.000008 0.037305 -0.000005
# 6 -0.000002 0.000001 -0.000004 0.064483 -0.000005 -0.014061
#
#
# Mechanical properties :
#
#
# Convention : Reuss Voigt Hill
#
# Bulk Modulus (GPa) = 27.57208 34.09410 30.83309
# Shear Modulus (GPa) = 121.27614 23.92859 72.60237
#
# Velocity S-wave (km/s) = 7.43032 3.30049 5.74904
# Velocity P-wave (km/s) = 9.28250 5.48136 7.62266
#
# Compressibility (1/GPa) = 0.03626857
#
# Stress axis : x y z
#
# Youngs Moduli (GPa) = 40.72731 46.55500 56.15445
#
# Poissons Ratio (x) = 0.58937 -0.12958
# Poissons Ratio (y) = 0.51559 0.19286
# Poissons Ratio (z) = -0.09398 0.15989
#
# Static dielectric constant tensor:
#      x y z
#    x 1.931920 0.000030 -0.084110 
#    y 0.000030 1.804500 -0.000020 
#    z -0.084110 -0.000020 1.857730 
# 
# From -- ./inp_files/199748.got.cif
#   From: 2010.05.17/outbox.cif.g08.bks.cpg/sg15_100_cif.got.tgz:199748.got - 2010.06.03 18:47:42.
