data_PCOD9294581
_publ_section_title
;
Structure prediction by ZEFSAII (Michael W. Deem and Ramdas Pophale) SiO2 
 PCOD9294581
Probable space group: C 2/C
;
_chemical_formula_sum "Si O2"
_cell_formula_units_Z 56
_cell_length_a 8.957328
_cell_length_b 16.991887
_cell_length_c 16.797100
_cell_angle_alpha 90.000000
_cell_angle_beta 63.474338
_cell_angle_gamma 90.000000
_cell_volume 2287.433853
_symmetry_space_group_name_H-M "C 2/C"
_symmetry_group_IT_number 15
_symmetry_cell_setting 'monoclinic'
loop_
_space_group_symop_operation_xyz
x,y,z
-x,y,1/2-z
-x,-y,-z
x,-y,1/2+z
1/2+x,1/2+y,z
1/2-x,1/2+y,1/2-z
1/2-x,1/2-y,-z
1/2+x,1/2-y,1/2+z
loop_
_atom_site_type_symbol
_atom_site_label
_atom_site_fract_x
_atom_site_fract_y
_atom_site_fract_z
Si Si1 0.918577 0.541720 0.095510
Si Si2 0.725126 0.773918 0.415567
Si Si3 0.805678 0.303043 0.653435
Si Si4 0.165925 0.883140 0.387375
Si Si5 0.500000 0.030182 0.750000
Si Si6 0.625060 0.433890 0.147901
Si Si7 0.500000 0.194385 0.250000
Si Si8 0.107896 0.812088 0.559001
O O1 0.929765 0.635774 0.079008
O O2 0.983855 0.516676 0.168750
O O3 0.726756 0.512933 0.138325
O O4 0.000000 0.500000 0.000000
O O5 0.750000 0.750000 0.500000
O O6 0.735250 0.865925 0.393081
O O7 0.567455 0.727579 0.419139
O O8 0.895034 0.743060 0.336738
O O9 0.832652 0.209317 0.639557
O O10 0.844164 0.335338 0.732810
O O11 0.634921 0.319678 0.646707
O O12 0.331483 0.919993 0.307856
O O13 0.150651 0.882289 0.487308
O O14 0.999250 0.926113 0.396722
O O15 0.500000 0.418194 0.250000
O O16 0.250000 0.750000 0.500000
#
# Coordination Sequence:
#
# PCOD9294581 Si02
#       8
#     8   8   8   8   4   8   4   8
#     4  12  30  49  75 108 164 203 249 316 411 463
#     4  12  23  43  75 113 146 193 253 325 369 454
#     4  11  25  47  67 111 148 190 251 312 378 456
#     4  11  23  46  80 110 142 195 268 312 375 453
#     4  12  27  50  78 113 154 208 258 330 381 474
#     4  12  24  47  76 107 148 203 252 306 382 466
#     4  12  25  44  74 103 146 192 260 306 387 432
#     4  10  23  40  71 111 145 182 251 318 372 436
#
# _framework density 24.481582
#
# number of rings (size 3 to 8) (size 9 to 14) (size 15 to 20)
#    0.000    0.571    5.000    2.143   10.000    0.571 
#    3.857    2.857    0.000    0.000    0.000    0.000 
#    0.000    0.000    0.000    0.000    0.000    0.000 
#
# Total GULP energy -156127.463323 kJ/mol
# GULP energy per Si atom -5575.980833 kJ/mol
# Density = 2.442586 g / cm^3
# Si number density = 24.481582 Si / 1000 Ang^3
#
#
#
# Elastic Constant Matrix: (Units=GPa)
#
#
# Indices 1 2 3 4 5 6 
#
# 1 168.4582 28.3678 60.9859 0.0000 31.2339 0.0000
# 2 28.3678 110.1388 22.7368 0.0000 -2.3165 0.0000
# 3 60.9859 22.7368 127.5675 0.0000 10.5505 0.0000
# 4 0.0000 0.0000 0.0000 25.9772 0.0000 -0.3620
# 5 31.2339 -2.3165 10.5505 0.0000 66.1263 0.0000
# 6 0.0000 0.0000 0.0000 -0.3620 0.0000 20.9137
#
#
#
# Elastic Compliance Matrix: (Units=1/GPa)
#
#
# Indices 1 2 3 4 5 6 
#
# 1 0.007980 -0.001447 -0.003285 0.000000 -0.003296 0.000000
# 2 -0.001447 0.009713 -0.001139 0.000000 0.001205 0.000000
# 3 -0.003285 -0.001139 0.009614 0.000000 -0.000022 0.000000
# 4 0.000000 0.000000 0.000000 0.038505 0.000000 0.000666
# 5 -0.003296 0.001205 -0.000022 0.000000 0.016725 0.000000
# 6 0.000000 0.000000 0.000000 0.000666 0.000000 0.047827
#
#
# Mechanical properties :
#
#
# Convention : Reuss Voigt Hill
#
# Bulk Modulus (GPa) = 64.24291 70.03839 67.14065
# Shear Modulus (GPa) = 33.94600 42.20837 38.07718
#
# Velocity S-wave (km/s) = 3.72774 4.15672 3.94806
# Velocity P-wave (km/s) = 6.69525 7.19086 6.94747
#
# Compressibility (1/GPa) = 0.01556592
#
# Stress axis : x y z
#
# Youngs Moduli (GPa) = 125.31383 102.95932 104.01361
#
# Poissons Ratio (x) = 0.14894 0.34164
# Poissons Ratio (y) = 0.18128 0.11849
# Poissons Ratio (z) = 0.41160 0.11729
#
# Static dielectric constant tensor:
#      x y z
#    x 1.983790 0.000000 0.126880 
#    y 0.000000 2.010440 0.000000 
#    z 0.126880 0.000000 2.034580 
# 
# From -- ./inp_files/190942.got.cif
#   From: 2010.05.17/outbox.cif.g08.bks.cpg/sg15_96_cif.got.tgz:190942.got - 2010.06.03 18:47:42.
