data_PCOD9294924
_publ_section_title
;
Structure prediction by ZEFSAII (Michael W. Deem and Ramdas Pophale) SiO2 
 PCOD9294924
Probable space group: C 2/C
;
_chemical_formula_sum "Si O2"
_cell_formula_units_Z 56
_cell_length_a 12.035258
_cell_length_b 29.139770
_cell_length_c 7.232686
_cell_angle_alpha 90.000000
_cell_angle_beta 107.723853
_cell_angle_gamma 90.000000
_cell_volume 2416.139460
_symmetry_space_group_name_H-M "C 2/C"
_symmetry_group_IT_number 15
_symmetry_cell_setting 'monoclinic'
loop_
_space_group_symop_operation_xyz
x,y,z
-x,y,1/2-z
-x,-y,-z
x,-y,1/2+z
1/2+x,1/2+y,z
1/2-x,1/2+y,1/2-z
1/2-x,1/2-y,-z
1/2+x,1/2-y,1/2+z
loop_
_atom_site_type_symbol
_atom_site_label
_atom_site_fract_x
_atom_site_fract_y
_atom_site_fract_z
Si Si1 0.682546 0.372953 0.574300
Si Si2 0.052252 0.451091 0.076000
Si Si3 0.008944 0.945889 0.035412
Si Si4 0.589309 0.763543 0.561647
Si Si5 0.844553 0.768686 0.820534
Si Si6 0.759336 0.903028 0.291463
Si Si7 0.391147 0.128039 0.437893
O O1 0.591139 0.412150 0.584787
O O2 0.652665 0.323040 0.638880
O O3 0.698486 0.371937 0.358970
O O4 0.801944 0.385506 0.733501
O O5 0.190204 0.445269 0.158557
O O6 0.000000 0.445925 0.250000
O O7 0.000000 0.500000 0.000000
O O8 0.999940 0.405295 0.961441
O O9 0.000000 0.940401 0.250000
O O10 0.133003 0.924731 0.045526
O O11 0.000000 0.000000 0.000000
O O12 0.705700 0.753196 0.749651
O O13 0.622168 0.743751 0.374854
O O14 0.451702 0.749254 0.505330
O O15 0.581482 0.818584 0.558081
O O16 0.674382 0.879298 0.396762
#
# Coordination Sequence:
#
# PCOD9294924 Si02
#       7
#     8   8   8   8   8   8   8
#     4  10  23  42  63  93 131 170 221 270 334 397
#     4  10  24  39  63  97 125 173 217 269 334 390
#     4  10  24  40  62  95 132 173 222 281 330 401
#     4   9  19  37  64  97 131 167 232 279 340 414
#     4   9  19  36  65  95 126 176 217 283 342 405
#     4  10  24  41  62  94 132 169 224 271 329 398
#     4  10  23  41  69  93 127 178 216 274 336 401
#
# _framework density 23.177468999999999
#
# number of rings (size 3 to 8) (size 9 to 14) (size 15 to 20)
#    0.000    2.286    0.000    0.000   12.000    8.000 
#    0.000    0.714    0.000    8.571    0.000    0.000 
#    0.000    0.000    0.000    0.000    0.000    0.000 
#
# Total GULP energy -156069.395494 kJ/mol
# GULP energy per Si atom -5573.906982 kJ/mol
# Density = 2.312472 g / cm^3
# Si number density = 23.177469 Si / 1000 Ang^3
#
#
#
# Elastic Constant Matrix: (Units=GPa)
#
#
# Indices 1 2 3 4 5 6 
#
# 1 125.5651 51.6211 53.3719 0.0000 27.8946 0.0000
# 2 51.6211 93.8016 39.7569 0.0000 22.0178 0.0000
# 3 53.3719 39.7569 93.5578 0.0000 27.9699 0.0000
# 4 0.0000 0.0000 0.0000 25.4691 0.0000 18.2270
# 5 27.8946 22.0178 27.9699 0.0000 39.8393 0.0000
# 6 0.0000 0.0000 0.0000 18.2270 0.0000 19.3159
#
#
#
# Elastic Compliance Matrix: (Units=1/GPa)
#
#
# Indices 1 2 3 4 5 6 
#
# 1 0.012190 -0.004154 -0.004206 0.000000 -0.003286 0.000000
# 2 -0.004154 0.014994 -0.003030 0.000000 -0.003251 0.000000
# 3 -0.004206 -0.003030 0.016447 0.000000 -0.006927 0.000000
# 4 0.000000 0.000000 0.000000 0.120924 0.000000 -0.114107
# 5 -0.003286 -0.003251 -0.006927 0.000000 0.034061 0.000000
# 6 0.000000 0.000000 0.000000 -0.114107 0.000000 0.159445
#
#
# Mechanical properties :
#
#
# Convention : Reuss Voigt Hill
#
# Bulk Modulus (GPa) = 47.96223 66.93603 57.44913
# Shear Modulus (GPa) = 12.89353 28.13650 20.51501
#
# Velocity S-wave (km/s) = 2.36115 3.48797 2.97834
# Velocity P-wave (km/s) = 5.30771 6.72040 6.05539
#
# Compressibility (1/GPa) = 0.02084974
#
# Stress axis : x y z
#
# Youngs Moduli (GPa) = 82.03665 66.69225 60.80319
#
# Poissons Ratio (x) = 0.27705 0.25575
# Poissons Ratio (y) = 0.34080 0.18423
# Poissons Ratio (z) = 0.34506 0.20208
#
# Static dielectric constant tensor:
#      x y z
#    x 1.520520 0.000000 -1.221860 
#    y 0.000000 1.874940 0.000000 
#    z -1.221860 0.000000 -1.776890 
# 
# From -- ./inp_files/34352.got.cif
#   From: 2010.05.17/outbox.cif.g08.bks.cpg/sg15_18_cif.got.tgz:34352.got - 2010.06.03 18:47:42.
