data_PCOD9294599
_publ_section_title
;
Structure prediction by ZEFSAII (Michael W. Deem and Ramdas Pophale) SiO2 
 PCOD9294599
Probable space group: C 2/C
;
_chemical_formula_sum "Si O2"
_cell_formula_units_Z 40
_cell_length_a 10.224193
_cell_length_b 10.004197
_cell_length_c 18.225352
_cell_angle_alpha 90.000000
_cell_angle_beta 58.400735
_cell_angle_gamma 90.000000
_cell_volume 1587.782488
_symmetry_space_group_name_H-M "C 2/C"
_symmetry_group_IT_number 15
_symmetry_cell_setting 'monoclinic'
loop_
_space_group_symop_operation_xyz
x,y,z
-x,y,1/2-z
-x,-y,-z
x,-y,1/2+z
1/2+x,1/2+y,z
1/2-x,1/2+y,1/2-z
1/2-x,1/2-y,-z
1/2+x,1/2-y,1/2+z
loop_
_atom_site_type_symbol
_atom_site_label
_atom_site_fract_x
_atom_site_fract_y
_atom_site_fract_z
Si Si1 0.161939 0.823544 0.215812
Si Si2 0.802445 0.534458 0.978841
Si Si3 0.418938 0.788427 0.037143
Si Si4 0.863427 0.887068 0.842646
Si Si5 0.655616 0.356638 0.384954
O O1 0.302887 0.747631 0.136868
O O2 0.162273 0.883702 0.297484
O O3 0.000000 0.750938 0.250000
O O4 0.159578 0.960454 0.171361
O O5 0.765589 0.556650 0.904538
O O6 0.950102 0.623537 0.959661
O O7 0.843297 0.387779 0.997983
O O8 0.654451 0.601533 0.064264
O O9 0.490826 0.664765 0.971118
O O10 0.721304 0.794782 0.864581
O O11 0.000000 0.836955 0.750000
#
# Coordination Sequence:
#
# PCOD9294599 Si02
#       5
#     8   8   8   8   8
#     4  10  23  41  56  85 129 164 202 263 327 370
#     4   9  19  36  62  94 121 164 212 258 329 376
#     4   9  19  39  60  87 136 158 201 281 305 375
#     4   9  19  37  58  85 121 154 202 265 303 373
#     4  11  22  36  66  96 116 174 215 245 335 390
#
# _framework density 25.192367000000001
#
# number of rings (size 3 to 8) (size 9 to 14) (size 15 to 20)
#    0.000    2.400    0.000    3.600    5.600    0.800 
#    3.600    9.000    0.000    0.000    0.000    0.000 
#    0.000    0.000    0.000    0.000    0.000    0.000 
#
# Total GULP energy -111583.619207 kJ/mol
# GULP energy per Si atom -5579.180960 kJ/mol
# Density = 2.513503 g / cm^3
# Si number density = 25.192367 Si / 1000 Ang^3
#
#
#
# Elastic Constant Matrix: (Units=GPa)
#
#
# Indices 1 2 3 4 5 6 
#
# 1 211.8957 163.7864 222.1048 0.0000 199.6465 0.0000
# 2 163.7864 226.0172 183.1026 0.0000 240.5198 0.0000
# 3 222.1048 183.1026 365.5035 0.0000 246.3218 0.0000
# 4 0.0000 0.0000 0.0000 5.6352 0.0000 -12.3786
# 5 199.6465 240.5198 246.3218 0.0000 370.7660 0.0000
# 6 0.0000 0.0000 0.0000 -12.3786 0.0000 20.4363
#
#
#
# Elastic Compliance Matrix: (Units=1/GPa)
#
#
# Indices 1 2 3 4 5 6 
#
# 1 0.017787 -0.006328 -0.007153 0.000000 -0.000721 0.000000
# 2 -0.006328 0.017111 0.000829 0.000000 -0.008243 0.000000
# 3 -0.007153 0.000829 0.008029 0.000000 -0.002020 0.000000
# 4 0.000000 0.000000 0.000000 -0.536821 0.000000 -0.325162
# 5 -0.000721 -0.008243 -0.002020 0.000000 0.009774 0.000000
# 6 0.000000 0.000000 0.000000 -0.325162 0.000000 -0.148024
#
#
# Mechanical properties :
#
#
# Convention : Reuss Voigt Hill
#
# Bulk Modulus (GPa) = 56.74682 215.71154 136.22918
# Shear Modulus (GPa) = -8.31993 94.99568 43.33787
#
# Velocity S-wave (km/s) = -1.81927 6.14736 4.15212
# Velocity P-wave (km/s) = 4.26161 11.67040 8.78520
#
# Compressibility (1/GPa) = 0.01762213
#
# Stress axis : x y z
#
# Youngs Moduli (GPa) = 56.22044 58.44329 124.55447
#
# Poissons Ratio (x) = 0.36982 0.89092
# Poissons Ratio (y) = 0.35576 -0.10322
# Poissons Ratio (z) = 0.40214 -0.04843
#
# Static dielectric constant tensor:
#      x y z
#    x 2.121760 0.000000 -0.068620 
#    y 0.000000 1.983210 0.000000 
#    z -0.068620 0.000000 2.176790 
# 
# From -- ./inp_files/195901.got.cif
#   From: 2010.05.17/outbox.cif.g08.bks.cpg/sg15_98_cif.got.tgz:195901.got - 2010.06.03 18:47:42.
