data_PCOD9294022
_publ_section_title
;
Structure prediction by ZEFSAII (Michael W. Deem and Ramdas Pophale) SiO2 
 PCOD9294022
Probable space group: C 2/C
;
_chemical_formula_sum "Si O2"
_cell_formula_units_Z 36
_cell_length_a 8.103427
_cell_length_b 35.381489
_cell_length_c 7.920779
_cell_angle_alpha 90.000000
_cell_angle_beta 56.093118
_cell_angle_gamma 90.000000
_cell_volume 1884.786614
_symmetry_space_group_name_H-M "C 2/C"
_symmetry_group_IT_number 15
_symmetry_cell_setting 'monoclinic'
loop_
_space_group_symop_operation_xyz
x,y,z
-x,y,1/2-z
-x,-y,-z
x,-y,1/2+z
1/2+x,1/2+y,z
1/2-x,1/2+y,1/2-z
1/2-x,1/2-y,-z
1/2+x,1/2-y,1/2+z
loop_
_atom_site_type_symbol
_atom_site_label
_atom_site_fract_x
_atom_site_fract_y
_atom_site_fract_z
Si Si1 0.845372 0.874004 0.487166
Si Si2 0.000000 0.017570 0.250000
Si Si3 0.500000 0.650284 0.250000
Si Si4 0.000000 0.686236 0.250000
Si Si5 0.265732 0.042378 0.396941
Si Si6 0.847632 0.290093 0.487075
O O1 0.678126 0.841709 0.592908
O O2 0.756563 0.915845 0.511732
O O3 0.000000 0.865952 0.250000
O O4 0.947068 0.872833 0.613172
O O5 0.141021 0.041293 0.293735
O O6 0.847021 0.989742 0.432832
O O7 0.317830 0.677537 0.403687
O O8 0.054300 0.710588 0.383225
O O9 0.500000 0.033934 0.250000
O O10 0.750000 0.250000 0.500000
O O11 0.000000 0.299178 0.250000
#
# Coordination Sequence:
#
# PCOD9294022 Si02
#       6
#     8   4   4   4   8   8
#     4  11  21  40  63  87 118 160 200 249 305 357
#     4  10  23  38  60  89 124 160 200 254 306 357
#     4  10  23  40  60  86 120 154 200 252 296 362
#     4  10  24  40  62  87 120 158 200 248 300 363
#     4  11  21  39  62  88 122 159 204 252 304 364
#     4  11  22  41  60  89 120 154 198 247 302 362
#
# _framework density 19.100307000000001
#
# number of rings (size 3 to 8) (size 9 to 14) (size 15 to 20)
#    0.000    1.333    3.333    2.667    0.000    0.889 
#    2.000    0.000    0.000    0.000    0.000    0.000 
#    0.000    0.000    0.000    0.000    0.000    0.000 
#
# Total GULP energy -100503.182429 kJ/mol
# GULP energy per Si atom -5583.510135 kJ/mol
# Density = 1.905683 g / cm^3
# Si number density = 19.100307 Si / 1000 Ang^3
#
#
#
# Elastic Constant Matrix: (Units=GPa)
#
#
# Indices 1 2 3 4 5 6 
#
# 1 116.5115 42.2054 67.6234 0.0000 -2.1605 0.0000
# 2 42.2054 76.8860 42.7490 0.0000 9.1877 0.0000
# 3 67.6234 42.7490 170.6318 0.0000 -16.2570 0.0000
# 4 0.0000 0.0000 0.0000 2.0779 0.0000 15.9403
# 5 -2.1605 9.1877 -16.2570 0.0000 30.9061 0.0000
# 6 0.0000 0.0000 0.0000 15.9403 0.0000 18.0027
#
#
#
# Elastic Compliance Matrix: (Units=1/GPa)
#
#
# Indices 1 2 3 4 5 6 
#
# 1 0.012493 -0.004843 -0.003703 0.000000 0.000365 0.000000
# 2 -0.004843 0.018492 -0.003442 0.000000 -0.007647 0.000000
# 3 -0.003703 -0.003442 0.008699 0.000000 0.005340 0.000000
# 4 0.000000 0.000000 0.000000 -0.083082 0.000000 0.073564
# 5 0.000365 -0.007647 0.005340 0.000000 0.037464 0.000000
# 6 0.000000 0.000000 0.000000 0.073564 0.000000 -0.009589
#
#
# Mechanical properties :
#
#
# Convention : Reuss Voigt Hill
#
# Bulk Modulus (GPa) = 63.65898 74.35388 69.00643
# Shear Modulus (GPa) = 365.25738 24.29411 194.77575
#
# Velocity S-wave (km/s) = 13.84364 3.57027 10.10923
# Velocity P-wave (km/s) = 16.99793 7.48388 13.13274
#
# Compressibility (1/GPa) = 0.01570870
#
# Stress axis : x y z
#
# Youngs Moduli (GPa) = 80.04410 54.07695 114.95042
#
# Poissons Ratio (x) = 0.26187 0.42568
# Poissons Ratio (y) = 0.38762 0.39569
# Poissons Ratio (z) = 0.29642 0.18615
#
# Static dielectric constant tensor:
#      x y z
#    x 1.684930 0.000000 0.008390 
#    y 0.000000 1.626620 0.000000 
#    z 0.008390 0.000000 1.638870 
# 
# From -- ./inp_files/25324.got.cif
#   From: 2010.05.17/outbox.cif.g08.bks.cpg/sg15_13_cif.got.tgz:25324.got - 2010.06.03 18:47:42.
