data_PCOD9294301
_publ_section_title
;
Structure prediction by ZEFSAII (Michael W. Deem and Ramdas Pophale) SiO2 
 PCOD9294301
Probable space group: C 2/C
;
_chemical_formula_sum "Si O2"
_cell_formula_units_Z 52
_cell_length_a 31.201200
_cell_length_b 5.624811
_cell_length_c 22.037710
_cell_angle_alpha 90.000000
_cell_angle_beta 149.903352
_cell_angle_gamma 90.000000
_cell_volume 1939.465673
_symmetry_space_group_name_H-M "C 2/C"
_symmetry_group_IT_number 15
_symmetry_cell_setting 'monoclinic'
loop_
_space_group_symop_operation_xyz
x,y,z
-x,y,1/2-z
-x,-y,-z
x,-y,1/2+z
1/2+x,1/2+y,z
1/2-x,1/2+y,1/2-z
1/2-x,1/2-y,-z
1/2+x,1/2-y,1/2+z
loop_
_atom_site_type_symbol
_atom_site_label
_atom_site_fract_x
_atom_site_fract_y
_atom_site_fract_z
Si Si1 0.250000 0.250000 0.000000
Si Si2 0.320474 0.305423 0.651797
Si Si3 0.669304 0.885810 0.669151
Si Si4 0.013883 0.962431 0.340715
Si Si5 0.793858 0.045397 0.434393
Si Si6 0.349279 0.382635 0.824395
Si Si7 0.548628 0.031896 0.743915
O O1 0.291725 0.256405 0.982933
O O2 0.183475 0.031412 0.895582
O O3 0.229249 0.204274 0.562796
O O4 0.362368 0.361860 0.768507
O O5 0.350127 0.064944 0.648429
O O6 0.620169 0.636989 0.613103
O O7 0.746008 0.883377 0.713664
O O8 0.721891 0.899037 0.797018
O O9 0.620179 0.136062 0.607426
O O10 0.000000 0.961698 0.250000
O O11 0.978144 0.712055 0.319161
O O12 0.112836 0.965547 0.476864
O O13 0.976729 0.214591 0.315435
O O14 0.500000 0.032026 0.750000
#
# Coordination Sequence:
#
# PCOD9294301 Si02
#       7
#     4   8   8   8   8   8   8
#     4  12  22  32  58  92 130 150 202 270 312 370
#     4  11  24  38  61  94 127 164 214 261 317 375
#     4   9  18  35  57  88 120 153 204 262 319 357
#     4  10  23  40  57  78 120 171 202 245 311 381
#     4  11  24  36  62  92 123 161 214 266 306 371
#     4   9  18  35  58  86 121 157 198 261 319 365
#     4  10  23  40  56  79 123 172 202 239 316 383
#
# _framework density 26.811506000000001
#
# number of rings (size 3 to 8) (size 9 to 14) (size 15 to 20)
#    0.000    1.846    1.538    2.308    8.615    0.000 
#    0.000    0.000    0.000    1.846    0.000    0.000 
#    0.000    0.000    0.000    0.000    0.000    0.000 
#
# Total GULP energy -144905.930090 kJ/mol
# GULP energy per Si atom -5573.305003 kJ/mol
# Density = 2.675048 g / cm^3
# Si number density = 26.811506 Si / 1000 Ang^3
#
#
#
# Elastic Constant Matrix: (Units=GPa)
#
#
# Indices 1 2 3 4 5 6 
#
# 1 130.3553 34.5332 26.0432 -0.0002 -22.1324 -0.0001
# 2 34.5332 235.2975 21.8036 0.0004 2.6030 0.0000
# 3 26.0432 21.8036 36.5336 0.0002 -14.7203 0.0000
# 4 -0.0002 0.0004 0.0002 -2.6980 -0.0001 0.2189
# 5 -22.1324 2.6030 -14.7203 -0.0001 33.0034 0.0000
# 6 -0.0001 0.0000 0.0000 0.2189 0.0000 39.1433
#
#
#
# Elastic Compliance Matrix: (Units=1/GPa)
#
#
# Indices 1 2 3 4 5 6 
#
# 1 0.009600 -0.001054 -0.004373 -0.000001 0.004571 0.000000
# 2 -0.001054 0.004714 -0.003043 0.000001 -0.002436 0.000000
# 3 -0.004373 -0.003043 0.038060 0.000002 0.014284 0.000000
# 4 -0.000001 0.000001 0.000002 -0.370483 -0.000001 0.002072
# 5 0.004571 -0.002436 0.014284 -0.000001 0.039928 0.000000
# 6 0.000000 0.000000 0.000000 0.002072 0.000000 0.025536
#
#
# Mechanical properties :
#
#
# Convention : Reuss Voigt Hill
#
# Bulk Modulus (GPa) = 28.22134 62.99406 45.60770
# Shear Modulus (GPa) = -22.33207 35.21018 6.43906
#
# Velocity S-wave (km/s) = -2.88918 3.62781 1.55139
# Velocity P-wave (km/s) = 0.76233 6.41047 4.50072
#
# Compressibility (1/GPa) = 0.03543418
#
# Stress axis : x y z
#
# Youngs Moduli (GPa) = 104.16309 212.15131 26.27397
#
# Poissons Ratio (x) = 0.22368 0.11489
# Poissons Ratio (y) = 0.10983 0.07995
# Poissons Ratio (z) = 0.45547 0.64560
#
# Static dielectric constant tensor:
#      x y z
#    x 2.358810 0.000000 0.158850 
#    y 0.000000 1.910610 0.000000 
#    z 0.158850 0.000000 2.137840 
# 
# From -- ./inp_files/284099.got.cif
#   From: 2010.05.17/outbox.cif.g08.bks.cpg/sg15_143_cif.got.tgz:284099.got - 2010.06.03 18:47:42.
