data_PCOD9294302
_publ_section_title
;
Structure prediction by ZEFSAII (Michael W. Deem and Ramdas Pophale) SiO2 
 PCOD9294302
Probable space group: C 2/C
;
_chemical_formula_sum "Si O2"
_cell_formula_units_Z 56
_cell_length_a 14.482214
_cell_length_b 23.363184
_cell_length_c 11.331569
_cell_angle_alpha 90.000000
_cell_angle_beta 37.584202
_cell_angle_gamma 90.000000
_cell_volume 2338.485451
_symmetry_space_group_name_H-M "C 2/C"
_symmetry_group_IT_number 15
_symmetry_cell_setting 'monoclinic'
loop_
_space_group_symop_operation_xyz
x,y,z
-x,y,1/2-z
-x,-y,-z
x,-y,1/2+z
1/2+x,1/2+y,z
1/2-x,1/2+y,1/2-z
1/2-x,1/2-y,-z
1/2+x,1/2-y,1/2+z
loop_
_atom_site_type_symbol
_atom_site_label
_atom_site_fract_x
_atom_site_fract_y
_atom_site_fract_z
Si Si1 0.986187 0.675594 0.948018
Si Si2 0.152587 0.077044 0.518448
Si Si3 0.000000 0.868334 0.750000
Si Si4 0.504545 0.688133 0.880873
Si Si5 0.689283 0.878983 0.420039
Si Si6 0.166307 0.772397 0.735926
Si Si7 0.721648 0.545479 0.887697
Si Si8 0.000000 0.578283 0.750000
O O1 0.837982 0.714469 0.088869
O O2 0.039429 0.651222 0.021503
O O3 0.124568 0.708180 0.737081
O O4 0.951151 0.619087 0.906927
O O5 0.105494 0.132975 0.494190
O O6 0.285291 0.095358 0.475227
O O7 0.000000 0.066921 0.750000
O O8 0.173301 0.020044 0.423979
O O9 0.098729 0.823723 0.727144
O O10 0.099052 0.910522 0.566992
O O11 0.500000 0.707332 0.750000
O O12 0.674137 0.667229 0.732489
O O13 0.430642 0.730903 0.045498
O O14 0.725274 0.928730 0.289715
O O15 0.859100 0.543812 0.841986
#
# Coordination Sequence:
#
# PCOD9294302 Si02
#       8
#     8   8   4   8   8   8   8   4
#     4  11  24  40  62  86 125 159 201 253 310 362
#     4   9  20  37  62  90 116 163 206 244 298 349
#     4  12  23  34  66  96 126 152 203 246 298 378
#     4   9  20  41  63  89 123 159 209 250 290 358
#     4   9  20  40  59  84 125 161 201 252 294 357
#     4  12  24  40  62  96 118 162 201 250 311 359
#     4  11  20  38  59  91 123 162 197 247 300 361
#     4  10  23  40  56  90 130 158 195 248 308 368
#
# _framework density 23.947123000000001
#
# number of rings (size 3 to 8) (size 9 to 14) (size 15 to 20)
#    0.000    2.000    3.571    1.286    2.000    4.571 
#    2.571   10.000    0.000    0.000    0.000    0.000 
#    0.000    0.000    0.000    0.000    0.000    0.000 
#
# Total GULP energy -156514.332336 kJ/mol
# GULP energy per Si atom -5589.797583 kJ/mol
# Density = 2.389262 g / cm^3
# Si number density = 23.947123 Si / 1000 Ang^3
#
#
#
# Elastic Constant Matrix: (Units=GPa)
#
#
# Indices 1 2 3 4 5 6 
#
# 1 126.0070 9.5985 25.5066 -0.0001 -17.6189 0.0001
# 2 9.5985 64.4568 16.5189 0.0000 3.9145 0.0000
# 3 25.5066 16.5189 40.1898 -0.0001 -5.8685 0.0001
# 4 -0.0001 0.0000 -0.0001 9.3986 0.0001 5.4115
# 5 -17.6189 3.9145 -5.8685 0.0001 24.1907 -0.0001
# 6 0.0001 0.0000 0.0001 5.4115 -0.0001 15.0879
#
#
#
# Elastic Compliance Matrix: (Units=1/GPa)
#
#
# Indices 1 2 3 4 5 6 
#
# 1 0.009862 -0.000508 -0.005173 0.000000 0.006010 0.000000
# 2 -0.000508 0.017899 -0.007787 0.000000 -0.005155 0.000000
# 3 -0.005173 -0.007787 0.032138 0.000000 0.005289 0.000000
# 4 0.000000 0.000000 0.000000 0.134090 0.000000 -0.048093
# 5 0.006010 -0.005155 0.005289 0.000000 0.047833 0.000000
# 6 0.000000 0.000000 0.000000 -0.048093 0.000000 0.083528
#
#
# Mechanical properties :
#
#
# Convention : Reuss Voigt Hill
#
# Bulk Modulus (GPa) = 30.33699 37.10019 33.71859
# Shear Modulus (GPa) = 13.76377 21.67073 17.71725
#
# Velocity S-wave (km/s) = 2.40001 3.01149 2.72297
# Velocity P-wave (km/s) = 4.51397 5.25531 4.89868
#
# Compressibility (1/GPa) = 0.03296306
#
# Stress axis : x y z
#
# Youngs Moduli (GPa) = 101.39702 55.87003 31.11598
#
# Poissons Ratio (x) = 0.02838 0.16095
# Poissons Ratio (y) = 0.05151 0.24231
# Poissons Ratio (z) = 0.52449 0.43507
#
# Static dielectric constant tensor:
#      x y z
#    x 1.933110 0.000000 0.004740 
#    y 0.000000 1.965410 0.000000 
#    z 0.004740 0.000000 1.928980 
# 
# From -- ./inp_files/101117.got.cif
#   From: 2010.05.17/outbox.cif.g08.bks.cpg/sg15_51_cif.got.tgz:101117.got - 2010.06.03 18:47:42.
