data_PCOD9294878
_publ_section_title
;
Structure prediction by ZEFSAII (Michael W. Deem and Ramdas Pophale) SiO2 
 PCOD9294878
Probable space group: C 2/C
;
_chemical_formula_sum "Si O2"
_cell_formula_units_Z 56
_cell_length_a 8.203476
_cell_length_b 21.180191
_cell_length_c 14.639255
_cell_angle_alpha 90.000000
_cell_angle_beta 95.867605
_cell_angle_gamma 90.000000
_cell_volume 2530.261531
_symmetry_space_group_name_H-M "C 2/C"
_symmetry_group_IT_number 15
_symmetry_cell_setting 'monoclinic'
loop_
_space_group_symop_operation_xyz
x,y,z
-x,y,1/2-z
-x,-y,-z
x,-y,1/2+z
1/2+x,1/2+y,z
1/2-x,1/2+y,1/2-z
1/2-x,1/2-y,-z
1/2+x,1/2-y,1/2+z
loop_
_atom_site_type_symbol
_atom_site_label
_atom_site_fract_x
_atom_site_fract_y
_atom_site_fract_z
Si Si1 0.305088 0.164190 0.734110
Si Si2 0.796698 0.918223 0.106339
Si Si3 0.127374 0.462129 0.571722
Si Si4 0.945827 0.759199 0.510911
Si Si5 0.111683 0.356970 0.920192
Si Si6 0.640176 0.705968 0.196331
Si Si7 0.872619 0.895077 0.446217
O O1 0.500000 0.153980 0.750000
O O2 0.213291 0.132252 0.813728
O O3 0.273323 0.239432 0.738865
O O4 0.244942 0.131422 0.638951
O O5 0.981080 0.935350 0.088114
O O6 0.708389 0.982161 0.133894
O O7 0.703059 0.888570 0.012897
O O8 0.265286 0.429413 0.516209
O O9 0.000000 0.500000 0.500000
O O10 0.028276 0.406731 0.615072
O O11 0.750000 0.750000 0.500000
O O12 0.964630 0.832244 0.486326
O O13 0.029185 0.708162 0.450004
O O14 0.040998 0.754955 0.612387
O O15 0.235895 0.339933 0.846826
O O16 0.500000 0.674232 0.250000
#
# Coordination Sequence:
#
# PCOD9294878 Si02
#       7
#     8   8   8   8   8   8   8
#     4  11  22  40  66 101 132 168 219 280 329 390
#     4  11  22  41  69  94 132 171 226 274 329 389
#     4  10  23  41  68  90 125 179 219 271 333 398
#     4  12  21  38  68  96 135 173 217 274 342 400
#     4  11  21  41  64  97 134 175 215 269 339 407
#     4  11  23  39  65  98 141 174 213 274 342 396
#     4  12  23  40  70 100 129 170 233 276 326 401
#
# _framework density 22.132099
#
# number of rings (size 3 to 8) (size 9 to 14) (size 15 to 20)
#    0.000    0.857    4.286    5.571    0.000    0.000 
#    0.000    2.143   12.571    0.000    0.000    0.000 
#    0.000    0.000    0.000    0.000    0.000    0.000 
#
# Total GULP energy -156552.416950 kJ/mol
# GULP energy per Si atom -5591.157748 kJ/mol
# Density = 2.208173 g / cm^3
# Si number density = 22.132099 Si / 1000 Ang^3
#
#
#
# Elastic Constant Matrix: (Units=GPa)
#
#
# Indices 1 2 3 4 5 6 
#
# 1 108.4408 38.5980 15.7370 0.0000 -33.3086 0.0000
# 2 38.5980 95.2820 15.7403 0.0000 -23.6611 0.0000
# 3 15.7370 15.7403 37.0204 0.0000 -22.5069 0.0000
# 4 0.0000 0.0000 0.0000 8.9843 0.0000 -1.5917
# 5 -33.3086 -23.6611 -22.5069 0.0000 46.9701 0.0000
# 6 0.0000 0.0000 0.0000 -1.5917 0.0000 28.1390
#
#
#
# Elastic Compliance Matrix: (Units=1/GPa)
#
#
# Indices 1 2 3 4 5 6 
#
# 1 0.012652 -0.003347 0.000670 0.000000 0.007607 0.000000
# 2 -0.003347 0.012988 -0.002208 0.000000 0.003111 0.000000
# 3 0.000670 -0.002208 0.038492 0.000000 0.017807 0.000000
# 4 0.000000 0.000000 0.000000 0.112432 0.000000 0.006360
# 5 0.007607 0.003111 0.017807 0.000000 0.036785 0.000000
# 6 0.000000 0.000000 0.000000 0.006360 0.000000 0.035898
#
#
# Mechanical properties :
#
#
# Convention : Reuss Voigt Hill
#
# Bulk Modulus (GPa) = 18.39515 42.32152 30.35834
# Shear Modulus (GPa) = 18.04149 28.19654 23.11901
#
# Velocity S-wave (km/s) = 2.85822 3.57320 3.23552
# Velocity P-wave (km/s) = 4.38431 6.01560 5.26353
#
# Compressibility (1/GPa) = 0.05436216
#
# Stress axis : x y z
#
# Youngs Moduli (GPa) = 79.03664 76.99195 25.97921
#
# Poissons Ratio (x) = 0.25769 -0.01739
# Poissons Ratio (y) = 0.26453 0.05736
# Poissons Ratio (z) = -0.05292 0.17000
#
# Static dielectric constant tensor:
#      x y z
#    x 1.847530 0.000000 0.006500 
#    y 0.000000 1.925820 0.000000 
#    z 0.006500 0.000000 1.903540 
# 
# From -- ./inp_files/136468.got.cif
#   From: 2010.05.17/outbox.cif.g08.bks.cpg/sg15_69_cif.got.tgz:136468.got - 2010.06.03 18:47:42.
