data_PCOD9294012
_publ_section_title
;
Structure prediction by ZEFSAII (Michael W. Deem and Ramdas Pophale) SiO2 
 PCOD9294012
Probable space group: C 2/C
;
_chemical_formula_sum "Si O2"
_cell_formula_units_Z 36
_cell_length_a 16.145810
_cell_length_b 23.039672
_cell_length_c 15.643436
_cell_angle_alpha 90.000000
_cell_angle_beta 17.959741
_cell_angle_gamma 90.000000
_cell_volume 1794.363141
_symmetry_space_group_name_H-M "C 2/C"
_symmetry_group_IT_number 15
_symmetry_cell_setting 'monoclinic'
loop_
_space_group_symop_operation_xyz
x,y,z
-x,y,1/2-z
-x,-y,-z
x,-y,1/2+z
1/2+x,1/2+y,z
1/2-x,1/2+y,1/2-z
1/2-x,1/2-y,-z
1/2+x,1/2-y,1/2+z
loop_
_atom_site_type_symbol
_atom_site_label
_atom_site_fract_x
_atom_site_fract_y
_atom_site_fract_z
Si Si1 0.000000 0.347035 0.250000
Si Si2 0.980543 0.557336 0.461177
Si Si3 0.303909 0.711909 0.589587
Si Si4 0.313071 0.606572 0.277499
Si Si5 0.468989 0.518209 0.881377
O O1 0.231193 0.307720 0.064391
O O2 0.858340 0.381908 0.466830
O O3 0.683986 0.560959 0.715131
O O4 0.000000 0.500000 0.500000
O O5 0.106249 0.604030 0.401561
O O6 0.178925 0.542450 0.189043
O O7 0.511327 0.764467 0.403075
O O8 0.466005 0.655301 0.459815
O O9 0.468061 0.545436 0.140324
O O10 0.500000 0.513829 0.750000
#
# Coordination Sequence:
#
# PCOD9294012 Si02
#       5
#     4   8   8   8   8
#     4  12  24  36  56  80 116 160 200 228 268 332
#     4  10  23  38  58  82 117 148 191 240 284 331
#     4  12  25  39  53  78 115 158 199 234 269 322
#     4  11  25  36  59  80 119 155 198 226 281 329
#     4  11  23  39  60  85 114 152 194 234 286 342
#
# _framework density 20.062828
#
# number of rings (size 3 to 8) (size 9 to 14) (size 15 to 20)
#    0.000    0.889    2.222    6.000   15.556    0.000 
#    0.000    0.000    0.000    0.000    0.000    0.000 
#    0.000   17.778    0.000    0.000    0.000    0.000 
#
# Total GULP energy -100423.737859 kJ/mol
# GULP energy per Si atom -5579.096548 kJ/mol
# Density = 2.001716 g / cm^3
# Si number density = 20.062828 Si / 1000 Ang^3
#
#
#
# Elastic Constant Matrix: (Units=GPa)
#
#
# Indices 1 2 3 4 5 6 
#
# 1 62.9397 23.5790 -4.7091 0.1559 -10.5378 0.0175
# 2 23.5790 61.8447 9.2565 0.0413 -12.1379 -0.0177
# 3 -4.7091 9.2565 79.8857 0.2213 -3.1659 0.0214
# 4 0.1559 0.0413 0.2213 23.4870 0.0357 -9.7944
# 5 -10.5378 -12.1379 -3.1659 0.0357 40.0598 0.0101
# 6 0.0175 -0.0177 0.0214 -9.7944 0.0101 32.7166
#
#
#
# Elastic Compliance Matrix: (Units=1/GPa)
#
#
# Indices 1 2 3 4 5 6 
#
# 1 0.019190 -0.007020 0.002067 -0.000167 0.003084 -0.000066
# 2 -0.007020 0.020020 -0.002575 0.000041 0.004016 0.000027
# 3 0.002067 -0.002575 0.012970 -0.000157 0.000789 -0.000058
# 4 -0.000167 0.000041 -0.000157 0.048653 -0.000091 0.014566
# 5 0.003084 0.004016 0.000789 -0.000091 0.027053 -0.000036
# 6 -0.000066 0.000027 -0.000058 0.014566 -0.000036 0.034926
#
#
# Mechanical properties :
#
#
# Convention : Reuss Voigt Hill
#
# Bulk Modulus (GPa) = 26.93664 28.99144 27.96404
# Shear Modulus (GPa) = 26.28241 31.02226 28.65234
#
# Velocity S-wave (km/s) = 3.62333 3.93651 3.78316
# Velocity P-wave (km/s) = 5.56417 5.92817 5.74905
#
# Compressibility (1/GPa) = 0.03712415
#
# Stress axis : x y z
#
# Youngs Moduli (GPa) = 52.11118 49.95121 77.10234
#
# Poissons Ratio (x) = 0.35067 -0.15940
# Poissons Ratio (y) = 0.36584 0.19850
# Poissons Ratio (z) = -0.10773 0.12860
#
# Static dielectric constant tensor:
#      x y z
#    x 1.760040 -0.000670 -0.003220 
#    y -0.000670 1.786770 0.000420 
#    z -0.003220 0.000420 1.790740 
# 
# From -- ./inp_files/156706.got.cif
#   From: 2010.05.17/outbox.cif.g08.bks.cpg/sg15_79_cif.got.tgz:156706.got - 2010.06.03 18:47:42.
