data_PCOD9294060
_publ_section_title
;
Structure prediction by ZEFSAII (Michael W. Deem and Ramdas Pophale) SiO2 
 PCOD9294060
Probable space group: C 2/C
;
_chemical_formula_sum "Si O2"
_cell_formula_units_Z 44
_cell_length_a 6.392748
_cell_length_b 27.006721
_cell_length_c 12.163516
_cell_angle_alpha 90.000000
_cell_angle_beta 71.266684
_cell_angle_gamma 90.000000
_cell_volume 1988.746446
_symmetry_space_group_name_H-M "C 2/C"
_symmetry_group_IT_number 15
_symmetry_cell_setting 'monoclinic'
loop_
_space_group_symop_operation_xyz
x,y,z
-x,y,1/2-z
-x,-y,-z
x,-y,1/2+z
1/2+x,1/2+y,z
1/2-x,1/2+y,1/2-z
1/2-x,1/2-y,-z
1/2+x,1/2-y,1/2+z
loop_
_atom_site_type_symbol
_atom_site_label
_atom_site_fract_x
_atom_site_fract_y
_atom_site_fract_z
Si Si1 0.632136 0.280807 0.618422
Si Si2 0.000000 0.883951 0.250000
Si Si3 0.921165 0.865374 0.499850
Si Si4 0.870415 0.465727 0.164226
Si Si5 0.063409 0.637167 0.361634
Si Si6 0.794540 0.054338 0.441494
O O1 0.500000 0.260229 0.750000
O O2 0.750000 0.250000 0.500000
O O3 0.488159 0.322872 0.576489
O O4 0.833889 0.309668 0.639785
O O5 0.009377 0.854383 0.362784
O O6 0.783353 0.919014 0.283909
O O7 0.659606 0.867561 0.532974
O O8 0.009517 0.920225 0.521699
O O9 0.708894 0.503850 0.127085
O O10 0.000000 0.486450 0.250000
O O11 0.077885 0.451166 0.053561
O O12 0.000000 0.627121 0.250000
O O13 0.241997 0.597131 0.364460
#
# Coordination Sequence:
#
# PCOD9294060 Si02
#       6
#     8   4   8   8   8   8
#     4  11  26  49  74 108 140 175 225 287 350 431
#     4  12  24  40  64  98 140 180 234 292 340 410
#     4  11  24  44  68  99 134 181 228 281 352 411
#     4  11  22  39  58  95 138 178 235 286 339 399
#     4  11  22  43  70  95 134 174 227 269 344 410
#     4  10  23  38  64  92 132 183 230 286 335 403
#
# _framework density 22.124489000000001
#
# number of rings (size 3 to 8) (size 9 to 14) (size 15 to 20)
#    0.000    1.091    5.455    0.545    0.000    5.818 
#    1.636    0.000    0.000    0.000    0.000    0.000 
#    0.000    0.000    0.000    0.000    0.000    0.000 
#
# Total GULP energy -122663.070278 kJ/mol
# GULP energy per Si atom -5575.594104 kJ/mol
# Density = 2.207413 g / cm^3
# Si number density = 22.124489 Si / 1000 Ang^3
#
#
#
# Elastic Constant Matrix: (Units=GPa)
#
#
# Indices 1 2 3 4 5 6 
#
# 1 55.3577 -2.7308 6.1028 0.0000 -8.5211 0.0000
# 2 -2.7308 32.3284 19.7200 0.0000 -8.7142 0.0000
# 3 6.1028 19.7200 146.0766 0.0000 -2.3034 0.0000
# 4 0.0000 0.0000 0.0000 27.2458 0.0000 -5.1932
# 5 -8.5211 -8.7142 -2.3034 0.0000 38.4319 0.0000
# 6 0.0000 0.0000 0.0000 -5.1932 0.0000 4.5758
#
#
#
# Elastic Compliance Matrix: (Units=1/GPa)
#
#
# Indices 1 2 3 4 5 6 
#
# 1 0.019155 0.003716 -0.001223 0.000000 0.005016 0.000000
# 2 0.003716 0.036657 -0.004964 0.000000 0.008838 0.000000
# 3 -0.001223 -0.004964 0.007552 0.000000 -0.000944 0.000000
# 4 0.000000 0.000000 0.000000 0.046834 0.000000 0.053154
# 5 0.005016 0.008838 -0.000944 0.000000 0.029080 0.000000
# 6 0.000000 0.000000 0.000000 0.053154 0.000000 0.278867
#
#
# Mechanical properties :
#
#
# Convention : Reuss Voigt Hill
#
# Bulk Modulus (GPa) = 17.11706 31.10519 24.11112
# Shear Modulus (GPa) = 11.29788 28.09544 19.69666
#
# Velocity S-wave (km/s) = 2.26221 3.56740 2.98697
# Velocity P-wave (km/s) = 3.81798 5.57299 4.77677
#
# Compressibility (1/GPa) = 0.05842126
#
# Stress axis : x y z
#
# Youngs Moduli (GPa) = 52.20683 27.27987 132.41325
#
# Poissons Ratio (x) = -0.10137 0.16191
# Poissons Ratio (y) = -0.19400 0.65736
# Poissons Ratio (z) = 0.06384 0.13543
#
# Static dielectric constant tensor:
#      x y z
#    x 1.692750 0.000000 0.181590 
#    y 0.000000 1.839930 0.000000 
#    z 0.181590 0.000000 1.724780 
# 
# From -- ./inp_files/73840.got.cif
#   From: 2010.05.17/outbox.cif.g08.bks.cpg/sg15_37_cif.got.tgz:73840.got - 2010.06.03 18:47:42.
