data_PCOD9294573
_publ_section_title
;
Structure prediction by ZEFSAII (Michael W. Deem and Ramdas Pophale) SiO2 
 PCOD9294573
Probable space group: C 2/C
;
_chemical_formula_sum "Si O2"
_cell_formula_units_Z 44
_cell_length_a 21.117206
_cell_length_b 7.781252
_cell_length_c 16.019637
_cell_angle_alpha 90.000000
_cell_angle_beta 54.594151
_cell_angle_gamma 90.000000
_cell_volume 2145.521151
_symmetry_space_group_name_H-M "C 2/C"
_symmetry_group_IT_number 15
_symmetry_cell_setting 'monoclinic'
loop_
_space_group_symop_operation_xyz
x,y,z
-x,y,1/2-z
-x,-y,-z
x,-y,1/2+z
1/2+x,1/2+y,z
1/2-x,1/2+y,1/2-z
1/2-x,1/2-y,-z
1/2+x,1/2-y,1/2+z
loop_
_atom_site_type_symbol
_atom_site_label
_atom_site_fract_x
_atom_site_fract_y
_atom_site_fract_z
Si Si1 0.512836 0.868636 0.413007
Si Si2 0.921146 0.044593 0.511739
Si Si3 0.244661 0.415397 0.383065
Si Si4 0.000000 0.436195 0.750000
Si Si5 0.367932 0.271503 0.418857
Si Si6 0.820359 0.835178 0.701778
O O1 0.440295 0.736699 0.471205
O O2 0.598599 0.774294 0.349236
O O3 0.500000 0.000000 0.500000
O O4 0.507777 0.958420 0.328151
O O5 0.908774 0.914449 0.444843
O O6 0.850190 0.001944 0.627175
O O7 0.000000 0.000000 0.500000
O O8 0.304681 0.362500 0.409326
O O9 0.164755 0.378785 0.494954
O O10 0.234847 0.276790 0.315833
O O11 0.274525 0.591386 0.317308
O O12 0.073694 0.315142 0.688222
#
# Coordination Sequence:
#
# PCOD9294573 Si02
#       6
#     8   8   8   4   8   8
#     4  11  25  42  66 104 137 169 234 284 340 408
#     4   9  20  41  66  94 126 173 217 278 336 401
#     4  10  23  43  66  96 134 175 230 275 348 410
#     4  12  26  38  70  96 136 180 218 294 348 394
#     4  10  24  43  65  98 137 173 224 288 335 414
#     4  10  23  40  70  91 130 188 219 280 343 406
#
# _framework density 20.507836000000001
#
# number of rings (size 3 to 8) (size 9 to 14) (size 15 to 20)
#    0.000    1.818    0.000    3.273   12.727    1.455 
#    0.000    0.909    0.000    0.000    0.000    0.000 
#    0.000    0.000    0.000    0.000    0.000    0.000 
#
# Total GULP energy -122584.944672 kJ/mol
# GULP energy per Si atom -5572.042940 kJ/mol
# Density = 2.046116 g / cm^3
# Si number density = 20.507836 Si / 1000 Ang^3
#
#
#
# Elastic Constant Matrix: (Units=GPa)
#
#
# Indices 1 2 3 4 5 6 
#
# 1 99.1837 37.6917 18.4276 0.0000 19.7373 0.0002
# 2 37.6917 72.2188 41.5788 -0.0001 -9.9491 0.0005
# 3 18.4276 41.5788 78.5291 -0.0001 8.1338 0.0001
# 4 0.0000 -0.0001 -0.0001 66.0632 0.0000 -0.8185
# 5 19.7373 -9.9491 8.1338 0.0000 22.5722 0.0000
# 6 0.0002 0.0005 0.0001 -0.8185 0.0000 22.9370
#
#
#
# Elastic Compliance Matrix: (Units=1/GPa)
#
#
# Indices 1 2 3 4 5 6 
#
# 1 0.023932 -0.023217 0.010288 0.000000 -0.034867 0.000000
# 2 -0.023217 0.047003 -0.024605 0.000000 0.049885 -0.000001
# 3 0.010288 -0.024605 0.026388 0.000000 -0.029350 0.000000
# 4 0.000000 0.000000 0.000000 0.015144 0.000000 0.000540
# 5 -0.034867 0.049885 -0.029350 0.000000 0.107355 -0.000001
# 6 0.000000 -0.000001 0.000000 0.000540 -0.000001 0.043617
#
#
# Mechanical properties :
#
#
# Convention : Reuss Voigt Hill
#
# Bulk Modulus (GPa) = 44.93541 49.48085 47.20813
# Shear Modulus (GPa) = 14.45404 32.46338 23.45871
#
# Velocity S-wave (km/s) = 2.65770 3.98298 3.38581
# Velocity P-wave (km/s) = 5.60149 6.73293 6.19310
#
# Compressibility (1/GPa) = 0.02225417
#
# Stress axis : x y z
#
# Youngs Moduli (GPa) = 41.78444 21.27546 37.89663
#
# Poissons Ratio (x) = 0.49396 -0.38990
# Poissons Ratio (y) = 0.97012 0.93245
# Poissons Ratio (z) = -0.42990 0.52349
#
# Static dielectric constant tensor:
#      x y z
#    x 1.706400 0.000000 -0.070650 
#    y 0.000000 1.811240 0.000000 
#    z -0.070650 0.000000 1.700420 
# 
# From -- ./inp_files/171713.got.cif
#   From: 2010.05.17/outbox.cif.g08.bks.cpg/sg15_86_cif.got.tgz:171713.got - 2010.06.03 18:47:42.
