data_PCOD9294511
_publ_section_title
;
Structure prediction by ZEFSAII (Michael W. Deem and Ramdas Pophale) SiO2 
 PCOD9294511
Probable space group: C 2/C
;
_chemical_formula_sum "Si O2"
_cell_formula_units_Z 48
_cell_length_a 20.154729
_cell_length_b 6.957978
_cell_length_c 22.840879
_cell_angle_alpha 90.000000
_cell_angle_beta 129.207815
_cell_angle_gamma 90.000000
_cell_volume 2481.961854
_symmetry_space_group_name_H-M "C 2/C"
_symmetry_group_IT_number 15
_symmetry_cell_setting 'monoclinic'
loop_
_space_group_symop_operation_xyz
x,y,z
-x,y,1/2-z
-x,-y,-z
x,-y,1/2+z
1/2+x,1/2+y,z
1/2-x,1/2+y,1/2-z
1/2-x,1/2-y,-z
1/2+x,1/2-y,1/2+z
loop_
_atom_site_type_symbol
_atom_site_label
_atom_site_fract_x
_atom_site_fract_y
_atom_site_fract_z
Si Si1 0.247499 0.054014 0.461821
Si Si2 0.590714 0.572645 0.073322
Si Si3 0.193129 0.944482 0.798495
Si Si4 0.575758 0.700085 0.666826
Si Si5 0.373166 0.715846 0.529815
Si Si6 0.350485 0.889450 0.313090
O O1 0.250000 0.250000 0.500000
O O2 0.218166 0.088722 0.379109
O O3 0.336249 0.932516 0.510580
O O4 0.179526 0.911864 0.454207
O O5 0.618781 0.406361 0.134036
O O6 0.586682 0.763406 0.110815
O O7 0.500000 0.500000 0.000000
O O8 0.642391 0.626640 0.043864
O O9 0.109537 0.077280 0.740557
O O10 0.270039 0.055855 0.808687
O O11 0.177266 0.747132 0.755231
O O12 0.473784 0.702024 0.600570
O O13 0.608130 0.916287 0.686561
#
# Coordination Sequence:
#
# PCOD9294511 Si02
#       6
#     8   8   8   8   8   8
#     4  11  26  42  65  89 132 176 214 263 315 400
#     4   9  20  37  63  95 123 157 208 268 323 384
#     4  11  23  40  62  96 126 166 218 262 327 386
#     4  10  23  40  67  94 128 163 213 278 321 379
#     4  10  23  43  62  93 127 171 214 256 329 381
#     4  11  21  37  64  96 125 164 210 275 327 371
#
# _framework density 19.339538999999998
#
# number of rings (size 3 to 8) (size 9 to 14) (size 15 to 20)
#    0.000    1.667    3.333    0.000    2.333   10.000 
#    0.000    0.000    0.000    0.000    0.000    0.000 
#    0.000    0.000    0.000    0.000    0.000    0.000 
#
# Total GULP energy -133958.521854 kJ/mol
# GULP energy per Si atom -5581.605077 kJ/mol
# Density = 1.929552 g / cm^3
# Si number density = 19.339539 Si / 1000 Ang^3
#
#
#
# Elastic Constant Matrix: (Units=GPa)
#
#
# Indices 1 2 3 4 5 6 
#
# 1 73.4275 41.9862 48.5754 0.0000 -6.8732 0.0000
# 2 41.9862 151.5212 75.6347 0.0000 -8.1806 0.0001
# 3 48.5754 75.6347 142.6937 0.0000 -14.3344 0.0000
# 4 0.0000 0.0000 0.0000 26.0333 0.0000 3.9283
# 5 -6.8732 -8.1806 -14.3344 0.0000 35.1864 0.0000
# 6 0.0000 0.0001 0.0000 3.9283 0.0000 27.6384
#
#
#
# Elastic Compliance Matrix: (Units=1/GPa)
#
#
# Indices 1 2 3 4 5 6 
#
# 1 0.018377 -0.002673 -0.004735 0.000000 0.001039 0.000000
# 2 -0.002673 0.009364 -0.004053 0.000000 0.000004 0.000000
# 3 -0.004735 -0.004053 0.011032 0.000000 0.002627 0.000000
# 4 0.000000 0.000000 0.000000 0.039254 0.000000 -0.005579
# 5 0.001039 0.000004 0.002627 0.000000 0.029694 0.000000
# 6 0.000000 0.000000 0.000000 -0.005579 0.000000 0.036974
#
#
# Mechanical properties :
#
#
# Convention : Reuss Voigt Hill
#
# Bulk Modulus (GPa) = 63.08500 77.78167 70.43333
# Shear Modulus (GPa) = 28.91852 31.20138 30.05995
#
# Velocity S-wave (km/s) = 3.87111 4.02101 3.94677
# Velocity P-wave (km/s) = 7.25749 7.86539 7.56755
#
# Compressibility (1/GPa) = 0.01585163
#
# Stress axis : x y z
#
# Youngs Moduli (GPa) = 54.41717 106.79602 90.64545
#
# Poissons Ratio (x) = 0.28542 0.42918
# Poissons Ratio (y) = 0.14543 0.36739
# Poissons Ratio (z) = 0.25765 0.43285
#
# Static dielectric constant tensor:
#      x y z
#    x 1.674520 0.000000 0.002790 
#    y 0.000000 1.666600 0.000000 
#    z 0.002790 0.000000 1.691850 
# 
# From -- ./inp_files/279023.got.cif
#   From: 2010.05.17/outbox.cif.g08.bks.cpg/sg15_140_cif.got.tgz:279023.got - 2010.06.03 18:47:42.
