data_PCOD9294148
_publ_section_title
;
Structure prediction by ZEFSAII (Michael W. Deem and Ramdas Pophale) SiO2 
 PCOD9294148
Probable space group: C 2/C
;
_chemical_formula_sum "Si O2"
_cell_formula_units_Z 48
_cell_length_a 28.010431
_cell_length_b 5.283382
_cell_length_c 14.627114
_cell_angle_alpha 90.000000
_cell_angle_beta 121.228287
_cell_angle_gamma 90.000000
_cell_volume 1851.022191
_symmetry_space_group_name_H-M "C 2/C"
_symmetry_group_IT_number 15
_symmetry_cell_setting 'monoclinic'
loop_
_space_group_symop_operation_xyz
x,y,z
-x,y,1/2-z
-x,-y,-z
x,-y,1/2+z
1/2+x,1/2+y,z
1/2-x,1/2+y,1/2-z
1/2-x,1/2-y,-z
1/2+x,1/2-y,1/2+z
loop_
_atom_site_type_symbol
_atom_site_label
_atom_site_fract_x
_atom_site_fract_y
_atom_site_fract_z
Si Si1 0.798105 0.081240 0.616310
Si Si2 0.075236 0.092901 0.509524
Si Si3 0.319569 0.918240 0.469238
Si Si4 0.038309 0.319046 0.119882
Si Si5 0.101218 0.805930 0.848795
Si Si6 0.349928 0.917213 0.813648
O O1 0.740712 0.942183 0.582845
O O2 0.803440 0.180556 0.517335
O O3 0.808818 0.316960 0.695496
O O4 0.851782 0.902552 0.675078
O O5 0.084250 0.007894 0.414554
O O6 0.134480 0.183186 0.605399
O O7 0.028968 0.323732 0.458332
O O8 0.053888 0.881844 0.556928
O O9 0.369378 0.069078 0.570049
O O10 0.330926 0.884927 0.372627
O O11 0.048166 0.228265 0.232606
O O12 0.088556 0.523539 0.166255
#
# Coordination Sequence:
#
# PCOD9294148 Si02
#       6
#     8   8   8   8   8   8
#     4  11  22  42  63  90 124 161 208 251 313 372
#     4  10  23  39  61  91 123 163 207 251 306 373
#     4  10  24  41  61  90 124 161 207 256 309 373
#     4  11  21  39  64  89 124 160 203 257 308 367
#     4  11  21  40  64  88 124 162 203 254 310 368
#     4  11  22  41  63  92 124 161 206 257 314 369
#
# _framework density 25.931616000000002
#
# number of rings (size 3 to 8) (size 9 to 14) (size 15 to 20)
#    0.000    1.333    3.333    2.500    0.000    1.333 
#   12.000    0.000    0.000    0.000    0.000    0.000 
#    0.000    0.000    0.000    0.000    0.000    0.000 
#
# Total GULP energy -133839.517195 kJ/mol
# GULP energy per Si atom -5576.646550 kJ/mol
# Density = 2.587259 g / cm^3
# Si number density = 25.931616 Si / 1000 Ang^3
#
#
#
# Elastic Constant Matrix: (Units=GPa)
#
#
# Indices 1 2 3 4 5 6 
#
# 1 125.0907 6.6231 40.1212 0.0000 -6.4509 0.0000
# 2 6.6231 47.1281 14.2330 0.0001 1.6961 0.0002
# 3 40.1212 14.2330 155.5885 0.0000 -7.9308 0.0000
# 4 0.0000 0.0001 0.0000 13.3030 0.0000 1.7686
# 5 -6.4509 1.6961 -7.9308 0.0000 47.7432 0.0000
# 6 0.0000 0.0002 0.0000 1.7686 0.0000 23.5433
#
#
#
# Elastic Compliance Matrix: (Units=1/GPa)
#
#
# Indices 1 2 3 4 5 6 
#
# 1 0.008763 -0.000609 -0.002161 0.000000 0.000847 0.000000
# 2 -0.000609 0.021923 -0.001908 0.000000 -0.001178 0.000000
# 3 -0.002161 -0.001908 0.007209 0.000000 0.000973 0.000000
# 4 0.000000 0.000000 0.000000 0.075929 0.000000 -0.005704
# 5 0.000847 -0.001178 0.000973 0.000000 0.021263 0.000000
# 6 0.000000 0.000000 0.000000 -0.005704 0.000000 0.042903
#
#
# Mechanical properties :
#
#
# Convention : Reuss Voigt Hill
#
# Bulk Modulus (GPa) = 35.04144 49.97355 42.50750
# Shear Modulus (GPa) = 25.39864 34.70656 30.05260
#
# Velocity S-wave (km/s) = 3.13301 3.66237 3.40798
# Velocity P-wave (km/s) = 5.16043 6.09894 5.64920
#
# Compressibility (1/GPa) = 0.02853764
#
# Stress axis : x y z
#
# Youngs Moduli (GPa) = 114.11364 45.61389 138.72303
#
# Poissons Ratio (x) = 0.02780 0.29976
# Poissons Ratio (y) = 0.06954 0.26474
# Poissons Ratio (z) = 0.24658 0.08705
#
# Static dielectric constant tensor:
#      x y z
#    x 2.151050 0.000000 -0.002200 
#    y 0.000000 2.286940 0.000000 
#    z -0.002200 0.000000 2.078200 
# 
# From -- ./inp_files/179958.got.cif
#   From: 2010.05.17/outbox.cif.g08.bks.cpg/sg15_90_cif.got.tgz:179958.got - 2010.06.03 18:47:42.
