data_PCOD9294373
_publ_section_title
;
Structure prediction by ZEFSAII (Michael W. Deem and Ramdas Pophale) SiO2 
 PCOD9294373
Probable space group: C 2/C
;
_chemical_formula_sum "Si O2"
_cell_formula_units_Z 40
_cell_length_a 15.352312
_cell_length_b 27.019915
_cell_length_c 5.186253
_cell_angle_alpha 90.000000
_cell_angle_beta 64.982759
_cell_angle_gamma 90.000000
_cell_volume 1949.513351
_symmetry_space_group_name_H-M "C 2/C"
_symmetry_group_IT_number 15
_symmetry_cell_setting 'monoclinic'
loop_
_space_group_symop_operation_xyz
x,y,z
-x,y,1/2-z
-x,-y,-z
x,-y,1/2+z
1/2+x,1/2+y,z
1/2-x,1/2+y,1/2-z
1/2-x,1/2-y,-z
1/2+x,1/2-y,1/2+z
loop_
_atom_site_type_symbol
_atom_site_label
_atom_site_fract_x
_atom_site_fract_y
_atom_site_fract_z
Si Si1 0.893801 0.662079 0.307519
Si Si2 0.103542 0.162840 0.127474
Si Si3 0.889748 0.980545 0.176976
Si Si4 0.358134 0.770725 0.346100
Si Si5 0.691894 0.378263 0.024612
O O1 0.888282 0.694678 0.050398
O O2 0.807306 0.622212 0.405477
O O3 0.000000 0.642814 0.250000
O O4 0.869922 0.698954 0.571324
O O5 0.167264 0.137260 0.265810
O O6 0.000000 0.136711 0.250000
O O7 0.087567 0.218793 0.237662
O O8 0.151554 0.160697 0.786575
O O9 0.866995 0.927421 0.325509
O O10 0.846608 0.017052 0.445908
O O11 0.000000 0.000000 0.000000
O O12 0.250000 0.750000 0.500000
#
# Coordination Sequence:
#
# PCOD9294373 Si02
#       5
#     8   8   8   8   8
#     4  12  24  41  66  88 127 176 219 266 310 372
#     4  12  25  36  60  91 129 169 207 260 305 382
#     4  10  23  40  63  88 121 163 193 256 336 406
#     4  12  22  43  59  89 133 176 214 261 318 352
#     4  12  24  41  62  92 124 161 215 260 313 386
#
# _framework density 20.517941
#
# number of rings (size 3 to 8) (size 9 to 14) (size 15 to 20)
#    0.000    0.400    4.000    5.400    8.400    0.000 
#    0.000    0.000    0.000    1.200    0.000    0.000 
#    0.000    0.000    0.000    0.000    0.000    0.000 
#
# Total GULP energy -111592.336351 kJ/mol
# GULP energy per Si atom -5579.616818 kJ/mol
# Density = 2.047124 g / cm^3
# Si number density = 20.517941 Si / 1000 Ang^3
#
#
#
# Elastic Constant Matrix: (Units=GPa)
#
#
# Indices 1 2 3 4 5 6 
#
# 1 137.5528 13.9011 19.0117 0.0000 -19.0521 0.0000
# 2 13.9011 71.9336 2.9398 0.0000 -0.9777 0.0000
# 3 19.0117 2.9398 74.1476 0.0000 26.1398 0.0000
# 4 0.0000 0.0000 0.0000 25.3962 0.0000 -7.9570
# 5 -19.0521 -0.9777 26.1398 0.0000 48.7737 0.0000
# 6 0.0000 0.0000 0.0000 -7.9570 0.0000 20.9674
#
#
#
# Elastic Compliance Matrix: (Units=1/GPa)
#
#
# Indices 1 2 3 4 5 6 
#
# 1 0.008775 -0.001448 -0.004181 0.000000 0.005639 0.000000
# 2 -0.001448 0.014183 -0.000113 0.000000 -0.000221 0.000000
# 3 -0.004181 -0.000113 0.018666 0.000000 -0.011639 0.000000
# 4 0.000000 0.000000 0.000000 0.044690 0.000000 0.016960
# 5 0.005639 -0.000221 -0.011639 0.000000 0.028939 0.000000
# 6 0.000000 0.000000 0.000000 0.016960 0.000000 0.054129
#
#
# Mechanical properties :
#
#
# Convention : Reuss Voigt Hill
#
# Bulk Modulus (GPa) = 33.17787 39.48214 36.33001
# Shear Modulus (GPa) = 26.18979 35.54621 30.86800
#
# Velocity S-wave (km/s) = 3.57660 4.16678 3.88292
# Velocity P-wave (km/s) = 5.76726 6.51413 6.15204
#
# Compressibility (1/GPa) = 0.03014057
#
# Stress axis : x y z
#
# Youngs Moduli (GPa) = 113.95727 70.50586 53.57229
#
# Poissons Ratio (x) = 0.10211 0.22397
# Poissons Ratio (y) = 0.16504 0.00606
# Poissons Ratio (z) = 0.47642 0.00798
#
# Static dielectric constant tensor:
#      x y z
#    x 1.982930 0.000000 -0.005790 
#    y 0.000000 1.781030 0.000000 
#    z -0.005790 0.000000 1.744000 
# 
# From -- ./inp_files/7933.got.cif
#   From: 2010.05.17/outbox.cif.g08.bks.cpg/sg15_4_cif.got.tgz:7933.got - 2010.06.03 18:47:42.
