data_PCOD9294957
_publ_section_title
;
Structure prediction by ZEFSAII (Michael W. Deem and Ramdas Pophale) SiO2 
 PCOD9294957
Probable space group: C 2/C
;
_chemical_formula_sum "Si O2"
_cell_formula_units_Z 52
_cell_length_a 8.072548
_cell_length_b 18.922136
_cell_length_c 16.235619
_cell_angle_alpha 90.000000
_cell_angle_beta 110.666178
_cell_angle_gamma 90.000000
_cell_volume 2320.407397
_symmetry_space_group_name_H-M "C 2/C"
_symmetry_group_IT_number 15
_symmetry_cell_setting 'monoclinic'
loop_
_space_group_symop_operation_xyz
x,y,z
-x,y,1/2-z
-x,-y,-z
x,-y,1/2+z
1/2+x,1/2+y,z
1/2-x,1/2+y,1/2-z
1/2-x,1/2-y,-z
1/2+x,1/2-y,1/2+z
loop_
_atom_site_type_symbol
_atom_site_label
_atom_site_fract_x
_atom_site_fract_y
_atom_site_fract_z
Si Si1 0.684405 0.041117 0.521286
Si Si2 0.500000 0.325881 0.250000
Si Si3 0.656254 0.687827 0.938381
Si Si4 0.327136 0.061060 0.174071
Si Si5 0.693030 0.104422 0.809069
Si Si6 0.448000 0.571832 0.146378
Si Si7 0.684095 0.329376 0.005101
O O1 0.723173 0.119667 0.561802
O O2 0.668639 0.054597 0.422047
O O3 0.500000 0.000000 0.500000
O O4 0.852847 0.995453 0.585244
O O5 0.409463 0.283631 0.160990
O O6 0.648757 0.368164 0.222419
O O7 0.499052 0.668266 0.974444
O O8 0.750000 0.750000 0.000000
O O9 0.500000 0.090053 0.250000
O O10 0.142114 0.098385 0.154981
O O11 0.304793 0.980106 0.200931
O O12 0.500000 0.131546 0.750000
O O13 0.705448 0.125673 0.907964
O O14 0.500000 0.556172 0.250000
O O15 0.325250 0.633232 0.085978
O O16 0.750000 0.250000 0.000000
#
# Coordination Sequence:
#
# PCOD9294957 Si02
#       7
#     8   4   8   8   8   8   8
#     4  12  26  44  75 108 144 192 243 312 380 449
#     4  10  24  44  70 102 134 192 240 290 366 438
#     4  11  27  48  70 101 147 190 239 304 371 449
#     4  11  23  43  67 105 140 182 237 303 376 441
#     4  10  23  41  71 102 135 181 238 297 357 445
#     4  12  25  45  71 106 146 186 242 311 373 441
#     4  11  25  47  70  99 141 190 240 302 374 446
#
# _framework density 22.409858
#
# number of rings (size 3 to 8) (size 9 to 14) (size 15 to 20)
#    0.000    0.923    3.077    3.231   12.923    0.615 
#    4.154    0.000    0.000    0.000    0.000    0.000 
#    0.000    0.000    0.000    0.000    0.000    0.000 
#
# Total GULP energy -144776.001020 kJ/mol
# GULP energy per Si atom -5568.307732 kJ/mol
# Density = 2.235885 g / cm^3
# Si number density = 22.409858 Si / 1000 Ang^3
#
#
#
# Elastic Constant Matrix: (Units=GPa)
#
#
# Indices 1 2 3 4 5 6 
#
# 1 48.4941 -21.1546 23.2637 0.0000 16.1649 0.0000
# 2 -21.1546 72.8076 23.0531 0.0000 24.6484 0.0000
# 3 23.2637 23.0531 204.1521 0.0000 17.5563 0.0000
# 4 0.0000 0.0000 0.0000 26.6652 0.0000 6.9512
# 5 16.1649 24.6484 17.5563 0.0000 38.7758 0.0000
# 6 0.0000 0.0000 0.0000 6.9512 0.0000 54.8099
#
#
#
# Elastic Compliance Matrix: (Units=1/GPa)
#
#
# Indices 1 2 3 4 5 6 
#
# 1 0.045752 0.026272 -0.005311 0.000000 -0.033369 0.000000
# 2 0.026272 0.032810 -0.004124 0.000000 -0.029941 0.000000
# 3 -0.005311 -0.004124 0.005778 0.000000 0.002219 0.000000
# 4 0.000000 0.000000 0.000000 0.038784 0.000000 -0.004919
# 5 -0.033369 -0.029941 0.002219 0.000000 0.057728 0.000000
# 6 0.000000 0.000000 0.000000 -0.004919 0.000000 0.018869
#
#
# Mechanical properties :
#
#
# Convention : Reuss Voigt Hill
#
# Bulk Modulus (GPa) = 8.47344 41.75313 25.11328
# Shear Modulus (GPa) = 24.34436 44.06961 34.20698
#
# Velocity S-wave (km/s) = 3.29952 4.43937 3.91119
# Velocity P-wave (km/s) = 4.27844 6.70443 5.62381
#
# Compressibility (1/GPa) = 0.11801589
#
# Stress axis : x y z
#
# Youngs Moduli (GPa) = 21.85673 30.47809 173.06074
#
# Poissons Ratio (x) = -0.80072 0.91907
# Poissons Ratio (y) = -0.57422 0.71369
# Poissons Ratio (z) = 0.11607 0.12569
#
# Static dielectric constant tensor:
#      x y z
#    x 2.338960 0.000000 -0.762800 
#    y 0.000000 1.805280 0.000000 
#    z -0.762800 0.000000 3.139160 
# 
# From -- ./inp_files/191105.got.cif
#   From: 2010.05.17/outbox.cif.g08.bks.cpg/sg15_96_cif.got.tgz:191105.got - 2010.06.03 18:47:42.
