data_PCOD9294587
_publ_section_title
;
Structure prediction by ZEFSAII (Michael W. Deem and Ramdas Pophale) SiO2 
 PCOD9294587
Probable space group: C 2/C
;
_chemical_formula_sum "Si O2"
_cell_formula_units_Z 52
_cell_length_a 8.678144
_cell_length_b 18.836355
_cell_length_c 22.211782
_cell_angle_alpha 90.000000
_cell_angle_beta 46.249691
_cell_angle_gamma 90.000000
_cell_volume 2622.774489
_symmetry_space_group_name_H-M "C 2/C"
_symmetry_group_IT_number 15
_symmetry_cell_setting 'monoclinic'
loop_
_space_group_symop_operation_xyz
x,y,z
-x,y,1/2-z
-x,-y,-z
x,-y,1/2+z
1/2+x,1/2+y,z
1/2-x,1/2+y,1/2-z
1/2-x,1/2-y,-z
1/2+x,1/2-y,1/2+z
loop_
_atom_site_type_symbol
_atom_site_label
_atom_site_fract_x
_atom_site_fract_y
_atom_site_fract_z
Si Si1 0.745495 0.989457 0.119383
Si Si2 0.101575 0.811045 0.622804
Si Si3 0.253962 0.046646 0.748896
Si Si4 0.500000 0.571197 0.250000
Si Si5 0.681090 0.711696 0.749628
Si Si6 0.011443 0.888618 0.525425
Si Si7 0.998375 0.229948 0.932818
O O1 0.841594 0.964569 0.157930
O O2 0.503979 0.965830 0.186537
O O3 0.836336 0.953340 0.034453
O O4 0.790341 0.073389 0.103005
O O5 0.093871 0.841377 0.557605
O O6 0.331181 0.778598 0.577527
O O7 0.062585 0.876313 0.678965
O O8 0.905943 0.754103 0.682241
O O9 0.214663 0.126503 0.736671
O O10 0.174137 0.983945 0.727528
O O11 0.500000 0.733116 0.750000
O O12 0.588175 0.725993 0.841108
O O13 0.002053 0.843400 0.467798
O O14 0.750000 0.250000 0.000000
#
# Coordination Sequence:
#
# PCOD9294587 Si02
#       7
#     8   8   8   4   8   8   8
#     4  10  23  40  72  96 135 179 228 279 355 418
#     4  12  26  46  72 100 141 185 238 294 350 418
#     4  11  23  44  69  99 138 185 228 284 342 428
#     4  12  24  44  70 102 136 176 242 290 342 412
#     4  12  25  45  72 102 138 188 237 285 352 426
#     4  11  23  44  66 103 134 178 228 290 354 413
#     4  12  26  43  66 101 141 178 231 293 355 411
#
# _framework density 19.826333999999999
#
# number of rings (size 3 to 8) (size 9 to 14) (size 15 to 20)
#    0.000    0.615    5.385    2.308    4.308    2.462 
#    0.000    0.769    0.000    0.000    0.000    0.000 
#    0.000    0.000    0.000    0.000    0.000    0.000 
#
# Total GULP energy -145082.123664 kJ/mol
# GULP energy per Si atom -5580.081679 kJ/mol
# Density = 1.978121 g / cm^3
# Si number density = 19.826334 Si / 1000 Ang^3
#
#
#
# Elastic Constant Matrix: (Units=GPa)
#
#
# Indices 1 2 3 4 5 6 
#
# 1 115.0890 49.6318 44.1211 0.0001 -3.0509 0.0002
# 2 49.6318 111.3715 31.9029 0.0002 -2.5751 0.0002
# 3 44.1211 31.9029 88.4122 0.0004 8.5507 0.0009
# 4 0.0001 0.0002 0.0004 34.0986 -0.0003 10.5998
# 5 -3.0509 -2.5751 8.5507 -0.0003 38.0451 -0.0003
# 6 0.0002 0.0002 0.0009 10.5998 -0.0003 36.9349
#
#
#
# Elastic Compliance Matrix: (Units=1/GPa)
#
#
# Indices 1 2 3 4 5 6 
#
# 1 0.012361 -0.004070 -0.004875 0.000000 0.001811 0.000000
# 2 -0.004070 0.011441 -0.002188 0.000000 0.000940 0.000000
# 3 -0.004875 -0.002188 0.014909 0.000000 -0.003890 0.000000
# 4 0.000000 0.000000 0.000000 0.032199 0.000000 -0.009241
# 5 0.001811 0.000940 -0.003890 0.000000 0.027368 0.000000
# 6 0.000000 0.000000 0.000000 -0.009241 0.000000 0.029727
#
#
# Mechanical properties :
#
#
# Convention : Reuss Voigt Hill
#
# Bulk Modulus (GPa) = 60.81008 62.90935 61.85971
# Shear Modulus (GPa) = 32.10179 34.43017 33.26598
#
# Velocity S-wave (km/s) = 4.02823 4.17176 4.10062
# Velocity P-wave (km/s) = 7.23695 7.41646 7.32725
#
# Compressibility (1/GPa) = 0.01644464
#
# Stress axis : x y z
#
# Youngs Moduli (GPa) = 80.89815 87.40194 67.07186
#
# Poissons Ratio (x) = 0.35575 0.32699
# Poissons Ratio (y) = 0.32928 0.14677
# Poissons Ratio (z) = 0.39439 0.19125
#
# Static dielectric constant tensor:
#      x y z
#    x 1.472940 0.000000 -0.009530 
#    y 0.000000 1.822440 0.000000 
#    z -0.009530 0.000000 1.765860 
# 
# From -- ./inp_files/190458.got.cif
#   From: 2010.05.17/outbox.cif.g08.bks.cpg/sg15_96_cif.got.tgz:190458.got - 2010.06.03 18:47:42.
