data_PCOD9294416
_publ_section_title
;
Structure prediction by ZEFSAII (Michael W. Deem and Ramdas Pophale) SiO2 
 PCOD9294416
Probable space group: C 2/C
;
_chemical_formula_sum "Si O2"
_cell_formula_units_Z 44
_cell_length_a 14.968653
_cell_length_b 23.468849
_cell_length_c 5.759599
_cell_angle_alpha 90.000000
_cell_angle_beta 68.906668
_cell_angle_gamma 90.000000
_cell_volume 1887.757798
_symmetry_space_group_name_H-M "C 2/C"
_symmetry_group_IT_number 15
_symmetry_cell_setting 'monoclinic'
loop_
_space_group_symop_operation_xyz
x,y,z
-x,y,1/2-z
-x,-y,-z
x,-y,1/2+z
1/2+x,1/2+y,z
1/2-x,1/2+y,1/2-z
1/2-x,1/2-y,-z
1/2+x,1/2-y,1/2+z
loop_
_atom_site_type_symbol
_atom_site_label
_atom_site_fract_x
_atom_site_fract_y
_atom_site_fract_z
Si Si1 0.289069 0.617624 0.359003
Si Si2 0.597336 0.855708 0.306890
Si Si3 0.000000 0.835734 0.250000
Si Si4 0.000000 0.103526 0.250000
Si Si5 0.500000 0.060646 0.250000
Si Si6 0.663694 0.266202 0.917753
Si Si7 0.700688 0.026889 0.175701
O O1 0.385932 0.585373 0.353380
O O2 0.252605 0.587989 0.156456
O O3 0.193046 0.617970 0.603505
O O4 0.312794 0.684354 0.290990
O O5 0.500000 0.855169 0.250000
O O6 0.566569 0.896942 0.541112
O O7 0.620941 0.790876 0.349504
O O8 0.999362 0.868939 0.492720
O O9 0.090255 0.795239 0.161190
O O10 0.584158 0.026652 0.300899
O O11 0.750000 0.250000 0.000000
O O12 0.728578 0.997559 0.397300
#
# Coordination Sequence:
#
# PCOD9294416 Si02
#       7
#     8   8   4   4   4   8   8
#     4  11  25  48  72 104 151 199 250 312 369 439
#     4  12  25  42  72 110 154 192 243 298 379 462
#     4  10  23  40  64  97 138 186 250 285 349 428
#     4  10  24  46  72  97 136 198 246 301 366 424
#     4  12  25  48  72 114 158 190 234 314 389 462
#     4  11  24  39  67 101 146 198 243 294 363 446
#     4  12  27  47  78 111 146 195 254 312 382 446
#
# _framework density 23.308074000000001
#
# number of rings (size 3 to 8) (size 9 to 14) (size 15 to 20)
#    0.000    0.727    1.818    4.909    7.636    4.364 
#    0.000    0.909    0.000    0.000    0.000    0.000 
#    0.000    0.000    0.000    0.000    0.000    0.000 
#
# Total GULP energy -122685.246807 kJ/mol
# GULP energy per Si atom -5576.602128 kJ/mol
# Density = 2.325502 g / cm^3
# Si number density = 23.308074 Si / 1000 Ang^3
#
#
#
# Elastic Constant Matrix: (Units=GPa)
#
#
# Indices 1 2 3 4 5 6 
#
# 1 188.3557 7.7855 47.8827 0.0000 2.9351 0.0000
# 2 7.7855 62.4467 36.1796 0.0000 4.6424 0.0000
# 3 47.8827 36.1796 122.6890 0.0000 -4.6950 0.0000
# 4 0.0000 0.0000 0.0000 -117.0622 0.0000 -93.9753
# 5 2.9351 4.6424 -4.6950 0.0000 48.7838 0.0000
# 6 0.0000 0.0000 0.0000 -93.9753 0.0000 -108.5307
#
#
#
# Elastic Compliance Matrix: (Units=1/GPa)
#
#
# Indices 1 2 3 4 5 6 
#
# 1 0.005943 0.000807 -0.002583 0.000000 -0.000683 0.000000
# 2 0.000807 0.019706 -0.006222 0.000000 -0.002523 0.000000
# 3 -0.002583 -0.006222 0.011063 0.000000 0.001812 0.000000
# 4 0.000000 0.000000 0.000000 -0.028019 0.000000 0.024261
# 5 -0.000683 -0.002523 0.001812 0.000000 0.020954 0.000000
# 6 0.000000 0.000000 0.000000 0.024261 0.000000 -0.030221
#
#
# Mechanical properties :
#
#
# Convention : Reuss Voigt Hill
#
# Bulk Modulus (GPa) = 48.27735 61.90966 55.09350
# Shear Modulus (GPa) = 223.92679 -16.58558 103.67061
#
# Velocity S-wave (km/s) = 9.81230 -2.67044 6.67645
# Velocity P-wave (km/s) = 12.21199 4.13652 9.11711
#
# Compressibility (1/GPa) = 0.02071365
#
# Stress axis : x y z
#
# Youngs Moduli (GPa) = 168.26060 50.74689 90.38973
#
# Poissons Ratio (x) = -0.04093 0.23352
# Poissons Ratio (y) = -0.13572 0.56243
# Poissons Ratio (z) = 0.43470 0.31576
#
# Static dielectric constant tensor:
#      x y z
#    x 1.963870 0.000000 0.060070 
#    y 0.000000 1.422640 0.000000 
#    z 0.060070 0.000000 1.927790 
# 
# From -- ./inp_files/7655.got.cif
#   From: 2010.05.17/outbox.cif.g08.bks.cpg/sg15_4_cif.got.tgz:7655.got - 2010.06.03 18:47:42.
