data_PCOD9294801
_publ_section_title
;
Structure prediction by ZEFSAII (Michael W. Deem and Ramdas Pophale) SiO2 
 PCOD9294801
Probable space group: C 2/C
;
_chemical_formula_sum "Si O2"
_cell_formula_units_Z 40
_cell_length_a 18.722229
_cell_length_b 5.590516
_cell_length_c 15.812790
_cell_angle_alpha 90.000000
_cell_angle_beta 70.798794
_cell_angle_gamma 90.000000
_cell_volume 1563.003244
_symmetry_space_group_name_H-M "C 2/C"
_symmetry_group_IT_number 15
_symmetry_cell_setting 'monoclinic'
loop_
_space_group_symop_operation_xyz
x,y,z
-x,y,1/2-z
-x,-y,-z
x,-y,1/2+z
1/2+x,1/2+y,z
1/2-x,1/2+y,1/2-z
1/2-x,1/2-y,-z
1/2+x,1/2-y,1/2+z
loop_
_atom_site_type_symbol
_atom_site_label
_atom_site_fract_x
_atom_site_fract_y
_atom_site_fract_z
Si Si1 0.454855 0.470561 0.848317
Si Si2 0.337234 0.824455 0.874565
Si Si3 0.780022 0.078558 0.197752
Si Si4 0.079853 0.582137 0.505722
Si Si5 0.596218 0.752691 0.825366
O O1 0.500000 0.364095 0.750000
O O2 0.369001 0.553767 0.863071
O O3 0.446150 0.315541 0.933704
O O4 0.507357 0.701151 0.848637
O O5 0.250786 0.879774 0.885714
O O6 0.377586 0.892244 0.768799
O O7 0.368883 0.944646 0.946144
O O8 0.754341 0.323693 0.253956
O O9 0.867527 0.013450 0.176301
O O10 0.122551 0.622376 0.400909
O O11 0.000000 0.500000 0.500000
#
# Coordination Sequence:
#
# PCOD9294801 Si02
#       5
#     8   8   8   8   8
#     4  10  23  41  66  96 139 179 236 292 363 418
#     4  10  24  44  67  97 139 182 234 292 357 424
#     4  10  24  46  73 103 143 195 241 290 365 437
#     4  12  25  38  70 104 139 182 244 297 358 427
#     4  10  23  45  65 102 137 185 233 295 363 423
#
# _framework density 25.591757999999999
#
# number of rings (size 3 to 8) (size 9 to 14) (size 15 to 20)
#    0.000    1.600    2.000    0.600   11.200    2.400 
#    0.000    1.000    0.000    0.000    0.000    0.000 
#    0.000    0.000    0.000    0.000    0.000    0.000 
#
# Total GULP energy -111437.813527 kJ/mol
# GULP energy per Si atom -5571.890676 kJ/mol
# Density = 2.553351 g / cm^3
# Si number density = 25.591758 Si / 1000 Ang^3
#
#
#
# Elastic Constant Matrix: (Units=GPa)
#
#
# Indices 1 2 3 4 5 6 
#
# 1 118.9406 23.0635 23.4436 0.0000 43.7878 0.0000
# 2 23.0635 55.8115 28.1690 -0.0001 14.7503 -0.0001
# 3 23.4436 28.1690 158.4495 0.0000 47.2879 0.0000
# 4 0.0000 -0.0001 0.0000 37.4986 0.0000 3.4712
# 5 43.7878 14.7503 47.2879 0.0000 51.1832 0.0000
# 6 0.0000 -0.0001 0.0000 3.4712 0.0000 48.7471
#
#
#
# Elastic Compliance Matrix: (Units=1/GPa)
#
#
# Indices 1 2 3 4 5 6 
#
# 1 0.013199 -0.003345 0.002380 0.000000 -0.012527 0.000000
# 2 -0.003345 0.020961 -0.003152 0.000000 -0.000267 0.000000
# 3 0.002380 -0.003152 0.009466 0.000000 -0.009874 0.000000
# 4 0.000000 0.000000 0.000000 0.026845 0.000000 -0.001912
# 5 -0.012527 -0.000267 -0.009874 0.000000 0.039454 0.000000
# 6 0.000000 0.000000 0.000000 -0.001912 0.000000 0.020650
#
#
# Mechanical properties :
#
#
# Convention : Reuss Voigt Hill
#
# Bulk Modulus (GPa) = 28.25411 53.61710 40.93561
# Shear Modulus (GPa) = 33.19944 44.72083 38.96013
#
# Velocity S-wave (km/s) = 3.60567 4.18481 3.90599
# Velocity P-wave (km/s) = 5.32905 6.65932 6.03098
#
# Compressibility (1/GPa) = 0.03539308
#
# Stress axis : x y z
#
# Youngs Moduli (GPa) = 75.76462 47.70747 105.64100
#
# Poissons Ratio (x) = 0.15958 -0.25147
# Poissons Ratio (y) = 0.25343 0.33296
# Poissons Ratio (z) = -0.18035 0.15037
#
# Static dielectric constant tensor:
#      x y z
#    x 2.121500 0.000000 -0.062180 
#    y 0.000000 2.063510 0.000000 
#    z -0.062180 0.000000 2.247590 
# 
# From -- ./inp_files/212604.got.cif
#   From: 2010.05.17/outbox.cif.g08.bks.cpg/sg15_107_cif.got.tgz:212604.got - 2010.06.03 18:47:42.
