data_PCOD9294713
_publ_section_title
;
Structure prediction by ZEFSAII (Michael W. Deem and Ramdas Pophale) SiO2 
 PCOD9294713
Probable space group: C 2/C
;
_chemical_formula_sum "Si O2"
_cell_formula_units_Z 48
_cell_length_a 27.932011
_cell_length_b 9.428578
_cell_length_c 15.181878
_cell_angle_alpha 90.000000
_cell_angle_beta 29.855735
_cell_angle_gamma 90.000000
_cell_volume 1990.418350
_symmetry_space_group_name_H-M "C 2/C"
_symmetry_group_IT_number 15
_symmetry_cell_setting 'monoclinic'
loop_
_space_group_symop_operation_xyz
x,y,z
-x,y,1/2-z
-x,-y,-z
x,-y,1/2+z
1/2+x,1/2+y,z
1/2-x,1/2+y,1/2-z
1/2-x,1/2-y,-z
1/2+x,1/2-y,1/2+z
loop_
_atom_site_type_symbol
_atom_site_label
_atom_site_fract_x
_atom_site_fract_y
_atom_site_fract_z
Si Si1 0.508404 0.679960 0.355607
Si Si2 0.666525 0.552661 0.618493
Si Si3 0.319545 0.474318 0.104738
Si Si4 0.945167 0.687060 0.139342
Si Si5 0.659956 0.239931 0.827596
Si Si6 0.850961 0.399500 0.340605
O O1 0.573645 0.547184 0.281613
O O2 0.419915 0.611900 0.444818
O O3 0.461409 0.758617 0.514349
O O4 0.584025 0.800102 0.200958
O O5 0.690573 0.541968 0.476277
O O6 0.635971 0.709669 0.692484
O O7 0.757254 0.482523 0.522324
O O8 0.322641 0.600950 0.169242
O O9 0.232396 0.366779 0.260285
O O10 0.914280 0.525739 0.198632
O O11 0.047593 0.708969 0.023568
O O12 0.676999 0.202447 0.697093
#
# Coordination Sequence:
#
# PCOD9294713 Si02
#       6
#     8   8   8   8   8   8
#     4  11  22  41  68  95 129 173 217 269 322 392
#     4  11  23  43  65  98 134 175 216 270 333 390
#     4  11  25  41  68  95 137 175 219 276 336 390
#     4  11  23  43  72  95 130 173 226 268 324 396
#     4  10  23  41  64  96 127 172 221 269 327 393
#     4  10  24  42  68  99 128 168 228 270 319 397
#
# _framework density 24.115532999999999
#
# number of rings (size 3 to 8) (size 9 to 14) (size 15 to 20)
#    0.000    1.333    1.667    4.000    9.333    0.000 
#    0.000    0.000    7.333    0.000    0.000    0.000 
#    0.000    0.000    0.000    0.000    0.000    0.000 
#
# Total GULP energy -134328.769544 kJ/mol
# GULP energy per Si atom -5597.032064 kJ/mol
# Density = 2.406065 g / cm^3
# Si number density = 24.115533 Si / 1000 Ang^3
#
#
#
# Elastic Constant Matrix: (Units=GPa)
#
#
# Indices 1 2 3 4 5 6 
#
# 1 60.6114 45.7783 34.9077 0.0000 -9.8616 0.0000
# 2 45.7783 154.9309 45.4009 -0.0001 -2.6425 0.0000
# 3 34.9077 45.4009 107.3874 0.0000 -21.5379 0.0000
# 4 0.0000 -0.0001 0.0000 63.3502 0.0000 -0.6768
# 5 -9.8616 -2.6425 -21.5379 0.0000 37.2695 0.0000
# 6 0.0000 0.0000 0.0000 -0.6768 0.0000 32.2289
#
#
#
# Elastic Compliance Matrix: (Units=1/GPa)
#
#
# Indices 1 2 3 4 5 6 
#
# 1 0.024039 -0.005646 -0.004787 0.000000 0.003194 0.000000
# 2 -0.005646 0.008763 -0.002312 0.000000 -0.002209 0.000000
# 3 -0.004787 -0.002312 0.013074 0.000000 0.006125 0.000000
# 4 0.000000 0.000000 0.000000 0.015789 0.000000 0.000332
# 5 0.003194 -0.002209 0.006125 0.000000 0.031060 0.000000
# 6 0.000000 0.000000 0.000000 0.000332 0.000000 0.031035
#
#
# Mechanical properties :
#
#
# Convention : Reuss Voigt Hill
#
# Bulk Modulus (GPa) = 49.05295 63.90036 56.47666
# Shear Modulus (GPa) = 32.04208 39.69258 35.86733
#
# Velocity S-wave (km/s) = 3.64908 4.06141 3.86075
# Velocity P-wave (km/s) = 6.17570 6.96768 6.58361
#
# Compressibility (1/GPa) = 0.02038613
#
# Stress axis : x y z
#
# Youngs Moduli (GPa) = 41.59874 114.12071 76.48692
#
# Poissons Ratio (x) = 0.64431 0.36612
# Poissons Ratio (y) = 0.23486 0.17687
# Poissons Ratio (z) = 0.19912 0.26390
#
# Static dielectric constant tensor:
#      x y z
#    x 1.973350 0.000000 0.002790 
#    y 0.000000 1.847630 0.000000 
#    z 0.002790 0.000000 2.001790 
# 
# From -- ./inp_files/224518.got.cif
#   From: 2010.05.17/outbox.cif.g08.bks.cpg/sg15_113_cif.got.tgz:224518.got - 2010.06.03 18:47:42.
