data_PCOD9294888
_publ_section_title
;
Structure prediction by ZEFSAII (Michael W. Deem and Ramdas Pophale) SiO2 
 PCOD9294888
Probable space group: C 2/C
;
_chemical_formula_sum "Si O2"
_cell_formula_units_Z 56
_cell_length_a 28.004602
_cell_length_b 5.237311
_cell_length_c 18.420542
_cell_angle_alpha 90.000000
_cell_angle_beta 69.146346
_cell_angle_gamma 90.000000
_cell_volume 2524.736744
_symmetry_space_group_name_H-M "C 2/C"
_symmetry_group_IT_number 15
_symmetry_cell_setting 'monoclinic'
loop_
_space_group_symop_operation_xyz
x,y,z
-x,y,1/2-z
-x,-y,-z
x,-y,1/2+z
1/2+x,1/2+y,z
1/2-x,1/2+y,1/2-z
1/2-x,1/2-y,-z
1/2+x,1/2-y,1/2+z
loop_
_atom_site_type_symbol
_atom_site_label
_atom_site_fract_x
_atom_site_fract_y
_atom_site_fract_z
Si Si1 0.886735 0.276138 0.268637
Si Si2 0.042540 0.710398 0.460197
Si Si3 0.943881 0.109021 0.952551
Si Si4 0.559421 0.733729 0.707732
Si Si5 0.288208 0.008793 0.400500
Si Si6 0.726075 0.995270 0.920694
Si Si7 0.626322 0.125701 0.886029
O O1 0.929293 0.495175 0.260638
O O2 0.839319 0.396629 0.338305
O O3 0.870882 0.246586 0.193371
O O4 0.906371 0.001422 0.283340
O O5 0.091844 0.624401 0.390904
O O6 0.000000 0.500000 0.500000
O O7 0.005774 0.886474 0.431300
O O8 0.063680 0.810616 0.526115
O O9 0.930745 0.233581 0.884260
O O10 0.909008 0.227388 0.035738
O O11 0.500000 0.669497 0.750000
O O12 0.291998 0.022593 0.485844
O O13 0.270173 0.290360 0.385616
O O14 0.245818 0.794380 0.403674
O O15 0.680031 0.059315 0.892025
#
# Coordination Sequence:
#
# PCOD9294888 Si02
#       7
#     8   8   8   8   8   8   8
#     4  12  28  45  68 101 144 177 227 288 343 408
#     4   9  21  38  65  95 129 170 231 279 327 401
#     4  10  23  41  68  93 136 185 228 276 336 411
#     4  12  28  45  70 100 141 186 231 280 339 405
#     4  10  23  45  66 100 130 172 223 280 342 402
#     4  10  23  42  72  95 130 173 227 278 335 415
#     4  11  25  40  69  99 135 180 226 281 345 405
#
# _framework density 22.180529
#
# number of rings (size 3 to 8) (size 9 to 14) (size 15 to 20)
#    0.000    1.429    0.000    3.000   16.000    2.286 
#    0.000    0.000    0.000    0.000    0.000    0.000 
#    0.000    0.000    0.000    0.000    0.000    0.000 
#
# Total GULP energy -156207.488288 kJ/mol
# GULP energy per Si atom -5578.838867 kJ/mol
# Density = 2.213004 g / cm^3
# Si number density = 22.180529 Si / 1000 Ang^3
#
#
#
# Elastic Constant Matrix: (Units=GPa)
#
#
# Indices 1 2 3 4 5 6 
#
# 1 84.8425 1.5319 25.0752 0.0000 10.5391 0.0000
# 2 1.5319 69.2165 10.8667 0.0002 15.4946 0.0000
# 3 25.0752 10.8667 78.0092 0.0000 9.8465 0.0000
# 4 0.0000 0.0002 0.0000 23.8292 0.0000 0.6345
# 5 10.5391 15.4946 9.8465 0.0000 38.2184 0.0000
# 6 0.0000 0.0000 0.0000 0.6345 0.0000 27.2026
#
#
#
# Elastic Compliance Matrix: (Units=1/GPa)
#
#
# Indices 1 2 3 4 5 6 
#
# 1 0.013343 0.001023 -0.004046 0.000000 -0.003052 0.000000
# 2 0.001023 0.016128 -0.001772 0.000000 -0.006364 0.000000
# 3 -0.004046 -0.001772 0.014610 0.000000 -0.001930 0.000000
# 4 0.000000 0.000000 0.000000 0.041991 0.000000 -0.000979
# 5 -0.003052 -0.006364 -0.001930 0.000000 0.030084 0.000000
# 6 0.000000 0.000000 0.000000 -0.000979 0.000000 0.036784
#
#
# Mechanical properties :
#
#
# Convention : Reuss Voigt Hill
#
# Bulk Modulus (GPa) = 28.99385 34.11287 31.55336
# Shear Modulus (GPa) = 28.73101 30.82299 29.77700
#
# Velocity S-wave (km/s) = 3.60297 3.73183 3.66797
# Velocity P-wave (km/s) = 5.51440 5.82939 5.67408
#
# Compressibility (1/GPa) = 0.03449007
#
# Stress axis : x y z
#
# Youngs Moduli (GPa) = 74.94545 62.00530 68.44588
#
# Poissons Ratio (x) = -0.06344 0.27695
# Poissons Ratio (y) = -0.07668 0.12130
# Poissons Ratio (z) = 0.30325 0.10988
#
# Static dielectric constant tensor:
#      x y z
#    x 1.840880 0.000000 0.015750 
#    y 0.000000 2.055120 0.000000 
#    z 0.015750 0.000000 1.863490 
# 
# From -- ./inp_files/221214.got.cif
#   From: 2010.05.17/outbox.cif.g08.bks.cpg/sg15_111_cif.got.tgz:221214.got - 2010.06.03 18:47:42.
