data_PCOD9294728
_publ_section_title
;
Structure prediction by ZEFSAII (Michael W. Deem and Ramdas Pophale) SiO2 
 PCOD9294728
Probable space group: C 2/C
;
_chemical_formula_sum "Si O2"
_cell_formula_units_Z 48
_cell_length_a 19.886531
_cell_length_b 17.685585
_cell_length_c 8.222468
_cell_angle_alpha 90.000000
_cell_angle_beta 55.601543
_cell_angle_gamma 90.000000
_cell_volume 2386.175341
_symmetry_space_group_name_H-M "C 2/C"
_symmetry_group_IT_number 15
_symmetry_cell_setting 'monoclinic'
loop_
_space_group_symop_operation_xyz
x,y,z
-x,y,1/2-z
-x,-y,-z
x,-y,1/2+z
1/2+x,1/2+y,z
1/2-x,1/2+y,1/2-z
1/2-x,1/2-y,-z
1/2+x,1/2-y,1/2+z
loop_
_atom_site_type_symbol
_atom_site_label
_atom_site_fract_x
_atom_site_fract_y
_atom_site_fract_z
Si Si1 0.829138 0.305077 0.862686
Si Si2 0.656878 0.552190 0.454444
Si Si3 0.419713 0.660174 0.150554
Si Si4 0.275845 0.410857 0.298507
Si Si5 0.500000 0.262288 0.250000
Si Si6 0.000000 0.032274 0.250000
Si Si7 0.677458 0.261777 0.469537
O O1 0.836360 0.298718 0.656203
O O2 0.914507 0.279468 0.826714
O O3 0.750000 0.250000 0.000000
O O4 0.803222 0.381325 0.993928
O O5 0.657785 0.627634 0.344537
O O6 0.720795 0.488420 0.309183
O O7 0.664608 0.573961 0.631580
O O8 0.567196 0.516184 0.565845
O O9 0.450172 0.588939 0.206818
O O10 0.398761 0.724910 0.307688
O O11 0.482906 0.688154 0.931880
O O12 0.305320 0.342152 0.144425
O O13 0.750000 0.250000 0.500000
#
# Coordination Sequence:
#
# PCOD9294728 Si02
#       7
#     8   8   8   8   4   4   8
#     4  10  23  41  65  90 128 173 219 274 323 379
#     4  12  23  36  57  90 129 176 204 267 322 398
#     4  12  23  35  57  89 132 166 215 262 328 391
#     4  11  22  41  59  89 125 165 220 257 325 383
#     4  12  25  42  66  98 132 177 222 274 326 388
#     4  12  23  34  50  90 134 173 206 254 326 394
#     4  11  21  40  61  90 126 175 225 267 317 384
#
# _framework density 20.115874000000002
#
# number of rings (size 3 to 8) (size 9 to 14) (size 15 to 20)
#    0.000    0.667    3.333    7.000    4.667    0.000 
#    0.000    0.000    0.000    1.000    0.000    0.000 
#    0.000    0.000    0.000    0.000    0.000    0.000 
#
# Total GULP energy -133871.169556 kJ/mol
# GULP energy per Si atom -5577.965398 kJ/mol
# Density = 2.007009 g / cm^3
# Si number density = 20.115874 Si / 1000 Ang^3
#
#
#
# Elastic Constant Matrix: (Units=GPa)
#
#
# Indices 1 2 3 4 5 6 
#
# 1 74.8094 8.0448 11.1559 0.0000 2.7969 0.0000
# 2 8.0448 44.9930 34.3515 0.0000 -6.9739 0.0000
# 3 11.1559 34.3515 123.1611 0.0000 12.1999 0.0000
# 4 0.0000 0.0000 0.0000 54.3000 0.0000 3.8058
# 5 2.7969 -6.9739 12.1999 0.0000 38.5222 0.0000
# 6 0.0000 0.0000 0.0000 3.8058 0.0000 21.9590
#
#
#
# Elastic Compliance Matrix: (Units=1/GPa)
#
#
# Indices 1 2 3 4 5 6 
#
# 1 0.013732 -0.002281 -0.000483 0.000000 -0.001257 0.000000
# 2 -0.002281 0.031123 -0.009342 0.000000 0.008759 0.000000
# 3 -0.000483 -0.009342 0.011287 0.000000 -0.005231 0.000000
# 4 0.000000 0.000000 0.000000 0.018643 0.000000 -0.003231
# 5 -0.001257 0.008759 -0.005231 0.000000 0.029293 0.000000
# 6 0.000000 0.000000 0.000000 -0.003231 0.000000 0.046099
#
#
# Mechanical properties :
#
#
# Convention : Reuss Voigt Hill
#
# Bulk Modulus (GPa) = 31.31864 38.89643 35.10754
# Shear Modulus (GPa) = 27.02237 35.58368 31.30303
#
# Velocity S-wave (km/s) = 3.66913 4.21043 3.94907
# Velocity P-wave (km/s) = 5.79249 6.55860 6.18741
#
# Compressibility (1/GPa) = 0.03192986
#
# Stress axis : x y z
#
# Youngs Moduli (GPa) = 72.82449 32.13012 88.59840
#
# Poissons Ratio (x) = 0.07330 0.04279
# Poissons Ratio (y) = 0.16613 0.82766
# Poissons Ratio (z) = 0.03517 0.30015
#
# Static dielectric constant tensor:
#      x y z
#    x 1.785370 0.000000 -0.002690 
#    y 0.000000 1.752400 0.000000 
#    z -0.002690 0.000000 1.754650 
# 
# From -- ./inp_files/56439.got.cif
#   From: 2010.05.17/outbox.cif.g08.bks.cpg/sg15_29_cif.got.tgz:56439.got - 2010.06.03 18:47:42.
