data_PCOD9294856
_publ_section_title
;
Structure prediction by ZEFSAII (Michael W. Deem and Ramdas Pophale) SiO2 
 PCOD9294856
Probable space group: C 2/C
;
_chemical_formula_sum "Si O2"
_cell_formula_units_Z 32
_cell_length_a 11.825861
_cell_length_b 8.338640
_cell_length_c 23.434473
_cell_angle_alpha 90.000000
_cell_angle_beta 30.153484
_cell_angle_gamma 90.000000
_cell_volume 1160.812363
_symmetry_space_group_name_H-M "C 2/C"
_symmetry_group_IT_number 15
_symmetry_cell_setting 'monoclinic'
loop_
_space_group_symop_operation_xyz
x,y,z
-x,y,1/2-z
-x,-y,-z
x,-y,1/2+z
1/2+x,1/2+y,z
1/2-x,1/2+y,1/2-z
1/2-x,1/2-y,-z
1/2+x,1/2-y,1/2+z
loop_
_atom_site_type_symbol
_atom_site_label
_atom_site_fract_x
_atom_site_fract_y
_atom_site_fract_z
Si Si1 0.946176 0.127371 0.400499
Si Si2 0.752001 0.334350 0.075149
Si Si3 0.402338 0.956983 0.737869
Si Si4 0.295091 0.072088 0.162067
O O1 0.146597 0.107534 0.358987
O O2 0.080926 0.160295 0.282442
O O3 0.750000 0.250000 0.500000
O O4 0.839558 0.953969 0.433873
O O5 0.580646 0.189091 0.154133
O O6 0.752529 0.442184 0.132167
O O7 0.013120 0.309851 0.945050
O O8 0.500000 0.046210 0.750000
O O9 0.378515 0.020050 0.683459
#
# Coordination Sequence:
#
# PCOD9294856 Si02
#       4
#     8   8   8   8
#     4  10  24  38  64 101 137 179 231 290 348 420
#     4  11  21  44  71  99 132 190 240 285 356 411
#     4  10  23  41  67  98 140 180 230 290 348 418
#     4   9  23  37  71 100 128 182 232 290 345 416
#
# _framework density 27.566904000000001
#
# number of rings (size 3 to 8) (size 9 to 14) (size 15 to 20)
#    1.500    0.500    0.000    3.000   10.500    0.000 
#    0.000    1.250    5.500    0.000    0.000    0.000 
#    0.000    0.000    0.000    0.000    0.000    0.000 
#
# Total GULP energy -89516.763981 kJ/mol
# GULP energy per Si atom -5594.797749 kJ/mol
# Density = 2.750416 g / cm^3
# Si number density = 27.566904 Si / 1000 Ang^3
#
#
#
# Elastic Constant Matrix: (Units=GPa)
#
#
# Indices 1 2 3 4 5 6 
#
# 1 187.0846 30.1903 26.2621 0.0000 1.9955 0.0001
# 2 30.1903 67.8049 22.7405 0.0000 1.2293 0.0001
# 3 26.2621 22.7405 213.4469 -0.0006 -14.2568 0.0001
# 4 0.0000 0.0000 -0.0006 32.3473 0.0000 11.5624
# 5 1.9955 1.2293 -14.2568 0.0000 43.2182 0.0000
# 6 0.0001 0.0001 0.0001 11.5624 0.0000 49.2468
#
#
#
# Elastic Compliance Matrix: (Units=1/GPa)
#
#
# Indices 1 2 3 4 5 6 
#
# 1 0.005807 -0.002418 -0.000481 0.000000 -0.000358 0.000000
# 2 -0.002418 0.016343 -0.001500 0.000000 -0.000848 0.000000
# 3 -0.000481 -0.001500 0.005019 0.000000 0.001721 0.000000
# 4 0.000000 0.000000 0.000000 0.033747 0.000000 -0.007923
# 5 -0.000358 -0.000848 0.001721 0.000000 0.023747 0.000000
# 6 0.000000 0.000000 0.000000 -0.007923 0.000000 0.022166
#
#
# Mechanical properties :
#
#
# Convention : Reuss Voigt Hill
#
# Bulk Modulus (GPa) = 54.43319 69.63579 62.03449
# Shear Modulus (GPa) = 41.06792 50.90536 45.98664
#
# Velocity S-wave (km/s) = 3.86392 4.30188 4.08877
# Velocity P-wave (km/s) = 6.30042 7.07039 6.69648
#
# Compressibility (1/GPa) = 0.01837114
#
# Stress axis : x y z
#
# Youngs Moduli (GPa) = 172.21697 61.18727 199.24574
#
# Poissons Ratio (x) = 0.14793 0.09579
# Poissons Ratio (y) = 0.41637 0.29895
# Poissons Ratio (z) = 0.08280 0.09180
#
# Static dielectric constant tensor:
#      x y z
#    x 2.191820 0.000000 0.003970 
#    y 0.000000 2.174660 0.000000 
#    z 0.003970 0.000000 2.196570 
# 
# From -- ./inp_files/268625.got.cif
#   From: 2010.05.17/outbox.cif.g08.bks.cpg/sg15_135_cif.got.tgz:268625.got - 2010.06.03 18:47:42.
