data_PCOD9294670
_publ_section_title
;
Structure prediction by ZEFSAII (Michael W. Deem and Ramdas Pophale) SiO2 
 PCOD9294670
Probable space group: C 2/C
;
_chemical_formula_sum "Si O2"
_cell_formula_units_Z 44
_cell_length_a 15.457546
_cell_length_b 13.711999
_cell_length_c 12.180645
_cell_angle_alpha 90.000000
_cell_angle_beta 120.416525
_cell_angle_gamma 90.000000
_cell_volume 2226.404549
_symmetry_space_group_name_H-M "C 2/C"
_symmetry_group_IT_number 15
_symmetry_cell_setting 'monoclinic'
loop_
_space_group_symop_operation_xyz
x,y,z
-x,y,1/2-z
-x,-y,-z
x,-y,1/2+z
1/2+x,1/2+y,z
1/2-x,1/2+y,1/2-z
1/2-x,1/2-y,-z
1/2+x,1/2-y,1/2+z
loop_
_atom_site_type_symbol
_atom_site_label
_atom_site_fract_x
_atom_site_fract_y
_atom_site_fract_z
Si Si1 0.410396 0.564100 0.889222
Si Si2 0.220150 0.499913 0.641368
Si Si3 0.834300 0.670346 0.043681
Si Si4 0.000000 0.804006 0.250000
Si Si5 0.109029 0.500650 0.266448
Si Si6 0.242195 0.141051 0.539163
O O1 0.316949 0.501407 0.782429
O O2 0.445368 0.627253 0.805459
O O3 0.500000 0.500000 0.000000
O O4 0.358300 0.626058 0.953445
O O5 0.190534 0.607529 0.579649
O O6 0.121805 0.471195 0.647840
O O7 0.248880 0.430321 0.559890
O O8 0.832627 0.587117 0.134701
O O9 0.934130 0.731793 0.131669
O O10 0.750000 0.750000 0.000000
O O11 0.165749 0.398654 0.326523
O O12 0.000000 0.497346 0.250000
O O13 0.250000 0.250000 0.500000
#
# Coordination Sequence:
#
# PCOD9294670 Si02
#       6
#     8   8   8   4   8   8
#     4  11  24  43  65 100 130 175 222 269 336 397
#     4  10  23  43  67  87 140 169 207 285 324 385
#     4  11  23  41  65  97 126 171 225 269 324 395
#     4  12  24  40  74  94 130 174 230 266 332 400
#     4  10  23  41  63  94 128 169 218 270 331 391
#     4  10  24  42  63  93 131 173 215 268 335 388
#
# _framework density 19.762805
#
# number of rings (size 3 to 8) (size 9 to 14) (size 15 to 20)
#    0.000    1.455    2.727    1.091    7.636    4.364 
#    3.273    0.000    0.000    0.000    0.000    0.000 
#    0.000    0.000    0.000    0.000    0.000    0.000 
#
# Total GULP energy -122529.808741 kJ/mol
# GULP energy per Si atom -5569.536761 kJ/mol
# Density = 1.971782 g / cm^3
# Si number density = 19.762805 Si / 1000 Ang^3
#
#
#
# Elastic Constant Matrix: (Units=GPa)
#
#
# Indices 1 2 3 4 5 6 
#
# 1 149.4402 59.2897 54.0693 0.0000 -26.2726 0.0000
# 2 59.2897 103.3742 25.3263 0.0000 -8.5824 0.0000
# 3 54.0693 25.3263 78.3756 0.0000 -5.7602 0.0000
# 4 0.0000 0.0000 0.0000 36.1990 0.0000 3.3780
# 5 -26.2726 -8.5824 -5.7602 0.0000 43.7164 0.0000
# 6 0.0000 0.0000 0.0000 3.3780 0.0000 28.9851
#
#
#
# Elastic Compliance Matrix: (Units=1/GPa)
#
#
# Indices 1 2 3 4 5 6 
#
# 1 0.011761 -0.004791 -0.006175 0.000000 0.005314 0.000000
# 2 -0.004791 0.012574 -0.000796 0.000000 -0.000516 0.000000
# 3 -0.006175 -0.000796 0.017158 0.000000 -0.001606 0.000000
# 4 0.000000 0.000000 0.000000 0.027929 0.000000 -0.003255
# 5 0.005314 -0.000516 -0.001606 0.000000 0.025755 0.000000
# 6 0.000000 0.000000 0.000000 -0.003255 0.000000 0.034880
#
#
# Mechanical properties :
#
#
# Convention : Reuss Voigt Hill
#
# Bulk Modulus (GPa) = 55.65075 67.61783 61.63429
# Shear Modulus (GPa) = 31.33431 34.61375 32.97403
#
# Velocity S-wave (km/s) = 3.98618 4.18958 4.08915
# Velocity P-wave (km/s) = 7.02898 7.59555 7.31775
#
# Compressibility (1/GPa) = 0.01796921
#
# Stress axis : x y z
#
# Youngs Moduli (GPa) = 85.02749 79.53063 58.28237
#
# Poissons Ratio (x) = 0.38107 0.35988
# Poissons Ratio (y) = 0.40741 0.04636
# Poissons Ratio (z) = 0.52502 0.06327
#
# Static dielectric constant tensor:
#      x y z
#    x 1.825210 0.000000 0.108560 
#    y 0.000000 1.801830 0.000000 
#    z 0.108560 0.000000 1.967970 
# 
# From -- ./inp_files/104354.got.cif
#   From: 2010.05.17/outbox.cif.g08.bks.cpg/sg15_53_cif.got.tgz:104354.got - 2010.06.03 18:47:42.
