data_PCOD9294681
_publ_section_title
;
Structure prediction by ZEFSAII (Michael W. Deem and Ramdas Pophale) SiO2 
 PCOD9294681
Probable space group: C 2/C
;
_chemical_formula_sum "Si O2"
_cell_formula_units_Z 40
_cell_length_a 26.441486
_cell_length_b 10.560939
_cell_length_c 12.268855
_cell_angle_alpha 90.000000
_cell_angle_beta 25.863731
_cell_angle_gamma 90.000000
_cell_volume 1494.549193
_symmetry_space_group_name_H-M "C 2/C"
_symmetry_group_IT_number 15
_symmetry_cell_setting 'monoclinic'
loop_
_space_group_symop_operation_xyz
x,y,z
-x,y,1/2-z
-x,-y,-z
x,-y,1/2+z
1/2+x,1/2+y,z
1/2-x,1/2+y,1/2-z
1/2-x,1/2-y,-z
1/2+x,1/2-y,1/2+z
loop_
_atom_site_type_symbol
_atom_site_label
_atom_site_fract_x
_atom_site_fract_y
_atom_site_fract_z
Si Si1 0.267567 0.671483 0.821010
Si Si2 0.366435 0.594461 0.853456
Si Si3 0.469070 0.026478 0.191704
Si Si4 0.413404 0.277728 0.590789
Si Si5 0.335473 0.689861 0.459620
O O1 0.341634 0.656455 0.785046
O O2 0.350741 0.665680 0.556445
O O3 0.203353 0.807468 0.936935
O O4 0.165505 0.567181 0.033269
O O5 0.504770 0.606159 0.601743
O O6 0.318552 0.454011 0.950092
O O7 0.500000 0.956252 0.250000
O O8 0.542317 0.156048 0.058238
O O9 0.500000 0.000000 0.000000
O O10 0.277155 0.278321 0.835136
O O11 0.424793 0.255510 0.699626
#
# Coordination Sequence:
#
# PCOD9294681 Si02
#       5
#     8   8   8   8   8
#     4  10  23  41  63  98 138 179 242 303 360 444
#     4  10  23  43  64  97 143 177 233 307 363 429
#     4  11  22  42  67 101 139 188 245 305 372 436
#     4  10  23  42  63 101 136 177 242 294 357 442
#     4  11  22  42  71  97 133 191 238 292 379 445
#
# _framework density 26.763923999999999
#
# number of rings (size 3 to 8) (size 9 to 14) (size 15 to 20)
#    0.000    1.600    2.000    1.800    0.000    5.600 
#    7.200    2.000    0.000    0.000    0.000    0.000 
#    0.000    0.000    0.000    0.000    0.000    0.000 
#
# Total GULP energy -111574.490916 kJ/mol
# GULP energy per Si atom -5578.724546 kJ/mol
# Density = 2.670301 g / cm^3
# Si number density = 26.763924 Si / 1000 Ang^3
#
#
#
# Elastic Constant Matrix: (Units=GPa)
#
#
# Indices 1 2 3 4 5 6 
#
# 1 107.1700 21.0269 63.0635 0.0000 49.5921 0.0000
# 2 21.0269 102.9849 41.1842 0.0000 1.7276 0.0000
# 3 63.0635 41.1842 122.0816 0.0000 35.3913 0.0000
# 4 0.0000 0.0000 0.0000 23.1414 0.0000 0.5283
# 5 49.5921 1.7276 35.3913 0.0000 73.7973 0.0000
# 6 0.0000 0.0000 0.0000 0.5283 0.0000 21.1561
#
#
#
# Elastic Compliance Matrix: (Units=1/GPa)
#
#
# Indices 1 2 3 4 5 6 
#
# 1 0.016977 -0.000929 -0.005988 0.000000 -0.008515 0.000000
# 2 -0.000929 0.011486 -0.004063 0.000000 0.002304 0.000000
# 3 -0.005988 -0.004063 0.013312 0.000000 -0.002265 0.000000
# 4 0.000000 0.000000 0.000000 0.043237 0.000000 -0.001080
# 5 -0.008515 0.002304 -0.002265 0.000000 0.020305 0.000000
# 6 0.000000 0.000000 0.000000 -0.001080 0.000000 0.047295
#
#
# Mechanical properties :
#
#
# Convention : Reuss Voigt Hill
#
# Bulk Modulus (GPa) = 50.46559 64.75397 57.60978
# Shear Modulus (GPa) = 27.59745 37.41642 32.50693
#
# Velocity S-wave (km/s) = 3.21463 3.74306 3.48886
# Velocity P-wave (km/s) = 5.71622 6.55192 6.14829
#
# Compressibility (1/GPa) = 0.01981548
#
# Stress axis : x y z
#
# Youngs Moduli (GPa) = 58.90251 87.06337 75.12247
#
# Poissons Ratio (x) = 0.08087 0.44983
# Poissons Ratio (y) = 0.05471 0.30521
# Poissons Ratio (z) = 0.35271 0.35372
#
# Static dielectric constant tensor:
#      x y z
#    x 2.241530 0.000000 0.064750 
#    y 0.000000 2.116230 0.000000 
#    z 0.064750 0.000000 2.170440 
# 
# From -- ./inp_files/122772.got.cif
#   From: 2010.05.17/outbox.cif.g08.bks.cpg/sg15_62_cif.got.tgz:122772.got - 2010.06.03 18:47:42.
