data_PCOD9294776
_publ_section_title
;
Structure prediction by ZEFSAII (Michael W. Deem and Ramdas Pophale) SiO2 
 PCOD9294776
Probable space group: C 2/C
;
_chemical_formula_sum "Si O2"
_cell_formula_units_Z 48
_cell_length_a 8.396724
_cell_length_b 11.112490
_cell_length_c 23.101952
_cell_angle_alpha 90.000000
_cell_angle_beta 90.370365
_cell_angle_gamma 90.000000
_cell_volume 2155.563718
_symmetry_space_group_name_H-M "C 2/C"
_symmetry_group_IT_number 15
_symmetry_cell_setting 'monoclinic'
loop_
_space_group_symop_operation_xyz
x,y,z
-x,y,1/2-z
-x,-y,-z
x,-y,1/2+z
1/2+x,1/2+y,z
1/2-x,1/2+y,1/2-z
1/2-x,1/2-y,-z
1/2+x,1/2-y,1/2+z
loop_
_atom_site_type_symbol
_atom_site_label
_atom_site_fract_x
_atom_site_fract_y
_atom_site_fract_z
Si Si1 0.151067 0.582555 0.515524
Si Si2 0.915461 0.019124 0.422911
Si Si3 0.746956 0.595120 0.394060
Si Si4 0.074104 0.762637 0.027172
Si Si5 0.314266 0.701695 0.231978
Si Si6 0.661299 0.466054 0.211100
O O1 0.270801 0.561768 0.462538
O O2 0.206267 0.535859 0.578973
O O3 0.000000 0.500000 0.500000
O O4 0.070511 0.710958 0.509976
O O5 0.964324 0.895135 0.453396
O O6 0.871799 0.979941 0.357375
O O7 0.068454 0.105783 0.420170
O O8 0.888914 0.680660 0.416347
O O9 0.715336 0.632732 0.328653
O O10 0.250000 0.750000 0.000000
O O11 0.500000 0.718831 0.250000
O O12 0.252205 0.594646 0.274470
O O13 0.242712 0.837067 0.226427
O O14 0.500000 0.466395 0.250000
#
# Coordination Sequence:
#
# PCOD9294776 Si02
#       6
#     8   8   8   8   8   8
#     4  10  23  41  66 104 134 172 223 272 350 418
#     4  12  22  44  70  92 141 182 215 290 343 415
#     4  11  22  44  68  97 138 174 226 281 344 413
#     4  11  23  43  66  99 142 174 223 284 343 417
#     4  11  24  49  68 100 137 182 233 292 339 405
#     4  11  25  47  70  99 139 179 239 288 344 405
#
# _framework density 22.267956999999999
#
# number of rings (size 3 to 8) (size 9 to 14) (size 15 to 20)
#    0.000    1.000    8.333    0.500    0.000    2.667 
#    9.000    0.000    0.000    0.000    0.000    0.000 
#    0.000    0.000    0.000    0.000    0.000    0.000 
#
# Total GULP energy -133643.288901 kJ/mol
# GULP energy per Si atom -5568.470371 kJ/mol
# Density = 2.221727 g / cm^3
# Si number density = 22.267957 Si / 1000 Ang^3
#
#
#
# Elastic Constant Matrix: (Units=GPa)
#
#
# Indices 1 2 3 4 5 6 
#
# 1 92.8441 55.0144 27.3960 0.0000 15.0029 0.0000
# 2 55.0144 155.7652 47.6791 0.0000 7.8123 0.0000
# 3 27.3960 47.6791 91.3083 0.0000 24.5713 0.0000
# 4 0.0000 0.0000 0.0000 16.7010 0.0000 13.8420
# 5 15.0029 7.8123 24.5713 0.0000 28.0166 0.0000
# 6 0.0000 0.0000 0.0000 13.8420 0.0000 54.2799
#
#
#
# Elastic Compliance Matrix: (Units=1/GPa)
#
#
# Indices 1 2 3 4 5 6 
#
# 1 0.014711 -0.004820 -0.000181 0.000000 -0.006374 0.000000
# 2 -0.004820 0.009290 -0.004453 0.000000 0.003897 0.000000
# 3 -0.000181 -0.004453 0.016979 0.000000 -0.013552 0.000000
# 4 0.000000 0.000000 0.000000 0.075923 0.000000 -0.019361
# 5 -0.006374 0.003897 -0.013552 0.000000 0.049905 0.000000
# 6 0.000000 0.000000 0.000000 -0.019361 0.000000 0.023360
#
#
# Mechanical properties :
#
#
# Convention : Reuss Voigt Hill
#
# Bulk Modulus (GPa) = 45.31201 66.67743 55.99472
# Shear Modulus (GPa) = 23.10162 33.78804 28.44483
#
# Velocity S-wave (km/s) = 3.22442 3.89953 3.57793
# Velocity P-wave (km/s) = 5.85280 7.09107 6.50148
#
# Compressibility (1/GPa) = 0.02206920
#
# Stress axis : x y z
#
# Youngs Moduli (GPa) = 67.97821 107.64077 58.89781
#
# Poissons Ratio (x) = 0.51887 0.01068
# Poissons Ratio (y) = 0.32768 0.26229
# Poissons Ratio (z) = 0.01232 0.47936
#
# Static dielectric constant tensor:
#      x y z
#    x 1.884210 0.000000 0.030940 
#    y 0.000000 2.017180 0.000000 
#    z 0.030940 0.000000 1.962380 
# 
# From -- ./inp_files/263179.got.cif
#   From: 2010.05.17/outbox.cif.g08.bks.cpg/sg15_132_cif.got.tgz:263179.got - 2010.06.03 18:47:42.
