data_PCOD9294100
_publ_section_title
;
Structure prediction by ZEFSAII (Michael W. Deem and Ramdas Pophale) SiO2 
 PCOD9294100
Probable space group: C 2/C
;
_chemical_formula_sum "Si O2"
_cell_formula_units_Z 56
_cell_length_a 7.839287
_cell_length_b 18.716204
_cell_length_c 21.182921
_cell_angle_alpha 90.000000
_cell_angle_beta 51.357277
_cell_angle_gamma 90.000000
_cell_volume 2427.514478
_symmetry_space_group_name_H-M "C 2/C"
_symmetry_group_IT_number 15
_symmetry_cell_setting 'monoclinic'
loop_
_space_group_symop_operation_xyz
x,y,z
-x,y,1/2-z
-x,-y,-z
x,-y,1/2+z
1/2+x,1/2+y,z
1/2-x,1/2+y,1/2-z
1/2-x,1/2-y,-z
1/2+x,1/2-y,1/2+z
loop_
_atom_site_type_symbol
_atom_site_label
_atom_site_fract_x
_atom_site_fract_y
_atom_site_fract_z
Si Si1 0.151661 0.986488 0.568391
Si Si2 0.734283 0.044186 0.587475
Si Si3 0.500000 0.018740 0.250000
Si Si4 0.143922 0.126586 0.652648
Si Si5 0.614854 0.306080 0.403936
Si Si6 0.012377 0.256693 0.448038
Si Si7 0.500000 0.272524 0.750000
Si Si8 0.119586 0.866941 0.831047
O O1 0.316820 0.981538 0.471414
O O2 0.108797 0.910351 0.610768
O O3 0.178899 0.049016 0.612566
O O4 0.931001 0.001870 0.577747
O O5 0.826227 0.124092 0.568408
O O6 0.534419 0.031108 0.681121
O O7 0.698523 0.072718 0.213398
O O8 0.367967 0.172338 0.605281
O O9 0.000000 0.123002 0.750000
O O10 0.005165 0.168938 0.631553
O O11 0.474967 0.253132 0.479537
O O12 0.842504 0.272374 0.330482
O O13 0.750000 0.250000 0.500000
O O14 0.125315 0.189404 0.386898
O O15 0.639951 0.321743 0.763341
#
# Coordination Sequence:
#
# PCOD9294100 Si02
#       8
#     8   8   4   8   8   8   4   8
#     4   9  20  41  67  94 134 176 223 292 348 424
#     4   9  18  40  66  99 125 171 228 283 351 419
#     4  10  23  38  72  97 128 174 236 294 344 427
#     4  11  26  44  71 106 140 186 248 297 356 437
#     4  11  23  43  72 100 136 188 235 291 363 435
#     4  12  25  47  68 100 146 188 236 301 370 432
#     4  12  25  38  64  99 140 174 226 290 360 409
#     4  11  24  43  65  97 140 182 229 299 356 431
#
# _framework density 23.068863
#
# number of rings (size 3 to 8) (size 9 to 14) (size 15 to 20)
#    0.000    1.429    2.857    1.714    6.000    1.143 
#    0.000    0.714    0.000    0.000    0.000    0.000 
#    0.000    0.000    0.000    0.000    0.000    0.000 
#
# Total GULP energy -156409.256679 kJ/mol
# GULP energy per Si atom -5586.044881 kJ/mol
# Density = 2.301636 g / cm^3
# Si number density = 23.068863 Si / 1000 Ang^3
#
#
#
# Elastic Constant Matrix: (Units=GPa)
#
#
# Indices 1 2 3 4 5 6 
#
# 1 60.1939 -2.8761 18.3036 0.0000 3.7459 0.0001
# 2 -2.8761 46.9735 18.9659 0.0000 6.8144 0.0000
# 3 18.3036 18.9659 156.2775 0.0000 23.7289 0.0000
# 4 0.0000 0.0000 0.0000 48.0778 0.0000 1.4099
# 5 3.7459 6.8144 23.7289 0.0000 27.0659 0.0000
# 6 0.0001 0.0000 0.0000 1.4099 0.0000 22.2197
#
#
#
# Elastic Compliance Matrix: (Units=1/GPa)
#
#
# Indices 1 2 3 4 5 6 
#
# 1 0.017427 0.002083 -0.002132 0.000000 -0.001067 0.000000
# 2 0.002083 0.022970 -0.002434 0.000000 -0.003938 0.000000
# 3 -0.002132 -0.002434 0.007851 0.000000 -0.005975 0.000000
# 4 0.000000 0.000000 0.000000 0.020838 0.000000 -0.001322
# 5 -0.001067 -0.003938 -0.005975 0.000000 0.043325 0.000000
# 6 0.000000 0.000000 0.000000 -0.001322 0.000000 0.045089
#
#
# Mechanical properties :
#
#
# Convention : Reuss Voigt Hill
#
# Bulk Modulus (GPa) = 23.10397 36.91463 30.00930
# Shear Modulus (GPa) = 28.26554 34.74277 31.50416
#
# Velocity S-wave (km/s) = 3.50418 3.88499 3.69949
# Velocity P-wave (km/s) = 5.13900 6.01339 5.59331
#
# Compressibility (1/GPa) = 0.04328260
#
# Stress axis : x y z
#
# Youngs Moduli (GPa) = 57.38174 43.53510 127.36901
#
# Poissons Ratio (x) = -0.09067 0.27152
# Poissons Ratio (y) = -0.11950 0.30997
# Poissons Ratio (z) = 0.12233 0.10595
#
# Static dielectric constant tensor:
#      x y z
#    x 1.927570 0.000000 0.018450 
#    y 0.000000 1.834150 0.000000 
#    z 0.018450 0.000000 1.830470 
# 
# From -- ./inp_files/233791.got.cif
#   From: 2010.05.17/outbox.cif.g08.bks.cpg/sg15_117_cif.got.tgz:233791.got - 2010.06.03 18:47:42.
