data_PCOD9294490
_publ_section_title
;
Structure prediction by ZEFSAII (Michael W. Deem and Ramdas Pophale) SiO2 
 PCOD9294490
Probable space group: C 2/C
;
_chemical_formula_sum "Si O2"
_cell_formula_units_Z 36
_cell_length_a 9.079382
_cell_length_b 17.967892
_cell_length_c 15.506485
_cell_angle_alpha 90.000000
_cell_angle_beta 141.359149
_cell_angle_gamma 90.000000
_cell_volume 1579.629246
_symmetry_space_group_name_H-M "C 2/C"
_symmetry_group_IT_number 15
_symmetry_cell_setting 'monoclinic'
loop_
_space_group_symop_operation_xyz
x,y,z
-x,y,1/2-z
-x,-y,-z
x,-y,1/2+z
1/2+x,1/2+y,z
1/2-x,1/2+y,1/2-z
1/2-x,1/2-y,-z
1/2+x,1/2-y,1/2+z
loop_
_atom_site_type_symbol
_atom_site_label
_atom_site_fract_x
_atom_site_fract_y
_atom_site_fract_z
Si Si1 0.895709 0.332745 0.306980
Si Si2 0.753335 0.799139 0.087082
Si Si3 0.930026 0.922404 0.064411
Si Si4 0.000000 0.800628 0.750000
Si Si5 0.398363 0.598586 0.038294
O O1 0.930559 0.298338 0.418932
O O2 0.686114 0.392637 0.212516
O O3 0.830861 0.261618 0.218133
O O4 0.137385 0.373757 0.392742
O O5 0.000000 0.784518 0.250000
O O6 0.749925 0.881785 0.045002
O O7 0.750000 0.750000 0.000000
O O8 0.925174 0.893810 0.962815
O O9 0.901263 0.010264 0.055742
O O10 0.951848 0.854499 0.647749
#
# Coordination Sequence:
#
# PCOD9294490 Si02
#       5
#     8   8   8   4   8
#     4  11  23  42  70  95 135 176 223 277 340 400
#     4  10  23  40  66  97 140 178 224 283 341 408
#     4  10  23  46  63  98 138 173 223 285 331 400
#     4  12  24  38  72 102 128 176 228 270 332 414
#     4  11  24  42  70  97 134 174 228 275 338 402
#
# _framework density 22.79016
#
# number of rings (size 3 to 8) (size 9 to 14) (size 15 to 20)
#    0.000    1.333    2.222    2.000   10.889    0.889 
#    0.000    2.222    0.000    0.000    0.000    0.000 
#    0.000    0.000    0.000    0.000    0.000    0.000 
#
# Total GULP energy -100367.045039 kJ/mol
# GULP energy per Si atom -5575.946947 kJ/mol
# Density = 2.273829 g / cm^3
# Si number density = 22.790160 Si / 1000 Ang^3
#
#
#
# Elastic Constant Matrix: (Units=GPa)
#
#
# Indices 1 2 3 4 5 6 
#
# 1 98.0208 45.4249 23.1232 0.0001 -37.5464 0.0003
# 2 45.4249 143.2803 71.4331 0.0003 -29.6052 0.0001
# 3 23.1232 71.4331 98.8581 0.0000 -36.6281 0.0017
# 4 0.0001 0.0003 0.0000 37.9175 0.0001 -16.8818
# 5 -37.5464 -29.6052 -36.6281 0.0001 31.7833 0.0007
# 6 0.0003 0.0001 0.0017 -16.8818 0.0007 25.2971
#
#
#
# Elastic Compliance Matrix: (Units=1/GPa)
#
#
# Indices 1 2 3 4 5 6 
#
# 1 0.024798 -0.006456 0.013072 -0.000002 0.038346 -0.000003
# 2 -0.006456 0.012655 -0.010632 0.000001 -0.008092 0.000001
# 3 0.013072 -0.010632 0.029306 -0.000002 0.039313 -0.000005
# 4 -0.000002 0.000001 -0.000002 0.037521 -0.000005 0.025040
# 5 0.038346 -0.008092 0.039313 -0.000005 0.114530 -0.000009
# 6 -0.000003 0.000001 -0.000005 0.025040 -0.000009 0.056240
#
#
# Mechanical properties :
#
#
# Convention : Reuss Voigt Hill
#
# Bulk Modulus (GPa) = 17.02771 68.90238 42.96505
# Shear Modulus (GPa) = 16.52024 32.34477 24.43250
#
# Velocity S-wave (km/s) = 2.69529 3.77137 3.27779
# Velocity P-wave (km/s) = 4.14413 7.01878 5.76356
#
# Compressibility (1/GPa) = 0.05872779
#
# Stress axis : x y z
#
# Youngs Moduli (GPa) = 40.32528 79.02095 34.12231
#
# Poissons Ratio (x) = 0.51015 -0.44606
# Poissons Ratio (y) = 0.26034 0.36280
# Poissons Ratio (z) = -0.52714 0.84017
#
# Static dielectric constant tensor:
#      x y z
#    x 1.963310 0.000000 -0.026120 
#    y 0.000000 1.809000 0.000000 
#    z -0.026120 0.000000 1.919150 
# 
# From -- ./inp_files/134655.got.cif
#   From: 2010.05.17/outbox.cif.g08.bks.cpg/sg15_68_cif.got.tgz:134655.got - 2010.06.03 18:47:42.
