data_PCOD9294974
_publ_section_title
;
Structure prediction by ZEFSAII (Michael W. Deem and Ramdas Pophale) SiO2 
 PCOD9294974
Probable space group: C 2/C
;
_chemical_formula_sum "Si O2"
_cell_formula_units_Z 44
_cell_length_a 27.557707
_cell_length_b 10.105838
_cell_length_c 9.818782
_cell_angle_alpha 90.000000
_cell_angle_beta 41.721927
_cell_angle_gamma 90.000000
_cell_volume 1819.833089
_symmetry_space_group_name_H-M "C 2/C"
_symmetry_group_IT_number 15
_symmetry_cell_setting 'monoclinic'
loop_
_space_group_symop_operation_xyz
x,y,z
-x,y,1/2-z
-x,-y,-z
x,-y,1/2+z
1/2+x,1/2+y,z
1/2-x,1/2+y,1/2-z
1/2-x,1/2-y,-z
1/2+x,1/2-y,1/2+z
loop_
_atom_site_type_symbol
_atom_site_label
_atom_site_fract_x
_atom_site_fract_y
_atom_site_fract_z
Si Si1 0.000000 0.788618 0.750000
Si Si2 0.539669 0.081153 0.300320
Si Si3 0.210633 0.898155 0.902200
Si Si4 0.677846 0.125579 0.854825
Si Si5 0.619552 0.537570 0.849525
Si Si6 0.932394 0.242184 0.126995
O O1 0.054306 0.875163 0.544407
O O2 0.053981 0.718754 0.744992
O O3 0.500000 0.031858 0.250000
O O4 0.508499 0.228960 0.390708
O O5 0.500000 0.000000 0.500000
O O6 0.624089 0.087681 0.092040
O O7 0.278552 0.996035 0.778515
O O8 0.162721 0.975684 0.888105
O O9 0.223962 0.752480 0.810531
O O10 0.169895 0.889156 0.132886
O O11 0.628184 0.177438 0.832454
O O12 0.588758 0.409739 0.835547
#
# Coordination Sequence:
#
# PCOD9294974 Si02
#       6
#     4   8   8   8   8   8
#     4  12  22  40  76 106 142 186 246 314 372 448
#     4  10  23  43  71 107 145 192 242 306 372 437
#     4  11  25  46  72 107 153 196 246 296 374 448
#     4  10  25  47  73 107 156 194 246 306 365 448
#     4  11  24  42  70 111 139 189 242 308 373 444
#     4  10  23  41  72 104 145 185 244 305 375 428
#
# _framework density 24.178039999999999
#
# number of rings (size 3 to 8) (size 9 to 14) (size 15 to 20)
#    0.000    1.455    1.818    1.636    7.636    8.000 
#    0.000    0.000    0.000    0.000    0.000    0.000 
#    0.000    0.000    0.000    0.000    0.000    0.000 
#
# Total GULP energy -122993.630041 kJ/mol
# GULP energy per Si atom -5590.619547 kJ/mol
# Density = 2.412301 g / cm^3
# Si number density = 24.178040 Si / 1000 Ang^3
#
#
#
# Elastic Constant Matrix: (Units=GPa)
#
#
# Indices 1 2 3 4 5 6 
#
# 1 90.1117 33.2607 50.7902 0.0000 24.1515 0.0000
# 2 33.2607 101.3738 54.6623 0.0000 -5.4161 0.0000
# 3 50.7902 54.6623 104.6056 0.0000 6.6589 0.0000
# 4 0.0000 0.0000 0.0000 41.2278 0.0000 -3.2574
# 5 24.1515 -5.4161 6.6589 0.0000 47.9245 0.0000
# 6 0.0000 0.0000 0.0000 -3.2574 0.0000 36.6040
#
#
#
# Elastic Compliance Matrix: (Units=1/GPa)
#
#
# Indices 1 2 3 4 5 6 
#
# 1 0.018299 -0.002736 -0.006909 0.000000 -0.008571 0.000000
# 2 -0.002736 0.014465 -0.006480 0.000000 0.003914 0.000000
# 3 -0.006909 -0.006480 0.016269 0.000000 0.000489 0.000000
# 4 0.000000 0.000000 0.000000 0.024427 0.000000 0.002174
# 5 -0.008571 0.003914 0.000489 0.000000 0.025560 0.000000
# 6 0.000000 0.000000 0.000000 0.002174 0.000000 0.027513
#
#
# Mechanical properties :
#
#
# Convention : Reuss Voigt Hill
#
# Bulk Modulus (GPa) = 59.58357 63.72417 61.65387
# Shear Modulus (GPa) = 30.41776 35.64310 33.03043
#
# Velocity S-wave (km/s) = 3.55078 3.84369 3.70013
# Velocity P-wave (km/s) = 6.44266 6.79058 6.61891
#
# Compressibility (1/GPa) = 0.01678315
#
# Stress axis : x y z
#
# Youngs Moduli (GPa) = 54.64847 69.13162 61.46540
#
# Poissons Ratio (x) = 0.18915 0.42469
# Poissons Ratio (y) = 0.14952 0.39827
# Poissons Ratio (z) = 0.37759 0.44794
#
# Static dielectric constant tensor:
#      x y z
#    x 1.988740 0.000000 0.035930 
#    y 0.000000 2.037940 0.000000 
#    z 0.035930 0.000000 1.969280 
# 
# From -- ./inp_files/65328.got.cif
#   From: 2010.05.17/outbox.cif.g08.bks.cpg/sg15_33_cif.got.tgz:65328.got - 2010.06.03 18:47:42.
