data_PCOD9294006
_publ_section_title
;
Structure prediction by ZEFSAII (Michael W. Deem and Ramdas Pophale) SiO2 
 PCOD9294006
Probable space group: C 2/C
;
_chemical_formula_sum "Si O2"
_cell_formula_units_Z 48
_cell_length_a 19.821194
_cell_length_b 27.089466
_cell_length_c 5.249951
_cell_angle_alpha 90.000000
_cell_angle_beta 49.326499
_cell_angle_gamma 90.000000
_cell_volume 2137.983543
_symmetry_space_group_name_H-M "C 2/C"
_symmetry_group_IT_number 15
_symmetry_cell_setting 'monoclinic'
loop_
_space_group_symop_operation_xyz
x,y,z
-x,y,1/2-z
-x,-y,-z
x,-y,1/2+z
1/2+x,1/2+y,z
1/2-x,1/2+y,1/2-z
1/2-x,1/2-y,-z
1/2+x,1/2-y,1/2+z
loop_
_atom_site_type_symbol
_atom_site_label
_atom_site_fract_x
_atom_site_fract_y
_atom_site_fract_z
Si Si1 0.148059 0.379478 0.898771
Si Si2 0.000000 0.535329 0.750000
Si Si3 0.400669 0.516583 0.827994
Si Si4 0.366723 0.292999 0.725370
Si Si5 0.850002 0.116122 0.899315
Si Si6 0.000000 0.160020 0.250000
Si Si7 0.329367 0.815902 0.142362
O O1 0.248869 0.396187 0.596652
O O2 0.132054 0.339616 0.711169
O O3 0.150735 0.352609 0.168704
O O4 0.082991 0.426215 0.050740
O O5 0.000000 0.500000 0.500000
O O6 0.500000 0.500000 0.500000
O O7 0.357152 0.515728 0.655247
O O8 0.393183 0.571746 0.952013
O O9 0.353650 0.331965 0.532720
O O10 0.458502 0.305277 0.637822
O O11 0.366328 0.237561 0.625924
O O12 0.277689 0.304360 0.115013
O O13 0.917891 0.124132 0.505356
#
# Coordination Sequence:
#
# PCOD9294006 Si02
#       7
#     8   4   8   8   8   4   8
#     4  11  25  48  76 103 141 185 233 310 364 433
#     4  12  28  53  82 112 138 178 253 328 382 438
#     4  10  23  38  57  84 125 178 219 274 320 392
#     4  10  24  39  68 100 152 197 239 288 339 435
#     4  11  25  41  67 100 146 189 239 281 361 426
#     4  12  22  39  62 106 140 198 235 284 340 422
#     4  10  23  46  70 104 146 193 241 284 361 428
#
# _framework density 22.451062
#
# number of rings (size 3 to 8) (size 9 to 14) (size 15 to 20)
#    0.000    1.333    1.667    2.500    9.333    4.000 
#    3.000    0.000    0.000    0.000    0.000    0.000 
#    0.000    0.000    0.000    0.000    0.000    0.000 
#
# Total GULP energy -133924.503222 kJ/mol
# GULP energy per Si atom -5580.187634 kJ/mol
# Density = 2.239996 g / cm^3
# Si number density = 22.451062 Si / 1000 Ang^3
#
#
#
# Elastic Constant Matrix: (Units=GPa)
#
#
# Indices 1 2 3 4 5 6 
#
# 1 118.9091 56.6912 56.5226 0.0000 -10.5095 0.0000
# 2 56.6912 144.3599 43.3579 0.0000 -19.1860 0.0000
# 3 56.5226 43.3579 83.7770 0.0000 -0.2697 0.0000
# 4 0.0000 0.0000 0.0000 31.5772 0.0000 7.8007
# 5 -10.5095 -19.1860 -0.2697 0.0000 47.5750 0.0000
# 6 0.0000 0.0000 0.0000 7.8007 0.0000 15.3622
#
#
#
# Elastic Compliance Matrix: (Units=1/GPa)
#
#
# Indices 1 2 3 4 5 6 
#
# 1 0.013554 -0.002763 -0.007708 0.000000 0.001836 0.000000
# 2 -0.002763 0.009313 -0.002945 0.000000 0.003128 0.000000
# 3 -0.007708 -0.002945 0.018652 0.000000 -0.002785 0.000000
# 4 0.000000 0.000000 0.000000 0.036211 0.000000 -0.018387
# 5 0.001836 0.003128 -0.002785 0.000000 0.022671 0.000000
# 6 0.000000 0.000000 0.000000 -0.018387 0.000000 0.074431
#
#
# Mechanical properties :
#
#
# Convention : Reuss Voigt Hill
#
# Bulk Modulus (GPa) = 68.09711 73.35435 70.72573
# Shear Modulus (GPa) = 24.20601 31.60119 27.90360
#
# Velocity S-wave (km/s) = 3.28711 3.75581 3.52925
# Velocity P-wave (km/s) = 6.69358 7.17998 6.94104
#
# Compressibility (1/GPa) = 0.01468491
#
# Stress axis : x y z
#
# Youngs Moduli (GPa) = 73.78107 107.38004 53.61265
#
# Poissons Ratio (x) = 0.29674 0.41326
# Poissons Ratio (y) = 0.20389 0.15790
# Poissons Ratio (z) = 0.56872 0.31625
#
# Static dielectric constant tensor:
#      x y z
#    x 2.039100 0.000000 0.103310 
#    y 0.000000 1.937560 0.000000 
#    z 0.103310 0.000000 1.961610 
# 
# From -- ./inp_files/13840.got.cif
#   From: 2010.05.17/outbox.cif.g08.bks.cpg/sg15_7_cif.got.tgz:13840.got - 2010.06.03 18:47:42.
