data_PCOD9294796
_publ_section_title
;
Structure prediction by ZEFSAII (Michael W. Deem and Ramdas Pophale) SiO2 
 PCOD9294796
Probable space group: C 2/C
;
_chemical_formula_sum "Si O2"
_cell_formula_units_Z 64
_cell_length_a 30.770435
_cell_length_b 8.694831
_cell_length_c 15.396701
_cell_angle_alpha 90.000000
_cell_angle_beta 130.279009
_cell_angle_gamma 90.000000
_cell_volume 3142.628564
_symmetry_space_group_name_H-M "C 2/C"
_symmetry_group_IT_number 15
_symmetry_cell_setting 'monoclinic'
loop_
_space_group_symop_operation_xyz
x,y,z
-x,y,1/2-z
-x,-y,-z
x,-y,1/2+z
1/2+x,1/2+y,z
1/2-x,1/2+y,1/2-z
1/2-x,1/2-y,-z
1/2+x,1/2-y,1/2+z
loop_
_atom_site_type_symbol
_atom_site_label
_atom_site_fract_x
_atom_site_fract_y
_atom_site_fract_z
Si Si1 0.828984 0.491970 0.275860
Si Si2 0.545205 0.137150 0.559184
Si Si3 0.740692 0.932141 0.488857
Si Si4 0.170284 0.076772 0.000486
Si Si5 0.234194 0.621415 0.642204
Si Si6 0.545116 0.319998 0.375398
Si Si7 0.346689 0.666273 0.867352
Si Si8 0.478911 0.605339 0.050382
O O1 0.891956 0.425703 0.344289
O O2 0.798142 0.483936 0.142976
O O3 0.793336 0.393031 0.298570
O O4 0.833404 0.654695 0.332407
O O5 0.546848 0.224017 0.467544
O O6 0.521980 0.252768 0.603252
O O7 0.500000 0.000000 0.500000
O O8 0.750000 0.750000 0.500000
O O9 0.802181 0.010647 0.550923
O O10 0.715305 0.998988 0.545188
O O11 0.214002 0.210234 0.086393
O O12 0.166056 0.931274 0.061230
O O13 0.108415 0.156635 0.918983
O O14 0.301572 0.594256 0.741989
O O15 0.500000 0.250596 0.250000
O O16 0.523682 0.491822 0.371839
O O17 0.414323 0.652359 0.944077
O O18 0.500000 0.500000 0.000000
#
# Coordination Sequence:
#
# PCOD9294796 Si02
#       8
#     8   8   8   8   8   8   8   8
#     4  12  25  44  68  99 138 180 222 287 342 404
#     4  11  22  42  67  96 132 176 225 272 341 406
#     4  12  28  42  66 105 137 175 229 279 346 419
#     4  11  23  42  66  97 133 174 227 281 339 407
#     4  12  24  43  70 100 135 177 228 276 350 405
#     4  10  23  41  66  94 131 176 226 279 336 399
#     4  11  21  40  71  91 131 178 217 275 343 399
#     4   9  21  39  63  95 122 171 223 267 325 402
#
# _framework density 20.365117999999999
#
# number of rings (size 3 to 8) (size 9 to 14) (size 15 to 20)
#    0.000    1.000    5.000    1.125    1.750    4.000 
#    0.000    0.625    0.000    0.000    0.000    0.000 
#    0.000    0.000    0.000    0.000    0.000    0.000 
#
# Total GULP energy -178408.132372 kJ/mol
# GULP energy per Si atom -5575.254137 kJ/mol
# Density = 2.031877 g / cm^3
# Si number density = 20.365118 Si / 1000 Ang^3
#
#
#
# Elastic Constant Matrix: (Units=GPa)
#
#
# Indices 1 2 3 4 5 6 
#
# 1 90.9426 1.8147 43.2302 0.0000 14.2036 0.0000
# 2 1.8147 46.1981 6.3182 0.0000 9.8178 0.0000
# 3 43.2302 6.3182 87.5914 0.0000 8.8976 0.0000
# 4 0.0000 0.0000 0.0000 21.3997 0.0000 6.8902
# 5 14.2036 9.8178 8.8976 0.0000 19.2241 0.0000
# 6 0.0000 0.0000 0.0000 6.8902 0.0000 31.9263
#
#
#
# Elastic Compliance Matrix: (Units=1/GPa)
#
#
# Indices 1 2 3 4 5 6 
#
# 1 0.015770 0.002383 -0.006976 0.000000 -0.009640 0.000000
# 2 0.002383 0.024664 -0.001571 0.000000 -0.013630 0.000000
# 3 -0.006976 -0.001571 0.015077 0.000000 -0.001022 0.000000
# 4 0.000000 0.000000 0.000000 0.050219 0.000000 -0.010838
# 5 -0.009640 -0.013630 -0.001022 0.000000 0.066574 0.000000
# 6 0.000000 0.000000 0.000000 -0.010838 0.000000 0.033661
#
#
# Mechanical properties :
#
#
# Convention : Reuss Voigt Hill
#
# Bulk Modulus (GPa) = 23.15696 36.38424 29.77060
# Shear Modulus (GPa) = 21.48815 26.06795 23.77805
#
# Velocity S-wave (km/s) = 3.25182 3.58163 3.42070
# Velocity P-wave (km/s) = 5.04923 5.91683 5.50016
#
# Compressibility (1/GPa) = 0.04318356
#
# Stress axis : x y z
#
# Youngs Moduli (GPa) = 63.41141 40.54549 66.32783
#
# Poissons Ratio (x) = -0.09663 0.46269
# Poissons Ratio (y) = -0.15113 0.10419
# Poissons Ratio (z) = 0.44235 0.06369
#
# Static dielectric constant tensor:
#      x y z
#    x 1.696920 0.000000 0.008570 
#    y 0.000000 1.750350 0.000000 
#    z 0.008570 0.000000 1.714010 
# 
# From -- ./inp_files/181165.got.cif
#   From: 2010.05.17/outbox.cif.g08.bks.cpg/sg15_91_cif.got.tgz:181165.got - 2010.06.03 18:47:42.
