data_PCOD9294951
_publ_section_title
;
Structure prediction by ZEFSAII (Michael W. Deem and Ramdas Pophale) SiO2 
 PCOD9294951
Probable space group: C 2/C
;
_chemical_formula_sum "Si O2"
_cell_formula_units_Z 48
_cell_length_a 14.791129
_cell_length_b 8.840025
_cell_length_c 16.358828
_cell_angle_alpha 90.000000
_cell_angle_beta 90.269934
_cell_angle_gamma 90.000000
_cell_volume 2138.957643
_symmetry_space_group_name_H-M "C 2/C"
_symmetry_group_IT_number 15
_symmetry_cell_setting 'monoclinic'
loop_
_space_group_symop_operation_xyz
x,y,z
-x,y,1/2-z
-x,-y,-z
x,-y,1/2+z
1/2+x,1/2+y,z
1/2-x,1/2+y,1/2-z
1/2-x,1/2-y,-z
1/2+x,1/2-y,1/2+z
loop_
_atom_site_type_symbol
_atom_site_label
_atom_site_fract_x
_atom_site_fract_y
_atom_site_fract_z
Si Si1 0.648922 0.306170 0.015017
Si Si2 0.818835 0.845567 0.944057
Si Si3 0.204503 0.992486 0.227021
Si Si4 0.999598 0.711109 0.611499
Si Si5 0.500000 0.458997 0.750000
Si Si6 0.828676 0.315195 0.813346
Si Si7 0.500000 0.959770 0.750000
O O1 0.650361 0.490082 0.018646
O O2 0.625186 0.234927 0.102821
O O3 0.750000 0.250000 0.000000
O O4 0.582139 0.230414 0.950749
O O5 0.785183 0.897173 0.852032
O O6 0.905243 0.737412 0.932605
O O7 0.750000 0.750000 0.000000
O O8 0.097747 0.966050 0.241272
O O9 0.258105 0.047943 0.306255
O O10 0.237007 0.825764 0.206065
O O11 0.991397 0.853076 0.671778
O O12 0.999298 0.565106 0.669429
O O13 0.908686 0.363156 0.753060
#
# Coordination Sequence:
#
# PCOD9294951 Si02
#       7
#     8   8   8   8   4   8   4
#     4  11  25  43  70 104 141 179 229 288 346 408
#     4  10  24  43  69 104 135 183 228 281 352 410
#     4  10  23  41  70  96 135 176 234 282 341 413
#     4  10  23  43  70  98 137 177 227 278 341 411
#     4   9  19  40  66  96 126 178 220 272 338 406
#     4  11  26  43  66 101 135 179 230 286 345 404
#     4  11  27  44  72 102 138 186 230 284 342 410
#
# _framework density 22.440837999999999
#
# number of rings (size 3 to 8) (size 9 to 14) (size 15 to 20)
#    0.000    1.667    0.000    2.000   14.000    3.333 
#    0.000    0.000    0.000    0.000    0.000    0.000 
#    0.000    0.000    0.000    0.000    0.000    0.000 
#
# Total GULP energy -133984.555925 kJ/mol
# GULP energy per Si atom -5582.689830 kJ/mol
# Density = 2.238976 g / cm^3
# Si number density = 22.440838 Si / 1000 Ang^3
#
#
#
# Elastic Constant Matrix: (Units=GPa)
#
#
# Indices 1 2 3 4 5 6 
#
# 1 114.2379 48.2476 67.6765 0.0000 -10.2642 0.0000
# 2 48.2476 104.6590 55.1218 0.0000 4.7746 0.0000
# 3 67.6765 55.1218 80.5219 0.0000 -4.2547 0.0000
# 4 0.0000 0.0000 0.0000 -113.0850 0.0000 -19.0841
# 5 -10.2642 4.7746 -4.2547 0.0000 45.9014 0.0000
# 6 0.0000 0.0000 0.0000 -19.0841 0.0000 27.9290
#
#
#
# Elastic Compliance Matrix: (Units=1/GPa)
#
#
# Indices 1 2 3 4 5 6 
#
# 1 0.017782 -0.000825 -0.014236 0.000000 0.002743 0.000000
# 2 -0.000825 0.015275 -0.009905 0.000000 -0.002692 0.000000
# 3 -0.014236 -0.009905 0.031204 0.000000 0.000739 0.000000
# 4 0.000000 0.000000 0.000000 -0.007929 0.000000 -0.005418
# 5 0.002743 -0.002692 0.000739 0.000000 0.022748 0.000000
# 6 0.000000 0.000000 0.000000 -0.005418 0.000000 0.032103
#
#
# Mechanical properties :
#
#
# Convention : Reuss Voigt Hill
#
# Bulk Modulus (GPa) = 69.79131 71.27895 70.53513
# Shear Modulus (GPa) = 30.14037 0.70727 15.42382
#
# Velocity S-wave (km/s) = 3.66881 0.56201 2.62450
# Velocity P-wave (km/s) = 7.00818 5.67919 6.37839
#
# Compressibility (1/GPa) = 0.01432843
#
# Stress axis : x y z
#
# Youngs Moduli (GPa) = 56.23689 65.46691 32.04767
#
# Poissons Ratio (x) = 0.05401 0.45622
# Poissons Ratio (y) = 0.04639 0.31745
# Poissons Ratio (z) = 0.80057 0.64848
#
# Static dielectric constant tensor:
#      x y z
#    x 1.874840 0.000000 -0.032870 
#    y 0.000000 1.858060 0.000000 
#    z -0.032870 0.000000 1.799610 
# 
# From -- ./inp_files/203051.got.cif
#   From: 2010.05.17/outbox.cif.g08.bks.cpg/sg15_102_cif.got.tgz:203051.got - 2010.06.03 18:47:42.
