data_PCOD9294746
_publ_section_title
;
Structure prediction by ZEFSAII (Michael W. Deem and Ramdas Pophale) SiO2 
 PCOD9294746
Probable space group: C 2/C
;
_chemical_formula_sum "Si O2"
_cell_formula_units_Z 40
_cell_length_a 8.561522
_cell_length_b 8.846967
_cell_length_c 23.778915
_cell_angle_alpha 90.000000
_cell_angle_beta 95.603628
_cell_angle_gamma 90.000000
_cell_volume 1792.491256
_symmetry_space_group_name_H-M "C 2/C"
_symmetry_group_IT_number 15
_symmetry_cell_setting 'monoclinic'
loop_
_space_group_symop_operation_xyz
x,y,z
-x,y,1/2-z
-x,-y,-z
x,-y,1/2+z
1/2+x,1/2+y,z
1/2-x,1/2+y,1/2-z
1/2-x,1/2-y,-z
1/2+x,1/2-y,1/2+z
loop_
_atom_site_type_symbol
_atom_site_label
_atom_site_fract_x
_atom_site_fract_y
_atom_site_fract_z
Si Si1 0.062767 0.072383 0.883677
Si Si2 0.218226 0.429305 0.321551
Si Si3 0.259361 0.077909 0.479695
Si Si4 0.824221 0.088398 0.218642
Si Si5 0.569883 0.920274 0.916063
O O1 0.089366 0.247065 0.898938
O O2 0.884121 0.045261 0.858691
O O3 0.108938 0.974263 0.939480
O O4 0.167787 0.022731 0.834207
O O5 0.215139 0.254912 0.304010
O O6 0.215169 0.528712 0.264923
O O7 0.086673 0.476373 0.361474
O O8 0.250000 0.250000 0.500000
O O9 0.404433 0.063487 0.441558
O O10 0.300936 0.973069 0.534028
O O11 0.000000 0.092293 0.250000
#
# Coordination Sequence:
#
# PCOD9294746 Si02
#       5
#     8   8   8   8   8
#     4  11  23  42  65  94 128 166 211 263 318 377
#     4  11  24  43  67  95 127 167 213 263 316 381
#     4  11  25  44  64  93 132 171 213 265 320 378
#     4  10  23  41  65  95 130 166 208 264 322 379
#     4  11  24  40  66  95 127 171 214 261 319 379
#
# _framework density 22.31531
#
# number of rings (size 3 to 8) (size 9 to 14) (size 15 to 20)
#    0.000    1.200    0.000    5.400    0.000   12.800 
#    0.000    0.000    0.000    0.000    0.000    0.000 
#    0.000    0.000    0.000    0.000    0.000    0.000 
#
# Total GULP energy -112040.067694 kJ/mol
# GULP energy per Si atom -5602.003385 kJ/mol
# Density = 2.226452 g / cm^3
# Si number density = 22.315310 Si / 1000 Ang^3
#
#
#
# Elastic Constant Matrix: (Units=GPa)
#
#
# Indices 1 2 3 4 5 6 
#
# 1 52.3008 15.4343 44.8157 0.0000 -21.0945 0.0000
# 2 15.4343 119.3255 55.7554 0.0000 -18.8570 0.0000
# 3 44.8157 55.7554 132.4675 0.0000 -27.9031 0.0000
# 4 0.0000 0.0000 0.0000 63.3354 0.0000 -3.0800
# 5 -21.0945 -18.8570 -27.9031 0.0000 52.6808 0.0000
# 6 0.0000 0.0000 0.0000 -3.0800 0.0000 25.5508
#
#
#
# Elastic Compliance Matrix: (Units=1/GPa)
#
#
# Indices 1 2 3 4 5 6 
#
# 1 0.029454 0.001616 -0.009048 0.000000 0.007580 0.000000
# 2 0.001616 0.010640 -0.004600 0.000000 0.002019 0.000000
# 3 -0.009048 -0.004600 0.012872 0.000000 0.001549 0.000000
# 4 0.000000 0.000000 0.000000 0.015882 0.000000 0.001915
# 5 0.007580 0.002019 0.001549 0.000000 0.023560 0.000000
# 6 0.000000 0.000000 0.000000 0.001915 0.000000 0.039369
#
#
# Mechanical properties :
#
#
# Convention : Reuss Voigt Hill
#
# Bulk Modulus (GPa) = 34.59967 59.56718 47.08343
# Shear Modulus (GPa) = 30.21620 40.85262 35.53441
#
# Velocity S-wave (km/s) = 3.68374 4.28331 3.99479
# Velocity P-wave (km/s) = 5.79930 7.15637 6.51328
#
# Compressibility (1/GPa) = 0.02890201
#
# Stress axis : x y z
#
# Youngs Moduli (GPa) = 33.95165 93.98758 77.68636
#
# Poissons Ratio (x) = -0.15187 0.70292
# Poissons Ratio (y) = -0.05486 0.35732
# Poissons Ratio (z) = 0.30720 0.43230
#
# Static dielectric constant tensor:
#      x y z
#    x 1.846210 0.000000 0.001320 
#    y 0.000000 1.755500 0.000000 
#    z 0.001320 0.000000 1.816620 
# 
# From -- ./inp_files/262441.got.cif
#   From: 2010.05.17/outbox.cif.g08.bks.cpg/sg15_132_cif.got.tgz:262441.got - 2010.06.03 18:47:42.
