data_PCOD9294523
_publ_section_title
;
Structure prediction by ZEFSAII (Michael W. Deem and Ramdas Pophale) SiO2 
 PCOD9294523
Probable space group: C 2/C
;
_chemical_formula_sum "Si O2"
_cell_formula_units_Z 48
_cell_length_a 7.887697
_cell_length_b 17.185129
_cell_length_c 22.404149
_cell_angle_alpha 90.000000
_cell_angle_beta 144.918454
_cell_angle_gamma 90.000000
_cell_volume 1745.437023
_symmetry_space_group_name_H-M "C 2/C"
_symmetry_group_IT_number 15
_symmetry_cell_setting 'monoclinic'
loop_
_space_group_symop_operation_xyz
x,y,z
-x,y,1/2-z
-x,-y,-z
x,-y,1/2+z
1/2+x,1/2+y,z
1/2-x,1/2+y,1/2-z
1/2-x,1/2-y,-z
1/2+x,1/2-y,1/2+z
loop_
_atom_site_type_symbol
_atom_site_label
_atom_site_fract_x
_atom_site_fract_y
_atom_site_fract_z
Si Si1 0.753365 0.903221 0.720713
Si Si2 0.776476 0.129115 0.489280
Si Si3 0.842275 0.454614 0.398963
Si Si4 0.151097 0.287012 0.142836
Si Si5 0.361686 0.234914 0.437895
Si Si6 0.657492 0.476835 0.162883
O O1 0.427739 0.868369 0.628268
O O2 0.000000 0.862802 0.750000
O O3 0.687748 0.980322 0.660718
O O4 0.856789 0.935662 0.814281
O O5 0.519445 0.155952 0.461990
O O6 0.020341 0.195528 0.569020
O O7 0.956107 0.049350 0.549441
O O8 0.953298 0.376815 0.398653
O O9 0.525588 0.431578 0.337745
O O10 0.000000 0.500000 0.500000
O O11 0.500000 0.282750 0.250000
O O12 0.982261 0.245779 0.148794
O O13 0.021330 0.247342 0.046521
O O14 0.000000 0.459166 0.250000
#
# Coordination Sequence:
#
# PCOD9294523 Si02
#       6
#     8   8   8   8   8   8
#     4  10  23  40  67  98 128 179 222 279 348 403
#     4  11  23  45  65  99 141 172 228 284 349 408
#     4  11  21  41  66  96 136 176 220 284 341 403
#     4  11  23  43  68  97 132 180 237 274 341 414
#     4  10  25  42  68  97 134 187 219 285 339 415
#     4  11  24  39  65 102 132 175 228 280 346 419
#
# _framework density 27.500277000000001
#
# number of rings (size 3 to 8) (size 9 to 14) (size 15 to 20)
#    0.000    1.333    3.333    1.500    4.667    3.333 
#    0.000    7.500    0.000    0.000    0.000    0.000 
#    0.000    0.000    0.000    0.000    0.000    0.000 
#
# Total GULP energy -133876.208605 kJ/mol
# GULP energy per Si atom -5578.175359 kJ/mol
# Density = 2.743768 g / cm^3
# Si number density = 27.500277 Si / 1000 Ang^3
#
#
#
# Elastic Constant Matrix: (Units=GPa)
#
#
# Indices 1 2 3 4 5 6 
#
# 1 87.0091 58.5659 36.0761 0.0010 30.0595 -0.0003
# 2 58.5659 107.0394 30.6532 0.0035 13.2486 0.0000
# 3 36.0761 30.6532 162.6595 0.0076 35.4452 0.0025
# 4 0.0010 0.0035 0.0076 23.8946 0.0026 9.5891
# 5 30.0595 13.2486 35.4452 0.0026 46.0667 -0.0003
# 6 -0.0003 0.0000 0.0025 9.5891 -0.0003 28.4110
#
#
#
# Elastic Compliance Matrix: (Units=1/GPa)
#
#
# Indices 1 2 3 4 5 6 
#
# 1 0.023158 -0.011092 -0.000538 0.000002 -0.011507 -0.000001
# 2 -0.011092 0.015299 -0.001251 -0.000002 0.003801 0.000001
# 3 -0.000538 -0.001251 0.007627 -0.000002 -0.005157 0.000000
# 4 0.000002 -0.000002 -0.000002 0.048407 -0.000003 -0.016338
# 5 -0.011507 0.003801 -0.005157 -0.000003 0.032091 0.000001
# 6 -0.000001 0.000001 0.000000 -0.016338 0.000001 0.040712
#
#
# Mechanical properties :
#
#
# Convention : Reuss Voigt Hill
#
# Bulk Modulus (GPa) = 49.21228 67.47762 58.34495
# Shear Modulus (GPa) = 25.02120 35.10198 30.06159
#
# Velocity S-wave (km/s) = 3.01965 3.57658 3.30985
# Velocity P-wave (km/s) = 5.48559 6.45339 5.98907
#
# Compressibility (1/GPa) = 0.02032013
#
# Stress axis : x y z
#
# Youngs Moduli (GPa) = 43.18228 65.36260 131.11648
#
# Poissons Ratio (x) = 0.72501 0.07059
# Poissons Ratio (y) = 0.47899 0.16405
# Poissons Ratio (z) = 0.02325 0.08178
#
# Static dielectric constant tensor:
#      x y z
#    x 2.253030 0.000000 -0.020070 
#    y 0.000000 2.140220 0.000000 
#    z -0.020070 0.000000 2.345020 
# 
# From -- ./inp_files/290151.got.cif
#   From: 2010.05.17/outbox.cif.g08.bks.cpg/sg15_146_cif.got.tgz:290151.got - 2010.06.03 18:47:42.
