data_PCOD9294970
_publ_section_title
;
Structure prediction by ZEFSAII (Michael W. Deem and Ramdas Pophale) SiO2 
 PCOD9294970
Probable space group: C 2/C
;
_chemical_formula_sum "Si O2"
_cell_formula_units_Z 36
_cell_length_a 11.971501
_cell_length_b 8.021131
_cell_length_c 15.080413
_cell_angle_alpha 90.000000
_cell_angle_beta 113.327532
_cell_angle_gamma 90.000000
_cell_volume 1329.723436
_symmetry_space_group_name_H-M "C 2/C"
_symmetry_group_IT_number 15
_symmetry_cell_setting 'monoclinic'
loop_
_space_group_symop_operation_xyz
x,y,z
-x,y,1/2-z
-x,-y,-z
x,-y,1/2+z
1/2+x,1/2+y,z
1/2-x,1/2+y,1/2-z
1/2-x,1/2-y,-z
1/2+x,1/2-y,1/2+z
loop_
_atom_site_type_symbol
_atom_site_label
_atom_site_fract_x
_atom_site_fract_y
_atom_site_fract_z
Si Si1 0.758942 0.544560 0.892189
Si Si2 0.379607 0.161194 0.559344
Si Si3 0.188502 0.246033 0.709753
Si Si4 0.505081 0.487697 0.860307
Si Si5 0.000000 0.475099 0.750000
O O1 0.500000 0.474971 0.750000
O O2 0.766034 0.680244 0.817107
O O3 0.636761 0.579486 0.910410
O O4 0.870582 0.496416 0.990002
O O5 0.250000 0.250000 0.500000
O O6 0.475981 0.311860 0.585015
O O7 0.406915 0.083456 0.663500
O O8 0.258189 0.370580 0.667987
O O9 0.079455 0.359668 0.712315
O O10 0.113344 0.089597 0.646615
#
# Coordination Sequence:
#
# PCOD9294970 Si02
#       5
#     8   8   8   8   4
#     4  10  23  42  65 106 135 185 240 286 351 430
#     4  10  23  41  72 101 137 188 238 290 361 426
#     4  11  24  42  72 100 145 185 236 294 353 425
#     4   9  18  43  65  96 141 180 225 293 347 410
#     4  12  24  44  74 100 142 194 224 302 366 410
#
# _framework density 27.073298000000001
#
# number of rings (size 3 to 8) (size 9 to 14) (size 15 to 20)
#    0.000    1.778    4.444    0.000    6.222    2.667 
#    0.000    0.000    0.000    0.000    0.000    0.000 
#    0.000    0.000    0.000    0.000    0.000    0.000 
#
# Total GULP energy -100631.937187 kJ/mol
# GULP energy per Si atom -5590.663177 kJ/mol
# Density = 2.701168 g / cm^3
# Si number density = 27.073298 Si / 1000 Ang^3
#
#
#
# Elastic Constant Matrix: (Units=GPa)
#
#
# Indices 1 2 3 4 5 6 
#
# 1 59.1009 11.7699 21.3924 0.0000 26.6500 0.0000
# 2 11.7699 85.5156 38.7947 0.0000 13.1192 0.0000
# 3 21.3924 38.7947 132.0624 0.0000 11.9241 0.0000
# 4 0.0000 0.0000 0.0000 44.4915 0.0000 6.1896
# 5 26.6500 13.1192 11.9241 0.0000 48.9479 0.0000
# 6 0.0000 0.0000 0.0000 6.1896 0.0000 47.5831
#
#
#
# Elastic Compliance Matrix: (Units=1/GPa)
#
#
# Indices 1 2 3 4 5 6 
#
# 1 0.023327 -0.000168 -0.002645 0.000000 -0.012011 0.000000
# 2 -0.000168 0.013854 -0.003799 0.000000 -0.002696 0.000000
# 3 -0.002645 -0.003799 0.009095 0.000000 0.000243 0.000000
# 4 0.000000 0.000000 0.000000 0.022890 0.000000 -0.002978
# 5 -0.012011 -0.002696 0.000243 0.000000 0.027633 0.000000
# 6 0.000000 0.000000 0.000000 -0.002978 0.000000 0.021403
#
#
# Mechanical properties :
#
#
# Convention : Reuss Voigt Hill
#
# Bulk Modulus (GPa) = 30.25545 46.73255 38.49400
# Shear Modulus (GPa) = 35.10154 41.85261 38.47708
#
# Velocity S-wave (km/s) = 3.60465 3.93606 3.77400
# Velocity P-wave (km/s) = 5.34082 6.16082 5.76542
#
# Compressibility (1/GPa) = 0.03305190
#
# Stress axis : x y z
#
# Youngs Moduli (GPa) = 42.86847 72.18121 109.95402
#
# Poissons Ratio (x) = 0.01213 0.29081
# Poissons Ratio (y) = 0.00721 0.41772
# Poissons Ratio (z) = 0.11338 0.27422
#
# Static dielectric constant tensor:
#      x y z
#    x 2.126890 0.000000 -0.080320 
#    y 0.000000 2.173360 0.000000 
#    z -0.080320 0.000000 2.172240 
# 
# From -- ./inp_files/272442.got.cif
#   From: 2010.05.17/outbox.cif.g08.bks.cpg/sg15_137_cif.got.tgz:272442.got - 2010.06.03 18:47:42.
