data_PCOD9294133
_publ_section_title
;
Structure prediction by ZEFSAII (Michael W. Deem and Ramdas Pophale) SiO2 
 PCOD9294133
Probable space group: C 2/C
;
_chemical_formula_sum "Si O2"
_cell_formula_units_Z 64
_cell_length_a 29.817360
_cell_length_b 14.461380
_cell_length_c 8.623263
_cell_angle_alpha 90.000000
_cell_angle_beta 123.136984
_cell_angle_gamma 90.000000
_cell_volume 3113.622100
_symmetry_space_group_name_H-M "C 2/C"
_symmetry_group_IT_number 15
_symmetry_cell_setting 'monoclinic'
loop_
_space_group_symop_operation_xyz
x,y,z
-x,y,1/2-z
-x,-y,-z
x,-y,1/2+z
1/2+x,1/2+y,z
1/2-x,1/2+y,1/2-z
1/2-x,1/2-y,-z
1/2+x,1/2-y,1/2+z
loop_
_atom_site_type_symbol
_atom_site_label
_atom_site_fract_x
_atom_site_fract_y
_atom_site_fract_z
Si Si1 0.421982 0.224176 0.485496
Si Si2 0.752230 0.145918 0.438812
Si Si3 0.606566 0.589712 0.091852
Si Si4 0.862848 0.440602 0.731297
Si Si5 0.959456 0.244902 0.405304
Si Si6 0.794422 0.789517 0.699386
Si Si7 0.868426 0.896698 0.225833
Si Si8 0.621662 0.870368 0.078662
O O1 0.396989 0.123696 0.411763
O O2 0.478642 0.234834 0.505245
O O3 0.431654 0.243682 0.684529
O O4 0.383928 0.300796 0.336345
O O5 0.750000 0.250000 0.500000
O O6 0.698465 0.091361 0.370325
O O7 0.763445 0.158575 0.277969
O O8 0.804224 0.096135 0.606652
O O9 0.554835 0.643778 0.056555
O O10 0.658837 0.640098 0.268280
O O11 0.606410 0.483148 0.137693
O O12 0.613456 0.603004 0.920015
O O13 0.882651 0.414943 0.597848
O O14 0.867967 0.547429 0.781621
O O15 0.930864 0.314970 0.468973
O O16 0.750000 0.750000 0.500000
O O17 0.829457 0.702942 0.828408
#
# Coordination Sequence:
#
# PCOD9294133 Si02
#       8
#     8   8   8   8   8   8   8   8
#     4  11  23  43  70  91 122 165 206 265 325 368
#     4  11  22  40  61  91 130 166 209 251 306 371
#     4  10  23  40  61  94 128 163 213 253 311 374
#     4  12  25  41  65  95 128 169 211 258 311 373
#     4  10  24  45  66  93 123 161 212 264 318 379
#     4  10  23  39  60  90 126 172 207 254 309 363
#     4  11  23  40  64  95 129 168 207 258 310 374
#     4  11  25  42  62  93 128 164 214 257 310 373
#
# _framework density 20.554839999999999
#
# number of rings (size 3 to 8) (size 9 to 14) (size 15 to 20)
#    0.000    1.250    2.500    3.000    7.000    5.000 
#    0.000    0.000    0.000    0.000    0.000    0.000 
#    0.000    0.000    0.000    0.000    0.000    0.000 
#
# Total GULP energy -178970.333447 kJ/mol
# GULP energy per Si atom -5592.822920 kJ/mol
# Density = 2.050806 g / cm^3
# Si number density = 20.554840 Si / 1000 Ang^3
#
#
#
# Elastic Constant Matrix: (Units=GPa)
#
#
# Indices 1 2 3 4 5 6 
#
# 1 86.7521 2.1930 2.1169 0.0000 0.2498 0.0000
# 2 2.1930 72.2644 -9.6550 0.0000 -4.9796 0.0000
# 3 2.1169 -9.6550 36.3572 0.0000 3.6469 0.0000
# 4 0.0000 0.0000 0.0000 14.2153 0.0000 -12.9993
# 5 0.2498 -4.9796 3.6469 0.0000 18.9944 0.0000
# 6 0.0000 0.0000 0.0000 -12.9993 0.0000 19.4300
#
#
#
# Elastic Compliance Matrix: (Units=1/GPa)
#
#
# Indices 1 2 3 4 5 6 
#
# 1 0.011558 -0.000464 -0.000784 0.000000 -0.000123 0.000000
# 2 -0.000464 0.014546 0.003576 0.000000 0.003133 0.000000
# 3 -0.000784 0.003576 0.028963 0.000000 -0.004613 0.000000
# 4 0.000000 0.000000 0.000000 0.181214 0.000000 0.121238
# 5 -0.000123 0.003133 -0.004613 0.000000 0.054356 0.000000
# 6 0.000000 0.000000 0.000000 0.121238 0.000000 0.132579
#
#
# Mechanical properties :
#
#
# Convention : Reuss Voigt Hill
#
# Bulk Modulus (GPa) = 16.74418 20.52038 18.63228
# Shear Modulus (GPa) = 11.40334 23.90920 17.65627
#
# Velocity S-wave (km/s) = 2.35792 3.41426 2.93402
# Velocity P-wave (km/s) = 3.94675 5.05448 4.53457
#
# Compressibility (1/GPa) = 0.05972223
#
# Stress axis : x y z
#
# Youngs Moduli (GPa) = 86.51781 68.74861 34.52710
#
# Poissons Ratio (x) = 0.03190 0.02706
# Poissons Ratio (y) = 0.04014 -0.12345
# Poissons Ratio (z) = 0.06782 -0.24581
#
# Static dielectric constant tensor:
#      x y z
#    x 1.723750 0.000000 -0.006950 
#    y 0.000000 1.698520 0.000000 
#    z -0.006950 0.000000 1.744750 
# 
# From -- ./inp_files/70175.got.cif
#   From: 2010.05.17/outbox.cif.g08.bks.cpg/sg15_36_cif.got.tgz:70175.got - 2010.06.03 18:47:42.
