data_PCOD9294634
_publ_section_title
;
Structure prediction by ZEFSAII (Michael W. Deem and Ramdas Pophale) SiO2 
 PCOD9294634
Probable space group: C 2/C
;
_chemical_formula_sum "Si O2"
_cell_formula_units_Z 56
_cell_length_a 16.421640
_cell_length_b 7.372306
_cell_length_c 24.418980
_cell_angle_alpha 90.000000
_cell_angle_beta 129.726513
_cell_angle_gamma 90.000000
_cell_volume 2273.696050
_symmetry_space_group_name_H-M "C 2/C"
_symmetry_group_IT_number 15
_symmetry_cell_setting 'monoclinic'
loop_
_space_group_symop_operation_xyz
x,y,z
-x,y,1/2-z
-x,-y,-z
x,-y,1/2+z
1/2+x,1/2+y,z
1/2-x,1/2+y,1/2-z
1/2-x,1/2-y,-z
1/2+x,1/2-y,1/2+z
loop_
_atom_site_type_symbol
_atom_site_label
_atom_site_fract_x
_atom_site_fract_y
_atom_site_fract_z
Si Si1 0.157198 0.572214 0.648905
Si Si2 0.374056 0.981334 0.198577
Si Si3 0.651583 0.728457 0.715684
Si Si4 0.267775 0.339325 0.614806
Si Si5 0.657245 0.851224 0.927762
Si Si6 0.444620 0.888402 0.025970
Si Si7 0.471379 0.515577 0.673119
O O1 0.230270 0.659556 0.725536
O O2 0.127098 0.368277 0.656340
O O3 0.229310 0.529499 0.626313
O O4 0.052759 0.693669 0.596275
O O5 0.500000 0.942806 0.250000
O O6 0.364864 0.142747 0.237802
O O7 0.320904 0.034992 0.117514
O O8 0.311341 0.794565 0.179838
O O9 0.581902 0.544622 0.689301
O O10 0.158458 0.279831 0.538559
O O11 0.373262 0.375855 0.623460
O O12 0.580276 0.702259 0.869251
O O13 0.601790 0.979411 0.948020
O O14 0.750000 0.750000 0.000000
O O15 0.500000 0.000000 0.000000
O O16 0.500000 0.510164 0.750000
#
# Coordination Sequence:
#
# PCOD9294634 Si02
#       7
#     8   8   8   8   8   8   8
#     4  11  23  41  67  94 139 178 223 273 349 412
#     4  12  24  42  69  98 135 166 230 290 339 394
#     4  12  23  42  67 102 134 179 228 286 337 409
#     4  11  24  41  67 100 132 178 220 286 340 411
#     4  12  22  41  70  94 126 181 222 274 342 405
#     4  10  23  41  62  90 136 173 219 268 344 404
#     4  12  20  42  69  99 128 171 235 281 333 398
#
# _framework density 24.629501999999999
#
# number of rings (size 3 to 8) (size 9 to 14) (size 15 to 20)
#    0.000    0.571    7.143    1.286    2.000    0.571 
#    0.000    0.714    0.000    0.000    0.000    0.000 
#    0.000    0.000    0.000    0.000    0.000    0.000 
#
# Total GULP energy -156164.166105 kJ/mol
# GULP energy per Si atom -5577.291647 kJ/mol
# Density = 2.457344 g / cm^3
# Si number density = 24.629502 Si / 1000 Ang^3
#
#
#
# Elastic Constant Matrix: (Units=GPa)
#
#
# Indices 1 2 3 4 5 6 
#
# 1 70.9338 22.2261 47.8370 0.0000 9.5618 0.0000
# 2 22.2261 54.8340 27.1285 0.0000 12.4850 0.0000
# 3 47.8370 27.1285 141.6514 0.0000 44.8098 0.0000
# 4 0.0000 0.0000 0.0000 51.1041 0.0000 3.1060
# 5 9.5618 12.4850 44.8098 0.0000 54.3659 0.0000
# 6 0.0000 0.0000 0.0000 3.1060 0.0000 19.4370
#
#
#
# Elastic Compliance Matrix: (Units=1/GPa)
#
#
# Indices 1 2 3 4 5 6 
#
# 1 0.019901 -0.005497 -0.006710 0.000000 0.003292 0.000000
# 2 -0.005497 0.021819 -0.001411 0.000000 -0.002881 0.000000
# 3 -0.006710 -0.001411 0.012336 0.000000 -0.008664 0.000000
# 4 0.000000 0.000000 0.000000 0.019760 0.000000 -0.003158
# 5 0.003292 -0.002881 -0.008664 0.000000 0.025617 0.000000
# 6 0.000000 0.000000 0.000000 -0.003158 0.000000 0.051953
#
#
# Mechanical properties :
#
#
# Convention : Reuss Voigt Hill
#
# Bulk Modulus (GPa) = 37.28316 51.31138 44.29727
# Shear Modulus (GPa) = 26.65789 36.32989 31.49389
#
# Velocity S-wave (km/s) = 3.29349 3.84481 3.57978
# Velocity P-wave (km/s) = 5.44364 6.37092 5.92545
#
# Compressibility (1/GPa) = 0.02682176
#
# Stress axis : x y z
#
# Youngs Moduli (GPa) = 50.24870 45.83183 81.06072
#
# Poissons Ratio (x) = 0.25192 0.54388
# Poissons Ratio (y) = 0.27620 0.11438
# Poissons Ratio (z) = 0.33715 0.06467
#
# Static dielectric constant tensor:
#      x y z
#    x 2.090620 0.000000 0.068830 
#    y 0.000000 1.968260 0.000000 
#    z 0.068830 0.000000 2.056140 
# 
# From -- ./inp_files/298557.got.cif
#   From: 2010.05.17/outbox.cif.g08.bks.cpg/sg15_150_cif.got.tgz:298557.got - 2010.06.03 18:47:42.
