data_PCOD9294215
_publ_section_title
;
Structure prediction by ZEFSAII (Michael W. Deem and Ramdas Pophale) SiO2 
 PCOD9294215
Probable space group: C 2/C
;
_chemical_formula_sum "Si O2"
_cell_formula_units_Z 40
_cell_length_a 5.409683
_cell_length_b 26.688922
_cell_length_c 15.547454
_cell_angle_alpha 90.000000
_cell_angle_beta 122.993830
_cell_angle_gamma 90.000000
_cell_volume 1882.712040
_symmetry_space_group_name_H-M "C 2/C"
_symmetry_group_IT_number 15
_symmetry_cell_setting 'monoclinic'
loop_
_space_group_symop_operation_xyz
x,y,z
-x,y,1/2-z
-x,-y,-z
x,-y,1/2+z
1/2+x,1/2+y,z
1/2-x,1/2+y,1/2-z
1/2-x,1/2-y,-z
1/2+x,1/2-y,1/2+z
loop_
_atom_site_type_symbol
_atom_site_label
_atom_site_fract_x
_atom_site_fract_y
_atom_site_fract_z
Si Si1 0.207093 0.620076 0.002676
Si Si2 0.292001 0.473608 0.629064
Si Si3 0.490055 0.710401 0.463892
Si Si4 0.151466 0.805733 0.369965
Si Si5 0.793627 0.463655 0.129053
O O1 0.457147 0.659663 0.077197
O O2 0.290546 0.587158 0.935143
O O3 0.923300 0.654999 0.930345
O O4 0.173173 0.578054 0.068270
O O5 0.500000 0.463323 0.750000
O O6 0.512466 0.504165 0.606898
O O7 0.015702 0.506227 0.608446
O O8 0.750000 0.750000 0.500000
O O9 0.223755 0.745776 0.385633
O O10 0.500908 0.692266 0.565205
O O11 0.000000 0.817032 0.250000
O O12 0.000000 0.451877 0.250000
#
# Coordination Sequence:
#
# PCOD9294215 Si02
#       5
#     8   8   8   8   8
#     4  11  23  37  66  93 124 170 216 265 320 395
#     4  10  23  43  60  95 136 174 216 269 322 385
#     4   9  22  43  60  93 128 162 212 264 336 391
#     4  10  23  42  66  94 129 162 214 274 331 390
#     4  10  23  39  64  94 133 174 216 266 326 381
#
# _framework density 21.245947999999999
#
# number of rings (size 3 to 8) (size 9 to 14) (size 15 to 20)
#    0.000    2.000    0.000    1.200    8.400    3.200 
#   10.800    0.000    0.000    0.000    0.000    0.000 
#    0.000    0.000    0.000    0.000    0.000    0.000 
#
# Total GULP energy -111465.437310 kJ/mol
# GULP energy per Si atom -5573.271865 kJ/mol
# Density = 2.119759 g / cm^3
# Si number density = 21.245948 Si / 1000 Ang^3
#
#
#
# Elastic Constant Matrix: (Units=GPa)
#
#
# Indices 1 2 3 4 5 6 
#
# 1 85.4233 47.1403 33.0613 0.0000 -16.3344 0.0000
# 2 47.1403 176.1709 49.0612 0.0000 -7.0205 0.0000
# 3 33.0613 49.0612 89.3099 0.0000 5.3414 0.0000
# 4 0.0000 0.0000 0.0000 6.4222 0.0000 10.9299
# 5 -16.3344 -7.0205 5.3414 0.0000 26.4609 0.0000
# 6 0.0000 0.0000 0.0000 10.9299 0.0000 26.7067
#
#
#
# Elastic Compliance Matrix: (Units=1/GPa)
#
#
# Indices 1 2 3 4 5 6 
#
# 1 0.017535 -0.002653 -0.005708 0.000000 0.011273 0.000000
# 2 -0.002653 0.007278 -0.003070 0.000000 0.000913 0.000000
# 3 -0.005708 -0.003070 0.015442 0.000000 -0.007455 0.000000
# 4 0.000000 0.000000 0.000000 0.513082 0.000000 -0.209982
# 5 0.011273 0.000913 -0.007455 0.000000 0.046498 0.000000
# 6 0.000000 0.000000 0.000000 -0.209982 0.000000 0.123381
#
#
# Mechanical properties :
#
#
# Convention : Reuss Voigt Hill
#
# Bulk Modulus (GPa) = 57.49644 67.71441 62.60543
# Shear Modulus (GPa) = 6.65003 26.69404 16.67204
#
# Velocity S-wave (km/s) = 1.77111 3.54846 2.80432
# Velocity P-wave (km/s) = 5.59495 6.98066 6.32586
#
# Compressibility (1/GPa) = 0.01739238
#
# Stress axis : x y z
#
# Youngs Moduli (GPa) = 57.02767 137.40624 64.75646
#
# Poissons Ratio (x) = 0.36458 0.36963
# Poissons Ratio (y) = 0.15131 0.19882
# Poissons Ratio (z) = 0.32551 0.42187
#
# Static dielectric constant tensor:
#      x y z
#    x 1.870420 0.000000 -0.014220 
#    y 0.000000 1.752380 0.000000 
#    z -0.014220 0.000000 1.809290 
# 
# From -- ./inp_files/129173.got.cif
#   From: 2010.05.17/outbox.cif.g08.bks.cpg/sg15_65_cif.got.tgz:129173.got - 2010.06.03 18:47:42.
