data_PCOD9294193
_publ_section_title
;
Structure prediction by ZEFSAII (Michael W. Deem and Ramdas Pophale) SiO2 
 PCOD9294193
Probable space group: C 2/C
;
_chemical_formula_sum "Si O2"
_cell_formula_units_Z 64
_cell_length_a 19.185806
_cell_length_b 14.171307
_cell_length_c 22.583284
_cell_angle_alpha 90.000000
_cell_angle_beta 30.884131
_cell_angle_gamma 90.000000
_cell_volume 3151.746957
_symmetry_space_group_name_H-M "C 2/C"
_symmetry_group_IT_number 15
_symmetry_cell_setting 'monoclinic'
loop_
_space_group_symop_operation_xyz
x,y,z
-x,y,1/2-z
-x,-y,-z
x,-y,1/2+z
1/2+x,1/2+y,z
1/2-x,1/2+y,1/2-z
1/2-x,1/2-y,-z
1/2+x,1/2-y,1/2+z
loop_
_atom_site_type_symbol
_atom_site_label
_atom_site_fract_x
_atom_site_fract_y
_atom_site_fract_z
Si Si1 0.319228 0.481258 0.983443
Si Si2 0.908010 0.908211 0.208984
Si Si3 0.853043 0.354894 0.880217
Si Si4 0.840805 0.170784 0.363008
Si Si5 0.700573 0.810632 0.443414
Si Si6 0.087118 0.267246 0.883335
Si Si7 0.385209 0.684337 0.507579
Si Si8 0.330194 0.611307 0.236122
O O1 0.440467 0.556909 0.884281
O O2 0.323046 0.406660 0.927319
O O3 0.181229 0.535702 0.094127
O O4 0.344322 0.422795 0.024701
O O5 0.811979 0.880839 0.334400
O O6 0.910680 0.812974 0.168449
O O7 0.853448 0.999189 0.211994
O O8 0.756478 0.295903 0.906827
O O9 0.000000 0.331184 0.750000
O O10 0.832970 0.329889 0.963601
O O11 0.722358 0.250020 0.449527
O O12 0.819112 0.121668 0.315225
O O13 0.000000 0.203891 0.250000
O O14 0.561877 0.812891 0.508083
O O15 0.117152 0.216457 0.923483
O O16 0.201630 0.347529 0.795365
O O17 0.541863 0.678972 0.372656
#
# Coordination Sequence:
#
# PCOD9294193 Si02
#       8
#     8   8   8   8   8   8   8   8
#     4  11  23  41  65 100 128 172 214 269 325 396
#     4  11  22  42  68  95 125 177 219 266 320 392
#     4  11  25  42  61 100 128 165 214 269 331 379
#     4  11  20  38  68  96 129 169 216 268 321 388
#     4  11  24  42  69  89 129 170 217 275 315 387
#     4  11  23  44  62  96 131 174 216 266 327 379
#     4  10  23  39  63  95 132 170 213 265 325 386
#     4  10  23  40  65  96 127 174 221 263 325 392
#
# _framework density 20.306197999999998
#
# number of rings (size 3 to 8) (size 9 to 14) (size 15 to 20)
#    0.000    1.250    3.750    2.625    1.750    3.000 
#    6.750    0.000    0.000    0.000    0.000    0.000 
#    0.000    0.000    0.000    0.000    0.000    0.000 
#
# Total GULP energy -178497.733082 kJ/mol
# GULP energy per Si atom -5578.054159 kJ/mol
# Density = 2.025998 g / cm^3
# Si number density = 20.306198 Si / 1000 Ang^3
#
#
#
# Elastic Constant Matrix: (Units=GPa)
#
#
# Indices 1 2 3 4 5 6 
#
# 1 55.0250 11.5968 -8.9883 0.0000 -14.8833 0.0000
# 2 11.5968 62.8366 25.4158 0.0009 -5.6149 0.0002
# 3 -8.9883 25.4158 -18.8733 0.0026 -32.6607 0.0009
# 4 0.0000 0.0009 0.0026 54.1695 -0.0007 6.9118
# 5 -14.8833 -5.6149 -32.6607 -0.0007 27.8800 -0.0002
# 6 0.0000 0.0002 0.0009 6.9118 -0.0002 31.9600
#
#
#
# Elastic Compliance Matrix: (Units=1/GPa)
#
#
# Indices 1 2 3 4 5 6 
#
# 1 0.016863 0.000028 -0.007790 0.000000 -0.000118 0.000000
# 2 0.000028 0.014724 0.004842 0.000000 0.008652 0.000000
# 3 -0.007790 0.004842 -0.012304 0.000000 -0.017597 0.000000
# 4 0.000000 0.000000 0.000000 0.018984 0.000001 -0.004106
# 5 -0.000118 0.008652 -0.017597 0.000001 0.016934 0.000000
# 6 0.000000 0.000000 0.000000 -0.004106 0.000000 0.032177
#
#
# Mechanical properties :
#
#
# Convention : Reuss Voigt Hill
#
# Bulk Modulus (GPa) = 74.38428 17.22632 45.80530
# Shear Modulus (GPa) = 51.17698 27.53283 39.35490
#
# Velocity S-wave (km/s) = 5.02567 3.68623 4.40713
# Velocity P-wave (km/s) = 8.38971 5.15940 6.96443
#
# Compressibility (1/GPa) = 0.01344370
#
# Stress axis : x y z
#
# Youngs Moduli (GPa) = 59.30007 67.91679 -81.27720
#
# Poissons Ratio (x) = -0.00190 -0.63313
# Poissons Ratio (y) = -0.00166 0.39352
# Poissons Ratio (z) = 0.46193 -0.32884
#
# Static dielectric constant tensor:
#      x y z
#    x 1.724360 0.000000 -0.006490 
#    y 0.000000 2.334080 -0.000010 
#    z -0.006490 -0.000010 1.764170 
# 
# From -- ./inp_files/277637.got.cif
#   From: 2010.05.17/outbox.cif.g08.bks.cpg/sg15_139_cif.got.tgz:277637.got - 2010.06.03 18:47:42.
