data_PCOD9294271
_publ_section_title
;
Structure prediction by ZEFSAII (Michael W. Deem and Ramdas Pophale) SiO2 
 PCOD9294271
Probable space group: C 2/C
;
_chemical_formula_sum "Si O2"
_cell_formula_units_Z 56
_cell_length_a 21.914685
_cell_length_b 4.950197
_cell_length_c 19.691564
_cell_angle_alpha 90.000000
_cell_angle_beta 79.025178
_cell_angle_gamma 90.000000
_cell_volume 2097.111666
_symmetry_space_group_name_H-M "C 2/C"
_symmetry_group_IT_number 15
_symmetry_cell_setting 'monoclinic'
loop_
_space_group_symop_operation_xyz
x,y,z
-x,y,1/2-z
-x,-y,-z
x,-y,1/2+z
1/2+x,1/2+y,z
1/2-x,1/2+y,1/2-z
1/2-x,1/2-y,-z
1/2+x,1/2-y,1/2+z
loop_
_atom_site_type_symbol
_atom_site_label
_atom_site_fract_x
_atom_site_fract_y
_atom_site_fract_z
Si Si1 0.584397 0.691914 0.067408
Si Si2 0.762126 0.619634 0.071237
Si Si3 0.235913 0.922926 0.295899
Si Si4 0.910324 0.588825 0.071049
Si Si5 0.560021 0.536457 0.708297
Si Si6 0.596254 0.410476 0.841391
Si Si7 0.656053 0.211940 0.095771
O O1 0.621296 0.411328 0.048286
O O2 0.544114 0.625891 0.142608
O O3 0.633894 0.916028 0.081452
O O4 0.557336 0.806639 0.004137
O O5 0.835844 0.596159 0.069784
O O6 0.725137 0.335022 0.082189
O O7 0.750000 0.750000 0.000000
O O8 0.273256 0.156420 0.248841
O O9 0.170997 0.066526 0.325610
O O10 0.262334 0.801471 0.360382
O O11 0.924283 0.300519 0.098263
O O12 0.924640 0.796814 0.128312
O O13 0.500000 0.688685 0.750000
O O14 0.579389 0.351997 0.767271
O O15 0.618961 0.709712 0.672253
#
# Coordination Sequence:
#
# PCOD9294271 Si02
#       7
#     8   8   8   8   8   8   8
#     4  10  23  43  67  95 135 170 223 270 328 386
#     4  11  22  41  65 100 135 182 221 261 318 400
#     4  11  24  42  60  92 140 179 220 265 334 394
#     4  11  24  43  64 100 141 175 213 265 337 399
#     4  10  25  48  73  97 125 174 234 285 340 398
#     4  11  25  43  66  95 134 175 216 277 336 396
#     4  10  23  39  68  94 133 164 227 270 320 378
#
# _framework density 26.703393999999999
#
# number of rings (size 3 to 8) (size 9 to 14) (size 15 to 20)
#    0.857    0.571    1.429    3.429    4.000    5.714 
#    0.000    1.429    0.000    0.000    0.000    0.000 
#    0.000    0.000    0.000    0.000    0.000    0.000 
#
# Total GULP energy -156683.472166 kJ/mol
# GULP energy per Si atom -5595.838292 kJ/mol
# Density = 2.664262 g / cm^3
# Si number density = 26.703394 Si / 1000 Ang^3
#
#
#
# Elastic Constant Matrix: (Units=GPa)
#
#
# Indices 1 2 3 4 5 6 
#
# 1 69.3231 15.3210 41.9272 0.0000 -0.1941 0.0000
# 2 15.3210 74.3658 12.5244 0.0000 -18.9081 0.0000
# 3 41.9272 12.5244 170.3347 0.0000 -5.4854 0.0000
# 4 0.0000 0.0000 0.0000 45.3531 0.0000 5.6993
# 5 -0.1941 -18.9081 -5.4854 0.0000 40.9425 0.0000
# 6 0.0000 0.0000 0.0000 5.6993 0.0000 15.4182
#
#
#
# Elastic Compliance Matrix: (Units=1/GPa)
#
#
# Indices 1 2 3 4 5 6 
#
# 1 0.017710 -0.003475 -0.004171 0.000000 -0.002080 0.000000
# 2 -0.003475 0.016056 -0.000087 0.000000 0.007387 0.000000
# 3 -0.004171 -0.000087 0.006932 0.000000 0.000869 0.000000
# 4 0.000000 0.000000 0.000000 0.023123 0.000000 -0.008547
# 5 -0.002080 0.007387 0.000869 0.000000 0.027942 0.000000
# 6 0.000000 0.000000 0.000000 -0.008547 0.000000 0.068018
#
#
# Mechanical properties :
#
#
# Convention : Reuss Voigt Hill
#
# Bulk Modulus (GPa) = 39.63302 50.39652 45.01477
# Shear Modulus (GPa) = 27.22459 36.62617 31.92538
#
# Velocity S-wave (km/s) = 3.19645 3.70752 3.46143
# Velocity P-wave (km/s) = 5.33828 6.10256 5.73317
#
# Compressibility (1/GPa) = 0.02523149
#
# Stress axis : x y z
#
# Youngs Moduli (GPa) = 56.46581 62.28275 144.26314
#
# Poissons Ratio (x) = 0.21643 0.60167
# Poissons Ratio (y) = 0.19622 0.01260
# Poissons Ratio (z) = 0.23550 0.00544
#
# Static dielectric constant tensor:
#      x y z
#    x 2.144400 0.000000 -0.009580 
#    y 0.000000 2.059330 0.000000 
#    z -0.009580 0.000000 2.095890 
# 
# From -- ./inp_files/254030.got.cif
#   From: 2010.05.17/outbox.cif.g08.bks.cpg/sg15_128_cif.got.tgz:254030.got - 2010.06.03 18:47:42.
