data_PCOD9294189
_publ_section_title
;
Structure prediction by ZEFSAII (Michael W. Deem and Ramdas Pophale) SiO2 
 PCOD9294189
Probable space group: C 2/C
;
_chemical_formula_sum "Si O2"
_cell_formula_units_Z 56
_cell_length_a 19.513205
_cell_length_b 14.605343
_cell_length_c 10.743659
_cell_angle_alpha 90.000000
_cell_angle_beta 128.698227
_cell_angle_gamma 90.000000
_cell_volume 2389.667801
_symmetry_space_group_name_H-M "C 2/C"
_symmetry_group_IT_number 15
_symmetry_cell_setting 'monoclinic'
loop_
_space_group_symop_operation_xyz
x,y,z
-x,y,1/2-z
-x,-y,-z
x,-y,1/2+z
1/2+x,1/2+y,z
1/2-x,1/2+y,1/2-z
1/2-x,1/2-y,-z
1/2+x,1/2-y,1/2+z
loop_
_atom_site_type_symbol
_atom_site_label
_atom_site_fract_x
_atom_site_fract_y
_atom_site_fract_z
Si Si1 0.580526 0.955505 0.247195
Si Si2 0.483537 0.347483 0.408704
Si Si3 0.682661 0.830302 0.536447
Si Si4 0.910882 0.157784 0.098532
Si Si5 0.033186 0.639311 0.077289
Si Si6 0.154226 0.969380 0.367987
Si Si7 0.322223 0.573977 0.339646
O O1 0.500000 0.939222 0.250000
O O2 0.662383 0.905139 0.405970
O O3 0.576967 0.064269 0.217766
O O4 0.551506 0.907302 0.084958
O O5 0.431515 0.360932 0.479327
O O6 0.492660 0.238615 0.399691
O O7 0.419186 0.392266 0.235574
O O8 0.575336 0.400148 0.531570
O O9 0.667514 0.727947 0.472042
O O10 0.605604 0.843341 0.552358
O O11 0.770309 0.844963 0.713955
O O12 0.000000 0.203360 0.250000
O O13 0.893523 0.064253 0.149882
O O14 0.208181 0.945157 0.553699
O O15 0.194820 0.991564 0.278432
#
# Coordination Sequence:
#
# PCOD9294189 Si02
#       7
#     8   8   8   8   8   8   8
#     4   9  18  38  64  93 123 171 222 267 317 394
#     4  11  22  41  67  94 126 174 222 269 321 397
#     4  10  23  39  63  94 131 168 215 270 335 387
#     4  11  20  42  68  93 127 175 219 268 322 395
#     4   9  20  40  66  92 128 172 219 270 327 387
#     4  12  25  43  68  94 133 174 222 269 329 394
#     4  12  26  41  64 101 134 169 216 275 332 395
#
# _framework density 23.434218000000001
#
# number of rings (size 3 to 8) (size 9 to 14) (size 15 to 20)
#    0.000    1.429    2.857    3.857    2.000    1.714 
#    0.000    4.286    0.000    0.000    0.000    0.000 
#    0.000    0.000    0.000    0.000    0.000    0.000 
#
# Total GULP energy -156485.408989 kJ/mol
# GULP energy per Si atom -5588.764607 kJ/mol
# Density = 2.338088 g / cm^3
# Si number density = 23.434218 Si / 1000 Ang^3
#
#
#
# Elastic Constant Matrix: (Units=GPa)
#
#
# Indices 1 2 3 4 5 6 
#
# 1 32.4245 -1.1047 25.8496 0.0000 -8.8007 0.0000
# 2 -1.1047 122.3973 46.8956 0.0000 -7.2617 0.0000
# 3 25.8496 46.8956 156.3097 0.0000 -19.4501 0.0000
# 4 0.0000 0.0000 0.0000 41.3840 0.0000 -3.0327
# 5 -8.8007 -7.2617 -19.4501 0.0000 29.9190 0.0000
# 6 0.0000 0.0000 0.0000 -3.0327 0.0000 23.9322
#
#
#
# Elastic Compliance Matrix: (Units=1/GPa)
#
#
# Indices 1 2 3 4 5 6 
#
# 1 0.038106 0.003221 -0.006284 0.000000 0.007905 0.000000
# 2 0.003221 0.009510 -0.003243 0.000000 0.001147 0.000000
# 3 -0.006284 -0.003243 0.008793 0.000000 0.003081 0.000000
# 4 0.000000 0.000000 0.000000 0.024390 0.000000 0.003091
# 5 0.007905 0.001147 0.003081 0.000000 0.038030 0.000000
# 6 0.000000 0.000000 0.000000 0.003091 0.000000 0.042176
#
#
# Mechanical properties :
#
#
# Convention : Reuss Voigt Hill
#
# Bulk Modulus (GPa) = 22.83314 50.49028 36.66171
# Shear Modulus (GPa) = 26.56492 35.01309 30.78901
#
# Velocity S-wave (km/s) = 3.37054 3.86955 3.62864
# Velocity P-wave (km/s) = 4.99120 6.44646 5.76494
#
# Compressibility (1/GPa) = 0.04379598
#
# Stress axis : x y z
#
# Youngs Moduli (GPa) = 26.24235 105.15502 113.72531
#
# Poissons Ratio (x) = -0.33868 0.71470
# Poissons Ratio (y) = -0.08452 0.36881
# Poissons Ratio (z) = 0.16492 0.34101
#
# Static dielectric constant tensor:
#      x y z
#    x 1.934900 0.000000 -0.036280 
#    y 0.000000 1.898450 0.000000 
#    z -0.036280 0.000000 1.915210 
# 
# From -- ./inp_files/123346.got.cif
#   From: 2010.05.17/outbox.cif.g08.bks.cpg/sg15_62_cif.got.tgz:123346.got - 2010.06.03 18:47:42.
