data_PCOD9294057
_publ_section_title
;
Structure prediction by ZEFSAII (Michael W. Deem and Ramdas Pophale) SiO2 
 PCOD9294057
Probable space group: C 2/C
;
_chemical_formula_sum "Si O2"
_cell_formula_units_Z 64
_cell_length_a 14.061273
_cell_length_b 22.793203
_cell_length_c 9.226587
_cell_angle_alpha 90.000000
_cell_angle_beta 98.757404
_cell_angle_gamma 90.000000
_cell_volume 2922.659777
_symmetry_space_group_name_H-M "C 2/C"
_symmetry_group_IT_number 15
_symmetry_cell_setting 'monoclinic'
loop_
_space_group_symop_operation_xyz
x,y,z
-x,y,1/2-z
-x,-y,-z
x,-y,1/2+z
1/2+x,1/2+y,z
1/2-x,1/2+y,1/2-z
1/2-x,1/2-y,-z
1/2+x,1/2-y,1/2+z
loop_
_atom_site_type_symbol
_atom_site_label
_atom_site_fract_x
_atom_site_fract_y
_atom_site_fract_z
Si Si1 0.642759 0.013133 0.866291
Si Si2 0.000976 0.904344 0.583181
Si Si3 0.355077 0.487960 0.030038
Si Si4 0.640400 0.880162 0.901947
Si Si5 0.531357 0.120327 0.921265
Si Si6 0.190095 0.311445 0.624631
Si Si7 0.259611 0.589129 0.698436
Si Si8 0.852060 0.821997 0.444495
O O1 0.563622 0.051821 0.929490
O O2 0.667750 0.051665 0.730754
O O3 0.618921 0.945653 0.836455
O O4 0.747747 0.009436 0.966700
O O5 0.958678 0.849314 0.484406
O O6 0.000000 0.887545 0.750000
O O7 0.098979 0.936600 0.558001
O O8 0.922776 0.956271 0.547193
O O9 0.343951 0.457455 0.184485
O O10 0.668614 0.839849 0.774638
O O11 0.548644 0.864146 0.978267
O O12 0.726800 0.883315 0.038921
O O13 0.500000 0.135150 0.750000
O O14 0.624705 0.156017 0.990564
O O15 0.159264 0.243694 0.616079
O O16 0.298093 0.320589 0.588522
O O17 0.294365 0.635594 0.822120
#
# Coordination Sequence:
#
# PCOD9294057 Si02
#       8
#     8   8   8   8   8   8   8   8
#     4  11  22  40  70  99 147 180 219 280 360 426
#     4  11  23  39  64 101 138 177 235 287 348 417
#     4  10  23  38  64 102 141 180 223 286 349 419
#     4  11  26  40  70 107 139 181 229 291 345 425
#     4  12  23  45  68 104 142 182 230 287 355 417
#     4  11  26  47  70  97 139 189 242 288 350 415
#     4  11  22  43  67 101 133 186 225 283 355 418
#     4  11  25  48  71  94 138 194 235 291 351 418
#
# _framework density 21.897862
#
# number of rings (size 3 to 8) (size 9 to 14) (size 15 to 20)
#    0.000    1.000    3.750    1.500   10.500    2.000 
#    4.500    0.000    0.000    0.000    0.000    0.000 
#    0.000    0.000    0.000    0.000    0.000    0.000 
#
# Total GULP energy -178840.960363 kJ/mol
# GULP energy per Si atom -5588.780011 kJ/mol
# Density = 2.184802 g / cm^3
# Si number density = 21.897862 Si / 1000 Ang^3
#
#
#
# Elastic Constant Matrix: (Units=GPa)
#
#
# Indices 1 2 3 4 5 6 
#
# 1 49.9263 4.4965 23.2289 0.0000 2.8732 0.0000
# 2 4.4965 101.2169 43.9889 0.0000 -6.0679 0.0000
# 3 23.2289 43.9889 122.2952 0.0000 -5.3555 0.0000
# 4 0.0000 0.0000 0.0000 30.8305 0.0000 -7.9079
# 5 2.8732 -6.0679 -5.3555 0.0000 28.1142 0.0000
# 6 0.0000 0.0000 0.0000 -7.9079 0.0000 20.9858
#
#
#
# Elastic Compliance Matrix: (Units=1/GPa)
#
#
# Indices 1 2 3 4 5 6 
#
# 1 0.022299 0.000863 -0.004677 0.000000 -0.002984 0.000000
# 2 0.000863 0.011829 -0.004347 0.000000 0.001637 0.000000
# 3 -0.004677 -0.004347 0.010698 0.000000 0.001578 0.000000
# 4 0.000000 0.000000 0.000000 0.035906 0.000000 0.013530
# 5 -0.002984 0.001637 0.001578 0.000000 0.036528 0.000000
# 6 0.000000 0.000000 0.000000 0.013530 0.000000 0.052750
#
#
# Mechanical properties :
#
#
# Convention : Reuss Voigt Hill
#
# Bulk Modulus (GPa) = 35.08185 46.31853 40.70019
# Shear Modulus (GPa) = 25.53207 29.43439 27.48323
#
# Velocity S-wave (km/s) = 3.41832 3.67027 3.54653
# Velocity P-wave (km/s) = 5.62453 6.25773 5.94956
#
# Compressibility (1/GPa) = 0.02850477
#
# Stress axis : x y z
#
# Youngs Moduli (GPa) = 44.84429 84.53975 93.47647
#
# Poissons Ratio (x) = -0.07296 0.43715
# Poissons Ratio (y) = -0.03870 0.40634
# Poissons Ratio (z) = 0.20972 0.36749
#
# Static dielectric constant tensor:
#      x y z
#    x 1.847560 0.000000 -0.019070 
#    y 0.000000 1.792290 0.000000 
#    z -0.019070 0.000000 1.846900 
# 
# From -- ./inp_files/42669.got.cif
#   From: 2010.05.17/outbox.cif.g08.bks.cpg/sg15_22_cif.got.tgz:42669.got - 2010.06.03 18:47:42.
