data_PCOD9294999
_publ_section_title
;
Structure prediction by ZEFSAII (Michael W. Deem and Ramdas Pophale) SiO2 
 PCOD9294999
Probable space group: C 2/C
;
_chemical_formula_sum "Si O2"
_cell_formula_units_Z 24
_cell_length_a 5.674964
_cell_length_b 23.845019
_cell_length_c 7.481986
_cell_angle_alpha 90.000000
_cell_angle_beta 68.287595
_cell_angle_gamma 90.000000
_cell_volume 940.628059
_symmetry_space_group_name_H-M "C 2/C"
_symmetry_group_IT_number 15
_symmetry_cell_setting 'monoclinic'
loop_
_space_group_symop_operation_xyz
x,y,z
-x,y,1/2-z
-x,-y,-z
x,-y,1/2+z
1/2+x,1/2+y,z
1/2-x,1/2+y,1/2-z
1/2-x,1/2-y,-z
1/2+x,1/2-y,1/2+z
loop_
_atom_site_type_symbol
_atom_site_label
_atom_site_fract_x
_atom_site_fract_y
_atom_site_fract_z
Si Si1 0.000000 0.461101 0.250000
Si Si2 0.500000 0.244786 0.250000
Si Si3 0.782876 0.570070 0.445627
Si Si4 0.532382 0.323685 0.951750
O O1 0.213612 0.504507 0.112131
O O2 0.113424 0.428008 0.383135
O O3 0.624698 0.286666 0.363064
O O4 0.689426 0.202968 0.095476
O O5 0.543674 0.610232 0.489082
O O6 0.000000 0.592037 0.250000
O O7 0.500000 0.316655 0.750000
#
# Coordination Sequence:
#
# PCOD9294999 Si02
#       4
#     4   4   8   8
#     4   8  17  34  60  84 112 154 187 228 290 340
#     4  10  23  42  56  86 118 156 187 240 294 332
#     4   9  17  35  59  84 111 153 188 230 286 337
#     4  11  22  39  61  87 116 151 195 237 287 344
#
# _framework density 25.514868
#
# number of rings (size 3 to 8) (size 9 to 14) (size 15 to 20)
#    1.000    1.333    1.667    1.000    0.000    2.667 
#   12.000    1.667    0.000    0.000    0.000    0.000 
#    0.000    0.000    0.000    0.000    0.000    0.000 
#
# Total GULP energy -66916.330470 kJ/mol
# GULP energy per Si atom -5576.360873 kJ/mol
# Density = 2.545679 g / cm^3
# Si number density = 25.514868 Si / 1000 Ang^3
#
#
#
# Elastic Constant Matrix: (Units=GPa)
#
#
# Indices 1 2 3 4 5 6 
#
# 1 17.7682 21.9220 36.5647 0.0000 14.5022 0.0000
# 2 21.9220 113.8257 38.4983 0.0000 14.0612 0.0000
# 3 36.5647 38.4983 159.4659 0.0000 47.6902 0.0000
# 4 0.0000 0.0000 0.0000 32.1904 0.0000 5.7455
# 5 14.5022 14.0612 47.6902 0.0000 56.4330 0.0000
# 6 0.0000 0.0000 0.0000 5.7455 0.0000 26.1486
#
#
#
# Elastic Compliance Matrix: (Units=1/GPa)
#
#
# Indices 1 2 3 4 5 6 
#
# 1 0.133453 -0.016467 -0.023546 0.000000 -0.010293 0.000000
# 2 -0.016467 0.011612 0.000766 0.000000 0.000691 0.000000
# 3 -0.023546 0.000766 0.013024 0.000000 -0.005146 0.000000
# 4 0.000000 0.000000 0.000000 0.032333 0.000000 -0.007104
# 5 -0.010293 0.000691 -0.005146 0.000000 0.024542 0.000000
# 6 0.000000 0.000000 0.000000 -0.007104 0.000000 0.039804
#
#
# Mechanical properties :
#
#
# Convention : Reuss Voigt Hill
#
# Bulk Modulus (GPa) = 12.56366 53.89220 33.22793
# Shear Modulus (GPa) = 13.89680 35.89272 24.89476
#
# Velocity S-wave (km/s) = 2.33632 3.75472 3.12700
# Velocity P-wave (km/s) = 3.49465 6.32178 5.10772
#
# Compressibility (1/GPa) = 0.07959464
#
# Stress axis : x y z
#
# Youngs Moduli (GPa) = 7.49329 86.11478 76.78009
#
# Poissons Ratio (x) = 1.41802 1.80788
# Poissons Ratio (y) = 0.12339 -0.05878
# Poissons Ratio (z) = 0.17644 -0.06592
#
# Static dielectric constant tensor:
#      x y z
#    x 2.046210 0.000000 -0.059950 
#    y 0.000000 2.014280 0.000000 
#    z -0.059950 0.000000 2.055590 
# 
# From -- ./inp_files/19495.got.cif
#   From: 2010.05.17/outbox.cif.g08.bks.cpg/sg15_10_cif.got.tgz:19495.got - 2010.06.03 18:47:42.
