data_PCOD9294692
_publ_section_title
;
Structure prediction by ZEFSAII (Michael W. Deem and Ramdas Pophale) SiO2 
 PCOD9294692
Probable space group: C 2/C
;
_chemical_formula_sum "Si O2"
_cell_formula_units_Z 64
_cell_length_a 21.479628
_cell_length_b 20.085351
_cell_length_c 8.077970
_cell_angle_alpha 90.000000
_cell_angle_beta 55.598528
_cell_angle_gamma 90.000000
_cell_volume 2875.507265
_symmetry_space_group_name_H-M "C 2/C"
_symmetry_group_IT_number 15
_symmetry_cell_setting 'monoclinic'
loop_
_space_group_symop_operation_xyz
x,y,z
-x,y,1/2-z
-x,-y,-z
x,-y,1/2+z
1/2+x,1/2+y,z
1/2-x,1/2+y,1/2-z
1/2-x,1/2-y,-z
1/2+x,1/2-y,1/2+z
loop_
_atom_site_type_symbol
_atom_site_label
_atom_site_fract_x
_atom_site_fract_y
_atom_site_fract_z
Si Si1 0.090811 0.171320 0.091255
Si Si2 0.308784 0.777165 0.042838
Si Si3 0.720479 0.409946 0.549518
Si Si4 0.491377 0.834476 0.063148
Si Si5 0.668910 0.800600 0.135602
Si Si6 0.702554 0.004025 0.835835
Si Si7 0.878505 0.412626 0.798475
Si Si8 0.441929 0.300293 0.210828
O O1 0.127285 0.242021 0.096102
O O2 0.000000 0.169029 0.250000
O O3 0.138663 0.118053 0.124813
O O4 0.097729 0.162638 0.882533
O O5 0.337545 0.847240 0.929372
O O6 0.379112 0.727821 0.926569
O O7 0.250000 0.750000 0.000000
O O8 0.285077 0.778403 0.269837
O O9 0.774598 0.351125 0.537382
O O10 0.730670 0.472234 0.654904
O O11 0.761412 0.436475 0.322716
O O12 0.500000 0.837140 0.250000
O O13 0.402049 0.840128 0.177874
O O14 0.541108 0.889476 0.894198
O O15 0.518788 0.764145 0.939818
O O16 0.670256 0.945352 0.772901
O O17 0.631419 0.031528 0.046522
O O18 0.500000 0.334746 0.250000
#
# Coordination Sequence:
#
# PCOD9294692 Si02
#       8
#     8   8   8   8   8   8   8   8
#     4  12  24  42  67 103 132 167 213 265 344 414
#     4  11  23  35  60  96 126 165 213 258 332 391
#     4  11  25  43  69  92 128 176 222 274 325 380
#     4  11  20  38  60  92 131 172 202 251 326 391
#     4  12  21  41  64  99 137 165 208 265 336 405
#     4  10  23  47  62  89 128 175 233 274 306 372
#     4  10  23  41  64  88 128 174 219 270 317 370
#     4  11  20  37  57  90 139 163 192 256 323 402
#
# _framework density 22.256941000000001
#
# number of rings (size 3 to 8) (size 9 to 14) (size 15 to 20)
#    0.000    1.000    5.000    1.875    3.500    0.000 
#    0.000    7.500    0.000    0.000    0.000    0.000 
#    0.000    0.000    0.000    0.000    0.000    0.000 
#
# Total GULP energy -178651.515750 kJ/mol
# GULP energy per Si atom -5582.859867 kJ/mol
# Density = 2.220628 g / cm^3
# Si number density = 22.256941 Si / 1000 Ang^3
#
#
#
# Elastic Constant Matrix: (Units=GPa)
#
#
# Indices 1 2 3 4 5 6 
#
# 1 125.0300 41.6450 19.2174 0.0000 -3.8216 0.0000
# 2 41.6450 62.3323 14.0933 0.0000 -2.8853 0.0000
# 3 19.2174 14.0933 47.4569 0.0000 2.0441 0.0000
# 4 0.0000 0.0000 0.0000 17.3007 0.0000 1.8231
# 5 -3.8216 -2.8853 2.0441 0.0000 45.0284 0.0000
# 6 0.0000 0.0000 0.0000 1.8231 0.0000 34.1914
#
#
#
# Elastic Compliance Matrix: (Units=1/GPa)
#
#
# Indices 1 2 3 4 5 6 
#
# 1 0.010538 -0.006478 -0.002369 0.000000 0.000587 0.000000
# 2 -0.006478 0.021260 -0.003733 0.000000 0.000982 0.000000
# 3 -0.002369 -0.003733 0.023204 0.000000 -0.001494 0.000000
# 4 0.000000 0.000000 0.000000 0.058128 0.000000 -0.003099
# 5 0.000587 0.000982 -0.001494 0.000000 0.022389 0.000000
# 6 0.000000 0.000000 0.000000 -0.003099 0.000000 0.029412
#
#
# Mechanical properties :
#
#
# Convention : Reuss Voigt Hill
#
# Bulk Modulus (GPa) = 33.50843 42.74784 38.12814
# Shear Modulus (GPa) = 24.99539 29.96169 27.47854
#
# Velocity S-wave (km/s) = 3.35481 3.67300 3.51751
# Velocity P-wave (km/s) = 5.48583 6.10214 5.80217
#
# Compressibility (1/GPa) = 0.02984323
#
# Stress axis : x y z
#
# Youngs Moduli (GPa) = 94.89771 47.03611 43.09625
#
# Poissons Ratio (x) = 0.30468 0.10209
# Poissons Ratio (y) = 0.61471 0.16087
# Poissons Ratio (z) = 0.22479 0.17558
#
# Static dielectric constant tensor:
#      x y z
#    x 1.889600 0.000000 0.015350 
#    y 0.000000 1.838090 0.000000 
#    z 0.015350 0.000000 1.884490 
# 
# From -- ./inp_files/57870.got.cif
#   From: 2010.05.17/outbox.cif.g08.bks.cpg/sg15_29_cif.got.tgz:57870.got - 2010.06.03 18:47:42.
