data_PCOD9294674
_publ_section_title
;
Structure prediction by ZEFSAII (Michael W. Deem and Ramdas Pophale) SiO2 
 PCOD9294674
Probable space group: C 2/C
;
_chemical_formula_sum "Si O2"
_cell_formula_units_Z 56
_cell_length_a 12.849689
_cell_length_b 11.764261
_cell_length_c 27.349975
_cell_angle_alpha 90.000000
_cell_angle_beta 32.242176
_cell_angle_gamma 90.000000
_cell_volume 2205.707042
_symmetry_space_group_name_H-M "C 2/C"
_symmetry_group_IT_number 15
_symmetry_cell_setting 'monoclinic'
loop_
_space_group_symop_operation_xyz
x,y,z
-x,y,1/2-z
-x,-y,-z
x,-y,1/2+z
1/2+x,1/2+y,z
1/2-x,1/2+y,1/2-z
1/2-x,1/2-y,-z
1/2+x,1/2-y,1/2+z
loop_
_atom_site_type_symbol
_atom_site_label
_atom_site_fract_x
_atom_site_fract_y
_atom_site_fract_z
Si Si1 0.277772 0.004963 0.533668
Si Si2 0.995418 0.192166 0.823593
Si Si3 0.700187 0.254276 0.602774
Si Si4 0.966259 0.060200 0.460625
Si Si5 0.894953 0.563211 0.247759
Si Si6 0.191980 0.487142 0.324577
Si Si7 0.719059 0.258307 0.707850
O O1 0.223858 0.886675 0.581033
O O2 0.166054 0.008664 0.525598
O O3 0.507122 0.995422 0.433155
O O4 0.196619 0.115421 0.594369
O O5 0.985744 0.319149 0.806583
O O6 0.092998 0.216870 0.837740
O O7 0.159136 0.116984 0.730569
O O8 0.734989 0.224050 0.645615
O O9 0.473417 0.225099 0.685744
O O10 0.849254 0.177621 0.513681
O O11 0.173347 0.082419 0.352604
O O12 0.000000 0.000000 0.500000
O O13 0.885394 0.500369 0.200266
O O14 0.000000 0.498503 0.250000
O O15 0.301888 0.605903 0.287131
#
# Coordination Sequence:
#
# PCOD9294674 Si02
#       7
#     8   8   8   8   8   8   8
#     4  12  23  40  69  95 130 185 223 279 345 407
#     4  11  22  43  65  93 136 178 222 281 340 409
#     4  11  23  41  66  97 133 174 233 277 338 411
#     4  12  24  43  67 100 134 176 236 283 343 411
#     4  11  25  42  65  98 136 173 223 285 341 402
#     4  11  23  43  66  93 136 172 227 277 342 408
#     4  10  23  41  63  96 133 176 218 282 338 403
#
# _framework density 25.388684000000001
#
# number of rings (size 3 to 8) (size 9 to 14) (size 15 to 20)
#    0.000    0.857    2.857    4.714    0.000    5.143 
#    0.000    0.000    0.000    0.000    0.000    0.000 
#    0.000    0.000    0.000    0.000    0.000    0.000 
#
# Total GULP energy -156914.519595 kJ/mol
# GULP energy per Si atom -5604.089986 kJ/mol
# Density = 2.533090 g / cm^3
# Si number density = 25.388684 Si / 1000 Ang^3
#
#
#
# Elastic Constant Matrix: (Units=GPa)
#
#
# Indices 1 2 3 4 5 6 
#
# 1 78.0715 0.9895 8.0043 0.0000 11.2208 -0.0001
# 2 0.9895 118.0245 23.1042 -0.0004 13.6053 0.0000
# 3 8.0043 23.1042 144.2881 -0.0010 3.5434 0.0001
# 4 0.0000 -0.0004 -0.0010 38.4935 0.0002 -0.9718
# 5 11.2208 13.6053 3.5434 0.0002 23.8131 0.0000
# 6 -0.0001 0.0000 0.0001 -0.9718 0.0000 3.0832
#
#
#
# Elastic Compliance Matrix: (Units=1/GPa)
#
#
# Indices 1 2 3 4 5 6 
#
# 1 0.013864 0.000822 -0.000731 0.000000 -0.006893 0.000000
# 2 0.000822 0.009380 -0.001412 0.000000 -0.005536 0.000000
# 3 -0.000731 -0.001412 0.007195 0.000000 0.000081 0.000000
# 4 0.000000 0.000000 0.000000 0.026187 0.000000 0.008254
# 5 -0.006893 -0.005536 0.000081 0.000000 0.048393 -0.000001
# 6 0.000000 0.000000 0.000000 0.008254 -0.000001 0.326936
#
#
# Mechanical properties :
#
#
# Convention : Reuss Voigt Hill
#
# Bulk Modulus (GPa) = 35.97525 44.95332 40.46428
# Shear Modulus (GPa) = 11.26469 33.63037 22.44753
#
# Velocity S-wave (km/s) = 2.10868 3.64348 2.97670
# Velocity P-wave (km/s) = 4.48656 5.95352 5.27132
#
# Compressibility (1/GPa) = 0.02779689
#
# Stress axis : x y z
#
# Youngs Moduli (GPa) = 72.12871 106.60419 138.98115
#
# Poissons Ratio (x) = -0.08758 0.10165
# Poissons Ratio (y) = -0.05926 0.19620
# Poissons Ratio (z) = 0.05275 0.15049
#
# Static dielectric constant tensor:
#      x y z
#    x 2.029140 0.000000 0.014900 
#    y 0.000000 2.029560 0.000000 
#    z 0.014900 0.000000 2.014610 
# 
# From -- ./inp_files/313732.got.cif
#   From: 2010.05.17/outbox.cif.g08.bks.cpg/sg15_157_cif.got.tgz:313732.got - 2010.06.03 18:47:42.
