data_PCOD9294222
_publ_section_title
;
Structure prediction by ZEFSAII (Michael W. Deem and Ramdas Pophale) SiO2 
 PCOD9294222
Probable space group: C 2/C
;
_chemical_formula_sum "Si O2"
_cell_formula_units_Z 60
_cell_length_a 14.012391
_cell_length_b 13.686161
_cell_length_c 13.692400
_cell_angle_alpha 90.000000
_cell_angle_beta 92.460283
_cell_angle_gamma 90.000000
_cell_volume 2623.451020
_symmetry_space_group_name_H-M "C 2/C"
_symmetry_group_IT_number 15
_symmetry_cell_setting 'monoclinic'
loop_
_space_group_symop_operation_xyz
x,y,z
-x,y,1/2-z
-x,-y,-z
x,-y,1/2+z
1/2+x,1/2+y,z
1/2-x,1/2+y,1/2-z
1/2-x,1/2-y,-z
1/2+x,1/2-y,1/2+z
loop_
_atom_site_type_symbol
_atom_site_label
_atom_site_fract_x
_atom_site_fract_y
_atom_site_fract_z
Si Si1 0.229162 0.080278 0.719557
Si Si2 0.105187 0.507427 0.896770
Si Si3 0.921290 0.878011 0.443125
Si Si4 0.254253 0.641491 0.457213
Si Si5 0.500000 0.895081 0.750000
Si Si6 0.164399 0.682127 0.037796
Si Si7 0.108006 0.022777 0.896105
Si Si8 0.206876 0.689879 0.248951
O O1 0.330956 0.034286 0.697025
O O2 0.172086 0.081619 0.615329
O O3 0.167598 0.027447 0.799793
O O4 0.232283 0.195395 0.745992
O O5 0.156313 0.420244 0.958696
O O6 0.007706 0.465642 0.846259
O O7 0.119222 0.602249 0.964802
O O8 0.916741 0.761690 0.441303
O O9 0.009170 0.918923 0.385771
O O10 0.918820 0.920683 0.552709
O O11 0.250000 0.750000 0.500000
O O12 0.331962 0.583177 0.521186
O O13 0.268788 0.648360 0.340810
O O14 0.405532 0.828991 0.733996
O O15 0.210976 0.644853 0.140662
O O16 0.250000 0.750000 0.000000
#
# Coordination Sequence:
#
# PCOD9294222 Si02
#       8
#     8   8   8   8   4   8   8   8
#     4  11  21  41  71  91 131 179 223 272 336 411
#     4  11  24  46  67 104 134 181 229 280 350 412
#     4  10  23  39  64  99 125 172 224 278 337 403
#     4  11  22  40  63  96 131 169 220 276 333 409
#     4  10  26  44  66 102 144 168 240 284 338 428
#     4  11  21  43  67  94 134 182 226 273 342 421
#     4  11  22  41  64  96 134 166 225 281 332 401
#     4  10  23  40  66  94 128 182 217 276 340 403
#
# _framework density 22.870639000000001
#
# number of rings (size 3 to 8) (size 9 to 14) (size 15 to 20)
#    0.000    1.333    5.333    0.400    3.733    4.800 
#    2.400    1.333    2.933    0.000    0.000    0.000 
#    0.000    0.000    0.000    0.000    0.000    0.000 
#
# Total GULP energy -167481.979881 kJ/mol
# GULP energy per Si atom -5582.732663 kJ/mol
# Density = 2.281858 g / cm^3
# Si number density = 22.870639 Si / 1000 Ang^3
#
#
#
# Elastic Constant Matrix: (Units=GPa)
#
#
# Indices 1 2 3 4 5 6 
#
# 1 55.0266 8.0947 0.2746 0.0000 5.0089 0.0000
# 2 8.0947 122.2143 25.1347 0.0000 7.0627 0.0000
# 3 0.2746 25.1347 87.7596 0.0000 -15.3561 0.0000
# 4 0.0000 0.0000 0.0000 39.5086 0.0000 2.4576
# 5 5.0089 7.0627 -15.3561 0.0000 38.9471 0.0000
# 6 0.0000 0.0000 0.0000 2.4576 0.0000 26.7412
#
#
#
# Elastic Compliance Matrix: (Units=1/GPa)
#
#
# Indices 1 2 3 4 5 6 
#
# 1 0.018535 -0.001068 -0.000145 0.000000 -0.002247 0.000000
# 2 -0.001068 0.009039 -0.003059 0.000000 -0.002708 0.000000
# 3 -0.000145 -0.003059 0.013289 0.000000 0.005813 0.000000
# 4 0.000000 0.000000 0.000000 0.025456 0.000000 -0.002340
# 5 -0.002247 -0.002708 0.005813 0.000000 0.028748 0.000000
# 6 0.000000 0.000000 0.000000 -0.002340 0.000000 0.037611
#
#
# Mechanical properties :
#
#
# Convention : Reuss Voigt Hill
#
# Bulk Modulus (GPa) = 30.94283 36.88983 33.91633
# Shear Modulus (GPa) = 32.89579 36.47248 34.68413
#
# Velocity S-wave (km/s) = 3.79666 3.99774 3.89850
# Velocity P-wave (km/s) = 5.72524 6.12160 5.92674
#
# Compressibility (1/GPa) = 0.03231766
#
# Stress axis : x y z
#
# Youngs Moduli (GPa) = 53.95071 110.63497 75.25291
#
# Poissons Ratio (x) = 0.11814 0.01094
# Poissons Ratio (y) = 0.05761 0.23022
# Poissons Ratio (z) = 0.00784 0.33846
#
# Static dielectric constant tensor:
#      x y z
#    x 1.905120 0.000000 -0.063570 
#    y 0.000000 1.910750 0.000000 
#    z -0.063570 0.000000 1.905920 
# 
# From -- ./inp_files/153957.got.cif
#   From: 2010.05.17/outbox.cif.g08.bks.cpg/sg15_77_cif.got.tgz:153957.got - 2010.06.03 18:47:42.
