data_PCOD9294953
_publ_section_title
;
Structure prediction by ZEFSAII (Michael W. Deem and Ramdas Pophale) SiO2 
 PCOD9294953
Probable space group: C 2/C
;
_chemical_formula_sum "Si O2"
_cell_formula_units_Z 48
_cell_length_a 24.958489
_cell_length_b 11.514895
_cell_length_c 8.571341
_cell_angle_alpha 90.000000
_cell_angle_beta 113.856742
_cell_angle_gamma 90.000000
_cell_volume 2252.885114
_symmetry_space_group_name_H-M "C 2/C"
_symmetry_group_IT_number 15
_symmetry_cell_setting 'monoclinic'
loop_
_space_group_symop_operation_xyz
x,y,z
-x,y,1/2-z
-x,-y,-z
x,-y,1/2+z
1/2+x,1/2+y,z
1/2-x,1/2+y,1/2-z
1/2-x,1/2-y,-z
1/2+x,1/2-y,1/2+z
loop_
_atom_site_type_symbol
_atom_site_label
_atom_site_fract_x
_atom_site_fract_y
_atom_site_fract_z
Si Si1 0.378171 0.034270 0.608128
Si Si2 0.363827 0.361461 0.320302
Si Si3 0.774717 0.683548 0.377698
Si Si4 0.468049 0.209808 0.553102
Si Si5 0.343311 0.614738 0.430563
Si Si6 0.586627 0.840210 0.040739
O O1 0.314353 0.074138 0.476237
O O2 0.426614 0.106185 0.566285
O O3 0.385838 0.078114 0.792749
O O4 0.393311 0.900346 0.596203
O O5 0.317218 0.273486 0.341151
O O6 0.427259 0.305962 0.427567
O O7 0.359508 0.486509 0.395159
O O8 0.349364 0.376261 0.122541
O O9 0.750000 0.750000 0.500000
O O10 0.721440 0.644446 0.206764
O O11 0.500000 0.252779 0.750000
O O12 0.517794 0.165982 0.493506
O O13 0.386315 0.712810 0.411221
#
# Coordination Sequence:
#
# PCOD9294953 Si02
#       6
#     8   8   8   8   8   8
#     4  10  23  41  70  99 139 178 228 291 347 416
#     4  11  27  47  69 102 143 185 240 292 350 416
#     4  11  23  46  72  99 141 187 230 289 352 418
#     4   9  22  46  71  97 138 185 235 291 353 413
#     4  12  27  44  71 103 142 187 237 284 350 425
#     4  11  24  43  70 105 139 182 234 285 358 414
#
# _framework density 21.306013
#
# number of rings (size 3 to 8) (size 9 to 14) (size 15 to 20)
#    0.000    1.333    1.667    2.000   11.667    2.667 
#    0.000    0.000    0.000    0.000    0.000    0.000 
#    0.000    0.000    0.000    0.000    0.000    0.000 
#
# Total GULP energy -134380.457512 kJ/mol
# GULP energy per Si atom -5599.185730 kJ/mol
# Density = 2.125752 g / cm^3
# Si number density = 21.306013 Si / 1000 Ang^3
#
#
#
# Elastic Constant Matrix: (Units=GPa)
#
#
# Indices 1 2 3 4 5 6 
#
# 1 74.1416 9.6290 35.0601 0.0000 12.2944 0.0000
# 2 9.6290 85.0567 33.1511 0.0000 9.2639 0.0000
# 3 35.0601 33.1511 133.0564 0.0000 11.7899 0.0000
# 4 0.0000 0.0000 0.0000 32.6952 0.0000 -8.0582
# 5 12.2944 9.2639 11.7899 0.0000 36.1408 0.0000
# 6 0.0000 0.0000 0.0000 -8.0582 0.0000 2.1264
#
#
#
# Elastic Compliance Matrix: (Units=1/GPa)
#
#
# Indices 1 2 3 4 5 6 
#
# 1 0.016002 0.000161 -0.003883 0.000000 -0.004218 0.000000
# 2 0.000161 0.013219 -0.003121 0.000000 -0.002425 0.000000
# 3 -0.003883 -0.003121 0.009400 0.000000 -0.000946 0.000000
# 4 0.000000 0.000000 0.000000 0.463471 0.000000 1.756377
# 5 -0.004218 -0.002425 -0.000946 0.000000 0.030035 0.000000
# 6 0.000000 0.000000 0.000000 1.756377 0.000000 7.126265
#
#
# Mechanical properties :
#
#
# Convention : Reuss Voigt Hill
#
# Bulk Modulus (GPa) = 40.10262 49.77058 44.93660
# Shear Modulus (GPa) = 0.65101 28.48677 14.56889
#
# Velocity S-wave (km/s) = 0.55337 3.66051 2.61778
# Velocity P-wave (km/s) = 4.38992 6.42467 5.50217
#
# Compressibility (1/GPa) = 0.02493602
#
# Stress axis : x y z
#
# Youngs Moduli (GPa) = 62.49034 75.64734 106.38059
#
# Poissons Ratio (x) = -0.01220 0.41308
# Poissons Ratio (y) = -0.01008 0.33203
# Poissons Ratio (z) = 0.24265 0.23611
#
# Static dielectric constant tensor:
#      x y z
#    x 1.748120 0.000000 -0.017840 
#    y 0.000000 1.754860 0.000000 
#    z -0.017840 0.000000 1.779380 
# 
# From -- ./inp_files/65242.got.cif
#   From: 2010.05.17/outbox.cif.g08.bks.cpg/sg15_33_cif.got.tgz:65242.got - 2010.06.03 18:47:42.
