data_PCOD9294607
_publ_section_title
;
Structure prediction by ZEFSAII (Michael W. Deem and Ramdas Pophale) SiO2 
 PCOD9294607
Probable space group: C 2/C
;
_chemical_formula_sum "Si O2"
_cell_formula_units_Z 40
_cell_length_a 7.881109
_cell_length_b 17.360747
_cell_length_c 18.702046
_cell_angle_alpha 90.000000
_cell_angle_beta 138.326454
_cell_angle_gamma 90.000000
_cell_volume 1701.342536
_symmetry_space_group_name_H-M "C 2/C"
_symmetry_group_IT_number 15
_symmetry_cell_setting 'monoclinic'
loop_
_space_group_symop_operation_xyz
x,y,z
-x,y,1/2-z
-x,-y,-z
x,-y,1/2+z
1/2+x,1/2+y,z
1/2-x,1/2+y,1/2-z
1/2-x,1/2-y,-z
1/2+x,1/2-y,1/2+z
loop_
_atom_site_type_symbol
_atom_site_label
_atom_site_fract_x
_atom_site_fract_y
_atom_site_fract_z
Si Si1 0.791261 0.628807 0.033568
Si Si2 0.904917 0.229544 0.836141
Si Si3 0.122340 0.291364 0.392441
Si Si4 0.826487 0.465154 0.055913
Si Si5 0.735432 0.452026 0.869877
O O1 0.893552 0.700999 0.111564
O O2 0.031586 0.606982 0.059887
O O3 0.571124 0.655417 0.910786
O O4 0.750694 0.548879 0.064591
O O5 0.683806 0.219263 0.708321
O O6 0.748974 0.242337 0.860909
O O7 0.250000 0.250000 0.500000
O O8 0.189141 0.382719 0.413057
O O9 0.675342 0.465128 0.933100
O O10 0.125423 0.476923 0.126672
O O11 0.500000 0.425221 0.750000
#
# Coordination Sequence:
#
# PCOD9294607 Si02
#       5
#     8   8   8   8   8
#     4   9  20  39  61  86 124 162 201 251 309 358
#     4  10  23  41  60  88 127 160 198 261 306 365
#     4  11  24  39  63  92 121 162 204 253 313 365
#     4   9  21  34  59  92 111 160 204 247 296 366
#     4   9  19  34  63  88 117 157 202 252 294 361
#
# _framework density 23.510846000000001
#
# number of rings (size 3 to 8) (size 9 to 14) (size 15 to 20)
#    1.200    1.200    0.000    1.200    8.400    0.800 
#    0.000    8.000    0.000    0.000    0.000    0.000 
#    0.000    0.000    0.000    0.000    0.000    0.000 
#
# Total GULP energy -111416.385772 kJ/mol
# GULP energy per Si atom -5570.819289 kJ/mol
# Density = 2.345733 g / cm^3
# Si number density = 23.510846 Si / 1000 Ang^3
#
#
#
# Elastic Constant Matrix: (Units=GPa)
#
#
# Indices 1 2 3 4 5 6 
#
# 1 33.8298 13.3813 24.4812 -0.0003 2.4429 -0.0004
# 2 13.3813 161.2817 36.7265 -0.0001 4.2189 -0.0001
# 3 24.4812 36.7265 179.7285 -0.0006 27.5975 -0.0003
# 4 -0.0003 -0.0001 -0.0006 7.9097 -0.0004 2.7624
# 5 2.4429 4.2189 27.5975 -0.0004 21.2341 -0.0003
# 6 -0.0004 -0.0001 -0.0003 2.7624 -0.0003 25.7370
#
#
#
# Elastic Compliance Matrix: (Units=1/GPa)
#
#
# Indices 1 2 3 4 5 6 
#
# 1 0.033391 -0.001797 -0.004555 0.000001 0.002436 0.000000
# 2 -0.001797 0.006605 -0.001168 0.000000 0.000413 0.000000
# 3 -0.004555 -0.001168 0.007880 0.000000 -0.009485 0.000000
# 4 0.000001 0.000000 0.000000 0.131350 0.000002 -0.014098
# 5 0.002436 0.000413 -0.009485 0.000002 0.059059 0.000000
# 6 0.000000 0.000000 0.000000 -0.014098 0.000000 0.040368
#
#
# Mechanical properties :
#
#
# Convention : Reuss Voigt Hill
#
# Bulk Modulus (GPa) = 30.45559 58.22422 44.33990
# Shear Modulus (GPa) = 16.41296 30.99290 23.70293
#
# Velocity S-wave (km/s) = 2.64503 3.63469 3.17861
# Velocity P-wave (km/s) = 4.72337 6.51408 5.68962
#
# Compressibility (1/GPa) = 0.03283470
#
# Stress axis : x y z
#
# Youngs Moduli (GPa) = 29.94832 151.40860 126.91133
#
# Poissons Ratio (x) = 0.27206 0.57809
# Poissons Ratio (y) = 0.05381 0.14827
# Poissons Ratio (z) = 0.13642 0.17689
#
# Static dielectric constant tensor:
#      x y z
#    x 1.953630 0.000000 0.046040 
#    y 0.000000 2.011110 0.000000 
#    z 0.046040 0.000000 1.875990 
# 
# From -- ./inp_files/232932.got.cif
#   From: 2010.05.17/outbox.cif.g08.bks.cpg/sg15_117_cif.got.tgz:232932.got - 2010.06.03 18:47:42.
