data_PCOD9294049
_publ_section_title
;
Structure prediction by ZEFSAII (Michael W. Deem and Ramdas Pophale) SiO2 
 PCOD9294049
Probable space group: C 2/C
;
_chemical_formula_sum "Si O2"
_cell_formula_units_Z 40
_cell_length_a 6.535845
_cell_length_b 18.322840
_cell_length_c 13.658219
_cell_angle_alpha 90.000000
_cell_angle_beta 102.988195
_cell_angle_gamma 90.000000
_cell_volume 1593.797667
_symmetry_space_group_name_H-M "C 2/C"
_symmetry_group_IT_number 15
_symmetry_cell_setting 'monoclinic'
loop_
_space_group_symop_operation_xyz
x,y,z
-x,y,1/2-z
-x,-y,-z
x,-y,1/2+z
1/2+x,1/2+y,z
1/2-x,1/2+y,1/2-z
1/2-x,1/2-y,-z
1/2+x,1/2-y,1/2+z
loop_
_atom_site_type_symbol
_atom_site_label
_atom_site_fract_x
_atom_site_fract_y
_atom_site_fract_z
Si Si1 0.926688 0.914131 0.853919
Si Si2 0.500000 0.097518 0.250000
Si Si3 0.000000 0.668136 0.750000
Si Si4 0.908666 0.919828 0.348728
Si Si5 0.799721 0.315315 0.432777
Si Si6 0.384627 0.929311 0.945778
O O1 0.870634 0.997319 0.879277
O O2 0.000000 0.904994 0.750000
O O3 0.706953 0.869206 0.825886
O O4 0.142574 0.905967 0.937725
O O5 0.599363 0.056205 0.169210
O O6 0.813184 0.620418 0.682952
O O7 0.881814 0.705160 0.831092
O O8 0.000000 0.932736 0.250000
O O9 0.094496 0.868161 0.409283
O O10 0.750000 0.250000 0.500000
O O11 0.984133 0.362019 0.500695
O O12 0.500000 0.000000 0.000000
#
# Coordination Sequence:
#
# PCOD9294049 Si02
#       6
#     8   4   4   8   8   8
#     4   9  18  35  63  98 137 176 226 289 362 429
#     4  10  23  38  62  98 148 174 223 304 366 419
#     4  10  23  42  72 100 132 194 241 290 362 431
#     4   9  18  36  64 101 133 176 238 293 346 429
#     4  11  25  45  69 100 141 186 246 300 351 433
#     4  11  23  40  65 102 136 186 235 291 365 427
#
# _framework density 25.097287999999999
#
# number of rings (size 3 to 8) (size 9 to 14) (size 15 to 20)
#    0.000    2.000    2.000    0.600    5.600    3.200 
#    5.400    0.000    4.400    0.000    0.000    0.000 
#    0.000    0.000    0.000    0.000    0.000    0.000 
#
# Total GULP energy -111462.943884 kJ/mol
# GULP energy per Si atom -5573.147194 kJ/mol
# Density = 2.504017 g / cm^3
# Si number density = 25.097288 Si / 1000 Ang^3
#
#
#
# Elastic Constant Matrix: (Units=GPa)
#
#
# Indices 1 2 3 4 5 6 
#
# 1 235.6954 50.2821 65.8255 0.0000 43.9566 0.0000
# 2 50.2821 95.9015 42.4161 0.0000 15.8752 0.0000
# 3 65.8255 42.4161 123.1088 0.0000 -4.4419 0.0000
# 4 0.0000 0.0000 0.0000 22.1082 0.0000 -6.8445
# 5 43.9566 15.8752 -4.4419 0.0000 86.9208 0.0000
# 6 0.0000 0.0000 0.0000 -6.8445 0.0000 10.4527
#
#
#
# Elastic Compliance Matrix: (Units=1/GPa)
#
#
# Indices 1 2 3 4 5 6 
#
# 1 0.005833 -0.001373 -0.002748 0.000000 -0.002839 0.000000
# 2 -0.001373 0.013177 -0.003875 0.000000 -0.001911 0.000000
# 3 -0.002748 -0.003875 0.011023 0.000000 0.002661 0.000000
# 4 0.000000 0.000000 0.000000 0.056733 0.000000 0.037149
# 5 -0.002839 -0.001911 0.002661 0.000000 0.013426 0.000000
# 6 0.000000 0.000000 0.000000 0.037149 0.000000 0.119994
#
#
# Mechanical properties :
#
#
# Convention : Reuss Voigt Hill
#
# Bulk Modulus (GPa) = 71.21738 85.75034 78.48386
# Shear Modulus (GPa) = 20.75908 43.64180 32.20044
#
# Velocity S-wave (km/s) = 2.87913 4.17454 3.58582
# Velocity P-wave (km/s) = 6.28416 7.58136 6.96304
#
# Compressibility (1/GPa) = 0.01404152
#
# Stress axis : x y z
#
# Youngs Moduli (GPa) = 171.44866 75.88854 90.71539
#
# Poissons Ratio (x) = 0.10416 0.24931
# Poissons Ratio (y) = 0.23533 0.35153
# Poissons Ratio (z) = 0.47118 0.29408
#
# Static dielectric constant tensor:
#      x y z
#    x 2.125200 0.000000 -0.076020 
#    y 0.000000 1.936980 0.000000 
#    z -0.076020 0.000000 2.102250 
# 
# From -- ./inp_files/129183.got.cif
#   From: 2010.05.17/outbox.cif.g08.bks.cpg/sg15_65_cif.got.tgz:129183.got - 2010.06.03 18:47:42.
