data_PCOD9294254
_publ_section_title
;
Structure prediction by ZEFSAII (Michael W. Deem and Ramdas Pophale) SiO2 
 PCOD9294254
Probable space group: C 2/C
;
_chemical_formula_sum "Si O2"
_cell_formula_units_Z 48
_cell_length_a 13.189943
_cell_length_b 14.139942
_cell_length_c 22.093914
_cell_angle_alpha 90.000000
_cell_angle_beta 29.863924
_cell_angle_gamma 90.000000
_cell_volume 2051.831979
_symmetry_space_group_name_H-M "C 2/C"
_symmetry_group_IT_number 15
_symmetry_cell_setting 'monoclinic'
loop_
_space_group_symop_operation_xyz
x,y,z
-x,y,1/2-z
-x,-y,-z
x,-y,1/2+z
1/2+x,1/2+y,z
1/2-x,1/2+y,1/2-z
1/2-x,1/2-y,-z
1/2+x,1/2-y,1/2+z
loop_
_atom_site_type_symbol
_atom_site_label
_atom_site_fract_x
_atom_site_fract_y
_atom_site_fract_z
Si Si1 0.831443 0.117563 0.269149
Si Si2 0.285879 0.186299 0.047497
Si Si3 0.195880 0.785062 0.840225
Si Si4 0.665869 0.436317 0.952367
Si Si5 0.025879 0.596113 0.670412
Si Si6 0.135158 0.091768 0.791291
O O1 0.691646 0.130819 0.400353
O O2 0.744459 0.160888 0.252444
O O3 0.041706 0.176785 0.167160
O O4 0.880294 0.007180 0.235785
O O5 0.448147 0.271317 0.972451
O O6 0.360580 0.145716 0.944447
O O7 0.245716 0.852203 0.869615
O O8 0.296147 0.681390 0.783964
O O9 0.843902 0.505065 0.880914
O O10 0.500000 0.500000 0.000000
O O11 0.564269 0.394639 0.065423
O O12 0.000000 0.644593 0.750000
O O13 0.808704 0.578476 0.752889
#
# Coordination Sequence:
#
# PCOD9294254 Si02
#       6
#     8   8   8   8   8   8
#     4  11  21  43  65  93 143 183 225 294 358 411
#     4  10  23  39  67 100 135 177 234 292 354 408
#     4  11  23  39  66 107 133 179 242 293 347 425
#     4  12  21  42  70  98 146 183 234 297 350 413
#     4  11  21  38  67 103 131 184 229 280 350 422
#     4  11  24  41  71  99 142 187 236 288 361 418
#
# _framework density 23.393729
#
# number of rings (size 3 to 8) (size 9 to 14) (size 15 to 20)
#    0.000    1.000    5.000    1.500    0.000    4.000 
#   12.000    1.667   11.000    6.000    0.000    0.000 
#    0.000    0.000    0.000    0.000    0.000    0.000 
#
# Total GULP energy -134042.895265 kJ/mol
# GULP energy per Si atom -5585.120636 kJ/mol
# Density = 2.334048 g / cm^3
# Si number density = 23.393729 Si / 1000 Ang^3
#
#
#
# Elastic Constant Matrix: (Units=GPa)
#
#
# Indices 1 2 3 4 5 6 
#
# 1 58.3992 47.1154 33.6368 -0.0012 29.8178 -0.0014
# 2 47.1154 161.5669 49.6577 0.0003 17.8587 -0.0004
# 3 33.6368 49.6577 110.2569 -0.0061 34.9945 -0.0038
# 4 -0.0012 0.0003 -0.0061 28.0306 0.0029 1.6940
# 5 29.8178 17.8587 34.9945 0.0029 43.1575 0.0030
# 6 -0.0014 -0.0004 -0.0038 1.6940 0.0030 31.9620
#
#
#
# Elastic Compliance Matrix: (Units=1/GPa)
#
#
# Indices 1 2 3 4 5 6 
#
# 1 0.033420 -0.007381 -0.000690 0.000003 -0.019477 0.000003
# 2 -0.007381 0.008821 -0.002937 -0.000001 0.003831 -0.000001
# 3 -0.000690 -0.002937 0.013554 0.000004 -0.009299 0.000002
# 4 0.000003 -0.000001 0.000004 0.035790 -0.000007 -0.001897
# 5 -0.019477 0.003831 -0.009299 -0.000007 0.042582 -0.000006
# 6 0.000003 -0.000001 0.000002 -0.001897 -0.000006 0.031388
#
#
# Mechanical properties :
#
#
# Convention : Reuss Voigt Hill
#
# Bulk Modulus (GPa) = 29.60327 65.67142 47.63735
# Shear Modulus (GPa) = 25.14705 33.95090 29.54898
#
# Velocity S-wave (km/s) = 3.28220 3.81370 3.55789
# Velocity P-wave (km/s) = 5.20054 6.89388 6.10619
#
# Compressibility (1/GPa) = 0.03378006
#
# Stress axis : x y z
#
# Youngs Moduli (GPa) = 29.92204 113.36554 73.77793
#
# Poissons Ratio (x) = 0.83675 0.05089
# Poissons Ratio (y) = 0.22085 0.21668
# Poissons Ratio (z) = 0.02064 0.33295
#
# Static dielectric constant tensor:
#      x y z
#    x 1.913380 0.000000 -0.011150 
#    y 0.000000 1.916860 0.000000 
#    z -0.011150 0.000000 1.899750 
# 
# From -- ./inp_files/274268.got.cif
#   From: 2010.05.17/outbox.cif.g08.bks.cpg/sg15_138_cif.got.tgz:274268.got - 2010.06.03 18:47:42.
