data_PCOD9294741
_publ_section_title
;
Structure prediction by ZEFSAII (Michael W. Deem and Ramdas Pophale) SiO2 
 PCOD9294741
Probable space group: C 2/C
;
_chemical_formula_sum "Si O2"
_cell_formula_units_Z 52
_cell_length_a 18.489566
_cell_length_b 7.999682
_cell_length_c 17.551986
_cell_angle_alpha 90.000000
_cell_angle_beta 59.750401
_cell_angle_gamma 90.000000
_cell_volume 2242.634647
_symmetry_space_group_name_H-M "C 2/C"
_symmetry_group_IT_number 15
_symmetry_cell_setting 'monoclinic'
loop_
_space_group_symop_operation_xyz
x,y,z
-x,y,1/2-z
-x,-y,-z
x,-y,1/2+z
1/2+x,1/2+y,z
1/2-x,1/2+y,1/2-z
1/2-x,1/2-y,-z
1/2+x,1/2-y,1/2+z
loop_
_atom_site_type_symbol
_atom_site_label
_atom_site_fract_x
_atom_site_fract_y
_atom_site_fract_z
Si Si1 0.078499 0.096138 0.870090
Si Si2 0.459727 0.233226 0.545543
Si Si3 0.728871 0.189438 0.309574
Si Si4 0.656477 0.875060 0.629641
Si Si5 0.788919 0.590809 0.567284
Si Si6 0.621016 0.907364 0.283523
Si Si7 0.000000 0.833710 0.250000
O O1 0.175207 0.140701 0.833174
O O2 0.049153 0.087607 0.796983
O O3 0.056777 0.921642 0.919628
O O4 0.031823 0.242906 0.944389
O O5 0.379227 0.151112 0.548777
O O6 0.463206 0.127648 0.623408
O O7 0.821258 0.244016 0.237286
O O8 0.734692 0.087252 0.384832
O O9 0.672340 0.063271 0.290785
O O10 0.722619 0.735220 0.626212
O O11 0.701414 0.924834 0.528014
O O12 0.570872 0.771609 0.668854
O O13 0.625865 0.036049 0.693679
#
# Coordination Sequence:
#
# PCOD9294741 Si02
#       7
#     8   8   8   8   8   8   4
#     4  11  23  42  65  93 128 166 207 262 316 380
#     4  10  23  41  65  95 123 164 214 256 315 372
#     4  11  22  38  66  91 121 165 215 256 308 365
#     4  11  23  42  63  91 130 165 209 259 318 377
#     4  10  23  42  66  91 124 170 210 260 315 373
#     4  11  22  38  65  95 124 162 215 262 305 375
#     4  12  24  40  64  92 122 174 198 258 318 378
#
# _framework density 23.187014000000001
#
# number of rings (size 3 to 8) (size 9 to 14) (size 15 to 20)
#    0.000    1.231    3.077    3.692    2.154    4.308 
#    0.000    3.846    0.000    0.000    0.000    0.000 
#    0.000    0.000    0.000    0.000    0.000    0.000 
#
# Total GULP energy -144948.478068 kJ/mol
# GULP energy per Si atom -5574.941464 kJ/mol
# Density = 2.313424 g / cm^3
# Si number density = 23.187014 Si / 1000 Ang^3
#
#
#
# Elastic Constant Matrix: (Units=GPa)
#
#
# Indices 1 2 3 4 5 6 
#
# 1 32.1827 -2.2202 22.5361 0.0000 -2.1978 0.0000
# 2 -2.2202 75.5243 26.2715 0.0000 12.1713 0.0000
# 3 22.5361 26.2715 85.0157 0.0000 5.1393 0.0001
# 4 0.0000 0.0000 0.0000 48.3301 0.0000 -4.4972
# 5 -2.1978 12.1713 5.1393 0.0000 32.9318 0.0000
# 6 0.0000 0.0000 0.0001 -4.4972 0.0000 -19.6596
#
#
#
# Elastic Compliance Matrix: (Units=1/GPa)
#
#
# Indices 1 2 3 4 5 6 
#
# 1 0.040302 0.005058 -0.012413 0.000000 0.002757 0.000000
# 2 0.005058 0.016267 -0.006082 0.000000 -0.004725 0.000000
# 3 -0.012413 -0.006082 0.017007 0.000000 -0.001235 0.000000
# 4 0.000000 0.000000 0.000000 0.020260 0.000000 -0.004634
# 5 0.002757 -0.004725 -0.001235 0.000000 0.032489 0.000000
# 6 0.000000 0.000000 0.000000 -0.004634 0.000000 -0.049805
#
#
# Mechanical properties :
#
#
# Convention : Reuss Voigt Hill
#
# Bulk Modulus (GPa) = 21.41210 31.76637 26.58923
# Shear Modulus (GPa) = 42.03085 22.06282 32.04684
#
# Velocity S-wave (km/s) = 4.26219 3.08801 3.72170
# Velocity P-wave (km/s) = 5.78586 5.14240 5.47359
#
# Compressibility (1/GPa) = 0.04670256
#
# Stress axis : x y z
#
# Youngs Moduli (GPa) = 24.81247 61.47564 58.79889
#
# Poissons Ratio (x) = -0.31097 0.72988
# Poissons Ratio (y) = -0.12551 0.35761
# Poissons Ratio (z) = 0.30800 0.37389
#
# Static dielectric constant tensor:
#      x y z
#    x 1.917070 0.000000 0.077380 
#    y 0.000000 1.902800 0.000000 
#    z 0.077380 0.000000 1.966340 
# 
# From -- ./inp_files/214236.got.cif
#   From: 2010.05.17/outbox.cif.g08.bks.cpg/sg15_108_cif.got.tgz:214236.got - 2010.06.03 18:47:42.
