data_PCOD9294261
_publ_section_title
;
Structure prediction by ZEFSAII (Michael W. Deem and Ramdas Pophale) SiO2 
 PCOD9294261
Probable space group: C 2/C
;
_chemical_formula_sum "Si O2"
_cell_formula_units_Z 48
_cell_length_a 15.980004
_cell_length_b 11.726771
_cell_length_c 14.265496
_cell_angle_alpha 90.000000
_cell_angle_beta 45.985298
_cell_angle_gamma 90.000000
_cell_volume 1922.510193
_symmetry_space_group_name_H-M "C 2/C"
_symmetry_group_IT_number 15
_symmetry_cell_setting 'monoclinic'
loop_
_space_group_symop_operation_xyz
x,y,z
-x,y,1/2-z
-x,-y,-z
x,-y,1/2+z
1/2+x,1/2+y,z
1/2-x,1/2+y,1/2-z
1/2-x,1/2-y,-z
1/2+x,1/2-y,1/2+z
loop_
_atom_site_type_symbol
_atom_site_label
_atom_site_fract_x
_atom_site_fract_y
_atom_site_fract_z
Si Si1 0.952154 0.744599 0.086384
Si Si2 0.196960 0.952784 0.330737
Si Si3 0.143351 0.451952 0.960160
Si Si4 0.500000 0.274399 0.250000
Si Si5 0.500000 0.344378 0.750000
Si Si6 0.081398 0.660447 0.834288
Si Si7 0.175531 0.964420 0.041738
O O1 0.913030 0.876075 0.111102
O O2 0.866781 0.673588 0.082963
O O3 0.956340 0.710662 0.191273
O O4 0.075524 0.711937 0.943643
O O5 0.294033 0.870791 0.300199
O O6 0.173797 0.041482 0.430614
O O7 0.268266 0.992817 0.184511
O O8 0.200695 0.502446 0.009612
O O9 0.003724 0.450373 0.092295
O O10 0.608306 0.354797 0.134213
O O11 0.533800 0.260303 0.806868
O O12 0.400671 0.426799 0.865803
#
# Coordination Sequence:
#
# PCOD9294261 Si02
#       7
#     8   8   8   4   4   8   8
#     4  10  24  44  68  96 137 177 226 274 342 391
#     4  12  22  44  67  98 132 177 226 276 335 406
#     4  10  23  44  64 100 129 181 217 276 334 401
#     4  11  24  46  63 104 138 178 225 276 331 408
#     4  11  20  38  63 102 126 162 217 282 329 388
#     4  10  23  39  67  94 136 168 223 278 334 395
#     4  11  23  38  72  97 133 172 224 277 339 387
#
# _framework density 24.967357
#
# number of rings (size 3 to 8) (size 9 to 14) (size 15 to 20)
#    1.000    0.333    3.333    2.500    0.000    5.333 
#    3.000    2.500    0.000    0.000    0.000    0.000 
#    0.000    0.000    0.000    0.000    0.000    0.000 
#
# Total GULP energy -133693.841012 kJ/mol
# GULP energy per Si atom -5570.576709 kJ/mol
# Density = 2.491053 g / cm^3
# Si number density = 24.967357 Si / 1000 Ang^3
#
#
#
# Elastic Constant Matrix: (Units=GPa)
#
#
# Indices 1 2 3 4 5 6 
#
# 1 60.3983 1.8941 21.6769 0.0000 -4.6324 0.0000
# 2 1.8941 51.9759 11.1450 0.0000 -7.6120 0.0000
# 3 21.6769 11.1450 91.8636 0.0000 3.0067 0.0000
# 4 0.0000 0.0000 0.0000 26.6517 0.0000 11.7162
# 5 -4.6324 -7.6120 3.0067 0.0000 38.9262 0.0000
# 6 0.0000 0.0000 0.0000 11.7162 0.0000 11.4847
#
#
#
# Elastic Compliance Matrix: (Units=1/GPa)
#
#
# Indices 1 2 3 4 5 6 
#
# 1 0.018355 0.000687 -0.004502 0.000000 0.002666 0.000000
# 2 0.000687 0.020440 -0.002782 0.000000 0.004294 0.000000
# 3 -0.004502 -0.002782 0.012352 0.000000 -0.002034 0.000000
# 4 0.000000 0.000000 0.000000 0.068030 0.000000 -0.069401
# 5 0.002666 0.004294 -0.002034 0.000000 0.027004 0.000000
# 6 0.000000 0.000000 0.000000 -0.069401 0.000000 0.157872
#
#
# Mechanical properties :
#
#
# Convention : Reuss Voigt Hill
#
# Bulk Modulus (GPa) = 26.34845 30.40774 28.37810
# Shear Modulus (GPa) = 15.15612 26.71399 20.93506
#
# Velocity S-wave (km/s) = 2.46649 3.27457 2.89882
# Velocity P-wave (km/s) = 4.32290 5.14806 4.75342
#
# Compressibility (1/GPa) = 0.03795290
#
# Stress axis : x y z
#
# Youngs Moduli (GPa) = 54.47966 48.92337 80.95753
#
# Poissons Ratio (x) = -0.03361 0.36446
# Poissons Ratio (y) = -0.03742 0.22526
# Poissons Ratio (z) = 0.24526 0.13613
#
# Static dielectric constant tensor:
#      x y z
#    x 2.179090 0.000000 -0.005100 
#    y 0.000000 2.012080 0.000000 
#    z -0.005100 0.000000 1.939860 
# 
# From -- ./inp_files/153844.got.cif
#   From: 2010.05.17/outbox.cif.g08.bks.cpg/sg15_77_cif.got.tgz:153844.got - 2010.06.03 18:47:42.
