data_PCOD9294314
_publ_section_title
;
Structure prediction by ZEFSAII (Michael W. Deem and Ramdas Pophale) SiO2 
 PCOD9294314
Probable space group: C 2/C
;
_chemical_formula_sum "Si O2"
_cell_formula_units_Z 48
_cell_length_a 8.054436
_cell_length_b 28.385504
_cell_length_c 17.005905
_cell_angle_alpha 90.000000
_cell_angle_beta 146.052577
_cell_angle_gamma 90.000000
_cell_volume 2171.209443
_symmetry_space_group_name_H-M "C 2/C"
_symmetry_group_IT_number 15
_symmetry_cell_setting 'monoclinic'
loop_
_space_group_symop_operation_xyz
x,y,z
-x,y,1/2-z
-x,-y,-z
x,-y,1/2+z
1/2+x,1/2+y,z
1/2-x,1/2+y,1/2-z
1/2-x,1/2-y,-z
1/2+x,1/2-y,1/2+z
loop_
_atom_site_type_symbol
_atom_site_label
_atom_site_fract_x
_atom_site_fract_y
_atom_site_fract_z
Si Si1 0.667625 0.386196 0.396924
Si Si2 0.152856 0.923718 0.642810
Si Si3 0.220573 0.651008 0.178902
Si Si4 0.333641 0.492581 0.101729
Si Si5 0.341121 0.345789 0.411273
Si Si6 0.684603 0.223856 0.392481
O O1 0.500000 0.386510 0.250000
O O2 0.654609 0.439199 0.424875
O O3 0.504768 0.352576 0.392896
O O4 0.000773 0.367028 0.524498
O O5 0.500000 0.929879 0.750000
O O6 0.176815 0.894777 0.733407
O O7 0.978138 0.971566 0.596179
O O8 0.951543 0.890326 0.507127
O O9 0.500000 0.676265 0.250000
O O10 0.041633 0.682113 0.171014
O O11 0.500000 0.495782 0.250000
O O12 0.000000 0.500000 0.000000
O O13 0.502212 0.299642 0.511042
O O14 0.000000 0.343251 0.250000
O O15 0.500000 0.249382 0.250000
O O16 0.750000 0.250000 0.500000
#
# Coordination Sequence:
#
# PCOD9294314 Si02
#       6
#     8   8   8   8   8   8
#     4  10  23  40  59  95 139 172 236 285 338 398
#     4  12  22  44  70  91 138 187 242 283 350 419
#     4  11  22  43  72  97 129 194 226 275 360 431
#     4  11  25  40  61  97 139 186 241 295 342 404
#     4  11  25  43  69  98 134 180 226 285 349 423
#     4  11  24  49  73 106 143 175 231 296 356 442
#
# _framework density 22.107495
#
# number of rings (size 3 to 8) (size 9 to 14) (size 15 to 20)
#    0.000    1.000    5.000    2.500    7.000    4.667 
#    0.000    1.667    0.000    0.000    0.000    0.000 
#    0.000    0.000    0.000    0.000    0.000    0.000 
#
# Total GULP energy -133932.626189 kJ/mol
# GULP energy per Si atom -5580.526091 kJ/mol
# Density = 2.205718 g / cm^3
# Si number density = 22.107495 Si / 1000 Ang^3
#
#
#
# Elastic Constant Matrix: (Units=GPa)
#
#
# Indices 1 2 3 4 5 6 
#
# 1 62.2263 0.1810 41.5593 0.0000 21.3814 0.0000
# 2 0.1810 42.4981 25.8811 0.0000 0.2239 0.0000
# 3 41.5593 25.8811 193.8567 0.0000 13.5545 0.0000
# 4 0.0000 0.0000 0.0000 18.0433 0.0000 -16.4351
# 5 21.3814 0.2239 13.5545 0.0000 43.2122 0.0000
# 6 0.0000 0.0000 0.0000 -16.4351 0.0000 24.9628
#
#
#
# Elastic Compliance Matrix: (Units=1/GPa)
#
#
# Indices 1 2 3 4 5 6 
#
# 1 0.022381 0.002684 -0.004479 0.000000 -0.009683 0.000000
# 2 0.002684 0.025974 -0.004029 0.000000 -0.000199 0.000000
# 3 -0.004479 -0.004029 0.006646 0.000000 0.000153 0.000000
# 4 0.000000 0.000000 0.000000 0.138453 0.000000 0.091156
# 5 -0.009683 -0.000199 0.000153 0.000000 0.027886 0.000000
# 6 0.000000 0.000000 0.000000 0.091156 0.000000 0.100075
#
#
# Mechanical properties :
#
#
# Convention : Reuss Voigt Hill
#
# Bulk Modulus (GPa) = 23.06727 48.20264 35.63495
# Shear Modulus (GPa) = 14.38783 32.64099 23.51441
#
# Velocity S-wave (km/s) = 2.55387 3.84665 3.26489
# Velocity P-wave (km/s) = 4.37643 6.44826 5.51059
#
# Compressibility (1/GPa) = 0.04335147
#
# Stress axis : x y z
#
# Youngs Moduli (GPa) = 44.67991 38.50037 150.46679
#
# Poissons Ratio (x) = -0.10332 0.67400
# Poissons Ratio (y) = -0.11990 0.60624
# Poissons Ratio (z) = 0.20014 0.15512
#
# Static dielectric constant tensor:
#      x y z
#    x 1.625400 0.000000 -0.203170 
#    y 0.000000 1.870300 0.000000 
#    z -0.203170 0.000000 1.629410 
# 
# From -- ./inp_files/194307.got.cif
#   From: 2010.05.17/outbox.cif.g08.bks.cpg/sg15_98_cif.got.tgz:194307.got - 2010.06.03 18:47:42.
