data_PCOD9294893
_publ_section_title
;
Structure prediction by ZEFSAII (Michael W. Deem and Ramdas Pophale) SiO2 
 PCOD9294893
Probable space group: C 2/C
;
_chemical_formula_sum "Si O2"
_cell_formula_units_Z 60
_cell_length_a 15.001673
_cell_length_b 22.468671
_cell_length_c 8.598047
_cell_angle_alpha 90.000000
_cell_angle_beta 88.740796
_cell_angle_gamma 90.000000
_cell_volume 2897.423672
_symmetry_space_group_name_H-M "C 2/C"
_symmetry_group_IT_number 15
_symmetry_cell_setting 'monoclinic'
loop_
_space_group_symop_operation_xyz
x,y,z
-x,y,1/2-z
-x,-y,-z
x,-y,1/2+z
1/2+x,1/2+y,z
1/2-x,1/2+y,1/2-z
1/2-x,1/2-y,-z
1/2+x,1/2-y,1/2+z
loop_
_atom_site_type_symbol
_atom_site_label
_atom_site_fract_x
_atom_site_fract_y
_atom_site_fract_z
Si Si1 0.500000 0.685993 0.250000
Si Si2 0.312423 0.507998 0.018064
Si Si3 0.940746 0.905569 0.013552
Si Si4 0.629166 0.613791 0.661038
Si Si5 0.441722 0.957679 0.114103
Si Si6 0.909915 0.361710 0.853986
Si Si7 0.642386 0.261527 0.994035
Si Si8 0.705847 0.050655 0.302337
O O1 0.550208 0.640652 0.128336
O O2 0.577254 0.722980 0.344521
O O3 0.402412 0.471293 0.987156
O O4 0.302829 0.564515 0.904191
O O5 0.239371 0.458610 0.975041
O O6 0.288447 0.533669 0.186973
O O7 0.877838 0.882398 0.154739
O O8 0.037292 0.908912 0.087872
O O9 0.638037 0.678383 0.591933
O O10 0.500000 0.930177 0.250000
O O11 0.627783 0.001612 0.297476
O O12 0.406419 0.906764 0.000814
O O13 0.500000 0.000000 0.000000
O O14 0.899551 0.295502 0.918541
O O15 0.831122 0.385739 0.745666
O O16 0.000000 0.368371 0.750000
O O17 0.750000 0.250000 0.000000
#
# Coordination Sequence:
#
# PCOD9294893 Si02
#       8
#     4   8   8   8   8   8   8   8
#     4  10  26  48  72 100 140 182 242 294 338 420
#     4  12  23  37  65 102 138 173 223 281 351 410
#     4  10  23  41  68  95 137 180 224 282 350 408
#     4  10  23  45  65  95 139 184 228 280 341 414
#     4  12  21  42  63  95 131 172 218 283 341 411
#     4  12  26  43  68  95 132 189 228 278 354 415
#     4  11  27  48  71  99 139 187 239 290 343 413
#     4  12  23  38  64  99 140 169 221 284 349 405
#
# _framework density 20.708051999999999
#
# number of rings (size 3 to 8) (size 9 to 14) (size 15 to 20)
#    0.000    0.800    5.333    1.200   10.267    1.067 
#    0.000    2.000    0.000    0.000    0.000    0.000 
#    0.000    0.000    0.000    0.000    0.000    0.000 
#
# Total GULP energy -167138.712364 kJ/mol
# GULP energy per Si atom -5571.290412 kJ/mol
# Density = 2.066092 g / cm^3
# Si number density = 20.708052 Si / 1000 Ang^3
#
#
#
# Elastic Constant Matrix: (Units=GPa)
#
#
# Indices 1 2 3 4 5 6 
#
# 1 75.8318 41.4683 31.8575 0.0000 0.0994 0.0000
# 2 41.4683 142.7447 49.0795 0.0000 -4.0029 0.0000
# 3 31.8575 49.0795 98.1077 0.0000 -6.2851 0.0000
# 4 0.0000 0.0000 0.0000 29.5241 0.0000 4.3849
# 5 0.0994 -4.0029 -6.2851 0.0000 25.3089 0.0000
# 6 0.0000 0.0000 0.0000 4.3849 0.0000 24.6076
#
#
#
# Elastic Compliance Matrix: (Units=1/GPa)
#
#
# Indices 1 2 3 4 5 6 
#
# 1 0.016735 -0.003626 -0.003720 0.000000 -0.001563 0.000000
# 2 -0.003626 0.009249 -0.003409 0.000000 0.000630 0.000000
# 3 -0.003720 -0.003409 0.013284 0.000000 0.002774 0.000000
# 4 0.000000 0.000000 0.000000 0.034791 0.000000 -0.006200
# 5 -0.001563 0.000630 0.002774 0.000000 0.040307 0.000000
# 6 0.000000 0.000000 0.000000 -0.006200 0.000000 0.041742
#
#
# Mechanical properties :
#
#
# Convention : Reuss Voigt Hill
#
# Bulk Modulus (GPa) = 56.31612 62.38832 59.35222
# Shear Modulus (GPa) = 27.24231 28.84007 28.04119
#
# Velocity S-wave (km/s) = 3.63098 3.73594 3.68383
# Velocity P-wave (km/s) = 6.69574 6.98589 6.84235
#
# Compressibility (1/GPa) = 0.01775690
#
# Stress axis : x y z
#
# Youngs Moduli (GPa) = 59.75471 108.12289 75.27877
#
# Poissons Ratio (x) = 0.39209 0.28005
# Poissons Ratio (y) = 0.21669 0.25661
# Poissons Ratio (z) = 0.22230 0.36857
#
# Static dielectric constant tensor:
#      x y z
#    x 1.892980 0.000000 0.022590 
#    y 0.000000 1.811000 0.000000 
#    z 0.022590 0.000000 1.770170 
# 
# From -- ./inp_files/42244.got.cif
#   From: 2010.05.17/outbox.cif.g08.bks.cpg/sg15_22_cif.got.tgz:42244.got - 2010.06.03 18:47:42.
