data_PCOD9294235
_publ_section_title
;
Structure prediction by ZEFSAII (Michael W. Deem and Ramdas Pophale) SiO2 
 PCOD9294235
Probable space group: C 2/C
;
_chemical_formula_sum "Si O2"
_cell_formula_units_Z 32
_cell_length_a 19.304156
_cell_length_b 7.637121
_cell_length_c 9.964415
_cell_angle_alpha 90.000000
_cell_angle_beta 62.761471
_cell_angle_gamma 90.000000
_cell_volume 1306.132398
_symmetry_space_group_name_H-M "C 2/C"
_symmetry_group_IT_number 15
_symmetry_cell_setting 'monoclinic'
loop_
_space_group_symop_operation_xyz
x,y,z
-x,y,1/2-z
-x,-y,-z
x,-y,1/2+z
1/2+x,1/2+y,z
1/2-x,1/2+y,1/2-z
1/2-x,1/2-y,-z
1/2+x,1/2-y,1/2+z
loop_
_atom_site_type_symbol
_atom_site_label
_atom_site_fract_x
_atom_site_fract_y
_atom_site_fract_z
Si Si1 0.267828 0.972783 0.542712
Si Si2 0.682857 0.650120 0.379653
Si Si3 0.984842 0.758393 0.412602
Si Si4 0.064394 0.648262 0.588204
O O1 0.293404 0.160326 0.582424
O O2 0.218029 0.013527 0.455280
O O3 0.220382 0.882258 0.703087
O O4 0.347443 0.868524 0.441105
O O5 0.589644 0.647417 0.458999
O O6 0.960797 0.554184 0.414583
O O7 0.000000 0.827737 0.250000
O O8 0.055568 0.748437 0.454680
O O9 0.000000 0.717444 0.750000
#
# Coordination Sequence:
#
# PCOD9294235 Si02
#       4
#     8   8   8   8
#     4  10  23  39  65  94 130 167 213 267 320 380
#     4  10  23  41  62  95 130 170 210 265 324 380
#     4   9  19  36  61  87 123 165 208 259 312 373
#     4   9  19  34  60  93 118 160 219 260 297 374
#
# _framework density 24.499811999999999
#
# number of rings (size 3 to 8) (size 9 to 14) (size 15 to 20)
#    0.000    2.500    0.000    0.000   21.000    1.000 
#    0.000    1.250    0.000    0.000    0.000    0.000 
#    0.000    0.000    0.000    0.000    0.000    0.000 
#
# Total GULP energy -89585.369471 kJ/mol
# GULP energy per Si atom -5599.085592 kJ/mol
# Density = 2.444405 g / cm^3
# Si number density = 24.499812 Si / 1000 Ang^3
#
#
#
# Elastic Constant Matrix: (Units=GPa)
#
#
# Indices 1 2 3 4 5 6 
#
# 1 112.0028 28.1718 46.3570 0.0000 11.3251 0.0000
# 2 28.1718 90.9473 26.5321 0.0000 8.2797 0.0000
# 3 46.3570 26.5321 136.8832 0.0000 -3.4307 0.0000
# 4 0.0000 0.0000 0.0000 40.1317 0.0000 0.8299
# 5 11.3251 8.2797 -3.4307 0.0000 38.8044 0.0000
# 6 0.0000 0.0000 0.0000 0.8299 0.0000 17.7614
#
#
#
# Elastic Compliance Matrix: (Units=1/GPa)
#
#
# Indices 1 2 3 4 5 6 
#
# 1 0.011223 -0.002185 -0.003455 0.000000 -0.003115 0.000000
# 2 -0.002185 0.012367 -0.001711 0.000000 -0.002152 0.000000
# 3 -0.003455 -0.001711 0.008861 0.000000 0.002157 0.000000
# 4 0.000000 0.000000 0.000000 0.024942 0.000000 -0.001165
# 5 -0.003115 -0.002152 0.002157 0.000000 0.027329 0.000000
# 6 0.000000 0.000000 0.000000 -0.001165 0.000000 0.056356
#
#
# Mechanical properties :
#
#
# Convention : Reuss Voigt Hill
#
# Bulk Modulus (GPa) = 56.34130 60.21722 58.27926
# Shear Modulus (GPa) = 30.92174 35.25765 33.08970
#
# Velocity S-wave (km/s) = 3.55649 3.79766 3.67905
# Velocity P-wave (km/s) = 6.31754 6.62281 6.47198
#
# Compressibility (1/GPa) = 0.01774897
#
# Stress axis : x y z
#
# Youngs Moduli (GPa) = 89.10282 80.85833 112.84850
#
# Poissons Ratio (x) = 0.17666 0.38993
# Poissons Ratio (y) = 0.19467 0.19310
# Poissons Ratio (z) = 0.30788 0.13836
#
# Static dielectric constant tensor:
#      x y z
#    x 1.887240 0.000000 0.002710 
#    y 0.000000 2.002740 0.000000 
#    z 0.002710 0.000000 1.894200 
# 
# From -- ./inp_files/53930.got.cif
#   From: 2010.05.17/outbox.cif.g08.bks.cpg/sg15_27_cif.got.tgz:53930.got - 2010.06.03 18:47:42.
