data_PCOD9294131
_publ_section_title
;
Structure prediction by ZEFSAII (Michael W. Deem and Ramdas Pophale) SiO2 
 PCOD9294131
Probable space group: C 2/C
;
_chemical_formula_sum "Si O2"
_cell_formula_units_Z 48
_cell_length_a 12.122665
_cell_length_b 21.839469
_cell_length_c 15.234035
_cell_angle_alpha 90.000000
_cell_angle_beta 143.182361
_cell_angle_gamma 90.000000
_cell_volume 2417.005977
_symmetry_space_group_name_H-M "C 2/C"
_symmetry_group_IT_number 15
_symmetry_cell_setting 'monoclinic'
loop_
_space_group_symop_operation_xyz
x,y,z
-x,y,1/2-z
-x,-y,-z
x,-y,1/2+z
1/2+x,1/2+y,z
1/2-x,1/2+y,1/2-z
1/2-x,1/2-y,-z
1/2+x,1/2-y,1/2+z
loop_
_atom_site_type_symbol
_atom_site_label
_atom_site_fract_x
_atom_site_fract_y
_atom_site_fract_z
Si Si1 0.703086 0.622169 0.360962
Si Si2 0.831775 0.131542 0.829329
Si Si3 0.136610 0.930753 0.418263
Si Si4 0.209093 0.446982 0.410027
Si Si5 0.042648 0.427880 0.006563
Si Si6 0.198003 0.736930 0.865353
O O1 0.500000 0.597471 0.250000
O O2 0.798727 0.600055 0.512566
O O3 0.681185 0.693279 0.323232
O O4 0.836137 0.596974 0.371492
O O5 0.813329 0.085421 0.897903
O O6 0.666460 0.109641 0.657842
O O7 0.807244 0.196824 0.863474
O O8 0.024987 0.119762 0.902825
O O9 0.335403 0.917367 0.502109
O O10 0.000000 0.944363 0.250000
O O11 0.176339 0.992801 0.494756
O O12 0.000000 0.461992 0.250000
O O13 0.000000 0.500000 0.000000
O O14 0.000000 0.705591 0.750000
O O15 0.250000 0.750000 0.000000
#
# Coordination Sequence:
#
# PCOD9294131 Si02
#       6
#     8   8   8   8   8   8
#     4  11  23  37  63  91 123 165 215 267 323 380
#     4  11  22  38  63  91 131 166 213 270 331 389
#     4  10  23  39  60  89 126 173 209 255 329 405
#     4  12  20  37  59  95 127 161 206 274 326 378
#     4  11  21  40  64  91 131 174 217 268 330 404
#     4  11  22  40  63  94 127 165 220 275 326 381
#
# _framework density 19.859282
#
# number of rings (size 3 to 8) (size 9 to 14) (size 15 to 20)
#    0.000    1.000    5.000    2.500    2.333    0.000 
#    3.000    0.833    0.000    0.000    0.000    0.000 
#    0.000    0.000    0.000    0.000    0.000    0.000 
#
# Total GULP energy -133605.740147 kJ/mol
# GULP energy per Si atom -5566.905839 kJ/mol
# Density = 1.981408 g / cm^3
# Si number density = 19.859282 Si / 1000 Ang^3
#
#
#
# Elastic Constant Matrix: (Units=GPa)
#
#
# Indices 1 2 3 4 5 6 
#
# 1 134.8952 45.5597 19.5167 0.0000 43.0297 0.0000
# 2 45.5597 95.4723 21.5604 0.0000 13.2670 0.0000
# 3 19.5167 21.5604 53.6263 -0.0001 14.3367 0.0000
# 4 0.0000 0.0000 -0.0001 37.0625 0.0000 -6.8030
# 5 43.0297 13.2670 14.3367 0.0000 37.0564 0.0000
# 6 0.0000 0.0000 0.0000 -6.8030 0.0000 33.7306
#
#
#
# Elastic Compliance Matrix: (Units=1/GPa)
#
#
# Indices 1 2 3 4 5 6 
#
# 1 0.013377 -0.004585 0.000768 0.000000 -0.014189 0.000000
# 2 -0.004585 0.013321 -0.004278 0.000000 0.002210 0.000000
# 3 0.000768 -0.004278 0.022215 0.000000 -0.007955 0.000000
# 4 0.000000 0.000000 0.000000 0.028019 0.000000 0.005651
# 5 -0.014189 0.002210 -0.007955 0.000000 0.045748 0.000000
# 6 0.000000 0.000000 0.000000 0.005651 0.000000 0.030786
#
#
# Mechanical properties :
#
#
# Convention : Reuss Voigt Hill
#
# Bulk Modulus (GPa) = 30.55948 50.80749 40.68348
# Shear Modulus (GPa) = 27.69118 34.72700 31.20909
#
# Velocity S-wave (km/s) = 3.73818 4.18623 3.96853
# Velocity P-wave (km/s) = 5.83553 7.00038 6.44433
#
# Compressibility (1/GPa) = 0.03272307
#
# Stress axis : x y z
#
# Youngs Moduli (GPa) = 74.75773 75.06781 45.01536
#
# Poissons Ratio (x) = 0.34420 -0.03459
# Poissons Ratio (y) = 0.34278 0.19257
# Poissons Ratio (z) = -0.05745 0.32113
#
# Static dielectric constant tensor:
#      x y z
#    x 2.613580 0.000000 -0.655270 
#    y 0.000000 1.802200 0.000000 
#    z -0.655270 0.000000 2.312920 
# 
# From -- ./inp_files/147441.got.cif
#   From: 2010.05.17/outbox.cif.g08.bks.cpg/sg15_74_cif.got.tgz:147441.got - 2010.06.03 18:47:42.
