data_PCOD9294219
_publ_section_title
;
Structure prediction by ZEFSAII (Michael W. Deem and Ramdas Pophale) SiO2 
 PCOD9294219
Probable space group: C 2/C
;
_chemical_formula_sum "Si O2"
_cell_formula_units_Z 48
_cell_length_a 26.872884
_cell_length_b 12.092818
_cell_length_c 8.910595
_cell_angle_alpha 90.000000
_cell_angle_beta 50.502162
_cell_angle_gamma 90.000000
_cell_volume 2234.436736
_symmetry_space_group_name_H-M "C 2/C"
_symmetry_group_IT_number 15
_symmetry_cell_setting 'monoclinic'
loop_
_space_group_symop_operation_xyz
x,y,z
-x,y,1/2-z
-x,-y,-z
x,-y,1/2+z
1/2+x,1/2+y,z
1/2-x,1/2+y,1/2-z
1/2-x,1/2-y,-z
1/2+x,1/2-y,1/2+z
loop_
_atom_site_type_symbol
_atom_site_label
_atom_site_fract_x
_atom_site_fract_y
_atom_site_fract_z
Si Si1 0.626610 0.028517 0.139650
Si Si2 0.809069 0.361855 0.272103
Si Si3 0.390651 0.780811 0.592615
Si Si4 0.500000 0.904638 0.250000
Si Si5 0.909682 0.064366 0.679842
Si Si6 0.000000 0.975407 0.250000
Si Si7 0.161221 0.162859 0.100685
O O1 0.632738 0.114851 0.266188
O O2 0.670012 0.929227 0.119504
O O3 0.555815 0.978963 0.225371
O O4 0.655241 0.086910 0.938327
O O5 0.829506 0.236057 0.267806
O O6 0.732263 0.366545 0.404471
O O7 0.464779 0.821390 0.432870
O O8 0.369274 0.672321 0.724951
O O9 0.371786 0.740303 0.461746
O O10 0.955847 0.095561 0.727616
O O11 0.876133 0.949788 0.788096
O O12 0.954580 0.045504 0.447687
#
# Coordination Sequence:
#
# PCOD9294219 Si02
#       7
#     8   8   8   4   8   4   8
#     4  12  26  47  75 107 141 187 248 299 363 427
#     4  11  26  48  71 104 141 192 245 296 356 429
#     4  12  26  45  74 104 142 190 233 302 365 425
#     4  12  25  49  74 106 148 183 241 308 360 430
#     4  11  24  44  65 106 140 192 227 296 360 433
#     4  10  23  39  64  96 146 171 235 276 352 430
#     4  11  26  48  71  99 151 189 240 300 354 433
#
# _framework density 21.481923999999999
#
# number of rings (size 3 to 8) (size 9 to 14) (size 15 to 20)
#    0.000    0.667    5.000    1.000    7.000    1.333 
#    3.000    0.000    0.000    0.000    0.000    0.000 
#    0.000    0.000    0.000    0.000    0.000    0.000 
#
# Total GULP energy -133735.965725 kJ/mol
# GULP energy per Si atom -5572.331905 kJ/mol
# Density = 2.143303 g / cm^3
# Si number density = 21.481924 Si / 1000 Ang^3
#
#
#
# Elastic Constant Matrix: (Units=GPa)
#
#
# Indices 1 2 3 4 5 6 
#
# 1 67.5938 32.5342 34.5733 0.0000 -14.0287 0.0000
# 2 32.5342 126.5166 47.1434 0.0000 -2.9995 0.0000
# 3 34.5733 47.1434 77.5689 0.0000 -1.7981 0.0000
# 4 0.0000 0.0000 0.0000 35.1187 0.0000 5.2510
# 5 -14.0287 -2.9995 -1.7981 0.0000 22.4934 0.0000
# 6 0.0000 0.0000 0.0000 5.2510 0.0000 11.9625
#
#
#
# Elastic Compliance Matrix: (Units=1/GPa)
#
#
# Indices 1 2 3 4 5 6 
#
# 1 0.023103 -0.002459 -0.008492 0.000000 0.013402 0.000000
# 2 -0.002459 0.010497 -0.005297 0.000000 -0.000557 0.000000
# 3 -0.008492 -0.005297 0.019793 0.000000 -0.004420 0.000000
# 4 0.000000 0.000000 0.000000 0.030475 0.000000 -0.013377
# 5 0.013402 -0.000557 -0.004420 0.000000 0.052388 0.000000
# 6 0.000000 0.000000 0.000000 -0.013377 0.000000 0.089466
#
#
# Mechanical properties :
#
#
# Convention : Reuss Voigt Hill
#
# Bulk Modulus (GPa) = 47.85147 55.57568 51.71358
# Shear Modulus (GPa) = 18.85486 24.41016 21.63251
#
# Velocity S-wave (km/s) = 2.96583 3.37458 3.17678
# Velocity P-wave (km/s) = 5.83539 6.41177 6.13036
#
# Compressibility (1/GPa) = 0.02089800
#
# Stress axis : x y z
#
# Youngs Moduli (GPa) = 43.28469 95.26689 50.52197
#
# Poissons Ratio (x) = 0.23425 0.42904
# Poissons Ratio (y) = 0.10643 0.26759
# Poissons Ratio (z) = 0.36758 0.50459
#
# Static dielectric constant tensor:
#      x y z
#    x 1.804110 0.000000 0.034710 
#    y 0.000000 1.778110 0.000000 
#    z 0.034710 0.000000 1.817290 
# 
# From -- ./inp_files/65053.got.cif
#   From: 2010.05.17/outbox.cif.g08.bks.cpg/sg15_33_cif.got.tgz:65053.got - 2010.06.03 18:47:42.
