data_PCOD9294941
_publ_section_title
;
Structure prediction by ZEFSAII (Michael W. Deem and Ramdas Pophale) SiO2 
 PCOD9294941
Probable space group: C 2/C
;
_chemical_formula_sum "Si O2"
_cell_formula_units_Z 52
_cell_length_a 9.637967
_cell_length_b 15.455701
_cell_length_c 28.630351
_cell_angle_alpha 90.000000
_cell_angle_beta 34.872776
_cell_angle_gamma 90.000000
_cell_volume 2438.437524
_symmetry_space_group_name_H-M "C 2/C"
_symmetry_group_IT_number 15
_symmetry_cell_setting 'monoclinic'
loop_
_space_group_symop_operation_xyz
x,y,z
-x,y,1/2-z
-x,-y,-z
x,-y,1/2+z
1/2+x,1/2+y,z
1/2-x,1/2+y,1/2-z
1/2-x,1/2-y,-z
1/2+x,1/2-y,1/2+z
loop_
_atom_site_type_symbol
_atom_site_label
_atom_site_fract_x
_atom_site_fract_y
_atom_site_fract_z
Si Si1 0.351580 0.160080 0.492444
Si Si2 0.500000 0.764283 0.750000
Si Si3 0.622377 0.424773 0.666979
Si Si4 0.288775 0.160638 0.961509
Si Si5 0.420055 0.562725 0.563615
Si Si6 0.786921 0.870518 0.363924
Si Si7 0.379778 0.413720 0.636031
O O1 0.250000 0.250000 0.500000
O O2 0.625833 0.128703 0.406539
O O3 0.317266 0.156288 0.557357
O O4 0.159928 0.093920 0.523325
O O5 0.495323 0.694915 0.708791
O O6 0.708388 0.831023 0.676346
O O7 0.500000 0.404059 0.750000
O O8 0.662415 0.528121 0.652337
O O9 0.444238 0.409816 0.672573
O O10 0.202313 0.142123 0.932030
O O11 0.572649 0.143405 0.885894
O O12 0.250000 0.250000 0.000000
O O13 0.131850 0.099081 0.038743
O O14 0.500000 0.500000 0.500000
O O15 0.277759 0.502508 0.640801
#
# Coordination Sequence:
#
# PCOD9294941 Si02
#       7
#     8   4   8   8   8   8   8
#     4  12  26  44  75 106 140 183 245 296 354 444
#     4  12  28  42  72 100 142 190 240 308 356 428
#     4  12  26  45  71 101 144 189 235 307 371 430
#     4  11  21  41  74 100 137 184 238 285 357 437
#     4  10  23  41  70 102 136 182 234 289 353 430
#     4  12  24  48  70 102 139 187 242 293 364 434
#     4  11  24  45  64 101 141 188 239 291 363 430
#
# _framework density 21.325130000000001
#
# number of rings (size 3 to 8) (size 9 to 14) (size 15 to 20)
#    0.000    0.615    5.385    3.231    4.308    1.231 
#    0.000    0.000    1.692    0.000    0.000    0.000 
#    0.000    0.000    0.000    0.000    0.000    0.000 
#
# Total GULP energy -144890.392585 kJ/mol
# GULP energy per Si atom -5572.707407 kJ/mol
# Density = 2.127659 g / cm^3
# Si number density = 21.325130 Si / 1000 Ang^3
#
#
#
# Elastic Constant Matrix: (Units=GPa)
#
#
# Indices 1 2 3 4 5 6 
#
# 1 116.6142 25.6113 34.4803 -0.0004 21.5940 0.0001
# 2 25.6113 132.0751 36.0219 -0.0014 4.5486 -0.0001
# 3 34.4803 36.0219 113.0505 -0.0023 30.1315 0.0016
# 4 -0.0004 -0.0014 -0.0023 26.0405 0.0019 8.5964
# 5 21.5940 4.5486 30.1315 0.0019 30.6414 0.0023
# 6 0.0001 -0.0001 0.0016 8.5964 0.0023 24.3605
#
#
#
# Elastic Compliance Matrix: (Units=1/GPa)
#
#
# Indices 1 2 3 4 5 6 
#
# 1 0.010335 -0.001505 -0.001072 0.000000 -0.006006 0.000001
# 2 -0.001505 0.008590 -0.003010 0.000000 0.002745 0.000000
# 3 -0.001072 -0.003010 0.013296 0.000002 -0.011873 0.000000
# 4 0.000000 0.000000 0.000002 0.043465 -0.000004 -0.015338
# 5 -0.006006 0.002745 -0.011873 -0.000004 0.048136 -0.000002
# 6 0.000001 0.000000 0.000000 -0.015338 -0.000002 0.046463
#
#
# Mechanical properties :
#
#
# Convention : Reuss Voigt Hill
#
# Bulk Modulus (GPa) = 47.51122 61.55186 54.53154
# Shear Modulus (GPa) = 26.52910 33.91687 30.22299
#
# Velocity S-wave (km/s) = 3.53091 3.99239 3.76872
# Velocity P-wave (km/s) = 6.24107 7.08367 6.67568
#
# Compressibility (1/GPa) = 0.02104766
#
# Stress axis : x y z
#
# Youngs Moduli (GPa) = 96.75987 116.42036 75.21137
#
# Poissons Ratio (x) = 0.17520 0.08061
# Poissons Ratio (y) = 0.14562 0.22635
# Poissons Ratio (z) = 0.10371 0.35037
#
# Static dielectric constant tensor:
#      x y z
#    x 1.731200 -0.000080 -0.009270 
#    y -0.000080 1.994210 -0.000370 
#    z -0.009270 -0.000370 1.784410 
# 
# From -- ./inp_files/308199.got.cif
#   From: 2010.05.17/outbox.cif.g08.bks.cpg/sg15_155_cif.got.tgz:308199.got - 2010.06.03 18:47:42.
