data_PCOD9294793
_publ_section_title
;
Structure prediction by ZEFSAII (Michael W. Deem and Ramdas Pophale) SiO2 
 PCOD9294793
Probable space group: C 2/C
;
_chemical_formula_sum "Si O2"
_cell_formula_units_Z 52
_cell_length_a 27.219189
_cell_length_b 6.758366
_cell_length_c 13.587422
_cell_angle_alpha 90.000000
_cell_angle_beta 79.414055
_cell_angle_gamma 90.000000
_cell_volume 2456.964210
_symmetry_space_group_name_H-M "C 2/C"
_symmetry_group_IT_number 15
_symmetry_cell_setting 'monoclinic'
loop_
_space_group_symop_operation_xyz
x,y,z
-x,y,1/2-z
-x,-y,-z
x,-y,1/2+z
1/2+x,1/2+y,z
1/2-x,1/2+y,1/2-z
1/2-x,1/2-y,-z
1/2+x,1/2-y,1/2+z
loop_
_atom_site_type_symbol
_atom_site_label
_atom_site_fract_x
_atom_site_fract_y
_atom_site_fract_z
Si Si1 0.645033 0.502828 0.328738
Si Si2 0.000000 0.499133 0.750000
Si Si3 0.822345 0.668141 0.042478
Si Si4 0.463752 0.656914 0.135075
Si Si5 0.846473 0.252159 0.981893
Si Si6 0.454630 0.328604 0.405599
Si Si7 0.212163 0.023453 0.112332
O O1 0.652128 0.292307 0.380214
O O2 0.587040 0.537381 0.324482
O O3 0.658817 0.663461 0.407282
O O4 0.682242 0.530246 0.224716
O O5 0.965940 0.645846 0.698225
O O6 0.971060 0.356357 0.834872
O O7 0.853798 0.485510 0.988993
O O8 0.770408 0.573174 0.099927
O O9 0.809166 0.818037 0.958832
O O10 0.512204 0.518886 0.134232
O O11 0.463576 0.706453 0.018769
O O12 0.895298 0.147771 0.917979
O O13 0.800195 0.188903 0.931603
#
# Coordination Sequence:
#
# PCOD9294793 Si02
#       7
#     8   4   8   8   8   8   8
#     4  10  24  41  66  94 129 170 211 260 333 375
#     4  12  24  36  70  96 126 174 228 252 326 390
#     4  10  23  43  65  94 128 166 217 264 318 387
#     4  10  24  44  63  92 138 170 211 278 316 381
#     4  10  23  42  66  96 128 164 211 266 321 385
#     4  10  24  43  64  95 132 169 214 268 327 385
#     4  10  23  41  66  94 129 168 210 267 319 379
#
# _framework density 21.16433
#
# number of rings (size 3 to 8) (size 9 to 14) (size 15 to 20)
#    0.000    1.846    0.000    1.385    8.615    7.385 
#    0.000    0.000    0.000    0.000    0.000    0.000 
#    0.000    0.000    0.000    0.000    0.000    0.000 
#
# Total GULP energy -145353.744824 kJ/mol
# GULP energy per Si atom -5590.528647 kJ/mol
# Density = 2.111616 g / cm^3
# Si number density = 21.164330 Si / 1000 Ang^3
#
#
#
# Elastic Constant Matrix: (Units=GPa)
#
#
# Indices 1 2 3 4 5 6 
#
# 1 72.6366 24.4912 33.4430 0.0000 -19.2442 0.0000
# 2 24.4912 90.3151 30.5191 0.0000 -3.2217 0.0000
# 3 33.4430 30.5191 103.6032 0.0000 -15.9179 0.0000
# 4 0.0000 0.0000 0.0000 30.0112 0.0000 0.2219
# 5 -19.2442 -3.2217 -15.9179 0.0000 17.5258 0.0000
# 6 0.0000 0.0000 0.0000 0.2219 0.0000 25.2710
#
#
#
# Elastic Compliance Matrix: (Units=1/GPa)
#
#
# Indices 1 2 3 4 5 6 
#
# 1 0.021984 -0.004336 -0.002595 0.000000 0.020985 0.000000
# 2 -0.004336 0.013173 -0.003301 0.000000 -0.005338 0.000000
# 3 -0.002595 -0.003301 0.012704 0.000000 0.008083 0.000000
# 4 0.000000 0.000000 0.000000 0.033323 0.000000 -0.000293
# 5 0.020985 -0.005338 0.008083 0.000000 0.086461 0.000000
# 6 0.000000 0.000000 0.000000 -0.000293 0.000000 0.039574
#
#
# Mechanical properties :
#
#
# Convention : Reuss Voigt Hill
#
# Bulk Modulus (GPa) = 36.49982 49.27350 42.88666
# Shear Modulus (GPa) = 21.11354 26.43504 23.77429
#
# Velocity S-wave (km/s) = 3.16191 3.53801 3.35523
# Velocity P-wave (km/s) = 5.53295 6.32629 5.94287
#
# Compressibility (1/GPa) = 0.02739739
#
# Stress axis : x y z
#
# Youngs Moduli (GPa) = 45.48837 75.91156 78.71530
#
# Poissons Ratio (x) = 0.32915 0.20425
# Poissons Ratio (y) = 0.19724 0.25984
# Poissons Ratio (z) = 0.11803 0.25058
#
# Static dielectric constant tensor:
#      x y z
#    x 1.780320 0.000000 0.010700 
#    y 0.000000 1.749160 0.000000 
#    z 0.010700 0.000000 1.747220 
# 
# From -- ./inp_files/180078.got.cif
#   From: 2010.05.17/outbox.cif.g08.bks.cpg/sg15_91_cif.got.tgz:180078.got - 2010.06.03 18:47:42.
