data_PCOD9294445
_publ_section_title
;
Structure prediction by ZEFSAII (Michael W. Deem and Ramdas Pophale) SiO2 
 PCOD9294445
Probable space group: C 2/C
;
_chemical_formula_sum "Si O2"
_cell_formula_units_Z 64
_cell_length_a 11.960608
_cell_length_b 22.445234
_cell_length_c 11.617554
_cell_angle_alpha 90.000000
_cell_angle_beta 101.012132
_cell_angle_gamma 90.000000
_cell_volume 3061.404989
_symmetry_space_group_name_H-M "C 2/C"
_symmetry_group_IT_number 15
_symmetry_cell_setting 'monoclinic'
loop_
_space_group_symop_operation_xyz
x,y,z
-x,y,1/2-z
-x,-y,-z
x,-y,1/2+z
1/2+x,1/2+y,z
1/2-x,1/2+y,1/2-z
1/2-x,1/2-y,-z
1/2+x,1/2-y,1/2+z
loop_
_atom_site_type_symbol
_atom_site_label
_atom_site_fract_x
_atom_site_fract_y
_atom_site_fract_z
Si Si1 0.570029 0.677681 0.528619
Si Si2 0.379502 0.794521 0.358136
Si Si3 0.312215 0.665398 0.520852
Si Si4 0.765431 0.819932 0.755895
Si Si5 0.891817 0.921587 0.647485
Si Si6 0.877581 0.303894 0.989734
Si Si7 0.365389 0.447177 0.189722
Si Si8 0.736072 0.874911 0.332842
O O1 0.439326 0.691260 0.528448
O O2 0.573325 0.615664 0.458715
O O3 0.630491 0.733209 0.476206
O O4 0.648311 0.664806 0.653894
O O5 0.267673 0.795701 0.414504
O O6 0.362331 0.732603 0.284541
O O7 0.489783 0.810903 0.453385
O O8 0.361410 0.847941 0.265248
O O9 0.250799 0.661283 0.385522
O O10 0.332004 0.603225 0.590879
O O11 0.811983 0.877875 0.701928
O O12 0.660503 0.802990 0.651451
O O13 0.000000 0.928291 0.750000
O O14 0.846491 0.988384 0.627699
O O15 0.809541 0.354709 0.049236
O O16 0.500000 0.441290 0.250000
O O17 0.284109 0.435912 0.286611
#
# Coordination Sequence:
#
# PCOD9294445 Si02
#       8
#     8   8   8   8   8   8   8   8
#     4  12  21  37  65  96 136 165 210 264 325 395
#     4  11  24  41  63  96 134 173 215 260 328 393
#     4  11  24  41  61  99 137 176 207 268 330 388
#     4  12  23  40  63  97 136 169 215 269 323 390
#     4  11  22  38  63 100 131 168 215 271 330 385
#     4  12  24  40  66  99 129 175 218 264 326 391
#     4  10  23  40  65  96 131 172 214 265 336 394
#     4  11  22  41  63  93 130 166 216 265 322 385
#
# _framework density 20.905432999999999
#
# number of rings (size 3 to 8) (size 9 to 14) (size 15 to 20)
#    0.000    0.750    6.250    1.875    0.000    2.000 
#    0.000    0.000    0.000    3.000    6.500    0.000 
#    0.000    0.000    0.000    0.000    0.000    0.000 
#
# Total GULP energy -178191.638066 kJ/mol
# GULP energy per Si atom -5568.488690 kJ/mol
# Density = 2.085785 g / cm^3
# Si number density = 20.905433 Si / 1000 Ang^3
#
#
#
# Elastic Constant Matrix: (Units=GPa)
#
#
# Indices 1 2 3 4 5 6 
#
# 1 87.8022 35.2364 44.6185 0.0000 12.7190 0.0000
# 2 35.2364 99.8190 18.6827 0.0000 -3.8435 0.0000
# 3 44.6185 18.6827 124.4240 0.0000 21.0213 0.0000
# 4 0.0000 0.0000 0.0000 30.2274 0.0000 -0.9949
# 5 12.7190 -3.8435 21.0213 0.0000 42.4546 0.0000
# 6 0.0000 0.0000 0.0000 -0.9949 0.0000 25.6536
#
#
#
# Elastic Compliance Matrix: (Units=1/GPa)
#
#
# Indices 1 2 3 4 5 6 
#
# 1 0.016118 -0.004960 -0.004522 0.000000 -0.003039 0.000000
# 2 -0.004960 0.011970 -0.000494 0.000000 0.002814 0.000000
# 3 -0.004522 -0.000494 0.010380 0.000000 -0.003830 0.000000
# 4 0.000000 0.000000 0.000000 0.033125 0.000000 0.001285
# 5 -0.003039 0.002814 -0.003830 0.000000 0.026616 0.000000
# 6 0.000000 0.000000 0.000000 0.001285 0.000000 0.039031
#
#
# Mechanical properties :
#
#
# Convention : Reuss Voigt Hill
#
# Bulk Modulus (GPa) = 54.00886 56.56892 55.28889
# Shear Modulus (GPa) = 30.60668 33.90096 32.25382
#
# Velocity S-wave (km/s) = 3.83045 4.03132 3.93217
# Velocity P-wave (km/s) = 6.74196 6.98476 6.86444
#
# Compressibility (1/GPa) = 0.01851548
#
# Stress axis : x y z
#
# Youngs Moduli (GPa) = 62.04283 83.54220 96.34211
#
# Poissons Ratio (x) = 0.41440 0.43562
# Poissons Ratio (y) = 0.30776 0.04760
# Poissons Ratio (z) = 0.28053 0.04127
#
# Static dielectric constant tensor:
#      x y z
#    x 1.804840 0.000000 0.003460 
#    y 0.000000 1.800770 0.000000 
#    z 0.003460 0.000000 1.878360 
# 
# From -- ./inp_files/90858.got.cif
#   From: 2010.05.17/outbox.cif.g08.bks.cpg/sg15_46_cif.got.tgz:90858.got - 2010.06.03 18:47:42.
