data_PCOD9294172
_publ_section_title
;
Structure prediction by ZEFSAII (Michael W. Deem and Ramdas Pophale) SiO2 
 PCOD9294172
Probable space group: C 2/C
;
_chemical_formula_sum "Si O2"
_cell_formula_units_Z 40
_cell_length_a 14.810171
_cell_length_b 19.795354
_cell_length_c 18.796668
_cell_angle_alpha 90.000000
_cell_angle_beta 159.967628
_cell_angle_gamma 90.000000
_cell_volume 1887.684773
_symmetry_space_group_name_H-M "C 2/C"
_symmetry_group_IT_number 15
_symmetry_cell_setting 'monoclinic'
loop_
_space_group_symop_operation_xyz
x,y,z
-x,y,1/2-z
-x,-y,-z
x,-y,1/2+z
1/2+x,1/2+y,z
1/2-x,1/2+y,1/2-z
1/2-x,1/2-y,-z
1/2+x,1/2-y,1/2+z
loop_
_atom_site_type_symbol
_atom_site_label
_atom_site_fract_x
_atom_site_fract_y
_atom_site_fract_z
Si Si1 0.773330 0.637270 0.026033
Si Si2 0.036213 0.255521 0.625998
Si Si3 0.500000 0.517977 0.750000
Si Si4 0.561257 0.241747 0.002101
Si Si5 0.500000 0.168870 0.750000
Si Si6 0.208861 0.388893 0.546209
O O1 0.904327 0.674572 0.055064
O O2 0.000000 0.623710 0.250000
O O3 0.579079 0.692388 0.915728
O O4 0.626979 0.568318 0.900068
O O5 0.838349 0.240224 0.400892
O O6 0.267710 0.253462 0.732397
O O7 0.276479 0.466243 0.613615
O O8 0.573232 0.160257 0.001215
O O9 0.754596 0.284937 0.093724
O O10 0.432967 0.121577 0.633635
O O11 0.500000 0.358353 0.750000
#
# Coordination Sequence:
#
# PCOD9294172 Si02
#       6
#     8   8   4   8   4   8
#     4  11  23  45  65  93 127 177 219 274 323 371
#     4  11  23  38  69  98 125 159 226 281 322 371
#     4  10  25  42  66  89 138 180 212 262 314 407
#     4  12  20  39  67 101 128 162 215 277 325 382
#     4  12  21  38  68  93 136 168 214 262 330 385
#     4  10  23  39  62  95 129 178 203 257 323 391
#
# _framework density 21.189979999999998
#
# number of rings (size 3 to 8) (size 9 to 14) (size 15 to 20)
#    0.600    0.400    5.000    3.000    4.200    0.000 
#    0.000    4.000    0.000    4.800    0.000    0.000 
#    0.000    0.000    0.000    0.000    0.000    0.000 
#
# Total GULP energy -111383.493306 kJ/mol
# GULP energy per Si atom -5569.174665 kJ/mol
# Density = 2.114175 g / cm^3
# Si number density = 21.189980 Si / 1000 Ang^3
#
#
#
# Elastic Constant Matrix: (Units=GPa)
#
#
# Indices 1 2 3 4 5 6 
#
# 1 108.6946 46.1531 42.9113 0.0920 -9.5543 -0.0260
# 2 46.1531 163.6092 55.1431 -0.0367 -0.0720 -0.0057
# 3 42.9113 55.1431 163.0473 -0.1911 -10.8242 0.0422
# 4 0.0920 -0.0367 -0.1911 95.7059 -0.0076 -28.2474
# 5 -9.5543 -0.0720 -10.8242 -0.0076 43.5057 0.0118
# 6 -0.0260 -0.0057 0.0422 -28.2474 0.0118 19.5180
#
#
#
# Elastic Compliance Matrix: (Units=1/GPa)
#
#
# Indices 1 2 3 4 5 6 
#
# 1 0.011213 -0.002496 -0.001976 -0.000018 0.001967 -0.000009
# 2 -0.002496 0.007469 -0.001936 0.000004 -0.001018 0.000010
# 3 -0.001976 -0.001936 0.007401 0.000018 0.001404 0.000006
# 4 -0.000018 0.000004 0.000018 0.018240 -0.000004 0.026398
# 5 0.001967 -0.001018 0.001404 -0.000004 0.023765 -0.000020
# 6 -0.000009 0.000010 0.000006 0.026398 -0.000020 0.089439
#
#
# Mechanical properties :
#
#
# Convention : Reuss Voigt Hill
#
# Bulk Modulus (GPa) = 75.38566 80.41847 77.90206
# Shear Modulus (GPa) = 28.60959 51.15550 39.88255
#
# Velocity S-wave (km/s) = 3.67842 4.91872 4.34307
# Velocity P-wave (km/s) = 7.32764 8.38403 7.87357
#
# Compressibility (1/GPa) = 0.01326512
#
# Stress axis : x y z
#
# Youngs Moduli (GPa) = 89.18130 133.89555 135.10785
#
# Poissons Ratio (x) = 0.33423 0.26702
# Poissons Ratio (y) = 0.22261 0.26163
# Poissons Ratio (z) = 0.17625 0.25929
#
# Static dielectric constant tensor:
#      x y z
#    x 1.900970 -0.000020 -0.266240 
#    y -0.000020 1.665310 -0.000050 
#    z -0.266240 -0.000050 2.167140 
# 
# From -- ./inp_files/98108.got.cif
#   From: 2010.05.17/outbox.cif.g08.bks.cpg/sg15_50_cif.got.tgz:98108.got - 2010.06.03 18:47:42.
