data_PCOD9294872
_publ_section_title
;
Structure prediction by ZEFSAII (Michael W. Deem and Ramdas Pophale) SiO2 
 PCOD9294872
Probable space group: C 2/C
;
_chemical_formula_sum "Si O2"
_cell_formula_units_Z 48
_cell_length_a 15.674827
_cell_length_b 13.060968
_cell_length_c 8.934216
_cell_angle_alpha 90.000000
_cell_angle_beta 100.005758
_cell_angle_gamma 90.000000
_cell_volume 1801.267988
_symmetry_space_group_name_H-M "C 2/C"
_symmetry_group_IT_number 15
_symmetry_cell_setting 'monoclinic'
loop_
_space_group_symop_operation_xyz
x,y,z
-x,y,1/2-z
-x,-y,-z
x,-y,1/2+z
1/2+x,1/2+y,z
1/2-x,1/2+y,1/2-z
1/2-x,1/2-y,-z
1/2+x,1/2-y,1/2+z
loop_
_atom_site_type_symbol
_atom_site_label
_atom_site_fract_x
_atom_site_fract_y
_atom_site_fract_z
Si Si1 0.480617 0.143457 0.902054
Si Si2 0.057798 0.179919 0.903430
Si Si3 0.637679 0.971018 0.570342
Si Si4 0.196677 0.282688 0.751591
Si Si5 0.186418 0.904594 0.038063
Si Si6 0.132815 0.910431 0.704987
O O1 0.500000 0.197246 0.750000
O O2 0.441624 0.062671 0.559351
O O3 0.486283 0.218909 0.042543
O O4 0.389162 0.083326 0.882145
O O5 0.149559 0.217935 0.865061
O O6 0.000000 0.138549 0.750000
O O7 0.066608 0.110356 0.051366
O O8 0.644814 0.888503 0.706469
O O9 0.726473 0.951659 0.509291
O O10 0.193686 0.209069 0.605672
O O11 0.294199 0.322413 0.800082
O O12 0.167444 0.978053 0.171142
O O13 0.119442 0.907495 0.878543
#
# Coordination Sequence:
#
# PCOD9294872 Si02
#       6
#     8   8   8   8   8   8
#     4  11  26  38  72 107 151 187 233 290 379 430
#     4  12  26  46  68 101 145 192 245 303 363 430
#     4  10  23  41  68 105 147 184 230 294 363 438
#     4  11  24  45  73 103 145 192 239 299 358 432
#     4  11  25  46  74 106 146 184 252 294 358 428
#     4  11  25  44  73 102 139 189 242 300 359 425
#
# _framework density 26.647894999999998
#
# number of rings (size 3 to 8) (size 9 to 14) (size 15 to 20)
#    0.000    1.000    1.667    4.500   14.000    0.000 
#    0.000    3.333    0.000    0.000    0.000    0.000 
#    0.000    0.000    0.000    0.000    0.000    0.000 
#
# Total GULP energy -134394.268721 kJ/mol
# GULP energy per Si atom -5599.761197 kJ/mol
# Density = 2.658724 g / cm^3
# Si number density = 26.647895 Si / 1000 Ang^3
#
#
#
# Elastic Constant Matrix: (Units=GPa)
#
#
# Indices 1 2 3 4 5 6 
#
# 1 94.0248 25.6625 26.7973 0.0000 -15.1832 0.0000
# 2 25.6625 81.1882 32.7447 0.0000 16.4999 0.0000
# 3 26.7973 32.7447 165.0644 0.0000 11.9956 0.0000
# 4 0.0000 0.0000 0.0000 46.9367 0.0000 1.3479
# 5 -15.1832 16.4999 11.9956 0.0000 25.4585 0.0000
# 6 0.0000 0.0000 0.0000 1.3479 0.0000 17.7307
#
#
#
# Elastic Compliance Matrix: (Units=1/GPa)
#
#
# Indices 1 2 3 4 5 6 
#
# 1 0.015612 -0.007077 -0.002216 0.000000 0.014942 0.000000
# 2 -0.007077 0.018227 -0.001348 0.000000 -0.015399 0.000000
# 3 -0.002216 -0.001348 0.006956 0.000000 -0.003726 0.000000
# 4 0.000000 0.000000 0.000000 0.021352 0.000000 -0.001623
# 5 0.014942 -0.015399 -0.003726 0.000000 0.059927 0.000000
# 6 0.000000 0.000000 0.000000 -0.001623 0.000000 0.056523
#
#
# Mechanical properties :
#
#
# Convention : Reuss Voigt Hill
#
# Bulk Modulus (GPa) = 51.25023 56.74293 53.99658
# Shear Modulus (GPa) = 24.22673 35.03003 29.62838
#
# Velocity S-wave (km/s) = 3.01847 3.62961 3.33805
# Velocity P-wave (km/s) = 5.60556 6.23740 5.92991
#
# Compressibility (1/GPa) = 0.01951211
#
# Stress axis : x y z
#
# Youngs Moduli (GPa) = 64.05477 54.86279 143.75676
#
# Poissons Ratio (x) = 0.38829 0.31862
# Poissons Ratio (y) = 0.45334 0.19375
# Poissons Ratio (z) = 0.14197 0.07394
#
# Static dielectric constant tensor:
#      x y z
#    x 2.147230 0.000000 0.035110 
#    y 0.000000 2.059900 0.000000 
#    z 0.035110 0.000000 2.079850 
# 
# From -- ./inp_files/55435.got.cif
#   From: 2010.05.17/outbox.cif.g08.bks.cpg/sg15_28_cif.got.tgz:55435.got - 2010.06.03 18:47:42.
