data_PCOD9294400
_publ_section_title
;
Structure prediction by ZEFSAII (Michael W. Deem and Ramdas Pophale) SiO2 
 PCOD9294400
Probable space group: C 2/C
;
_chemical_formula_sum "Si O2"
_cell_formula_units_Z 52
_cell_length_a 31.043987
_cell_length_b 16.159693
_cell_length_c 5.164134
_cell_angle_alpha 90.000000
_cell_angle_beta 105.695909
_cell_angle_gamma 90.000000
_cell_volume 2494.043737
_symmetry_space_group_name_H-M "C 2/C"
_symmetry_group_IT_number 15
_symmetry_cell_setting 'monoclinic'
loop_
_space_group_symop_operation_xyz
x,y,z
-x,y,1/2-z
-x,-y,-z
x,-y,1/2+z
1/2+x,1/2+y,z
1/2-x,1/2+y,1/2-z
1/2-x,1/2-y,-z
1/2+x,1/2-y,1/2+z
loop_
_atom_site_type_symbol
_atom_site_label
_atom_site_fract_x
_atom_site_fract_y
_atom_site_fract_z
Si Si1 0.500000 0.911166 0.250000
Si Si2 0.643091 0.221217 0.837901
Si Si3 0.577728 0.679913 0.902311
Si Si4 0.846792 0.940387 0.156756
Si Si5 0.500000 0.802943 0.750000
Si Si6 0.698686 0.275580 0.430714
Si Si7 0.398430 0.954078 0.055796
Si Si8 0.500000 0.554856 0.750000
O O1 0.489932 0.856558 0.484295
O O2 0.452753 0.955937 0.127170
O O3 0.603563 0.284496 0.692414
O O4 0.674332 0.229567 0.632602
O O5 0.620611 0.133519 0.874154
O O6 0.672560 0.249363 0.128355
O O7 0.613041 0.627446 0.791122
O O8 0.545691 0.753548 0.748441
O O9 0.540931 0.612373 0.890349
O O10 0.805763 0.875868 0.057070
O O11 0.848371 0.995233 0.419225
O O12 0.750000 0.250000 0.500000
O O13 0.383379 0.021869 0.242983
O O14 0.500000 0.500000 0.500000
#
# Coordination Sequence:
#
# PCOD9294400 Si02
#       8
#     4   8   8   8   4   8   8   4
#     4  12  24  40  63  89 138 172 236 278 328 378
#     4  11  24  44  71  97 131 176 228 276 338 420
#     4  10  23  40  64  92 133 179 223 265 322 380
#     4  11  23  40  66  99 132 168 216 270 329 393
#     4  11  24  37  62  95 127 182 228 281 304 393
#     4  11  25  47  74 101 133 173 221 277 349 423
#     4  12  25  43  65  97 137 179 230 286 347 390
#     4  11  24  39  57  92 135 176 218 265 318 367
#
# _framework density 20.849674
#
# number of rings (size 3 to 8) (size 9 to 14) (size 15 to 20)
#    0.000    0.923    1.538    5.538    4.308    6.154 
#    0.000    4.615    0.000    0.000    0.000    0.000 
#    0.000    0.000    0.000    0.000    0.000    0.000 
#
# Total GULP energy -145057.133231 kJ/mol
# GULP energy per Si atom -5579.120509 kJ/mol
# Density = 2.080222 g / cm^3
# Si number density = 20.849674 Si / 1000 Ang^3
#
#
#
# Elastic Constant Matrix: (Units=GPa)
#
#
# Indices 1 2 3 4 5 6 
#
# 1 110.9764 51.1731 46.3625 0.0000 11.7010 0.0000
# 2 51.1731 87.8765 37.8423 0.0000 3.0211 0.0000
# 3 46.3625 37.8423 101.2984 0.0000 -6.5107 0.0000
# 4 0.0000 0.0000 0.0000 40.8852 0.0000 25.1400
# 5 11.7010 3.0211 -6.5107 0.0000 33.5756 0.0000
# 6 0.0000 0.0000 0.0000 25.1400 0.0000 95.2819
#
#
#
# Elastic Compliance Matrix: (Units=1/GPa)
#
#
# Indices 1 2 3 4 5 6 
#
# 1 0.014350 -0.006193 -0.004597 0.000000 -0.005335 0.000000
# 2 -0.006193 0.016401 -0.003290 0.000000 0.000045 0.000000
# 3 -0.004597 -0.003290 0.013495 0.000000 0.004515 0.000000
# 4 0.000000 0.000000 0.000000 0.029195 0.000000 -0.007703
# 5 -0.005335 0.000045 0.004515 0.000000 0.032514 0.000000
# 6 0.000000 0.000000 0.000000 -0.007703 0.000000 0.012528
#
#
# Mechanical properties :
#
#
# Convention : Reuss Voigt Hill
#
# Bulk Modulus (GPa) = 62.16504 63.43411 62.79958
# Shear Modulus (GPa) = 32.89377 44.93343 38.91360
#
# Velocity S-wave (km/s) = 3.97629 4.64736 4.32486
# Velocity P-wave (km/s) = 7.13875 7.69986 7.42461
#
# Compressibility (1/GPa) = 0.01608621
#
# Stress axis : x y z
#
# Youngs Moduli (GPa) = 69.68796 60.97106 74.10266
#
# Poissons Ratio (x) = 0.37761 0.34064
# Poissons Ratio (y) = 0.43160 0.24377
# Poissons Ratio (z) = 0.32034 0.20057
#
# Static dielectric constant tensor:
#      x y z
#    x 1.763320 0.000000 -0.030740 
#    y 0.000000 1.737210 0.000000 
#    z -0.030740 0.000000 1.701700 
# 
# From -- ./inp_files/18257.got.cif
#   From: 2010.05.17/outbox.cif.g08.bks.cpg/sg15_10_cif.got.tgz:18257.got - 2010.06.03 18:47:42.
