data_PCOD9294609
_publ_section_title
;
Structure prediction by ZEFSAII (Michael W. Deem and Ramdas Pophale) SiO2 
 PCOD9294609
Probable space group: C 2/C
;
_chemical_formula_sum "Si O2"
_cell_formula_units_Z 40
_cell_length_a 16.140967
_cell_length_b 10.650647
_cell_length_c 9.763362
_cell_angle_alpha 90.000000
_cell_angle_beta 98.903488
_cell_angle_gamma 90.000000
_cell_volume 1658.212154
_symmetry_space_group_name_H-M "C 2/C"
_symmetry_group_IT_number 15
_symmetry_cell_setting 'monoclinic'
loop_
_space_group_symop_operation_xyz
x,y,z
-x,y,1/2-z
-x,-y,-z
x,-y,1/2+z
1/2+x,1/2+y,z
1/2-x,1/2+y,1/2-z
1/2-x,1/2-y,-z
1/2+x,1/2-y,1/2+z
loop_
_atom_site_type_symbol
_atom_site_label
_atom_site_fract_x
_atom_site_fract_y
_atom_site_fract_z
Si Si1 0.203731 0.788638 0.741101
Si Si2 0.569720 0.676681 0.960234
Si Si3 0.819692 0.520291 0.790645
Si Si4 0.923475 0.458473 0.577882
Si Si5 0.928649 0.099270 0.116399
O O1 0.136137 0.803023 0.600732
O O2 0.233415 0.645768 0.749260
O O3 0.273393 0.893232 0.741024
O O4 0.151817 0.821046 0.864434
O O5 0.476483 0.645109 0.993317
O O6 0.567366 0.810732 0.887386
O O7 0.594666 0.547759 0.893122
O O8 0.901463 0.529356 0.712507
O O9 0.845431 0.520102 0.955387
O O10 0.000000 0.500000 0.500000
O O11 0.000000 0.114607 0.250000
#
# Coordination Sequence:
#
# PCOD9294609 Si02
#       5
#     8   8   8   8   8
#     4  10  23  41  60  91 130 163 206 256 322 374
#     4   9  20  38  64  87 126 165 204 260 315 365
#     4  11  26  42  67  93 129 171 203 265 319 371
#     4  11  24  44  65  92 126 168 217 260 313 372
#     4   9  18  36  61  92 120 163 207 257 308 375
#
# _framework density 24.122364999999999
#
# number of rings (size 3 to 8) (size 9 to 14) (size 15 to 20)
#    0.000    2.000    0.000    1.800    5.600    7.200 
#    7.200    0.000    0.000    0.000    0.000    0.000 
#    0.000    0.000    0.000    0.000    0.000    0.000 
#
# Total GULP energy -111846.461612 kJ/mol
# GULP energy per Si atom -5592.323081 kJ/mol
# Density = 2.406746 g / cm^3
# Si number density = 24.122365 Si / 1000 Ang^3
#
#
#
# Elastic Constant Matrix: (Units=GPa)
#
#
# Indices 1 2 3 4 5 6 
#
# 1 56.5397 33.1945 7.6532 0.0000 -13.7885 0.0000
# 2 33.1945 135.6084 6.4451 0.0000 0.4223 0.0000
# 3 7.6532 6.4451 64.7012 0.0000 -2.2515 0.0000
# 4 0.0000 0.0000 0.0000 25.9755 0.0000 -5.5737
# 5 -13.7885 0.4223 -2.2515 0.0000 16.9223 0.0000
# 6 0.0000 0.0000 0.0000 -5.5737 0.0000 27.9968
#
#
#
# Elastic Compliance Matrix: (Units=1/GPa)
#
#
# Indices 1 2 3 4 5 6 
#
# 1 0.027224 -0.006648 -0.001789 0.000000 0.022110 0.000000
# 2 -0.006648 0.009034 -0.000311 0.000000 -0.005683 0.000000
# 3 -0.001789 -0.000311 0.015721 0.000000 0.000642 0.000000
# 4 0.000000 0.000000 0.000000 0.040216 0.000000 0.008006
# 5 0.022110 -0.005683 0.000642 0.000000 0.077337 0.000000
# 6 0.000000 0.000000 0.000000 0.008006 0.000000 0.037312
#
#
# Mechanical properties :
#
#
# Convention : Reuss Voigt Hill
#
# Bulk Modulus (GPa) = 28.99983 39.04832 34.02407
# Shear Modulus (GPa) = 21.20149 28.14934 24.67542
#
# Velocity S-wave (km/s) = 2.96786 3.41976 3.20179
# Velocity P-wave (km/s) = 4.87774 5.64054 5.27295
#
# Compressibility (1/GPa) = 0.03448296
#
# Stress axis : x y z
#
# Youngs Moduli (GPa) = 36.73270 110.69405 63.61084
#
# Poissons Ratio (x) = 0.73586 0.11377
# Poissons Ratio (y) = 0.24419 0.01980
# Poissons Ratio (z) = 0.06570 0.03446
#
# Static dielectric constant tensor:
#      x y z
#    x 1.964750 0.000000 -0.024060 
#    y 0.000000 1.906470 0.000000 
#    z -0.024060 0.000000 1.912960 
# 
# From -- ./inp_files/94681.got.cif
#   From: 2010.05.17/outbox.cif.g08.bks.cpg/sg15_48_cif.got.tgz:94681.got - 2010.06.03 18:47:42.
