data_PCOD9294962
_publ_section_title
;
Structure prediction by ZEFSAII (Michael W. Deem and Ramdas Pophale) SiO2 
 PCOD9294962
Probable space group: C 2/C
;
_chemical_formula_sum "Si O2"
_cell_formula_units_Z 36
_cell_length_a 13.256466
_cell_length_b 12.316206
_cell_length_c 9.808139
_cell_angle_alpha 90.000000
_cell_angle_beta 114.454077
_cell_angle_gamma 90.000000
_cell_volume 1457.715235
_symmetry_space_group_name_H-M "C 2/C"
_symmetry_group_IT_number 15
_symmetry_cell_setting 'monoclinic'
loop_
_space_group_symop_operation_xyz
x,y,z
-x,y,1/2-z
-x,-y,-z
x,-y,1/2+z
1/2+x,1/2+y,z
1/2-x,1/2+y,1/2-z
1/2-x,1/2-y,-z
1/2+x,1/2-y,1/2+z
loop_
_atom_site_type_symbol
_atom_site_label
_atom_site_fract_x
_atom_site_fract_y
_atom_site_fract_z
Si Si1 0.882544 0.538802 0.872982
Si Si2 0.000000 0.292480 0.250000
Si Si3 0.490217 0.395606 0.090775
Si Si4 0.661583 0.672428 0.520463
Si Si5 0.748038 0.570509 0.066721
O O1 0.818432 0.586538 0.968123
O O2 0.817242 0.445586 0.747843
O O3 0.912974 0.629966 0.778129
O O4 0.000000 0.500000 0.000000
O O5 0.948448 0.211471 0.114833
O O6 0.500000 0.433635 0.250000
O O7 0.363548 0.356404 0.991254
O O8 0.500000 0.500000 0.000000
O O9 0.605332 0.326554 0.138513
O O10 0.750000 0.750000 0.500000
O O11 0.704071 0.552440 0.519007
#
# Coordination Sequence:
#
# PCOD9294962 Si02
#       5
#     8   4   8   8   8
#     4  12  22  44  66 102 133 189 243 288 351 442
#     4  12  26  42  66 102 138 186 232 290 376 404
#     4  10  23  41  71 108 135 183 240 293 357 432
#     4  11  23  44  67  99 145 178 226 297 368 427
#     4  11  23  40  72  97 134 180 242 291 348 425
#
# _framework density 24.696180999999999
#
# number of rings (size 3 to 8) (size 9 to 14) (size 15 to 20)
#    0.000    0.889    4.444    2.667    9.333    0.000 
#    0.000    5.556    0.000    0.000    0.000    0.000 
#    0.000    0.000    0.000    0.000    0.000    0.000 
#
# Total GULP energy -100279.943222 kJ/mol
# GULP energy per Si atom -5571.107957 kJ/mol
# Density = 2.463997 g / cm^3
# Si number density = 24.696181 Si / 1000 Ang^3
#
#
#
# Elastic Constant Matrix: (Units=GPa)
#
#
# Indices 1 2 3 4 5 6 
#
# 1 185.7238 21.2452 31.7846 0.0000 -26.5451 0.0000
# 2 21.2452 57.5069 2.6350 0.0000 2.0886 0.0000
# 3 31.7846 2.6350 117.3276 0.0000 -13.9958 0.0000
# 4 0.0000 0.0000 0.0000 31.0149 0.0000 37.1300
# 5 -26.5451 2.0886 -13.9958 0.0000 42.4110 0.0000
# 6 0.0000 0.0000 0.0000 37.1300 0.0000 82.9070
#
#
#
# Elastic Compliance Matrix: (Units=1/GPa)
#
#
# Indices 1 2 3 4 5 6 
#
# 1 0.006408 -0.002446 -0.001237 0.000000 0.003723 0.000000
# 2 -0.002446 0.018384 -0.000043 0.000000 -0.002450 0.000000
# 3 -0.001237 -0.000043 0.009126 0.000000 0.002240 0.000000
# 4 0.000000 0.000000 0.000000 0.069511 0.000000 -0.031131
# 5 0.003723 -0.002450 0.002240 0.000000 0.026769 0.000000
# 6 0.000000 0.000000 0.000000 -0.031131 0.000000 0.026004
#
#
# Mechanical properties :
#
#
# Convention : Reuss Voigt Hill
#
# Bulk Modulus (GPa) = 37.78237 52.43199 45.10718
# Shear Modulus (GPa) = 28.98978 51.59282 40.29130
#
# Velocity S-wave (km/s) = 3.42988 4.57563 4.04354
# Velocity P-wave (km/s) = 5.56933 7.01370 6.33283
#
# Compressibility (1/GPa) = 0.02646737
#
# Stress axis : x y z
#
# Youngs Moduli (GPa) = 156.05679 54.39590 109.57287
#
# Poissons Ratio (x) = 0.13305 0.13553
# Poissons Ratio (y) = 0.38169 0.00466
# Poissons Ratio (z) = 0.19303 0.00232
#
# Static dielectric constant tensor:
#      x y z
#    x 2.141720 0.000000 0.031470 
#    y 0.000000 2.038800 0.000000 
#    z 0.031470 0.000000 2.082630 
# 
# From -- ./inp_files/37675.got.cif
#   From: 2010.05.17/outbox.cif.g08.bks.cpg/sg15_19_cif.got.tgz:37675.got - 2010.06.03 18:47:42.
