data_PCOD9294494
_publ_section_title
;
Structure prediction by ZEFSAII (Michael W. Deem and Ramdas Pophale) SiO2 
 PCOD9294494
Probable space group: C 2/C
;
_chemical_formula_sum "Si O2"
_cell_formula_units_Z 48
_cell_length_a 29.378937
_cell_length_b 15.406219
_cell_length_c 14.808102
_cell_angle_alpha 90.000000
_cell_angle_beta 18.563836
_cell_angle_gamma 90.000000
_cell_volume 2133.788876
_symmetry_space_group_name_H-M "C 2/C"
_symmetry_group_IT_number 15
_symmetry_cell_setting 'monoclinic'
loop_
_space_group_symop_operation_xyz
x,y,z
-x,y,1/2-z
-x,-y,-z
x,-y,1/2+z
1/2+x,1/2+y,z
1/2-x,1/2+y,1/2-z
1/2-x,1/2-y,-z
1/2+x,1/2-y,1/2+z
loop_
_atom_site_type_symbol
_atom_site_label
_atom_site_fract_x
_atom_site_fract_y
_atom_site_fract_z
Si Si1 0.418009 0.266194 0.678271
Si Si2 0.292554 0.959189 0.731148
Si Si3 0.676674 0.341950 0.111447
Si Si4 0.823105 0.000631 0.252758
Si Si5 0.079577 0.917703 0.695164
Si Si6 0.940613 0.574907 0.675609
O O1 0.506058 0.318451 0.436352
O O2 0.443508 0.324669 0.718388
O O3 0.478124 0.169257 0.569101
O O4 0.250000 0.250000 0.000000
O O5 0.235267 0.973717 0.737633
O O6 0.460477 0.942034 0.422884
O O7 0.222283 0.884770 0.929337
O O8 0.239099 0.048988 0.878687
O O9 0.712070 0.410023 0.127146
O O10 0.750000 0.250000 0.000000
O O11 0.728740 0.067113 0.488443
O O12 0.992518 0.988227 0.918696
O O13 0.000000 0.917737 0.750000
O O14 0.000000 0.500000 0.500000
#
# Coordination Sequence:
#
# PCOD9294494 Si02
#       6
#     8   8   8   8   8   8
#     4  11  24  38  65 102 129 174 235 282 341 413
#     4  11  22  41  68  94 136 181 228 284 352 408
#     4  11  22  44  70  99 139 183 229 290 353 416
#     4  10  23  40  66  99 134 179 234 280 348 416
#     4   9  22  42  64  91 133 176 225 278 342 411
#     4  12  22  40  65  97 136 177 231 281 354 409
#
# _framework density 22.495197000000001
#
# number of rings (size 3 to 8) (size 9 to 14) (size 15 to 20)
#    0.000    1.333    3.333    1.500    2.333    2.667 
#    3.000    0.000    0.000    2.000    0.000    0.000 
#    0.000    0.000    0.000    0.000    0.000    0.000 
#
# Total GULP energy -133612.110115 kJ/mol
# GULP energy per Si atom -5567.171255 kJ/mol
# Density = 2.244400 g / cm^3
# Si number density = 22.495197 Si / 1000 Ang^3
#
#
#
# Elastic Constant Matrix: (Units=GPa)
#
#
# Indices 1 2 3 4 5 6 
#
# 1 110.7357 36.0721 6.3394 0.0000 25.2708 -0.0001
# 2 36.0721 155.4332 24.8362 0.0000 16.0067 0.0000
# 3 6.3394 24.8362 109.9312 0.0000 0.4068 0.0000
# 4 0.0000 0.0000 0.0000 31.6574 0.0000 -7.5018
# 5 25.2708 16.0067 0.4068 0.0000 38.3864 0.0000
# 6 -0.0001 0.0000 0.0000 -7.5018 0.0000 22.3528
#
#
#
# Elastic Compliance Matrix: (Units=1/GPa)
#
#
# Indices 1 2 3 4 5 6 
#
# 1 0.011150 -0.001882 -0.000194 0.000000 -0.006554 0.000000
# 2 -0.001882 0.007300 -0.001534 0.000000 -0.001789 0.000000
# 3 -0.000194 -0.001534 0.009452 0.000000 0.000667 0.000000
# 4 0.000000 0.000000 0.000000 0.034317 0.000000 0.011517
# 5 -0.006554 -0.001789 0.000667 0.000000 0.031104 0.000000
# 6 0.000000 0.000000 0.000000 0.011517 0.000000 0.048603
#
#
# Mechanical properties :
#
#
# Convention : Reuss Voigt Hill
#
# Bulk Modulus (GPa) = 48.34927 56.73283 52.54105
# Shear Modulus (GPa) = 32.04322 39.06946 35.55634
#
# Velocity S-wave (km/s) = 3.77828 4.17200 3.98001
# Velocity P-wave (km/s) = 6.36975 6.96292 6.67293
#
# Compressibility (1/GPa) = 0.02068284
#
# Stress axis : x y z
#
# Youngs Moduli (GPa) = 89.68433 136.99221 105.79910
#
# Poissons Ratio (x) = 0.25780 0.02048
# Poissons Ratio (y) = 0.16877 0.16230
# Poissons Ratio (z) = 0.01736 0.21015
#
# Static dielectric constant tensor:
#      x y z
#    x 1.649580 0.000000 -0.039050 
#    y 0.000000 1.900820 0.000000 
#    z -0.039050 0.000000 1.916480 
# 
# From -- ./inp_files/182441.got.cif
#   From: 2010.05.17/outbox.cif.g08.bks.cpg/sg15_92_cif.got.tgz:182441.got - 2010.06.03 18:47:42.
