data_PCOD9294202
_publ_section_title
;
Structure prediction by ZEFSAII (Michael W. Deem and Ramdas Pophale) SiO2 
 PCOD9294202
Probable space group: C 2/C
;
_chemical_formula_sum "Si O2"
_cell_formula_units_Z 56
_cell_length_a 31.885930
_cell_length_b 13.416122
_cell_length_c 12.768645
_cell_angle_alpha 90.000000
_cell_angle_beta 27.455617
_cell_angle_gamma 90.000000
_cell_volume 2518.428563
_symmetry_space_group_name_H-M "C 2/C"
_symmetry_group_IT_number 15
_symmetry_cell_setting 'monoclinic'
loop_
_space_group_symop_operation_xyz
x,y,z
-x,y,1/2-z
-x,-y,-z
x,-y,1/2+z
1/2+x,1/2+y,z
1/2-x,1/2+y,1/2-z
1/2-x,1/2-y,-z
1/2+x,1/2-y,1/2+z
loop_
_atom_site_type_symbol
_atom_site_label
_atom_site_fract_x
_atom_site_fract_y
_atom_site_fract_z
Si Si1 0.500000 0.124344 0.750000
Si Si2 0.088887 0.497467 0.729990
Si Si3 0.669295 0.777499 0.534327
Si Si4 0.877709 0.788134 0.131732
Si Si5 0.000000 0.178276 0.750000
Si Si6 0.569554 0.499952 0.941295
Si Si7 0.249605 0.405913 0.005938
Si Si8 0.648509 0.761680 0.352218
O O1 0.563021 0.055245 0.681972
O O2 0.561695 0.197016 0.542728
O O3 0.127615 0.387536 0.624698
O O4 0.167856 0.555092 0.616936
O O5 0.000000 0.500000 0.000000
O O6 0.778945 0.784067 0.295572
O O7 0.638234 0.724455 0.708682
O O8 0.639924 0.721657 0.491834
O O9 0.925077 0.894480 0.011856
O O10 0.041388 0.265085 0.572711
O O11 0.043037 0.089763 0.577001
O O12 0.670013 0.485045 0.667082
O O13 0.500000 0.500000 0.000000
O O14 0.298218 0.315741 0.836661
O O15 0.204309 0.362847 0.212187
#
# Coordination Sequence:
#
# PCOD9294202 Si02
#       8
#     4   8   8   8   4   8   8   8
#     4  12  27  43  76 104 142 190 236 301 371 426
#     4  12  26  46  68 104 138 179 234 292 354 438
#     4  11  24  43  68  96 138 184 233 287 357 424
#     4  11  24  45  67 101 142 186 234 295 357 437
#     4  10  23  39  64 100 130 172 226 291 335 426
#     4  11  23  43  69 100 136 182 235 286 348 420
#     4  10  24  46  66  98 140 176 233 291 349 422
#     4  10  23  42  69  95 131 181 227 287 356 410
#
# _framework density 22.236089
#
# number of rings (size 3 to 8) (size 9 to 14) (size 15 to 20)
#    0.000    1.143    2.857    2.143    4.000    5.714 
#    2.571    0.000    0.000    0.000    0.000    0.000 
#    0.000    0.000    0.000    0.000    0.000    0.000 
#
# Total GULP energy -156029.822405 kJ/mol
# GULP energy per Si atom -5572.493657 kJ/mol
# Density = 2.218548 g / cm^3
# Si number density = 22.236089 Si / 1000 Ang^3
#
#
#
# Elastic Constant Matrix: (Units=GPa)
#
#
# Indices 1 2 3 4 5 6 
#
# 1 61.1302 -0.6811 29.4872 0.0000 -7.5398 0.0000
# 2 -0.6811 64.9591 33.0040 0.0000 2.7089 0.0000
# 3 29.4872 33.0040 135.4398 0.0000 -7.0933 0.0000
# 4 0.0000 0.0000 0.0000 23.0409 0.0000 -0.2612
# 5 -7.5398 2.7089 -7.0933 0.0000 36.3970 0.0000
# 6 0.0000 0.0000 0.0000 -0.2612 0.0000 43.1235
#
#
#
# Elastic Compliance Matrix: (Units=1/GPa)
#
#
# Indices 1 2 3 4 5 6 
#
# 1 0.018935 0.002394 -0.004556 0.000000 0.002856 0.000000
# 2 0.002394 0.018043 -0.005013 0.000000 -0.001824 0.000000
# 3 -0.004556 -0.005013 0.009666 0.000000 0.001313 0.000000
# 4 0.000000 0.000000 0.000000 0.043404 0.000000 0.000263
# 5 0.002856 -0.001824 0.001313 0.000000 0.028458 0.000000
# 6 0.000000 0.000000 0.000000 0.000263 0.000000 0.023191
#
#
# Mechanical properties :
#
#
# Convention : Reuss Voigt Hill
#
# Bulk Modulus (GPa) = 30.96653 42.79436 36.88044
# Shear Modulus (GPa) = 29.97389 33.82691 31.90040
#
# Velocity S-wave (km/s) = 3.67547 3.90457 3.79175
# Velocity P-wave (km/s) = 5.65408 6.29403 5.98262
#
# Compressibility (1/GPa) = 0.03229293
#
# Stress axis : x y z
#
# Youngs Moduli (GPa) = 52.81124 55.42422 103.45769
#
# Poissons Ratio (x) = -0.13271 0.47139
# Poissons Ratio (y) = -0.12645 0.51868
# Poissons Ratio (z) = 0.24063 0.27787
#
# Static dielectric constant tensor:
#      x y z
#    x 1.597830 0.000000 0.231310 
#    y 0.000000 2.230290 0.000000 
#    z 0.231310 0.000000 1.567360 
# 
# From -- ./inp_files/127026.got.cif
#   From: 2010.05.17/outbox.cif.g08.bks.cpg/sg15_64_cif.got.tgz:127026.got - 2010.06.03 18:47:42.
