data_PCOD9294066
_publ_section_title
;
Structure prediction by ZEFSAII (Michael W. Deem and Ramdas Pophale) SiO2 
 PCOD9294066
Probable space group: C 2/C
;
_chemical_formula_sum "Si O2"
_cell_formula_units_Z 48
_cell_length_a 18.202340
_cell_length_b 5.006669
_cell_length_c 25.388687
_cell_angle_alpha 90.000000
_cell_angle_beta 109.083247
_cell_angle_gamma 90.000000
_cell_volume 2186.596383
_symmetry_space_group_name_H-M "C 2/C"
_symmetry_group_IT_number 15
_symmetry_cell_setting 'monoclinic'
loop_
_space_group_symop_operation_xyz
x,y,z
-x,y,1/2-z
-x,-y,-z
x,-y,1/2+z
1/2+x,1/2+y,z
1/2-x,1/2+y,1/2-z
1/2-x,1/2-y,-z
1/2+x,1/2-y,1/2+z
loop_
_atom_site_type_symbol
_atom_site_label
_atom_site_fract_x
_atom_site_fract_y
_atom_site_fract_z
Si Si1 0.939634 0.487551 0.369373
Si Si2 0.391826 0.135182 0.605787
Si Si3 0.703917 0.358054 0.384756
Si Si4 0.179805 0.367925 0.517850
Si Si5 0.932165 0.017874 0.940887
Si Si6 0.773941 0.408881 0.286625
O O1 0.952442 0.772864 0.399590
O O2 0.863582 0.488333 0.315591
O O3 0.018718 0.402624 0.359146
O O4 0.923444 0.268507 0.411438
O O5 0.360378 0.430573 0.609871
O O6 0.383684 0.063650 0.541388
O O7 0.333914 0.931827 0.620965
O O8 0.778231 0.397640 0.440321
O O9 0.731981 0.427618 0.333097
O O10 0.250000 0.250000 0.500000
O O11 0.142094 0.153507 0.548279
O O12 0.000000 0.000000 0.000000
O O13 0.734005 0.609935 0.236583
#
# Coordination Sequence:
#
# PCOD9294066 Si02
#       6
#     8   8   8   8   8   8
#     4  12  26  44  69  98 140 178 230 288 339 404
#     4  11  24  42  66 103 141 177 215 268 347 427
#     4  11  24  44  67  98 139 179 223 279 337 407
#     4  10  23  38  65 101 143 182 214 261 335 423
#     4  12  24  40  65 103 144 182 221 269 335 425
#     4  12  27  49  73  97 126 178 243 298 342 389
#
# _framework density 21.951923000000001
#
# number of rings (size 3 to 8) (size 9 to 14) (size 15 to 20)
#    0.000    0.667    3.333    4.000    7.000    0.000 
#    0.000    5.000    0.000    0.000    0.000    0.000 
#    0.000    0.000    0.000    0.000    0.000    0.000 
#
# Total GULP energy -134378.359677 kJ/mol
# GULP energy per Si atom -5599.098320 kJ/mol
# Density = 2.190196 g / cm^3
# Si number density = 21.951923 Si / 1000 Ang^3
#
#
#
# Elastic Constant Matrix: (Units=GPa)
#
#
# Indices 1 2 3 4 5 6 
#
# 1 72.5609 2.4181 4.1090 -0.0001 10.0412 0.0000
# 2 2.4181 63.2851 -10.6506 -0.0003 7.6639 0.0003
# 3 4.1090 -10.6506 47.9226 0.0000 6.3125 -0.0001
# 4 -0.0001 -0.0003 0.0000 37.4553 0.0000 -5.4509
# 5 10.0412 7.6639 6.3125 0.0000 31.7497 0.0000
# 6 0.0000 0.0003 -0.0001 -5.4509 0.0000 31.3858
#
#
#
# Elastic Compliance Matrix: (Units=1/GPa)
#
#
# Indices 1 2 3 4 5 6 
#
# 1 0.014433 -0.000135 -0.000689 0.000000 -0.004395 0.000000
# 2 -0.000135 0.017166 0.004484 0.000000 -0.004992 0.000000
# 3 -0.000689 0.004484 0.022629 0.000000 -0.005364 0.000000
# 4 0.000000 0.000000 0.000000 0.027391 0.000000 0.004757
# 5 -0.004395 -0.004992 -0.005364 0.000000 0.035158 0.000000
# 6 0.000000 0.000000 0.000000 0.004757 0.000000 0.032688
#
#
# Mechanical properties :
#
#
# Convention : Reuss Voigt Hill
#
# Bulk Modulus (GPa) = 16.24713 19.50240 17.87477
# Shear Modulus (GPa) = 30.73891 32.64429 31.69160
#
# Velocity S-wave (km/s) = 3.74610 3.86045 3.80370
# Velocity P-wave (km/s) = 5.11158 5.36416 5.23939
#
# Compressibility (1/GPa) = 0.06154934
#
# Stress axis : x y z
#
# Youngs Moduli (GPa) = 69.28457 58.25488 44.19073
#
# Poissons Ratio (x) = 0.00787 0.03043
# Poissons Ratio (y) = 0.00936 -0.19816
# Poissons Ratio (z) = 0.04771 -0.26123
#
# Static dielectric constant tensor:
#      x y z
#    x 1.808480 0.000000 0.014300 
#    y 0.000000 1.782860 0.000000 
#    z 0.014300 0.000000 1.803890 
# 
# From -- ./inp_files/275874.got.cif
#   From: 2010.05.17/outbox.cif.g08.bks.cpg/sg15_138_cif.got.tgz:275874.got - 2010.06.03 18:47:42.
