data_PCOD9294748
_publ_section_title
;
Structure prediction by ZEFSAII (Michael W. Deem and Ramdas Pophale) SiO2 
 PCOD9294748
Probable space group: C 2/C
;
_chemical_formula_sum "Si O2"
_cell_formula_units_Z 64
_cell_length_a 29.863719
_cell_length_b 12.531858
_cell_length_c 16.372940
_cell_angle_alpha 90.000000
_cell_angle_beta 148.147462
_cell_angle_gamma 90.000000
_cell_volume 3233.715702
_symmetry_space_group_name_H-M "C 2/C"
_symmetry_group_IT_number 15
_symmetry_cell_setting 'monoclinic'
loop_
_space_group_symop_operation_xyz
x,y,z
-x,y,1/2-z
-x,-y,-z
x,-y,1/2+z
1/2+x,1/2+y,z
1/2-x,1/2+y,1/2-z
1/2-x,1/2-y,-z
1/2+x,1/2-y,1/2+z
loop_
_atom_site_type_symbol
_atom_site_label
_atom_site_fract_x
_atom_site_fract_y
_atom_site_fract_z
Si Si1 0.025361 0.375587 0.529560
Si Si2 0.740543 0.556476 0.528982
Si Si3 0.405286 0.340439 0.610449
Si Si4 0.929288 0.387620 0.089705
Si Si5 0.210773 0.320237 0.864994
Si Si6 0.222542 0.151023 0.740383
Si Si7 0.149593 0.291778 0.187042
Si Si8 0.254687 0.432433 0.652267
O O1 0.041310 0.359743 0.456750
O O2 0.110707 0.348964 0.712009
O O3 0.000000 0.500000 0.500000
O O4 0.948949 0.303933 0.446206
O O5 0.647559 0.606436 0.399299
O O6 0.744570 0.436099 0.569157
O O7 0.803815 0.635989 0.672977
O O8 0.765410 0.556832 0.473882
O O9 0.500000 0.385705 0.750000
O O10 0.416309 0.213279 0.631264
O O11 0.346007 0.348180 0.438650
O O12 0.000000 0.454165 0.250000
O O13 0.833579 0.428700 0.935395
O O14 0.218911 0.249645 0.796213
O O15 0.250000 0.250000 0.000000
O O16 0.315297 0.157127 0.842360
O O17 0.202948 0.042328 0.756427
O O18 0.188559 0.172800 0.247977
#
# Coordination Sequence:
#
# PCOD9294748 Si02
#       8
#     8   8   8   8   8   8   8   8
#     4  12  24  43  69  98 134 175 225 280 337 396
#     4  11  23  41  69  94 133 176 223 272 337 398
#     4  10  23  41  65  95 131 172 218 278 336 394
#     4  11  23  38  67  98 131 164 215 285 337 383
#     4  12  25  47  66  95 139 185 218 270 347 415
#     4  11  24  45  67  94 135 185 215 271 349 399
#     4  11  24  40  70  99 129 166 234 285 324 395
#     4  12  23  41  67  99 131 174 225 275 332 407
#
# _framework density 19.791474000000001
#
# number of rings (size 3 to 8) (size 9 to 14) (size 15 to 20)
#    0.000    0.750    6.250    1.875    8.750    0.000 
#    2.250    1.875    0.000    0.000    0.000    0.000 
#    0.000    0.000    0.000    0.000    0.000    0.000 
#
# Total GULP energy -178532.192724 kJ/mol
# GULP energy per Si atom -5579.131023 kJ/mol
# Density = 1.974643 g / cm^3
# Si number density = 19.791474 Si / 1000 Ang^3
#
#
#
# Elastic Constant Matrix: (Units=GPa)
#
#
# Indices 1 2 3 4 5 6 
#
# 1 96.5028 33.1040 36.0317 0.0000 7.4231 0.0000
# 2 33.1040 109.0214 12.7754 0.0000 -4.1601 0.0000
# 3 36.0317 12.7754 80.4862 0.0000 20.1928 0.0000
# 4 0.0000 0.0000 0.0000 -2.2361 0.0000 4.1587
# 5 7.4231 -4.1601 20.1928 0.0000 29.0117 0.0000
# 6 0.0000 0.0000 0.0000 4.1587 0.0000 20.9920
#
#
#
# Elastic Compliance Matrix: (Units=1/GPa)
#
#
# Indices 1 2 3 4 5 6 
#
# 1 0.013631 -0.003500 -0.005508 0.000000 -0.000156 0.000000
# 2 -0.003500 0.010447 -0.000838 0.000000 0.002977 0.000000
# 3 -0.005508 -0.000838 0.017810 0.000000 -0.011107 0.000000
# 4 0.000000 0.000000 0.000000 -0.326796 0.000000 0.064742
# 5 -0.000156 0.002977 -0.011107 0.000000 0.042666 0.000000
# 6 0.000000 0.000000 0.000000 0.064742 0.000000 0.034811
#
#
# Mechanical properties :
#
#
# Convention : Reuss Voigt Hill
#
# Bulk Modulus (GPa) = 45.05204 49.98141 47.51673
# Shear Modulus (GPa) = -27.72551 23.16013 -2.28269
#
# Velocity S-wave (km/s) = -3.74690 3.42454 -1.07512
# Velocity P-wave (km/s) = 2.02332 6.39886 4.74549
#
# Compressibility (1/GPa) = 0.02219655
#
# Stress axis : x y z
#
# Youngs Moduli (GPa) = 73.36014 95.72102 56.14858
#
# Poissons Ratio (x) = 0.33499 0.30925
# Poissons Ratio (y) = 0.25674 0.04708
# Poissons Ratio (z) = 0.40405 0.08025
#
# Static dielectric constant tensor:
#      x y z
#    x 1.740190 0.000000 0.003740 
#    y 0.000000 1.730740 0.000000 
#    z 0.003740 0.000000 1.846250 
# 
# From -- ./inp_files/225209.got.cif
#   From: 2010.05.17/outbox.cif.g08.bks.cpg/sg15_113_cif.got.tgz:225209.got - 2010.06.03 18:47:42.
