data_PCOD9294336
_publ_section_title
;
Structure prediction by ZEFSAII (Michael W. Deem and Ramdas Pophale) SiO2 
 PCOD9294336
Probable space group: C 2/C
;
_chemical_formula_sum "Si O2"
_cell_formula_units_Z 40
_cell_length_a 12.878009
_cell_length_b 13.500348
_cell_length_c 11.062452
_cell_angle_alpha 90.000000
_cell_angle_beta 124.927093
_cell_angle_gamma 90.000000
_cell_volume 1576.870525
_symmetry_space_group_name_H-M "C 2/C"
_symmetry_group_IT_number 15
_symmetry_cell_setting 'monoclinic'
loop_
_space_group_symop_operation_xyz
x,y,z
-x,y,1/2-z
-x,-y,-z
x,-y,1/2+z
1/2+x,1/2+y,z
1/2-x,1/2+y,1/2-z
1/2-x,1/2-y,-z
1/2+x,1/2-y,1/2+z
loop_
_atom_site_type_symbol
_atom_site_label
_atom_site_fract_x
_atom_site_fract_y
_atom_site_fract_z
Si Si1 0.147864 0.064565 0.932454
Si Si2 0.500000 0.376356 0.750000
Si Si3 0.080456 0.381853 0.956642
Si Si4 0.500000 0.045653 0.750000
Si Si5 0.439039 0.681669 0.866488
Si Si6 0.670341 0.801968 0.276843
O O1 0.116642 0.121640 0.785200
O O2 0.061389 0.114253 0.978349
O O3 0.294935 0.092376 0.041435
O O4 0.095376 0.953629 0.881180
O O5 0.404683 0.300164 0.754006
O O6 0.995716 0.475777 0.864452
O O7 0.998100 0.286215 0.871647
O O8 0.127049 0.352087 0.121302
O O9 0.381687 0.119946 0.660392
O O10 0.321828 0.702863 0.876090
#
# Coordination Sequence:
#
# PCOD9294336 Si02
#       6
#     8   4   8   4   8   8
#     4   9  20  40  62  90 121 157 197 243 298 353
#     4   9  20  41  62  86 124 157 194 245 292 356
#     4  11  22  39  64  90 118 156 199 248 297 349
#     4  11  24  41  60  88 122 157 200 249 294 352
#     4   9  19  37  60  88 118 151 197 243 288 351
#     4  10  23  40  61  89 120 158 200 243 297 351
#
# _framework density 25.366700999999999
#
# number of rings (size 3 to 8) (size 9 to 14) (size 15 to 20)
#    0.000    2.400    0.000    2.400    0.000    9.600 
#    0.000    9.000    0.000    0.000    0.000    0.000 
#    0.000    0.000    0.000    0.000    0.000    0.000 
#
# Total GULP energy -111556.222747 kJ/mol
# GULP energy per Si atom -5577.811137 kJ/mol
# Density = 2.530897 g / cm^3
# Si number density = 25.366701 Si / 1000 Ang^3
#
#
#
# Elastic Constant Matrix: (Units=GPa)
#
#
# Indices 1 2 3 4 5 6 
#
# 1 150.0030 116.1788 35.5064 0.0000 43.8307 0.0000
# 2 116.1788 243.9309 46.7751 0.0000 21.8179 0.0000
# 3 35.5064 46.7751 53.0169 0.0000 10.5851 0.0000
# 4 0.0000 0.0000 0.0000 16.4808 0.0000 36.0505
# 5 43.8307 21.8179 10.5851 0.0000 42.9628 0.0000
# 6 0.0000 0.0000 0.0000 36.0505 0.0000 -324.6123
#
#
#
# Elastic Compliance Matrix: (Units=1/GPa)
#
#
# Indices 1 2 3 4 5 6 
#
# 1 0.015171 -0.005617 -0.002823 0.000000 -0.011930 0.000000
# 2 -0.005617 0.007109 -0.003085 0.000000 0.002881 0.000000
# 3 -0.002823 -0.003085 0.023755 0.000000 -0.001406 0.000000
# 4 0.000000 0.000000 0.000000 0.048817 0.000000 0.005422
# 5 -0.011930 0.002881 -0.001406 0.000000 0.034330 0.000000
# 6 0.000000 0.000000 0.000000 0.005422 0.000000 -0.002479
#
#
# Mechanical properties :
#
#
# Convention : Reuss Voigt Hill
#
# Bulk Modulus (GPa) = 43.50680 93.76348 68.63514
# Shear Modulus (GPa) = 31.76308 -36.46770 -2.35231
#
# Velocity S-wave (km/s) = 3.54242 -3.79571 -0.96402
# Velocity P-wave (km/s) = 5.82409 4.22298 5.08692
#
# Compressibility (1/GPa) = 0.02298491
#
# Stress axis : x y z
#
# Youngs Moduli (GPa) = 65.91427 140.66905 42.09673
#
# Poissons Ratio (x) = 0.79020 0.11882
# Poissons Ratio (y) = 0.37027 0.12987
# Poissons Ratio (z) = 0.18605 0.43397
#
# Static dielectric constant tensor:
#      x y z
#    x 2.143580 0.000000 0.004930 
#    y 0.000000 1.934730 0.000000 
#    z 0.004930 0.000000 2.133730 
# 
# From -- ./inp_files/152318.got.cif
#   From: 2010.05.17/outbox.cif.g08.bks.cpg/sg15_77_cif.got.tgz:152318.got - 2010.06.03 18:47:42.
