data_PCOD9294898
_publ_section_title
;
Structure prediction by ZEFSAII (Michael W. Deem and Ramdas Pophale) SiO2 
 PCOD9294898
Probable space group: C 2/C
;
_chemical_formula_sum "Si O2"
_cell_formula_units_Z 56
_cell_length_a 26.968894
_cell_length_b 11.694084
_cell_length_c 13.311185
_cell_angle_alpha 90.000000
_cell_angle_beta 32.005740
_cell_angle_gamma 90.000000
_cell_volume 2224.976318
_symmetry_space_group_name_H-M "C 2/C"
_symmetry_group_IT_number 15
_symmetry_cell_setting 'monoclinic'
loop_
_space_group_symop_operation_xyz
x,y,z
-x,y,1/2-z
-x,-y,-z
x,-y,1/2+z
1/2+x,1/2+y,z
1/2-x,1/2+y,1/2-z
1/2-x,1/2-y,-z
1/2+x,1/2-y,1/2+z
loop_
_atom_site_type_symbol
_atom_site_label
_atom_site_fract_x
_atom_site_fract_y
_atom_site_fract_z
Si Si1 0.507195 0.365715 0.521268
Si Si2 0.096076 0.632966 0.762657
Si Si3 0.408644 0.347728 0.335147
Si Si4 0.093105 0.517293 0.469187
Si Si5 0.250692 0.891175 0.664081
Si Si6 0.358791 0.568775 0.545826
Si Si7 0.318214 0.196490 0.621425
O O1 0.500000 0.500000 0.500000
O O2 0.431478 0.264623 0.668273
O O3 0.565829 0.325697 0.323479
O O4 0.553872 0.374476 0.551317
O O5 0.108035 0.545972 0.836240
O O6 0.189049 0.627293 0.537015
O O7 0.005537 0.579636 0.861569
O O8 0.500000 0.324086 0.250000
O O9 0.379359 0.476055 0.423641
O O10 0.325136 0.260350 0.504360
O O11 0.175206 0.599470 0.369664
O O12 0.108536 0.405339 0.510961
O O13 0.166551 0.805287 0.833344
O O14 0.195596 0.009738 0.765829
O O15 0.277664 0.656990 0.660192
#
# Coordination Sequence:
#
# PCOD9294898 Si02
#       7
#     8   8   8   8   8   8   8
#     4  12  26  44  69 103 135 179 236 279 336 411
#     4  11  25  42  72 101 134 184 229 281 336 407
#     4  11  23  43  67  94 135 181 221 279 337 402
#     4  10  23  44  66 103 138 175 229 275 343 406
#     4  10  23  42  67 100 136 178 226 277 344 399
#     4  10  24  42  63 100 133 176 223 280 345 393
#     4  10  23  41  68  97 137 180 220 277 343 401
#
# _framework density 25.168807000000001
#
# number of rings (size 3 to 8) (size 9 to 14) (size 15 to 20)
#    0.000    1.429    1.429    2.143    4.000   12.571 
#    0.000    0.000    0.000    0.000    0.000    0.000 
#    0.000    0.000    0.000    0.000    0.000    0.000 
#
# Total GULP energy -155981.100959 kJ/mol
# GULP energy per Si atom -5570.753606 kJ/mol
# Density = 2.511152 g / cm^3
# Si number density = 25.168807 Si / 1000 Ang^3
#
#
#
# Elastic Constant Matrix: (Units=GPa)
#
#
# Indices 1 2 3 4 5 6 
#
# 1 62.3739 -5.6401 -4.3823 0.0000 -6.2819 0.0000
# 2 -5.6401 68.0573 20.6255 0.0000 15.2703 0.0000
# 3 -4.3823 20.6255 112.3184 0.0000 25.9895 0.0000
# 4 0.0000 0.0000 0.0000 47.3222 0.0000 5.8715
# 5 -6.2819 15.2703 25.9895 0.0000 31.3801 0.0000
# 6 0.0000 0.0000 0.0000 5.8715 0.0000 -7.2904
#
#
#
# Elastic Compliance Matrix: (Units=1/GPa)
#
#
# Indices 1 2 3 4 5 6 
#
# 1 0.016396 0.000727 -0.000212 0.000000 0.003104 0.000000
# 2 0.000727 0.016720 -0.001476 0.000000 -0.006768 0.000000
# 3 -0.000212 -0.001476 0.011146 0.000000 -0.008555 0.000000
# 4 0.000000 0.000000 0.000000 0.019212 0.000000 0.015473
# 5 0.003104 -0.006768 -0.008555 0.000000 0.042868 0.000000
# 6 0.000000 0.000000 0.000000 0.015473 0.000000 -0.124705
#
#
# Mechanical properties :
#
#
# Convention : Reuss Voigt Hill
#
# Bulk Modulus (GPa) = 23.61920 29.32841 26.47380
# Shear Modulus (GPa) = -2147.43330 29.75882 -1058.83724
#
# Velocity S-wave (km/s) = -29.24148 3.44229 -20.53308
# Velocity P-wave (km/s) = 33.62560 5.24186 23.48621
#
# Compressibility (1/GPa) = 0.04233844
#
# Stress axis : x y z
#
# Youngs Moduli (GPa) = 60.99125 59.80994 89.72151
#
# Poissons Ratio (x) = -0.04345 0.01902
# Poissons Ratio (y) = -0.04431 0.13241
# Poissons Ratio (z) = 0.01293 0.08827
#
# Static dielectric constant tensor:
#      x y z
#    x 2.194530 0.000000 -0.091590 
#    y 0.000000 2.019790 0.000000 
#    z -0.091590 0.000000 2.111050 
# 
# From -- ./inp_files/181933.got.cif
#   From: 2010.05.17/outbox.cif.g08.bks.cpg/sg15_91_cif.got.tgz:181933.got - 2010.06.03 18:47:42.
