data_PCOD9294545
_publ_section_title
;
Structure prediction by ZEFSAII (Michael W. Deem and Ramdas Pophale) SiO2 
 PCOD9294545
Probable space group: C 2/C
;
_chemical_formula_sum "Si O2"
_cell_formula_units_Z 40
_cell_length_a 18.543642
_cell_length_b 10.117906
_cell_length_c 12.355700
_cell_angle_alpha 90.000000
_cell_angle_beta 128.565851
_cell_angle_gamma 90.000000
_cell_volume 1812.591319
_symmetry_space_group_name_H-M "C 2/C"
_symmetry_group_IT_number 15
_symmetry_cell_setting 'monoclinic'
loop_
_space_group_symop_operation_xyz
x,y,z
-x,y,1/2-z
-x,-y,-z
x,-y,1/2+z
1/2+x,1/2+y,z
1/2-x,1/2+y,1/2-z
1/2-x,1/2-y,-z
1/2+x,1/2-y,1/2+z
loop_
_atom_site_type_symbol
_atom_site_label
_atom_site_fract_x
_atom_site_fract_y
_atom_site_fract_z
Si Si1 0.682736 0.393357 0.491054
Si Si2 0.181572 0.802353 0.028908
Si Si3 0.343970 0.245528 0.247759
Si Si4 0.974100 0.400953 0.115724
Si Si5 0.058933 0.324485 0.997114
O O1 0.661696 0.543050 0.498877
O O2 0.667979 0.364974 0.349585
O O3 0.786591 0.366723 0.630588
O O4 0.621631 0.283664 0.498028
O O5 0.199443 0.772959 0.174143
O O6 0.250000 0.750000 0.000000
O O7 0.090898 0.719362 0.920574
O O8 0.451493 0.208217 0.365603
O O9 0.921267 0.521544 0.008958
O O10 0.000000 0.468959 0.250000
O O11 0.056495 0.336060 0.124500
#
# Coordination Sequence:
#
# PCOD9294545 Si02
#       5
#     8   8   8   8   8
#     4  11  25  43  73  96 135 183 216 280 338 396
#     4  11  28  42  66 104 137 167 229 284 330 392
#     4  10  25  44  70 100 131 180 224 265 341 403
#     4  10  23  40  68  97 132 176 222 277 334 388
#     4  10  23  44  68  96 134 177 229 266 332 410
#
# _framework density 22.067854000000001
#
# number of rings (size 3 to 8) (size 9 to 14) (size 15 to 20)
#    0.000    1.600    0.000    1.800   14.000    6.400 
#    0.000    0.000    0.000    0.000    0.000    0.000 
#    0.000    0.000    0.000    0.000    0.000    0.000 
#
# Total GULP energy -111526.016615 kJ/mol
# GULP energy per Si atom -5576.300831 kJ/mol
# Density = 2.201763 g / cm^3
# Si number density = 22.067854 Si / 1000 Ang^3
#
#
#
# Elastic Constant Matrix: (Units=GPa)
#
#
# Indices 1 2 3 4 5 6 
#
# 1 108.3620 32.5241 23.2603 0.0000 -22.5605 0.0000
# 2 32.5241 125.3303 -5.1192 0.0000 -2.8447 0.0000
# 3 23.2603 -5.1192 69.1190 0.0000 -22.5569 0.0000
# 4 0.0000 0.0000 0.0000 12.3632 0.0000 -2.8906
# 5 -22.5605 -2.8447 -22.5569 0.0000 42.8235 0.0000
# 6 0.0000 0.0000 0.0000 -2.8906 0.0000 35.2852
#
#
#
# Elastic Compliance Matrix: (Units=1/GPa)
#
#
# Indices 1 2 3 4 5 6 
#
# 1 0.011654 -0.003030 -0.002667 0.000000 0.004534 0.000000
# 2 -0.003030 0.008828 0.001623 0.000000 -0.000155 0.000000
# 3 -0.002667 0.001623 0.018189 0.000000 0.008284 0.000000
# 4 0.000000 0.000000 0.000000 0.082465 0.000000 0.006756
# 5 0.004534 -0.000155 0.008284 0.000000 0.030093 0.000000
# 6 0.000000 0.000000 0.000000 0.006756 0.000000 0.028894
#
#
# Mechanical properties :
#
#
# Convention : Reuss Voigt Hill
#
# Bulk Modulus (GPa) = 32.76240 44.90464 38.83352
# Shear Modulus (GPa) = 25.19585 34.90414 30.04999
#
# Velocity S-wave (km/s) = 3.38264 3.98134 3.69414
# Velocity P-wave (km/s) = 5.48951 6.44417 5.98591
#
# Compressibility (1/GPa) = 0.03052279
#
# Stress axis : x y z
#
# Youngs Moduli (GPa) = 85.80591 113.27472 54.97883
#
# Poissons Ratio (x) = 0.34327 0.14662
# Poissons Ratio (y) = 0.26002 -0.08923
# Poissons Ratio (z) = 0.22883 -0.18385
#
# Static dielectric constant tensor:
#      x y z
#    x 1.895390 0.000000 -0.044630 
#    y 0.000000 1.748860 0.000000 
#    z -0.044630 0.000000 1.922070 
# 
# From -- ./inp_files/166519.got.cif
#   From: 2010.05.17/outbox.cif.g08.bks.cpg/sg15_84_cif.got.tgz:166519.got - 2010.06.03 18:47:42.
