data_PCOD9294211
_publ_section_title
;
Structure prediction by ZEFSAII (Michael W. Deem and Ramdas Pophale) SiO2 
 PCOD9294211
Probable space group: C 2/C
;
_chemical_formula_sum "Si O2"
_cell_formula_units_Z 56
_cell_length_a 11.607394
_cell_length_b 20.556082
_cell_length_c 12.876199
_cell_angle_alpha 90.000000
_cell_angle_beta 67.664632
_cell_angle_gamma 90.000000
_cell_volume 2841.795927
_symmetry_space_group_name_H-M "C 2/C"
_symmetry_group_IT_number 15
_symmetry_cell_setting 'monoclinic'
loop_
_space_group_symop_operation_xyz
x,y,z
-x,y,1/2-z
-x,-y,-z
x,-y,1/2+z
1/2+x,1/2+y,z
1/2-x,1/2+y,1/2-z
1/2-x,1/2-y,-z
1/2+x,1/2-y,1/2+z
loop_
_atom_site_type_symbol
_atom_site_label
_atom_site_fract_x
_atom_site_fract_y
_atom_site_fract_z
Si Si1 0.029926 0.878242 0.860042
Si Si2 0.205578 0.432024 0.660572
Si Si3 0.630204 0.111680 0.760432
Si Si4 0.123606 0.514528 0.391884
Si Si5 0.222053 0.065896 0.974978
Si Si6 0.612038 0.799311 0.631809
Si Si7 0.621357 0.241179 0.899010
O O1 0.163951 0.908400 0.836993
O O2 0.043442 0.802396 0.884471
O O3 0.000000 0.884371 0.750000
O O4 0.921157 0.915788 0.958871
O O5 0.113050 0.446347 0.787806
O O6 0.241246 0.496400 0.586521
O O7 0.153062 0.374411 0.609028
O O8 0.500000 0.091767 0.750000
O O9 0.669120 0.055770 0.830733
O O10 0.722966 0.114878 0.630395
O O11 0.614264 0.179248 0.826094
O O12 0.211170 0.558173 0.436166
O O13 0.000000 0.500000 0.500000
O O14 0.500000 0.792297 0.750000
O O15 0.576388 0.775313 0.530247
O O16 0.733880 0.761975 0.634043
#
# Coordination Sequence:
#
# PCOD9294211 Si02
#       7
#     8   8   8   8   8   8   8
#     4  11  22  44  63  90 127 164 212 253 312 378
#     4  10  23  39  64  93 124 163 208 261 311 374
#     4  11  23  39  61  95 127 162 205 263 315 366
#     4  11  22  38  61  93 129 158 206 259 316 375
#     4  11  23  39  66  91 125 167 204 258 321 369
#     4  10  23  41  67  91 122 169 211 256 314 367
#     4  10  24  43  61  91 129 163 213 259 298 380
#
# _framework density 19.705846999999999
#
# number of rings (size 3 to 8) (size 9 to 14) (size 15 to 20)
#    0.000    1.429    2.857    1.714    6.000    0.000 
#    0.000    1.429    0.000    0.000    0.000    0.000 
#    0.000    0.000    0.000    0.000    0.000    0.000 
#
# Total GULP energy -156294.032804 kJ/mol
# GULP energy per Si atom -5581.929743 kJ/mol
# Density = 1.966100 g / cm^3
# Si number density = 19.705847 Si / 1000 Ang^3
#
#
#
# Elastic Constant Matrix: (Units=GPa)
#
#
# Indices 1 2 3 4 5 6 
#
# 1 48.4984 -7.2443 27.8974 0.0000 -14.2984 0.0000
# 2 -7.2443 35.8736 17.1486 0.0000 -2.3627 0.0000
# 3 27.8974 17.1486 121.8127 0.0000 -17.9479 0.0000
# 4 0.0000 0.0000 0.0000 28.5975 0.0000 1.6335
# 5 -14.2984 -2.3627 -17.9479 0.0000 29.7010 0.0000
# 6 0.0000 0.0000 0.0000 1.6335 0.0000 23.6381
#
#
#
# Elastic Compliance Matrix: (Units=1/GPa)
#
#
# Indices 1 2 3 4 5 6 
#
# 1 0.028915 0.009601 -0.006378 0.000000 0.010830 0.000000
# 2 0.009601 0.033076 -0.006352 0.000000 0.003415 0.000000
# 3 -0.006378 -0.006352 0.011018 0.000000 0.003082 0.000000
# 4 0.000000 0.000000 0.000000 0.035107 0.000000 -0.002426
# 5 0.010830 0.003415 0.003082 0.000000 0.041017 0.000000
# 6 0.000000 0.000000 0.000000 -0.002426 0.000000 0.042472
#
#
# Mechanical properties :
#
#
# Convention : Reuss Voigt Hill
#
# Bulk Modulus (GPa) = 14.98093 31.30978 23.14535
# Shear Modulus (GPa) = 22.71557 27.61286 25.16421
#
# Velocity S-wave (km/s) = 3.39887 3.74739 3.57738
# Velocity P-wave (km/s) = 4.79812 5.88617 5.36977
#
# Compressibility (1/GPa) = 0.06675155
#
# Stress axis : x y z
#
# Youngs Moduli (GPa) = 34.58406 30.23348 90.75691
#
# Poissons Ratio (x) = -0.29028 0.57886
# Poissons Ratio (y) = -0.33205 0.57650
# Poissons Ratio (z) = 0.22058 0.19205
#
# Static dielectric constant tensor:
#      x y z
#    x 1.691710 0.000000 0.002040 
#    y 0.000000 1.699970 0.000000 
#    z 0.002040 0.000000 1.684660 
# 
# From -- ./inp_files/89547.got.cif
#   From: 2010.05.17/outbox.cif.g08.bks.cpg/sg15_45_cif.got.tgz:89547.got - 2010.06.03 18:47:42.
