data_PCOD9294042
_publ_section_title
;
Structure prediction by ZEFSAII (Michael W. Deem and Ramdas Pophale) SiO2 
 PCOD9294042
Probable space group: C 2/C
;
_chemical_formula_sum "Si O2"
_cell_formula_units_Z 52
_cell_length_a 12.435057
_cell_length_b 24.401627
_cell_length_c 9.522116
_cell_angle_alpha 90.000000
_cell_angle_beta 56.473814
_cell_angle_gamma 90.000000
_cell_volume 2408.658233
_symmetry_space_group_name_H-M "C 2/C"
_symmetry_group_IT_number 15
_symmetry_cell_setting 'monoclinic'
loop_
_space_group_symop_operation_xyz
x,y,z
-x,y,1/2-z
-x,-y,-z
x,-y,1/2+z
1/2+x,1/2+y,z
1/2-x,1/2+y,1/2-z
1/2-x,1/2-y,-z
1/2+x,1/2-y,1/2+z
loop_
_atom_site_type_symbol
_atom_site_label
_atom_site_fract_x
_atom_site_fract_y
_atom_site_fract_z
Si Si1 0.877082 0.115820 0.547165
Si Si2 0.354845 0.696003 0.798140
Si Si3 0.500000 0.937042 0.250000
Si Si4 0.278301 0.100673 0.103608
Si Si5 0.849692 0.673344 0.321206
Si Si6 0.438754 0.451933 0.447503
Si Si7 0.776241 0.493921 0.276103
O O1 0.840131 0.169992 0.655821
O O2 0.840923 0.116639 0.410777
O O3 0.022549 0.100832 0.489034
O O4 0.795861 0.064840 0.673560
O O5 0.500000 0.685441 0.750000
O O6 0.339983 0.761314 0.799999
O O7 0.250106 0.667685 0.976604
O O8 0.401709 0.900601 0.410781
O O9 0.420136 0.976889 0.206009
O O10 0.307348 0.138351 0.216444
O O11 0.262043 0.037359 0.162254
O O12 0.000000 0.660890 0.250000
O O13 0.500000 0.449692 0.250000
O O14 0.500000 0.500000 0.500000
O O15 0.290688 0.469719 0.552026
#
# Coordination Sequence:
#
# PCOD9294042 Si02
#       7
#     8   8   4   8   8   8   8
#     4  10  24  39  67  93 140 172 222 283 341 403
#     4  10  23  48  71 105 130 177 232 284 350 408
#     4  10  24  42  62  92 132 184 230 276 328 414
#     4  11  25  42  64 100 135 179 231 278 343 403
#     4  10  25  45  76  98 135 177 231 287 343 416
#     4  10  23  38  62  91 128 177 218 272 335 394
#     4  10  24  40  62  94 137 177 227 270 335 406
#
# _framework density 21.588782999999999
#
# number of rings (size 3 to 8) (size 9 to 14) (size 15 to 20)
#    0.000    1.846    0.000    0.923   22.615    0.615 
#    0.000    0.000    0.000    0.000    0.000    0.000 
#    0.000    0.000    0.000    0.000    0.000    0.000 
#
# Total GULP energy -145083.162703 kJ/mol
# GULP energy per Si atom -5580.121642 kJ/mol
# Density = 2.153965 g / cm^3
# Si number density = 21.588783 Si / 1000 Ang^3
#
#
#
# Elastic Constant Matrix: (Units=GPa)
#
#
# Indices 1 2 3 4 5 6 
#
# 1 112.8406 35.8200 39.8703 0.0000 18.7173 0.0000
# 2 35.8200 64.2072 26.6492 0.0000 18.8828 0.0000
# 3 39.8703 26.6492 103.3503 0.0000 12.1251 0.0000
# 4 0.0000 0.0000 0.0000 38.8479 0.0000 11.6977
# 5 18.7173 18.8828 12.1251 0.0000 45.2453 0.0000
# 6 0.0000 0.0000 0.0000 11.6977 0.0000 18.6297
#
#
#
# Elastic Compliance Matrix: (Units=1/GPa)
#
#
# Indices 1 2 3 4 5 6 
#
# 1 0.011788 -0.004675 -0.003096 0.000000 -0.002096 0.000000
# 2 -0.004675 0.021207 -0.002946 0.000000 -0.006127 0.000000
# 3 -0.003096 -0.002946 0.011703 0.000000 -0.000626 0.000000
# 4 0.000000 0.000000 0.000000 0.031743 0.000000 -0.019932
# 5 -0.002096 -0.006127 -0.000626 0.000000 0.025694 0.000000
# 6 0.000000 0.000000 0.000000 -0.019932 0.000000 0.066193
#
#
# Mechanical properties :
#
#
# Convention : Reuss Voigt Hill
#
# Bulk Modulus (GPa) = 42.98427 53.89747 48.44087
# Shear Modulus (GPa) = 25.31433 32.41516 28.86475
#
# Velocity S-wave (km/s) = 3.42799 3.87910 3.66050
# Velocity P-wave (km/s) = 5.96841 6.71438 6.35235
#
# Compressibility (1/GPa) = 0.02326433
#
# Stress axis : x y z
#
# Youngs Moduli (GPa) = 84.83510 47.15360 85.44560
#
# Poissons Ratio (x) = 0.22043 0.26455
# Poissons Ratio (y) = 0.39658 0.25173
# Poissons Ratio (z) = 0.26266 0.13892
#
# Static dielectric constant tensor:
#      x y z
#    x 1.898500 0.000000 -0.074020 
#    y 0.000000 1.777970 0.000000 
#    z -0.074020 0.000000 1.865140 
# 
# From -- ./inp_files/34063.got.cif
#   From: 2010.05.17/outbox.cif.g08.bks.cpg/sg15_18_cif.got.tgz:34063.got - 2010.06.03 18:47:42.
