data_PCOD9294838
_publ_section_title
;
Structure prediction by ZEFSAII (Michael W. Deem and Ramdas Pophale) SiO2 
 PCOD9294838
Probable space group: C 2/C
;
_chemical_formula_sum "Si O2"
_cell_formula_units_Z 48
_cell_length_a 11.170306
_cell_length_b 11.833078
_cell_length_c 16.862697
_cell_angle_alpha 90.000000
_cell_angle_beta 96.086398
_cell_angle_gamma 90.000000
_cell_volume 2216.332181
_symmetry_space_group_name_H-M "C 2/C"
_symmetry_group_IT_number 15
_symmetry_cell_setting 'monoclinic'
loop_
_space_group_symop_operation_xyz
x,y,z
-x,y,1/2-z
-x,-y,-z
x,-y,1/2+z
1/2+x,1/2+y,z
1/2-x,1/2+y,1/2-z
1/2-x,1/2-y,-z
1/2+x,1/2-y,1/2+z
loop_
_atom_site_type_symbol
_atom_site_label
_atom_site_fract_x
_atom_site_fract_y
_atom_site_fract_z
Si Si1 0.013386 0.841662 0.922319
Si Si2 0.319097 0.818350 0.357263
Si Si3 0.900220 0.921077 0.401837
Si Si4 0.534319 0.992631 0.593834
Si Si5 0.051223 0.733916 0.339555
Si Si6 0.641934 0.165832 0.827184
O O1 0.105545 0.783076 0.867688
O O2 0.912930 0.743444 0.922886
O O3 0.081971 0.882830 0.005597
O O4 0.932519 0.948490 0.891585
O O5 0.193913 0.752122 0.354037
O O6 0.358486 0.813990 0.267313
O O7 0.334250 0.950749 0.381919
O O8 0.772576 0.879498 0.361214
O O9 0.000152 0.853706 0.361166
O O10 0.509087 0.863561 0.612819
O O11 0.500000 0.000000 0.500000
O O12 0.446970 0.068502 0.644352
O O13 0.000000 0.707173 0.250000
#
# Coordination Sequence:
#
# PCOD9294838 Si02
#       6
#     8   8   8   8   8   8
#     4  10  23  41  67  94 131 176 222 274 337 402
#     4  11  24  45  69  95 136 178 225 282 337 409
#     4  11  24  41  64 100 133 173 222 276 335 410
#     4  11  25  43  70  99 132 179 230 281 344 406
#     4  12  24  42  65 101 134 172 226 279 343 408
#     4  11  22  45  67  94 136 177 225 276 340 407
#
# _framework density 21.657404
#
# number of rings (size 3 to 8) (size 9 to 14) (size 15 to 20)
#    0.000    1.000    1.667    6.500    0.000    8.000 
#    3.000    0.000    0.000    0.000    0.000    0.000 
#    0.000    0.000    0.000    0.000    0.000    0.000 
#
# Total GULP energy -133949.716342 kJ/mol
# GULP energy per Si atom -5581.238181 kJ/mol
# Density = 2.160811 g / cm^3
# Si number density = 21.657404 Si / 1000 Ang^3
#
#
#
# Elastic Constant Matrix: (Units=GPa)
#
#
# Indices 1 2 3 4 5 6 
#
# 1 -7.1470 14.0903 -29.7325 0.0000 30.2932 0.0000
# 2 14.0903 140.6629 24.4754 0.0000 -42.5838 0.0000
# 3 -29.7325 24.4754 56.3369 0.0000 -0.8084 0.0000
# 4 0.0000 0.0000 0.0000 131.3356 0.0000 -15.2642
# 5 30.2932 -42.5838 -0.8084 0.0000 61.5377 0.0000
# 6 0.0000 0.0000 0.0000 -15.2642 0.0000 37.1536
#
#
#
# Elastic Compliance Matrix: (Units=1/GPa)
#
#
# Indices 1 2 3 4 5 6 
#
# 1 -0.016757 0.007879 -0.012073 0.000000 0.013543 0.000000
# 2 0.007879 0.006192 0.001474 0.000000 0.000426 0.000000
# 3 -0.012073 0.001474 0.010840 0.000000 0.007106 0.000000
# 4 0.000000 0.000000 0.000000 0.007996 0.000000 0.003285
# 5 0.013543 0.000426 0.007106 0.000000 0.009971 0.000000
# 6 0.000000 0.000000 0.000000 0.003285 0.000000 0.028265
#
#
# Mechanical properties :
#
#
# Convention : Reuss Voigt Hill
#
# Bulk Modulus (GPa) = -193.67193 23.05768 -85.30713
# Shear Modulus (GPa) = 99.55292 58.07334 78.81313
#
# Velocity S-wave (km/s) = 6.78726 5.18389 6.03903
# Velocity P-wave (km/s) = 5.31007 6.81909 3.02516
#
# Compressibility (1/GPa) = -0.00516337
#
# Stress axis : x y z
#
# Youngs Moduli (GPa) = -59.67491 161.49139 92.24840
#
# Poissons Ratio (x) = -1.27243 1.11369
# Poissons Ratio (y) = 0.47019 -0.13600
# Poissons Ratio (z) = -0.72044 -0.23808
#
# Static dielectric constant tensor:
#      x y z
#    x 1.787650 0.000000 -0.074640 
#    y 0.000000 1.778960 0.000000 
#    z -0.074640 0.000000 1.608310 
# 
# From -- ./inp_files/196603.got.cif
#   From: 2010.05.17/outbox.cif.g08.bks.cpg/sg15_99_cif.got.tgz:196603.got - 2010.06.03 18:47:42.
