data_PCOD9294567
_publ_section_title
;
Structure prediction by ZEFSAII (Michael W. Deem and Ramdas Pophale) SiO2 
 PCOD9294567
Probable space group: C 2/C
;
_chemical_formula_sum "Si O2"
_cell_formula_units_Z 44
_cell_length_a 10.904606
_cell_length_b 17.572190
_cell_length_c 11.499448
_cell_angle_alpha 90.000000
_cell_angle_beta 104.968052
_cell_angle_gamma 90.000000
_cell_volume 2128.734288
_symmetry_space_group_name_H-M "C 2/C"
_symmetry_group_IT_number 15
_symmetry_cell_setting 'monoclinic'
loop_
_space_group_symop_operation_xyz
x,y,z
-x,y,1/2-z
-x,-y,-z
x,-y,1/2+z
1/2+x,1/2+y,z
1/2-x,1/2+y,1/2-z
1/2-x,1/2-y,-z
1/2+x,1/2-y,1/2+z
loop_
_atom_site_type_symbol
_atom_site_label
_atom_site_fract_x
_atom_site_fract_y
_atom_site_fract_z
Si Si1 0.500000 0.378172 0.750000
Si Si2 0.866405 0.017791 0.402283
Si Si3 0.702990 0.872813 0.019372
Si Si4 0.813588 0.246042 0.139973
Si Si5 0.864184 0.414378 0.245351
Si Si6 0.137176 0.741050 0.317819
O O1 0.591558 0.430389 0.696138
O O2 0.580778 0.319138 0.845926
O O3 0.786668 0.065219 0.475755
O O4 0.766592 0.954227 0.330682
O O5 0.000000 0.000000 0.500000
O O6 0.635584 0.906643 0.115151
O O7 0.791821 0.807147 0.095131
O O8 0.622296 0.830652 0.900107
O O9 0.862944 0.329744 0.188268
O O10 0.719730 0.223351 0.223236
O O11 0.750000 0.250000 0.000000
O O12 0.000000 0.452497 0.250000
O O13 0.000000 0.770019 0.250000
#
# Coordination Sequence:
#
# PCOD9294567 Si02
#       6
#     4   8   8   8   8   8
#     4  12  24  46  70 102 142 182 250 282 352 438
#     4  12  26  45  70 103 143 191 232 294 364 439
#     4  10  24  44  65 100 139 182 237 290 355 441
#     4  11  24  41  71 106 137 183 240 300 352 425
#     4  11  26  46  70 103 146 189 236 301 370 424
#     4  10  23  40  70 101 135 182 233 296 360 420
#
# _framework density 20.669559
#
# number of rings (size 3 to 8) (size 9 to 14) (size 15 to 20)
#    0.000    1.091    2.727    2.182   10.182    1.455 
#    0.000    0.000    0.000    0.000    0.000    0.000 
#    0.000    0.000    0.000    0.000    0.000    0.000 
#
# Total GULP energy -122818.554379 kJ/mol
# GULP energy per Si atom -5582.661563 kJ/mol
# Density = 2.062251 g / cm^3
# Si number density = 20.669559 Si / 1000 Ang^3
#
#
#
# Elastic Constant Matrix: (Units=GPa)
#
#
# Indices 1 2 3 4 5 6 
#
# 1 85.0124 42.3267 35.7592 0.0000 7.4188 0.0000
# 2 42.3267 75.2519 31.7041 0.0000 -9.9727 0.0000
# 3 35.7592 31.7041 123.4135 0.0000 -7.0304 0.0000
# 4 0.0000 0.0000 0.0000 -5.5226 0.0000 -16.4849
# 5 7.4188 -9.9727 -7.0304 0.0000 32.2011 0.0000
# 6 0.0000 0.0000 0.0000 -16.4849 0.0000 25.0351
#
#
#
# Elastic Compliance Matrix: (Units=1/GPa)
#
#
# Indices 1 2 3 4 5 6 
#
# 1 0.019092 -0.010446 -0.003325 0.000000 -0.008359 0.000000
# 2 -0.010446 0.021097 -0.001908 0.000000 0.008524 0.000000
# 3 -0.003325 -0.001908 0.009687 0.000000 0.002290 0.000000
# 4 0.000000 0.000000 0.000000 -0.061059 0.000000 -0.040206
# 5 -0.008359 0.008524 0.002290 0.000000 0.036121 0.000000
# 6 0.000000 0.000000 0.000000 -0.040206 0.000000 0.013469
#
#
# Mechanical properties :
#
#
# Convention : Reuss Voigt Hill
#
# Bulk Modulus (GPa) = 53.99548 55.91755 54.95652
# Shear Modulus (GPa) = 65.84578 21.93522 43.89050
#
# Velocity S-wave (km/s) = 5.65027 3.26119 4.61308
# Velocity P-wave (km/s) = 8.29140 6.42591 7.41753
#
# Compressibility (1/GPa) = 0.01852007
#
# Stress axis : x y z
#
# Youngs Moduli (GPa) = 52.37881 47.39949 103.23475
#
# Poissons Ratio (x) = 0.49511 0.34322
# Poissons Ratio (y) = 0.54713 0.19693
# Poissons Ratio (z) = 0.17414 0.09042
#
# Static dielectric constant tensor:
#      x y z
#    x 1.969550 0.000000 0.083530 
#    y 0.000000 1.756390 0.000000 
#    z 0.083530 0.000000 1.703870 
# 
# From -- ./inp_files/87554.got.cif
#   From: 2010.05.17/outbox.cif.g08.bks.cpg/sg15_44_cif.got.tgz:87554.got - 2010.06.03 18:47:42.
