data_PCOD9294535
_publ_section_title
;
Structure prediction by ZEFSAII (Michael W. Deem and Ramdas Pophale) SiO2 
 PCOD9294535
Probable space group: C 2/C
;
_chemical_formula_sum "Si O2"
_cell_formula_units_Z 36
_cell_length_a 7.682498
_cell_length_b 19.357341
_cell_length_c 10.114359
_cell_angle_alpha 90.000000
_cell_angle_beta 73.888323
_cell_angle_gamma 90.000000
_cell_volume 1445.055528
_symmetry_space_group_name_H-M "C 2/C"
_symmetry_group_IT_number 15
_symmetry_cell_setting 'monoclinic'
loop_
_space_group_symop_operation_xyz
x,y,z
-x,y,1/2-z
-x,-y,-z
x,-y,1/2+z
1/2+x,1/2+y,z
1/2-x,1/2+y,1/2-z
1/2-x,1/2-y,-z
1/2+x,1/2-y,1/2+z
loop_
_atom_site_type_symbol
_atom_site_label
_atom_site_fract_x
_atom_site_fract_y
_atom_site_fract_z
Si Si1 0.771136 0.642968 0.047245
Si Si2 0.800378 0.542679 0.789303
Si Si3 0.043878 0.754492 0.949796
Si Si4 0.500000 0.543882 0.250000
Si Si5 0.695528 0.342757 0.144101
O O1 0.799870 0.601236 0.903581
O O2 0.618229 0.700935 0.068395
O O3 0.951807 0.687296 0.041694
O O4 0.670313 0.587906 0.161076
O O5 0.611560 0.501102 0.834555
O O6 0.782254 0.583393 0.652817
O O7 0.000000 0.508169 0.750000
O O8 0.157880 0.810722 0.008925
O O9 0.177350 0.716484 0.820259
O O10 0.500000 0.344565 0.250000
#
# Coordination Sequence:
#
# PCOD9294535 Si02
#       5
#     8   8   8   4   8
#     4  11  24  44  68  97 135 176 227 283 341 398
#     4  12  24  47  69  93 137 192 226 275 337 399
#     4  10  23  40  68 103 131 172 218 286 350 404
#     4  12  28  44  66 100 136 180 242 276 316 406
#     4  11  21  40  69  97 134 176 219 275 348 406
#
# _framework density 24.912538999999999
#
# number of rings (size 3 to 8) (size 9 to 14) (size 15 to 20)
#    0.000    0.889    5.556    0.667    3.111    0.889 
#    8.000    0.000    0.000    0.000    0.000    0.000 
#    0.000    0.000    0.000    0.000    0.000    0.000 
#
# Total GULP energy -100317.994661 kJ/mol
# GULP energy per Si atom -5573.221926 kJ/mol
# Density = 2.485584 g / cm^3
# Si number density = 24.912539 Si / 1000 Ang^3
#
#
#
# Elastic Constant Matrix: (Units=GPa)
#
#
# Indices 1 2 3 4 5 6 
#
# 1 181.2610 43.9201 18.1476 0.0000 -18.2985 0.0000
# 2 43.9201 72.5219 18.8560 0.0000 -1.3983 0.0000
# 3 18.1476 18.8560 32.5846 0.0000 -1.0236 0.0000
# 4 0.0000 0.0000 0.0000 12.4725 0.0000 -15.2665
# 5 -18.2985 -1.3983 -1.0236 0.0000 19.3527 0.0000
# 6 0.0000 0.0000 0.0000 -15.2665 0.0000 36.7965
#
#
#
# Elastic Compliance Matrix: (Units=1/GPa)
#
#
# Indices 1 2 3 4 5 6 
#
# 1 0.007270 -0.003858 -0.001612 0.000000 0.006510 0.000000
# 2 -0.003858 0.018288 -0.008521 0.000000 -0.002778 0.000000
# 3 -0.001612 -0.008521 0.036511 0.000000 -0.000209 0.000000
# 4 0.000000 0.000000 0.000000 0.162904 0.000000 0.067587
# 5 0.006510 -0.002778 -0.000209 0.000000 0.057616 0.000000
# 6 0.000000 0.000000 0.000000 0.067587 0.000000 0.055218
#
#
# Mechanical properties :
#
#
# Convention : Reuss Voigt Hill
#
# Bulk Modulus (GPa) = 29.33679 49.80165 39.56922
# Shear Modulus (GPa) = 13.25722 27.42058 20.33890
#
# Velocity S-wave (km/s) = 2.30934 3.32124 2.86039
# Velocity P-wave (km/s) = 4.34882 5.89419 5.17947
#
# Compressibility (1/GPa) = 0.03408689
#
# Stress axis : x y z
#
# Youngs Moduli (GPa) = 137.54348 54.68188 27.38866
#
# Poissons Ratio (x) = 0.21099 0.04415
# Poissons Ratio (y) = 0.53070 0.23338
# Poissons Ratio (z) = 0.22170 0.46594
#
# Static dielectric constant tensor:
#      x y z
#    x 2.191700 0.000000 -0.022660 
#    y 0.000000 2.035450 0.000000 
#    z -0.022660 0.000000 2.041400 
# 
# From -- ./inp_files/77270.got.cif
#   From: 2010.05.17/outbox.cif.g08.bks.cpg/sg15_39_cif.got.tgz:77270.got - 2010.06.03 18:47:42.
