data_PCOD9294821
_publ_section_title
;
Structure prediction by ZEFSAII (Michael W. Deem and Ramdas Pophale) SiO2 
 PCOD9294821
Probable space group: C 2/C
;
_chemical_formula_sum "Si O2"
_cell_formula_units_Z 40
_cell_length_a 12.058667
_cell_length_b 21.212047
_cell_length_c 10.521038
_cell_angle_alpha 90.000000
_cell_angle_beta 142.488548
_cell_angle_gamma 90.000000
_cell_volume 1638.704713
_symmetry_space_group_name_H-M "C 2/C"
_symmetry_group_IT_number 15
_symmetry_cell_setting 'monoclinic'
loop_
_space_group_symop_operation_xyz
x,y,z
-x,y,1/2-z
-x,-y,-z
x,-y,1/2+z
1/2+x,1/2+y,z
1/2-x,1/2+y,1/2-z
1/2-x,1/2-y,-z
1/2+x,1/2-y,1/2+z
loop_
_atom_site_type_symbol
_atom_site_label
_atom_site_fract_x
_atom_site_fract_y
_atom_site_fract_z
Si Si1 0.863666 0.146386 0.017896
Si Si2 0.617336 0.499692 0.975844
Si Si3 0.069520 0.329330 0.076567
Si Si4 0.692360 0.891349 0.962794
Si Si5 0.167347 0.189742 0.109175
O O1 0.000000 0.172473 0.250000
O O2 0.992679 0.158959 0.015448
O O3 0.837893 0.072032 0.016210
O O4 0.664636 0.172159 0.801783
O O5 0.500000 0.525426 0.750000
O O6 0.500000 0.500000 0.000000
O O7 0.786710 0.546381 0.107234
O O8 0.140026 0.264096 0.080564
O O9 0.165163 0.388941 0.089646
O O10 0.850457 0.328245 0.858636
O O11 0.500000 0.861927 0.750000
O O12 0.825081 0.841330 0.021501
#
# Coordination Sequence:
#
# PCOD9294821 Si02
#       5
#     8   8   8   8   8
#     4  11  25  43  63  94 133 184 224 269 331 404
#     4  11  22  42  68  94 133 178 229 275 333 404
#     4  11  23  42  67  99 131 172 220 281 333 397
#     4  10  23  41  67 102 132 170 219 283 343 398
#     4  11  22  42  67 100 133 170 223 276 341 399
#
# _framework density 24.409524999999999
#
# number of rings (size 3 to 8) (size 9 to 14) (size 15 to 20)
#    0.000    1.200    4.000    1.800    0.000    1.600 
#    7.200    3.000    0.000    0.000    0.000    0.000 
#    0.000    0.000    0.000    0.000    0.000    0.000 
#
# Total GULP energy -111379.802269 kJ/mol
# GULP energy per Si atom -5568.990113 kJ/mol
# Density = 2.435397 g / cm^3
# Si number density = 24.409525 Si / 1000 Ang^3
#
#
#
# Elastic Constant Matrix: (Units=GPa)
#
#
# Indices 1 2 3 4 5 6 
#
# 1 70.4816 10.5835 26.6560 0.0000 21.2025 0.0000
# 2 10.5835 96.5556 -6.9116 0.0000 9.9586 0.0000
# 3 26.6560 -6.9116 159.1938 0.0000 7.5161 0.0000
# 4 0.0000 0.0000 0.0000 26.5623 0.0000 0.7185
# 5 21.2025 9.9586 7.5161 0.0000 26.6685 0.0000
# 6 0.0000 0.0000 0.0000 0.7185 0.0000 36.7961
#
#
#
# Elastic Compliance Matrix: (Units=1/GPa)
#
#
# Indices 1 2 3 4 5 6 
#
# 1 0.019711 -0.000843 -0.002647 0.000000 -0.014610 0.000000
# 2 -0.000843 0.010878 0.000784 0.000000 -0.003613 0.000000
# 3 -0.002647 0.000784 0.006763 0.000000 -0.000094 0.000000
# 4 0.000000 0.000000 0.000000 0.037667 0.000000 -0.000735
# 5 -0.014610 -0.003613 -0.000094 0.000000 0.050489 0.000000
# 6 0.000000 0.000000 0.000000 -0.000735 0.000000 0.027191
#
#
# Mechanical properties :
#
#
# Convention : Reuss Voigt Hill
#
# Bulk Modulus (GPa) = 31.30933 42.98741 37.14837
# Shear Modulus (GPa) = 29.62811 37.73223 33.68017
#
# Velocity S-wave (km/s) = 3.48773 3.93593 3.71859
# Velocity P-wave (km/s) = 5.39199 6.18907 5.80423
#
# Compressibility (1/GPa) = 0.03193936
#
# Stress axis : x y z
#
# Youngs Moduli (GPa) = 50.73319 91.92976 147.85438
#
# Poissons Ratio (x) = 0.07751 0.39141
# Poissons Ratio (y) = 0.04278 -0.11592
# Poissons Ratio (z) = 0.13431 -0.07207
#
# Static dielectric constant tensor:
#      x y z
#    x 2.177620 0.000000 -0.021730 
#    y 0.000000 1.960640 0.000000 
#    z -0.021730 0.000000 2.366820 
# 
# From -- ./inp_files/41059.got.cif
#   From: 2010.05.17/outbox.cif.g08.bks.cpg/sg15_21_cif.got.tgz:41059.got - 2010.06.03 18:47:42.
