data_PCOD9294090
_publ_section_title
;
Structure prediction by ZEFSAII (Michael W. Deem and Ramdas Pophale) SiO2 
 PCOD9294090
Probable space group: C 2/C
;
_chemical_formula_sum "Si O2"
_cell_formula_units_Z 40
_cell_length_a 15.011656
_cell_length_b 21.648777
_cell_length_c 8.926612
_cell_angle_alpha 90.000000
_cell_angle_beta 139.557231
_cell_angle_gamma 90.000000
_cell_volume 1881.848306
_symmetry_space_group_name_H-M "C 2/C"
_symmetry_group_IT_number 15
_symmetry_cell_setting 'monoclinic'
loop_
_space_group_symop_operation_xyz
x,y,z
-x,y,1/2-z
-x,-y,-z
x,-y,1/2+z
1/2+x,1/2+y,z
1/2-x,1/2+y,1/2-z
1/2-x,1/2-y,-z
1/2+x,1/2-y,1/2+z
loop_
_atom_site_type_symbol
_atom_site_label
_atom_site_fract_x
_atom_site_fract_y
_atom_site_fract_z
Si Si1 0.500000 0.285763 0.750000
Si Si2 0.000000 0.094926 0.750000
Si Si3 0.842581 0.868772 0.766977
Si Si4 0.451080 0.835480 0.027184
Si Si5 0.429085 0.944063 0.498985
Si Si6 0.846318 0.991922 0.237003
O O1 0.383834 0.328826 0.674644
O O2 0.528857 0.237823 0.923207
O O3 0.962812 0.129150 0.547544
O O4 0.871245 0.050308 0.623380
O O5 0.710742 0.845018 0.686924
O O6 0.805670 0.937333 0.661832
O O7 0.500000 0.861870 0.250000
O O8 0.535061 0.876319 0.018795
O O9 0.500000 0.947124 0.750000
O O10 0.267657 0.958302 0.309634
O O11 0.500000 0.000000 0.500000
O O12 0.000000 0.000000 0.500000
#
# Coordination Sequence:
#
# PCOD9294090 Si02
#       6
#     4   4   8   8   8   8
#     4  10  25  44  66  94 131 188 224 274 328 394
#     4  10  23  40  64 104 125 174 224 274 348 392
#     4  11  21  44  65  94 137 173 226 276 327 406
#     4  10  24  42  66  94 132 173 230 266 332 395
#     4  12  24  42  69 101 136 172 217 283 343 401
#     4  10  23  38  67  99 138 167 215 278 346 391
#
# _framework density 21.255699
#
# number of rings (size 3 to 8) (size 9 to 14) (size 15 to 20)
#    0.600    0.800    2.000    3.000    2.800    3.200 
#    1.800    1.000    0.000    0.000    0.000    0.000 
#    0.000    0.000    0.000    0.000    0.000    0.000 
#
# Total GULP energy -111471.687237 kJ/mol
# GULP energy per Si atom -5573.584362 kJ/mol
# Density = 2.120732 g / cm^3
# Si number density = 21.255699 Si / 1000 Ang^3
#
#
#
# Elastic Constant Matrix: (Units=GPa)
#
#
# Indices 1 2 3 4 5 6 
#
# 1 136.7521 63.0034 21.1698 0.0000 18.3925 0.0000
# 2 63.0034 123.8717 5.2448 0.0000 6.8333 0.0000
# 3 21.1698 5.2448 62.2442 0.0000 -4.3601 0.0000
# 4 0.0000 0.0000 0.0000 9.6353 0.0000 -10.1885
# 5 18.3925 6.8333 -4.3601 0.0000 44.6216 0.0000
# 6 0.0000 0.0000 0.0000 -10.1885 0.0000 54.3151
#
#
#
# Elastic Compliance Matrix: (Units=1/GPa)
#
#
# Indices 1 2 3 4 5 6 
#
# 1 0.010737 -0.005093 -0.003502 0.000000 -0.003988 0.000000
# 2 -0.005093 0.010595 0.000879 0.000000 0.000563 0.000000
# 3 -0.003502 0.000879 0.017394 0.000000 0.003009 0.000000
# 4 0.000000 0.000000 0.000000 0.129465 0.000000 0.024285
# 5 -0.003988 0.000563 0.003009 0.000000 0.024262 0.000000
# 6 0.000000 0.000000 0.000000 0.024285 0.000000 0.022967
#
#
# Mechanical properties :
#
#
# Convention : Reuss Voigt Hill
#
# Bulk Modulus (GPa) = 42.93053 55.74490 49.33772
# Shear Modulus (GPa) = 20.95410 37.27771 29.11591
#
# Velocity S-wave (km/s) = 3.14317 4.19235 3.70509
# Velocity P-wave (km/s) = 5.78046 7.05104 6.44713
#
# Compressibility (1/GPa) = 0.02329344
#
# Stress axis : x y z
#
# Youngs Moduli (GPa) = 93.13229 94.38417 57.49259
#
# Poissons Ratio (x) = 0.48069 0.20135
# Poissons Ratio (y) = 0.47432 -0.05053
# Poissons Ratio (z) = 0.32616 -0.08295
#
# Static dielectric constant tensor:
#      x y z
#    x 1.778880 0.000000 -0.013350 
#    y 0.000000 1.812920 0.000000 
#    z -0.013350 0.000000 1.861800 
# 
# From -- ./inp_files/42447.got.cif
#   From: 2010.05.17/outbox.cif.g08.bks.cpg/sg15_22_cif.got.tgz:42447.got - 2010.06.03 18:47:42.
