data_PCOD9294676
_publ_section_title
;
Structure prediction by ZEFSAII (Michael W. Deem and Ramdas Pophale) SiO2 
 PCOD9294676
Probable space group: C 2/C
;
_chemical_formula_sum "Si O2"
_cell_formula_units_Z 52
_cell_length_a 19.479941
_cell_length_b 6.634646
_cell_length_c 18.526326
_cell_angle_alpha 90.000000
_cell_angle_beta 101.227236
_cell_angle_gamma 90.000000
_cell_volume 2348.566816
_symmetry_space_group_name_H-M "C 2/C"
_symmetry_group_IT_number 15
_symmetry_cell_setting 'monoclinic'
loop_
_space_group_symop_operation_xyz
x,y,z
-x,y,1/2-z
-x,-y,-z
x,-y,1/2+z
1/2+x,1/2+y,z
1/2-x,1/2+y,1/2-z
1/2-x,1/2-y,-z
1/2+x,1/2-y,1/2+z
loop_
_atom_site_type_symbol
_atom_site_label
_atom_site_fract_x
_atom_site_fract_y
_atom_site_fract_z
Si Si1 0.798338 0.474055 0.300590
Si Si2 0.916611 0.819926 0.827305
Si Si3 0.247144 0.562093 0.552078
Si Si4 0.304111 0.416010 0.347768
Si Si5 0.325071 0.176630 0.574341
Si Si6 0.000000 0.136481 0.750000
Si Si7 0.470820 0.966277 0.165899
O O1 0.768034 0.383696 0.368626
O O2 0.737004 0.499544 0.230768
O O3 0.826992 0.692350 0.328444
O O4 0.871440 0.052194 0.376031
O O5 0.859699 0.664554 0.782948
O O6 0.000000 0.606191 0.750000
O O7 0.975743 0.669391 0.870778
O O8 0.944158 0.988847 0.776829
O O9 0.250000 0.750000 0.500000
O O10 0.315242 0.417153 0.566558
O O11 0.185279 0.423727 0.505870
O O12 0.243758 0.393183 0.394874
O O13 0.394335 0.100159 0.626710
O O14 0.974441 0.292557 0.681542
#
# Coordination Sequence:
#
# PCOD9294676 Si02
#       7
#     8   8   8   8   8   4   8
#     4  11  23  38  62  99 134 173 226 287 343 399
#     4  12  22  38  59  96 135 170 221 284 346 409
#     4  10  23  42  68  97 133 182 227 274 344 416
#     4  11  23  36  66  99 132 169 222 291 344 389
#     4  10  23  45  67  96 137 176 227 282 341 422
#     4  10  24  36  60  88 134 178 214 276 352 406
#     4  10  23  41  63  97 133 173 228 278 344 409
#
# _framework density 22.141162999999999
#
# number of rings (size 3 to 8) (size 9 to 14) (size 15 to 20)
#    0.462    0.923    2.308    2.769    4.308    1.231 
#    0.000    0.769    0.000   13.846    0.000    0.000 
#    0.000    0.000    0.000    0.000    0.000    0.000 
#
# Total GULP energy -144946.045952 kJ/mol
# GULP energy per Si atom -5574.847921 kJ/mol
# Density = 2.209077 g / cm^3
# Si number density = 22.141163 Si / 1000 Ang^3
#
#
#
# Elastic Constant Matrix: (Units=GPa)
#
#
# Indices 1 2 3 4 5 6 
#
# 1 117.2448 60.1397 26.7648 0.0000 13.3871 0.0000
# 2 60.1397 142.5471 16.0312 0.0000 6.1560 0.0000
# 3 26.7648 16.0312 94.1842 0.0000 2.3232 0.0000
# 4 0.0000 0.0000 0.0000 22.9926 0.0000 -5.0647
# 5 13.3871 6.1560 2.3232 0.0000 25.1610 0.0000
# 6 0.0000 0.0000 0.0000 -5.0647 0.0000 46.3662
#
#
#
# Elastic Compliance Matrix: (Units=1/GPa)
#
#
# Indices 1 2 3 4 5 6 
#
# 1 0.012025 -0.004572 -0.002514 0.000000 -0.005047 0.000000
# 2 -0.004572 0.008959 -0.000232 0.000000 0.000262 0.000000
# 3 -0.002514 -0.000232 0.011363 0.000000 0.000345 0.000000
# 4 0.000000 0.000000 0.000000 0.044565 0.000000 0.004868
# 5 -0.005047 0.000262 0.000345 0.000000 0.042333 0.000000
# 6 0.000000 0.000000 0.000000 0.004868 0.000000 0.022099
#
#
# Mechanical properties :
#
#
# Convention : Reuss Voigt Hill
#
# Bulk Modulus (GPa) = 56.46789 62.20525 59.33657
# Shear Modulus (GPa) = 30.88617 35.63998 33.26308
#
# Velocity S-wave (km/s) = 3.73898 4.01642 3.88018
# Velocity P-wave (km/s) = 6.64822 7.04732 6.85068
#
# Compressibility (1/GPa) = 0.01770918
#
# Stress axis : x y z
#
# Youngs Moduli (GPa) = 83.16128 111.61856 88.00498
#
# Poissons Ratio (x) = 0.51037 0.22128
# Poissons Ratio (y) = 0.38025 0.02042
# Poissons Ratio (z) = 0.20910 0.02590
#
# Static dielectric constant tensor:
#      x y z
#    x 1.892080 0.000000 -0.069900 
#    y 0.000000 1.928350 0.000000 
#    z -0.069900 0.000000 1.804180 
# 
# From -- ./inp_files/254100.got.cif
#   From: 2010.05.17/outbox.cif.g08.bks.cpg/sg15_128_cif.got.tgz:254100.got - 2010.06.03 18:47:42.
