data_PCOD9294879
_publ_section_title
;
Structure prediction by ZEFSAII (Michael W. Deem and Ramdas Pophale) SiO2 
 PCOD9294879
Probable space group: C 2/C
;
_chemical_formula_sum "Si O2"
_cell_formula_units_Z 48
_cell_length_a 21.082284
_cell_length_b 9.628905
_cell_length_c 13.455307
_cell_angle_alpha 90.000000
_cell_angle_beta 120.978255
_cell_angle_gamma 90.000000
_cell_volume 2341.815960
_symmetry_space_group_name_H-M "C 2/C"
_symmetry_group_IT_number 15
_symmetry_cell_setting 'monoclinic'
loop_
_space_group_symop_operation_xyz
x,y,z
-x,y,1/2-z
-x,-y,-z
x,-y,1/2+z
1/2+x,1/2+y,z
1/2-x,1/2+y,1/2-z
1/2-x,1/2-y,-z
1/2+x,1/2-y,1/2+z
loop_
_atom_site_type_symbol
_atom_site_label
_atom_site_fract_x
_atom_site_fract_y
_atom_site_fract_z
Si Si1 0.445856 0.560670 0.118110
Si Si2 0.216104 0.969771 0.945223
Si Si3 0.016761 0.233326 0.879753
Si Si4 0.765161 0.301090 0.175139
Si Si5 0.157825 0.396418 0.066072
Si Si6 0.106638 0.702655 0.071457
O O1 0.500000 0.603133 0.250000
O O2 0.368841 0.499243 0.099251
O O3 0.482838 0.430176 0.093291
O O4 0.426654 0.693098 0.037014
O O5 0.213793 0.840605 0.865418
O O6 0.267626 0.087300 0.939107
O O7 0.252646 0.913252 0.077245
O O8 0.000000 0.243729 0.750000
O O9 0.951398 0.306511 0.887140
O O10 0.095497 0.297860 0.971355
O O11 0.820489 0.348745 0.305257
O O12 0.685811 0.270106 0.161966
O O13 0.124138 0.551435 0.042817
#
# Coordination Sequence:
#
# PCOD9294879 Si02
#       6
#     8   8   8   8   8   8
#     4  10  23  41  68  90 128 177 207 265 317 387
#     4   9  21  42  62  96 127 162 221 254 317 382
#     4  11  26  42  60 100 134 164 211 272 323 375
#     4   9  21  40  67  91 128 167 207 268 313 382
#     4  11  24  40  72  95 125 174 208 274 321 373
#     4  10  23  45  63  97 128 168 218 256 319 391
#
# _framework density 20.496912999999999
#
# number of rings (size 3 to 8) (size 9 to 14) (size 15 to 20)
#    0.000    2.000    0.000    2.000    9.333    6.667 
#    0.000    0.000    0.000    0.000    0.000    0.000 
#    0.000    0.000    0.000    0.000    0.000    0.000 
#
# Total GULP energy -134080.458525 kJ/mol
# GULP energy per Si atom -5586.685772 kJ/mol
# Density = 2.045026 g / cm^3
# Si number density = 20.496913 Si / 1000 Ang^3
#
#
#
# Elastic Constant Matrix: (Units=GPa)
#
#
# Indices 1 2 3 4 5 6 
#
# 1 66.2049 -10.0075 28.2498 0.0000 -15.5305 0.0000
# 2 -10.0075 59.0292 54.4982 0.0000 5.6994 0.0000
# 3 28.2498 54.4982 134.3057 0.0000 10.3090 0.0000
# 4 0.0000 0.0000 0.0000 8.8996 0.0000 -0.5227
# 5 -15.5305 5.6994 10.3090 0.0000 16.4077 0.0000
# 6 0.0000 0.0000 0.0000 -0.5227 0.0000 27.1040
#
#
#
# Elastic Compliance Matrix: (Units=1/GPa)
#
#
# Indices 1 2 3 4 5 6 
#
# 1 0.033792 0.018154 -0.017279 0.000000 0.036536 0.000000
# 2 0.018154 0.036950 -0.020116 0.000000 0.016987 0.000000
# 3 -0.017279 -0.020116 0.020973 0.000000 -0.022545 0.000000
# 4 0.000000 0.000000 0.000000 0.112492 0.000000 0.002169
# 5 0.036536 0.016987 -0.022545 0.000000 0.103794 0.000000
# 6 0.000000 0.000000 0.000000 0.002169 0.000000 0.036937
#
#
# Mechanical properties :
#
#
# Convention : Reuss Voigt Hill
#
# Bulk Modulus (GPa) = 18.78504 45.00231 31.89367
# Shear Modulus (GPa) = 12.46374 22.93555 17.69964
#
# Velocity S-wave (km/s) = 2.46860 3.34874 2.94177
# Velocity P-wave (km/s) = 4.16053 6.07909 5.20891
#
# Compressibility (1/GPa) = 0.05323386
#
# Stress axis : x y z
#
# Youngs Moduli (GPa) = 29.59267 27.06356 47.68020
#
# Poissons Ratio (x) = -0.49130 0.82384
# Poissons Ratio (y) = -0.53721 0.95912
# Poissons Ratio (z) = 0.51132 0.54440
#
# Static dielectric constant tensor:
#      x y z
#    x 1.738590 0.000000 -0.004970 
#    y 0.000000 1.717770 0.000000 
#    z -0.004970 0.000000 1.692630 
# 
# From -- ./inp_files/111219.got.cif
#   From: 2010.05.17/outbox.cif.g08.bks.cpg/sg15_56_cif.got.tgz:111219.got - 2010.06.03 18:47:42.
