data_PCOD9294407
_publ_section_title
;
Structure prediction by ZEFSAII (Michael W. Deem and Ramdas Pophale) SiO2 
 PCOD9294407
Probable space group: C 2/C
;
_chemical_formula_sum "Si O2"
_cell_formula_units_Z 48
_cell_length_a 9.008385
_cell_length_b 29.026001
_cell_length_c 17.140285
_cell_angle_alpha 90.000000
_cell_angle_beta 29.419984
_cell_angle_gamma 90.000000
_cell_volume 2201.492720
_symmetry_space_group_name_H-M "C 2/C"
_symmetry_group_IT_number 15
_symmetry_cell_setting 'monoclinic'
loop_
_space_group_symop_operation_xyz
x,y,z
-x,y,1/2-z
-x,-y,-z
x,-y,1/2+z
1/2+x,1/2+y,z
1/2-x,1/2+y,1/2-z
1/2-x,1/2-y,-z
1/2+x,1/2-y,1/2+z
loop_
_atom_site_type_symbol
_atom_site_label
_atom_site_fract_x
_atom_site_fract_y
_atom_site_fract_z
Si Si1 0.159056 0.275703 0.390161
Si Si2 0.223000 0.299650 0.087497
Si Si3 0.040382 0.974606 0.562232
Si Si4 0.850435 0.469897 0.136817
Si Si5 0.410339 0.376792 0.664712
Si Si6 0.501459 0.877011 0.505280
O O1 0.500000 0.258511 0.250000
O O2 0.009221 0.280472 0.372175
O O3 0.907080 0.242187 0.543180
O O4 0.150243 0.327839 0.423959
O O5 0.000000 0.324507 0.250000
O O6 0.483590 0.332694 0.933443
O O7 0.892287 0.924310 0.626589
O O8 0.392012 0.965703 0.415910
O O9 0.911480 0.003274 0.696245
O O10 0.000000 0.000000 0.500000
O O11 0.000000 0.500000 0.000000
O O12 0.813436 0.420301 0.112487
O O13 0.693744 0.380069 0.594945
O O14 0.110222 0.376265 0.854446
#
# Coordination Sequence:
#
# PCOD9294407 Si02
#       6
#     8   8   8   8   8   8
#     4  10  23  40  64  96 123 162 211 267 316 380
#     4  10  23  41  65  92 128 168 207 260 331 388
#     4  11  23  38  61  91 129 162 204 265 322 371
#     4  11  21  39  63  91 120 167 215 255 310 377
#     4   9  19  39  62  86 120 171 208 251 319 384
#     4   9  19  37  64  86 121 165 217 256 303 381
#
# _framework density 21.80339
#
# number of rings (size 3 to 8) (size 9 to 14) (size 15 to 20)
#    0.000    2.000    1.667    1.000    7.000    6.000 
#    0.000    1.667    0.000    0.000    0.000    0.000 
#    0.000    0.000    0.000    0.000    0.000    0.000 
#
# Total GULP energy -133719.362784 kJ/mol
# GULP energy per Si atom -5571.640116 kJ/mol
# Density = 2.175376 g / cm^3
# Si number density = 21.803390 Si / 1000 Ang^3
#
#
#
# Elastic Constant Matrix: (Units=GPa)
#
#
# Indices 1 2 3 4 5 6 
#
# 1 52.7863 28.2123 47.1007 0.0000 0.8666 0.0000
# 2 28.2123 126.8616 47.3582 0.0000 5.0272 0.0000
# 3 47.1007 47.3582 106.9356 0.0001 -5.5507 0.0000
# 4 0.0000 0.0000 0.0001 21.3315 0.0000 2.1298
# 5 0.8666 5.0272 -5.5507 0.0000 32.7749 0.0000
# 6 0.0000 0.0000 0.0000 2.1298 0.0000 19.6777
#
#
#
# Elastic Compliance Matrix: (Units=1/GPa)
#
#
# Indices 1 2 3 4 5 6 
#
# 1 0.031963 -0.002022 -0.013328 0.000000 -0.002792 0.000000
# 2 -0.002022 0.009728 -0.003523 0.000000 -0.002035 0.000000
# 3 -0.013328 -0.003523 0.016978 0.000000 0.003768 0.000000
# 4 0.000000 0.000000 0.000000 0.047391 0.000000 -0.005129
# 5 -0.002792 -0.002035 0.003768 0.000000 0.031535 0.000000
# 6 0.000000 0.000000 0.000000 -0.005129 0.000000 0.051374
#
#
# Mechanical properties :
#
#
# Convention : Reuss Voigt Hill
#
# Bulk Modulus (GPa) = 47.79528 59.10290 53.44909
# Shear Modulus (GPa) = 21.39580 25.68430 23.54005
#
# Velocity S-wave (km/s) = 3.13598 3.43592 3.28937
# Velocity P-wave (km/s) = 5.92293 6.55033 6.24451
#
# Compressibility (1/GPa) = 0.02092257
#
# Stress axis : x y z
#
# Youngs Moduli (GPa) = 31.28595 102.79364 58.90066
#
# Poissons Ratio (x) = 0.20787 0.78502
# Poissons Ratio (y) = 0.06327 0.20752
# Poissons Ratio (z) = 0.41697 0.36217
#
# Static dielectric constant tensor:
#      x y z
#    x 1.857470 0.000000 -0.026640 
#    y 0.000000 1.795550 0.000000 
#    z -0.026640 0.000000 1.964590 
# 
# From -- ./inp_files/194191.got.cif
#   From: 2010.05.17/outbox.cif.g08.bks.cpg/sg15_98_cif.got.tgz:194191.got - 2010.06.03 18:47:42.
