data_PCOD9294819
_publ_section_title
;
Structure prediction by ZEFSAII (Michael W. Deem and Ramdas Pophale) SiO2 
 PCOD9294819
Probable space group: C 2/C
;
_chemical_formula_sum "Si O2"
_cell_formula_units_Z 56
_cell_length_a 19.994369
_cell_length_b 8.130712
_cell_length_c 17.281483
_cell_angle_alpha 90.000000
_cell_angle_beta 53.706936
_cell_angle_gamma 90.000000
_cell_volume 2264.395591
_symmetry_space_group_name_H-M "C 2/C"
_symmetry_group_IT_number 15
_symmetry_cell_setting 'monoclinic'
loop_
_space_group_symop_operation_xyz
x,y,z
-x,y,1/2-z
-x,-y,-z
x,-y,1/2+z
1/2+x,1/2+y,z
1/2-x,1/2+y,1/2-z
1/2-x,1/2-y,-z
1/2+x,1/2-y,1/2+z
loop_
_atom_site_type_symbol
_atom_site_label
_atom_site_fract_x
_atom_site_fract_y
_atom_site_fract_z
Si Si1 0.705059 0.604631 0.080945
Si Si2 0.546972 0.409018 0.146123
Si Si3 0.339655 0.122729 0.440763
Si Si4 0.010805 0.403359 0.150727
Si Si5 0.217953 0.238391 0.245457
Si Si6 0.051994 0.903521 0.900014
Si Si7 0.850710 0.595982 0.250036
O O1 0.609629 0.560444 0.124123
O O2 0.713370 0.655330 0.164280
O O3 0.750000 0.750000 0.000000
O O4 0.752598 0.431520 0.034923
O O5 0.500000 0.326524 0.250000
O O6 0.607893 0.277645 0.065180
O O7 0.466696 0.474836 0.157444
O O8 0.397277 0.967198 0.421124
O O9 0.333350 0.128516 0.352013
O O10 0.989359 0.263981 0.103693
O O11 0.947365 0.553170 0.177088
O O12 0.000000 0.359764 0.250000
O O13 0.147616 0.145975 0.345311
O O14 0.191583 0.424905 0.248106
O O15 0.306847 0.227240 0.225220
O O16 0.000000 0.000000 0.000000
#
# Coordination Sequence:
#
# PCOD9294819 Si02
#       7
#     8   8   8   8   8   8   8
#     4  12  25  46  71 105 141 193 243 291 354 434
#     4  12  25  45  72 103 141 186 243 294 354 426
#     4  11  24  43  72 103 138 184 245 295 351 431
#     4   9  20  44  69  96 139 191 240 287 353 435
#     4  11  25  43  67 102 144 189 232 300 367 417
#     4  11  25  42  69 102 140 184 239 297 359 427
#     4  10  23  41  67 101 141 185 235 291 361 420
#
# _framework density 24.730661999999999
#
# number of rings (size 3 to 8) (size 9 to 14) (size 15 to 20)
#    0.000    1.143    2.857    3.000    6.000    4.571 
#    0.000    1.429    0.000    0.000    0.000    0.000 
#    0.000    0.000    0.000    0.000    0.000    0.000 
#
# Total GULP energy -156560.349303 kJ/mol
# GULP energy per Si atom -5591.441047 kJ/mol
# Density = 2.467437 g / cm^3
# Si number density = 24.730662 Si / 1000 Ang^3
#
#
#
# Elastic Constant Matrix: (Units=GPa)
#
#
# Indices 1 2 3 4 5 6 
#
# 1 115.0044 21.6472 17.8553 0.0000 -16.8316 0.0000
# 2 21.6472 80.2791 12.8288 -0.0002 -9.5469 0.0002
# 3 17.8553 12.8288 63.1319 -0.0001 -12.8339 0.0001
# 4 0.0000 -0.0002 -0.0001 41.6995 0.0000 -10.4938
# 5 -16.8316 -9.5469 -12.8339 0.0000 32.6505 0.0000
# 6 0.0000 0.0002 0.0001 -10.4938 0.0000 48.5123
#
#
#
# Elastic Compliance Matrix: (Units=1/GPa)
#
#
# Indices 1 2 3 4 5 6 
#
# 1 0.009881 -0.001944 -0.001608 0.000000 0.003893 0.000000
# 2 -0.001944 0.013529 -0.001738 0.000000 0.002270 0.000000
# 3 -0.001608 -0.001738 0.017798 0.000000 0.005659 0.000000
# 4 0.000000 0.000000 0.000000 0.025362 0.000000 0.005486
# 5 0.003893 0.002270 0.005659 0.000000 0.035522 0.000000
# 6 0.000000 0.000000 0.000000 0.005486 0.000000 0.021800
#
#
# Mechanical properties :
#
#
# Convention : Reuss Voigt Hill
#
# Bulk Modulus (GPa) = 32.65061 40.34200 36.49630
# Shear Modulus (GPa) = 34.55885 38.31140 36.43513
#
# Velocity S-wave (km/s) = 3.74225 3.94019 3.84249
# Velocity P-wave (km/s) = 5.64834 6.08671 5.87162
#
# Compressibility (1/GPa) = 0.03062730
#
# Stress axis : x y z
#
# Youngs Moduli (GPa) = 101.20698 73.91791 56.18575
#
# Poissons Ratio (x) = 0.14373 0.09035
# Poissons Ratio (y) = 0.19679 0.09763
# Poissons Ratio (z) = 0.16274 0.12844
#
# Static dielectric constant tensor:
#      x y z
#    x 2.015040 0.000000 0.055090 
#    y 0.000000 2.036370 0.000000 
#    z 0.055090 0.000000 1.981090 
# 
# From -- ./inp_files/213786.got.cif
#   From: 2010.05.17/outbox.cif.g08.bks.cpg/sg15_107_cif.got.tgz:213786.got - 2010.06.03 18:47:42.
