data_PCOD9294805
_publ_section_title
;
Structure prediction by ZEFSAII (Michael W. Deem and Ramdas Pophale) SiO2 
 PCOD9294805
Probable space group: C 2/C
;
_chemical_formula_sum "Si O2"
_cell_formula_units_Z 52
_cell_length_a 23.421027
_cell_length_b 13.782869
_cell_length_c 8.321807
_cell_angle_alpha 90.000000
_cell_angle_beta 126.631830
_cell_angle_gamma 90.000000
_cell_volume 2155.761617
_symmetry_space_group_name_H-M "C 2/C"
_symmetry_group_IT_number 15
_symmetry_cell_setting 'monoclinic'
loop_
_space_group_symop_operation_xyz
x,y,z
-x,y,1/2-z
-x,-y,-z
x,-y,1/2+z
1/2+x,1/2+y,z
1/2-x,1/2+y,1/2-z
1/2-x,1/2-y,-z
1/2+x,1/2-y,1/2+z
loop_
_atom_site_type_symbol
_atom_site_label
_atom_site_fract_x
_atom_site_fract_y
_atom_site_fract_z
Si Si1 0.000000 0.263476 0.750000
Si Si2 0.050716 0.072259 0.487502
Si Si3 0.858704 0.262683 0.830955
Si Si4 0.973349 0.603054 0.521232
Si Si5 0.654769 0.717306 0.041768
Si Si6 0.794577 0.968614 0.734704
Si Si7 0.246686 0.640109 0.832903
O O1 0.992247 0.329834 0.896615
O O2 0.929691 0.200459 0.598032
O O3 0.077403 0.181959 0.567362
O O4 0.000000 0.085655 0.250000
O O5 0.127220 0.017688 0.624989
O O6 0.000000 0.000000 0.500000
O O7 0.890310 0.369218 0.908819
O O8 0.827879 0.262133 0.600757
O O9 0.805111 0.218364 0.870408
O O10 0.000000 0.500000 0.500000
O O11 0.000000 0.619185 0.750000
O O12 0.697907 0.618634 0.127233
O O13 0.676027 0.794969 0.214038
O O14 0.773691 0.914494 0.536174
O O15 0.741918 0.053968 0.695164
#
# Coordination Sequence:
#
# PCOD9294805 Si02
#       7
#     4   8   8   8   8   8   8
#     4  10  26  46  70 110 136 190 244 302 374 428
#     4  11  21  35  63 100 136 173 216 287 356 418
#     4  10  23  41  66  98 134 184 233 290 359 427
#     4  11  23  44  66  96 144 185 238 295 355 432
#     4  11  24  46  71  99 145 180 240 301 359 436
#     4  11  24  42  69 103 139 182 242 286 360 437
#     4  11  24  47  66 103 140 187 238 292 364 433
#
# _framework density 24.121403999999998
#
# number of rings (size 3 to 8) (size 9 to 14) (size 15 to 20)
#    0.000    1.231    0.769    6.000    7.538    0.000 
#    8.308    0.000    0.000    0.000    0.000    0.000 
#    0.000    0.000    0.000    0.000    0.000    0.000 
#
# Total GULP energy -144994.045138 kJ/mol
# GULP energy per Si atom -5576.694044 kJ/mol
# Density = 2.406650 g / cm^3
# Si number density = 24.121404 Si / 1000 Ang^3
#
#
#
# Elastic Constant Matrix: (Units=GPa)
#
#
# Indices 1 2 3 4 5 6 
#
# 1 37.1661 21.2582 23.5439 0.0000 8.5166 0.0000
# 2 21.2582 107.1134 43.7714 0.0000 11.2751 0.0000
# 3 23.5439 43.7714 127.0640 0.0000 -12.0903 0.0000
# 4 0.0000 0.0000 0.0000 38.7703 0.0000 -0.6488
# 5 8.5166 11.2751 -12.0903 0.0000 38.9542 0.0000
# 6 0.0000 0.0000 0.0000 -0.6488 0.0000 39.4677
#
#
#
# Elastic Compliance Matrix: (Units=1/GPa)
#
#
# Indices 1 2 3 4 5 6 
#
# 1 0.034663 -0.003540 -0.006004 0.000000 -0.008418 0.000000
# 2 -0.003540 0.012026 -0.003858 0.000000 -0.003905 0.000000
# 3 -0.006004 -0.003858 0.010864 0.000000 0.005801 0.000000
# 4 0.000000 0.000000 0.000000 0.025800 0.000000 0.000424
# 5 -0.008418 -0.003905 0.005801 0.000000 0.030442 0.000000
# 6 0.000000 0.000000 0.000000 0.000424 0.000000 0.025344
#
#
# Mechanical properties :
#
#
# Convention : Reuss Voigt Hill
#
# Bulk Modulus (GPa) = 32.52223 49.83229 41.17726
# Shear Modulus (GPa) = 28.37775 35.62311 32.00043
#
# Velocity S-wave (km/s) = 3.43367 3.84712 3.64626
# Velocity P-wave (km/s) = 5.40667 6.35905 5.90210
#
# Compressibility (1/GPa) = 0.03074820
#
# Stress axis : x y z
#
# Youngs Moduli (GPa) = 28.84887 83.15213 92.04881
#
# Poissons Ratio (x) = 0.29433 0.55270
# Poissons Ratio (y) = 0.10212 0.35517
# Poissons Ratio (z) = 0.17322 0.32084
#
# Static dielectric constant tensor:
#      x y z
#    x 2.053460 0.000000 -0.001240 
#    y 0.000000 1.871070 0.000000 
#    z -0.001240 0.000000 1.913990 
# 
# From -- ./inp_files/66327.got.cif
#   From: 2010.05.17/outbox.cif.g08.bks.cpg/sg15_34_cif.got.tgz:66327.got - 2010.06.03 18:47:42.
