data_PCOD9294305
_publ_section_title
;
Structure prediction by ZEFSAII (Michael W. Deem and Ramdas Pophale) SiO2 
 PCOD9294305
Probable space group: C 2/C
;
_chemical_formula_sum "Si O2"
_cell_formula_units_Z 56
_cell_length_a 15.480181
_cell_length_b 12.509459
_cell_length_c 17.301964
_cell_angle_alpha 90.000000
_cell_angle_beta 62.144235
_cell_angle_gamma 90.000000
_cell_volume 2962.268622
_symmetry_space_group_name_H-M "C 2/C"
_symmetry_group_IT_number 15
_symmetry_cell_setting 'monoclinic'
loop_
_space_group_symop_operation_xyz
x,y,z
-x,y,1/2-z
-x,-y,-z
x,-y,1/2+z
1/2+x,1/2+y,z
1/2-x,1/2+y,1/2-z
1/2-x,1/2-y,-z
1/2+x,1/2-y,1/2+z
loop_
_atom_site_type_symbol
_atom_site_label
_atom_site_fract_x
_atom_site_fract_y
_atom_site_fract_z
Si Si1 0.728070 0.281440 0.131214
Si Si2 0.385990 0.635971 0.148017
Si Si3 0.594177 0.836573 0.264632
Si Si4 0.547104 0.731950 0.976500
Si Si5 0.036419 0.563117 0.559352
Si Si6 0.692030 0.397856 0.307822
Si Si7 0.118658 0.349154 0.556170
O O1 0.802533 0.191899 0.131385
O O2 0.697263 0.349288 0.218807
O O3 0.643304 0.219354 0.121410
O O4 0.788379 0.346842 0.040919
O O5 0.391955 0.711283 0.221367
O O6 0.353253 0.515881 0.176398
O O7 0.486728 0.652990 0.058380
O O8 0.500000 0.850195 0.250000
O O9 0.558969 0.892625 0.358273
O O10 0.698119 0.889143 0.203224
O O11 0.624371 0.672690 0.891595
O O12 0.468513 0.789522 0.952976
O O13 0.591084 0.829453 0.009394
O O14 0.091920 0.472252 0.583952
O O15 0.000000 0.500000 0.500000
#
# Coordination Sequence:
#
# PCOD9294305 Si02
#       7
#     8   8   8   8   8   8   8
#     4   9  20  35  56  88 116 148 194 252 288 354
#     4   9  20  39  58  77 126 161 182 246 312 340
#     4  10  23  40  57  89 119 149 206 253 289 356
#     4   9  19  36  57  85 118 156 195 230 295 368
#     4   9  18  36  60  82 117 156 184 241 305 347
#     4  11  21  36  62  84 115 156 204 240 301 351
#     4   9  18  36  57  84 119 147 192 242 301 348
#
# _framework density 18.904430000000001
#
# number of rings (size 3 to 8) (size 9 to 14) (size 15 to 20)
#    0.000    2.571    0.000    3.000    2.000    7.429 
#    2.571    2.857    6.286    0.000    0.000    0.000 
#    0.000    0.000    0.000    0.000    0.000    0.000 
#
# Total GULP energy -156025.330430 kJ/mol
# GULP energy per Si atom -5572.333230 kJ/mol
# Density = 1.886140 g / cm^3
# Si number density = 18.904430 Si / 1000 Ang^3
#
#
#
# Elastic Constant Matrix: (Units=GPa)
#
#
# Indices 1 2 3 4 5 6 
#
# 1 73.2238 37.8182 17.5104 0.0000 1.7768 0.0000
# 2 37.8182 145.4051 61.4650 0.0000 -22.8665 0.0000
# 3 17.5104 61.4650 77.9397 0.0000 -16.4272 0.0000
# 4 0.0000 0.0000 0.0000 19.9049 0.0000 0.0724
# 5 1.7768 -22.8665 -16.4272 0.0000 17.3161 0.0000
# 6 0.0000 0.0000 0.0000 0.0724 0.0000 20.9726
#
#
#
# Elastic Compliance Matrix: (Units=1/GPa)
#
#
# Indices 1 2 3 4 5 6 
#
# 1 0.017107 -0.005317 -0.001875 0.000000 -0.010555 0.000000
# 2 -0.005317 0.012783 -0.006517 0.000000 0.011244 0.000000
# 3 -0.001875 -0.006517 0.020771 0.000000 0.011291 0.000000
# 4 0.000000 0.000000 0.000000 0.050240 0.000000 -0.000173
# 5 -0.010555 0.011244 0.011291 0.000000 0.084392 0.000000
# 6 0.000000 0.000000 0.000000 -0.000173 0.000000 0.047682
#
#
# Mechanical properties :
#
#
# Convention : Reuss Voigt Hill
#
# Bulk Modulus (GPa) = 43.02203 58.90620 50.96411
# Shear Modulus (GPa) = 18.64698 23.62372 21.13535
#
# Velocity S-wave (km/s) = 3.14408 3.53886 3.34729
# Velocity P-wave (km/s) = 5.99895 6.92284 6.47738
#
# Compressibility (1/GPa) = 0.02324390
#
# Stress axis : x y z
#
# Youngs Moduli (GPa) = 58.45496 78.22875 48.14435
#
# Poissons Ratio (x) = 0.41591 0.09029
# Poissons Ratio (y) = 0.31078 0.31374
# Poissons Ratio (z) = 0.10962 0.50979
#
# Static dielectric constant tensor:
#      x y z
#    x 1.695620 0.000000 0.029980 
#    y 0.000000 1.666590 0.000000 
#    z 0.029980 0.000000 1.676700 
# 
# From -- ./inp_files/210561.got.cif
#   From: 2010.05.17/outbox.cif.g08.bks.cpg/sg15_106_cif.got.tgz:210561.got - 2010.06.03 18:47:42.
