data_PCOD9294772
_publ_section_title
;
Structure prediction by ZEFSAII (Michael W. Deem and Ramdas Pophale) SiO2 
 PCOD9294772
Probable space group: C 2/C
;
_chemical_formula_sum "Si O2"
_cell_formula_units_Z 52
_cell_length_a 7.713738
_cell_length_b 21.882895
_cell_length_c 15.810283
_cell_angle_alpha 90.000000
_cell_angle_beta 118.649363
_cell_angle_gamma 90.000000
_cell_volume 2342.023175
_symmetry_space_group_name_H-M "C 2/C"
_symmetry_group_IT_number 15
_symmetry_cell_setting 'monoclinic'
loop_
_space_group_symop_operation_xyz
x,y,z
-x,y,1/2-z
-x,-y,-z
x,-y,1/2+z
1/2+x,1/2+y,z
1/2-x,1/2+y,1/2-z
1/2-x,1/2-y,-z
1/2+x,1/2-y,1/2+z
loop_
_atom_site_type_symbol
_atom_site_label
_atom_site_fract_x
_atom_site_fract_y
_atom_site_fract_z
Si Si1 0.737557 0.553073 0.473496
Si Si2 0.734028 0.848821 0.291703
Si Si3 0.004692 0.465195 0.636214
Si Si4 0.341543 0.274397 0.791886
Si Si5 0.884758 0.015994 0.809896
Si Si6 0.500000 0.139849 0.250000
Si Si7 0.869361 0.190130 0.001414
O O1 0.876725 0.548260 0.423208
O O2 0.529923 0.518439 0.408578
O O3 0.707440 0.624122 0.485518
O O4 0.850053 0.517863 0.575464
O O5 0.500000 0.863222 0.250000
O O6 0.724117 0.796396 0.217975
O O7 0.850324 0.911767 0.310481
O O8 0.840119 0.814732 0.394533
O O9 0.172141 0.487455 0.740733
O O10 0.915761 0.403977 0.655870
O O11 0.500000 0.279154 0.750000
O O12 0.157390 0.318755 0.737760
O O13 0.430699 0.297566 0.901199
O O14 0.000000 0.006696 0.750000
O O15 0.750000 0.250000 0.000000
#
# Coordination Sequence:
#
# PCOD9294772 Si02
#       7
#     8   8   8   8   8   4   8
#     4  10  23  43  68  99 137 178 227 286 347 411
#     4  11  24  42  69 101 137 181 232 285 348 412
#     4  10  23  41  66 101 138 175 225 289 343 408
#     4  11  25  47  68 102 142 182 234 290 345 413
#     4  10  23  44  69  98 139 180 220 289 348 404
#     4  12  26  42  74 102 138 190 230 280 346 422
#     4  12  23  42  71  96 132 189 229 279 353 415
#
# _framework density 22.203025
#
# number of rings (size 3 to 8) (size 9 to 14) (size 15 to 20)
#    0.000    1.231    3.077    2.769    6.462    1.846 
#    0.000    0.769    0.000    0.000    0.000    0.000 
#    0.000    0.000    0.000    0.000    0.000    0.000 
#
# Total GULP energy -145153.215550 kJ/mol
# GULP energy per Si atom -5582.815983 kJ/mol
# Density = 2.215249 g / cm^3
# Si number density = 22.203025 Si / 1000 Ang^3
#
#
#
# Elastic Constant Matrix: (Units=GPa)
#
#
# Indices 1 2 3 4 5 6 
#
# 1 70.3647 46.8506 21.0404 0.0000 8.1486 0.0000
# 2 46.8506 171.1234 35.7599 0.0000 25.6192 0.0000
# 3 21.0404 35.7599 95.5017 0.0000 21.9057 0.0000
# 4 0.0000 0.0000 0.0000 46.6510 0.0000 5.9984
# 5 8.1486 25.6192 21.9057 0.0000 23.1978 0.0000
# 6 0.0000 0.0000 0.0000 5.9984 0.0000 28.5581
#
#
#
# Elastic Compliance Matrix: (Units=1/GPa)
#
#
# Indices 1 2 3 4 5 6 
#
# 1 0.017844 -0.004528 -0.002483 0.000000 0.001077 0.000000
# 2 -0.004528 0.008239 -0.000466 0.000000 -0.007068 0.000000
# 3 -0.002483 -0.000466 0.013881 0.000000 -0.011721 0.000000
# 4 0.000000 0.000000 0.000000 0.022031 0.000000 -0.004627
# 5 0.001077 -0.007068 -0.011721 0.000000 0.061603 0.000000
# 6 0.000000 0.000000 0.000000 -0.004627 0.000000 0.035988
#
#
# Mechanical properties :
#
#
# Convention : Reuss Voigt Hill
#
# Bulk Modulus (GPa) = 39.98353 60.47685 50.23019
# Shear Modulus (GPa) = 27.34077 35.23731 31.28904
#
# Velocity S-wave (km/s) = 3.51294 3.98810 3.75804
# Velocity P-wave (km/s) = 5.87380 6.96447 6.44226
#
# Compressibility (1/GPa) = 0.02501030
#
# Stress axis : x y z
#
# Youngs Moduli (GPa) = 56.04090 121.37411 72.04042
#
# Poissons Ratio (x) = 0.54956 0.17887
# Poissons Ratio (y) = 0.25374 0.03359
# Poissons Ratio (z) = 0.13915 0.05659
#
# Static dielectric constant tensor:
#      x y z
#    x 1.875120 0.000000 -0.025120 
#    y 0.000000 1.849250 0.000000 
#    z -0.025120 0.000000 2.019000 
# 
# From -- ./inp_files/191134.got.cif
#   From: 2010.05.17/outbox.cif.g08.bks.cpg/sg15_96_cif.got.tgz:191134.got - 2010.06.03 18:47:42.
