data_PCOD9294438
_publ_section_title
;
Structure prediction by ZEFSAII (Michael W. Deem and Ramdas Pophale) SiO2 
 PCOD9294438
Probable space group: C 2/C
;
_chemical_formula_sum "Si O2"
_cell_formula_units_Z 60
_cell_length_a 23.286674
_cell_length_b 17.303410
_cell_length_c 9.292586
_cell_angle_alpha 90.000000
_cell_angle_beta 121.991865
_cell_angle_gamma 90.000000
_cell_volume 3175.665559
_symmetry_space_group_name_H-M "C 2/C"
_symmetry_group_IT_number 15
_symmetry_cell_setting 'monoclinic'
loop_
_space_group_symop_operation_xyz
x,y,z
-x,y,1/2-z
-x,-y,-z
x,-y,1/2+z
1/2+x,1/2+y,z
1/2-x,1/2+y,1/2-z
1/2-x,1/2-y,-z
1/2+x,1/2-y,1/2+z
loop_
_atom_site_type_symbol
_atom_site_label
_atom_site_fract_x
_atom_site_fract_y
_atom_site_fract_z
Si Si1 0.285358 0.474954 0.270134
Si Si2 0.178836 0.349841 0.242119
Si Si3 0.528299 0.184851 0.438356
Si Si4 0.000000 0.160586 0.750000
Si Si5 0.261395 0.286163 0.858351
Si Si6 0.320134 0.896140 0.929937
Si Si7 0.858649 0.918659 0.085504
Si Si8 0.465831 0.934238 0.050895
O O1 0.226896 0.420494 0.258077
O O2 0.243920 0.546814 0.147680
O O3 0.325639 0.432070 0.197608
O O4 0.337042 0.508376 0.458106
O O5 0.218242 0.275061 0.235765
O O6 0.168750 0.357384 0.399975
O O7 0.104821 0.342640 0.070286
O O8 0.500000 0.151611 0.250000
O O9 0.520007 0.277310 0.402777
O O10 0.482288 0.148267 0.500672
O O11 0.063571 0.106176 0.800782
O O12 0.197389 0.333435 0.715082
O O13 0.250000 0.250000 0.000000
O O14 0.321667 0.346498 0.961456
O O15 0.386031 0.942570 0.967223
O O16 0.500000 0.937028 0.250000
O O17 0.500000 0.000000 0.000000
#
# Coordination Sequence:
#
# PCOD9294438 Si02
#       8
#     8   8   8   4   8   8   8   8
#     4  11  24  40  69  95 132 170 224 275 334 393
#     4  12  21  43  65  97 133 173 221 282 331 392
#     4  10  23  40  65  94 132 175 222 276 328 404
#     4  10  24  44  72  92 132 176 228 272 324 414
#     4  11  23  39  68  99 127 170 220 275 339 402
#     4  11  26  40  64  96 136 174 216 279 335 393
#     4  11  23  44  66  98 129 173 222 273 338 396
#     4  12  25  41  61  93 135 181 218 267 337 409
#
# _framework density 18.893677
#
# number of rings (size 3 to 8) (size 9 to 14) (size 15 to 20)
#    0.400    0.533    5.333    1.600    3.733    0.533 
#    0.000    0.000    2.933    0.000    0.000    0.000 
#    0.000    0.000    0.000    0.000    0.000    0.000 
#
# Total GULP energy -167406.017761 kJ/mol
# GULP energy per Si atom -5580.200592 kJ/mol
# Density = 1.885067 g / cm^3
# Si number density = 18.893677 Si / 1000 Ang^3
#
#
#
# Elastic Constant Matrix: (Units=GPa)
#
#
# Indices 1 2 3 4 5 6 
#
# 1 115.9617 39.4364 62.3459 0.0000 11.7096 0.0000
# 2 39.4364 71.6463 38.3598 0.0000 4.1738 0.0000
# 3 62.3459 38.3598 124.5130 0.0000 4.4783 0.0000
# 4 0.0000 0.0000 0.0000 15.7202 0.0000 3.0243
# 5 11.7096 4.1738 4.4783 0.0000 34.6917 0.0000
# 6 0.0000 0.0000 0.0000 3.0243 0.0000 36.1098
#
#
#
# Elastic Compliance Matrix: (Units=1/GPa)
#
#
# Indices 1 2 3 4 5 6 
#
# 1 0.013194 -0.004308 -0.005162 0.000000 -0.003269 0.000000
# 2 -0.004308 0.018185 -0.003435 0.000000 -0.000290 0.000000
# 3 -0.005162 -0.003435 0.011650 0.000000 0.000651 0.000000
# 4 0.000000 0.000000 0.000000 0.064654 0.000000 -0.005415
# 5 -0.003269 -0.000290 0.000651 0.000000 0.029879 0.000000
# 6 0.000000 0.000000 0.000000 -0.005415 0.000000 0.028147
#
#
# Mechanical properties :
#
#
# Convention : Reuss Voigt Hill
#
# Bulk Modulus (GPa) = 58.07193 65.82281 61.94737
# Shear Modulus (GPa) = 25.34742 28.76959 27.05851
#
# Velocity S-wave (km/s) = 3.66673 3.90643 3.78848
# Velocity P-wave (km/s) = 6.98065 7.43378 7.21077
#
# Compressibility (1/GPa) = 0.01722002
#
# Stress axis : x y z
#
# Youngs Moduli (GPa) = 75.79286 54.99113 85.83361
#
# Poissons Ratio (x) = 0.23692 0.44303
# Poissons Ratio (y) = 0.32655 0.29480
# Poissons Ratio (z) = 0.39121 0.18887
#
# Static dielectric constant tensor:
#      x y z
#    x 1.666320 0.000000 0.016640 
#    y 0.000000 1.687070 0.000000 
#    z 0.016640 0.000000 1.649220 
# 
# From -- ./inp_files/57031.got.cif
#   From: 2010.05.17/outbox.cif.g08.bks.cpg/sg15_29_cif.got.tgz:57031.got - 2010.06.03 18:47:42.
