data_PCOD9294387
_publ_section_title
;
Structure prediction by ZEFSAII (Michael W. Deem and Ramdas Pophale) SiO2 
 PCOD9294387
Probable space group: C 2/C
;
_chemical_formula_sum "Si O2"
_cell_formula_units_Z 60
_cell_length_a 9.015173
_cell_length_b 15.828953
_cell_length_c 20.683556
_cell_angle_alpha 90.000000
_cell_angle_beta 111.834514
_cell_angle_gamma 90.000000
_cell_volume 2739.819873
_symmetry_space_group_name_H-M "C 2/C"
_symmetry_group_IT_number 15
_symmetry_cell_setting 'monoclinic'
loop_
_space_group_symop_operation_xyz
x,y,z
-x,y,1/2-z
-x,-y,-z
x,-y,1/2+z
1/2+x,1/2+y,z
1/2-x,1/2+y,1/2-z
1/2-x,1/2-y,-z
1/2+x,1/2-y,1/2+z
loop_
_atom_site_type_symbol
_atom_site_label
_atom_site_fract_x
_atom_site_fract_y
_atom_site_fract_z
Si Si1 0.421892 0.305092 0.138480
Si Si2 0.295777 0.849134 0.558819
Si Si3 0.472700 0.018944 0.347048
Si Si4 0.146220 0.071147 0.226211
Si Si5 0.506337 0.438082 0.563671
Si Si6 0.244931 0.763514 0.253903
Si Si7 0.236727 0.464340 0.069365
Si Si8 0.500000 0.894773 0.250000
O O1 0.354167 0.246760 0.070304
O O2 0.605600 0.282575 0.179632
O O3 0.332049 0.274473 0.188340
O O4 0.373497 0.402469 0.121637
O O5 0.318454 0.905927 0.498840
O O6 0.418069 0.898796 0.627151
O O7 0.111851 0.860406 0.552793
O O8 0.403209 0.984155 0.403242
O O9 0.566271 0.950527 0.319935
O O10 0.312215 0.034958 0.279594
O O11 0.174399 0.172101 0.235907
O O12 0.000000 0.047721 0.250000
O O13 0.101804 0.045598 0.146091
O O14 0.500000 0.500000 0.500000
O O15 0.323401 0.449429 0.559156
O O16 0.372110 0.835507 0.262683
#
# Coordination Sequence:
#
# PCOD9294387 Si02
#       8
#     8   8   8   8   8   8   8   4
#     4  11  23  41  64  93 124 170 221 260 323 387
#     4  11  23  43  66  91 132 170 218 260 329 396
#     4  12  25  40  65  98 123 167 217 274 327 379
#     4  12  22  40  70  94 131 170 217 264 329 390
#     4  10  23  40  63  96 131 167 208 263 325 385
#     4  11  24  40  63  94 129 168 212 274 322 386
#     4  11  24  42  64  95 130 170 212 273 322 385
#     4  12  26  40  62  94 134 162 208 280 332 370
#
# _framework density 21.899249000000001
#
# number of rings (size 3 to 8) (size 9 to 14) (size 15 to 20)
#    0.000    0.800    6.000    1.600    3.733    0.000 
#    0.000    0.000    0.000    0.800    0.000    0.000 
#    0.000    0.000    0.000    0.000    0.000    0.000 
#
# Total GULP energy -167382.638041 kJ/mol
# GULP energy per Si atom -5579.421268 kJ/mol
# Density = 2.184941 g / cm^3
# Si number density = 21.899249 Si / 1000 Ang^3
#
#
#
# Elastic Constant Matrix: (Units=GPa)
#
#
# Indices 1 2 3 4 5 6 
#
# 1 66.5083 24.4154 10.6559 0.0000 -13.0029 0.0000
# 2 24.4154 82.4123 0.9496 0.0000 3.6743 0.0000
# 3 10.6559 0.9496 81.2535 0.0000 -4.3595 0.0000
# 4 0.0000 0.0000 0.0000 21.8269 0.0000 7.8926
# 5 -13.0029 3.6743 -4.3595 0.0000 34.5118 0.0000
# 6 0.0000 0.0000 0.0000 7.8926 0.0000 25.0177
#
#
#
# Elastic Compliance Matrix: (Units=1/GPa)
#
#
# Indices 1 2 3 4 5 6 
#
# 1 0.019017 -0.005947 -0.002020 0.000000 0.007543 0.000000
# 2 -0.005947 0.014055 0.000418 0.000000 -0.003684 0.000000
# 3 -0.002020 0.000418 0.012609 0.000000 0.000787 0.000000
# 4 0.000000 0.000000 0.000000 0.051714 0.000000 -0.016315
# 5 0.007543 -0.003684 0.000787 0.000000 0.032309 0.000000
# 6 0.000000 0.000000 0.000000 -0.016315 0.000000 0.045119
#
#
# Mechanical properties :
#
#
# Convention : Reuss Voigt Hill
#
# Bulk Modulus (GPa) = 32.69647 33.57955 33.13801
# Shear Modulus (GPa) = 24.98540 29.21483 27.10012
#
# Velocity S-wave (km/s) = 3.38142 3.65644 3.52161
# Velocity P-wave (km/s) = 5.49620 5.76133 5.63033
#
# Compressibility (1/GPa) = 0.03058434
#
# Stress axis : x y z
#
# Youngs Moduli (GPa) = 52.58383 71.14689 79.30591
#
# Poissons Ratio (x) = 0.42312 0.16018
# Poissons Ratio (y) = 0.31272 -0.03315
# Poissons Ratio (z) = 0.10621 -0.02974
#
# Static dielectric constant tensor:
#      x y z
#    x 1.779440 0.000000 0.023500 
#    y 0.000000 1.797830 0.000000 
#    z 0.023500 0.000000 1.889710 
# 
# From -- ./inp_files/232765.got.cif
#   From: 2010.05.17/outbox.cif.g08.bks.cpg/sg15_117_cif.got.tgz:232765.got - 2010.06.03 18:47:42.
