data_PCOD9294876
_publ_section_title
;
Structure prediction by ZEFSAII (Michael W. Deem and Ramdas Pophale) SiO2 
 PCOD9294876
Probable space group: C 2/C
;
_chemical_formula_sum "Si O2"
_cell_formula_units_Z 52
_cell_length_a 6.360121
_cell_length_b 23.895034
_cell_length_c 18.055480
_cell_angle_alpha 90.000000
_cell_angle_beta 73.910242
_cell_angle_gamma 90.000000
_cell_volume 2636.501612
_symmetry_space_group_name_H-M "C 2/C"
_symmetry_group_IT_number 15
_symmetry_cell_setting 'monoclinic'
loop_
_space_group_symop_operation_xyz
x,y,z
-x,y,1/2-z
-x,-y,-z
x,-y,1/2+z
1/2+x,1/2+y,z
1/2-x,1/2+y,1/2-z
1/2-x,1/2-y,-z
1/2+x,1/2-y,1/2+z
loop_
_atom_site_type_symbol
_atom_site_label
_atom_site_fract_x
_atom_site_fract_y
_atom_site_fract_z
Si Si1 0.457021 0.575015 0.449113
Si Si2 0.945805 0.621387 0.915086
Si Si3 0.062242 0.177972 0.156181
Si Si4 0.823909 0.732016 0.573986
Si Si5 0.500000 0.835162 0.250000
Si Si6 0.898251 0.752410 0.187994
Si Si7 0.279810 0.035721 0.532772
O O1 0.446761 0.618233 0.382647
O O2 0.685743 0.568116 0.470162
O O3 0.395016 0.512041 0.430402
O O4 0.274673 0.596915 0.526459
O O5 0.999140 0.682771 0.942197
O O6 0.948562 0.629014 0.827149
O O7 0.148786 0.581861 0.916051
O O8 0.297516 0.208602 0.139998
O O9 0.000000 0.174947 0.250000
O O10 0.918449 0.218209 0.116612
O O11 0.750000 0.750000 0.500000
O O12 0.594771 0.713062 0.632868
O O13 0.706866 0.793331 0.234112
O O14 0.000000 0.722639 0.250000
O O15 0.500000 0.000000 0.500000
#
# Coordination Sequence:
#
# PCOD9294876 Si02
#       7
#     8   8   8   8   4   8   8
#     4  10  23  41  68  85 125 167 210 278 320 393
#     4  11  22  39  62  93 123 164 216 256 325 386
#     4  12  23  41  60  97 131 169 217 263 337 395
#     4  12  25  37  64  98 128 174 219 261 320 400
#     4  12  24  38  60  96 128 176 206 260 330 388
#     4  12  21  42  59  87 141 174 204 262 321 388
#     4   9  21  45  63  89 119 164 217 269 331 379
#
# _framework density 19.723105
#
# number of rings (size 3 to 8) (size 9 to 14) (size 15 to 20)
#    0.000    0.923    5.385    1.846    4.308    2.462 
#    0.000    4.615    0.000    0.000    0.000    0.000 
#    0.000    0.000    0.000    0.000    0.000    0.000 
#
# Total GULP energy -144981.553098 kJ/mol
# GULP energy per Si atom -5576.213581 kJ/mol
# Density = 1.967821 g / cm^3
# Si number density = 19.723105 Si / 1000 Ang^3
#
#
#
# Elastic Constant Matrix: (Units=GPa)
#
#
# Indices 1 2 3 4 5 6 
#
# 1 92.1985 12.7811 40.9178 0.0000 22.8330 0.0000
# 2 12.7811 85.9568 45.5214 0.0000 24.7271 0.0000
# 3 40.9178 45.5214 121.1737 0.0000 32.0355 0.0000
# 4 0.0000 0.0000 0.0000 19.4099 0.0000 14.1440
# 5 22.8330 24.7271 32.0355 0.0000 37.5100 0.0000
# 6 0.0000 0.0000 0.0000 14.1440 0.0000 31.0651
#
#
#
# Elastic Compliance Matrix: (Units=1/GPa)
#
#
# Indices 1 2 3 4 5 6 
#
# 1 0.013805 0.001710 -0.003596 0.000000 -0.006459 0.000000
# 2 0.001710 0.016007 -0.004554 0.000000 -0.007704 0.000000
# 3 -0.003596 -0.004554 0.012665 0.000000 -0.005625 0.000000
# 4 0.000000 0.000000 0.000000 0.077100 0.000000 -0.035104
# 5 -0.006459 -0.007704 -0.005625 0.000000 0.040474 0.000000
# 6 0.000000 0.000000 0.000000 -0.035104 0.000000 0.048173
#
#
# Mechanical properties :
#
#
# Convention : Reuss Voigt Hill
#
# Bulk Modulus (GPa) = 33.78838 55.30773 44.54805
# Shear Modulus (GPa) = 21.64767 30.93758 26.29263
#
# Velocity S-wave (km/s) = 3.31657 3.96485 3.65511
# Velocity P-wave (km/s) = 5.64223 7.00450 6.35994
#
# Compressibility (1/GPa) = 0.02959598
#
# Stress axis : x y z
#
# Youngs Moduli (GPa) = 72.43882 62.47082 78.95694
#
# Poissons Ratio (x) = -0.10682 0.28396
# Poissons Ratio (y) = -0.12387 0.35959
# Poissons Ratio (z) = 0.26052 0.28451
#
# Static dielectric constant tensor:
#      x y z
#    x 1.746550 0.000000 0.001710 
#    y 0.000000 1.697330 0.000000 
#    z 0.001710 0.000000 1.732810 
# 
# From -- ./inp_files/185833.got.cif
#   From: 2010.05.17/outbox.cif.g08.bks.cpg/sg15_93_cif.got.tgz:185833.got - 2010.06.03 18:47:42.
