data_PCOD9294491
_publ_section_title
;
Structure prediction by ZEFSAII (Michael W. Deem and Ramdas Pophale) SiO2 
 PCOD9294491
Probable space group: C 2/C
;
_chemical_formula_sum "Si O2"
_cell_formula_units_Z 52
_cell_length_a 27.595749
_cell_length_b 7.797953
_cell_length_c 12.223307
_cell_angle_alpha 90.000000
_cell_angle_beta 119.080212
_cell_angle_gamma 90.000000
_cell_volume 2298.757733
_symmetry_space_group_name_H-M "C 2/C"
_symmetry_group_IT_number 15
_symmetry_cell_setting 'monoclinic'
loop_
_space_group_symop_operation_xyz
x,y,z
-x,y,1/2-z
-x,-y,-z
x,-y,1/2+z
1/2+x,1/2+y,z
1/2-x,1/2+y,1/2-z
1/2-x,1/2-y,-z
1/2+x,1/2-y,1/2+z
loop_
_atom_site_type_symbol
_atom_site_label
_atom_site_fract_x
_atom_site_fract_y
_atom_site_fract_z
Si Si1 0.381299 0.057045 0.537523
Si Si2 0.534002 0.836904 0.994603
Si Si3 0.500000 0.614353 0.750000
Si Si4 0.799222 0.891838 0.671741
Si Si5 0.923937 0.183782 0.241972
Si Si6 0.797362 0.246323 0.801785
Si Si7 0.720011 0.925534 0.933386
O O1 0.426088 0.153568 0.662719
O O2 0.348069 0.204101 0.435579
O O3 0.409408 0.919618 0.489445
O O4 0.335577 0.961564 0.560474
O O5 0.507247 0.732218 0.865042
O O6 0.543704 0.717479 0.110165
O O7 0.500000 0.000000 0.000000
O O8 0.551999 0.486019 0.788666
O O9 0.859457 0.830847 0.703739
O O10 0.761279 0.764896 0.700970
O O11 0.804451 0.064830 0.750300
O O12 0.764575 0.937654 0.524692
O O13 0.795492 0.395079 0.708138
O O14 0.750000 0.750000 0.000000
#
# Coordination Sequence:
#
# PCOD9294491 Si02
#       7
#     8   8   4   8   8   8   8
#     4  11  25  43  73 103 140 192 240 290 357 435
#     4  12  28  50  78 100 141 186 246 305 370 434
#     4  12  30  50  76 106 142 180 244 310 372 440
#     4  10  25  38  68  99 144 184 229 285 349 426
#     4  12  28  46  75 107 143 186 243 305 372 423
#     4  10  23  40  66  97 148 181 235 275 352 418
#     4   9  21  40  64 101 144 183 234 280 344 425
#
# _framework density 22.620913000000002
#
# number of rings (size 3 to 8) (size 9 to 14) (size 15 to 20)
#    0.000    1.231    0.000    3.231   19.385    1.231 
#    0.000    0.000    0.000    0.000    0.000    0.000 
#    0.000    0.000    0.000    0.000    0.000    0.000 
#
# Total GULP energy -145542.922401 kJ/mol
# GULP energy per Si atom -5597.804708 kJ/mol
# Density = 2.256943 g / cm^3
# Si number density = 22.620913 Si / 1000 Ang^3
#
#
#
# Elastic Constant Matrix: (Units=GPa)
#
#
# Indices 1 2 3 4 5 6 
#
# 1 81.3664 13.8305 11.6622 0.0000 -1.9303 0.0000
# 2 13.8305 102.7446 24.3976 0.0000 -15.9321 0.0000
# 3 11.6622 24.3976 112.0967 0.0000 -21.0494 0.0000
# 4 0.0000 0.0000 0.0000 47.7586 0.0000 -8.0030
# 5 -1.9303 -15.9321 -21.0494 0.0000 24.9744 0.0000
# 6 0.0000 0.0000 0.0000 -8.0030 0.0000 44.6476
#
#
#
# Elastic Compliance Matrix: (Units=1/GPa)
#
#
# Indices 1 2 3 4 5 6 
#
# 1 0.012704 -0.001591 -0.001166 0.000000 -0.001016 0.000000
# 2 -0.001591 0.011151 -0.001127 0.000000 0.006041 0.000000
# 3 -0.001166 -0.001127 0.010853 0.000000 0.008338 0.000000
# 4 0.000000 0.000000 0.000000 0.021587 0.000000 0.003869
# 5 -0.001016 0.006041 0.008338 0.000000 0.050844 0.000000
# 6 0.000000 0.000000 0.000000 0.003869 0.000000 0.023091
#
#
# Mechanical properties :
#
#
# Convention : Reuss Voigt Hill
#
# Bulk Modulus (GPa) = 37.11934 43.99871 40.55903
# Shear Modulus (GPa) = 34.01853 39.89726 36.95789
#
# Velocity S-wave (km/s) = 3.88216 4.20424 4.04641
# Velocity P-wave (km/s) = 6.04482 6.56203 6.30872
#
# Compressibility (1/GPa) = 0.02694013
#
# Stress axis : x y z
#
# Youngs Moduli (GPa) = 78.71846 89.67493 92.13787
#
# Poissons Ratio (x) = 0.14264 0.10745
# Poissons Ratio (y) = 0.12521 0.10386
# Poissons Ratio (z) = 0.09180 0.10109
#
# Static dielectric constant tensor:
#      x y z
#    x 1.828710 0.000000 -0.009700 
#    y 0.000000 1.820640 0.000000 
#    z -0.009700 0.000000 1.969910 
# 
# From -- ./inp_files/122046.got.cif
#   From: 2010.05.17/outbox.cif.g08.bks.cpg/sg15_62_cif.got.tgz:122046.got - 2010.06.03 18:47:42.
