data_PCOD9294592
_publ_section_title
;
Structure prediction by ZEFSAII (Michael W. Deem and Ramdas Pophale) SiO2 
 PCOD9294592
Probable space group: C 2/C
;
_chemical_formula_sum "Si O2"
_cell_formula_units_Z 48
_cell_length_a 12.049409
_cell_length_b 12.568986
_cell_length_c 19.690344
_cell_angle_alpha 90.000000
_cell_angle_beta 46.534461
_cell_angle_gamma 90.000000
_cell_volume 2164.358653
_symmetry_space_group_name_H-M "C 2/C"
_symmetry_group_IT_number 15
_symmetry_cell_setting 'monoclinic'
loop_
_space_group_symop_operation_xyz
x,y,z
-x,y,1/2-z
-x,-y,-z
x,-y,1/2+z
1/2+x,1/2+y,z
1/2-x,1/2+y,1/2-z
1/2-x,1/2-y,-z
1/2+x,1/2-y,1/2+z
loop_
_atom_site_type_symbol
_atom_site_label
_atom_site_fract_x
_atom_site_fract_y
_atom_site_fract_z
Si Si1 0.611025 0.821731 0.765466
Si Si2 0.309142 0.706227 0.385838
Si Si3 0.610812 0.909748 0.068813
Si Si4 0.652653 0.144285 0.023127
Si Si5 0.270828 0.102361 0.666028
Si Si6 0.120845 0.105841 0.278251
O O1 0.500000 0.850810 0.750000
O O2 0.513964 0.831827 0.875395
O O3 0.672486 0.703398 0.728985
O O4 0.766776 0.888930 0.705487
O O5 0.329682 0.827006 0.400399
O O6 0.160030 0.649643 0.478150
O O7 0.446352 0.636835 0.363041
O O8 0.328192 0.694955 0.297934
O O9 0.426517 0.915234 0.143474
O O10 0.683108 0.027090 0.042734
O O11 0.750000 0.250000 0.000000
O O12 0.675873 0.121244 0.933813
O O13 0.160081 0.002220 0.722979
#
# Coordination Sequence:
#
# PCOD9294592 Si02
#       6
#     8   8   8   8   8   8
#     4  12  26  45  68 104 140 182 239 298 354 418
#     4  10  23  40  73 101 135 176 243 290 345 412
#     4  11  22  44  68 100 138 183 233 293 348 418
#     4  12  25  43  69 104 143 191 232 286 361 428
#     4  12  24  45  73 102 141 194 240 286 362 432
#     4  11  23  45  70 103 136 188 241 283 355 434
#
# _framework density 22.177471000000001
#
# number of rings (size 3 to 8) (size 9 to 14) (size 15 to 20)
#    0.000    0.667    6.667    1.500    4.667    0.000 
#    6.000    0.000    0.000    5.000    0.000    0.000 
#    0.000    0.000    0.000    0.000    0.000    0.000 
#
# Total GULP energy -134003.821139 kJ/mol
# GULP energy per Si atom -5583.492547 kJ/mol
# Density = 2.212699 g / cm^3
# Si number density = 22.177471 Si / 1000 Ang^3
#
#
#
# Elastic Constant Matrix: (Units=GPa)
#
#
# Indices 1 2 3 4 5 6 
#
# 1 90.1420 40.3560 -4.5080 0.0000 -17.8146 0.0000
# 2 40.3560 138.9695 48.5261 0.0000 0.0429 0.0000
# 3 -4.5080 48.5261 63.1840 0.0000 -5.0263 0.0000
# 4 0.0000 0.0000 0.0000 43.0849 0.0000 -4.7498
# 5 -17.8146 0.0429 -5.0263 0.0000 32.1151 0.0000
# 6 0.0000 0.0000 0.0000 -4.7498 0.0000 13.8591
#
#
#
# Elastic Compliance Matrix: (Units=1/GPa)
#
#
# Indices 1 2 3 4 5 6 
#
# 1 0.017108 -0.007784 0.008055 0.000000 0.010761 0.000000
# 2 -0.007784 0.013421 -0.011349 0.000000 -0.006112 0.000000
# 3 0.008055 -0.011349 0.025796 0.000000 0.008521 0.000000
# 4 0.000000 0.000000 0.000000 0.024121 0.000000 0.008267
# 5 0.010761 -0.006112 0.008521 0.000000 0.038449 0.000000
# 6 0.000000 0.000000 0.000000 0.008267 0.000000 0.074988
#
#
# Mechanical properties :
#
#
# Convention : Reuss Voigt Hill
#
# Bulk Modulus (GPa) = 29.26707 51.22709 40.24708
# Shear Modulus (GPa) = 21.98490 31.67325 26.82907
#
# Velocity S-wave (km/s) = 3.15193 3.78322 3.48191
# Velocity P-wave (km/s) = 5.14506 6.49865 5.86106
#
# Compressibility (1/GPa) = 0.03416810
#
# Stress axis : x y z
#
# Youngs Moduli (GPa) = 58.45219 74.50937 38.76626
#
# Poissons Ratio (x) = 0.57999 -0.31226
# Poissons Ratio (y) = 0.45500 0.43997
# Poissons Ratio (z) = -0.47083 0.84562
#
# Static dielectric constant tensor:
#      x y z
#    x 1.869320 0.000000 -0.004930 
#    y 0.000000 1.819330 0.000000 
#    z -0.004930 0.000000 1.829810 
# 
# From -- ./inp_files/237442.got.cif
#   From: 2010.05.17/outbox.cif.g08.bks.cpg/sg15_119_cif.got.tgz:237442.got - 2010.06.03 18:47:42.
