data_PCOD9294914
_publ_section_title
;
Structure prediction by ZEFSAII (Michael W. Deem and Ramdas Pophale) SiO2 
 PCOD9294914
Probable space group: C 2/C
;
_chemical_formula_sum "Si O2"
_cell_formula_units_Z 48
_cell_length_a 24.571429
_cell_length_b 8.656502
_cell_length_c 11.539903
_cell_angle_alpha 90.000000
_cell_angle_beta 57.486036
_cell_angle_gamma 90.000000
_cell_volume 2069.839875
_symmetry_space_group_name_H-M "C 2/C"
_symmetry_group_IT_number 15
_symmetry_cell_setting 'monoclinic'
loop_
_space_group_symop_operation_xyz
x,y,z
-x,y,1/2-z
-x,-y,-z
x,-y,1/2+z
1/2+x,1/2+y,z
1/2-x,1/2+y,1/2-z
1/2-x,1/2-y,-z
1/2+x,1/2-y,1/2+z
loop_
_atom_site_type_symbol
_atom_site_label
_atom_site_fract_x
_atom_site_fract_y
_atom_site_fract_z
Si Si1 0.689962 0.843468 0.022619
Si Si2 0.968959 0.114533 0.129125
Si Si3 0.430869 0.310083 0.276716
Si Si4 0.700666 0.188014 0.961606
Si Si5 0.914479 0.319387 0.536033
Si Si6 0.632119 0.152446 0.833925
O O1 0.647590 0.888035 0.183806
O O2 0.712764 0.006320 0.949790
O O3 0.750000 0.750000 0.000000
O O4 0.645365 0.767175 0.975420
O O5 0.914287 0.203627 0.123096
O O6 0.938157 0.997388 0.258559
O O7 0.021529 0.248020 0.096991
O O8 0.000000 0.000000 0.000000
O O9 0.500000 0.256650 0.250000
O O10 0.370073 0.249235 0.418590
O O11 0.417807 0.246236 0.162397
O O12 0.750000 0.250000 0.000000
O O13 0.695954 0.211765 0.828753
O O14 0.902948 0.504582 0.565480
#
# Coordination Sequence:
#
# PCOD9294914 Si02
#       6
#     8   8   8   8   8   8
#     4  11  27  44  71 104 138 185 241 289 350 429
#     4  10  23  41  69 101 137 178 228 283 345 422
#     4  11  24  44  70 105 145 185 235 294 357 422
#     4  11  26  45  71 102 144 189 233 293 362 419
#     4  10  23  47  69 101 139 181 235 288 360 412
#     4  11  24  46  70 102 140 184 231 295 350 417
#
# _framework density 23.190199
#
# number of rings (size 3 to 8) (size 9 to 14) (size 15 to 20)
#    0.000    1.333    1.667    2.500    7.000    4.000 
#    0.000    0.000    0.000    0.000    0.000    0.000 
#    0.000    0.000    0.000    0.000    0.000    0.000 
#
# Total GULP energy -133883.508606 kJ/mol
# GULP energy per Si atom -5578.479525 kJ/mol
# Density = 2.313742 g / cm^3
# Si number density = 23.190199 Si / 1000 Ang^3
#
#
#
# Elastic Constant Matrix: (Units=GPa)
#
#
# Indices 1 2 3 4 5 6 
#
# 1 204.3031 45.8933 14.3879 0.0000 39.1430 0.0000
# 2 45.8933 87.9862 -1.6050 0.0000 -0.6936 0.0000
# 3 14.3879 -1.6050 42.5304 0.0000 17.7668 0.0000
# 4 0.0000 0.0000 0.0000 38.3181 0.0000 2.5853
# 5 39.1430 -0.6936 17.7668 0.0000 39.3108 0.0000
# 6 0.0000 0.0000 0.0000 2.5853 0.0000 40.1401
#
#
#
# Elastic Compliance Matrix: (Units=1/GPa)
#
#
# Indices 1 2 3 4 5 6 
#
# 1 0.007119 -0.003762 0.000541 0.000000 -0.007400 0.000000
# 2 -0.003762 0.013361 0.000140 0.000000 0.003918 0.000000
# 3 0.000541 0.000140 0.029042 0.000000 -0.013662 0.000000
# 4 0.000000 0.000000 0.000000 0.026211 0.000000 -0.001688
# 5 -0.007400 0.003918 -0.013662 0.000000 0.039050 0.000000
# 6 0.000000 0.000000 0.000000 -0.001688 0.000000 0.025021
#
#
# Mechanical properties :
#
#
# Convention : Reuss Voigt Hill
#
# Bulk Modulus (GPa) = 23.06256 50.24133 36.65194
# Shear Modulus (GPa) = 31.16796 41.96337 36.56566
#
# Velocity S-wave (km/s) = 3.67006 4.25847 3.97517
# Velocity P-wave (km/s) = 5.28447 6.77432 6.07524
#
# Compressibility (1/GPa) = 0.04336032
#
# Stress axis : x y z
#
# Youngs Moduli (GPa) = 140.46108 74.84436 34.43280
#
# Poissons Ratio (x) = 0.28156 -0.01862
# Poissons Ratio (y) = 0.52840 -0.00482
# Poissons Ratio (z) = -0.07596 -0.01048
#
# Static dielectric constant tensor:
#      x y z
#    x 1.931050 0.000000 -0.003660 
#    y 0.000000 1.826240 0.000000 
#    z -0.003660 0.000000 1.849100 
# 
# From -- ./inp_files/116722.got.cif
#   From: 2010.05.17/outbox.cif.g08.bks.cpg/sg15_59_cif.got.tgz:116722.got - 2010.06.03 18:47:42.
