data_PCOD9294860
_publ_section_title
;
Structure prediction by ZEFSAII (Michael W. Deem and Ramdas Pophale) SiO2 
 PCOD9294860
Probable space group: C 2/C
;
_chemical_formula_sum "Si O2"
_cell_formula_units_Z 60
_cell_length_a 8.564266
_cell_length_b 21.329646
_cell_length_c 23.396113
_cell_angle_alpha 90.000000
_cell_angle_beta 138.757022
_cell_angle_gamma 90.000000
_cell_volume 2817.539802
_symmetry_space_group_name_H-M "C 2/C"
_symmetry_group_IT_number 15
_symmetry_cell_setting 'monoclinic'
loop_
_space_group_symop_operation_xyz
x,y,z
-x,y,1/2-z
-x,-y,-z
x,-y,1/2+z
1/2+x,1/2+y,z
1/2-x,1/2+y,1/2-z
1/2-x,1/2-y,-z
1/2+x,1/2-y,1/2+z
loop_
_atom_site_type_symbol
_atom_site_label
_atom_site_fract_x
_atom_site_fract_y
_atom_site_fract_z
Si Si1 0.353592 0.221803 0.298298
Si Si2 0.407471 0.532412 0.917096
Si Si3 0.326946 0.162263 0.536832
Si Si4 0.229984 0.334941 0.348274
Si Si5 0.790531 0.455767 0.962791
Si Si6 0.587421 0.595448 0.217032
Si Si7 0.152912 0.232118 0.115683
Si Si8 0.000000 0.536663 0.250000
O O1 0.320896 0.276520 0.335903
O O2 0.202205 0.160287 0.270825
O O3 0.257519 0.239090 0.208307
O O4 0.632807 0.210280 0.365470
O O5 0.404538 0.606850 0.908182
O O6 0.580893 0.503708 0.918081
O O7 0.146996 0.505769 0.834082
O O8 0.500000 0.500000 0.000000
O O9 0.341873 0.182270 0.607192
O O10 0.359468 0.088649 0.535075
O O11 0.532136 0.202641 0.563217
O O12 0.064985 0.183835 0.445801
O O13 0.000000 0.357677 0.250000
O O14 0.662200 0.406026 0.885531
O O15 0.000000 0.500000 0.000000
O O16 0.500000 0.558380 0.250000
O O17 0.800640 0.573360 0.232608
#
# Coordination Sequence:
#
# PCOD9294860 Si02
#       8
#     8   8   8   8   8   8   8   4
#     4  11  23  42  68 102 140 188 244 301 366 443
#     4  11  24  43  71  98 138 194 241 300 377 450
#     4  11  23  44  69  99 144 189 234 303 381 436
#     4  12  24  42  66 102 138 185 239 304 365 445
#     4  11  26  46  69 102 142 187 243 306 370 452
#     4  11  25  43  73 104 140 189 244 306 367 443
#     4  10  23  41  68 100 140 190 238 300 375 443
#     4  10  24  46  70 104 140 194 254 298 392 448
#
# _framework density 21.295173999999999
#
# number of rings (size 3 to 8) (size 9 to 14) (size 15 to 20)
#    0.000    1.067    4.667    1.200    5.600    0.533 
#    0.000    0.000    0.000    0.000    0.000    0.000 
#    0.000    0.000    0.000    0.000    0.000    0.000 
#
# Total GULP energy -167147.040872 kJ/mol
# GULP energy per Si atom -5571.568029 kJ/mol
# Density = 2.124671 g / cm^3
# Si number density = 21.295174 Si / 1000 Ang^3
#
#
#
# Elastic Constant Matrix: (Units=GPa)
#
#
# Indices 1 2 3 4 5 6 
#
# 1 103.9106 39.1114 38.2106 0.0004 12.9419 0.0004
# 2 39.1114 96.9889 24.7243 0.0001 11.6828 -0.0003
# 3 38.2106 24.7243 109.5602 0.0000 7.7744 0.0013
# 4 0.0004 0.0001 0.0000 23.4487 0.0003 11.3605
# 5 12.9419 11.6828 7.7744 0.0003 41.1642 0.0008
# 6 0.0004 -0.0003 0.0013 11.3605 0.0008 4.4765
#
#
#
# Elastic Compliance Matrix: (Units=1/GPa)
#
#
# Indices 1 2 3 4 5 6 
#
# 1 0.012626 -0.003971 -0.003350 0.000000 -0.002210 -0.000001
# 2 -0.003971 0.012487 -0.001287 0.000004 -0.002052 -0.000009
# 3 -0.003350 -0.001287 0.010628 -0.000006 -0.000589 0.000013
# 4 0.000000 0.000004 -0.000006 -0.185799 -0.000008 0.471524
# 5 -0.002210 -0.002052 -0.000589 -0.000008 0.025681 0.000016
# 6 -0.000001 -0.000009 0.000013 0.471524 0.000016 -0.973251
#
#
# Mechanical properties :
#
#
# Convention : Reuss Voigt Hill
#
# Bulk Modulus (GPa) = 53.98617 57.17248 55.57932
# Shear Modulus (GPa) = -4.65447 27.71209 11.52881
#
# Velocity S-wave (km/s) = -1.48001 3.61131 2.32928
# Velocity P-wave (km/s) = 4.74192 6.65542 5.77843
#
# Compressibility (1/GPa) = 0.01852326
#
# Stress axis : x y z
#
# Youngs Moduli (GPa) = 79.20420 80.08184 94.08945
#
# Poissons Ratio (x) = 0.31801 0.31524
# Poissons Ratio (y) = 0.31453 0.12113
# Poissons Ratio (z) = 0.26537 0.10309
#
# Static dielectric constant tensor:
#      x y z
#    x 1.975570 0.000000 0.046500 
#    y 0.000000 1.826040 0.000000 
#    z 0.046500 0.000000 1.903550 
# 
# From -- ./inp_files/266245.got.cif
#   From: 2010.05.17/outbox.cif.g08.bks.cpg/sg15_134_cif.got.tgz:266245.got - 2010.06.03 18:47:42.
