data_PCOD9294376
_publ_section_title
;
Structure prediction by ZEFSAII (Michael W. Deem and Ramdas Pophale) SiO2 
 PCOD9294376
Probable space group: C 2/C
;
_chemical_formula_sum "Si O2"
_cell_formula_units_Z 48
_cell_length_a 26.578965
_cell_length_b 10.458194
_cell_length_c 9.030898
_cell_angle_alpha 90.000000
_cell_angle_beta 113.495155
_cell_angle_gamma 90.000000
_cell_volume 2302.180912
_symmetry_space_group_name_H-M "C 2/C"
_symmetry_group_IT_number 15
_symmetry_cell_setting 'monoclinic'
loop_
_space_group_symop_operation_xyz
x,y,z
-x,y,1/2-z
-x,-y,-z
x,-y,1/2+z
1/2+x,1/2+y,z
1/2-x,1/2+y,1/2-z
1/2-x,1/2-y,-z
1/2+x,1/2-y,1/2+z
loop_
_atom_site_type_symbol
_atom_site_label
_atom_site_fract_x
_atom_site_fract_y
_atom_site_fract_z
Si Si1 0.622884 0.995803 0.389190
Si Si2 0.824186 0.671329 0.794848
Si Si3 0.350925 0.431583 0.686225
Si Si4 0.036938 0.079236 0.654250
Si Si5 0.696571 0.340926 0.184554
Si Si6 0.404829 0.825681 0.890450
O O1 0.650694 0.093568 0.537677
O O2 0.586926 0.074982 0.231746
O O3 0.665715 0.916292 0.338777
O O4 0.588930 0.895129 0.446362
O O5 0.852072 0.808089 0.795021
O O6 0.759957 0.692892 0.745486
O O7 0.410648 0.494335 0.736341
O O8 0.326547 0.385475 0.501853
O O9 0.313580 0.541889 0.715266
O O10 0.059565 0.201808 0.594920
O O11 0.000000 0.116723 0.750000
O O12 0.000000 0.000000 0.500000
O O13 0.658688 0.222477 0.189965
#
# Coordination Sequence:
#
# PCOD9294376 Si02
#       6
#     8   8   8   8   8   8
#     4  10  23  40  63  90 133 174 208 255 324 382
#     4  11  23  38  64  90 138 175 213 256 326 386
#     4  11  24  40  65  94 130 165 222 267 322 384
#     4  11  25  45  73  94 123 165 221 282 331 369
#     4  11  23  38  61  98 131 172 218 263 316 392
#     4  10  23  43  64  95 130 167 220 264 319 391
#
# _framework density 20.849795
#
# number of rings (size 3 to 8) (size 9 to 14) (size 15 to 20)
#    0.000    1.333    1.667    3.500   11.667    0.667 
#    0.000    0.833    0.000    0.000    0.000    0.000 
#    0.000    0.000    0.000    0.000    0.000    0.000 
#
# Total GULP energy -134265.320811 kJ/mol
# GULP energy per Si atom -5594.388367 kJ/mol
# Density = 2.080234 g / cm^3
# Si number density = 20.849795 Si / 1000 Ang^3
#
#
#
# Elastic Constant Matrix: (Units=GPa)
#
#
# Indices 1 2 3 4 5 6 
#
# 1 93.9278 36.0027 17.5731 0.0000 -9.8925 0.0000
# 2 36.0027 93.4269 -2.1340 0.0000 -9.5491 0.0000
# 3 17.5731 -2.1340 36.0628 0.0000 -21.7169 0.0000
# 4 0.0000 0.0000 0.0000 27.6412 0.0000 -14.7610
# 5 -9.8925 -9.5491 -21.7169 0.0000 27.5589 0.0000
# 6 0.0000 0.0000 0.0000 -14.7610 0.0000 14.7664
#
#
#
# Elastic Compliance Matrix: (Units=1/GPa)
#
#
# Indices 1 2 3 4 5 6 
#
# 1 0.014540 -0.006410 -0.010770 0.000000 -0.005489 0.000000
# 2 -0.006410 0.014564 0.010731 0.000000 0.011202 0.000000
# 3 -0.010770 0.010731 0.063799 0.000000 0.050127 0.000000
# 4 0.000000 0.000000 0.000000 0.077606 0.000000 0.077578
# 5 -0.005489 0.011202 0.050127 0.000000 0.077698 0.000000
# 6 0.000000 0.000000 0.000000 0.077578 0.000000 0.145271
#
#
# Mechanical properties :
#
#
# Convention : Reuss Voigt Hill
#
# Bulk Modulus (GPa) = 12.49932 36.25571 24.37751
# Shear Modulus (GPa) = 11.54614 25.45834 18.50224
#
# Velocity S-wave (km/s) = 2.35580 3.49812 2.98217
# Velocity P-wave (km/s) = 3.66165 5.80884 4.85542
#
# Compressibility (1/GPa) = 0.08000436
#
# Stress axis : x y z
#
# Youngs Moduli (GPa) = 68.77355 68.66333 15.67428
#
# Poissons Ratio (x) = 0.44015 0.16881
# Poissons Ratio (y) = 0.44086 -0.16820
# Poissons Ratio (z) = 0.74070 -0.73683
#
# Static dielectric constant tensor:
#      x y z
#    x 1.730060 0.000000 -0.025070 
#    y 0.000000 1.751500 0.000000 
#    z -0.025070 0.000000 1.730400 
# 
# From -- ./inp_files/60668.got.cif
#   From: 2010.05.17/outbox.cif.g08.bks.cpg/sg15_31_cif.got.tgz:60668.got - 2010.06.03 18:47:42.
