data_PCOD9294661
_publ_section_title
;
Structure prediction by ZEFSAII (Michael W. Deem and Ramdas Pophale) SiO2 
 PCOD9294661
Probable space group: C 2/C
;
_chemical_formula_sum "Si O2"
_cell_formula_units_Z 40
_cell_length_a 13.031796
_cell_length_b 24.399755
_cell_length_c 11.346242
_cell_angle_alpha 90.000000
_cell_angle_beta 30.735591
_cell_angle_gamma 90.000000
_cell_volume 1843.860534
_symmetry_space_group_name_H-M "C 2/C"
_symmetry_group_IT_number 15
_symmetry_cell_setting 'monoclinic'
loop_
_space_group_symop_operation_xyz
x,y,z
-x,y,1/2-z
-x,-y,-z
x,-y,1/2+z
1/2+x,1/2+y,z
1/2-x,1/2+y,1/2-z
1/2-x,1/2-y,-z
1/2+x,1/2-y,1/2+z
loop_
_atom_site_type_symbol
_atom_site_label
_atom_site_fract_x
_atom_site_fract_y
_atom_site_fract_z
Si Si1 0.931487 0.130298 0.439190
Si Si2 0.796436 0.319753 0.863997
Si Si3 0.840104 0.199626 0.748777
Si Si4 0.143310 0.469169 0.214629
Si Si5 0.297273 0.075981 0.223845
O O1 0.816801 0.169632 0.646377
O O2 0.790159 0.080298 0.538685
O O3 0.000000 0.159044 0.250000
O O4 0.121853 0.102495 0.317785
O O5 0.854262 0.265567 0.732227
O O6 0.867199 0.377313 0.744799
O O7 0.810361 0.311546 0.992037
O O8 0.556225 0.321254 0.077725
O O9 0.264695 0.520855 0.145876
O O10 0.000000 0.487822 0.250000
O O11 0.988479 0.443547 0.461049
#
# Coordination Sequence:
#
# PCOD9294661 Si02
#       5
#     8   8   8   8   8
#     4  11  22  42  63  90 131 167 204 257 311 379
#     4   9  19  39  60  90 123 153 209 261 308 366
#     4   9  20  37  62  91 118 163 205 255 317 365
#     4  11  23  41  63  94 121 166 210 256 315 370
#     4  10  23  41  63  91 126 161 209 258 313 372
#
# _framework density 21.693614
#
# number of rings (size 3 to 8) (size 9 to 14) (size 15 to 20)
#    0.000    2.000    2.000    0.600    2.800    3.200 
#   10.800    5.000    0.000    0.000    0.000    0.000 
#    0.000    0.000    0.000    0.000    0.000    0.000 
#
# Total GULP energy -111567.976202 kJ/mol
# GULP energy per Si atom -5578.398810 kJ/mol
# Density = 2.164424 g / cm^3
# Si number density = 21.693614 Si / 1000 Ang^3
#
#
#
# Elastic Constant Matrix: (Units=GPa)
#
#
# Indices 1 2 3 4 5 6 
#
# 1 81.6711 30.4657 19.0632 0.0002 17.5537 -0.0002
# 2 30.4657 114.8548 48.6484 0.0006 32.5805 0.0001
# 3 19.0632 48.6484 60.1238 0.0019 32.0125 -0.0002
# 4 0.0002 0.0006 0.0019 35.3772 -0.0002 11.9187
# 5 17.5537 32.5805 32.0125 -0.0002 38.4363 0.0000
# 6 -0.0002 0.0001 -0.0002 11.9187 0.0000 40.8526
#
#
#
# Elastic Compliance Matrix: (Units=1/GPa)
#
#
# Indices 1 2 3 4 5 6 
#
# 1 0.014113 -0.002447 -0.000301 0.000000 -0.004120 0.000000
# 2 -0.002447 0.014047 -0.008706 0.000000 -0.003538 0.000000
# 3 -0.000301 -0.008706 0.035522 -0.000002 -0.022068 0.000001
# 4 0.000000 0.000000 -0.000002 0.031348 0.000002 -0.009146
# 5 -0.004120 -0.003538 -0.022068 0.000002 0.049278 -0.000001
# 6 0.000000 0.000000 0.000001 -0.009146 -0.000001 0.027147
#
#
# Mechanical properties :
#
#
# Convention : Reuss Voigt Hill
#
# Bulk Modulus (GPa) = 24.52537 50.33381 37.42959
# Shear Modulus (GPa) = 24.04371 33.49804 28.77088
#
# Velocity S-wave (km/s) = 3.33277 3.93382 3.64570
# Velocity P-wave (km/s) = 5.11270 6.62463 5.91716
#
# Compressibility (1/GPa) = 0.04077411
#
# Stress axis : x y z
#
# Youngs Moduli (GPa) = 70.85692 71.18906 28.15135
#
# Poissons Ratio (x) = 0.17422 0.00846
# Poissons Ratio (y) = 0.17341 0.24509
# Poissons Ratio (z) = 0.02130 0.61978
#
# Static dielectric constant tensor:
#      x y z
#    x 1.859890 0.000000 -0.015290 
#    y 0.000000 1.756890 0.000000 
#    z -0.015290 0.000000 1.874110 
# 
# From -- ./inp_files/100590.got.cif
#   From: 2010.05.17/outbox.cif.g08.bks.cpg/sg15_51_cif.got.tgz:100590.got - 2010.06.03 18:47:42.
