data_PCOD9294289
_publ_section_title
;
Structure prediction by ZEFSAII (Michael W. Deem and Ramdas Pophale) SiO2 
 PCOD9294289
Probable space group: C 2/C
;
_chemical_formula_sum "Si O2"
_cell_formula_units_Z 40
_cell_length_a 22.619358
_cell_length_b 10.113759
_cell_length_c 12.174515
_cell_angle_alpha 90.000000
_cell_angle_beta 142.184008
_cell_angle_gamma 90.000000
_cell_volume 1707.636350
_symmetry_space_group_name_H-M "C 2/C"
_symmetry_group_IT_number 15
_symmetry_cell_setting 'monoclinic'
loop_
_space_group_symop_operation_xyz
x,y,z
-x,y,1/2-z
-x,-y,-z
x,-y,1/2+z
1/2+x,1/2+y,z
1/2-x,1/2+y,1/2-z
1/2-x,1/2-y,-z
1/2+x,1/2-y,1/2+z
loop_
_atom_site_type_symbol
_atom_site_label
_atom_site_fract_x
_atom_site_fract_y
_atom_site_fract_z
Si Si1 0.888604 0.513185 0.811554
Si Si2 0.251645 0.851852 0.247625
Si Si3 0.619060 0.725919 0.754484
Si Si4 0.107856 0.016021 0.365450
Si Si5 0.398807 0.705256 0.341301
O O1 0.833598 0.535187 0.847462
O O2 0.860212 0.382366 0.705115
O O3 0.880558 0.658209 0.745351
O O4 0.000000 0.500000 0.000000
O O5 0.191187 0.827724 0.267249
O O6 0.313238 0.721811 0.303612
O O7 0.176175 0.901045 0.044738
O O8 0.630781 0.637749 0.879491
O O9 0.506522 0.709340 0.550507
O O10 0.111696 0.080964 0.250887
O O11 0.000000 0.027782 0.250000
#
# Coordination Sequence:
#
# PCOD9294289 Si02
#       5
#     8   8   8   8   8
#     4   8  20  41  62  92 124 170 219 259 326 391
#     4  10  23  39  70  92 132 169 223 264 332 387
#     4  11  22  41  69  92 132 173 215 272 327 390
#     4  12  24  39  64 101 131 170 220 273 323 390
#     4   9  21  42  63  90 128 170 217 261 323 391
#
# _framework density 23.424191
#
# number of rings (size 3 to 8) (size 9 to 14) (size 15 to 20)
#    1.200    0.800    2.000    1.200    2.800    0.800 
#    0.000    1.000    0.000    0.000    0.000    0.000 
#    0.000    0.000    0.000    0.000    0.000    0.000 
#
# Total GULP energy -111528.070882 kJ/mol
# GULP energy per Si atom -5576.403544 kJ/mol
# Density = 2.337088 g / cm^3
# Si number density = 23.424191 Si / 1000 Ang^3
#
#
#
# Elastic Constant Matrix: (Units=GPa)
#
#
# Indices 1 2 3 4 5 6 
#
# 1 120.6276 38.4775 66.3585 0.0000 40.0581 0.0000
# 2 38.4775 126.5680 18.7616 0.0000 -2.6320 0.0000
# 3 66.3585 18.7616 106.2785 0.0000 32.5381 0.0000
# 4 0.0000 0.0000 0.0000 18.0246 0.0000 16.0347
# 5 40.0581 -2.6320 32.5381 0.0000 45.0600 0.0000
# 6 0.0000 0.0000 0.0000 16.0347 0.0000 29.6815
#
#
#
# Elastic Compliance Matrix: (Units=1/GPa)
#
#
# Indices 1 2 3 4 5 6 
#
# 1 0.016689 -0.004332 -0.006465 0.000000 -0.010421 0.000000
# 2 -0.004332 0.009371 -0.000380 0.000000 0.004673 0.000000
# 3 -0.006465 -0.000380 0.015098 0.000000 -0.005177 0.000000
# 4 0.000000 0.000000 0.000000 0.106813 0.000000 -0.057703
# 5 -0.010421 0.004673 -0.005177 0.000000 0.035468 0.000000
# 6 0.000000 0.000000 0.000000 -0.057703 0.000000 0.064864
#
#
# Mechanical properties :
#
#
# Convention : Reuss Voigt Hill
#
# Bulk Modulus (GPa) = 53.18067 66.74104 59.96085
# Shear Modulus (GPa) = 18.05544 33.87832 25.96688
#
# Velocity S-wave (km/s) = 2.77935 3.80715 3.33310
# Velocity P-wave (km/s) = 5.74911 6.91954 6.36130
#
# Compressibility (1/GPa) = 0.01880383
#
# Stress axis : x y z
#
# Youngs Moduli (GPa) = 59.92051 106.70817 66.23353
#
# Poissons Ratio (x) = 0.46225 0.42820
# Poissons Ratio (y) = 0.25957 0.02519
# Poissons Ratio (z) = 0.38739 0.04058
#
# Static dielectric constant tensor:
#      x y z
#    x 1.842400 0.000000 0.033670 
#    y 0.000000 2.045320 0.000000 
#    z 0.033670 0.000000 1.883480 
# 
# From -- ./inp_files/167429.got.cif
#   From: 2010.05.17/outbox.cif.g08.bks.cpg/sg15_84_cif.got.tgz:167429.got - 2010.06.03 18:47:42.
