data_PCOD9294394
_publ_section_title
;
Structure prediction by ZEFSAII (Michael W. Deem and Ramdas Pophale) SiO2 
 PCOD9294394
Probable space group: C 2/C
;
_chemical_formula_sum "Si O2"
_cell_formula_units_Z 64
_cell_length_a 28.205357
_cell_length_b 11.357392
_cell_length_c 9.868898
_cell_angle_alpha 90.000000
_cell_angle_beta 89.809260
_cell_angle_gamma 90.000000
_cell_volume 3161.378319
_symmetry_space_group_name_H-M "C 2/C"
_symmetry_group_IT_number 15
_symmetry_cell_setting 'monoclinic'
loop_
_space_group_symop_operation_xyz
x,y,z
-x,y,1/2-z
-x,-y,-z
x,-y,1/2+z
1/2+x,1/2+y,z
1/2-x,1/2+y,1/2-z
1/2-x,1/2-y,-z
1/2+x,1/2-y,1/2+z
loop_
_atom_site_type_symbol
_atom_site_label
_atom_site_fract_x
_atom_site_fract_y
_atom_site_fract_z
Si Si1 0.235434 0.719963 0.300644
Si Si2 0.366952 0.143444 0.654477
Si Si3 0.207716 0.086334 0.984436
Si Si4 0.939206 0.419424 0.933268
Si Si5 0.617802 0.744363 0.051965
Si Si6 0.643077 0.895618 0.787055
Si Si7 0.481131 0.183033 0.904823
Si Si8 0.296156 0.311451 0.559738
O O1 0.221998 0.852547 0.341888
O O2 0.248291 0.636439 0.427639
O O3 0.188501 0.672744 0.229457
O O4 0.282850 0.704028 0.217165
O O5 0.410821 0.084509 0.575604
O O6 0.377281 0.201837 0.798001
O O7 0.344146 0.237653 0.553325
O O8 0.337436 0.027277 0.689101
O O9 0.156970 0.142483 0.029145
O O10 0.202902 0.946955 0.980740
O O11 0.901834 0.393842 0.813392
O O12 0.960299 0.548737 0.902957
O O13 0.980531 0.327352 0.973199
O O14 0.560876 0.728166 0.050252
O O15 0.630372 0.835138 0.930634
O O16 0.500000 0.207454 0.750000
O O17 0.250000 0.250000 0.500000
#
# Coordination Sequence:
#
# PCOD9294394 Si02
#       8
#     8   8   8   8   8   8   8   8
#     4  10  23  40  64  87 127 175 211 266 317 381
#     4  12  21  38  60  90 129 172 210 265 322 395
#     4  10  24  44  61  90 129 175 216 265 320 378
#     4  11  22  35  57  96 135 160 211 271 318 391
#     4  11  22  40  62  89 131 176 207 261 331 385
#     4  11  21  36  59  94 138 166 211 263 331 380
#     4  11  21  36  63  94 131 173 211 264 335 387
#     4  12  26  39  66  95 125 171 225 265 309 382
#
# _framework density 20.244335
#
# number of rings (size 3 to 8) (size 9 to 14) (size 15 to 20)
#    0.000    1.000    5.000    1.500    5.250    0.000 
#    0.000    0.000    0.000    0.750    0.000    0.000 
#    0.000    0.000    0.000    0.000    0.000    0.000 
#
# Total GULP energy -178217.499730 kJ/mol
# GULP energy per Si atom -5569.296867 kJ/mol
# Density = 2.019826 g / cm^3
# Si number density = 20.244335 Si / 1000 Ang^3
#
#
#
# Elastic Constant Matrix: (Units=GPa)
#
#
# Indices 1 2 3 4 5 6 
#
# 1 94.3211 33.8607 17.0171 0.0000 9.5304 0.0000
# 2 33.8607 96.5724 28.6371 0.0000 12.3848 0.0000
# 3 17.0171 28.6371 59.0848 0.0000 3.1432 0.0000
# 4 0.0000 0.0000 0.0000 -81.7210 0.0000 101.7002
# 5 9.5304 12.3848 3.1432 0.0000 44.1433 0.0000
# 6 0.0000 0.0000 0.0000 101.7002 0.0000 -77.5858
#
#
#
# Elastic Compliance Matrix: (Units=1/GPa)
#
#
# Indices 1 2 3 4 5 6 
#
# 1 0.012371 -0.003631 -0.001722 0.000000 -0.001530 0.000000
# 2 -0.003631 0.013564 -0.005388 0.000000 -0.002638 0.000000
# 3 -0.001722 -0.005388 0.020008 0.000000 0.000459 0.000000
# 4 0.000000 0.000000 0.000000 0.019384 0.000000 0.025409
# 5 -0.001530 -0.002638 0.000459 0.000000 0.023691 0.000000
# 6 0.000000 0.000000 0.000000 0.025409 0.000000 0.020417
#
#
# Mechanical properties :
#
#
# Convention : Reuss Voigt Hill
#
# Bulk Modulus (GPa) = 40.88110 45.44534 43.16322
# Shear Modulus (GPa) = 35.95306 -11.66847 12.14230
#
# Velocity S-wave (km/s) = 4.21878 -2.40340 2.45171
# Velocity P-wave (km/s) = 6.63088 3.84648 5.42051
#
# Compressibility (1/GPa) = 0.02446118
#
# Stress axis : x y z
#
# Youngs Moduli (GPa) = 80.83623 73.72430 49.98040
#
# Poissons Ratio (x) = 0.26767 0.08606
# Poissons Ratio (y) = 0.29350 0.26930
# Poissons Ratio (z) = 0.13918 0.39724
#
# Static dielectric constant tensor:
#      x y z
#    x 1.737150 0.000000 0.094860 
#    y 0.000000 1.757510 0.000000 
#    z 0.094860 0.000000 1.714830 
# 
# From -- ./inp_files/122453.got.cif
#   From: 2010.05.17/outbox.cif.g08.bks.cpg/sg15_62_cif.got.tgz:122453.got - 2010.06.03 18:47:42.
