data_PCOD9294833
_publ_section_title
;
Structure prediction by ZEFSAII (Michael W. Deem and Ramdas Pophale) SiO2 
 PCOD9294833
Probable space group: C 2/C
;
_chemical_formula_sum "Si O2"
_cell_formula_units_Z 64
_cell_length_a 27.511443
_cell_length_b 15.409420
_cell_length_c 11.564361
_cell_angle_alpha 90.000000
_cell_angle_beta 38.035995
_cell_angle_gamma 90.000000
_cell_volume 3020.732524
_symmetry_space_group_name_H-M "C 2/C"
_symmetry_group_IT_number 15
_symmetry_cell_setting 'monoclinic'
loop_
_space_group_symop_operation_xyz
x,y,z
-x,y,1/2-z
-x,-y,-z
x,-y,1/2+z
1/2+x,1/2+y,z
1/2-x,1/2+y,1/2-z
1/2-x,1/2-y,-z
1/2+x,1/2-y,1/2+z
loop_
_atom_site_type_symbol
_atom_site_label
_atom_site_fract_x
_atom_site_fract_y
_atom_site_fract_z
Si Si1 0.474116 0.319736 0.609229
Si Si2 0.432695 0.231251 0.450639
Si Si3 0.225702 0.436293 0.861026
Si Si4 0.157318 0.858488 0.036615
Si Si5 0.725895 0.877957 0.264108
Si Si6 0.584758 0.174814 0.605940
Si Si7 0.839995 0.046549 0.359682
Si Si8 0.148467 0.792824 0.299472
O O1 0.467855 0.260671 0.506646
O O2 0.436025 0.261165 0.782123
O O3 0.420304 0.402527 0.690801
O O4 0.564678 0.344373 0.463442
O O5 0.409120 0.315386 0.418095
O O6 0.350882 0.179351 0.617881
O O7 0.500000 0.183403 0.250000
O O8 0.269593 0.375820 0.685203
O O9 0.199374 0.526679 0.854622
O O10 0.289909 0.460630 0.836787
O O11 0.150375 0.382776 0.045026
O O12 0.169941 0.796308 0.123838
O O13 0.142538 0.953894 0.116006
O O14 0.781223 0.833556 0.257609
O O15 0.783853 0.896140 0.048332
O O16 0.500000 0.129726 0.750000
O O17 0.619692 0.204438 0.416118
#
# Coordination Sequence:
#
# PCOD9294833 Si02
#       8
#     8   8   8   8   8   8   8   8
#     4  11  23  42  68  95 127 166 215 262 314 380
#     4  12  25  45  64  95 128 171 216 259 316 378
#     4  11  23  43  65  95 126 169 217 259 316 373
#     4  11  24  41  64  95 129 166 205 259 323 380
#     4  11  25  42  67  92 131 169 212 261 317 379
#     4  10  23  41  67  93 127 167 214 265 311 374
#     4  11  23  42  66  97 126 166 215 262 314 380
#     4  11  22  43  62  97 128 165 205 259 323 377
#
# _framework density 21.186914999999999
#
# number of rings (size 3 to 8) (size 9 to 14) (size 15 to 20)
#    0.000    1.000    5.000    1.500    0.000    4.000 
#    4.500    0.000    0.000    4.500    0.000    0.000 
#    0.000    0.000    0.000    0.000    0.000    0.000 
#
# Total GULP energy -178738.694309 kJ/mol
# GULP energy per Si atom -5585.584197 kJ/mol
# Density = 2.113869 g / cm^3
# Si number density = 21.186915 Si / 1000 Ang^3
#
#
#
# Elastic Constant Matrix: (Units=GPa)
#
#
# Indices 1 2 3 4 5 6 
#
# 1 46.2154 7.7873 10.5213 0.0000 6.7124 0.0000
# 2 7.7873 33.1611 27.2422 0.0000 -13.3560 0.0000
# 3 10.5213 27.2422 55.7907 0.0000 -1.0958 0.0000
# 4 0.0000 0.0000 0.0000 4.6054 0.0000 10.5281
# 5 6.7124 -13.3560 -1.0958 0.0000 44.0805 0.0000
# 6 0.0000 0.0000 0.0000 10.5281 0.0000 4.4299
#
#
#
# Elastic Compliance Matrix: (Units=1/GPa)
#
#
# Indices 1 2 3 4 5 6 
#
# 1 0.023926 -0.006918 -0.001247 0.000000 -0.005770 0.000000
# 2 -0.006918 0.064004 -0.029561 0.000000 0.019711 0.000000
# 3 -0.001247 -0.029561 0.032437 0.000000 -0.007960 0.000000
# 4 0.000000 0.000000 0.000000 -0.048982 0.000000 0.116411
# 5 -0.005770 0.019711 -0.007960 0.000000 0.029339 0.000000
# 6 0.000000 0.000000 0.000000 0.116411 0.000000 -0.050923
#
#
# Mechanical properties :
#
#
# Convention : Reuss Voigt Hill
#
# Bulk Modulus (GPa) = 22.26450 25.14098 23.70274
# Shear Modulus (GPa) = 35.65740 16.59759 26.12750
#
# Velocity S-wave (km/s) = 4.10688 2.80194 3.51549
# Velocity P-wave (km/s) = 5.74631 4.72863 5.26213
#
# Compressibility (1/GPa) = 0.04491455
#
# Stress axis : x y z
#
# Youngs Moduli (GPa) = 41.79632 15.62411 30.82868
#
# Poissons Ratio (x) = 0.10808 0.03846
# Poissons Ratio (y) = 0.28914 0.91132
# Poissons Ratio (z) = 0.05214 0.46186
#
# Static dielectric constant tensor:
#      x y z
#    x 1.762920 0.000000 0.005000 
#    y 0.000000 1.743420 0.000000 
#    z 0.005000 0.000000 1.810920 
# 
# From -- ./inp_files/127282.got.cif
#   From: 2010.05.17/outbox.cif.g08.bks.cpg/sg15_64_cif.got.tgz:127282.got - 2010.06.03 18:47:42.
