data_PCOD9294150
_publ_section_title
;
Structure prediction by ZEFSAII (Michael W. Deem and Ramdas Pophale) SiO2 
 PCOD9294150
Probable space group: C 2/C
;
_chemical_formula_sum "Si O2"
_cell_formula_units_Z 40
_cell_length_a 18.880718
_cell_length_b 19.764946
_cell_length_c 14.835771
_cell_angle_alpha 90.000000
_cell_angle_beta 160.125798
_cell_angle_gamma 90.000000
_cell_volume 1882.119310
_symmetry_space_group_name_H-M "C 2/C"
_symmetry_group_IT_number 15
_symmetry_cell_setting 'monoclinic'
loop_
_space_group_symop_operation_xyz
x,y,z
-x,y,1/2-z
-x,-y,-z
x,-y,1/2+z
1/2+x,1/2+y,z
1/2-x,1/2+y,1/2-z
1/2-x,1/2-y,-z
1/2+x,1/2-y,1/2+z
loop_
_atom_site_type_symbol
_atom_site_label
_atom_site_fract_x
_atom_site_fract_y
_atom_site_fract_z
Si Si1 0.000000 0.980320 0.750000
Si Si2 0.754562 0.738771 0.196973
Si Si3 0.709858 0.610064 0.046858
Si Si4 0.138090 0.256882 0.230356
Si Si5 0.500000 0.825828 0.750000
Si Si6 0.216757 0.365651 0.470401
O O1 0.867757 0.929184 0.650907
O O2 0.846511 0.031230 0.512197
O O3 0.742731 0.657168 0.171606
O O4 0.863627 0.752710 0.429152
O O5 0.027712 0.747243 0.494273
O O6 0.664895 0.780294 0.003404
O O7 0.889664 0.626489 0.191325
O O8 0.500000 0.638204 0.750000
O O9 0.184000 0.328737 0.334558
O O10 0.203993 0.194095 0.371151
O O11 0.000000 0.389531 0.250000
#
# Coordination Sequence:
#
# PCOD9294150 Si02
#       6
#     4   8   8   8   4   8
#     4  10  25  42  64  85 136 176 208 258 306 393
#     4  12  20  39  66 100 128 158 207 274 317 377
#     4  10  23  39  61  92 129 173 207 243 316 390
#     4  11  23  38  71 100 120 152 223 274 318 366
#     4  12  21  38  68  93 134 170 202 260 330 367
#     4  11  23  45  67  93 124 171 212 270 322 362
#
# _framework density 21.252637
#
# number of rings (size 3 to 8) (size 9 to 14) (size 15 to 20)
#    0.600    0.400    5.000    3.000    4.200    0.000 
#    0.000    2.000    4.400    0.000    0.000    0.000 
#    0.000    0.000    0.000    0.000    0.000    0.000 
#
# Total GULP energy -111348.328922 kJ/mol
# GULP energy per Si atom -5567.416446 kJ/mol
# Density = 2.120426 g / cm^3
# Si number density = 21.252637 Si / 1000 Ang^3
#
#
#
# Elastic Constant Matrix: (Units=GPa)
#
#
# Indices 1 2 3 4 5 6 
#
# 1 137.5956 52.0318 26.2803 0.0000 5.1736 0.0001
# 2 52.0318 123.4566 9.0858 -0.0002 5.8833 -0.0001
# 3 26.2803 9.0858 93.0130 -0.0002 13.3285 0.0000
# 4 0.0000 -0.0002 -0.0002 122.2513 0.0001 75.2831
# 5 5.1736 5.8833 13.3285 0.0001 36.3900 0.0001
# 6 0.0001 -0.0001 0.0000 75.2831 0.0001 59.1830
#
#
#
# Elastic Compliance Matrix: (Units=1/GPa)
#
#
# Indices 1 2 3 4 5 6 
#
# 1 0.009074 -0.003666 -0.002222 0.000000 0.000117 0.000000
# 2 -0.003666 0.009681 0.000253 0.000000 -0.001137 0.000000
# 3 -0.002222 0.000253 0.011942 0.000000 -0.004099 0.000000
# 4 0.000000 0.000000 0.000000 0.037753 0.000000 -0.048023
# 5 0.000117 -0.001137 -0.004099 0.000000 0.029148 0.000000
# 6 0.000000 0.000000 0.000000 -0.048023 0.000000 0.077984
#
#
# Mechanical properties :
#
#
# Convention : Reuss Voigt Hill
#
# Bulk Modulus (GPa) = 51.47917 58.76235 55.12076
# Shear Modulus (GPa) = 25.86271 61.34269 43.60270
#
# Velocity S-wave (km/s) = 3.49222 5.37831 4.53441
# Velocity P-wave (km/s) = 6.36678 8.14112 7.30800
#
# Compressibility (1/GPa) = 0.01942533
#
# Stress axis : x y z
#
# Youngs Moduli (GPa) = 110.20235 103.29745 83.73988
#
# Poissons Ratio (x) = 0.37873 0.18611
# Poissons Ratio (y) = 0.40405 -0.02120
# Poissons Ratio (z) = 0.24492 -0.02615
#
# Static dielectric constant tensor:
#      x y z
#    x 2.114800 0.000000 0.293570 
#    y 0.000000 1.675390 0.000000 
#    z 0.293570 0.000000 1.970670 
# 
# From -- ./inp_files/56873.got.cif
#   From: 2010.05.17/outbox.cif.g08.bks.cpg/sg15_29_cif.got.tgz:56873.got - 2010.06.03 18:47:42.
