data_PCOD9294142
_publ_section_title
;
Structure prediction by ZEFSAII (Michael W. Deem and Ramdas Pophale) SiO2 
 PCOD9294142
Probable space group: C 2/C
;
_chemical_formula_sum "Si O2"
_cell_formula_units_Z 60
_cell_length_a 11.811019
_cell_length_b 22.127717
_cell_length_c 18.278429
_cell_angle_alpha 90.000000
_cell_angle_beta 142.782870
_cell_angle_gamma 90.000000
_cell_volume 2889.358021
_symmetry_space_group_name_H-M "C 2/C"
_symmetry_group_IT_number 15
_symmetry_cell_setting 'monoclinic'
loop_
_space_group_symop_operation_xyz
x,y,z
-x,y,1/2-z
-x,-y,-z
x,-y,1/2+z
1/2+x,1/2+y,z
1/2-x,1/2+y,1/2-z
1/2-x,1/2-y,-z
1/2+x,1/2-y,1/2+z
loop_
_atom_site_type_symbol
_atom_site_label
_atom_site_fract_x
_atom_site_fract_y
_atom_site_fract_z
Si Si1 0.836985 0.913711 0.116722
Si Si2 0.580103 0.996270 0.709342
Si Si3 0.759048 0.543682 0.437539
Si Si4 0.040180 0.058066 0.571215
Si Si5 0.399842 0.711832 0.272810
Si Si6 0.915797 0.381647 0.883711
Si Si7 0.000000 0.327517 0.250000
Si Si8 0.868035 0.867825 0.512207
O O1 0.000000 0.884770 0.250000
O O2 0.909924 0.929153 0.072810
O O3 0.640342 0.878822 0.009155
O O4 0.802967 0.981163 0.131915
O O5 0.500000 0.992752 0.750000
O O6 0.627499 0.929403 0.703620
O O7 0.422328 0.020902 0.574500
O O8 0.751390 0.042811 0.794624
O O9 0.836245 0.587926 0.416273
O O10 0.617646 0.580329 0.417721
O O11 0.031098 0.112553 0.509639
O O12 0.000000 0.000000 0.500000
O O13 0.500000 0.687509 0.250000
O O14 0.203543 0.679304 0.186570
O O15 0.389998 0.782567 0.248974
O O16 0.544781 0.693074 0.410598
O O17 0.151665 0.361984 0.376495
#
# Coordination Sequence:
#
# PCOD9294142 Si02
#       8
#     8   8   8   8   8   8   4   8
#     4  11  23  36  54  85 134 177 212 242 291 379
#     4  11  20  33  49  83 124 164 205 250 294 371
#     4  11  20  34  54  83 119 165 199 248 295 372
#     4  12  21  35  54  88 129 166 202 245 303 380
#     4  10  23  39  61  88 119 155 202 270 319 362
#     4  11  22  37  56  84 119 171 216 246 314 360
#     4  10  24  42  64  96 120 152 212 272 332 358
#     4  12  21  38  65  90 126 160 203 257 321 370
#
# _framework density 20.765858000000001
#
# number of rings (size 3 to 8) (size 9 to 14) (size 15 to 20)
#    0.400    0.533    4.000    6.000    1.867    0.000 
#    0.000    0.000    0.000    0.800    0.000    4.667 
#    0.000    0.000    0.000    0.000    0.000    0.000 
#
# Total GULP energy -167538.911641 kJ/mol
# GULP energy per Si atom -5584.630388 kJ/mol
# Density = 2.071859 g / cm^3
# Si number density = 20.765858 Si / 1000 Ang^3
#
#
#
# Elastic Constant Matrix: (Units=GPa)
#
#
# Indices 1 2 3 4 5 6 
#
# 1 97.4059 1.1509 10.7179 -0.0001 0.6514 -0.0001
# 2 1.1509 34.2430 -2.4287 -0.0006 -0.8606 -0.0004
# 3 10.7179 -2.4287 95.0422 -0.0003 8.9000 -0.0006
# 4 -0.0001 -0.0006 -0.0003 19.5100 -0.0004 -1.4745
# 5 0.6514 -0.8606 8.9000 -0.0004 30.6936 -0.0003
# 6 -0.0001 -0.0004 -0.0006 -1.4745 -0.0003 24.0665
#
#
#
# Elastic Compliance Matrix: (Units=1/GPa)
#
#
# Indices 1 2 3 4 5 6 
#
# 1 0.010402 -0.000431 -0.001195 0.000000 0.000114 0.000000
# 2 -0.000431 0.029285 0.000739 0.000001 0.000616 0.000001
# 3 -0.001195 0.000739 0.010969 0.000000 -0.003134 0.000000
# 4 0.000000 0.000001 0.000000 0.051494 0.000001 0.003155
# 5 0.000114 0.000616 -0.003134 0.000001 0.033504 0.000000
# 6 0.000000 0.000001 0.000000 0.003155 0.000000 0.041745
#
#
# Mechanical properties :
#
#
# Convention : Reuss Voigt Hill
#
# Bulk Modulus (GPa) = 20.45715 27.28570 23.87142
# Shear Modulus (GPa) = 25.57978 29.33744 27.45861
#
# Velocity S-wave (km/s) = 3.51354 3.76276 3.64028
# Velocity P-wave (km/s) = 5.13153 5.66093 5.40272
#
# Compressibility (1/GPa) = 0.04888267
#
# Stress axis : x y z
#
# Youngs Moduli (GPa) = 96.13426 34.14663 91.16785
#
# Poissons Ratio (x) = 0.01473 0.10892
# Poissons Ratio (y) = 0.04148 -0.06740
# Poissons Ratio (z) = 0.11485 -0.02525
#
# Static dielectric constant tensor:
#      x y z
#    x 1.794310 0.000000 0.024550 
#    y 0.000000 1.771360 0.000000 
#    z 0.024550 0.000000 1.831070 
# 
# From -- ./inp_files/200945.got.cif
#   From: 2010.05.17/outbox.cif.g08.bks.cpg/sg15_101_cif.got.tgz:200945.got - 2010.06.03 18:47:42.
