data_PCOD9294381
_publ_section_title
;
Structure prediction by ZEFSAII (Michael W. Deem and Ramdas Pophale) SiO2 
 PCOD9294381
Probable space group: C 2/C
;
_chemical_formula_sum "Si O2"
_cell_formula_units_Z 32
_cell_length_a 11.916780
_cell_length_b 25.480197
_cell_length_c 5.260875
_cell_angle_alpha 90.000000
_cell_angle_beta 72.818845
_cell_angle_gamma 90.000000
_cell_volume 1526.138042
_symmetry_space_group_name_H-M "C 2/C"
_symmetry_group_IT_number 15
_symmetry_cell_setting 'monoclinic'
loop_
_space_group_symop_operation_xyz
x,y,z
-x,y,1/2-z
-x,-y,-z
x,-y,1/2+z
1/2+x,1/2+y,z
1/2-x,1/2+y,1/2-z
1/2-x,1/2-y,-z
1/2+x,1/2-y,1/2+z
loop_
_atom_site_type_symbol
_atom_site_label
_atom_site_fract_x
_atom_site_fract_y
_atom_site_fract_z
Si Si1 0.575109 0.233801 0.943094
Si Si2 0.369494 0.351568 0.744116
Si Si3 0.270904 0.133077 0.648229
Si Si4 0.632390 0.977067 0.419259
O O1 0.500000 0.214305 0.750000
O O2 0.627525 0.288830 0.811794
O O3 0.668028 0.188802 0.942011
O O4 0.500000 0.243624 0.250000
O O5 0.500000 0.365971 0.750000
O O6 0.324977 0.375693 0.509203
O O7 0.284177 0.364445 0.034848
O O8 0.362833 0.085365 0.571354
O O9 0.500000 0.000000 0.500000
O O10 0.691314 0.002566 0.624265
#
# Coordination Sequence:
#
# PCOD9294381 Si02
#       4
#     8   8   8   8
#     4  11  23  37  62  97 138 166 215 263 319 395
#     4  11  23  42  61  93 129 174 226 263 298 383
#     4  12  23  39  69  90 130 180 208 260 341 373
#     4  10  23  40  63  92 131 155 207 268 326 390
#
# _framework density 20.967960000000001
#
# number of rings (size 3 to 8) (size 9 to 14) (size 15 to 20)
#    0.000    1.000    0.000    8.250    7.000    0.000 
#    0.000    0.000    0.000   15.000    0.000    0.000 
#    0.000    0.000    0.000    0.000    0.000    0.000 
#
# Total GULP energy -89388.483740 kJ/mol
# GULP energy per Si atom -5586.780234 kJ/mol
# Density = 2.092024 g / cm^3
# Si number density = 20.967960 Si / 1000 Ang^3
#
#
#
# Elastic Constant Matrix: (Units=GPa)
#
#
# Indices 1 2 3 4 5 6 
#
# 1 68.9062 19.8091 28.0343 0.0000 13.2032 0.0000
# 2 19.8091 52.0799 19.5066 0.0000 -10.8779 0.0000
# 3 28.0343 19.5066 137.2343 0.0000 37.6086 0.0000
# 4 0.0000 0.0000 0.0000 -16.4332 0.0000 -7.3981
# 5 13.2032 -10.8779 37.6086 0.0000 33.5638 0.0000
# 6 0.0000 0.0000 0.0000 -7.3981 0.0000 26.5691
#
#
#
# Elastic Compliance Matrix: (Units=1/GPa)
#
#
# Indices 1 2 3 4 5 6 
#
# 1 0.019350 -0.010022 0.000646 0.000000 -0.011584 0.000000
# 2 -0.010022 0.031513 -0.009108 0.000000 0.024361 0.000000
# 3 0.000646 -0.009108 0.013462 0.000000 -0.018290 0.000000
# 4 0.000000 0.000000 0.000000 -0.054074 0.000000 -0.015057
# 5 -0.011584 0.024361 -0.018290 0.000000 0.062740 0.000000
# 6 0.000000 0.000000 0.000000 -0.015057 0.000000 0.033445
#
#
# Mechanical properties :
#
#
# Convention : Reuss Voigt Hill
#
# Bulk Modulus (GPa) = 36.55284 43.65784 40.10534
# Shear Modulus (GPa) = 32.78196 21.46464 27.12330
#
# Velocity S-wave (km/s) = 3.95831 3.20298 3.60051
# Velocity P-wave (km/s) = 6.19367 5.87752 6.03766
#
# Compressibility (1/GPa) = 0.02735766
#
# Stress axis : x y z
#
# Youngs Moduli (GPa) = 51.67910 31.73309 74.28417
#
# Poissons Ratio (x) = 0.31801 -0.04800
# Poissons Ratio (y) = 0.51790 0.67659
# Poissons Ratio (z) = -0.03339 0.28903
#
# Static dielectric constant tensor:
#      x y z
#    x 1.786380 0.000000 0.019180 
#    y 0.000000 1.730370 0.000000 
#    z 0.019180 0.000000 1.765170 
# 
# From -- ./inp_files/3966.got.cif
#   From: 2010.05.17/outbox.cif.g08.bks.cpg/sg15_2_cif.got.tgz:3966.got - 2010.06.03 18:47:42.
