data_PCOD9294702
_publ_section_title
;
Structure prediction by ZEFSAII (Michael W. Deem and Ramdas Pophale) SiO2 
 PCOD9294702
Probable space group: C 2/C
;
_chemical_formula_sum "Si O2"
_cell_formula_units_Z 48
_cell_length_a 12.698380
_cell_length_b 22.782848
_cell_length_c 9.976209
_cell_angle_alpha 90.000000
_cell_angle_beta 127.420422
_cell_angle_gamma 90.000000
_cell_volume 2292.190483
_symmetry_space_group_name_H-M "C 2/C"
_symmetry_group_IT_number 15
_symmetry_cell_setting 'monoclinic'
loop_
_space_group_symop_operation_xyz
x,y,z
-x,y,1/2-z
-x,-y,-z
x,-y,1/2+z
1/2+x,1/2+y,z
1/2-x,1/2+y,1/2-z
1/2-x,1/2-y,-z
1/2+x,1/2-y,1/2+z
loop_
_atom_site_type_symbol
_atom_site_label
_atom_site_fract_x
_atom_site_fract_y
_atom_site_fract_z
Si Si1 0.733678 0.595236 0.742799
Si Si2 0.292130 0.371190 0.594418
Si Si3 0.495074 0.863886 0.390308
Si Si4 0.924815 0.792264 0.326943
Si Si5 0.355958 0.260821 0.788319
Si Si6 0.411953 0.486159 0.804535
O O1 0.713962 0.608079 0.566064
O O2 0.633676 0.641854 0.731898
O O3 0.709823 0.529059 0.766954
O O4 0.885165 0.608225 0.898230
O O5 0.146360 0.365403 0.547405
O O6 0.345504 0.305239 0.655166
O O7 0.372312 0.419586 0.740510
O O8 0.500000 0.895606 0.250000
O O9 0.427280 0.800618 0.311695
O O10 0.791945 0.755261 0.268101
O O11 0.000000 0.772281 0.250000
O O12 0.042256 0.789730 0.527327
O O13 0.500000 0.507184 0.750000
O O14 0.500000 0.500000 0.000000
#
# Coordination Sequence:
#
# PCOD9294702 Si02
#       6
#     8   8   8   8   8   8
#     4  10  23  41  64  94 129 170 214 272 323 389
#     4  11  23  41  66  96 130 165 222 269 323 390
#     4   9  21  38  63  97 128 165 213 263 332 387
#     4  11  23  39  61  89 132 170 211 263 332 388
#     4  11  22  38  66  94 127 168 214 269 322 392
#     4  12  24  42  67  96 129 169 223 270 329 384
#
# _framework density 20.940667999999999
#
# number of rings (size 3 to 8) (size 9 to 14) (size 15 to 20)
#    0.000    1.333    3.333    2.000    2.333    2.667 
#    0.000    0.000    0.000    0.000    0.000    0.000 
#    0.000    0.000    0.000    0.000    0.000    0.000 
#
# Total GULP energy -133771.706826 kJ/mol
# GULP energy per Si atom -5573.821118 kJ/mol
# Density = 2.089301 g / cm^3
# Si number density = 20.940668 Si / 1000 Ang^3
#
#
#
# Elastic Constant Matrix: (Units=GPa)
#
#
# Indices 1 2 3 4 5 6 
#
# 1 117.5569 33.3852 31.7104 0.0000 14.8798 0.0000
# 2 33.3852 87.0613 1.1190 0.0000 11.5858 0.0000
# 3 31.7104 1.1190 59.7844 0.0000 12.2229 0.0000
# 4 0.0000 0.0000 0.0000 19.6365 0.0000 1.5287
# 5 14.8798 11.5858 12.2229 0.0000 37.1707 0.0000
# 6 0.0000 0.0000 0.0000 1.5287 0.0000 19.1300
#
#
#
# Elastic Compliance Matrix: (Units=1/GPa)
#
#
# Indices 1 2 3 4 5 6 
#
# 1 0.011380 -0.004103 -0.005671 0.000000 -0.001412 0.000000
# 2 -0.004103 0.013481 0.002624 0.000000 -0.003422 0.000000
# 3 -0.005671 0.002624 0.020786 0.000000 -0.005383 0.000000
# 4 0.000000 0.000000 0.000000 0.051244 0.000000 -0.004095
# 5 -0.001412 -0.003422 -0.005383 0.000000 0.030305 0.000000
# 6 0.000000 0.000000 0.000000 -0.004095 0.000000 0.052601
#
#
# Mechanical properties :
#
#
# Convention : Reuss Voigt Hill
#
# Bulk Modulus (GPa) = 31.90082 44.09242 37.99662
# Shear Modulus (GPa) = 24.44425 28.39998 26.42212
#
# Velocity S-wave (km/s) = 3.42030 3.68667 3.55598
# Velocity P-wave (km/s) = 5.55562 6.26288 5.91982
#
# Compressibility (1/GPa) = 0.03134716
#
# Stress axis : x y z
#
# Youngs Moduli (GPa) = 87.87236 74.17697 48.10929
#
# Poissons Ratio (x) = 0.30436 0.27281
# Poissons Ratio (y) = 0.36055 -0.12622
# Poissons Ratio (z) = 0.49830 -0.19462
#
# Static dielectric constant tensor:
#      x y z
#    x 1.794740 0.000000 0.050590 
#    y 0.000000 1.819170 0.000000 
#    z 0.050590 0.000000 1.822810 
# 
# From -- ./inp_files/90977.got.cif
#   From: 2010.05.17/outbox.cif.g08.bks.cpg/sg15_46_cif.got.tgz:90977.got - 2010.06.03 18:47:42.
