data_PCOD9294759
_publ_section_title
;
Structure prediction by ZEFSAII (Michael W. Deem and Ramdas Pophale) SiO2 
 PCOD9294759
Probable space group: C 2/C
;
_chemical_formula_sum "Si O2"
_cell_formula_units_Z 52
_cell_length_a 18.115946
_cell_length_b 9.207750
_cell_length_c 18.514249
_cell_angle_alpha 90.000000
_cell_angle_beta 51.344934
_cell_angle_gamma 90.000000
_cell_volume 2411.723233
_symmetry_space_group_name_H-M "C 2/C"
_symmetry_group_IT_number 15
_symmetry_cell_setting 'monoclinic'
loop_
_space_group_symop_operation_xyz
x,y,z
-x,y,1/2-z
-x,-y,-z
x,-y,1/2+z
1/2+x,1/2+y,z
1/2-x,1/2+y,1/2-z
1/2-x,1/2-y,-z
1/2+x,1/2-y,1/2+z
loop_
_atom_site_type_symbol
_atom_site_label
_atom_site_fract_x
_atom_site_fract_y
_atom_site_fract_z
Si Si1 0.632415 0.866797 0.799688
Si Si2 0.525952 0.561781 0.405855
Si Si3 0.951833 0.358403 0.495464
Si Si4 0.000000 0.306499 0.750000
Si Si5 0.189474 0.440874 0.476936
Si Si6 0.371904 0.643199 0.936108
Si Si7 0.277782 0.431068 0.270694
O O1 0.597217 0.806710 0.899740
O O2 0.551169 0.880218 0.788267
O O3 0.705233 0.740088 0.734903
O O4 0.690463 0.014166 0.775635
O O5 0.500000 0.500000 0.500000
O O6 0.514268 0.734152 0.421785
O O7 0.443773 0.484665 0.410037
O O8 0.626568 0.508612 0.314761
O O9 0.882569 0.425940 0.477180
O O10 0.000000 0.500000 0.500000
O O11 0.084376 0.213146 0.663186
O O12 0.266478 0.418834 0.492163
O O13 0.136195 0.284052 0.506172
O O14 0.248412 0.474410 0.369119
#
# Coordination Sequence:
#
# PCOD9294759 Si02
#       7
#     8   8   8   4   8   8   8
#     4  11  24  41  69  95 135 170 226 274 331 401
#     4  12  23  39  64  96 126 176 224 266 334 399
#     4  11  24  42  64  93 135 171 223 277 334 396
#     4  12  20  42  66 106 128 174 224 270 326 400
#     4  10  23  41  65  98 131 173 215 278 338 386
#     4  11  22  40  72  95 134 173 223 280 330 403
#     4  11  24  41  65  98 129 176 217 273 328 403
#
# _framework density 21.561346
#
# number of rings (size 3 to 8) (size 9 to 14) (size 15 to 20)
#    0.000    0.923    4.615    1.846    6.462    0.615 
#    0.000    0.000    6.769    1.846    0.000    0.000 
#    0.000    0.000    0.000    0.000    0.000    0.000 
#
# Total GULP energy -145003.111910 kJ/mol
# GULP energy per Si atom -5577.042766 kJ/mol
# Density = 2.151227 g / cm^3
# Si number density = 21.561346 Si / 1000 Ang^3
#
#
#
# Elastic Constant Matrix: (Units=GPa)
#
#
# Indices 1 2 3 4 5 6 
#
# 1 119.9218 42.1418 1.2016 0.0000 2.9320 0.0000
# 2 42.1418 86.5899 29.2912 0.0000 -3.8705 0.0000
# 3 1.2016 29.2912 77.3096 0.0000 -9.0258 0.0000
# 4 0.0000 0.0000 0.0000 29.2267 0.0000 -8.0282
# 5 2.9320 -3.8705 -9.0258 0.0000 23.8565 0.0000
# 6 0.0000 0.0000 0.0000 -8.0282 0.0000 48.5296
#
#
#
# Elastic Compliance Matrix: (Units=1/GPa)
#
#
# Indices 1 2 3 4 5 6 
#
# 1 0.010373 -0.005737 0.001836 0.000000 -0.001511 0.000000
# 2 -0.005737 0.016421 -0.006004 0.000000 0.001098 0.000000
# 3 0.001836 -0.006004 0.015736 0.000000 0.004754 0.000000
# 4 0.000000 0.000000 0.000000 0.035844 0.000000 0.005930
# 5 -0.001511 0.001098 0.004754 0.000000 0.044080 0.000000
# 6 0.000000 0.000000 0.000000 0.005930 0.000000 0.021587
#
#
# Mechanical properties :
#
#
# Convention : Reuss Voigt Hill
#
# Bulk Modulus (GPa) = 44.01409 47.67670 45.84540
# Shear Modulus (GPa) = 29.16717 34.40169 31.78443
#
# Velocity S-wave (km/s) = 3.68197 3.99874 3.84362
# Velocity P-wave (km/s) = 6.20754 6.59394 6.40365
#
# Compressibility (1/GPa) = 0.02272000
#
# Stress axis : x y z
#
# Youngs Moduli (GPa) = 96.40010 60.89739 63.54699
#
# Poissons Ratio (x) = 0.34938 -0.11668
# Poissons Ratio (y) = 0.55307 0.38156
# Poissons Ratio (z) = -0.17700 0.36565
#
# Static dielectric constant tensor:
#      x y z
#    x 1.898340 0.000000 0.023870 
#    y 0.000000 1.929570 0.000000 
#    z 0.023870 0.000000 1.954560 
# 
# From -- ./inp_files/214241.got.cif
#   From: 2010.05.17/outbox.cif.g08.bks.cpg/sg15_108_cif.got.tgz:214241.got - 2010.06.03 18:47:42.
