data_PCOD9294799
_publ_section_title
;
Structure prediction by ZEFSAII (Michael W. Deem and Ramdas Pophale) SiO2 
 PCOD9294799
Probable space group: C 2/C
;
_chemical_formula_sum "Si O2"
_cell_formula_units_Z 52
_cell_length_a 15.135030
_cell_length_b 17.800088
_cell_length_c 11.327870
_cell_angle_alpha 90.000000
_cell_angle_beta 58.732537
_cell_angle_gamma 90.000000
_cell_volume 2608.523114
_symmetry_space_group_name_H-M "C 2/C"
_symmetry_group_IT_number 15
_symmetry_cell_setting 'monoclinic'
loop_
_space_group_symop_operation_xyz
x,y,z
-x,y,1/2-z
-x,-y,-z
x,-y,1/2+z
1/2+x,1/2+y,z
1/2-x,1/2+y,1/2-z
1/2-x,1/2-y,-z
1/2+x,1/2-y,1/2+z
loop_
_atom_site_type_symbol
_atom_site_label
_atom_site_fract_x
_atom_site_fract_y
_atom_site_fract_z
Si Si1 0.291925 0.703877 0.360030
Si Si2 0.861510 0.682459 0.248626
Si Si3 0.716404 0.616418 0.550463
Si Si4 0.000000 0.188783 0.750000
Si Si5 0.659128 0.149711 0.792755
Si Si6 0.047611 0.579829 0.478436
Si Si7 0.745643 0.938418 0.007078
O O1 0.250000 0.750000 0.500000
O O2 0.202140 0.693265 0.326511
O O3 0.357231 0.765804 0.245281
O O4 0.323551 0.622104 0.389376
O O5 0.783517 0.663505 0.408432
O O6 0.927256 0.609612 0.169703
O O7 0.936929 0.752748 0.212055
O O8 0.595225 0.640349 0.631727
O O9 0.769312 0.638895 0.639688
O O10 0.724496 0.526529 0.518232
O O11 0.713319 0.095869 0.656730
O O12 0.543165 0.127752 0.903017
O O13 0.144316 0.570730 0.497095
O O14 0.000000 0.500000 0.500000
#
# Coordination Sequence:
#
# PCOD9294799 Si02
#       7
#     8   8   8   4   8   8   8
#     4   9  21  42  67  89 133 175 215 274 340 395
#     4  11  24  40  66 100 129 171 224 277 337 399
#     4  12  25  43  69  96 135 178 220 287 335 401
#     4  12  26  42  66  98 134 176 232 270 342 408
#     4  11  21  40  65  96 135 173 221 278 340 401
#     4  11  21  37  66 103 131 169 219 278 347 399
#     4  10  23  41  66  95 136 175 218 282 344 396
#
# _framework density 19.934652
#
# number of rings (size 3 to 8) (size 9 to 14) (size 15 to 20)
#    0.000    1.231    3.077    2.769    4.308    0.000 
#    0.000    0.769   16.923    0.000    0.000    0.000 
#    0.000    0.000    0.000    0.000    0.000    0.000 
#
# Total GULP energy -144789.586325 kJ/mol
# GULP energy per Si atom -5568.830243 kJ/mol
# Density = 1.988928 g / cm^3
# Si number density = 19.934652 Si / 1000 Ang^3
#
#
#
# Elastic Constant Matrix: (Units=GPa)
#
#
# Indices 1 2 3 4 5 6 
#
# 1 59.7621 46.3096 61.8603 0.0000 -1.5644 0.0000
# 2 46.3096 95.5249 65.9723 0.0000 -13.3230 0.0000
# 3 61.8603 65.9723 105.2312 0.0000 1.9256 0.0000
# 4 0.0000 0.0000 0.0000 77.4445 0.0000 23.0710
# 5 -1.5644 -13.3230 1.9256 0.0000 40.6025 0.0000
# 6 0.0000 0.0000 0.0000 23.0710 0.0000 58.1178
#
#
#
# Elastic Compliance Matrix: (Units=1/GPa)
#
#
# Indices 1 2 3 4 5 6 
#
# 1 0.044765 -0.006000 -0.022569 0.000000 0.000827 0.000000
# 2 -0.006000 0.021229 -0.009914 0.000000 0.007205 0.000000
# 3 -0.022569 -0.009914 0.029086 0.000000 -0.005502 0.000000
# 4 0.000000 0.000000 0.000000 0.014644 0.000000 -0.005813
# 5 0.000827 0.007205 -0.005502 0.000000 0.027286 0.000000
# 6 0.000000 0.000000 0.000000 -0.005813 0.000000 0.019514
#
#
# Mechanical properties :
#
#
# Convention : Reuss Voigt Hill
#
# Bulk Modulus (GPa) = 55.20305 67.64472 61.42388
# Shear Modulus (GPa) = 20.87443 40.99134 30.93288
#
# Velocity S-wave (km/s) = 3.23947 4.53955 3.94345
# Velocity P-wave (km/s) = 6.46099 7.84115 7.18428
#
# Compressibility (1/GPa) = 0.01811494
#
# Stress axis : x y z
#
# Youngs Moduli (GPa) = 22.33879 47.10617 34.38079
#
# Poissons Ratio (x) = 0.28262 0.77594
# Poissons Ratio (y) = 0.13402 0.34084
# Poissons Ratio (z) = 0.50417 0.46700
#
# Static dielectric constant tensor:
#      x y z
#    x 1.297470 0.000000 0.192360 
#    y 0.000000 1.883910 0.000000 
#    z 0.192360 0.000000 1.623800 
# 
# From -- ./inp_files/98184.got.cif
#   From: 2010.05.17/outbox.cif.g08.bks.cpg/sg15_50_cif.got.tgz:98184.got - 2010.06.03 18:47:42.
