data_PCOD9294959
_publ_section_title
;
Structure prediction by ZEFSAII (Michael W. Deem and Ramdas Pophale) SiO2 
 PCOD9294959
Probable space group: C 2/C
;
_chemical_formula_sum "Si O2"
_cell_formula_units_Z 44
_cell_length_a 16.731971
_cell_length_b 14.041684
_cell_length_c 9.306228
_cell_angle_alpha 90.000000
_cell_angle_beta 61.225298
_cell_angle_gamma 90.000000
_cell_volume 1916.467561
_symmetry_space_group_name_H-M "C 2/C"
_symmetry_group_IT_number 15
_symmetry_cell_setting 'monoclinic'
loop_
_space_group_symop_operation_xyz
x,y,z
-x,y,1/2-z
-x,-y,-z
x,-y,1/2+z
1/2+x,1/2+y,z
1/2-x,1/2+y,1/2-z
1/2-x,1/2-y,-z
1/2+x,1/2-y,1/2+z
loop_
_atom_site_type_symbol
_atom_site_label
_atom_site_fract_x
_atom_site_fract_y
_atom_site_fract_z
Si Si1 0.314412 0.458522 0.396395
Si Si2 0.500000 0.343510 0.250000
Si Si3 0.499847 0.747906 0.052057
Si Si4 0.199536 0.473733 0.235824
Si Si5 0.425942 0.946461 0.406518
Si Si6 0.839916 0.185819 0.385463
O O1 0.411269 0.410495 0.333761
O O2 0.270830 0.424126 0.282508
O O3 0.251664 0.446360 0.593856
O O4 0.320493 0.573750 0.378478
O O5 0.503657 0.276727 0.384210
O O6 0.400157 0.721274 0.198290
O O7 0.582819 0.691525 0.057108
O O8 0.523729 0.855208 0.074175
O O9 0.146837 0.420121 0.154127
O O10 0.125666 0.507678 0.416190
O O11 0.500000 0.005804 0.250000
O O12 0.750000 0.250000 0.500000
#
# Coordination Sequence:
#
# PCOD9294959 Si02
#       6
#     8   4   8   8   8   8
#     4  11  23  42  70 102 139 182 230 283 331 412
#     4  12  26  46  60 100 146 184 240 284 336 394
#     4  11  25  44  69  99 137 188 230 287 347 416
#     4  10  23  41  71 104 130 171 226 284 351 425
#     4  11  22  47  69 100 133 172 223 285 362 415
#     4  11  22  43  74 101 136 182 232 277 349 417
#
# _framework density 22.958905000000001
#
# number of rings (size 3 to 8) (size 9 to 14) (size 15 to 20)
#    0.000    1.091    1.818    6.000    0.000    2.182 
#    8.182    1.818    0.000    0.000    0.000    0.000 
#    0.000    0.000    0.000    0.000    0.000    0.000 
#
# Total GULP energy -122805.523931 kJ/mol
# GULP energy per Si atom -5582.069270 kJ/mol
# Density = 2.290665 g / cm^3
# Si number density = 22.958905 Si / 1000 Ang^3
#
#
#
# Elastic Constant Matrix: (Units=GPa)
#
#
# Indices 1 2 3 4 5 6 
#
# 1 127.0710 33.0260 75.0145 0.0000 -0.9051 0.0000
# 2 33.0260 70.9987 45.8764 0.0000 -8.1855 0.0000
# 3 75.0145 45.8764 215.8765 0.0000 -3.4014 0.0000
# 4 0.0000 0.0000 0.0000 26.9444 0.0000 -12.6779
# 5 -0.9051 -8.1855 -3.4014 0.0000 55.6655 0.0000
# 6 0.0000 0.0000 0.0000 -12.6779 0.0000 16.0087
#
#
#
# Elastic Compliance Matrix: (Units=1/GPa)
#
#
# Indices 1 2 3 4 5 6 
#
# 1 0.010402 -0.002956 -0.002993 0.000000 -0.000448 0.000000
# 2 -0.002956 0.017438 -0.002642 0.000000 0.002355 0.000000
# 3 -0.002993 -0.002642 0.006233 0.000000 -0.000056 0.000000
# 4 0.000000 0.000000 0.000000 0.059157 0.000000 0.046848
# 5 -0.000448 0.002355 -0.000056 0.000000 0.018300 0.000000
# 6 0.000000 0.000000 0.000000 0.046848 0.000000 0.099567
#
#
# Mechanical properties :
#
#
# Convention : Reuss Voigt Hill
#
# Bulk Modulus (GPa) = 59.20326 80.19778 69.70052
# Shear Modulus (GPa) = 21.37587 37.05901 29.21744
#
# Velocity S-wave (km/s) = 3.05462 4.02200 3.57122
# Velocity P-wave (km/s) = 6.18737 7.52167 6.88691
#
# Compressibility (1/GPa) = 0.01689096
#
# Stress axis : x y z
#
# Youngs Moduli (GPa) = 96.13730 57.34559 160.43879
#
# Poissons Ratio (x) = 0.16952 0.48025
# Poissons Ratio (y) = 0.28419 0.42380
# Poissons Ratio (z) = 0.28777 0.15148
#
# Static dielectric constant tensor:
#      x y z
#    x 1.919670 0.000000 -0.043150 
#    y 0.000000 1.903670 0.000000 
#    z -0.043150 0.000000 1.860880 
# 
# From -- ./inp_files/47380.got.cif
#   From: 2010.05.17/outbox.cif.g08.bks.cpg/sg15_24_cif.got.tgz:47380.got - 2010.06.03 18:47:42.
