data_PCOD9294848
_publ_section_title
;
Structure prediction by ZEFSAII (Michael W. Deem and Ramdas Pophale) SiO2 
 PCOD9294848
Probable space group: C 2/C
;
_chemical_formula_sum "Si O2"
_cell_formula_units_Z 52
_cell_length_a 21.964657
_cell_length_b 7.905474
_cell_length_c 13.084276
_cell_angle_alpha 90.000000
_cell_angle_beta 105.907889
_cell_angle_gamma 90.000000
_cell_volume 2184.958886
_symmetry_space_group_name_H-M "C 2/C"
_symmetry_group_IT_number 15
_symmetry_cell_setting 'monoclinic'
loop_
_space_group_symop_operation_xyz
x,y,z
-x,y,1/2-z
-x,-y,-z
x,-y,1/2+z
1/2+x,1/2+y,z
1/2-x,1/2+y,1/2-z
1/2-x,1/2-y,-z
1/2+x,1/2-y,1/2+z
loop_
_atom_site_type_symbol
_atom_site_label
_atom_site_fract_x
_atom_site_fract_y
_atom_site_fract_z
Si Si1 0.136005 0.086597 0.304009
Si Si2 0.356011 0.617998 0.434865
Si Si3 0.000000 0.139244 0.250000
Si Si4 0.458329 0.861655 0.420431
Si Si5 0.765229 0.808367 0.147360
Si Si6 0.676989 0.749377 0.498655
Si Si7 0.332163 0.030060 0.303414
O O1 0.147736 0.104144 0.190009
O O2 0.063870 0.030785 0.284057
O O3 0.142606 0.258136 0.373083
O O4 0.188738 0.956827 0.367785
O O5 0.419667 0.730348 0.477197
O O6 0.293600 0.723895 0.439683
O O7 0.351725 0.425571 0.469534
O O8 0.005516 0.252255 0.149242
O O9 0.500000 0.000000 0.500000
O O10 0.402158 0.956750 0.333289
O O11 0.812040 0.666336 0.211336
O O12 0.725227 0.895618 0.221449
O O13 0.750000 0.750000 0.500000
O O14 0.669661 0.886578 0.583424
#
# Coordination Sequence:
#
# PCOD9294848 Si02
#       7
#     8   8   4   8   8   8   8
#     4  11  22  40  65  90 129 172 216 262 328 395
#     4  10  23  41  67  96 138 168 216 280 336 394
#     4  10  24  46  64  90 128 182 218 260 328 396
#     4  10  23  47  66  94 133 181 226 279 329 399
#     4  11  19  39  63  98 129 172 205 277 339 385
#     4  12  22  40  66 102 131 173 213 271 346 403
#     4  11  21  38  67  97 135 167 220 277 343 389
#
# _framework density 23.799077
#
# number of rings (size 3 to 8) (size 9 to 14) (size 15 to 20)
#    0.000    1.231    4.615    0.923    0.000    1.846 
#    5.538    2.308    0.000    0.000    0.000    0.000 
#    0.000    0.000    0.000    0.000    0.000    0.000 
#
# Total GULP energy -145143.889130 kJ/mol
# GULP energy per Si atom -5582.457274 kJ/mol
# Density = 2.374491 g / cm^3
# Si number density = 23.799077 Si / 1000 Ang^3
#
#
#
# Elastic Constant Matrix: (Units=GPa)
#
#
# Indices 1 2 3 4 5 6 
#
# 1 161.3999 40.6182 23.3270 0.0000 6.1662 0.0000
# 2 40.6182 92.8729 14.0478 0.0000 3.8139 0.0000
# 3 23.3270 14.0478 62.3409 0.0000 -1.1176 0.0000
# 4 0.0000 0.0000 0.0000 46.5451 0.0000 12.6342
# 5 6.1662 3.8139 -1.1176 0.0000 34.9691 0.0000
# 6 0.0000 0.0000 0.0000 12.6342 0.0000 34.2191
#
#
#
# Elastic Compliance Matrix: (Units=1/GPa)
#
#
# Indices 1 2 3 4 5 6 
#
# 1 0.007245 -0.002809 -0.002097 0.000000 -0.001038 0.000000
# 2 -0.002809 0.012295 -0.001736 0.000000 -0.000901 0.000000
# 3 -0.002097 -0.001736 0.017236 0.000000 0.001110 0.000000
# 4 0.000000 0.000000 0.000000 0.023878 0.000000 -0.008816
# 5 -0.001038 -0.000901 0.001110 0.000000 0.028913 0.000000
# 6 0.000000 0.000000 0.000000 -0.008816 0.000000 0.032478
#
#
# Mechanical properties :
#
#
# Convention : Reuss Voigt Hill
#
# Bulk Modulus (GPa) = 42.56341 52.51107 47.53724
# Shear Modulus (GPa) = 34.92566 39.05471 36.99019
#
# Velocity S-wave (km/s) = 3.83498 4.05534 3.94670
# Velocity P-wave (km/s) = 6.12640 6.63626 6.38642
#
# Compressibility (1/GPa) = 0.02349436
#
# Stress axis : x y z
#
# Youngs Moduli (GPa) = 138.01823 81.33074 58.01667
#
# Poissons Ratio (x) = 0.22846 0.12165
# Poissons Ratio (y) = 0.38769 0.10070
# Poissons Ratio (z) = 0.28939 0.14117
#
# Static dielectric constant tensor:
#      x y z
#    x 1.917530 0.000000 -0.006910 
#    y 0.000000 1.982960 0.000000 
#    z -0.006910 0.000000 1.987290 
# 
# From -- ./inp_files/166323.got.cif
#   From: 2010.05.17/outbox.cif.g08.bks.cpg/sg15_84_cif.got.tgz:166323.got - 2010.06.03 18:47:42.
