data_PCOD9294281
_publ_section_title
;
Structure prediction by ZEFSAII (Michael W. Deem and Ramdas Pophale) SiO2 
 PCOD9294281
Probable space group: C 2/C
;
_chemical_formula_sum "Si O2"
_cell_formula_units_Z 32
_cell_length_a 19.034134
_cell_length_b 12.988645
_cell_length_c 10.336005
_cell_angle_alpha 90.000000
_cell_angle_beta 135.381131
_cell_angle_gamma 90.000000
_cell_volume 1794.842963
_symmetry_space_group_name_H-M "C 2/C"
_symmetry_group_IT_number 15
_symmetry_cell_setting 'monoclinic'
loop_
_space_group_symop_operation_xyz
x,y,z
-x,y,1/2-z
-x,-y,-z
x,-y,1/2+z
1/2+x,1/2+y,z
1/2-x,1/2+y,1/2-z
1/2-x,1/2-y,-z
1/2+x,1/2-y,1/2+z
loop_
_atom_site_type_symbol
_atom_site_label
_atom_site_fract_x
_atom_site_fract_y
_atom_site_fract_z
Si Si1 0.936254 0.541383 0.036573
Si Si2 0.225884 0.396095 0.565759
Si Si3 0.132290 0.274733 0.205409
Si Si4 0.551852 0.566656 0.180576
O O1 0.000000 0.538579 0.250000
O O2 0.841165 0.468528 0.935274
O O3 0.903022 0.656267 0.957832
O O4 0.000000 0.500000 0.000000
O O5 0.163458 0.350919 0.363170
O O6 0.270265 0.295182 0.695288
O O7 0.328115 0.452832 0.654662
O O8 0.051730 0.189216 0.145474
O O9 0.500000 0.548772 0.250000
O O10 0.500000 0.500000 0.000000
#
# Coordination Sequence:
#
# PCOD9294281 Si02
#       4
#     8   8   8   8
#     4  12  24  40  65  97 129 168 216 263 320 384
#     4   9  22  40  62  91 126 167 211 253 320 381
#     4   9  22  42  64  90 129 169 212 254 329 370
#     4  10  23  39  69  92 125 163 211 260 321 374
#
# _framework density 17.828856999999999
#
# number of rings (size 3 to 8) (size 9 to 14) (size 15 to 20)
#    1.500    0.500    2.500    0.000    7.000    1.000 
#    0.000    1.250    0.000    0.000    0.000    0.000 
#    0.000    0.000    0.000    0.000    0.000    0.000 
#
# Total GULP energy -89068.476190 kJ/mol
# GULP energy per Si atom -5566.779762 kJ/mol
# Density = 1.778828 g / cm^3
# Si number density = 17.828857 Si / 1000 Ang^3
#
#
#
# Elastic Constant Matrix: (Units=GPa)
#
#
# Indices 1 2 3 4 5 6 
#
# 1 152.3050 66.1717 60.1634 0.0000 -3.6002 0.0000
# 2 66.1717 77.9387 57.2094 0.0000 -4.6134 0.0000
# 3 60.1634 57.2094 98.2790 0.0000 -11.6328 0.0000
# 4 0.0000 0.0000 0.0000 51.1639 0.0000 2.2974
# 5 -3.6002 -4.6134 -11.6328 0.0000 21.6732 0.0000
# 6 0.0000 0.0000 0.0000 2.2974 0.0000 37.4481
#
#
#
# Elastic Compliance Matrix: (Units=1/GPa)
#
#
# Indices 1 2 3 4 5 6 
#
# 1 0.010691 -0.007409 -0.002358 0.000000 -0.001067 0.000000
# 2 -0.007409 0.027654 -0.011758 0.000000 -0.001655 0.000000
# 3 -0.002358 -0.011758 0.019350 0.000000 0.007491 0.000000
# 4 0.000000 0.000000 0.000000 0.019599 0.000000 -0.001202
# 5 -0.001067 -0.001655 0.007491 0.000000 0.049631 0.000000
# 6 0.000000 0.000000 0.000000 -0.001202 0.000000 0.026777
#
#
# Mechanical properties :
#
#
# Convention : Reuss Voigt Hill
#
# Bulk Modulus (GPa) = 68.28544 77.29020 72.78782
# Shear Modulus (GPa) = 24.79739 31.72225 28.25982
#
# Velocity S-wave (km/s) = 3.73347 4.22271 3.98560
# Velocity P-wave (km/s) = 7.54776 8.19880 7.88001
#
# Compressibility (1/GPa) = 0.01464441
#
# Stress axis : x y z
#
# Youngs Moduli (GPa) = 93.53566 36.16131 51.68040
#
# Poissons Ratio (x) = 0.26793 0.12186
# Poissons Ratio (y) = 0.69303 0.60765
# Poissons Ratio (z) = 0.22056 0.42518
#
# Static dielectric constant tensor:
#      x y z
#    x 1.604020 0.000000 0.046170 
#    y 0.000000 1.627540 0.000000 
#    z 0.046170 0.000000 1.647210 
# 
# From -- ./inp_files/110386.got.cif
#   From: 2010.05.17/outbox.cif.g08.bks.cpg/sg15_56_cif.got.tgz:110386.got - 2010.06.03 18:47:42.
