data_PCOD9294988
_publ_section_title
;
Structure prediction by ZEFSAII (Michael W. Deem and Ramdas Pophale) SiO2 
 PCOD9294988
Probable space group: C 2/C
;
_chemical_formula_sum "Si O2"
_cell_formula_units_Z 44
_cell_length_a 14.178286
_cell_length_b 9.318218
_cell_length_c 23.449237
_cell_angle_alpha 90.000000
_cell_angle_beta 140.564107
_cell_angle_gamma 90.000000
_cell_volume 1967.912103
_symmetry_space_group_name_H-M "C 2/C"
_symmetry_group_IT_number 15
_symmetry_cell_setting 'monoclinic'
loop_
_space_group_symop_operation_xyz
x,y,z
-x,y,1/2-z
-x,-y,-z
x,-y,1/2+z
1/2+x,1/2+y,z
1/2-x,1/2+y,1/2-z
1/2-x,1/2-y,-z
1/2+x,1/2-y,1/2+z
loop_
_atom_site_type_symbol
_atom_site_label
_atom_site_fract_x
_atom_site_fract_y
_atom_site_fract_z
Si Si1 0.406940 0.299503 0.293831
Si Si2 0.767485 0.195803 0.072842
Si Si3 0.031644 0.833462 0.526988
Si Si4 0.714058 0.641493 0.892131
Si Si5 0.243266 0.536651 0.289346
Si Si6 0.500000 0.872354 0.250000
O O1 0.348677 0.337342 0.202164
O O2 0.583042 0.305981 0.371778
O O3 0.328214 0.413067 0.297091
O O4 0.361905 0.142264 0.294658
O O5 0.917168 0.268925 0.166674
O O6 0.765761 0.025307 0.082698
O O7 0.750000 0.250000 0.000000
O O8 0.623934 0.256954 0.038310
O O9 0.139742 0.740828 0.537176
O O10 0.129669 0.854164 0.629627
O O11 0.000000 0.000000 0.500000
O O12 0.130921 0.470823 0.284181
#
# Coordination Sequence:
#
# PCOD9294988 Si02
#       6
#     8   8   8   8   8   4
#     4  10  23  41  73 101 142 186 245 291 362 430
#     4  12  27  45  74 107 146 191 244 297 363 436
#     4  11  23  45  67  97 146 188 234 299 360 421
#     4  10  23  45  68 101 146 186 235 302 354 425
#     4  11  24  43  70 104 139 192 241 296 363 437
#     4  12  26  46  74 100 150 190 236 300 364 426
#
# _framework density 22.358722
#
# number of rings (size 3 to 8) (size 9 to 14) (size 15 to 20)
#    0.000    1.091    1.818    4.909   10.182    0.000 
#    3.273    1.818    0.000    0.000    0.000    0.000 
#    0.000    0.000    0.000    0.000    0.000    0.000 
#
# Total GULP energy -122870.269103 kJ/mol
# GULP energy per Si atom -5585.012232 kJ/mol
# Density = 2.230783 g / cm^3
# Si number density = 22.358722 Si / 1000 Ang^3
#
#
#
# Elastic Constant Matrix: (Units=GPa)
#
#
# Indices 1 2 3 4 5 6 
#
# 1 54.4372 -25.8044 8.3519 0.0000 11.7968 0.0000
# 2 -25.8044 58.6451 -5.1319 0.0000 2.3298 0.0000
# 3 8.3519 -5.1319 80.7756 0.0000 8.1221 0.0000
# 4 0.0000 0.0000 0.0000 39.8995 0.0000 8.7103
# 5 11.7968 2.3298 8.1221 0.0000 34.6914 0.0000
# 6 0.0000 0.0000 0.0000 8.7103 0.0000 34.8073
#
#
#
# Elastic Compliance Matrix: (Units=1/GPa)
#
#
# Indices 1 2 3 4 5 6 
#
# 1 0.026167 0.011801 -0.001005 0.000000 -0.009455 0.000000
# 2 0.011801 0.022540 0.000786 0.000000 -0.005711 0.000000
# 3 -0.001005 0.000786 0.012806 0.000000 -0.002709 0.000000
# 4 0.000000 0.000000 0.000000 0.026511 0.000000 -0.006634
# 5 -0.009455 -0.005711 -0.002709 0.000000 0.033059 0.000000
# 6 0.000000 0.000000 0.000000 -0.006634 0.000000 0.030390
#
#
# Mechanical properties :
#
#
# Convention : Reuss Voigt Hill
#
# Bulk Modulus (GPa) = 11.80937 16.52101 14.16519
# Shear Modulus (GPa) = 31.94183 36.30913 34.12548
#
# Velocity S-wave (km/s) = 3.78379 4.03418 3.91099
# Velocity P-wave (km/s) = 4.93788 5.39487 5.17143
#
# Compressibility (1/GPa) = 0.08467851
#
# Stress axis : x y z
#
# Youngs Moduli (GPa) = 38.21585 44.36530 78.08688
#
# Poissons Ratio (x) = -0.52358 0.07848
# Poissons Ratio (y) = -0.45100 -0.06138
# Poissons Ratio (z) = 0.03841 -0.03487
#
# Static dielectric constant tensor:
#      x y z
#    x 3.460980 0.000000 4.467780 
#    y 0.000000 1.842300 0.000000 
#    z 4.467780 0.000000 14.287260 
# 
# From -- ./inp_files/202806.got.cif
#   From: 2010.05.17/outbox.cif.g08.bks.cpg/sg15_102_cif.got.tgz:202806.got - 2010.06.03 18:47:42.
