data_PCOD9294707
_publ_section_title
;
Structure prediction by ZEFSAII (Michael W. Deem and Ramdas Pophale) SiO2 
 PCOD9294707
Probable space group: C 2/C
;
_chemical_formula_sum "Si O2"
_cell_formula_units_Z 64
_cell_length_a 16.606888
_cell_length_b 23.019979
_cell_length_c 8.873025
_cell_angle_alpha 90.000000
_cell_angle_beta 82.154872
_cell_angle_gamma 90.000000
_cell_volume 3360.323005
_symmetry_space_group_name_H-M "C 2/C"
_symmetry_group_IT_number 15
_symmetry_cell_setting 'monoclinic'
loop_
_space_group_symop_operation_xyz
x,y,z
-x,y,1/2-z
-x,-y,-z
x,-y,1/2+z
1/2+x,1/2+y,z
1/2-x,1/2+y,1/2-z
1/2-x,1/2-y,-z
1/2+x,1/2-y,1/2+z
loop_
_atom_site_type_symbol
_atom_site_label
_atom_site_fract_x
_atom_site_fract_y
_atom_site_fract_z
Si Si1 0.778856 0.576148 0.373802
Si Si2 0.943861 0.637599 0.402063
Si Si3 0.461932 0.946445 0.422374
Si Si4 0.432900 0.745939 0.049477
Si Si5 0.239828 0.163783 0.894953
Si Si6 0.707266 0.311698 0.052012
Si Si7 0.882048 0.250909 0.407454
Si Si8 0.227718 0.544431 0.475562
O O1 0.874914 0.591656 0.370429
O O2 0.735506 0.635402 0.437722
O O3 0.765094 0.558161 0.203839
O O4 0.751475 0.521589 0.483620
O O5 0.904126 0.691982 0.493340
O O6 0.000000 0.656693 0.250000
O O7 0.005283 0.609802 0.503585
O O8 0.500000 0.947133 0.250000
O O9 0.366212 0.950505 0.451789
O O10 0.500000 0.000000 0.500000
O O11 0.401042 0.737648 0.227612
O O12 0.530734 0.749947 0.032068
O O13 0.388612 0.699315 0.955204
O O14 0.226790 0.173249 0.720260
O O15 0.328845 0.189579 0.919413
O O16 0.175476 0.203018 0.002022
O O17 0.230332 0.096807 0.944302
O O18 0.750000 0.250000 0.000000
#
# Coordination Sequence:
#
# PCOD9294707 Si02
#       8
#     8   8   8   8   8   8   8   8
#     4  12  25  41  62  90 127 172 220 266 328 384
#     4  12  24  37  56  91 125 172 217 258 320 384
#     4  12  24  36  56  82 123 166 214 261 307 379
#     4  11  24  40  64  91 131 169 216 270 329 382
#     4  11  24  41  66  95 131 168 221 268 331 385
#     4  12  24  41  64  93 132 170 216 275 322 389
#     4  10  23  41  64  95 128 170 218 271 326 391
#     4  12  25  41  63  87 128 173 217 268 326 394
#
# _framework density 19.045788999999999
#
# number of rings (size 3 to 8) (size 9 to 14) (size 15 to 20)
#    0.000    0.500    5.000    3.375    8.750    0.000 
#    0.000    0.000    0.000    0.750    0.000    0.000 
#    0.000    0.000    0.000    0.000    0.000    0.000 
#
# Total GULP energy -178811.810760 kJ/mol
# GULP energy per Si atom -5587.869086 kJ/mol
# Density = 1.900244 g / cm^3
# Si number density = 19.045789 Si / 1000 Ang^3
#
#
#
# Elastic Constant Matrix: (Units=GPa)
#
#
# Indices 1 2 3 4 5 6 
#
# 1 79.2609 28.9009 26.7858 0.0000 7.8019 0.0000
# 2 28.9009 118.8574 51.1628 0.0000 4.0060 0.0000
# 3 26.7858 51.1628 136.6308 0.0000 -0.1476 0.0000
# 4 0.0000 0.0000 0.0000 30.3259 0.0000 -1.3460
# 5 7.8019 4.0060 -0.1476 0.0000 26.7963 0.0000
# 6 0.0000 0.0000 0.0000 -1.3460 0.0000 27.4611
#
#
#
# Elastic Compliance Matrix: (Units=1/GPa)
#
#
# Indices 1 2 3 4 5 6 
#
# 1 0.014585 -0.002603 -0.001889 0.000000 -0.003868 0.000000
# 2 -0.002603 0.010557 -0.003444 0.000000 -0.000839 0.000000
# 3 -0.001889 -0.003444 0.008980 0.000000 0.001114 0.000000
# 4 0.000000 0.000000 0.000000 0.033047 0.000000 0.001620
# 5 -0.003868 -0.000839 0.001114 0.000000 0.038576 0.000000
# 6 0.000000 0.000000 0.000000 0.001620 0.000000 0.036495
#
#
# Mechanical properties :
#
#
# Convention : Reuss Voigt Hill
#
# Bulk Modulus (GPa) = 54.79223 60.93868 57.86546
# Shear Modulus (GPa) = 30.45174 32.10996 31.28085
#
# Velocity S-wave (km/s) = 4.00293 4.11047 4.05705
# Velocity P-wave (km/s) = 7.08489 7.38873 7.23840
#
# Compressibility (1/GPa) = 0.01825076
#
# Stress axis : x y z
#
# Youngs Moduli (GPa) = 68.56511 94.72320 111.35813
#
# Poissons Ratio (x) = 0.24656 0.21032
# Poissons Ratio (y) = 0.17847 0.38350
# Poissons Ratio (z) = 0.12950 0.32621
#
# Static dielectric constant tensor:
#      x y z
#    x 1.532400 0.000000 0.132720 
#    y 0.000000 1.683480 0.000000 
#    z 0.132720 0.000000 1.573420 
# 
# From -- ./inp_files/50236.got.cif
#   From: 2010.05.17/outbox.cif.g08.bks.cpg/sg15_26_cif.got.tgz:50236.got - 2010.06.03 18:47:42.
