data_PCOD9294971
_publ_section_title
;
Structure prediction by ZEFSAII (Michael W. Deem and Ramdas Pophale) SiO2 
 PCOD9294971
Probable space group: C 2/C
;
_chemical_formula_sum "Si O2"
_cell_formula_units_Z 56
_cell_length_a 12.710669
_cell_length_b 17.345588
_cell_length_c 19.120395
_cell_angle_alpha 90.000000
_cell_angle_beta 31.728486
_cell_angle_gamma 90.000000
_cell_volume 2216.935190
_symmetry_space_group_name_H-M "C 2/C"
_symmetry_group_IT_number 15
_symmetry_cell_setting 'monoclinic'
loop_
_space_group_symop_operation_xyz
x,y,z
-x,y,1/2-z
-x,-y,-z
x,-y,1/2+z
1/2+x,1/2+y,z
1/2-x,1/2+y,1/2-z
1/2-x,1/2-y,-z
1/2+x,1/2-y,1/2+z
loop_
_atom_site_type_symbol
_atom_site_label
_atom_site_fract_x
_atom_site_fract_y
_atom_site_fract_z
Si Si1 0.568323 0.910863 0.640517
Si Si2 0.417202 0.205978 0.862555
Si Si3 0.691660 0.678800 0.767341
Si Si4 0.073405 0.695616 0.006774
Si Si5 0.209812 0.059470 0.980974
Si Si6 0.284103 0.501513 0.237047
Si Si7 0.760367 0.091518 0.378917
O O1 0.500000 0.868103 0.750000
O O2 0.633449 0.858785 0.538523
O O3 0.728245 0.974155 0.574157
O O4 0.390044 0.965246 0.712237
O O5 0.500000 0.251803 0.750000
O O6 0.603235 0.195902 0.807792
O O7 0.308396 0.131919 0.887915
O O8 0.250000 0.250000 0.000000
O O9 0.516173 0.728268 0.904056
O O10 0.659718 0.587689 0.797777
O O11 0.753778 0.698854 0.650958
O O12 0.880845 0.655401 0.077053
O O13 0.027802 0.942523 0.884672
O O14 0.297116 0.075461 0.009134
O O15 0.227266 0.516863 0.349580
O O16 0.000000 0.098674 0.250000
#
# Coordination Sequence:
#
# PCOD9294971 Si02
#       7
#     8   8   8   8   8   8   8
#     4  11  24  46  67 100 139 188 242 309 357 425
#     4  12  27  42  67 108 155 189 234 294 370 439
#     4  12  25  46  68 108 145 194 234 299 355 441
#     4  11  25  44  72  97 148 186 244 289 367 425
#     4  11  22  42  72 104 140 188 238 298 363 430
#     4  10  23  41  72 101 143 184 248 287 367 430
#     4   9  19  39  66 101 132 180 226 291 351 433
#
# _framework density 25.260097999999999
#
# number of rings (size 3 to 8) (size 9 to 14) (size 15 to 20)
#    0.000    1.143    2.857    2.143    6.000    4.000 
#    0.000    5.000    0.000    0.000    0.000    0.000 
#    0.000    0.000    0.000    0.000    0.000    0.000 
#
# Total GULP energy -156546.499133 kJ/mol
# GULP energy per Si atom -5590.946398 kJ/mol
# Density = 2.520260 g / cm^3
# Si number density = 25.260098 Si / 1000 Ang^3
#
#
#
# Elastic Constant Matrix: (Units=GPa)
#
#
# Indices 1 2 3 4 5 6 
#
# 1 47.4061 5.4897 37.4623 0.0066 6.8247 -0.0010
# 2 5.4897 99.0277 17.4509 0.0049 7.7632 -0.0033
# 3 37.4623 17.4509 120.3207 0.0041 26.0490 -0.0073
# 4 0.0066 0.0049 0.0041 38.8891 -0.0080 -5.2219
# 5 6.8247 7.7632 26.0490 -0.0080 47.6888 0.0053
# 6 -0.0010 -0.0033 -0.0073 -5.2219 0.0053 22.1200
#
#
#
# Elastic Compliance Matrix: (Units=1/GPa)
#
#
# Indices 1 2 3 4 5 6 
#
# 1 0.028009 -0.000052 -0.008900 -0.000004 0.000861 -0.000003
# 2 -0.000052 0.010404 -0.001279 -0.000001 -0.000988 0.000001
# 3 -0.008900 -0.001279 0.012415 0.000000 -0.005300 0.000005
# 4 -0.000004 -0.000001 0.000000 0.026556 0.000005 0.006269
# 5 0.000861 -0.000988 -0.005300 0.000005 0.023902 -0.000007
# 6 -0.000003 0.000001 0.000005 0.006269 -0.000007 0.046688
#
#
# Mechanical properties :
#
#
# Convention : Reuss Voigt Hill
#
# Bulk Modulus (GPa) = 32.93068 43.06228 37.99648
# Shear Modulus (GPa) = 28.00227 35.49637 31.74932
#
# Velocity S-wave (km/s) = 3.33311 3.75271 3.54912
# Velocity P-wave (km/s) = 5.27994 5.98846 5.64533
#
# Compressibility (1/GPa) = 0.03036682
#
# Stress axis : x y z
#
# Youngs Moduli (GPa) = 35.70241 96.11808 80.54821
#
# Poissons Ratio (x) = 0.00499 0.71686
# Poissons Ratio (y) = 0.00185 0.10302
# Poissons Ratio (z) = 0.31774 0.12293
#
# Static dielectric constant tensor:
#      x y z
#    x 1.820430 0.000000 -0.088640 
#    y 0.000000 2.056610 0.000010 
#    z -0.088640 0.000010 1.975850 
# 
# From -- ./inp_files/206269.got.cif
#   From: 2010.05.17/outbox.cif.g08.bks.cpg/sg15_104_cif.got.tgz:206269.got - 2010.06.03 18:47:42.
