data_PCOD9294244
_publ_section_title
;
Structure prediction by ZEFSAII (Michael W. Deem and Ramdas Pophale) SiO2 
 PCOD9294244
Probable space group: C 2/C
;
_chemical_formula_sum "Si O2"
_cell_formula_units_Z 32
_cell_length_a 12.766042
_cell_length_b 6.131459
_cell_length_c 14.649382
_cell_angle_alpha 90.000000
_cell_angle_beta 86.229244
_cell_angle_gamma 90.000000
_cell_volume 1144.190154
_symmetry_space_group_name_H-M "C 2/C"
_symmetry_group_IT_number 15
_symmetry_cell_setting 'monoclinic'
loop_
_space_group_symop_operation_xyz
x,y,z
-x,y,1/2-z
-x,-y,-z
x,-y,1/2+z
1/2+x,1/2+y,z
1/2-x,1/2+y,1/2-z
1/2-x,1/2-y,-z
1/2+x,1/2-y,1/2+z
loop_
_atom_site_type_symbol
_atom_site_label
_atom_site_fract_x
_atom_site_fract_y
_atom_site_fract_z
Si Si1 0.707067 0.651629 0.637489
Si Si2 0.658993 0.444567 0.341674
Si Si3 0.043612 0.881215 0.586997
Si Si4 0.494420 0.081682 0.142611
O O1 0.721130 0.597677 0.744039
O O2 0.668000 0.423552 0.594429
O O3 0.783683 0.853964 0.608815
O O4 0.593204 0.759973 0.628219
O O5 0.544561 0.551688 0.332838
O O6 0.615738 0.202948 0.373416
O O7 0.000000 0.000000 0.500000
O O8 0.021463 0.626300 0.582232
O O9 0.500000 0.022847 0.250000
#
# Coordination Sequence:
#
# PCOD9294244 Si02
#       4
#     8   8   8   8
#     4  10  23  39  66 101 124 173 236 293 346 403
#     4  10  23  39  66 101 125 168 240 295 344 405
#     4  11  24  42  63  95 144 186 221 276 356 432
#     4   9  20  41  64  92 127 172 226 290 345 408
#
# _framework density 27.967382000000001
#
# number of rings (size 3 to 8) (size 9 to 14) (size 15 to 20)
#    0.000    2.000    0.000    3.750   10.500    5.000 
#    0.000    2.500    0.000    0.000    0.000    0.000 
#    0.000    0.000    0.000    0.000    0.000    0.000 
#
# Total GULP energy -89125.275222 kJ/mol
# GULP energy per Si atom -5570.329701 kJ/mol
# Density = 2.790373 g / cm^3
# Si number density = 27.967382 Si / 1000 Ang^3
#
#
#
# Elastic Constant Matrix: (Units=GPa)
#
#
# Indices 1 2 3 4 5 6 
#
# 1 186.4580 52.5066 13.1072 0.0000 21.7607 0.0000
# 2 52.5066 119.4593 6.0705 0.0000 8.4958 0.0000
# 3 13.1072 6.0705 58.4454 0.0000 3.6213 0.0000
# 4 0.0000 0.0000 0.0000 41.7950 0.0000 0.6938
# 5 21.7607 8.4958 3.6213 0.0000 28.4549 0.0000
# 6 0.0000 0.0000 0.0000 0.6938 0.0000 89.6217
#
#
#
# Elastic Compliance Matrix: (Units=1/GPa)
#
#
# Indices 1 2 3 4 5 6 
#
# 1 0.006645 -0.002574 -0.000963 0.000000 -0.004190 0.000000
# 2 -0.002574 0.009581 -0.000366 0.000000 -0.000846 0.000000
# 3 -0.000963 -0.000366 0.017449 0.000000 -0.001375 0.000000
# 4 0.000000 0.000000 0.000000 0.023929 0.000000 -0.000185
# 5 -0.004190 -0.000846 -0.001375 0.000000 0.038776 0.000000
# 6 0.000000 0.000000 0.000000 -0.000185 0.000000 0.011159
#
#
# Mechanical properties :
#
#
# Convention : Reuss Voigt Hill
#
# Bulk Modulus (GPa) = 38.65472 56.41458 47.53465
# Shear Modulus (GPa) = 40.33328 51.48622 45.90975
#
# Velocity S-wave (km/s) = 3.80169 4.29527 4.05600
# Velocity P-wave (km/s) = 5.75516 6.69436 6.24245
#
# Compressibility (1/GPa) = 0.02587006
#
# Stress axis : x y z
#
# Youngs Moduli (GPa) = 150.49771 104.37355 57.30940
#
# Poissons Ratio (x) = 0.26861 0.05520
# Poissons Ratio (y) = 0.38732 0.02095
# Poissons Ratio (z) = 0.14496 0.03815
#
# Static dielectric constant tensor:
#      x y z
#    x 2.226760 0.000000 -0.048480 
#    y 0.000000 2.871590 0.000000 
#    z -0.048480 0.000000 2.287130 
# 
# From -- ./inp_files/201813.got.cif
#   From: 2010.05.17/outbox.cif.g08.bks.cpg/sg15_101_cif.got.tgz:201813.got - 2010.06.03 18:47:42.
