data_PCOD9294761
_publ_section_title
;
Structure prediction by ZEFSAII (Michael W. Deem and Ramdas Pophale) SiO2 
 PCOD9294761
Probable space group: C 2/C
;
_chemical_formula_sum "Si O2"
_cell_formula_units_Z 40
_cell_length_a 22.775681
_cell_length_b 7.824923
_cell_length_c 26.258684
_cell_angle_alpha 90.000000
_cell_angle_beta 20.168032
_cell_angle_gamma 90.000000
_cell_volume 1613.465035
_symmetry_space_group_name_H-M "C 2/C"
_symmetry_group_IT_number 15
_symmetry_cell_setting 'monoclinic'
loop_
_space_group_symop_operation_xyz
x,y,z
-x,y,1/2-z
-x,-y,-z
x,-y,1/2+z
1/2+x,1/2+y,z
1/2-x,1/2+y,1/2-z
1/2-x,1/2-y,-z
1/2+x,1/2-y,1/2+z
loop_
_atom_site_type_symbol
_atom_site_label
_atom_site_fract_x
_atom_site_fract_y
_atom_site_fract_z
Si Si1 0.499911 0.796524 0.412983
Si Si2 0.874788 0.156066 0.613318
Si Si3 0.470501 0.403787 0.143831
Si Si4 0.701789 0.609813 0.080339
Si Si5 0.833512 0.252475 0.860990
O O1 0.679539 0.890377 0.260063
O O2 0.443578 0.795227 0.517745
O O3 0.544089 0.605143 0.356349
O O4 0.336332 0.858627 0.515688
O O5 0.892564 0.194083 0.658494
O O6 0.000000 0.000000 0.500000
O O7 0.387545 0.337713 0.263519
O O8 0.671839 0.367622 0.982296
O O9 0.500000 0.636286 0.250000
O O10 0.715126 0.405656 0.062156
O O11 0.750000 0.750000 0.000000
O O12 0.000000 0.339044 0.750000
#
# Coordination Sequence:
#
# PCOD9294761 Si02
#       5
#     8   8   8   8   8
#     4  11  22  42  66  96 133 176 229 280 331 400
#     4  10  23  41  65  98 135 179 225 277 338 397
#     4  11  24  42  65  96 132 174 222 277 333 395
#     4  11  24  43  68  99 133 176 225 279 337 400
#     4  11  24  42  62  93 131 171 218 275 336 398
#
# _framework density 24.791366
#
# number of rings (size 3 to 8) (size 9 to 14) (size 15 to 20)
#    0.000    1.200    0.000    6.600    0.000    8.800 
#    0.000    7.000    0.000    0.000    0.000    0.000 
#    0.000    0.000    0.000    0.000    0.000    0.000 
#
# Total GULP energy -111961.668923 kJ/mol
# GULP energy per Si atom -5598.083446 kJ/mol
# Density = 2.473494 g / cm^3
# Si number density = 24.791366 Si / 1000 Ang^3
#
#
#
# Elastic Constant Matrix: (Units=GPa)
#
#
# Indices 1 2 3 4 5 6 
#
# 1 140.0348 19.8845 56.4906 -0.0014 -20.0169 0.0007
# 2 19.8845 69.8634 52.5227 0.0131 -8.1841 -0.0083
# 3 56.4906 52.5227 175.6974 -0.0056 -31.5948 -0.0054
# 4 -0.0014 0.0131 -0.0056 43.6877 -0.0046 -10.2806
# 5 -20.0169 -8.1841 -31.5948 -0.0046 38.8725 0.0032
# 6 0.0007 -0.0083 -0.0054 -10.2806 0.0032 25.2942
#
#
#
# Elastic Compliance Matrix: (Units=1/GPa)
#
#
# Indices 1 2 3 4 5 6 
#
# 1 0.008422 -0.000525 -0.002098 0.000000 0.002522 -0.000001
# 2 -0.000525 0.018512 -0.005520 -0.000006 -0.000859 0.000003
# 3 -0.002098 -0.005520 0.008916 0.000003 0.005005 0.000001
# 4 0.000000 -0.000006 0.000003 0.025311 0.000004 0.010287
# 5 0.002522 -0.000859 0.005005 0.000004 0.030910 -0.000002
# 6 -0.000001 0.000003 0.000001 0.010287 -0.000002 0.043716
#
#
# Mechanical properties :
#
#
# Convention : Reuss Voigt Hill
#
# Bulk Modulus (GPa) = 51.10886 71.48791 61.29839
# Shear Modulus (GPa) = 31.52717 38.68407 35.10562
#
# Velocity S-wave (km/s) = 3.56996 3.95446 3.76712
# Velocity P-wave (km/s) = 6.13622 7.05328 6.61067
#
# Compressibility (1/GPa) = 0.01956608
#
# Stress axis : x y z
#
# Youngs Moduli (GPa) = 118.73346 54.01884 112.15741
#
# Poissons Ratio (x) = 0.02835 0.23526
# Poissons Ratio (y) = 0.06231 0.61908
# Poissons Ratio (z) = 0.24906 0.29817
#
# Static dielectric constant tensor:
#      x y z
#    x 2.049490 0.000000 0.054670 
#    y 0.000000 1.975810 0.000000 
#    z 0.054670 0.000000 1.891230 
# 
# From -- ./inp_files/318465.got.cif
#   From: 2010.05.17/outbox.cif.g08.bks.cpg/sg15_160_cif.got.tgz:318465.got - 2010.06.03 18:47:42.
