data_PCOD9294366
_publ_section_title
;
Structure prediction by ZEFSAII (Michael W. Deem and Ramdas Pophale) SiO2 
 PCOD9294366
Probable space group: C 2/C
;
_chemical_formula_sum "Si O2"
_cell_formula_units_Z 52
_cell_length_a 20.481216
_cell_length_b 18.982596
_cell_length_c 9.124212
_cell_angle_alpha 90.000000
_cell_angle_beta 132.009830
_cell_angle_gamma 90.000000
_cell_volume 2635.803726
_symmetry_space_group_name_H-M "C 2/C"
_symmetry_group_IT_number 15
_symmetry_cell_setting 'monoclinic'
loop_
_space_group_symop_operation_xyz
x,y,z
-x,y,1/2-z
-x,-y,-z
x,-y,1/2+z
1/2+x,1/2+y,z
1/2-x,1/2+y,1/2-z
1/2-x,1/2-y,-z
1/2+x,1/2-y,1/2+z
loop_
_atom_site_type_symbol
_atom_site_label
_atom_site_fract_x
_atom_site_fract_y
_atom_site_fract_z
Si Si1 0.019864 0.715805 0.051868
Si Si2 0.000000 0.608596 0.750000
Si Si3 0.352832 0.191476 0.007043
Si Si4 0.215824 0.730198 0.109479
Si Si5 0.741504 0.435851 0.235495
Si Si6 0.071947 0.156228 0.472157
Si Si7 0.307476 0.069701 0.497595
O O1 0.110066 0.703388 0.275838
O O2 0.019416 0.799511 0.015987
O O3 0.012354 0.661573 0.905952
O O4 0.936873 0.697874 0.027910
O O5 0.913493 0.561748 0.650955
O O6 0.282111 0.246100 0.836418
O O7 0.307222 0.116369 0.919562
O O8 0.250000 0.750000 0.000000
O O9 0.129263 0.778166 0.995232
O O10 0.204320 0.647303 0.086759
O O11 0.757392 0.512445 0.325236
O O12 0.769366 0.432184 0.105956
O O13 0.643953 0.403485 0.112597
O O14 0.000000 0.129799 0.250000
#
# Coordination Sequence:
#
# PCOD9294366 Si02
#       7
#     8   4   8   8   8   8   8
#     4  11  21  37  68 101 127 161 227 274 333 374
#     4  12  22  40  68  98 124 176 222 266 328 406
#     4  10  23  40  62  99 135 165 212 283 325 390
#     4  11  19  39  69  92 126 172 225 270 324 384
#     4  11  27  42  62  94 140 175 216 268 338 399
#     4  11  21  39  71  96 123 171 227 277 320 385
#     4  12  25  42  64  95 136 180 215 266 338 399
#
# _framework density 19.728327
#
# number of rings (size 3 to 8) (size 9 to 14) (size 15 to 20)
#    0.000    0.923    6.923    0.923    2.154    5.538 
#    0.000    0.769    3.385    0.000    0.000    0.000 
#    0.000    0.000    0.000    0.000    0.000    0.000 
#
# Total GULP energy -145156.668813 kJ/mol
# GULP energy per Si atom -5582.948800 kJ/mol
# Density = 1.968342 g / cm^3
# Si number density = 19.728327 Si / 1000 Ang^3
#
#
#
# Elastic Constant Matrix: (Units=GPa)
#
#
# Indices 1 2 3 4 5 6 
#
# 1 30.5456 5.6469 25.8982 0.0000 10.1688 0.0000
# 2 5.6469 106.7549 35.7459 0.0000 13.5561 0.0000
# 3 25.8982 35.7459 108.0942 0.0000 13.2013 0.0000
# 4 0.0000 0.0000 0.0000 26.3231 0.0000 5.7559
# 5 10.1688 13.5561 13.2013 0.0000 34.0374 0.0000
# 6 0.0000 0.0000 0.0000 5.7559 0.0000 18.9599
#
#
#
# Elastic Compliance Matrix: (Units=1/GPa)
#
#
# Indices 1 2 3 4 5 6 
#
# 1 0.044314 0.002353 -0.010145 0.000000 -0.010242 0.000000
# 2 0.002353 0.010956 -0.003745 0.000000 -0.003614 0.000000
# 3 -0.010145 -0.003745 0.012983 0.000000 -0.000513 0.000000
# 4 0.000000 0.000000 0.000000 0.040691 0.000000 -0.012353
# 5 -0.010242 -0.003614 -0.000513 0.000000 0.034077 0.000000
# 6 0.000000 0.000000 0.000000 -0.012353 0.000000 0.056493
#
#
# Mechanical properties :
#
#
# Convention : Reuss Voigt Hill
#
# Bulk Modulus (GPa) = 22.13419 42.21962 32.17691
# Shear Modulus (GPa) = 21.03967 27.73764 24.38866
#
# Velocity S-wave (km/s) = 3.26923 3.75371 3.51981
# Velocity P-wave (km/s) = 5.04919 6.34303 5.73273
#
# Compressibility (1/GPa) = 0.04517897
#
# Stress axis : x y z
#
# Youngs Moduli (GPa) = 22.56646 91.27580 77.02398
#
# Poissons Ratio (x) = -0.21480 0.78137
# Poissons Ratio (y) = -0.05311 0.28849
# Poissons Ratio (z) = 0.22893 0.34187
#
# Static dielectric constant tensor:
#      x y z
#    x 1.779000 0.000000 -0.003940 
#    y 0.000000 1.678060 0.000000 
#    z -0.003940 0.000000 1.710200 
# 
# From -- ./inp_files/57079.got.cif
#   From: 2010.05.17/outbox.cif.g08.bks.cpg/sg15_29_cif.got.tgz:57079.got - 2010.06.03 18:47:42.
