data_PCOD9294837
_publ_section_title
;
Structure prediction by ZEFSAII (Michael W. Deem and Ramdas Pophale) SiO2 
 PCOD9294837
Probable space group: C 2/C
;
_chemical_formula_sum "Si O2"
_cell_formula_units_Z 56
_cell_length_a 17.013582
_cell_length_b 7.909950
_cell_length_c 20.698445
_cell_angle_alpha 90.000000
_cell_angle_beta 66.922281
_cell_angle_gamma 90.000000
_cell_volume 2562.611493
_symmetry_space_group_name_H-M "C 2/C"
_symmetry_group_IT_number 15
_symmetry_cell_setting 'monoclinic'
loop_
_space_group_symop_operation_xyz
x,y,z
-x,y,1/2-z
-x,-y,-z
x,-y,1/2+z
1/2+x,1/2+y,z
1/2-x,1/2+y,1/2-z
1/2-x,1/2-y,-z
1/2+x,1/2-y,1/2+z
loop_
_atom_site_type_symbol
_atom_site_label
_atom_site_fract_x
_atom_site_fract_y
_atom_site_fract_z
Si Si1 0.415812 0.393982 0.159438
Si Si2 0.250788 0.826275 0.570842
Si Si3 0.066016 0.581819 0.429391
Si Si4 0.787022 0.631263 0.794693
Si Si5 0.092619 0.332942 0.719631
Si Si6 0.631794 0.738577 0.355500
Si Si7 0.776189 0.213042 0.918186
O O1 0.460385 0.246194 0.103341
O O2 0.313890 0.389463 0.179941
O O3 0.421517 0.334207 0.231803
O O4 0.434883 0.583656 0.129241
O O5 0.250000 0.750000 0.500000
O O6 0.348831 0.856249 0.561074
O O7 0.202836 0.706372 0.637089
O O8 0.212050 0.012291 0.588959
O O9 0.089918 0.422171 0.377361
O O10 0.000000 0.500000 0.500000
O O11 0.839219 0.459018 0.770647
O O12 0.818996 0.755056 0.728495
O O13 0.136492 0.292783 0.637078
O O14 0.000000 0.417855 0.750000
O O15 0.699621 0.729810 0.393543
O O16 0.750000 0.250000 0.000000
#
# Coordination Sequence:
#
# PCOD9294837 Si02
#       7
#     8   8   8   8   8   8   8
#     4  11  21  41  73  93 129 185 232 269 337 421
#     4  10  23  41  67  94 130 185 227 278 346 421
#     4  10  24  42  64  99 137 171 225 288 344 401
#     4  11  20  42  70  95 131 180 236 273 331 428
#     4  12  25  42  69 107 144 173 226 310 358 389
#     4  11  22  41  72  97 124 187 239 268 328 429
#     4  11  23  41  66  99 139 179 230 289 350 419
#
# _framework density 21.852708
#
# number of rings (size 3 to 8) (size 9 to 14) (size 15 to 20)
#    0.000    1.143    4.286    1.714    4.000    4.000 
#    2.571    1.429    0.000    0.000    0.000    0.000 
#    0.000    0.000    0.000    0.000    0.000    0.000 
#
# Total GULP energy -156310.470471 kJ/mol
# GULP energy per Si atom -5582.516803 kJ/mol
# Density = 2.180297 g / cm^3
# Si number density = 21.852708 Si / 1000 Ang^3
#
#
#
# Elastic Constant Matrix: (Units=GPa)
#
#
# Indices 1 2 3 4 5 6 
#
# 1 36.8359 28.8754 26.2741 0.0000 1.2145 0.0000
# 2 28.8754 111.4576 42.4843 -0.0001 13.0743 -0.0002
# 3 26.2741 42.4843 168.2408 0.0000 14.9549 0.0000
# 4 0.0000 -0.0001 0.0000 36.6640 0.0000 6.1297
# 5 1.2145 13.0743 14.9549 0.0000 29.2591 0.0000
# 6 0.0000 -0.0002 0.0000 6.1297 0.0000 19.7874
#
#
#
# Elastic Compliance Matrix: (Units=1/GPa)
#
#
# Indices 1 2 3 4 5 6 
#
# 1 0.036430 -0.008438 -0.003938 0.000000 0.004271 0.000000
# 2 -0.008438 0.012197 -0.001371 0.000000 -0.004399 0.000000
# 3 -0.003938 -0.001371 0.007162 0.000000 -0.002884 0.000000
# 4 0.000000 0.000000 0.000000 0.028764 0.000000 -0.008911
# 5 0.004271 -0.004399 -0.002884 0.000000 0.037440 0.000000
# 6 0.000000 0.000000 0.000000 -0.008911 0.000000 0.053297
#
#
# Mechanical properties :
#
#
# Convention : Reuss Voigt Hill
#
# Bulk Modulus (GPa) = 35.34340 56.86688 46.10514
# Shear Modulus (GPa) = 23.56093 31.73547 27.64820
#
# Velocity S-wave (km/s) = 3.28711 3.81497 3.56083
# Velocity P-wave (km/s) = 5.53312 6.74423 6.16847
#
# Compressibility (1/GPa) = 0.02829382
#
# Stress axis : x y z
#
# Youngs Moduli (GPa) = 27.44987 81.98956 139.63529
#
# Poissons Ratio (x) = 0.69182 0.54991
# Poissons Ratio (y) = 0.23162 0.19146
# Poissons Ratio (z) = 0.10810 0.11242
#
# Static dielectric constant tensor:
#      x y z
#    x 1.833360 0.000000 -0.007670 
#    y 0.000000 1.866060 0.000000 
#    z -0.007670 0.000000 1.868380 
# 
# From -- ./inp_files/247363.got.cif
#   From: 2010.05.17/outbox.cif.g08.bks.cpg/sg15_124_cif.got.tgz:247363.got - 2010.06.03 18:47:42.
