data_PCOD9294167
_publ_section_title
;
Structure prediction by ZEFSAII (Michael W. Deem and Ramdas Pophale) SiO2 
 PCOD9294167
Probable space group: C 2/C
;
_chemical_formula_sum "Si O2"
_cell_formula_units_Z 44
_cell_length_a 9.055301
_cell_length_b 29.629591
_cell_length_c 9.260336
_cell_angle_alpha 90.000000
_cell_angle_beta 52.924720
_cell_angle_gamma 90.000000
_cell_volume 1982.318041
_symmetry_space_group_name_H-M "C 2/C"
_symmetry_group_IT_number 15
_symmetry_cell_setting 'monoclinic'
loop_
_space_group_symop_operation_xyz
x,y,z
-x,y,1/2-z
-x,-y,-z
x,-y,1/2+z
1/2+x,1/2+y,z
1/2-x,1/2+y,1/2-z
1/2-x,1/2-y,-z
1/2+x,1/2-y,1/2+z
loop_
_atom_site_type_symbol
_atom_site_label
_atom_site_fract_x
_atom_site_fract_y
_atom_site_fract_z
Si Si1 0.000000 0.005888 0.750000
Si Si2 0.000000 0.157547 0.250000
Si Si3 0.389638 0.190569 0.521743
Si Si4 0.379427 0.893617 0.560882
Si Si5 0.281234 0.540528 0.132728
Si Si6 0.000000 0.536688 0.750000
Si Si7 0.709066 0.716818 0.336094
O O1 0.138814 0.038137 0.576659
O O2 0.931770 0.971613 0.665668
O O3 0.809945 0.130034 0.381230
O O4 0.953248 0.188885 0.141665
O O5 0.444162 0.140204 0.537149
O O6 0.327696 0.230168 0.664690
O O7 0.242178 0.198253 0.479346
O O8 0.592028 0.206618 0.349531
O O9 0.325540 0.915225 0.748298
O O10 0.424344 0.933179 0.423676
O O11 0.151425 0.497105 0.221717
#
# Coordination Sequence:
#
# PCOD9294167 Si02
#       7
#     4   4   8   8   8   4   8
#     4  10  23  42  74  86 127 181 220 266 346 391
#     4  10  23  39  62  92 126 174 212 287 314 399
#     4   9  20  39  65  91 125 173 210 274 314 411
#     4  11  24  41  63  97 135 169 227 269 328 391
#     4  11  23  45  65  97 127 181 219 280 329 399
#     4  12  26  41  62  96 135 175 218 275 332 388
#     4   9  19  39  62  90 124 164 215 257 349 375
#
# _framework density 22.196235999999999
#
# number of rings (size 3 to 8) (size 9 to 14) (size 15 to 20)
#    0.000    1.818    1.818    1.091    2.545    8.000 
#    0.000    0.000    0.000    0.000    0.000    0.000 
#    0.000    0.000    0.000    0.000    0.000    0.000 
#
# Total GULP energy -122692.659328 kJ/mol
# GULP energy per Si atom -5576.939060 kJ/mol
# Density = 2.214572 g / cm^3
# Si number density = 22.196236 Si / 1000 Ang^3
#
#
#
# Elastic Constant Matrix: (Units=GPa)
#
#
# Indices 1 2 3 4 5 6 
#
# 1 99.6103 50.3222 9.9837 0.0000 5.5148 0.0000
# 2 50.3222 108.3182 11.4132 0.0000 1.3353 0.0000
# 3 9.9837 11.4132 48.2278 0.0000 5.0565 0.0000
# 4 0.0000 0.0000 0.0000 56.5004 0.0000 0.3089
# 5 5.5148 1.3353 5.0565 0.0000 10.1194 0.0000
# 6 0.0000 0.0000 0.0000 0.3089 0.0000 28.2719
#
#
#
# Elastic Compliance Matrix: (Units=1/GPa)
#
#
# Indices 1 2 3 4 5 6 
#
# 1 0.013561 -0.006150 -0.000699 0.000000 -0.006230 0.000000
# 2 -0.006150 0.012257 -0.001909 0.000000 0.002688 0.000000
# 3 -0.000699 -0.001909 0.022441 0.000000 -0.010581 0.000000
# 4 0.000000 0.000000 0.000000 0.017700 0.000000 -0.000193
# 5 -0.006230 0.002688 -0.010581 0.000000 0.107147 0.000000
# 6 0.000000 0.000000 0.000000 -0.000193 0.000000 0.035373
#
#
# Mechanical properties :
#
#
# Convention : Reuss Voigt Hill
#
# Bulk Modulus (GPa) = 32.52772 44.39938 38.46355
# Shear Modulus (GPa) = 21.16470 31.27415 26.21943
#
# Velocity S-wave (km/s) = 3.09127 3.75772 3.44067
# Velocity P-wave (km/s) = 5.23715 6.23488 5.75767
#
# Compressibility (1/GPa) = 0.03074301
#
# Stress axis : x y z
#
# Youngs Moduli (GPa) = 73.74202 81.58543 44.56167
#
# Poissons Ratio (x) = 0.50172 0.03114
# Poissons Ratio (y) = 0.45349 0.08509
# Poissons Ratio (z) = 0.05153 0.15578
#
# Static dielectric constant tensor:
#      x y z
#    x 1.865380 0.000000 0.008730 
#    y 0.000000 1.891630 0.000000 
#    z 0.008730 0.000000 1.891160 
# 
# From -- ./inp_files/26036.got.cif
#   From: 2010.05.17/outbox.cif.g08.bks.cpg/sg15_14_cif.got.tgz:26036.got - 2010.06.03 18:47:42.
