data_PCOD9294249
_publ_section_title
;
Structure prediction by ZEFSAII (Michael W. Deem and Ramdas Pophale) SiO2 
 PCOD9294249
Probable space group: C 2/C
;
_chemical_formula_sum "Si O2"
_cell_formula_units_Z 32
_cell_length_a 9.830102
_cell_length_b 23.825649
_cell_length_c 5.543870
_cell_angle_alpha 90.000000
_cell_angle_beta 99.469876
_cell_angle_gamma 90.000000
_cell_volume 1280.727230
_symmetry_space_group_name_H-M "C 2/C"
_symmetry_group_IT_number 15
_symmetry_cell_setting 'monoclinic'
loop_
_space_group_symop_operation_xyz
x,y,z
-x,y,1/2-z
-x,-y,-z
x,-y,1/2+z
1/2+x,1/2+y,z
1/2-x,1/2+y,1/2-z
1/2-x,1/2-y,-z
1/2+x,1/2-y,1/2+z
loop_
_atom_site_type_symbol
_atom_site_label
_atom_site_fract_x
_atom_site_fract_y
_atom_site_fract_z
Si Si1 0.631711 0.387769 0.414012
Si Si2 0.654940 0.033614 0.276516
Si Si3 0.182420 0.212131 0.184687
Si Si4 0.853723 0.670038 0.624443
O O1 0.500000 0.415177 0.250000
O O2 0.714966 0.428665 0.613003
O O3 0.578127 0.332071 0.538458
O O4 0.739426 0.361815 0.250785
O O5 0.500000 0.059399 0.250000
O O6 0.660760 0.988513 0.501713
O O7 0.133768 0.262107 0.339749
O O8 0.298755 0.172106 0.336937
O O9 0.250000 0.250000 0.000000
O O10 0.000000 0.646323 0.750000
#
# Coordination Sequence:
#
# PCOD9294249 Si02
#       4
#     8   8   8   8
#     4  11  26  41  67 101 140 176 224 289 351 416
#     4  10  25  49  76 103 135 178 234 294 356 431
#     4   9  22  39  60  95 138 179 230 275 338 397
#     4  10  23  39  66  93 136 190 231 277 328 412
#
# _framework density 24.985806
#
# number of rings (size 3 to 8) (size 9 to 14) (size 15 to 20)
#    0.000    2.000    0.000    0.000   17.500    4.000 
#    0.000    0.000    0.000    0.000    0.000    0.000 
#    0.000    0.000    0.000    0.000    0.000    0.000 
#
# Total GULP energy -89194.396109 kJ/mol
# GULP energy per Si atom -5574.649757 kJ/mol
# Density = 2.492894 g / cm^3
# Si number density = 24.985806 Si / 1000 Ang^3
#
#
#
# Elastic Constant Matrix: (Units=GPa)
#
#
# Indices 1 2 3 4 5 6 
#
# 1 104.1910 16.9071 32.5636 0.0000 40.1799 0.0000
# 2 16.9071 43.9846 12.3788 0.0000 9.1882 0.0000
# 3 32.5636 12.3788 117.9168 0.0000 24.3978 0.0000
# 4 0.0000 0.0000 0.0000 55.6304 0.0000 10.7021
# 5 40.1799 9.1882 24.3978 0.0000 46.2312 0.0000
# 6 0.0000 0.0000 0.0000 10.7021 0.0000 24.2578
#
#
#
# Elastic Compliance Matrix: (Units=1/GPa)
#
#
# Indices 1 2 3 4 5 6 
#
# 1 0.015046 -0.002931 -0.001417 0.000000 -0.011746 0.000000
# 2 -0.002931 0.024599 -0.001446 0.000000 -0.001578 0.000000
# 3 -0.001417 -0.001446 0.009777 0.000000 -0.003641 0.000000
# 4 0.000000 0.000000 0.000000 0.019643 0.000000 -0.008666
# 5 -0.011746 -0.001578 -0.003641 0.000000 0.034074 0.000000
# 6 0.000000 0.000000 0.000000 -0.008666 0.000000 0.045047
#
#
# Mechanical properties :
#
#
# Convention : Reuss Voigt Hill
#
# Bulk Modulus (GPa) = 26.43197 43.31015 34.87106
# Shear Modulus (GPa) = 29.00476 38.84009 33.92243
#
# Velocity S-wave (km/s) = 3.41082 3.94697 3.68865
# Velocity P-wave (km/s) = 5.11012 6.17600 5.66817
#
# Compressibility (1/GPa) = 0.03783297
#
# Stress axis : x y z
#
# Youngs Moduli (GPa) = 66.46273 40.65275 102.28094
#
# Poissons Ratio (x) = 0.11915 0.14493
# Poissons Ratio (y) = 0.19480 0.14794
# Poissons Ratio (z) = 0.09418 0.05880
#
# Static dielectric constant tensor:
#      x y z
#    x 39.932190 0.000000 54.459650 
#    y 0.000000 2.623650 0.000000 
#    z 54.459650 0.000000 80.313230 
# 
# From -- ./inp_files/4435.got.cif
#   From: 2010.05.17/outbox.cif.g08.bks.cpg/sg15_3_cif.got.tgz:4435.got - 2010.06.03 18:47:42.
