data_PCOD9294628
_publ_section_title
;
Structure prediction by ZEFSAII (Michael W. Deem and Ramdas Pophale) SiO2 
 PCOD9294628
Probable space group: C 2/C
;
_chemical_formula_sum "Si O2"
_cell_formula_units_Z 48
_cell_length_a 12.906013
_cell_length_b 21.028124
_cell_length_c 13.087485
_cell_angle_alpha 90.000000
_cell_angle_beta 42.097127
_cell_angle_gamma 90.000000
_cell_volume 2381.090880
_symmetry_space_group_name_H-M "C 2/C"
_symmetry_group_IT_number 15
_symmetry_cell_setting 'monoclinic'
loop_
_space_group_symop_operation_xyz
x,y,z
-x,y,1/2-z
-x,-y,-z
x,-y,1/2+z
1/2+x,1/2+y,z
1/2-x,1/2+y,1/2-z
1/2-x,1/2-y,-z
1/2+x,1/2-y,1/2+z
loop_
_atom_site_type_symbol
_atom_site_label
_atom_site_fract_x
_atom_site_fract_y
_atom_site_fract_z
Si Si1 0.921511 0.766823 0.410002
Si Si2 0.332701 0.683197 0.423217
Si Si3 0.737174 0.921028 0.831948
Si Si4 0.464465 0.122989 0.394293
Si Si5 0.160892 0.940731 0.192689
Si Si6 0.979690 0.124358 0.510645
O O1 0.750000 0.750000 0.500000
O O2 0.994106 0.698588 0.386121
O O3 0.000000 0.792634 0.250000
O O4 0.943248 0.817244 0.483326
O O5 0.500000 0.694568 0.250000
O O6 0.250000 0.750000 0.500000
O O7 0.246984 0.634187 0.410245
O O8 0.365096 0.650759 0.508344
O O9 0.580204 0.914216 0.883443
O O10 0.881494 0.910936 0.649092
O O11 0.762228 0.989819 0.862305
O O12 0.500000 0.108460 0.250000
O O13 0.288187 0.105906 0.550427
O O14 0.113971 0.917801 0.340146
O O15 0.000000 0.943575 0.250000
#
# Coordination Sequence:
#
# PCOD9294628 Si02
#       6
#     8   8   8   8   8   8
#     4  11  21  36  59  92 123 154 199 256 317 372
#     4  10  23  41  62  90 125 169 215 262 315 376
#     4  11  24  43  61  89 127 166 211 261 312 375
#     4  11  24  41  64  93 127 161 200 258 318 381
#     4  12  24  42  65  93 123 164 212 257 316 381
#     4  11  22  39  65  91 122 166 210 260 316 377
#
# _framework density 20.158829000000001
#
# number of rings (size 3 to 8) (size 9 to 14) (size 15 to 20)
#    0.000    1.000    0.000    9.000    0.000    6.667 
#    0.000    0.833    0.000    0.000    0.000    0.000 
#    0.000    0.000    0.000    0.000    0.000    0.000 
#
# Total GULP energy -134279.555949 kJ/mol
# GULP energy per Si atom -5594.981498 kJ/mol
# Density = 2.011295 g / cm^3
# Si number density = 20.158829 Si / 1000 Ang^3
#
#
#
# Elastic Constant Matrix: (Units=GPa)
#
#
# Indices 1 2 3 4 5 6 
#
# 1 106.9632 32.9382 20.4400 -0.0003 0.6021 0.0013
# 2 32.9382 106.2995 20.4762 -0.0004 8.6969 0.0009
# 3 20.4400 20.4762 60.8741 -0.0015 14.4793 0.0025
# 4 -0.0003 -0.0004 -0.0015 23.3998 0.0012 -1.2450
# 5 0.6021 8.6969 14.4793 0.0012 30.4787 -0.0014
# 6 0.0013 0.0009 0.0025 -1.2450 -0.0014 32.6008
#
#
#
# Elastic Compliance Matrix: (Units=1/GPa)
#
#
# Indices 1 2 3 4 5 6 
#
# 1 0.010842 -0.002924 -0.003162 0.000000 0.002122 0.000000
# 2 -0.002924 0.010903 -0.002209 0.000000 -0.002004 0.000000
# 3 -0.003162 -0.002209 0.020369 0.000002 -0.008984 -0.000002
# 4 0.000000 0.000000 0.000002 0.042822 -0.000002 0.001635
# 5 0.002122 -0.002004 -0.008984 -0.000002 0.037608 0.000002
# 6 0.000000 0.000000 -0.000002 0.001635 0.000002 0.030737
#
#
# Mechanical properties :
#
#
# Convention : Reuss Voigt Hill
#
# Bulk Modulus (GPa) = 39.17846 46.87174 43.02510
# Shear Modulus (GPa) = 28.03055 30.64802 29.33929
#
# Velocity S-wave (km/s) = 3.73297 3.90337 3.81912
# Velocity P-wave (km/s) = 6.16905 6.60430 6.39038
#
# Compressibility (1/GPa) = 0.02552423
#
# Stress axis : x y z
#
# Youngs Moduli (GPa) = 92.23692 91.71885 49.09478
#
# Poissons Ratio (x) = 0.26819 0.15522
# Poissons Ratio (y) = 0.26970 0.10845
# Poissons Ratio (z) = 0.29161 0.20260
#
# Static dielectric constant tensor:
#      x y z
#    x 1.744990 0.000000 -0.029400 
#    y 0.000000 1.717040 0.000000 
#    z -0.029400 0.000000 1.707040 
# 
# From -- ./inp_files/89399.got.cif
#   From: 2010.05.17/outbox.cif.g08.bks.cpg/sg15_45_cif.got.tgz:89399.got - 2010.06.03 18:47:42.
