data_PCOD9294106
_publ_section_title
;
Structure prediction by ZEFSAII (Michael W. Deem and Ramdas Pophale) SiO2 
 PCOD9294106
Probable space group: C 2/C
;
_chemical_formula_sum "Si O2"
_cell_formula_units_Z 44
_cell_length_a 14.982823
_cell_length_b 16.987196
_cell_length_c 9.260821
_cell_angle_alpha 90.000000
_cell_angle_beta 103.133676
_cell_angle_gamma 90.000000
_cell_volume 2295.374738
_symmetry_space_group_name_H-M "C 2/C"
_symmetry_group_IT_number 15
_symmetry_cell_setting 'monoclinic'
loop_
_space_group_symop_operation_xyz
x,y,z
-x,y,1/2-z
-x,-y,-z
x,-y,1/2+z
1/2+x,1/2+y,z
1/2-x,1/2+y,1/2-z
1/2-x,1/2-y,-z
1/2+x,1/2-y,1/2+z
loop_
_atom_site_type_symbol
_atom_site_label
_atom_site_fract_x
_atom_site_fract_y
_atom_site_fract_z
Si Si1 0.673075 0.545682 0.968469
Si Si2 0.103115 0.151975 0.146569
Si Si3 0.279556 0.600306 0.814486
Si Si4 0.154297 0.281105 0.403729
Si Si5 0.450258 0.275528 0.383532
Si Si6 0.500000 0.490740 0.750000
O O1 0.728253 0.558578 0.842417
O O2 0.566138 0.540295 0.877009
O O3 0.686010 0.621458 0.076887
O O4 0.695081 0.464469 0.056402
O O5 0.119626 0.213292 0.281221
O O6 0.067397 0.069171 0.195142
O O7 0.027390 0.186859 0.013383
O O8 0.186091 0.643369 0.825645
O O9 0.365439 0.662324 0.832046
O O10 0.250000 0.250000 0.500000
O O11 0.091357 0.290421 0.522512
O O12 0.500000 0.255525 0.250000
#
# Coordination Sequence:
#
# PCOD9294106 Si02
#       6
#     8   8   8   8   8   4
#     4  12  22  32  56  86 123 154 186 224 292 355
#     4  12  20  34  60  83 118 157 190 230 291 345
#     4  11  23  37  53  86 127 154 189 232 287 348
#     4  10  23  39  52  79 125 156 192 237 280 346
#     4  11  20  37  58  88 114 150 196 236 284 345
#     4  12  18  32  54  90 120 148 180 232 284 358
#
# _framework density 19.168983999999998
#
# number of rings (size 3 to 8) (size 9 to 14) (size 15 to 20)
#    0.000    0.727    7.273    2.727    0.000    0.727 
#    0.000    0.000    0.000    0.000    0.000    8.909 
#    0.000    0.000    0.000    0.000    0.000    0.000 
#
# Total GULP energy -122641.190785 kJ/mol
# GULP energy per Si atom -5574.599581 kJ/mol
# Density = 1.912535 g / cm^3
# Si number density = 19.168984 Si / 1000 Ang^3
#
#
#
# Elastic Constant Matrix: (Units=GPa)
#
#
# Indices 1 2 3 4 5 6 
#
# 1 69.7688 38.5651 48.5971 0.0000 -36.4746 0.0000
# 2 38.5651 52.6306 38.1911 0.0000 -26.8054 0.0000
# 3 48.5971 38.1911 127.4921 0.0000 -41.7362 0.0000
# 4 0.0000 0.0000 0.0000 14.6568 0.0000 -13.6215
# 5 -36.4746 -26.8054 -41.7362 0.0000 37.6749 0.0000
# 6 0.0000 0.0000 0.0000 -13.6215 0.0000 28.8807
#
#
#
# Elastic Compliance Matrix: (Units=1/GPa)
#
#
# Indices 1 2 3 4 5 6 
#
# 1 0.034014 -0.012241 -0.002149 0.000000 0.021841 0.000000
# 2 -0.012241 0.035014 -0.002427 0.000000 0.010372 0.000000
# 3 -0.002149 -0.002427 0.012777 0.000000 0.010347 0.000000
# 4 0.000000 0.000000 0.000000 0.121473 0.000000 0.057292
# 5 0.021841 0.010372 0.010347 0.000000 0.066531 0.000000
# 6 0.000000 0.000000 0.000000 0.057292 0.000000 0.061647
#
#
# Mechanical properties :
#
#
# Convention : Reuss Voigt Hill
#
# Bulk Modulus (GPa) = 20.75904 55.62204 38.19054
# Shear Modulus (GPa) = 13.11832 24.54502 18.83167
#
# Velocity S-wave (km/s) = 2.61885 3.58223 3.13773
# Velocity P-wave (km/s) = 4.47186 6.79628 5.75269
#
# Compressibility (1/GPa) = 0.04817178
#
# Stress axis : x y z
#
# Youngs Moduli (GPa) = 29.39945 28.56006 78.26541
#
# Poissons Ratio (x) = 0.34960 0.16816
# Poissons Ratio (y) = 0.35988 0.18996
# Poissons Ratio (z) = 0.06317 0.06932
#
# Static dielectric constant tensor:
#      x y z
#    x 1.735440 0.000000 -0.081940 
#    y 0.000000 1.902340 0.000000 
#    z -0.081940 0.000000 1.747570 
# 
# From -- ./inp_files/39137.got.cif
#   From: 2010.05.17/outbox.cif.g08.bks.cpg/sg15_20_cif.got.tgz:39137.got - 2010.06.03 18:47:42.
