data_PCOD9294729
_publ_section_title
;
Structure prediction by ZEFSAII (Michael W. Deem and Ramdas Pophale) SiO2 
 PCOD9294729
Probable space group: C 2/C
;
_chemical_formula_sum "Si O2"
_cell_formula_units_Z 56
_cell_length_a 22.873966
_cell_length_b 11.529096
_cell_length_c 27.795213
_cell_angle_alpha 90.000000
_cell_angle_beta 160.307746
_cell_angle_gamma 90.000000
_cell_volume 2469.990945
_symmetry_space_group_name_H-M "C 2/C"
_symmetry_group_IT_number 15
_symmetry_cell_setting 'monoclinic'
loop_
_space_group_symop_operation_xyz
x,y,z
-x,y,1/2-z
-x,-y,-z
x,-y,1/2+z
1/2+x,1/2+y,z
1/2-x,1/2+y,1/2-z
1/2-x,1/2-y,-z
1/2+x,1/2-y,1/2+z
loop_
_atom_site_type_symbol
_atom_site_label
_atom_site_fract_x
_atom_site_fract_y
_atom_site_fract_z
Si Si1 0.452450 0.716655 0.658354
Si Si2 0.984387 0.503247 0.068722
Si Si3 0.512795 0.317756 0.680926
Si Si4 0.527006 0.536454 0.632792
Si Si5 0.265944 0.872371 0.958731
Si Si6 0.744267 0.113579 0.337974
Si Si7 0.113384 0.660453 0.594721
O O1 0.500000 0.691098 0.750000
O O2 0.250000 0.750000 0.500000
O O3 0.479209 0.609137 0.643451
O O4 0.589063 0.814699 0.744635
O O5 0.150985 0.525374 0.230016
O O6 0.992985 0.385358 0.044156
O O7 0.820646 0.492984 0.977365
O O8 0.958101 0.605803 0.010353
O O9 0.559978 0.404698 0.674681
O O10 0.439936 0.196249 0.606533
O O11 0.658910 0.305628 0.834591
O O12 0.351968 0.375765 0.585640
O O13 0.374004 0.554520 0.476086
O O14 0.704627 0.596090 0.753394
O O15 0.849972 0.206391 0.387490
#
# Coordination Sequence:
#
# PCOD9294729 Si02
#       7
#     8   8   8   8   8   8   8
#     4  11  23  38  61 100 137 175 209 259 327 394
#     4  11  24  43  70  91 126 176 213 269 330 384
#     4  10  23  41  65  91 130 166 213 269 316 389
#     4  11  23  40  64  94 130 172 214 267 328 384
#     4  10  23  43  63  93 126 169 215 264 323 381
#     4  11  25  41  64 100 133 164 219 269 314 397
#     4  10  23  45  63  92 129 167 218 265 325 384
#
# _framework density 22.672149000000001
#
# number of rings (size 3 to 8) (size 9 to 14) (size 15 to 20)
#    0.000    1.429    2.857    1.714    8.000    1.714 
#    2.571    0.000    0.000    0.000    0.000    0.000 
#    0.000    0.000    0.000    0.000    0.000    0.000 
#
# Total GULP energy -156612.157196 kJ/mol
# GULP energy per Si atom -5593.291328 kJ/mol
# Density = 2.262055 g / cm^3
# Si number density = 22.672149 Si / 1000 Ang^3
#
#
#
# Elastic Constant Matrix: (Units=GPa)
#
#
# Indices 1 2 3 4 5 6 
#
# 1 69.0392 23.5503 13.3992 0.0063 -14.6572 -0.0022
# 2 23.5503 26.2422 3.5453 0.0024 -5.4290 0.0018
# 3 13.3992 3.5453 106.2066 -0.0181 -35.2242 0.0069
# 4 0.0063 0.0024 -0.0181 31.4290 -0.0025 2.5611
# 5 -14.6572 -5.4290 -35.2242 -0.0025 44.4719 0.0016
# 6 -0.0022 0.0018 0.0069 2.5611 0.0016 17.3098
#
#
#
# Elastic Compliance Matrix: (Units=1/GPa)
#
#
# Indices 1 2 3 4 5 6 
#
# 1 0.021920 -0.018668 -0.000681 -0.000003 0.004406 0.000005
# 2 -0.018668 0.055004 0.000957 0.000001 0.001320 -0.000009
# 3 -0.000681 0.000957 0.012795 0.000009 0.010027 -0.000008
# 4 -0.000003 0.000001 0.000009 0.032206 0.000008 -0.004765
# 5 0.004406 0.001320 0.010027 0.000008 0.032041 -0.000008
# 6 0.000005 -0.000009 -0.000008 -0.004765 -0.000008 0.058476
#
#
# Mechanical properties :
#
#
# Convention : Reuss Voigt Hill
#
# Bulk Modulus (GPa) = 18.89135 31.38640 25.13887
# Shear Modulus (GPa) = 18.73567 29.37504 24.05535
#
# Velocity S-wave (km/s) = 2.87779 3.60341 3.26085
# Velocity P-wave (km/s) = 4.40372 5.58448 5.02887
#
# Compressibility (1/GPa) = 0.05293429
#
# Stress axis : x y z
#
# Youngs Moduli (GPa) = 45.62031 18.18066 78.15545
#
# Poissons Ratio (x) = 0.33940 0.05322
# Poissons Ratio (y) = 0.85164 -0.07478
# Poissons Ratio (z) = 0.03107 -0.01740
#
# Static dielectric constant tensor:
#      x y z
#    x 1.844230 0.000000 0.061300 
#    y 0.000000 1.846020 0.000000 
#    z 0.061300 0.000000 1.836150 
# 
# From -- ./inp_files/318806.got.cif
#   From: 2010.05.17/outbox.cif.g08.bks.cpg/sg15_160_cif.got.tgz:318806.got - 2010.06.03 18:47:42.
