data_PCOD9294274
_publ_section_title
;
Structure prediction by ZEFSAII (Michael W. Deem and Ramdas Pophale) SiO2 
 PCOD9294274
Probable space group: C 2/C
;
_chemical_formula_sum "Si O2"
_cell_formula_units_Z 64
_cell_length_a 22.396542
_cell_length_b 5.529088
_cell_length_c 23.583819
_cell_angle_alpha 90.000000
_cell_angle_beta 83.656681
_cell_angle_gamma 90.000000
_cell_volume 2902.562319
_symmetry_space_group_name_H-M "C 2/C"
_symmetry_group_IT_number 15
_symmetry_cell_setting 'monoclinic'
loop_
_space_group_symop_operation_xyz
x,y,z
-x,y,1/2-z
-x,-y,-z
x,-y,1/2+z
1/2+x,1/2+y,z
1/2-x,1/2+y,1/2-z
1/2-x,1/2-y,-z
1/2+x,1/2-y,1/2+z
loop_
_atom_site_type_symbol
_atom_site_label
_atom_site_fract_x
_atom_site_fract_y
_atom_site_fract_z
Si Si1 0.364289 0.927402 0.459928
Si Si2 0.199045 0.794381 0.641366
Si Si3 0.568727 0.201253 0.228623
Si Si4 0.328407 0.251098 0.075580
Si Si5 0.517948 0.653972 0.053911
Si Si6 0.114087 0.752917 0.891524
Si Si7 0.870210 0.790185 0.740843
Si Si8 0.112830 0.168476 0.607548
O O1 0.340930 0.855085 0.399842
O O2 0.321784 0.803462 0.509608
O O3 0.433255 0.859057 0.467072
O O4 0.365441 0.213249 0.453358
O O5 0.266998 0.754043 0.616983
O O6 0.184005 0.748626 0.708673
O O7 0.172289 0.058220 0.629891
O O8 0.500000 0.240561 0.250000
O O9 0.602056 0.446901 0.246133
O O10 0.580962 0.180073 0.160329
O O11 0.588755 0.946489 0.252961
O O12 0.360282 0.509157 0.079543
O O13 0.365279 0.012989 0.091189
O O14 0.457730 0.737067 0.091783
O O15 0.559371 0.506607 0.093595
O O16 0.500000 0.500000 0.000000
O O17 0.138643 0.788872 0.825195
#
# Coordination Sequence:
#
# PCOD9294274 Si02
#       8
#     8   8   8   8   8   8   8   8
#     4  11  23  43  70 100 133 179 228 283 346 401
#     4  10  25  46  68 100 132 179 232 289 335 390
#     4  11  22  39  66 100 133 175 222 278 342 396
#     4  12  28  45  70  97 139 182 232 279 333 408
#     4  11  23  42  66  98 145 178 223 276 345 420
#     4  12  28  45  67 105 135 187 225 271 350 411
#     4  11  24  44  67  96 139 173 229 280 334 411
#     4  10  23  39  69 100 132 179 224 285 345 399
#
# _framework density 22.049485000000001
#
# number of rings (size 3 to 8) (size 9 to 14) (size 15 to 20)
#    0.000    1.000    2.500    3.000    7.000    2.500 
#    0.000    0.000    0.000    0.000    0.000    0.000 
#    0.000    0.000    0.000    0.000    0.000    0.000 
#
# Total GULP energy -178487.585715 kJ/mol
# GULP energy per Si atom -5577.737054 kJ/mol
# Density = 2.199930 g / cm^3
# Si number density = 22.049485 Si / 1000 Ang^3
#
#
#
# Elastic Constant Matrix: (Units=GPa)
#
#
# Indices 1 2 3 4 5 6 
#
# 1 60.2637 15.6584 -0.4042 0.0000 -21.9010 0.0000
# 2 15.6584 71.6527 21.6216 0.0000 7.0088 0.0000
# 3 -0.4042 21.6216 115.8913 0.0000 -15.2163 0.0000
# 4 0.0000 0.0000 0.0000 11.7024 0.0000 -4.2347
# 5 -21.9010 7.0088 -15.2163 0.0000 32.8153 0.0000
# 6 0.0000 0.0000 0.0000 -4.2347 0.0000 6.9765
#
#
#
# Elastic Compliance Matrix: (Units=1/GPa)
#
#
# Indices 1 2 3 4 5 6 
#
# 1 0.027326 -0.009642 0.004855 0.000000 0.022548 0.000000
# 2 -0.009642 0.018913 -0.005258 0.000000 -0.012912 0.000000
# 3 0.004855 -0.005258 0.010861 0.000000 0.009399 0.000000
# 4 0.000000 0.000000 0.000000 0.109506 0.000000 0.066470
# 5 0.022548 -0.012912 0.009399 0.000000 0.052638 0.000000
# 6 0.000000 0.000000 0.000000 0.066470 0.000000 0.183687
#
#
# Mechanical properties :
#
#
# Convention : Reuss Voigt Hill
#
# Bulk Modulus (GPa) = 27.02002 35.72882 31.37442
# Shear Modulus (GPa) = 11.48484 24.36095 17.92290
#
# Velocity S-wave (km/s) = 2.28473 3.32751 2.85414
# Velocity P-wave (km/s) = 4.38644 5.56796 5.01213
#
# Compressibility (1/GPa) = 0.03700959
#
# Stress axis : x y z
#
# Youngs Moduli (GPa) = 36.59531 52.87418 92.07552
#
# Poissons Ratio (x) = 0.50981 -0.44700
# Poissons Ratio (y) = 0.35285 0.48409
# Poissons Ratio (z) = -0.17766 0.27799
#
# Static dielectric constant tensor:
#      x y z
#    x 2.308570 0.000000 -0.166380 
#    y 0.000000 2.026220 0.000000 
#    z -0.166380 0.000000 1.958950 
# 
# From -- ./inp_files/280969.got.cif
#   From: 2010.05.17/outbox.cif.g08.bks.cpg/sg15_141_cif.got.tgz:280969.got - 2010.06.03 18:47:42.
