data_PCOD9294847
_publ_section_title
;
Structure prediction by ZEFSAII (Michael W. Deem and Ramdas Pophale) SiO2 
 PCOD9294847
Probable space group: C 2/C
;
_chemical_formula_sum "Si O2"
_cell_formula_units_Z 48
_cell_length_a 18.076008
_cell_length_b 6.982278
_cell_length_c 20.910193
_cell_angle_alpha 90.000000
_cell_angle_beta 56.306120
_cell_angle_gamma 90.000000
_cell_volume 2195.775901
_symmetry_space_group_name_H-M "C 2/C"
_symmetry_group_IT_number 15
_symmetry_cell_setting 'monoclinic'
loop_
_space_group_symop_operation_xyz
x,y,z
-x,y,1/2-z
-x,-y,-z
x,-y,1/2+z
1/2+x,1/2+y,z
1/2-x,1/2+y,1/2-z
1/2-x,1/2-y,-z
1/2+x,1/2-y,1/2+z
loop_
_atom_site_type_symbol
_atom_site_label
_atom_site_fract_x
_atom_site_fract_y
_atom_site_fract_z
Si Si1 0.867037 0.176885 0.687056
Si Si2 0.234971 0.534347 0.985739
Si Si3 0.083010 0.637308 0.471745
Si Si4 0.854423 0.261795 0.369504
Si Si5 0.015997 0.817683 0.870813
Si Si6 0.169315 0.577576 0.758079
O O1 0.881239 0.266197 0.609571
O O2 0.862721 0.359912 0.735220
O O3 0.770437 0.077167 0.733859
O O4 0.945262 0.026560 0.661711
O O5 0.156761 0.488565 0.972816
O O6 0.320958 0.444051 0.910396
O O7 0.250000 0.750000 0.000000
O O8 0.206016 0.411614 0.061778
O O9 0.000000 0.500000 0.500000
O O10 0.047369 0.801619 0.537194
O O11 0.838684 0.303463 0.303375
O O12 0.956234 0.271848 0.343063
O O13 0.102324 0.683580 0.838357
#
# Coordination Sequence:
#
# PCOD9294847 Si02
#       6
#     8   8   8   8   8   8
#     4  12  25  43  71 102 138 186 226 288 358 415
#     4  10  23  41  67  96 133 180 226 276 347 412
#     4  11  23  43  69 102 138 176 237 288 342 421
#     4  10  24  43  63  96 138 175 223 290 339 404
#     4  11  25  43  68 100 136 181 232 286 348 414
#     4  12  24  44  67 100 139 177 230 285 348 422
#
# _framework density 21.860154000000001
#
# number of rings (size 3 to 8) (size 9 to 14) (size 15 to 20)
#    0.000    1.000    5.000    1.000    2.333    4.000 
#    0.000    1.667    0.000    0.000    0.000    0.000 
#    0.000    0.000    0.000    0.000    0.000    0.000 
#
# Total GULP energy -134209.814456 kJ/mol
# GULP energy per Si atom -5592.075602 kJ/mol
# Density = 2.181040 g / cm^3
# Si number density = 21.860154 Si / 1000 Ang^3
#
#
#
# Elastic Constant Matrix: (Units=GPa)
#
#
# Indices 1 2 3 4 5 6 
#
# 1 49.3391 1.2174 22.1663 0.0000 -14.7851 0.0030
# 2 1.2174 131.6654 20.1721 0.0008 -10.2132 0.0045
# 3 22.1663 20.1721 80.3178 0.0000 -4.4480 0.0000
# 4 0.0000 0.0008 0.0000 32.7917 -0.0002 -9.7463
# 5 -14.7851 -10.2132 -4.4480 -0.0002 33.9924 0.0000
# 6 0.0030 0.0045 0.0000 -9.7463 0.0000 29.8917
#
#
#
# Elastic Compliance Matrix: (Units=1/GPa)
#
#
# Indices 1 2 3 4 5 6 
#
# 1 0.026839 0.001730 -0.007219 -0.000001 0.011249 -0.000003
# 2 0.001730 0.008167 -0.002368 -0.000001 0.002896 -0.000002
# 3 -0.007219 -0.002368 0.014933 0.000000 -0.001897 0.000001
# 4 -0.000001 -0.000001 0.000000 0.033768 0.000000 0.011010
# 5 0.011249 0.002896 -0.001897 0.000000 0.034933 -0.000002
# 6 -0.000003 -0.000002 0.000001 0.011010 -0.000002 0.037044
#
#
# Mechanical properties :
#
#
# Convention : Reuss Voigt Hill
#
# Bulk Modulus (GPa) = 29.21829 38.71490 33.96660
# Shear Modulus (GPa) = 27.35153 33.85292 30.60222
#
# Velocity S-wave (km/s) = 3.54107 3.93951 3.74559
# Velocity P-wave (km/s) = 5.48762 6.20014 5.85473
#
# Compressibility (1/GPa) = 0.03422513
#
# Stress axis : x y z
#
# Youngs Moduli (GPa) = 37.25873 122.45130 66.96796
#
# Poissons Ratio (x) = -0.21189 0.48343
# Poissons Ratio (y) = -0.06447 0.15859
# Poissons Ratio (z) = 0.26896 0.28999
#
# Static dielectric constant tensor:
#      x y z
#    x 1.843500 0.000000 0.005050 
#    y 0.000000 1.796400 0.000000 
#    z 0.005050 0.000000 1.820660 
# 
# From -- ./inp_files/278845.got.cif
#   From: 2010.05.17/outbox.cif.g08.bks.cpg/sg15_140_cif.got.tgz:278845.got - 2010.06.03 18:47:42.
