data_PCOD9294887
_publ_section_title
;
Structure prediction by ZEFSAII (Michael W. Deem and Ramdas Pophale) SiO2 
 PCOD9294887
Probable space group: C 2/C
;
_chemical_formula_sum "Si O2"
_cell_formula_units_Z 36
_cell_length_a 13.303668
_cell_length_b 18.751508
_cell_length_c 9.932757
_cell_angle_alpha 90.000000
_cell_angle_beta 37.272804
_cell_angle_gamma 90.000000
_cell_volume 1500.620884
_symmetry_space_group_name_H-M "C 2/C"
_symmetry_group_IT_number 15
_symmetry_cell_setting 'monoclinic'
loop_
_space_group_symop_operation_xyz
x,y,z
-x,y,1/2-z
-x,-y,-z
x,-y,1/2+z
1/2+x,1/2+y,z
1/2-x,1/2+y,1/2-z
1/2-x,1/2-y,-z
1/2+x,1/2-y,1/2+z
loop_
_atom_site_type_symbol
_atom_site_label
_atom_site_fract_x
_atom_site_fract_y
_atom_site_fract_z
Si Si1 0.423673 0.843305 0.086614
Si Si2 0.276660 0.079148 0.496069
Si Si3 0.557277 0.421140 0.985124
Si Si4 0.056337 0.793594 0.544261
Si Si5 0.000000 0.554310 0.750000
O O1 0.399388 0.878267 0.966120
O O2 0.244579 0.818494 0.334198
O O3 0.530437 0.771439 0.969460
O O4 0.485995 0.899197 0.130825
O O5 0.224270 0.086215 0.395118
O O6 0.102289 0.096985 0.753201
O O7 0.342058 0.998101 0.434480
O O8 0.500000 0.500000 0.000000
O O9 0.555925 0.362373 0.870308
O O10 0.000000 0.766906 0.750000
#
# Coordination Sequence:
#
# PCOD9294887 Si02
#       5
#     8   8   8   8   4
#     4  11  25  42  66  95 130 171 213 268 321 381
#     4  10  23  42  62  97 127 168 217 262 322 378
#     4  10  23  41  68  93 128 173 211 264 321 388
#     4  11  24  42  65  96 128 168 215 264 321 386
#     4  12  24  42  64  98 132 166 216 268 322 380
#
# _framework density 23.990069999999999
#
# number of rings (size 3 to 8) (size 9 to 14) (size 15 to 20)
#    0.000    1.333    1.111    4.000    6.222    2.667 
#    0.000    2.222    0.000    0.000    0.000    0.000 
#    0.000    0.000    0.000    0.000    0.000    0.000 
#
# Total GULP energy -100594.771505 kJ/mol
# GULP energy per Si atom -5588.598417 kJ/mol
# Density = 2.393547 g / cm^3
# Si number density = 23.990070 Si / 1000 Ang^3
#
#
#
# Elastic Constant Matrix: (Units=GPa)
#
#
# Indices 1 2 3 4 5 6 
#
# 1 174.2149 69.7788 27.4069 0.0010 -4.9460 -0.0002
# 2 69.7788 133.8724 -0.8611 0.0003 2.0868 -0.0009
# 3 27.4069 -0.8611 61.8987 -0.0081 7.5694 -0.0103
# 4 0.0010 0.0003 -0.0081 53.9770 0.0059 23.4861
# 5 -4.9460 2.0868 7.5694 0.0059 28.5362 0.0074
# 6 -0.0002 -0.0009 -0.0103 23.4861 0.0074 92.8782
#
#
#
# Elastic Compliance Matrix: (Units=1/GPa)
#
#
# Indices 1 2 3 4 5 6 
#
# 1 0.008192 -0.004340 -0.004031 -0.000001 0.002806 0.000000
# 2 -0.004340 0.009779 0.002312 0.000000 -0.002081 0.000000
# 3 -0.004031 0.002312 0.018684 0.000003 -0.005824 0.000002
# 4 -0.000001 0.000000 0.000003 0.020817 -0.000004 -0.005264
# 5 0.002806 -0.002081 -0.005824 -0.000004 0.037227 -0.000003
# 6 0.000000 0.000000 0.000002 -0.005264 -0.000003 0.012098
#
#
# Mechanical properties :
#
#
# Convention : Reuss Voigt Hill
#
# Bulk Modulus (GPa) = 40.75200 62.51502 51.63351
# Shear Modulus (GPa) = 39.34124 53.32239 46.33181
#
# Velocity S-wave (km/s) = 4.05396 4.71965 4.39941
# Velocity P-wave (km/s) = 6.23993 7.47097 6.88303
#
# Compressibility (1/GPa) = 0.02453867
#
# Stress axis : x y z
#
# Youngs Moduli (GPa) = 122.07084 102.25942 53.52040
#
# Poissons Ratio (x) = 0.44377 0.21573
# Poissons Ratio (y) = 0.52974 -0.12373
# Poissons Ratio (z) = 0.49203 -0.23642
#
# Static dielectric constant tensor:
#      x y z
#    x 1.834760 0.000000 -0.089780 
#    y 0.000000 1.866100 0.000000 
#    z -0.089780 0.000000 1.932380 
# 
# From -- ./inp_files/38780.got.cif
#   From: 2010.05.17/outbox.cif.g08.bks.cpg/sg15_20_cif.got.tgz:38780.got - 2010.06.03 18:47:42.
