data_PCOD9294621
_publ_section_title
;
Structure prediction by ZEFSAII (Michael W. Deem and Ramdas Pophale) SiO2 
 PCOD9294621
Probable space group: C 2/C
;
_chemical_formula_sum "Si O2"
_cell_formula_units_Z 40
_cell_length_a 13.760201
_cell_length_b 14.064848
_cell_length_c 14.471413
_cell_angle_alpha 90.000000
_cell_angle_beta 145.434233
_cell_angle_gamma 90.000000
_cell_volume 1588.997539
_symmetry_space_group_name_H-M "C 2/C"
_symmetry_group_IT_number 15
_symmetry_cell_setting 'monoclinic'
loop_
_space_group_symop_operation_xyz
x,y,z
-x,y,1/2-z
-x,-y,-z
x,-y,1/2+z
1/2+x,1/2+y,z
1/2-x,1/2+y,1/2-z
1/2-x,1/2-y,-z
1/2+x,1/2-y,1/2+z
loop_
_atom_site_type_symbol
_atom_site_label
_atom_site_fract_x
_atom_site_fract_y
_atom_site_fract_z
Si Si1 0.075038 0.511759 0.704939
Si Si2 0.714054 0.671473 0.173765
Si Si3 0.209210 0.347707 0.417807
Si Si4 0.575316 0.357301 0.205317
Si Si5 0.716994 0.435545 0.849066
O O1 0.146518 0.412179 0.727846
O O2 0.222291 0.592496 0.833057
O O3 0.000000 0.488697 0.750000
O O4 0.924378 0.554309 0.524300
O O5 0.662373 0.651386 0.239910
O O6 0.570035 0.651351 0.985908
O O7 0.710258 0.725682 0.787822
O O8 0.250000 0.250000 0.500000
O O9 0.319170 0.416414 0.571783
O O10 0.000000 0.340144 0.250000
O O11 0.500000 0.340257 0.250000
O O12 0.651391 0.463102 0.265544
#
# Coordination Sequence:
#
# PCOD9294621 Si02
#       5
#     8   8   8   8   8
#     4   9  19  39  61  87 122 164 204 249 306 370
#     4  12  24  39  64  93 122 161 206 259 311 363
#     4   9  20  36  58  84 116 157 198 242 300 363
#     4  12  25  43  64  91 125 166 208 254 310 376
#     4  10  23  41  61  91 124 160 206 260 307 360
#
# _framework density 25.173103000000001
#
# number of rings (size 3 to 8) (size 9 to 14) (size 15 to 20)
#    0.000    2.000    0.000    6.000    0.000    7.200 
#    0.000    0.000    0.000    0.000    0.000    0.000 
#    0.000    0.000    0.000    0.000    0.000    0.000 
#
# Total GULP energy -111505.446683 kJ/mol
# GULP energy per Si atom -5575.272334 kJ/mol
# Density = 2.511581 g / cm^3
# Si number density = 25.173103 Si / 1000 Ang^3
#
#
#
# Elastic Constant Matrix: (Units=GPa)
#
#
# Indices 1 2 3 4 5 6 
#
# 1 63.0020 20.0961 39.8833 0.0001 -25.6935 0.0000
# 2 20.0961 153.0610 48.9423 0.0002 0.9347 0.0001
# 3 39.8833 48.9423 227.9445 0.0002 -8.1584 0.0000
# 4 0.0001 0.0002 0.0002 56.2317 0.0001 7.1806
# 5 -25.6935 0.9347 -8.1584 0.0001 27.8536 0.0001
# 6 0.0000 0.0001 0.0000 7.1806 0.0001 32.8741
#
#
#
# Elastic Compliance Matrix: (Units=1/GPa)
#
#
# Indices 1 2 3 4 5 6 
#
# 1 0.030028 -0.002933 -0.003668 0.000000 0.026724 0.000000
# 2 -0.002933 0.007314 -0.001175 0.000000 -0.003295 0.000000
# 3 -0.003668 -0.001175 0.005216 0.000000 -0.001816 0.000000
# 4 0.000000 0.000000 0.000000 0.018294 0.000000 -0.003996
# 5 0.026724 -0.003295 -0.001816 0.000000 0.060132 0.000000
# 6 0.000000 0.000000 0.000000 -0.003996 0.000000 0.031292
#
#
# Mechanical properties :
#
#
# Convention : Reuss Voigt Hill
#
# Bulk Modulus (GPa) = 37.02768 73.53898 55.28333
# Shear Modulus (GPa) = 28.27565 45.73095 37.00330
#
# Velocity S-wave (km/s) = 3.35513 4.26685 3.83816
# Velocity P-wave (km/s) = 5.45438 7.31788 6.45375
#
# Compressibility (1/GPa) = 0.02700683
#
# Stress axis : x y z
#
# Youngs Moduli (GPa) = 33.30181 136.71775 191.71317
#
# Poissons Ratio (x) = 0.40099 0.70317
# Poissons Ratio (y) = 0.09767 0.22531
# Poissons Ratio (z) = 0.12215 0.16068
#
# Static dielectric constant tensor:
#      x y z
#    x 2.631100 0.000000 -0.096910 
#    y 0.000000 2.128520 0.000000 
#    z -0.096910 0.000000 1.944950 
# 
# From -- ./inp_files/168337.got.cif
#   From: 2010.05.17/outbox.cif.g08.bks.cpg/sg15_85_cif.got.tgz:168337.got - 2010.06.03 18:47:42.
