data_PCOD9294780
_publ_section_title
;
Structure prediction by ZEFSAII (Michael W. Deem and Ramdas Pophale) SiO2 
 PCOD9294780
Probable space group: C 2/C
;
_chemical_formula_sum "Si O2"
_cell_formula_units_Z 56
_cell_length_a 11.610477
_cell_length_b 11.980833
_cell_length_c 21.286165
_cell_angle_alpha 90.000000
_cell_angle_beta 64.022685
_cell_angle_gamma 90.000000
_cell_volume 2661.818943
_symmetry_space_group_name_H-M "C 2/C"
_symmetry_group_IT_number 15
_symmetry_cell_setting 'monoclinic'
loop_
_space_group_symop_operation_xyz
x,y,z
-x,y,1/2-z
-x,-y,-z
x,-y,1/2+z
1/2+x,1/2+y,z
1/2-x,1/2+y,1/2-z
1/2-x,1/2-y,-z
1/2+x,1/2-y,1/2+z
loop_
_atom_site_type_symbol
_atom_site_label
_atom_site_fract_x
_atom_site_fract_y
_atom_site_fract_z
Si Si1 0.141008 0.798803 0.740831
Si Si2 0.831519 0.358045 0.459322
Si Si3 0.124977 0.708787 0.877558
Si Si4 0.776878 0.042775 0.930652
Si Si5 0.430975 0.620902 0.008134
Si Si6 0.829708 0.174717 0.615404
Si Si7 0.542706 0.466312 0.304904
O O1 0.172146 0.729438 0.795965
O O2 0.246278 0.775220 0.662922
O O3 0.124460 0.927129 0.764333
O O4 0.000000 0.764279 0.750000
O O5 0.750000 0.250000 0.500000
O O6 0.811788 0.448130 0.518497
O O7 0.762286 0.392541 0.410439
O O8 0.977949 0.331095 0.410991
O O9 0.207952 0.620797 0.896866
O O10 0.121615 0.826289 0.915899
O O11 0.909413 0.995485 0.869674
O O12 0.825176 0.112035 0.979706
O O13 0.543133 0.701510 0.954768
O O14 0.500000 0.500000 0.000000
O O15 0.882135 0.104941 0.661909
O O16 0.500000 0.407001 0.250000
#
# Coordination Sequence:
#
# PCOD9294780 Si02
#       7
#     8   8   8   8   8   8   8
#     4  11  23  39  63  92 121 171 214 256 316 393
#     4  12  22  39  65  93 127 167 217 268 321 390
#     4  12  23  39  62  95 133 164 212 269 321 377
#     4  11  24  39  63  97 126 162 214 270 330 378
#     4  11  21  41  68  94 125 171 216 265 320 391
#     4  11  22  40  66  94 125 160 220 267 314 380
#     4  10  23  41  66  89 124 171 215 260 320 393
#
# _framework density 21.038246000000001
#
# number of rings (size 3 to 8) (size 9 to 14) (size 15 to 20)
#    0.000    0.857    4.286    4.286    2.000    0.000 
#    0.000    0.000    0.000    0.000    0.000    0.000 
#    0.000    0.000    0.000    0.000    0.000    0.000 
#
# Total GULP energy -156523.994672 kJ/mol
# GULP energy per Si atom -5590.142667 kJ/mol
# Density = 2.099036 g / cm^3
# Si number density = 21.038246 Si / 1000 Ang^3
#
#
#
# Elastic Constant Matrix: (Units=GPa)
#
#
# Indices 1 2 3 4 5 6 
#
# 1 85.2752 14.9169 6.1784 0.0000 24.6820 0.0000
# 2 14.9169 51.5633 8.9998 0.0000 6.9143 0.0000
# 3 6.1784 8.9998 88.0927 0.0000 13.3297 0.0000
# 4 0.0000 0.0000 0.0000 38.3385 0.0000 7.6833
# 5 24.6820 6.9143 13.3297 0.0000 53.9675 0.0000
# 6 0.0000 0.0000 0.0000 7.6833 0.0000 25.8617
#
#
#
# Elastic Compliance Matrix: (Units=1/GPa)
#
#
# Indices 1 2 3 4 5 6 
#
# 1 0.014039 -0.003295 0.000270 0.000000 -0.006065 0.000000
# 2 -0.003295 0.020753 -0.001781 0.000000 -0.000712 0.000000
# 3 0.000270 -0.001781 0.011945 0.000000 -0.002846 0.000000
# 4 0.000000 0.000000 0.000000 0.027735 0.000000 -0.008240
# 5 -0.006065 -0.000712 -0.002846 0.000000 0.022098 0.000000
# 6 0.000000 0.000000 0.000000 -0.008240 0.000000 0.041115
#
#
# Mechanical properties :
#
#
# Convention : Reuss Voigt Hill
#
# Bulk Modulus (GPa) = 26.93665 31.68014 29.30840
# Shear Modulus (GPa) = 31.31384 36.62260 33.96822
#
# Velocity S-wave (km/s) = 3.86220 4.17677 4.02256
# Velocity P-wave (km/s) = 5.72016 6.19287 5.96120
#
# Compressibility (1/GPa) = 0.03712414
#
# Stress axis : x y z
#
# Youngs Moduli (GPa) = 71.22942 48.18509 83.71473
#
# Poissons Ratio (x) = 0.15878 -0.02258
# Poissons Ratio (y) = 0.23472 0.14913
# Poissons Ratio (z) = -0.01922 0.08584
#
# Static dielectric constant tensor:
#      x y z
#    x 1.760720 0.000000 0.025730 
#    y 0.000000 1.772330 0.000000 
#    z 0.025730 0.000000 1.774900 
# 
# From -- ./inp_files/197781.got.cif
#   From: 2010.05.17/outbox.cif.g08.bks.cpg/sg15_99_cif.got.tgz:197781.got - 2010.06.03 18:47:42.
