data_PCOD9294164
_publ_section_title
;
Structure prediction by ZEFSAII (Michael W. Deem and Ramdas Pophale) SiO2 
 PCOD9294164
Probable space group: C 2/C
;
_chemical_formula_sum "Si O2"
_cell_formula_units_Z 48
_cell_length_a 9.914944
_cell_length_b 18.508979
_cell_length_c 11.253473
_cell_angle_alpha 90.000000
_cell_angle_beta 73.448059
_cell_angle_gamma 90.000000
_cell_volume 1979.609142
_symmetry_space_group_name_H-M "C 2/C"
_symmetry_group_IT_number 15
_symmetry_cell_setting 'monoclinic'
loop_
_space_group_symop_operation_xyz
x,y,z
-x,y,1/2-z
-x,-y,-z
x,-y,1/2+z
1/2+x,1/2+y,z
1/2-x,1/2+y,1/2-z
1/2-x,1/2-y,-z
1/2+x,1/2-y,1/2+z
loop_
_atom_site_type_symbol
_atom_site_label
_atom_site_fract_x
_atom_site_fract_y
_atom_site_fract_z
Si Si1 0.348896 0.155878 0.228532
Si Si2 0.553436 0.404558 0.862090
Si Si3 0.644080 0.091002 0.744750
Si Si4 0.806340 0.279681 0.111279
Si Si5 0.957477 0.931818 0.135598
Si Si6 0.883064 0.300106 0.463057
O O1 0.500000 0.145356 0.250000
O O2 0.221620 0.106830 0.309341
O O3 0.291719 0.237220 0.271085
O O4 0.372296 0.149835 0.082116
O O5 0.500000 0.370843 0.750000
O O6 0.486096 0.486034 0.876334
O O7 0.508035 0.387528 0.009041
O O8 0.500000 0.047537 0.750000
O O9 0.674900 0.134776 0.860790
O O10 0.790704 0.055295 0.676967
O O11 0.625903 0.153791 0.652694
O O12 0.750000 0.250000 0.000000
O O13 0.970034 0.257929 0.076755
O O14 0.000000 0.896110 0.250000
O O15 0.750000 0.250000 0.500000
#
# Coordination Sequence:
#
# PCOD9294164 Si02
#       6
#     8   8   8   8   8   8
#     4  12  25  39  62  91 127 167 208 255 310 371
#     4  10  24  43  65  94 123 161 212 262 313 371
#     4  10  23  39  62  90 123 162 205 252 308 371
#     4  11  24  39  57  89 128 161 204 252 306 371
#     4  10  23  43  67  93 122 162 211 259 316 373
#     4  11  23  39  58  89 123 161 206 248 306 365
#
# _framework density 24.247211
#
# number of rings (size 3 to 8) (size 9 to 14) (size 15 to 20)
#    0.000    1.333    3.333    1.000    7.000    1.333 
#    0.000    0.000    0.000    9.000    0.000    0.000 
#    0.000    0.000    0.000    0.000    0.000    0.000 
#
# Total GULP energy -133847.965131 kJ/mol
# GULP energy per Si atom -5576.998547 kJ/mol
# Density = 2.419202 g / cm^3
# Si number density = 24.247211 Si / 1000 Ang^3
#
#
#
# Elastic Constant Matrix: (Units=GPa)
#
#
# Indices 1 2 3 4 5 6 
#
# 1 174.1369 -3.1293 47.9014 0.0000 -11.6473 0.0000
# 2 -3.1293 34.7771 6.5972 0.0000 2.5015 0.0000
# 3 47.9014 6.5972 158.7020 0.0000 12.2258 0.0000
# 4 0.0000 0.0000 0.0000 0.1527 0.0000 -2.4348
# 5 -11.6473 2.5015 12.2258 0.0000 47.8764 0.0000
# 6 0.0000 0.0000 0.0000 -2.4348 0.0000 14.0352
#
#
#
# Elastic Compliance Matrix: (Units=1/GPa)
#
#
# Indices 1 2 3 4 5 6 
#
# 1 0.006490 0.000843 -0.002155 0.000000 0.002085 0.000000
# 2 0.000843 0.029164 -0.001392 0.000000 -0.000963 0.000000
# 3 -0.002155 -0.001392 0.007185 0.000000 -0.002286 0.000000
# 4 0.000000 0.000000 0.000000 -3.707557 0.000000 -0.643178
# 5 0.002085 -0.000963 -0.002286 0.000000 0.022029 0.000000
# 6 0.000000 0.000000 0.000000 -0.643178 0.000000 -0.040327
#
#
# Mechanical properties :
#
#
# Convention : Reuss Voigt Hill
#
# Bulk Modulus (GPa) = 26.71616 52.26162 39.48889
# Shear Modulus (GPa) = -1.36421 33.49595 16.06587
#
# Velocity S-wave (km/s) = -0.75090 3.72080 2.57687
# Velocity P-wave (km/s) = 3.20786 6.32926 5.01747
#
# Compressibility (1/GPa) = 0.03743053
#
# Stress axis : x y z
#
# Youngs Moduli (GPa) = 154.08638 34.28907 139.17053
#
# Poissons Ratio (x) = -0.02890 0.29984
# Poissons Ratio (y) = -0.12985 0.19379
# Poissons Ratio (z) = 0.33198 0.04775
#
# Static dielectric constant tensor:
#      x y z
#    x 2.040930 0.000000 0.037010 
#    y 0.000000 2.410820 0.000000 
#    z 0.037010 0.000000 2.368960 
# 
# From -- ./inp_files/79793.got.cif
#   From: 2010.05.17/outbox.cif.g08.bks.cpg/sg15_40_cif.got.tgz:79793.got - 2010.06.03 18:47:42.
