data_PCOD9294113
_publ_section_title
;
Structure prediction by ZEFSAII (Michael W. Deem and Ramdas Pophale) SiO2 
 PCOD9294113
Probable space group: C 2/C
;
_chemical_formula_sum "Si O2"
_cell_formula_units_Z 48
_cell_length_a 20.299139
_cell_length_b 6.938053
_cell_length_c 18.790681
_cell_angle_alpha 90.000000
_cell_angle_beta 113.717038
_cell_angle_gamma 90.000000
_cell_volume 2422.905686
_symmetry_space_group_name_H-M "C 2/C"
_symmetry_group_IT_number 15
_symmetry_cell_setting 'monoclinic'
loop_
_space_group_symop_operation_xyz
x,y,z
-x,y,1/2-z
-x,-y,-z
x,-y,1/2+z
1/2+x,1/2+y,z
1/2-x,1/2+y,1/2-z
1/2-x,1/2-y,-z
1/2+x,1/2-y,1/2+z
loop_
_atom_site_type_symbol
_atom_site_label
_atom_site_fract_x
_atom_site_fract_y
_atom_site_fract_z
Si Si1 0.104881 0.779267 0.167759
Si Si2 0.973955 0.952609 0.612235
Si Si3 0.242938 0.473280 0.015732
Si Si4 0.938220 0.612514 0.778970
Si Si5 0.845658 0.218096 0.967309
Si Si6 0.639270 0.542475 0.315155
O O1 0.092438 0.567826 0.193112
O O2 0.149888 0.772703 0.115100
O O3 0.138282 0.911603 0.244634
O O4 0.027611 0.876189 0.116291
O O5 0.916208 0.886220 0.529183
O O6 0.928403 0.009192 0.662956
O O7 0.022774 0.768766 0.653594
O O8 0.166749 0.571890 0.001643
O O9 0.291155 0.512551 0.106690
O O10 0.250000 0.250000 0.000000
O O11 0.279239 0.591362 0.967192
O O12 0.876546 0.736444 0.712718
O O13 0.000000 0.550460 0.750000
#
# Coordination Sequence:
#
# PCOD9294113 Si02
#       6
#     8   8   8   8   8   8
#     4  11  20  34  58  93 119 150 191 253 315 353
#     4   9  19  36  58  84 125 153 191 243 299 377
#     4  10  23  44  62  77 114 170 213 247 301 356
#     4   9  18  33  57  86 119 152 190 234 301 365
#     4  10  23  39  56  88 118 154 207 252 299 364
#     4   9  20  38  57  86 116 158 200 248 293 361
#
# _framework density 19.810925000000001
#
# number of rings (size 3 to 8) (size 9 to 14) (size 15 to 20)
#    0.000    2.333    0.000    3.000    0.000   11.333 
#    6.000    0.000    0.000    0.000    0.000    0.000 
#    0.000    0.000    0.000    0.000    0.000    0.000 
#
# Total GULP energy -133975.393210 kJ/mol
# GULP energy per Si atom -5582.308050 kJ/mol
# Density = 1.976583 g / cm^3
# Si number density = 19.810925 Si / 1000 Ang^3
#
#
#
# Elastic Constant Matrix: (Units=GPa)
#
#
# Indices 1 2 3 4 5 6 
#
# 1 52.3990 38.3298 43.6404 0.0000 -16.3949 0.0000
# 2 38.3298 100.2245 45.6947 0.0000 -22.4516 0.0000
# 3 43.6404 45.6947 109.5117 0.0000 -22.7764 0.0000
# 4 0.0000 0.0000 0.0000 3.3070 0.0000 5.3979
# 5 -16.3949 -22.4516 -22.7764 0.0000 42.5784 0.0000
# 6 0.0000 0.0000 0.0000 5.3979 0.0000 9.0662
#
#
#
# Elastic Compliance Matrix: (Units=1/GPa)
#
#
# Indices 1 2 3 4 5 6 
#
# 1 0.033843 -0.007770 -0.009436 0.000000 0.003887 0.000000
# 2 -0.007770 0.014817 -0.002344 0.000000 0.003567 0.000000
# 3 -0.009436 -0.002344 0.014467 0.000000 0.002869 0.000000
# 4 0.000000 0.000000 0.000000 10.736075 0.000000 -6.392132
# 5 0.003887 0.003567 0.002869 0.000000 0.028398 0.000000
# 6 0.000000 0.000000 0.000000 -6.392132 0.000000 3.916100
#
#
# Mechanical properties :
#
#
# Convention : Reuss Voigt Hill
#
# Bulk Modulus (GPa) = 41.62178 57.49612 49.55895
# Shear Modulus (GPa) = 0.33805 19.95500 10.14653
#
# Velocity S-wave (km/s) = 0.41353 3.17720 2.26557
# Velocity P-wave (km/s) = 4.61336 6.52264 5.64925
#
# Compressibility (1/GPa) = 0.02402588
#
# Stress axis : x y z
#
# Youngs Moduli (GPa) = 29.54829 67.48955 69.12513
#
# Poissons Ratio (x) = 0.52441 0.65226
# Poissons Ratio (y) = 0.22960 0.16205
# Poissons Ratio (z) = 0.27881 0.15821
#
# Static dielectric constant tensor:
#      x y z
#    x 1.714110 0.000000 0.021440 
#    y 0.000000 1.694400 0.000000 
#    z 0.021440 0.000000 1.706660 
# 
# From -- ./inp_files/217809.got.cif
#   From: 2010.05.17/outbox.cif.g08.bks.cpg/sg15_109_cif.got.tgz:217809.got - 2010.06.03 18:47:42.
