data_PCOD9294778
_publ_section_title
;
Structure prediction by ZEFSAII (Michael W. Deem and Ramdas Pophale) SiO2 
 PCOD9294778
Probable space group: C 2/C
;
_chemical_formula_sum "Si O2"
_cell_formula_units_Z 40
_cell_length_a 10.490450
_cell_length_b 12.786849
_cell_length_c 14.514049
_cell_angle_alpha 90.000000
_cell_angle_beta 57.385453
_cell_angle_gamma 90.000000
_cell_volume 1639.913999
_symmetry_space_group_name_H-M "C 2/C"
_symmetry_group_IT_number 15
_symmetry_cell_setting 'monoclinic'
loop_
_space_group_symop_operation_xyz
x,y,z
-x,y,1/2-z
-x,-y,-z
x,-y,1/2+z
1/2+x,1/2+y,z
1/2-x,1/2+y,1/2-z
1/2-x,1/2-y,-z
1/2+x,1/2-y,1/2+z
loop_
_atom_site_type_symbol
_atom_site_label
_atom_site_fract_x
_atom_site_fract_y
_atom_site_fract_z
Si Si1 0.648071 0.466130 0.388921
Si Si2 0.750543 0.127107 0.474733
Si Si3 0.242211 0.304383 0.275642
Si Si4 0.371769 0.028527 0.154574
Si Si5 0.500000 0.325826 0.750000
Si Si6 0.500000 0.830972 0.750000
O O1 0.500000 0.500000 0.500000
O O2 0.763644 0.435344 0.425597
O O3 0.630994 0.357873 0.339928
O O4 0.727763 0.539588 0.282543
O O5 0.750000 0.250000 0.500000
O O6 0.642871 0.085028 0.437070
O O7 0.911404 0.109155 0.361327
O O8 0.144548 0.403087 0.350905
O O9 0.346431 0.238727 0.304309
O O10 0.375464 0.743281 0.244101
O O11 0.495273 0.092522 0.163573
#
# Coordination Sequence:
#
# PCOD9294778 Si02
#       6
#     8   8   8   8   4   4
#     4  10  23  41  66 106 140 192 248 301 380 450
#     4  12  22  43  74 102 140 197 243 298 384 451
#     4  10  25  42  72 102 148 190 247 309 381 442
#     4  10  24  44  70 103 148 189 242 319 361 447
#     4  12  21  45  68 106 140 198 247 307 376 452
#     4  12  21  47  70 102 142 198 241 307 378 434
#
# _framework density 24.391524
#
# number of rings (size 3 to 8) (size 9 to 14) (size 15 to 20)
#    1.200    0.000    4.000    1.800    2.800    0.000 
#    0.000    7.000    0.000    0.000    0.000    0.000 
#    0.000    0.000    0.000    0.000    0.000    0.000 
#
# Total GULP energy -111477.674453 kJ/mol
# GULP energy per Si atom -5573.883723 kJ/mol
# Density = 2.433601 g / cm^3
# Si number density = 24.391524 Si / 1000 Ang^3
#
#
#
# Elastic Constant Matrix: (Units=GPa)
#
#
# Indices 1 2 3 4 5 6 
#
# 1 126.3652 70.3385 12.7759 0.0000 21.0105 0.0000
# 2 70.3385 116.5128 8.0022 0.0000 17.5806 0.0000
# 3 12.7759 8.0022 62.2862 0.0000 -13.6192 0.0000
# 4 0.0000 0.0000 0.0000 36.0465 0.0000 1.7176
# 5 21.0105 17.5806 -13.6192 0.0000 53.4815 0.0000
# 6 0.0000 0.0000 0.0000 1.7176 0.0000 44.7913
#
#
#
# Elastic Compliance Matrix: (Units=1/GPa)
#
#
# Indices 1 2 3 4 5 6 
#
# 1 0.012551 -0.006919 -0.002400 0.000000 -0.003267 0.000000
# 2 -0.006919 0.013066 -0.000640 0.000000 -0.001740 0.000000
# 3 -0.002400 -0.000640 0.017877 0.000000 0.005706 0.000000
# 4 0.000000 0.000000 0.000000 0.027793 0.000000 -0.001066
# 5 -0.003267 -0.001740 0.005706 0.000000 0.022007 0.000000
# 6 0.000000 0.000000 0.000000 -0.001066 0.000000 0.022367
#
#
# Mechanical properties :
#
#
# Convention : Reuss Voigt Hill
#
# Bulk Modulus (GPa) = 42.41548 54.15527 48.28538
# Shear Modulus (GPa) = 34.85867 41.13370 37.99618
#
# Velocity S-wave (km/s) = 3.78449 4.11103 3.95113
# Velocity P-wave (km/s) = 6.04348 6.69214 6.37606
#
# Compressibility (1/GPa) = 0.02357630
#
# Stress axis : x y z
#
# Youngs Moduli (GPa) = 79.67619 76.53301 55.93805
#
# Poissons Ratio (x) = 0.52954 0.13424
# Poissons Ratio (y) = 0.55128 0.03580
# Poissons Ratio (z) = 0.19121 0.04898
#
# Static dielectric constant tensor:
#      x y z
#    x 2.059950 0.000000 -0.032310 
#    y 0.000000 1.998890 0.000000 
#    z -0.032310 0.000000 1.935420 
# 
# From -- ./inp_files/142882.got.cif
#   From: 2010.05.17/outbox.cif.g08.bks.cpg/sg15_72_cif.got.tgz:142882.got - 2010.06.03 18:47:42.
