data_PCOD9294158
_publ_section_title
;
Structure prediction by ZEFSAII (Michael W. Deem and Ramdas Pophale) SiO2 
 PCOD9294158
Probable space group: C 2/C
;
_chemical_formula_sum "Si O2"
_cell_formula_units_Z 44
_cell_length_a 6.652397
_cell_length_b 13.906907
_cell_length_c 22.199883
_cell_angle_alpha 90.000000
_cell_angle_beta 106.806274
_cell_angle_gamma 90.000000
_cell_volume 1966.083409
_symmetry_space_group_name_H-M "C 2/C"
_symmetry_group_IT_number 15
_symmetry_cell_setting 'monoclinic'
loop_
_space_group_symop_operation_xyz
x,y,z
-x,y,1/2-z
-x,-y,-z
x,-y,1/2+z
1/2+x,1/2+y,z
1/2-x,1/2+y,1/2-z
1/2-x,1/2-y,-z
1/2+x,1/2-y,1/2+z
loop_
_atom_site_type_symbol
_atom_site_label
_atom_site_fract_x
_atom_site_fract_y
_atom_site_fract_z
Si Si1 0.357101 0.117296 0.655776
Si Si2 0.500000 0.281319 0.750000
Si Si3 0.830259 0.620959 0.032390
Si Si4 0.838030 0.531856 0.899807
Si Si5 0.419267 0.467058 0.806306
Si Si6 0.917929 0.805302 0.474025
O O1 0.357641 0.210852 0.697962
O O2 0.586802 0.101363 0.647223
O O3 0.275586 0.025729 0.685490
O O4 0.203353 0.133668 0.585930
O O5 0.383778 0.355833 0.785221
O O6 0.973726 0.545447 0.079298
O O7 0.943775 0.723533 0.046449
O O8 0.830950 0.587253 0.962515
O O9 0.585478 0.632967 0.026862
O O10 0.618980 0.480664 0.867206
O O11 0.500000 0.510841 0.750000
O O12 0.750000 0.750000 0.500000
#
# Coordination Sequence:
#
# PCOD9294158 Si02
#       6
#     8   4   8   8   8   8
#     4  12  23  44  71  98 137 180 233 290 347 422
#     4  10  26  46  70  96 134 182 242 292 344 416
#     4  10  23  39  62 103 139 176 221 280 348 425
#     4  11  22  41  68  97 137 176 229 284 349 423
#     4  10  24  47  65  97 134 180 235 293 348 411
#     4  11  22  41  65 101 137 183 227 275 353 428
#
# _framework density 22.379518999999998
#
# number of rings (size 3 to 8) (size 9 to 14) (size 15 to 20)
#    0.545    0.727    3.636    2.182    0.000    3.636 
#    0.000    3.636    0.000    0.000    0.000    0.000 
#    0.000    0.000    0.000    0.000    0.000    0.000 
#
# Total GULP energy -122930.886321 kJ/mol
# GULP energy per Si atom -5587.767560 kJ/mol
# Density = 2.232858 g / cm^3
# Si number density = 22.379519 Si / 1000 Ang^3
#
#
#
# Elastic Constant Matrix: (Units=GPa)
#
#
# Indices 1 2 3 4 5 6 
#
# 1 73.1545 21.7214 16.4980 0.0000 -5.5936 0.0000
# 2 21.7214 103.2376 15.7074 0.0000 -2.3647 0.0000
# 3 16.4980 15.7074 47.0965 0.0000 -2.4202 0.0000
# 4 0.0000 0.0000 0.0000 34.4321 0.0000 5.1140
# 5 -5.5936 -2.3647 -2.4202 0.0000 27.7187 0.0000
# 6 0.0000 0.0000 0.0000 5.1140 0.0000 39.7619
#
#
#
# Elastic Compliance Matrix: (Units=1/GPa)
#
#
# Indices 1 2 3 4 5 6 
#
# 1 0.015635 -0.002547 -0.004497 0.000000 0.002545 0.000000
# 2 -0.002547 0.010628 -0.002644 0.000000 0.000162 0.000000
# 3 -0.004497 -0.002644 0.023738 0.000000 0.000940 0.000000
# 4 0.000000 0.000000 0.000000 0.029608 0.000000 -0.003808
# 5 0.002545 0.000162 0.000940 0.000000 0.036686 0.000000
# 6 0.000000 0.000000 0.000000 -0.003808 0.000000 0.025639
#
#
# Mechanical properties :
#
#
# Convention : Reuss Voigt Hill
#
# Bulk Modulus (GPa) = 32.65234 36.81580 34.73407
# Shear Modulus (GPa) = 29.15119 31.68665 30.41892
#
# Velocity S-wave (km/s) = 3.61305 3.76690 3.69077
# Velocity P-wave (km/s) = 5.65928 5.95027 5.80660
#
# Compressibility (1/GPa) = 0.03062568
#
# Stress axis : x y z
#
# Youngs Moduli (GPa) = 63.96028 94.08827 42.12599
#
# Poissons Ratio (x) = 0.23965 0.18942
# Poissons Ratio (y) = 0.16291 0.11139
# Poissons Ratio (z) = 0.28760 0.24878
#
# Static dielectric constant tensor:
#      x y z
#    x 1.852610 0.000000 -0.004410 
#    y 0.000000 1.837200 0.000000 
#    z -0.004410 0.000000 1.845240 
# 
# From -- ./inp_files/260411.got.cif
#   From: 2010.05.17/outbox.cif.g08.bks.cpg/sg15_131_cif.got.tgz:260411.got - 2010.06.03 18:47:42.
