data_PCOD9294136
_publ_section_title
;
Structure prediction by ZEFSAII (Michael W. Deem and Ramdas Pophale) SiO2 
 PCOD9294136
Probable space group: C 2/C
;
_chemical_formula_sum "Si O2"
_cell_formula_units_Z 48
_cell_length_a 8.393161
_cell_length_b 29.597850
_cell_length_c 10.113848
_cell_angle_alpha 90.000000
_cell_angle_beta 60.065014
_cell_angle_gamma 90.000000
_cell_volume 2177.293204
_symmetry_space_group_name_H-M "C 2/C"
_symmetry_group_IT_number 15
_symmetry_cell_setting 'monoclinic'
loop_
_space_group_symop_operation_xyz
x,y,z
-x,y,1/2-z
-x,-y,-z
x,-y,1/2+z
1/2+x,1/2+y,z
1/2-x,1/2+y,1/2-z
1/2-x,1/2-y,-z
1/2+x,1/2-y,1/2+z
loop_
_atom_site_type_symbol
_atom_site_label
_atom_site_fract_x
_atom_site_fract_y
_atom_site_fract_z
Si Si1 0.189538 0.521691 0.371598
Si Si2 0.000000 0.753346 0.750000
Si Si3 0.774047 0.906566 0.617363
Si Si4 0.866362 0.692090 0.044676
Si Si5 0.000000 0.669961 0.250000
Si Si6 0.704628 0.577270 0.685457
Si Si7 0.284767 0.601099 0.532481
O O1 0.204832 0.551520 0.233178
O O2 0.306833 0.476745 0.295644
O O3 0.246523 0.555975 0.464020
O O4 0.000000 0.500000 0.500000
O O5 0.040048 0.721348 0.609048
O O6 0.181857 0.784242 0.677451
O O7 0.673974 0.861791 0.704083
O O8 0.708371 0.913206 0.492908
O O9 0.992172 0.899432 0.545782
O O10 0.012278 0.693481 0.104549
O O11 0.801307 0.644205 0.006706
O O12 0.500000 0.596143 0.750000
O O13 0.786571 0.596721 0.786470
#
# Coordination Sequence:
#
# PCOD9294136 Si02
#       7
#     8   4   8   8   4   8   8
#     4  12  24  39  61  96 138 185 241 288 337 396
#     4  10  26  50  76 107 138 182 225 300 366 450
#     4  11  23  42  63  99 137 185 234 289 345 407
#     4  11  25  47  76 106 142 180 237 287 370 436
#     4  12  24  40  72 105 134 170 231 284 342 438
#     4  10  23  39  60  94 134 183 239 287 333 392
#     4  11  24  44  71  94 138 197 231 287 355 428
#
# _framework density 22.045722000000001
#
# number of rings (size 3 to 8) (size 9 to 14) (size 15 to 20)
#    0.000    1.000    1.667    4.500    2.333    5.333 
#    0.000    0.000    1.833    0.000    0.000    0.000 
#    0.000    0.000    0.000    0.000    0.000    0.000 
#
# Total GULP energy -134042.117584 kJ/mol
# GULP energy per Si atom -5585.088233 kJ/mol
# Density = 2.199554 g / cm^3
# Si number density = 22.045722 Si / 1000 Ang^3
#
#
#
# Elastic Constant Matrix: (Units=GPa)
#
#
# Indices 1 2 3 4 5 6 
#
# 1 99.9678 42.8610 53.1830 0.0000 20.0199 0.0000
# 2 42.8610 83.6094 32.0465 0.0000 18.9027 0.0000
# 3 53.1830 32.0465 127.1076 0.0000 26.2226 0.0000
# 4 0.0000 0.0000 0.0000 22.8861 0.0000 7.3449
# 5 20.0199 18.9027 26.2226 0.0000 47.5767 0.0000
# 6 0.0000 0.0000 0.0000 7.3449 0.0000 58.6042
#
#
#
# Elastic Compliance Matrix: (Units=1/GPa)
#
#
# Indices 1 2 3 4 5 6 
#
# 1 0.015202 -0.005666 -0.004600 0.000000 -0.001610 0.000000
# 2 -0.005666 0.016011 -0.000954 0.000000 -0.003451 0.000000
# 3 -0.004600 -0.000954 0.010781 0.000000 -0.003627 0.000000
# 4 0.000000 0.000000 0.000000 0.045526 0.000000 -0.005706
# 5 -0.001610 -0.003451 -0.003627 0.000000 0.025067 0.000000
# 6 0.000000 0.000000 0.000000 -0.005706 0.000000 0.017779
#
#
# Mechanical properties :
#
#
# Convention : Reuss Voigt Hill
#
# Bulk Modulus (GPa) = 51.14012 62.98508 57.06260
# Shear Modulus (GPa) = 31.38274 37.98635 34.68454
#
# Velocity S-wave (km/s) = 3.77706 4.15549 3.97079
# Velocity P-wave (km/s) = 6.50148 7.18724 6.85294
#
# Compressibility (1/GPa) = 0.01955412
#
# Stress axis : x y z
#
# Youngs Moduli (GPa) = 65.77991 62.45761 92.75669
#
# Poissons Ratio (x) = 0.35388 0.42668
# Poissons Ratio (y) = 0.37270 0.08849
# Poissons Ratio (z) = 0.30259 0.05958
#
# Static dielectric constant tensor:
#      x y z
#    x 1.935690 0.000000 0.023630 
#    y 0.000000 1.816830 0.000000 
#    z 0.023630 0.000000 1.887060 
# 
# From -- ./inp_files/80583.got.cif
#   From: 2010.05.17/outbox.cif.g08.bks.cpg/sg15_41_cif.got.tgz:80583.got - 2010.06.03 18:47:42.
