data_PCOD9294021
_publ_section_title
;
Structure prediction by ZEFSAII (Michael W. Deem and Ramdas Pophale) SiO2 
 PCOD9294021
Probable space group: C 2/C
;
_chemical_formula_sum "Si O2"
_cell_formula_units_Z 40
_cell_length_a 25.348525
_cell_length_b 8.411256
_cell_length_c 8.717034
_cell_angle_alpha 90.000000
_cell_angle_beta 80.019536
_cell_angle_gamma 90.000000
_cell_volume 1830.458251
_symmetry_space_group_name_H-M "C 2/C"
_symmetry_group_IT_number 15
_symmetry_cell_setting 'monoclinic'
loop_
_space_group_symop_operation_xyz
x,y,z
-x,y,1/2-z
-x,-y,-z
x,-y,1/2+z
1/2+x,1/2+y,z
1/2-x,1/2+y,1/2-z
1/2-x,1/2-y,-z
1/2+x,1/2-y,1/2+z
loop_
_atom_site_type_symbol
_atom_site_label
_atom_site_fract_x
_atom_site_fract_y
_atom_site_fract_z
Si Si1 0.810950 0.293403 0.999627
Si Si2 0.031548 0.720554 0.879502
Si Si3 0.636263 0.982257 0.276701
Si Si4 0.593444 0.573492 0.599522
Si Si5 0.576148 0.735864 0.932322
O O1 0.835448 0.433680 0.880727
O O2 0.846560 0.139187 0.945019
O O3 0.750000 0.250000 0.000000
O O4 0.824848 0.356207 0.162424
O O5 0.077379 0.601375 0.792918
O O6 0.000000 0.791694 0.750000
O O7 0.061088 0.838717 0.980199
O O8 0.979515 0.672671 0.006785
O O9 0.621886 0.134021 0.389726
O O10 0.572457 0.636309 0.774271
O O11 0.590884 0.389592 0.557309
#
# Coordination Sequence:
#
# PCOD9294021 Si02
#       5
#     8   8   8   8   8
#     4  10  23  44  65  90 124 161 208 264 310 357
#     4  11  21  37  61  89 124 164 202 249 307 368
#     4  10  23  41  64  93 120 159 211 253 306 372
#     4  10  23  38  59  93 128 165 210 249 302 371
#     4  11  21  38  59  89 129 167 200 251 303 366
#
# _framework density 21.852450999999999
#
# number of rings (size 3 to 8) (size 9 to 14) (size 15 to 20)
#    0.000    1.600    0.000    4.200    0.000    8.000 
#    0.000    2.000    0.000    0.000    0.000    0.000 
#    0.000    0.000    0.000    0.000    0.000    0.000 
#
# Total GULP energy -111554.637624 kJ/mol
# GULP energy per Si atom -5577.731881 kJ/mol
# Density = 2.180271 g / cm^3
# Si number density = 21.852451 Si / 1000 Ang^3
#
#
#
# Elastic Constant Matrix: (Units=GPa)
#
#
# Indices 1 2 3 4 5 6 
#
# 1 138.9191 38.3197 50.2993 0.0000 6.4649 0.0000
# 2 38.3197 82.5185 37.5841 0.0000 -1.8819 0.0000
# 3 50.2993 37.5841 80.0775 0.0000 -3.7749 0.0000
# 4 0.0000 0.0000 0.0000 34.6815 0.0000 6.5785
# 5 6.4649 -1.8819 -3.7749 0.0000 17.8936 0.0000
# 6 0.0000 0.0000 0.0000 6.5785 0.0000 19.2430
#
#
#
# Elastic Compliance Matrix: (Units=1/GPa)
#
#
# Indices 1 2 3 4 5 6 
#
# 1 0.010045 -0.002286 -0.005473 0.000000 -0.005024 0.000000
# 2 -0.002286 0.015934 -0.005984 0.000000 0.001239 0.000000
# 3 -0.005473 -0.005984 0.018987 0.000000 0.005354 0.000000
# 4 0.000000 0.000000 0.000000 0.030833 0.000000 -0.010541
# 5 -0.005024 0.001239 0.005354 0.000000 0.058961 0.000000
# 6 0.000000 0.000000 0.000000 -0.010541 0.000000 0.055571
#
#
# Mechanical properties :
#
#
# Convention : Reuss Voigt Hill
#
# Bulk Modulus (GPa) = 57.21349 61.54680 59.38015
# Shear Modulus (GPa) = 22.35708 26.05108 24.20408
#
# Velocity S-wave (km/s) = 3.20205 3.45648 3.33169
# Velocity P-wave (km/s) = 6.31739 6.64496 6.48324
#
# Compressibility (1/GPa) = 0.01747839
#
# Stress axis : x y z
#
# Youngs Moduli (GPa) = 99.55624 62.75904 52.66845
#
# Poissons Ratio (x) = 0.14348 0.28826
# Poissons Ratio (y) = 0.22761 0.31517
# Poissons Ratio (z) = 0.54488 0.37555
#
# Static dielectric constant tensor:
#      x y z
#    x 1.744800 0.000000 -0.004970 
#    y 0.000000 1.816620 0.000000 
#    z -0.004970 0.000000 1.903410 
# 
# From -- ./inp_files/59918.got.cif
#   From: 2010.05.17/outbox.cif.g08.bks.cpg/sg15_30_cif.got.tgz:59918.got - 2010.06.03 18:47:42.
