data_PCOD9294495
_publ_section_title
;
Structure prediction by ZEFSAII (Michael W. Deem and Ramdas Pophale) SiO2 
 PCOD9294495
Probable space group: C 2/C
;
_chemical_formula_sum "Si O2"
_cell_formula_units_Z 52
_cell_length_a 16.151821
_cell_length_b 10.591890
_cell_length_c 13.182693
_cell_angle_alpha 90.000000
_cell_angle_beta 97.398152
_cell_angle_gamma 90.000000
_cell_volume 2236.498423
_symmetry_space_group_name_H-M "C 2/C"
_symmetry_group_IT_number 15
_symmetry_cell_setting 'monoclinic'
loop_
_space_group_symop_operation_xyz
x,y,z
-x,y,1/2-z
-x,-y,-z
x,-y,1/2+z
1/2+x,1/2+y,z
1/2-x,1/2+y,1/2-z
1/2-x,1/2-y,-z
1/2+x,1/2-y,1/2+z
loop_
_atom_site_type_symbol
_atom_site_label
_atom_site_fract_x
_atom_site_fract_y
_atom_site_fract_z
Si Si1 0.849587 0.379978 0.490484
Si Si2 0.010289 0.100608 0.643524
Si Si3 0.200137 0.960012 0.206010
Si Si4 0.000000 0.129307 0.250000
Si Si5 0.190051 0.361142 0.458451
Si Si6 0.235550 0.716663 0.336404
Si Si7 0.000477 0.269688 0.443223
O O1 0.808506 0.516275 0.468594
O O2 0.836443 0.344404 0.605651
O O3 0.807570 0.264856 0.423580
O O4 0.943790 0.384682 0.469791
O O5 0.105717 0.049529 0.647724
O O6 0.991608 0.171922 0.536799
O O7 0.000000 0.175301 0.750000
O O8 0.956764 0.974667 0.666835
O O9 0.270368 0.911558 0.138920
O O10 0.202631 0.847334 0.286771
O O11 0.226088 0.106118 0.228453
O O12 0.964539 0.219421 0.330571
O O13 0.250000 0.250000 0.500000
O O14 0.096002 0.308892 0.439949
#
# Coordination Sequence:
#
# PCOD9294495 Si02
#       7
#     8   8   8   4   8   8   8
#     4  10  24  46  67  98 137 188 225 299 355 425
#     4  10  23  40  66  99 135 180 235 291 358 419
#     4  11  23  42  64 104 133 184 234 293 356 429
#     4  10  26  38  68 102 130 184 224 296 360 416
#     4  11  25  43  69  98 133 188 232 295 359 423
#     4  10  24  42  70  97 142 175 235 285 364 419
#     4  12  23  45  68  98 144 178 245 291 356 431
#
# _framework density 23.250630999999998
#
# number of rings (size 3 to 8) (size 9 to 14) (size 15 to 20)
#    0.462    0.923    1.538    2.769    6.462    0.000 
#    0.000    0.000    3.385    0.000    0.000    0.000 
#    0.000    0.000    0.000    0.000    0.000    0.000 
#
# Total GULP energy -144756.065628 kJ/mol
# GULP energy per Si atom -5567.540986 kJ/mol
# Density = 2.319771 g / cm^3
# Si number density = 23.250631 Si / 1000 Ang^3
#
#
#
# Elastic Constant Matrix: (Units=GPa)
#
#
# Indices 1 2 3 4 5 6 
#
# 1 118.0366 33.6887 27.1004 0.0000 -25.1685 0.0000
# 2 33.6887 136.5440 45.8196 0.0000 -11.0756 0.0000
# 3 27.1004 45.8196 98.8981 0.0000 -21.9317 0.0000
# 4 0.0000 0.0000 0.0000 34.3246 0.0000 -5.3388
# 5 -25.1685 -11.0756 -21.9317 0.0000 21.0032 0.0000
# 6 0.0000 0.0000 0.0000 -5.3388 0.0000 33.1374
#
#
#
# Elastic Compliance Matrix: (Units=1/GPa)
#
#
# Indices 1 2 3 4 5 6 
#
# 1 0.011851 -0.002061 0.000801 0.000000 0.013951 0.000000
# 2 -0.002061 0.009034 -0.004050 0.000000 -0.001935 0.000000
# 3 0.000801 -0.004050 0.014975 0.000000 0.014462 0.000000
# 4 0.000000 0.000000 0.000000 0.029882 0.000000 0.004814
# 5 0.013951 -0.001935 0.014462 0.000000 0.078411 0.000000
# 6 0.000000 0.000000 0.000000 0.004814 0.000000 0.030953
#
#
# Mechanical properties :
#
#
# Convention : Reuss Voigt Hill
#
# Bulk Modulus (GPa) = 39.61810 62.96623 51.29216
# Shear Modulus (GPa) = 25.75466 34.15103 29.95285
#
# Velocity S-wave (km/s) = 3.33182 3.83668 3.59313
# Velocity P-wave (km/s) = 5.64605 6.83865 6.27077
#
# Compressibility (1/GPa) = 0.02524099
#
# Stress axis : x y z
#
# Youngs Moduli (GPa) = 84.38124 110.69002 66.77708
#
# Poissons Ratio (x) = 0.22815 -0.05351
# Poissons Ratio (y) = 0.17393 0.27044
# Poissons Ratio (z) = -0.06761 0.44827
#
# Static dielectric constant tensor:
#      x y z
#    x 2.021820 0.000000 0.123940 
#    y 0.000000 1.935210 0.000000 
#    z 0.123940 0.000000 2.083000 
# 
# From -- ./inp_files/160404.got.cif
#   From: 2010.05.17/outbox.cif.g08.bks.cpg/sg15_81_cif.got.tgz:160404.got - 2010.06.03 18:47:42.
