data_PCOD9294767
_publ_section_title
;
Structure prediction by ZEFSAII (Michael W. Deem and Ramdas Pophale) SiO2 
 PCOD9294767
Probable space group: C 2/C
;
_chemical_formula_sum "Si O2"
_cell_formula_units_Z 56
_cell_length_a 17.773190
_cell_length_b 18.987924
_cell_length_c 9.124415
_cell_angle_alpha 90.000000
_cell_angle_beta 121.973887
_cell_angle_gamma 90.000000
_cell_volume 2612.113245
_symmetry_space_group_name_H-M "C 2/C"
_symmetry_group_IT_number 15
_symmetry_cell_setting 'monoclinic'
loop_
_space_group_symop_operation_xyz
x,y,z
-x,y,1/2-z
-x,-y,-z
x,-y,1/2+z
1/2+x,1/2+y,z
1/2-x,1/2+y,1/2-z
1/2-x,1/2-y,-z
1/2+x,1/2-y,1/2+z
loop_
_atom_site_type_symbol
_atom_site_label
_atom_site_fract_x
_atom_site_fract_y
_atom_site_fract_z
Si Si1 0.141400 0.754623 0.033968
Si Si2 0.915787 0.905952 0.104421
Si Si3 0.023072 0.272044 0.940666
Si Si4 0.636352 0.486994 0.707541
Si Si5 0.777407 0.908991 0.444506
Si Si6 0.919057 0.634602 0.754547
Si Si7 0.287205 0.704013 0.404694
O O1 0.181488 0.830396 0.032064
O O2 0.216629 0.711710 0.202184
O O3 0.058063 0.764504 0.057082
O O4 0.107773 0.705981 0.865336
O O5 0.000000 0.861334 0.250000
O O6 0.912228 0.966754 0.221386
O O7 0.925651 0.935864 0.951683
O O8 0.818237 0.870745 0.001441
O O9 0.000000 0.287613 0.750000
O O10 0.041706 0.342866 0.049848
O O11 0.116458 0.231488 0.046102
O O12 0.682213 0.539244 0.637813
O O13 0.700043 0.438511 0.871355
O O14 0.671989 0.905882 0.320382
O O15 0.000000 0.600002 0.750000
O O16 0.250000 0.750000 0.500000
#
# Coordination Sequence:
#
# PCOD9294767 Si02
#       7
#     8   8   8   8   8   8   8
#     4  11  23  41  67  95 134 167 202 267 331 386
#     4  11  24  42  62  92 132 167 217 263 304 384
#     4  11  23  38  59 102 131 163 207 250 332 389
#     4  10  25  42  65  89 120 182 220 253 313 368
#     4  11  22  45  65  90 129 169 216 265 312 382
#     4  10  23  41  66 100 128 163 209 265 332 393
#     4  12  23  37  64  97 130 167 206 264 331 374
#
# _framework density 21.438579000000001
#
# number of rings (size 3 to 8) (size 9 to 14) (size 15 to 20)
#    0.000    1.143    2.857    3.000    4.000    0.000 
#    0.000    1.429    0.000    0.000    0.000    0.000 
#    0.000    0.000    0.000    0.000    0.000    0.000 
#
# Total GULP energy -156440.159242 kJ/mol
# GULP energy per Si atom -5587.148544 kJ/mol
# Density = 2.138978 g / cm^3
# Si number density = 21.438579 Si / 1000 Ang^3
#
#
#
# Elastic Constant Matrix: (Units=GPa)
#
#
# Indices 1 2 3 4 5 6 
#
# 1 112.9607 11.7885 39.9703 0.0000 13.3474 0.0000
# 2 11.7885 50.3126 35.1721 0.0000 1.1874 0.0000
# 3 39.9703 35.1721 144.9972 0.0000 -5.6637 0.0000
# 4 0.0000 0.0000 0.0000 22.6886 0.0000 0.8129
# 5 13.3474 1.1874 -5.6637 0.0000 40.2096 0.0000
# 6 0.0000 0.0000 0.0000 0.8129 0.0000 23.4880
#
#
#
# Elastic Compliance Matrix: (Units=1/GPa)
#
#
# Indices 1 2 3 4 5 6 
#
# 1 0.010379 -0.000284 -0.002943 0.000000 -0.003851 0.000000
# 2 -0.000284 0.024037 -0.005808 0.000000 -0.001434 0.000000
# 3 -0.002943 -0.005808 0.009212 0.000000 0.002446 0.000000
# 4 0.000000 0.000000 0.000000 0.044130 0.000000 -0.001527
# 5 -0.003851 -0.001434 0.002446 0.000000 0.026535 0.000000
# 6 0.000000 0.000000 0.000000 -0.001527 0.000000 0.042628
#
#
# Mechanical properties :
#
#
# Convention : Reuss Voigt Hill
#
# Bulk Modulus (GPa) = 39.12671 53.57024 46.34847
# Shear Modulus (GPa) = 27.24671 32.03323 29.63997
#
# Velocity S-wave (km/s) = 3.56886 3.86966 3.72230
# Velocity P-wave (km/s) = 5.93908 6.70878 6.33563
#
# Compressibility (1/GPa) = 0.02555799
#
# Stress axis : x y z
#
# Youngs Moduli (GPa) = 96.35293 41.60335 108.55040
#
# Poissons Ratio (x) = 0.01181 0.31942
# Poissons Ratio (y) = 0.02734 0.63050
# Poissons Ratio (z) = 0.28352 0.24165
#
# Static dielectric constant tensor:
#      x y z
#    x 1.803480 0.000000 0.013500 
#    y 0.000000 1.881460 0.000000 
#    z 0.013500 0.000000 1.791140 
# 
# From -- ./inp_files/50356.got.cif
#   From: 2010.05.17/outbox.cif.g08.bks.cpg/sg15_26_cif.got.tgz:50356.got - 2010.06.03 18:47:42.
