data_PCOD9294525
_publ_section_title
;
Structure prediction by ZEFSAII (Michael W. Deem and Ramdas Pophale) SiO2 
 PCOD9294525
Probable space group: C 2/C
;
_chemical_formula_sum "Si O2"
_cell_formula_units_Z 60
_cell_length_a 9.070125
_cell_length_b 17.013631
_cell_length_c 22.837061
_cell_angle_alpha 90.000000
_cell_angle_beta 45.918326
_cell_angle_gamma 90.000000
_cell_volume 2531.546409
_symmetry_space_group_name_H-M "C 2/C"
_symmetry_group_IT_number 15
_symmetry_cell_setting 'monoclinic'
loop_
_space_group_symop_operation_xyz
x,y,z
-x,y,1/2-z
-x,-y,-z
x,-y,1/2+z
1/2+x,1/2+y,z
1/2-x,1/2+y,1/2-z
1/2-x,1/2-y,-z
1/2+x,1/2-y,1/2+z
loop_
_atom_site_type_symbol
_atom_site_label
_atom_site_fract_x
_atom_site_fract_y
_atom_site_fract_z
Si Si1 0.595725 0.449294 0.352434
Si Si2 0.713946 0.957963 0.927641
Si Si3 0.517041 0.188991 0.674707
Si Si4 0.888188 0.708932 0.066601
Si Si5 0.831593 0.186037 0.895709
Si Si6 0.500000 0.956080 0.750000
Si Si7 0.216521 0.435657 0.325759
Si Si8 0.353283 0.810298 0.714906
O O1 0.402727 0.506955 0.411445
O O2 0.496041 0.362371 0.391047
O O3 0.803293 0.488418 0.320920
O O4 0.643443 0.442573 0.269887
O O5 0.693747 0.867020 0.944649
O O6 0.729171 0.981413 0.854881
O O7 0.500000 0.000000 0.000000
O O8 0.500000 0.175985 0.750000
O O9 0.737489 0.220196 0.595157
O O10 0.473385 0.109011 0.651981
O O11 0.345526 0.258222 0.710770
O O12 0.849903 0.687958 0.145281
O O13 0.127936 0.713873 0.985242
O O14 0.766880 0.124907 0.863696
O O15 0.946720 0.256078 0.831446
O O16 0.399202 0.894803 0.730978
#
# Coordination Sequence:
#
# PCOD9294525 Si02
#       8
#     8   8   8   8   8   4   8   8
#     4  11  24  41  69  96 127 177 224 281 325 401
#     4  11  21  41  65  95 132 170 218 273 336 405
#     4  10  23  40  67  98 134 171 230 279 327 403
#     4  11  23  42  63 100 132 174 214 285 340 395
#     4  11  22  42  68  94 132 177 227 268 343 414
#     4  12  26  42  66 100 134 168 236 286 332 388
#     4  11  22  40  69  95 123 178 229 268 327 403
#     4  11  23  42  65  93 137 175 218 280 342 397
#
# _framework density 23.700928999999999
#
# number of rings (size 3 to 8) (size 9 to 14) (size 15 to 20)
#    0.000    1.067    4.000    4.400    0.933    2.667 
#    2.400    0.667    0.000    0.000    0.000    0.000 
#    0.000    0.000    0.000    0.000    0.000    0.000 
#
# Total GULP energy -167362.166951 kJ/mol
# GULP energy per Si atom -5578.738898 kJ/mol
# Density = 2.364698 g / cm^3
# Si number density = 23.700929 Si / 1000 Ang^3
#
#
#
# Elastic Constant Matrix: (Units=GPa)
#
#
# Indices 1 2 3 4 5 6 
#
# 1 95.2235 43.8202 18.6436 0.0005 -32.4290 -0.0001
# 2 43.8202 83.2868 30.4045 0.0008 -33.5610 -0.0004
# 3 18.6436 30.4045 72.5274 -0.0001 -41.2679 -0.0009
# 4 0.0005 0.0008 -0.0001 29.2376 -0.0002 -12.9032
# 5 -32.4290 -33.5610 -41.2679 -0.0002 39.6354 0.0001
# 6 -0.0001 -0.0004 -0.0009 -12.9032 0.0001 59.6059
#
#
#
# Elastic Compliance Matrix: (Units=1/GPa)
#
#
# Indices 1 2 3 4 5 6 
#
# 1 0.017447 -0.004522 0.008230 0.000000 0.019016 0.000000
# 2 -0.004522 0.019631 0.000701 0.000000 0.013654 0.000000
# 3 0.008230 0.000701 0.038148 0.000000 0.047047 0.000001
# 4 0.000000 0.000000 0.000000 0.037815 0.000000 0.008186
# 5 0.019016 0.013654 0.047047 0.000000 0.101334 0.000001
# 6 0.000000 0.000000 0.000001 0.008186 0.000001 0.018549
#
#
# Mechanical properties :
#
#
# Convention : Reuss Voigt Hill
#
# Bulk Modulus (GPa) = 11.89817 48.53048 30.21432
# Shear Modulus (GPa) = 19.83193 36.24042 28.03618
#
# Velocity S-wave (km/s) = 2.89581 3.91458 3.44308
# Velocity P-wave (km/s) = 4.02641 6.39942 5.34624
#
# Compressibility (1/GPa) = 0.08404652
#
# Stress axis : x y z
#
# Youngs Moduli (GPa) = 57.31719 50.93878 26.21387
#
# Poissons Ratio (x) = 0.23032 -0.21575
# Poissons Ratio (y) = 0.25916 -0.01839
# Poissons Ratio (z) = -0.47175 -0.03573
#
# Static dielectric constant tensor:
#      x y z
#    x 2.017170 0.000000 -0.041230 
#    y 0.000000 2.031260 0.000010 
#    z -0.041230 0.000010 1.970930 
# 
# From -- ./inp_files/266227.got.cif
#   From: 2010.05.17/outbox.cif.g08.bks.cpg/sg15_134_cif.got.tgz:266227.got - 2010.06.03 18:47:42.
