data_PCOD9294497
_publ_section_title
;
Structure prediction by ZEFSAII (Michael W. Deem and Ramdas Pophale) SiO2 
 PCOD9294497
Probable space group: C 2/C
;
_chemical_formula_sum "Si O2"
_cell_formula_units_Z 40
_cell_length_a 11.463561
_cell_length_b 8.667743
_cell_length_c 15.909148
_cell_angle_alpha 90.000000
_cell_angle_beta 80.259254
_cell_angle_gamma 90.000000
_cell_volume 1557.994333
_symmetry_space_group_name_H-M "C 2/C"
_symmetry_group_IT_number 15
_symmetry_cell_setting 'monoclinic'
loop_
_space_group_symop_operation_xyz
x,y,z
-x,y,1/2-z
-x,-y,-z
x,-y,1/2+z
1/2+x,1/2+y,z
1/2-x,1/2+y,1/2-z
1/2-x,1/2-y,-z
1/2+x,1/2-y,1/2+z
loop_
_atom_site_type_symbol
_atom_site_label
_atom_site_fract_x
_atom_site_fract_y
_atom_site_fract_z
Si Si1 0.803431 0.416564 0.976618
Si Si2 0.124796 0.521953 0.366461
Si Si3 0.842616 0.410970 0.315695
Si Si4 0.564106 0.644440 0.832346
Si Si5 0.629269 0.404469 0.598248
O O1 0.107436 0.563473 0.956338
O O2 0.847441 0.442802 0.877428
O O3 0.750000 0.250000 0.000000
O O4 0.702491 0.550865 0.005015
O O5 0.099715 0.436761 0.282557
O O6 0.067226 0.690233 0.377322
O O7 0.268427 0.541499 0.349166
O O8 0.703264 0.390168 0.312766
O O9 0.888221 0.269705 0.368725
O O10 0.500000 0.663400 0.750000
O O11 0.487506 0.507957 0.883750
#
# Coordination Sequence:
#
# PCOD9294497 Si02
#       5
#     8   8   8   8   8
#     4  10  23  40  67 100 138 186 228 279 362 409
#     4   9  23  40  68  97 140 181 226 290 347 406
#     4  11  22  43  71  95 144 179 231 292 346 415
#     4  11  21  40  72  98 133 179 237 282 347 411
#     4   9  22  40  66  97 131 179 234 277 351 410
#
# _framework density 25.674033000000001
#
# number of rings (size 3 to 8) (size 9 to 14) (size 15 to 20)
#    1.200    0.800    2.000    0.600    8.400    0.800 
#    0.000    4.000    0.000    0.000    0.000    0.000 
#    0.000    0.000    0.000    0.000    0.000    0.000 
#
# Total GULP energy -111665.490363 kJ/mol
# GULP energy per Si atom -5583.274518 kJ/mol
# Density = 2.561560 g / cm^3
# Si number density = 25.674033 Si / 1000 Ang^3
#
#
#
# Elastic Constant Matrix: (Units=GPa)
#
#
# Indices 1 2 3 4 5 6 
#
# 1 121.1555 62.0685 21.4301 0.0000 15.5929 0.0000
# 2 62.0685 106.9110 55.0994 0.0000 -8.0762 0.0000
# 3 21.4301 55.0994 131.6144 0.0000 14.0549 0.0000
# 4 0.0000 0.0000 0.0000 34.0892 0.0000 3.6289
# 5 15.5929 -8.0762 14.0549 0.0000 41.3998 0.0000
# 6 0.0000 0.0000 0.0000 3.6289 0.0000 58.2071
#
#
#
# Elastic Compliance Matrix: (Units=1/GPa)
#
#
# Indices 1 2 3 4 5 6 
#
# 1 0.014087 -0.010303 0.002906 0.000000 -0.008302 0.000000
# 2 -0.010303 0.020201 -0.007901 0.000000 0.010504 0.000000
# 3 0.002906 -0.007901 0.011117 0.000000 -0.006410 0.000000
# 4 0.000000 0.000000 0.000000 0.029531 0.000000 -0.001841
# 5 -0.008302 0.010504 -0.006410 0.000000 0.031507 0.000000
# 6 0.000000 0.000000 0.000000 -0.001841 0.000000 0.017295
#
#
# Mechanical properties :
#
#
# Convention : Reuss Voigt Hill
#
# Bulk Modulus (GPa) = 67.52837 70.76409 69.14623
# Shear Modulus (GPa) = 31.39356 41.47807 36.43582
#
# Velocity S-wave (km/s) = 3.50061 4.02377 3.77127
# Velocity P-wave (km/s) = 6.53440 7.01498 6.77895
#
# Compressibility (1/GPa) = 0.01480859
#
# Stress axis : x y z
#
# Youngs Moduli (GPa) = 70.98914 49.50350 89.95316
#
# Poissons Ratio (x) = 0.51004 -0.26143
# Poissons Ratio (y) = 0.73141 0.71071
# Poissons Ratio (z) = -0.20631 0.39112
#
# Static dielectric constant tensor:
#      x y z
#    x 2.123290 0.000000 -0.033310 
#    y 0.000000 2.004950 0.000000 
#    z -0.033310 0.000000 2.046020 
# 
# From -- ./inp_files/235838.got.cif
#   From: 2010.05.17/outbox.cif.g08.bks.cpg/sg15_118_cif.got.tgz:235838.got - 2010.06.03 18:47:42.
