data_PCOD9294967
_publ_section_title
;
Structure prediction by ZEFSAII (Michael W. Deem and Ramdas Pophale) SiO2 
 PCOD9294967
Probable space group: C 2/C
;
_chemical_formula_sum "Si O2"
_cell_formula_units_Z 60
_cell_length_a 23.531283
_cell_length_b 14.890006
_cell_length_c 8.412440
_cell_angle_alpha 90.000000
_cell_angle_beta 69.594999
_cell_angle_gamma 90.000000
_cell_volume 2762.603972
_symmetry_space_group_name_H-M "C 2/C"
_symmetry_group_IT_number 15
_symmetry_cell_setting 'monoclinic'
loop_
_space_group_symop_operation_xyz
x,y,z
-x,y,1/2-z
-x,-y,-z
x,-y,1/2+z
1/2+x,1/2+y,z
1/2-x,1/2+y,1/2-z
1/2-x,1/2-y,-z
1/2+x,1/2-y,1/2+z
loop_
_atom_site_type_symbol
_atom_site_label
_atom_site_fract_x
_atom_site_fract_y
_atom_site_fract_z
Si Si1 0.870221 0.070518 0.804197
Si Si2 0.711133 0.244432 0.697379
Si Si3 0.519410 0.311403 0.414866
Si Si4 0.296573 0.117397 0.270464
Si Si5 0.000000 0.495807 0.750000
Si Si6 0.607155 0.379518 0.852194
Si Si7 0.733557 0.928322 0.347635
Si Si8 0.434856 0.122060 0.043940
O O1 0.922710 0.124285 0.661512
O O2 0.804685 0.092449 0.797298
O O3 0.881948 0.964973 0.769473
O O4 0.871482 0.095539 0.989043
O O5 0.750000 0.250000 0.500000
O O6 0.752066 0.298946 0.785189
O O7 0.647383 0.296154 0.753423
O O8 0.704744 0.141153 0.752206
O O9 0.500000 0.291330 0.250000
O O10 0.463398 0.357321 0.558438
O O11 0.535726 0.219887 0.486638
O O12 0.297138 0.090371 0.453724
O O13 0.363998 0.135208 0.144174
O O14 0.272143 0.030937 0.199251
O O15 0.966190 0.433101 0.656738
O O16 0.049560 0.561035 0.622025
#
# Coordination Sequence:
#
# PCOD9294967 Si02
#       8
#     8   8   8   8   4   8   8   8
#     4  11  22  45  69  98 135 177 224 282 343 410
#     4  12  27  42  67 101 139 183 232 286 350 418
#     4  10  23  41  71  98 131 181 228 278 342 406
#     4  12  25  43  69 101 134 188 226 291 354 415
#     4  10  24  42  68  92 134 182 220 294 342 408
#     4  11  25  44  70  98 138 178 225 281 347 406
#     4  12  24  42  69  98 141 178 235 286 352 419
#     4  11  23  44  66  98 136 175 236 281 349 415
#
# _framework density 21.718640000000001
#
# number of rings (size 3 to 8) (size 9 to 14) (size 15 to 20)
#    0.000    0.800    3.333    3.200    5.600    3.200 
#    2.400    0.000    0.000    0.000    0.000    0.000 
#    0.000    0.000    0.000    0.000    0.000    0.000 
#
# Total GULP energy -168021.178730 kJ/mol
# GULP energy per Si atom -5600.705958 kJ/mol
# Density = 2.166921 g / cm^3
# Si number density = 21.718640 Si / 1000 Ang^3
#
#
#
# Elastic Constant Matrix: (Units=GPa)
#
#
# Indices 1 2 3 4 5 6 
#
# 1 47.6377 26.4890 2.1289 0.0000 -25.0743 0.0000
# 2 26.4890 74.2880 -9.0762 0.0000 -7.3674 0.0000
# 3 2.1289 -9.0762 69.5224 0.0000 -17.0068 0.0000
# 4 0.0000 0.0000 0.0000 30.4472 0.0000 -8.3336
# 5 -25.0743 -7.3674 -17.0068 0.0000 32.2127 0.0000
# 6 0.0000 0.0000 0.0000 -8.3336 0.0000 36.4628
#
#
#
# Elastic Compliance Matrix: (Units=1/GPa)
#
#
# Indices 1 2 3 4 5 6 
#
# 1 0.047068 -0.012386 0.005984 0.000000 0.036964 0.000000
# 2 -0.012386 0.017581 0.001492 0.000000 -0.004833 0.000000
# 3 0.005984 0.001492 0.017935 0.000000 0.014468 0.000000
# 4 0.000000 0.000000 0.000000 0.035035 0.000000 0.008007
# 5 0.036964 -0.004833 0.014468 0.000000 0.066349 0.000000
# 6 0.000000 0.000000 0.000000 0.008007 0.000000 0.029255
#
#
# Mechanical properties :
#
#
# Convention : Reuss Voigt Hill
#
# Bulk Modulus (GPa) = 13.74325 25.61464 19.67894
# Shear Modulus (GPa) = 20.21861 31.28495 25.75178
#
# Velocity S-wave (km/s) = 3.05443 3.79946 3.44713
# Velocity P-wave (km/s) = 4.33370 5.57381 4.99241
#
# Compressibility (1/GPa) = 0.07276298
#
# Stress axis : x y z
#
# Youngs Moduli (GPa) = 21.24603 56.88048 55.75825
#
# Poissons Ratio (x) = 0.70453 -0.33365
# Poissons Ratio (y) = 0.26316 -0.08321
# Poissons Ratio (z) = -0.12713 -0.08488
#
# Static dielectric constant tensor:
#      x y z
#    x 1.780670 0.000000 0.029320 
#    y 0.000000 1.754250 0.000000 
#    z 0.029320 0.000000 1.776860 
# 
# From -- ./inp_files/61873.got.cif
#   From: 2010.05.17/outbox.cif.g08.bks.cpg/sg15_31_cif.got.tgz:61873.got - 2010.06.03 18:47:42.
