data_PCOD9294862
_publ_section_title
;
Structure prediction by ZEFSAII (Michael W. Deem and Ramdas Pophale) SiO2 
 PCOD9294862
Probable space group: C 2/C
;
_chemical_formula_sum "Si O2"
_cell_formula_units_Z 64
_cell_length_a 27.473958
_cell_length_b 16.602239
_cell_length_c 22.816704
_cell_angle_alpha 90.000000
_cell_angle_beta 163.228256
_cell_angle_gamma 90.000000
_cell_volume 3003.145696
_symmetry_space_group_name_H-M "C 2/C"
_symmetry_group_IT_number 15
_symmetry_cell_setting 'monoclinic'
loop_
_space_group_symop_operation_xyz
x,y,z
-x,y,1/2-z
-x,-y,-z
x,-y,1/2+z
1/2+x,1/2+y,z
1/2-x,1/2+y,1/2-z
1/2-x,1/2-y,-z
1/2+x,1/2-y,1/2+z
loop_
_atom_site_type_symbol
_atom_site_label
_atom_site_fract_x
_atom_site_fract_y
_atom_site_fract_z
Si Si1 0.309101 0.528892 0.708727
Si Si2 0.134213 0.158562 0.240877
Si Si3 0.498977 0.326496 0.033582
Si Si4 0.311033 0.597810 0.922382
Si Si5 0.181377 0.213998 0.480588
Si Si6 0.427431 0.071525 0.957580
Si Si7 0.237168 0.308563 0.828884
Si Si8 0.479192 0.435691 0.156798
O O1 0.316568 0.432776 0.717539
O O2 0.459900 0.578830 0.913911
O O3 0.152055 0.549547 0.570691
O O4 0.351980 0.556183 0.689956
O O5 0.289753 0.211441 0.441739
O O6 0.041703 0.198066 0.078906
O O7 0.986074 0.146340 0.117190
O O8 0.657526 0.279753 0.245183
O O9 0.331894 0.307669 0.876537
O O10 0.215574 0.605681 0.750961
O O11 0.224957 0.640255 0.878811
O O12 0.358837 0.505960 0.991647
O O13 0.250000 0.250000 0.500000
O O14 0.000000 0.186047 0.250000
O O15 0.575282 0.134348 0.139606
O O16 0.500000 0.000000 0.000000
O O17 0.379463 0.350958 0.033322
O O18 0.500000 0.449880 0.250000
#
# Coordination Sequence:
#
# PCOD9294862 Si02
#       8
#     8   8   8   8   8   8   8   8
#     4  10  23  41  68 101 128 174 221 280 338 408
#     4  11  23  39  67  93 133 175 221 273 343 397
#     4  11  22  40  67  98 130 165 220 280 355 401
#     4  11  23  42  67  93 133 182 217 278 336 395
#     4  12  26  43  62  94 136 185 231 263 314 406
#     4  12  22  40  66 106 137 162 224 286 344 399
#     4  11  24  40  65  99 132 171 211 280 337 396
#     4  10  23  45  70  92 130 182 228 265 338 409
#
# _framework density 21.310988999999999
#
# number of rings (size 3 to 8) (size 9 to 14) (size 15 to 20)
#    0.000    1.000    3.750    3.000    5.250    2.000 
#    0.000    3.125    0.000    0.750    0.000    0.000 
#    0.000    0.000    0.000    0.000    0.000    0.000 
#
# Total GULP energy -178263.784561 kJ/mol
# GULP energy per Si atom -5570.743268 kJ/mol
# Density = 2.126248 g / cm^3
# Si number density = 21.310989 Si / 1000 Ang^3
#
#
#
# Elastic Constant Matrix: (Units=GPa)
#
#
# Indices 1 2 3 4 5 6 
#
# 1 110.9559 18.2251 25.8260 0.0146 14.3527 0.0046
# 2 18.2251 94.4573 20.2819 0.0296 2.7164 0.0168
# 3 25.8260 20.2819 48.4352 0.0193 5.8036 0.0201
# 4 0.0146 0.0296 0.0193 32.6626 0.0046 2.7768
# 5 14.3527 2.7164 5.8036 0.0046 30.6770 0.0061
# 6 0.0046 0.0168 0.0201 2.7768 0.0061 25.9976
#
#
#
# Elastic Compliance Matrix: (Units=1/GPa)
#
#
# Indices 1 2 3 4 5 6 
#
# 1 0.010830 -0.000920 -0.004903 -0.000001 -0.004058 0.000004
# 2 -0.000920 0.011711 -0.004441 -0.000007 0.000234 -0.000003
# 3 -0.004903 -0.004441 0.025373 -0.000007 -0.002113 -0.000015
# 4 -0.000001 -0.000007 -0.000007 0.030897 -0.000002 -0.003300
# 5 -0.004058 0.000234 -0.002113 -0.000002 0.034875 -0.000006
# 6 0.000004 -0.000003 -0.000015 -0.003300 -0.000006 0.038818
#
#
# Mechanical properties :
#
#
# Convention : Reuss Voigt Hill
#
# Bulk Modulus (GPa) = 36.51569 42.50160 39.50865
# Shear Modulus (GPa) = 27.44815 30.50181 28.97498
#
# Velocity S-wave (km/s) = 3.59274 3.78732 3.69131
# Velocity P-wave (km/s) = 5.86364 6.25395 6.06193
#
# Compressibility (1/GPa) = 0.02738549
#
# Stress axis : x y z
#
# Youngs Moduli (GPa) = 92.33740 85.38788 39.41120
#
# Poissons Ratio (x) = 0.07856 0.19324
# Poissons Ratio (y) = 0.08496 0.17504
# Poissons Ratio (z) = 0.45274 0.37924
#
# Static dielectric constant tensor:
#      x y z
#    x 1.846540 -0.000010 0.046990 
#    y -0.000010 1.839250 -0.000010 
#    z 0.046990 -0.000010 1.796620 
# 
# From -- ./inp_files/256046.got.cif
#   From: 2010.05.17/outbox.cif.g08.bks.cpg/sg15_129_cif.got.tgz:256046.got - 2010.06.03 18:47:42.
