data_PCOD9294183
_publ_section_title
;
Structure prediction by ZEFSAII (Michael W. Deem and Ramdas Pophale) SiO2 
 PCOD9294183
Probable space group: C 2/C
;
_chemical_formula_sum "Si O2"
_cell_formula_units_Z 48
_cell_length_a 16.347958
_cell_length_b 27.353804
_cell_length_c 13.101461
_cell_angle_alpha 90.000000
_cell_angle_beta 154.058566
_cell_angle_gamma 90.000000
_cell_volume 2562.899495
_symmetry_space_group_name_H-M "C 2/C"
_symmetry_group_IT_number 15
_symmetry_cell_setting 'monoclinic'
loop_
_space_group_symop_operation_xyz
x,y,z
-x,y,1/2-z
-x,-y,-z
x,-y,1/2+z
1/2+x,1/2+y,z
1/2-x,1/2+y,1/2-z
1/2-x,1/2-y,-z
1/2+x,1/2-y,1/2+z
loop_
_atom_site_type_symbol
_atom_site_label
_atom_site_fract_x
_atom_site_fract_y
_atom_site_fract_z
Si Si1 0.556535 0.394311 0.697736
Si Si2 0.672654 0.225255 0.308068
Si Si3 0.617748 0.028841 0.978802
Si Si4 0.695216 0.056310 0.708674
Si Si5 0.613532 0.140039 0.470206
Si Si6 0.004347 0.820963 0.057244
O O1 0.500000 0.378683 0.750000
O O2 0.390795 0.430800 0.479081
O O3 0.549013 0.350324 0.605349
O O4 0.747799 0.425817 0.901537
O O5 0.750000 0.250000 0.500000
O O6 0.497155 0.190310 0.133618
O O7 0.829575 0.191820 0.432299
O O8 0.603291 0.268078 0.154661
O O9 0.500000 0.011236 0.750000
O O10 0.458099 0.042501 0.880571
O O11 0.724360 0.984800 0.154922
O O12 0.611931 0.104752 0.563717
O O13 0.500000 0.116950 0.250000
O O14 0.833725 0.149408 0.700685
#
# Coordination Sequence:
#
# PCOD9294183 Si02
#       6
#     8   8   8   8   8   8
#     4  11  23  43  63  86 124 166 203 250 304 361
#     4  12  21  37  60  87 123 162 196 249 317 363
#     4  11  21  41  66  90 119 158 202 248 311 365
#     4  10  23  39  63  92 120 157 202 253 300 365
#     4  11  21  35  58  88 125 155 197 249 303 364
#     4  11  23  36  59  88 117 160 207 243 300 367
#
# _framework density 18.728788000000002
#
# number of rings (size 3 to 8) (size 9 to 14) (size 15 to 20)
#    0.000    1.000    5.000    2.500    0.000    0.000 
#    0.000    0.833    0.000    0.000    0.000    0.000 
#    0.000    0.000    0.000    0.000    0.000    0.000 
#
# Total GULP energy -133801.528183 kJ/mol
# GULP energy per Si atom -5575.063674 kJ/mol
# Density = 1.868616 g / cm^3
# Si number density = 18.728788 Si / 1000 Ang^3
#
#
#
# Elastic Constant Matrix: (Units=GPa)
#
#
# Indices 1 2 3 4 5 6 
#
# 1 109.8041 40.1829 49.5072 0.0000 0.6109 0.0000
# 2 40.1829 65.1862 16.9698 0.0000 -5.2422 0.0000
# 3 49.5072 16.9698 80.3512 -0.0001 -3.6184 0.0000
# 4 0.0000 0.0000 -0.0001 21.4794 0.0000 4.3265
# 5 0.6109 -5.2422 -3.6184 0.0000 26.2980 0.0000
# 6 0.0000 0.0000 0.0000 4.3265 0.0000 14.4641
#
#
#
# Elastic Compliance Matrix: (Units=1/GPa)
#
#
# Indices 1 2 3 4 5 6 
#
# 1 0.015628 -0.007762 -0.008126 0.000000 -0.003028 0.000000
# 2 -0.007762 0.020293 0.000691 0.000000 0.004321 0.000000
# 3 -0.008126 0.000691 0.017429 0.000000 0.002725 0.000000
# 4 0.000000 0.000000 0.000000 0.049541 0.000000 -0.014819
# 5 -0.003028 0.004321 0.002725 0.000000 0.039332 0.000000
# 6 0.000000 0.000000 0.000000 -0.014819 0.000000 0.073569
#
#
# Mechanical properties :
#
#
# Convention : Reuss Voigt Hill
#
# Bulk Modulus (GPa) = 43.56119 52.07351 47.81735
# Shear Modulus (GPa) = 19.69754 22.36039 21.02896
#
# Velocity S-wave (km/s) = 3.24655 3.45904 3.35448
# Velocity P-wave (km/s) = 6.11252 6.61949 6.37105
#
# Compressibility (1/GPa) = 0.02295621
#
# Stress axis : x y z
#
# Youngs Moduli (GPa) = 63.98642 49.27844 57.37572
#
# Poissons Ratio (x) = 0.38249 0.46625
# Poissons Ratio (y) = 0.49665 -0.03966
# Poissons Ratio (z) = 0.51997 -0.03406
#
# Static dielectric constant tensor:
#      x y z
#    x 1.681540 0.000000 0.020730 
#    y 0.000000 1.670300 0.000000 
#    z 0.020730 0.000000 1.675430 
# 
# From -- ./inp_files/101706.got.cif
#   From: 2010.05.17/outbox.cif.g08.bks.cpg/sg15_51_cif.got.tgz:101706.got - 2010.06.03 18:47:42.
