data_PCOD9294332
_publ_section_title
;
Structure prediction by ZEFSAII (Michael W. Deem and Ramdas Pophale) SiO2 
 PCOD9294332
Probable space group: C 2/C
;
_chemical_formula_sum "Si O2"
_cell_formula_units_Z 64
_cell_length_a 8.959926
_cell_length_b 28.829463
_cell_length_c 11.989013
_cell_angle_alpha 90.000000
_cell_angle_beta 80.696344
_cell_angle_gamma 90.000000
_cell_volume 3056.141998
_symmetry_space_group_name_H-M "C 2/C"
_symmetry_group_IT_number 15
_symmetry_cell_setting 'monoclinic'
loop_
_space_group_symop_operation_xyz
x,y,z
-x,y,1/2-z
-x,-y,-z
x,-y,1/2+z
1/2+x,1/2+y,z
1/2-x,1/2+y,1/2-z
1/2-x,1/2-y,-z
1/2+x,1/2-y,1/2+z
loop_
_atom_site_type_symbol
_atom_site_label
_atom_site_fract_x
_atom_site_fract_y
_atom_site_fract_z
Si Si1 0.874687 0.064264 0.999868
Si Si2 0.287382 0.710652 0.693401
Si Si3 0.619092 0.530139 0.133986
Si Si4 0.720205 0.343926 0.084617
Si Si5 0.972766 0.212087 0.037512
Si Si6 0.222783 0.816304 0.670853
Si Si7 0.319672 0.090082 0.265094
Si Si8 0.538527 0.182658 0.559499
O O1 0.748459 0.071523 0.110582
O O2 0.031191 0.059759 0.050000
O O3 0.869899 0.108922 0.922122
O O4 0.847468 0.018361 0.930443
O O5 0.325654 0.684023 0.800221
O O6 0.414256 0.709390 0.582481
O O7 0.250386 0.765009 0.717771
O O8 0.143501 0.685085 0.655182
O O9 0.500000 0.522993 0.250000
O O10 0.759129 0.556735 0.173022
O O11 0.679121 0.312170 0.983167
O O12 0.899850 0.352341 0.070468
O O13 0.062307 0.186825 0.126341
O O14 0.962592 0.266257 0.065002
O O15 0.247441 0.859662 0.747366
O O16 0.350127 0.821785 0.558833
O O17 0.500000 0.093147 0.250000
#
# Coordination Sequence:
#
# PCOD9294332 Si02
#       8
#     8   8   8   8   8   8   8   8
#     4  10  23  40  61  87 114 148 190 237 293 355
#     4   9  20  35  51  75 117 160 188 222 279 339
#     4   9  21  45  66  83 113 149 188 241 296 350
#     4  12  20  31  54  86 111 138 189 239 280 330
#     4   9  19  34  52  75 108 154 200 232 264 325
#     4   9  19  38  56  75 112 157 190 224 279 337
#     4  11  22  38  63  91 115 146 191 242 295 344
#     4   9  19  35  50  74 115 155 187 229 279 329
#
# _framework density 20.941434999999998
#
# number of rings (size 3 to 8) (size 9 to 14) (size 15 to 20)
#    0.000    2.250    0.000    4.125    0.000    5.500 
#    0.000    8.750    0.000    0.000    0.000    0.000 
#    0.000    0.000    0.000    0.000    0.000    0.000 
#
# Total GULP energy -178924.190872 kJ/mol
# GULP energy per Si atom -5591.380965 kJ/mol
# Density = 2.089377 g / cm^3
# Si number density = 20.941435 Si / 1000 Ang^3
#
#
#
# Elastic Constant Matrix: (Units=GPa)
#
#
# Indices 1 2 3 4 5 6 
#
# 1 83.3165 36.8273 39.6434 0.0000 28.1348 0.0000
# 2 36.8273 95.2681 68.7911 0.0000 35.8000 0.0000
# 3 39.6434 68.7911 121.2296 0.0000 20.3105 0.0000
# 4 0.0000 0.0000 0.0000 35.2765 0.0000 12.4043
# 5 28.1348 35.8000 20.3105 0.0000 30.2478 0.0000
# 6 0.0000 0.0000 0.0000 12.4043 0.0000 20.0904
#
#
#
# Elastic Compliance Matrix: (Units=1/GPa)
#
#
# Indices 1 2 3 4 5 6 
#
# 1 0.019089 0.002842 -0.004864 0.000000 -0.017853 0.000000
# 2 0.002842 0.029593 -0.012857 0.000000 -0.029035 0.000000
# 3 -0.004864 -0.012857 0.015580 0.000000 0.009279 0.000000
# 4 0.000000 0.000000 0.000000 0.036209 0.000000 -0.022356
# 5 -0.017853 -0.029035 0.009279 0.000000 0.077800 0.000000
# 6 0.000000 0.000000 0.000000 -0.022356 0.000000 0.063578
#
#
# Mechanical properties :
#
#
# Convention : Reuss Voigt Hill
#
# Bulk Modulus (GPa) = 28.98205 65.59309 47.28757
# Shear Modulus (GPa) = 17.66105 27.42642 22.54374
#
# Velocity S-wave (km/s) = 2.90721 3.62287 3.28459
# Velocity P-wave (km/s) = 5.01386 6.99216 6.08396
#
# Compressibility (1/GPa) = 0.03450412
#
# Stress axis : x y z
#
# Youngs Moduli (GPa) = 52.38486 33.79212 64.18332
#
# Poissons Ratio (x) = -0.09603 0.31218
# Poissons Ratio (y) = -0.14886 0.82521
# Poissons Ratio (z) = 0.25479 0.43447
#
# Static dielectric constant tensor:
#      x y z
#    x 1.775280 0.000000 -0.012620 
#    y 0.000000 1.729350 0.000000 
#    z -0.012620 0.000000 1.772560 
# 
# From -- ./inp_files/82608.got.cif
#   From: 2010.05.17/outbox.cif.g08.bks.cpg/sg15_42_cif.got.tgz:82608.got - 2010.06.03 18:47:42.
