data_PCOD9294712
_publ_section_title
;
Structure prediction by ZEFSAII (Michael W. Deem and Ramdas Pophale) SiO2 
 PCOD9294712
Probable space group: C 2/C
;
_chemical_formula_sum "Si O2"
_cell_formula_units_Z 48
_cell_length_a 12.989357
_cell_length_b 16.872690
_cell_length_c 11.573766
_cell_angle_alpha 90.000000
_cell_angle_beta 118.978113
_cell_angle_gamma 90.000000
_cell_volume 2219.002827
_symmetry_space_group_name_H-M "C 2/C"
_symmetry_group_IT_number 15
_symmetry_cell_setting 'monoclinic'
loop_
_space_group_symop_operation_xyz
x,y,z
-x,y,1/2-z
-x,-y,-z
x,-y,1/2+z
1/2+x,1/2+y,z
1/2-x,1/2+y,1/2-z
1/2-x,1/2-y,-z
1/2+x,1/2-y,1/2+z
loop_
_atom_site_type_symbol
_atom_site_label
_atom_site_fract_x
_atom_site_fract_y
_atom_site_fract_z
Si Si1 0.860966 0.793826 0.369908
Si Si2 0.508617 0.853964 0.535884
Si Si3 0.620738 0.122112 0.760897
Si Si4 0.821659 0.307445 0.619412
Si Si5 0.445321 0.535500 0.849719
Si Si6 0.701077 0.958680 0.764893
O O1 0.931399 0.727220 0.479477
O O2 0.735707 0.825608 0.347872
O O3 0.838668 0.744002 0.242521
O O4 0.933249 0.871373 0.373166
O O5 0.410916 0.881821 0.392083
O O6 0.436514 0.832174 0.611105
O O7 0.607526 0.918271 0.625764
O O8 0.500000 0.150815 0.750000
O O9 0.644714 0.030835 0.806623
O O10 0.750000 0.250000 0.500000
O O11 0.761701 0.388432 0.628587
O O12 0.500000 0.525418 0.750000
O O13 0.315541 0.496584 0.769466
O O14 0.500000 0.500000 0.000000
#
# Coordination Sequence:
#
# PCOD9294712 Si02
#       6
#     8   8   8   8   8   8
#     4  10  23  41  64  96 122 173 230 279 337 401
#     4  11  22  40  67  90 126 171 227 284 330 401
#     4  11  23  40  59  91 135 172 214 278 345 412
#     4  11  21  40  71  95 123 167 231 289 332 400
#     4  11  26  44  68  98 142 183 227 286 346 416
#     4  10  24  40  65 100 127 171 230 274 352 397
#
# _framework density 21.631336999999998
#
# number of rings (size 3 to 8) (size 9 to 14) (size 15 to 20)
#    0.000    1.333    1.667    4.500    4.667    3.333 
#    0.000    5.833    0.000    0.000    0.000    0.000 
#    0.000    0.000    0.000    0.000    0.000    0.000 
#
# Total GULP energy -133882.632419 kJ/mol
# GULP energy per Si atom -5578.443017 kJ/mol
# Density = 2.158210 g / cm^3
# Si number density = 21.631337 Si / 1000 Ang^3
#
#
#
# Elastic Constant Matrix: (Units=GPa)
#
#
# Indices 1 2 3 4 5 6 
#
# 1 94.3626 16.7026 1.9353 0.0000 -4.2211 0.0000
# 2 16.7026 118.4461 17.2251 0.0000 4.3099 0.0000
# 3 1.9353 17.2251 51.7902 0.0000 -3.5338 0.0000
# 4 0.0000 0.0000 0.0000 18.1917 0.0000 15.7832
# 5 -4.2211 4.3099 -3.5338 0.0000 25.1864 0.0000
# 6 0.0000 0.0000 0.0000 15.7832 0.0000 17.8945
#
#
#
# Elastic Compliance Matrix: (Units=1/GPa)
#
#
# Indices 1 2 3 4 5 6 
#
# 1 0.010984 -0.001670 0.000293 0.000000 0.002168 0.000000
# 2 -0.001670 0.009222 -0.003162 0.000000 -0.002302 0.000000
# 3 0.000293 -0.003162 0.020587 0.000000 0.003479 0.000000
# 4 0.000000 0.000000 0.000000 0.234155 0.000000 -0.206528
# 5 0.002168 -0.002302 0.003479 0.000000 0.040949 0.000000
# 6 0.000000 0.000000 0.000000 -0.206528 0.000000 0.238043
#
#
# Mechanical properties :
#
#
# Convention : Reuss Voigt Hill
#
# Bulk Modulus (GPa) = 31.53155 37.36943 34.45049
# Shear Modulus (GPa) = 8.71704 27.50358 18.11031
#
# Velocity S-wave (km/s) = 2.00962 3.56964 2.89662
# Velocity P-wave (km/s) = 4.47138 5.85686 5.21038
#
# Compressibility (1/GPa) = 0.03171427
#
# Stress axis : x y z
#
# Youngs Moduli (GPa) = 91.04104 108.43921 48.57515
#
# Poissons Ratio (x) = 0.18114 -0.01423
# Poissons Ratio (y) = 0.15208 0.15358
# Poissons Ratio (z) = -0.02668 0.34286
#
# Static dielectric constant tensor:
#      x y z
#    x 1.801800 0.000000 -0.009340 
#    y 0.000000 1.859960 0.000000 
#    z -0.009340 0.000000 1.787280 
# 
# From -- ./inp_files/87855.got.cif
#   From: 2010.05.17/outbox.cif.g08.bks.cpg/sg15_44_cif.got.tgz:87855.got - 2010.06.03 18:47:42.
