data_PCOD9294952
_publ_section_title
;
Structure prediction by ZEFSAII (Michael W. Deem and Ramdas Pophale) SiO2 
 PCOD9294952
Probable space group: C 2/C
;
_chemical_formula_sum "Si O2"
_cell_formula_units_Z 40
_cell_length_a 8.458500
_cell_length_b 23.035369
_cell_length_c 18.800605
_cell_angle_alpha 90.000000
_cell_angle_beta 150.071660
_cell_angle_gamma 90.000000
_cell_volume 1827.629637
_symmetry_space_group_name_H-M "C 2/C"
_symmetry_group_IT_number 15
_symmetry_cell_setting 'monoclinic'
loop_
_space_group_symop_operation_xyz
x,y,z
-x,y,1/2-z
-x,-y,-z
x,-y,1/2+z
1/2+x,1/2+y,z
1/2-x,1/2+y,1/2-z
1/2-x,1/2-y,-z
1/2+x,1/2-y,1/2+z
loop_
_atom_site_type_symbol
_atom_site_label
_atom_site_fract_x
_atom_site_fract_y
_atom_site_fract_z
Si Si1 0.218317 0.757625 0.267129
Si Si2 0.323136 0.335592 0.537669
Si Si3 0.129318 0.034289 0.618285
Si Si4 0.616341 0.337563 0.102347
Si Si5 0.804743 0.041731 0.104307
O O1 0.410620 0.700663 0.315878
O O2 0.496081 0.800293 0.404430
O O3 0.042653 0.789591 0.133049
O O4 0.000000 0.746701 0.250000
O O5 0.463879 0.333761 0.512125
O O6 0.246447 0.399614 0.536264
O O7 0.500000 0.040369 0.750000
O O8 0.996107 0.098919 0.577353
O O9 0.000000 0.000000 0.500000
O O10 0.047550 0.996933 0.654122
O O11 0.000000 0.336613 0.250000
O O12 0.000000 0.058993 0.250000
O O13 0.500000 0.000000 0.000000
#
# Coordination Sequence:
#
# PCOD9294952 Si02
#       5
#     8   8   8   8   8
#     4  10  23  41  70  97 133 182 236 291 348 408
#     4  10  23  45  62  99 140 176 232 287 349 422
#     4  11  22  42  69 100 136 182 234 282 354 431
#     4   9  20  39  67  92 133 181 223 283 346 416
#     4  12  28  44  70 107 142 183 232 301 358 416
#
# _framework density 21.886272999999999
#
# number of rings (size 3 to 8) (size 9 to 14) (size 15 to 20)
#    0.000    1.600    2.000    1.200    8.400    5.600 
#    3.600    0.000    0.000    0.000    0.000    0.000 
#    0.000    0.000    0.000    0.000    0.000    0.000 
#
# Total GULP energy -111624.848537 kJ/mol
# GULP energy per Si atom -5581.242427 kJ/mol
# Density = 2.183646 g / cm^3
# Si number density = 21.886273 Si / 1000 Ang^3
#
#
#
# Elastic Constant Matrix: (Units=GPa)
#
#
# Indices 1 2 3 4 5 6 
#
# 1 93.4389 43.5972 23.5292 -0.0023 0.0160 0.0003
# 2 43.5972 147.3912 43.2482 -0.0059 6.6572 -0.0023
# 3 23.5292 43.2482 62.0596 0.0161 -13.1325 0.0025
# 4 -0.0023 -0.0059 0.0161 23.1948 0.0000 -1.4667
# 5 0.0160 6.6572 -13.1325 0.0000 28.3362 -0.0003
# 6 0.0003 -0.0023 0.0025 -1.4667 -0.0003 18.8877
#
#
#
# Elastic Compliance Matrix: (Units=1/GPa)
#
#
# Indices 1 2 3 4 5 6 
#
# 1 0.012799 -0.002871 -0.003005 0.000003 -0.000725 0.000000
# 2 -0.002871 0.009949 -0.007028 0.000007 -0.005593 0.000003
# 3 -0.003005 -0.007028 0.024947 -0.000020 0.013215 -0.000005
# 4 0.000003 0.000007 -0.000020 0.043326 -0.000011 0.003364
# 5 -0.000725 -0.005593 0.013215 -0.000011 0.042729 -0.000003
# 6 0.000000 0.000003 -0.000005 0.003364 -0.000003 0.053206
#
#
# Mechanical properties :
#
#
# Convention : Reuss Voigt Hill
#
# Bulk Modulus (GPa) = 45.69184 58.18210 51.93697
# Shear Modulus (GPa) = 22.72116 26.91809 24.81963
#
# Velocity S-wave (km/s) = 3.22552 3.51081 3.37119
# Velocity P-wave (km/s) = 5.89867 6.56322 6.23980
#
# Compressibility (1/GPa) = 0.02188575
#
# Stress axis : x y z
#
# Youngs Moduli (GPa) = 78.13291 100.51501 40.08503
#
# Poissons Ratio (x) = 0.28860 0.12046
# Poissons Ratio (y) = 0.22434 0.28172
# Poissons Ratio (z) = 0.23480 0.70642
#
# Static dielectric constant tensor:
#      x y z
#    x 1.761040 0.000000 0.001140 
#    y 0.000000 1.831080 -0.000010 
#    z 0.001140 -0.000010 1.787260 
# 
# From -- ./inp_files/193443.got.cif
#   From: 2010.05.17/outbox.cif.g08.bks.cpg/sg15_97_cif.got.tgz:193443.got - 2010.06.03 18:47:42.
