data_PCOD9294637
_publ_section_title
;
Structure prediction by ZEFSAII (Michael W. Deem and Ramdas Pophale) SiO2 
 PCOD9294637
Probable space group: C 2/C
;
_chemical_formula_sum "Si O2"
_cell_formula_units_Z 40
_cell_length_a 9.647290
_cell_length_b 16.925299
_cell_length_c 14.409109
_cell_angle_alpha 90.000000
_cell_angle_beta 43.098545
_cell_angle_gamma 90.000000
_cell_volume 1607.539953
_symmetry_space_group_name_H-M "C 2/C"
_symmetry_group_IT_number 15
_symmetry_cell_setting 'monoclinic'
loop_
_space_group_symop_operation_xyz
x,y,z
-x,y,1/2-z
-x,-y,-z
x,-y,1/2+z
1/2+x,1/2+y,z
1/2-x,1/2+y,1/2-z
1/2-x,1/2-y,-z
1/2+x,1/2-y,1/2+z
loop_
_atom_site_type_symbol
_atom_site_label
_atom_site_fract_x
_atom_site_fract_y
_atom_site_fract_z
Si Si1 0.510289 0.594807 0.887233
Si Si2 0.021886 0.789979 0.842329
Si Si3 0.460640 0.766062 0.574880
Si Si4 0.788793 0.935863 0.012430
Si Si5 0.089529 0.581325 0.919092
O O1 0.442391 0.686130 0.931618
O O2 0.339912 0.527418 0.967289
O O3 0.679409 0.583529 0.725874
O O4 0.642033 0.578019 0.916261
O O5 0.263812 0.782154 0.734392
O O6 0.000000 0.754631 0.750000
O O7 0.939057 0.879269 0.880242
O O8 0.921164 0.755339 0.984464
O O9 0.561855 0.850119 0.508193
O O10 0.563601 0.908603 0.094551
O O11 0.000000 0.500000 0.000000
#
# Coordination Sequence:
#
# PCOD9294637 Si02
#       5
#     8   8   8   8   8
#     4  10  23  41  63  91 131 168 205 263 329 382
#     4  11  20  33  58  91 124 155 203 268 319 363
#     4  11  22  36  59  92 128 160 213 262 321 377
#     4  10  23  41  62  91 130 165 208 262 323 384
#     4  12  24  39  66  96 125 170 219 264 315 384
#
# _framework density 24.882739000000001
#
# number of rings (size 3 to 8) (size 9 to 14) (size 15 to 20)
#    0.000    1.200    4.000    2.400    2.800    0.000 
#    0.000    1.000    0.000    0.000    0.000    0.000 
#    0.000    0.000    0.000    0.000    0.000    0.000 
#
# Total GULP energy -111725.707102 kJ/mol
# GULP energy per Si atom -5586.285355 kJ/mol
# Density = 2.482610 g / cm^3
# Si number density = 24.882739 Si / 1000 Ang^3
#
#
#
# Elastic Constant Matrix: (Units=GPa)
#
#
# Indices 1 2 3 4 5 6 
#
# 1 98.2333 31.2879 12.9715 -0.0001 -17.4574 0.0005
# 2 31.2879 191.3795 39.5309 0.0001 -9.5446 0.0000
# 3 12.9715 39.5309 129.3793 0.0001 -1.6297 0.0004
# 4 -0.0001 0.0001 0.0001 33.8461 0.0000 -0.5376
# 5 -17.4574 -9.5446 -1.6297 0.0000 24.2005 -0.0003
# 6 0.0005 0.0000 0.0004 -0.5376 -0.0003 28.2851
#
#
#
# Elastic Compliance Matrix: (Units=1/GPa)
#
#
# Indices 1 2 3 4 5 6 
#
# 1 0.012182 -0.001444 -0.000677 0.000000 0.008172 0.000000
# 2 -0.001444 0.005856 -0.001630 0.000000 0.001158 0.000000
# 3 -0.000677 -0.001630 0.008288 0.000000 -0.000573 0.000000
# 4 0.000000 0.000000 0.000000 0.029554 0.000000 0.000562
# 5 0.008172 0.001158 -0.000573 0.000000 0.047635 0.000000
# 6 0.000000 0.000000 0.000000 0.000562 0.000000 0.035365
#
#
# Mechanical properties :
#
#
# Convention : Reuss Voigt Hill
#
# Bulk Modulus (GPa) = 53.12640 65.17474 59.15057
# Shear Modulus (GPa) = 32.75344 39.61310 36.18327
#
# Velocity S-wave (km/s) = 3.63204 3.99431 3.81747
# Velocity P-wave (km/s) = 6.24388 6.89364 6.57679
#
# Compressibility (1/GPa) = 0.01882303
#
# Stress axis : x y z
#
# Youngs Moduli (GPa) = 82.09163 170.77358 120.65844
#
# Poissons Ratio (x) = 0.24661 0.08170
# Poissons Ratio (y) = 0.11855 0.19665
# Poissons Ratio (z) = 0.05559 0.27833
#
# Static dielectric constant tensor:
#      x y z
#    x 2.121570 0.000000 0.037120 
#    y 0.000000 1.990170 0.000000 
#    z 0.037120 0.000000 1.932890 
# 
# From -- ./inp_files/29316.got.cif
#   From: 2010.05.17/outbox.cif.g08.bks.cpg/sg15_15_cif.got.tgz:29316.got - 2010.06.03 18:47:42.
