data_PCOD9294913
_publ_section_title
;
Structure prediction by ZEFSAII (Michael W. Deem and Ramdas Pophale) SiO2 
 PCOD9294913
Probable space group: C 2/C
;
_chemical_formula_sum "Si O2"
_cell_formula_units_Z 32
_cell_length_a 16.162517
_cell_length_b 11.499663
_cell_length_c 13.573522
_cell_angle_alpha 90.000000
_cell_angle_beta 154.708704
_cell_angle_gamma 90.000000
_cell_volume 1077.801440
_symmetry_space_group_name_H-M "C 2/C"
_symmetry_group_IT_number 15
_symmetry_cell_setting 'monoclinic'
loop_
_space_group_symop_operation_xyz
x,y,z
-x,y,1/2-z
-x,-y,-z
x,-y,1/2+z
1/2+x,1/2+y,z
1/2-x,1/2+y,1/2-z
1/2-x,1/2-y,-z
1/2+x,1/2-y,1/2+z
loop_
_atom_site_type_symbol
_atom_site_label
_atom_site_fract_x
_atom_site_fract_y
_atom_site_fract_z
Si Si1 0.649000 0.246723 0.727949
Si Si2 0.340485 0.500000 0.742961
Si Si3 0.851005 0.253277 0.772055
Si Si4 0.927496 0.499999 0.284312
O O1 0.650258 0.369806 0.789648
O O2 0.611096 0.244509 0.561412
O O3 0.388909 0.244509 0.438592
O O4 0.674743 0.121496 0.806144
O O5 0.349746 0.630193 0.710355
O O6 0.127878 0.500000 0.561315
O O7 0.500000 0.500000 0.000000
O O8 0.825262 0.378504 0.693859
O O9 0.000000 0.499998 0.250000
#
# Coordination Sequence:
#
# PCOD9294913 Si02
#       4
#     8   8   8   8
#     4  11  21  42  73  98 134 187 242 274 336 428
#     4  10  23  41  69 101 136 183 243 279 339 425
#     4  11  21  42  73  98 134 187 242 274 336 428
#     4  12  26  44  68 109 149 177 224 306 360 394
#
# _framework density 29.690069000000001
#
# number of rings (size 3 to 8) (size 9 to 14) (size 15 to 20)
#    0.000    1.000    5.000    2.250    0.000    2.000 
#    0.000    1.250    0.000    0.000    0.000    0.000 
#    0.000    0.000    0.000    0.000    0.000    0.000 
#
# Total GULP energy -89256.756035 kJ/mol
# GULP energy per Si atom -5578.547252 kJ/mol
# Density = 2.962249 g / cm^3
# Si number density = 29.690069 Si / 1000 Ang^3
#
#
#
# Elastic Constant Matrix: (Units=GPa)
#
#
# Indices 1 2 3 4 5 6 
#
# 1 161.8488 122.8867 61.3025 0.0005 28.1375 0.0001
# 2 122.8867 472.4349 16.4431 0.0002 -7.8805 0.0002
# 3 61.3025 16.4431 150.3107 0.0005 36.1063 0.0006
# 4 0.0005 0.0002 0.0005 34.2499 0.0005 41.8085
# 5 28.1375 -7.8805 36.1063 0.0005 52.9232 0.0003
# 6 0.0001 0.0002 0.0006 41.8085 0.0003 51.6262
#
#
#
# Elastic Compliance Matrix: (Units=1/GPa)
#
#
# Indices 1 2 3 4 5 6 
#
# 1 0.009794 -0.002509 -0.002846 -0.000009 -0.003640 0.000007
# 2 -0.002509 0.002782 0.000358 0.000002 0.001504 -0.000002
# 3 -0.002846 0.000358 0.008848 0.000007 -0.004470 -0.000006
# 4 -0.000009 0.000002 0.000007 2.550265 -0.000012 -2.065281
# 5 -0.003640 0.001504 -0.004470 -0.000012 0.024104 0.000009
# 6 0.000007 -0.000002 -0.000006 -2.065281 0.000009 1.691897
#
#
# Mechanical properties :
#
#
# Convention : Reuss Voigt Hill
#
# Bulk Modulus (GPa) = 87.49019 131.76212 109.62615
# Shear Modulus (GPa) = 1.16239 66.69068 33.92653
#
# Velocity S-wave (km/s) = 0.62638 4.74458 3.38404
# Velocity P-wave (km/s) = 5.48224 8.63077 7.22998
#
# Compressibility (1/GPa) = 0.01142985
#
# Stress axis : x y z
#
# Youngs Moduli (GPa) = 102.09815 359.44709 113.01728
#
# Poissons Ratio (x) = 0.90198 0.32163
# Poissons Ratio (y) = 0.25620 -0.04043
# Poissons Ratio (z) = 0.29055 -0.12858
#
# Static dielectric constant tensor:
#      x y z
#    x 2.458070 0.000000 0.266450 
#    y 0.000000 2.039720 0.000000 
#    z 0.266450 0.000000 2.779680 
# 
# From -- ./inp_files/161187.got.cif
#   From: 2010.05.17/outbox.cif.g08.bks.cpg/sg15_81_cif.got.tgz:161187.got - 2010.06.03 18:47:42.
