data_PCOD9294720
_publ_section_title
;
Structure prediction by ZEFSAII (Michael W. Deem and Ramdas Pophale) SiO2 
 PCOD9294720
Probable space group: C 2/C
;
_chemical_formula_sum "Si O2"
_cell_formula_units_Z 48
_cell_length_a 19.579783
_cell_length_b 15.228993
_cell_length_c 15.571751
_cell_angle_alpha 90.000000
_cell_angle_beta 152.746577
_cell_angle_gamma 90.000000
_cell_volume 2126.242466
_symmetry_space_group_name_H-M "C 2/C"
_symmetry_group_IT_number 15
_symmetry_cell_setting 'monoclinic'
loop_
_space_group_symop_operation_xyz
x,y,z
-x,y,1/2-z
-x,-y,-z
x,-y,1/2+z
1/2+x,1/2+y,z
1/2-x,1/2+y,1/2-z
1/2-x,1/2-y,-z
1/2+x,1/2-y,1/2+z
loop_
_atom_site_type_symbol
_atom_site_label
_atom_site_fract_x
_atom_site_fract_y
_atom_site_fract_z
Si Si1 0.530962 0.826505 0.884488
Si Si2 0.286928 0.324085 0.966883
Si Si3 0.707814 0.423561 0.224506
Si Si4 0.323007 0.163457 0.544291
Si Si5 0.418581 0.403539 0.828811
Si Si6 0.326851 0.525843 0.000815
O O1 0.500000 0.857374 0.750000
O O2 0.374081 0.834002 0.756660
O O3 0.583690 0.725602 0.938512
O O4 0.663159 0.878567 0.077533
O O5 0.333726 0.424090 0.036499
O O6 0.250000 0.250000 0.000000
O O7 0.643877 0.507245 0.202090
O O8 0.755400 0.459198 0.183816
O O9 0.556984 0.365941 0.038902
O O10 0.500000 0.169884 0.750000
O O11 0.250000 0.250000 0.500000
O O12 0.228558 0.153188 0.350912
O O13 0.269375 0.080263 0.539461
O O14 0.512501 0.433444 0.848799
#
# Coordination Sequence:
#
# PCOD9294720 Si02
#       6
#     8   8   8   8   8   8
#     4  10  23  41  64  97 145 177 240 275 345 412
#     4  10  24  39  65 100 137 186 228 286 341 414
#     4   9  22  44  69 103 139 184 233 284 359 412
#     4  12  27  47  74 102 138 185 244 295 355 428
#     4   9  22  44  73  97 141 180 232 283 364 413
#     4  10  23  46  69 103 139 187 235 291 351 422
#
# _framework density 22.575036000000001
#
# number of rings (size 3 to 8) (size 9 to 14) (size 15 to 20)
#    1.000    1.000    0.000    1.500    9.333    3.333 
#    6.000    0.000    0.000    0.000    0.000    0.000 
#    0.000    0.000    0.000    0.000    0.000    0.000 
#
# Total GULP energy -133607.643289 kJ/mol
# GULP energy per Si atom -5566.985137 kJ/mol
# Density = 2.252365 g / cm^3
# Si number density = 22.575036 Si / 1000 Ang^3
#
#
#
# Elastic Constant Matrix: (Units=GPa)
#
#
# Indices 1 2 3 4 5 6 
#
# 1 33.5836 7.3822 30.6936 0.0002 13.1784 0.0002
# 2 7.3822 97.1961 55.1329 0.0001 12.3228 0.0002
# 3 30.6936 55.1329 220.2466 0.0002 37.0722 0.0003
# 4 0.0002 0.0001 0.0002 29.0972 0.0002 7.3873
# 5 13.1784 12.3228 37.0722 0.0002 48.1842 0.0002
# 6 0.0002 0.0002 0.0003 7.3873 0.0002 2.9435
#
#
#
# Elastic Compliance Matrix: (Units=1/GPa)
#
#
# Indices 1 2 3 4 5 6 
#
# 1 0.036015 0.000382 -0.003952 0.000001 -0.006907 -0.000003
# 2 0.000382 0.012027 -0.002905 0.000000 -0.000945 -0.000001
# 3 -0.003952 -0.002905 0.006331 0.000000 -0.003047 0.000000
# 4 0.000001 0.000000 0.000000 0.094723 0.000000 -0.237727
# 5 -0.006907 -0.000945 -0.003047 0.000000 0.025229 -0.000002
# 6 -0.000003 -0.000001 0.000000 -0.237727 -0.000002 0.936358
#
#
# Mechanical properties :
#
#
# Convention : Reuss Voigt Hill
#
# Bulk Modulus (GPa) = 24.14087 59.71596 41.92841
# Shear Modulus (GPa) = 4.39583 33.23282 18.81433
#
# Velocity S-wave (km/s) = 1.39694 3.84096 2.89002
# Velocity P-wave (km/s) = 3.64949 6.79561 5.45431
#
# Compressibility (1/GPa) = 0.04142353
#
# Stress axis : x y z
#
# Youngs Moduli (GPa) = 27.76637 83.14626 157.94823
#
# Poissons Ratio (x) = -0.03177 0.62422
# Poissons Ratio (y) = -0.01061 0.45880
# Poissons Ratio (z) = 0.10973 0.24152
#
# Static dielectric constant tensor:
#      x y z
#    x 1.882700 0.000000 -0.110400 
#    y 0.000000 1.831060 0.000000 
#    z -0.110400 0.000000 1.966330 
# 
# From -- ./inp_files/168896.got.cif
#   From: 2010.05.17/outbox.cif.g08.bks.cpg/sg15_85_cif.got.tgz:168896.got - 2010.06.03 18:47:42.
