data_PCOD9294647
_publ_section_title
;
Structure prediction by ZEFSAII (Michael W. Deem and Ramdas Pophale) SiO2 
 PCOD9294647
Probable space group: C 2/C
;
_chemical_formula_sum "Si O2"
_cell_formula_units_Z 56
_cell_length_a 17.550277
_cell_length_b 16.814678
_cell_length_c 8.418432
_cell_angle_alpha 90.000000
_cell_angle_beta 85.095423
_cell_angle_gamma 90.000000
_cell_volume 2475.201946
_symmetry_space_group_name_H-M "C 2/C"
_symmetry_group_IT_number 15
_symmetry_cell_setting 'monoclinic'
loop_
_space_group_symop_operation_xyz
x,y,z
-x,y,1/2-z
-x,-y,-z
x,-y,1/2+z
1/2+x,1/2+y,z
1/2-x,1/2+y,1/2-z
1/2-x,1/2-y,-z
1/2+x,1/2-y,1/2+z
loop_
_atom_site_type_symbol
_atom_site_label
_atom_site_fract_x
_atom_site_fract_y
_atom_site_fract_z
Si Si1 0.784490 0.426607 0.165497
Si Si2 0.398631 0.344295 0.093136
Si Si3 0.962859 0.421707 0.081586
Si Si4 0.833426 0.830932 0.767748
Si Si5 0.468390 0.742023 0.073943
Si Si6 0.815647 0.013511 0.102612
Si Si7 0.716965 0.265574 0.180906
O O1 0.871119 0.432768 0.096015
O O2 0.764876 0.484451 0.311697
O O3 0.769258 0.338379 0.232610
O O4 0.715039 0.444282 0.052408
O O5 0.372244 0.437067 0.093245
O O6 0.365852 0.296640 0.251264
O O7 0.357214 0.311334 0.941458
O O8 0.486099 0.321679 0.041092
O O9 0.976593 0.332339 0.010206
O O10 0.000000 0.417130 0.250000
O O11 0.000000 0.500000 0.000000
O O12 0.882046 0.782924 0.627727
O O13 0.849396 0.921242 0.715629
O O14 0.743621 0.813445 0.766047
O O15 0.500000 0.738461 0.250000
O O16 0.750000 0.250000 0.000000
#
# Coordination Sequence:
#
# PCOD9294647 Si02
#       7
#     8   8   8   8   8   8   8
#     4  11  22  40  60  94 127 161 216 267 327 385
#     4  10  23  41  62  96 128 170 226 262 324 406
#     4  11  23  42  64  89 127 169 209 264 329 394
#     4  11  20  40  65  90 127 174 212 272 332 388
#     4   9  21  41  64  89 128 173 216 261 328 398
#     4  11  22  37  66  93 127 166 217 273 326 383
#     4  11  22  38  64  91 129 164 213 278 320 378
#
# _framework density 22.624416
#
# number of rings (size 3 to 8) (size 9 to 14) (size 15 to 20)
#    0.000    1.429    4.286    1.286    0.000    1.714 
#    2.571    0.714    0.000    0.000    0.000    0.000 
#    0.000    0.000    0.000    0.000    0.000    0.000 
#
# Total GULP energy -155920.204556 kJ/mol
# GULP energy per Si atom -5568.578734 kJ/mol
# Density = 2.257292 g / cm^3
# Si number density = 22.624416 Si / 1000 Ang^3
#
#
#
# Elastic Constant Matrix: (Units=GPa)
#
#
# Indices 1 2 3 4 5 6 
#
# 1 81.6175 21.7363 10.9312 0.0000 -13.3177 0.0000
# 2 21.7363 101.8876 14.2511 0.0000 -20.1153 0.0000
# 3 10.9312 14.2511 68.2888 0.0000 -5.0784 0.0000
# 4 0.0000 0.0000 0.0000 28.8459 0.0000 8.8531
# 5 -13.3177 -20.1153 -5.0784 0.0000 31.6334 0.0000
# 6 0.0000 0.0000 0.0000 8.8531 0.0000 -5.9514
#
#
#
# Elastic Compliance Matrix: (Units=1/GPa)
#
#
# Indices 1 2 3 4 5 6 
#
# 1 0.013650 -0.001850 -0.001477 0.000000 0.004333 0.000000
# 2 -0.001850 0.011706 -0.001671 0.000000 0.006397 0.000000
# 3 -0.001477 -0.001671 0.015286 0.000000 0.000770 0.000000
# 4 0.000000 0.000000 0.000000 0.023801 0.000000 0.035405
# 5 0.004333 0.006397 0.000770 0.000000 0.037628 0.000000
# 6 0.000000 0.000000 0.000000 0.035405 0.000000 -0.115360
#
#
# Mechanical properties :
#
#
# Convention : Reuss Voigt Hill
#
# Bulk Modulus (GPa) = 32.63026 38.40346 35.51686
# Shear Modulus (GPa) = 722.44424 24.56393 373.50408
#
# Velocity S-wave (km/s) = 17.88893 3.29861 12.86263
# Velocity P-wave (km/s) = 21.00331 5.61418 15.37300
#
# Compressibility (1/GPa) = 0.03064640
#
# Stress axis : x y z
#
# Youngs Moduli (GPa) = 73.26127 85.42624 65.41917
#
# Poissons Ratio (x) = 0.15804 0.09660
# Poissons Ratio (y) = 0.13553 0.10932
# Poissons Ratio (z) = 0.10818 0.14275
#
# Static dielectric constant tensor:
#      x y z
#    x 1.773590 0.000000 0.016140 
#    y 0.000000 1.889280 0.000000 
#    z 0.016140 0.000000 1.906120 
# 
# From -- ./inp_files/48985.got.cif
#   From: 2010.05.17/outbox.cif.g08.bks.cpg/sg15_25_cif.got.tgz:48985.got - 2010.06.03 18:47:42.
