data_PCOD9294693
_publ_section_title
;
Structure prediction by ZEFSAII (Michael W. Deem and Ramdas Pophale) SiO2 
 PCOD9294693
Probable space group: C 2/C
;
_chemical_formula_sum "Si O2"
_cell_formula_units_Z 64
_cell_length_a 24.746381
_cell_length_b 15.228177
_cell_length_c 15.879014
_cell_angle_alpha 90.000000
_cell_angle_beta 151.931206
_cell_angle_gamma 90.000000
_cell_volume 2815.604946
_symmetry_space_group_name_H-M "C 2/C"
_symmetry_group_IT_number 15
_symmetry_cell_setting 'monoclinic'
loop_
_space_group_symop_operation_xyz
x,y,z
-x,y,1/2-z
-x,-y,-z
x,-y,1/2+z
1/2+x,1/2+y,z
1/2-x,1/2+y,1/2-z
1/2-x,1/2-y,-z
1/2+x,1/2-y,1/2+z
loop_
_atom_site_type_symbol
_atom_site_label
_atom_site_fract_x
_atom_site_fract_y
_atom_site_fract_z
Si Si1 0.181971 0.636609 0.320906
Si Si2 0.943573 0.509974 0.753962
Si Si3 0.985015 0.230147 0.828911
Si Si4 0.415361 0.551520 0.711377
Si Si5 0.877898 0.184585 0.060767
Si Si6 0.210446 0.115554 0.391785
Si Si7 0.934468 0.666569 0.505575
Si Si8 0.346555 0.225580 0.803717
O O1 0.099247 0.556291 0.234263
O O2 0.128154 0.717257 0.298815
O O3 0.304831 0.600363 0.517820
O O4 0.166300 0.662335 0.201963
O O5 0.836861 0.572964 0.578736
O O6 0.000000 0.464211 0.750000
O O7 0.041347 0.571239 0.925750
O O8 0.973581 0.129501 0.844207
O O9 0.000000 0.231342 0.750000
O O10 0.095762 0.269928 0.026392
O O11 0.500000 0.532223 0.750000
O O12 0.373228 0.468658 0.708108
O O13 0.820456 0.180209 0.073299
O O14 0.918226 0.267760 0.061049
O O15 0.000000 0.141222 0.250000
O O16 0.763093 0.160087 0.849982
O O17 0.192538 0.178234 0.286335
O O18 0.049146 0.694991 0.612734
#
# Coordination Sequence:
#
# PCOD9294693 Si02
#       8
#     8   8   8   8   8   8   8   8
#     4  10  23  42  67  91 127 171 233 279 319 389
#     4  11  22  40  65  96 133 175 216 276 338 383
#     4  10  23  44  68  90 126 174 228 276 327 385
#     4  10  23  41  64  89 129 175 213 272 326 390
#     4  12  22  37  66  99 137 172 211 265 336 407
#     4  11  22  40  64  98 138 168 214 267 337 408
#     4  11  22  37  65  97 132 175 213 273 330 393
#     4  11  23  39  64  98 130 172 220 270 324 402
#
# _framework density 22.730460999999998
#
# number of rings (size 3 to 8) (size 9 to 14) (size 15 to 20)
#    0.000    1.250    2.500    3.750    3.500    0.500 
#    0.000    0.000    0.000    0.000    0.000    0.000 
#    0.000    0.000    0.000    0.000    0.000    0.000 
#
# Total GULP energy -178408.980692 kJ/mol
# GULP energy per Si atom -5575.280647 kJ/mol
# Density = 2.267873 g / cm^3
# Si number density = 22.730461 Si / 1000 Ang^3
#
#
#
# Elastic Constant Matrix: (Units=GPa)
#
#
# Indices 1 2 3 4 5 6 
#
# 1 89.9235 30.5540 27.3635 0.0000 1.3898 0.0000
# 2 30.5540 70.8617 3.6019 0.0000 -5.8624 0.0000
# 3 27.3635 3.6019 109.0478 0.0000 3.4092 0.0000
# 4 0.0000 0.0000 0.0000 77.1472 0.0000 51.8537
# 5 1.3898 -5.8624 3.4092 0.0000 38.8577 0.0000
# 6 0.0000 0.0000 0.0000 51.8537 0.0000 53.7433
#
#
#
# Elastic Compliance Matrix: (Units=1/GPa)
#
#
# Indices 1 2 3 4 5 6 
#
# 1 0.014207 -0.006050 -0.003330 0.000000 -0.001129 0.000000
# 2 -0.006050 0.016898 0.000876 0.000000 0.002689 0.000000
# 3 -0.003330 0.000876 0.009996 0.000000 -0.000626 0.000000
# 4 0.000000 0.000000 0.000000 0.036878 0.000000 -0.035581
# 5 -0.001129 0.002689 -0.000626 0.000000 0.026236 0.000000
# 6 0.000000 0.000000 0.000000 -0.035581 0.000000 0.052937
#
#
# Mechanical properties :
#
#
# Convention : Reuss Voigt Hill
#
# Bulk Modulus (GPa) = 41.50364 43.65240 42.57802
# Shear Modulus (GPa) = 27.44360 47.83719 37.64040
#
# Velocity S-wave (km/s) = 3.47846 4.59250 4.07375
# Velocity P-wave (km/s) = 5.86785 6.88241 6.39528
#
# Compressibility (1/GPa) = 0.02409427
#
# Stress axis : x y z
#
# Youngs Moduli (GPa) = 70.38854 59.17689 100.03517
#
# Poissons Ratio (x) = 0.35801 0.33310
# Poissons Ratio (y) = 0.42584 -0.08762
# Poissons Ratio (z) = 0.23438 -0.05183
#
# Static dielectric constant tensor:
#      x y z
#    x 1.844330 0.000000 0.046670 
#    y 0.000000 1.874970 0.000000 
#    z 0.046670 0.000000 1.892640 
# 
# From -- ./inp_files/174265.got.cif
#   From: 2010.05.17/outbox.cif.g08.bks.cpg/sg15_88_cif.got.tgz:174265.got - 2010.06.03 18:47:42.
