data_PCOD9294209
_publ_section_title
;
Structure prediction by ZEFSAII (Michael W. Deem and Ramdas Pophale) SiO2 
 PCOD9294209
Probable space group: C 2/C
;
_chemical_formula_sum "Si O2"
_cell_formula_units_Z 56
_cell_length_a 27.553226
_cell_length_b 19.401780
_cell_length_c 9.136870
_cell_angle_alpha 90.000000
_cell_angle_beta 151.026679
_cell_angle_gamma 90.000000
_cell_volume 2366.016038
_symmetry_space_group_name_H-M "C 2/C"
_symmetry_group_IT_number 15
_symmetry_cell_setting 'monoclinic'
loop_
_space_group_symop_operation_xyz
x,y,z
-x,y,1/2-z
-x,-y,-z
x,-y,1/2+z
1/2+x,1/2+y,z
1/2-x,1/2+y,1/2-z
1/2-x,1/2-y,-z
1/2+x,1/2-y,1/2+z
loop_
_atom_site_type_symbol
_atom_site_label
_atom_site_fract_x
_atom_site_fract_y
_atom_site_fract_z
Si Si1 0.333145 0.711040 0.814993
Si Si2 0.183988 0.083393 0.895774
Si Si3 0.983064 0.699316 0.032598
Si Si4 0.401561 0.152188 0.430217
Si Si5 0.319742 0.307208 0.602218
Si Si6 0.796368 0.050379 0.211058
Si Si7 0.564914 0.949874 0.069959
O O1 0.250000 0.750000 0.500000
O O2 0.374804 0.650066 0.823455
O O3 0.398713 0.778638 0.021910
O O4 0.291669 0.682418 0.858224
O O5 0.299898 0.109328 0.174875
O O6 0.180226 0.065270 0.057385
O O7 0.150592 0.016725 0.716129
O O8 0.928709 0.772360 0.877509
O O9 0.920564 0.629377 0.839276
O O10 0.000000 0.695956 0.250000
O O11 0.076620 0.682159 0.174631
O O12 0.500000 0.112818 0.750000
O O13 0.250000 0.250000 0.500000
O O14 0.317460 0.379073 0.679952
O O15 0.680407 0.028965 0.874900
O O16 0.500000 0.947989 0.750000
O O17 0.500000 0.000000 0.000000
#
# Coordination Sequence:
#
# PCOD9294209 Si02
#       7
#     8   8   8   8   8   8   8
#     4  10  23  39  64  91 127 172 220 275 321 392
#     4  11  25  41  65  99 131 178 220 270 336 396
#     4  11  25  38  63  94 126 173 222 275 329 392
#     4  11  21  42  65  95 132 170 219 268 337 390
#     4  12  23  42  63  91 131 171 231 269 331 395
#     4  12  24  41  66  93 137 178 219 275 330 404
#     4  11  23  39  57  90 131 173 210 264 325 392
#
# _framework density 23.668481
#
# number of rings (size 3 to 8) (size 9 to 14) (size 15 to 20)
#    0.000    0.857    2.857    5.143    6.000    2.286 
#    0.000    0.000    0.000    1.714    0.000    0.000 
#    0.000    0.000    0.000    0.000    0.000    0.000 
#
# Total GULP energy -156200.775713 kJ/mol
# GULP energy per Si atom -5578.599133 kJ/mol
# Density = 2.361461 g / cm^3
# Si number density = 23.668481 Si / 1000 Ang^3
#
#
#
# Elastic Constant Matrix: (Units=GPa)
#
#
# Indices 1 2 3 4 5 6 
#
# 1 128.6190 53.4646 20.6447 0.0000 -51.5968 0.0000
# 2 53.4646 204.5832 15.9465 0.0000 -28.4352 0.0000
# 3 20.6447 15.9465 41.1975 0.0000 -25.9038 0.0000
# 4 0.0000 0.0000 0.0000 17.7290 0.0000 -5.5427
# 5 -51.5968 -28.4352 -25.9038 0.0000 43.6519 0.0000
# 6 0.0000 0.0000 0.0000 -5.5427 0.0000 52.4953
#
#
#
# Elastic Compliance Matrix: (Units=1/GPa)
#
#
# Indices 1 2 3 4 5 6 
#
# 1 0.016198 -0.001698 0.006195 0.000000 0.021716 0.000000
# 2 -0.001698 0.005553 -0.000456 0.000000 0.001340 0.000000
# 3 0.006195 -0.000456 0.041097 0.000000 0.031412 0.000000
# 4 0.000000 0.000000 0.000000 0.058330 0.000000 0.006159
# 5 0.021716 0.001340 0.031412 0.000000 0.068091 0.000000
# 6 0.000000 0.000000 0.000000 0.006159 0.000000 0.019700
#
#
# Mechanical properties :
#
#
# Convention : Reuss Voigt Hill
#
# Bulk Modulus (GPa) = 14.09844 61.61238 37.85541
# Shear Modulus (GPa) = 22.26866 41.73149 32.00008
#
# Velocity S-wave (km/s) = 3.07067 4.20356 3.68096
# Velocity P-wave (km/s) = 4.30599 7.04612 5.83907
#
# Compressibility (1/GPa) = 0.07092982
#
# Stress axis : x y z
#
# Youngs Moduli (GPa) = 61.73645 180.06757 24.33274
#
# Poissons Ratio (x) = 0.30568 -0.15073
# Poissons Ratio (y) = 0.10480 0.01110
# Poissons Ratio (z) = -0.38243 0.08214
#
# Static dielectric constant tensor:
#      x y z
#    x 2.010980 0.000000 0.118370 
#    y 0.000000 2.038080 0.000000 
#    z 0.118370 0.000000 1.882620 
# 
# From -- ./inp_files/67132.got.cif
#   From: 2010.05.17/outbox.cif.g08.bks.cpg/sg15_34_cif.got.tgz:67132.got - 2010.06.03 18:47:42.
