data_PCOD9294341
_publ_section_title
;
Structure prediction by ZEFSAII (Michael W. Deem and Ramdas Pophale) SiO2 
 PCOD9294341
Probable space group: C 2/C
;
_chemical_formula_sum "Si O2"
_cell_formula_units_Z 60
_cell_length_a 7.894644
_cell_length_b 21.976889
_cell_length_c 25.053527
_cell_angle_alpha 90.000000
_cell_angle_beta 144.015454
_cell_angle_gamma 90.000000
_cell_volume 2554.024450
_symmetry_space_group_name_H-M "C 2/C"
_symmetry_group_IT_number 15
_symmetry_cell_setting 'monoclinic'
loop_
_space_group_symop_operation_xyz
x,y,z
-x,y,1/2-z
-x,-y,-z
x,-y,1/2+z
1/2+x,1/2+y,z
1/2-x,1/2+y,1/2-z
1/2-x,1/2-y,-z
1/2+x,1/2-y,1/2+z
loop_
_atom_site_type_symbol
_atom_site_label
_atom_site_fract_x
_atom_site_fract_y
_atom_site_fract_z
Si Si1 0.857353 0.057640 0.299531
Si Si2 0.835685 0.244950 0.356732
Si Si3 0.193673 0.709498 0.433476
Si Si4 0.465345 0.095071 0.039989
Si Si5 0.449182 0.878444 0.418496
Si Si6 0.915061 0.021950 0.036500
Si Si7 0.174980 0.181245 0.243825
Si Si8 0.000000 0.967254 0.250000
O O1 0.197014 0.076818 0.376919
O O2 0.846312 0.031836 0.356562
O O3 0.689656 0.120145 0.246634
O O4 0.809795 0.008538 0.241335
O O5 0.500000 0.238491 0.250000
O O6 0.885870 0.216929 0.428637
O O7 0.917114 0.315094 0.380521
O O8 0.995357 0.211478 0.348544
O O9 0.250000 0.750000 0.500000
O O10 0.141655 0.640308 0.440644
O O11 0.889854 0.727556 0.328173
O O12 0.295086 0.031605 0.996366
O O13 0.402067 0.130732 0.969230
O O14 0.746790 0.914507 0.487917
O O15 0.207097 0.924871 0.336816
O O16 0.000000 0.000000 0.000000
O O17 0.000000 0.159117 0.250000
#
# Coordination Sequence:
#
# PCOD9294341 Si02
#       8
#     8   8   8   8   8   8   8   4
#     4  11  21  41  66  94 124 174 223 265 329 405
#     4  10  23  40  61  95 130 167 218 272 329 391
#     4  11  22  40  65  95 130 172 218 274 330 395
#     4  11  20  41  66  91 125 170 220 262 325 408
#     4  11  21  40  66  92 124 173 218 258 332 409
#     4  11  25  42  61  98 134 164 214 286 340 390
#     4  11  23  42  64  96 132 173 226 276 323 400
#     4  12  18  36  70  90 114 164 222 262 312 402
#
# _framework density 23.492338
#
# number of rings (size 3 to 8) (size 9 to 14) (size 15 to 20)
#    0.000    1.067    6.667    0.800    1.867    0.000 
#    2.400    4.000    0.000    0.000    0.000    0.000 
#    0.000    0.000    0.000    0.000    0.000    0.000 
#
# Total GULP energy -167570.173168 kJ/mol
# GULP energy per Si atom -5585.672439 kJ/mol
# Density = 2.343887 g / cm^3
# Si number density = 23.492338 Si / 1000 Ang^3
#
#
#
# Elastic Constant Matrix: (Units=GPa)
#
#
# Indices 1 2 3 4 5 6 
#
# 1 88.7582 38.2689 37.5878 0.0032 -51.3154 0.0048
# 2 38.2689 131.7361 35.6737 0.0008 -30.2755 0.0022
# 3 37.5878 35.6737 113.5691 0.0084 -44.4120 0.0037
# 4 0.0032 0.0008 0.0084 52.0992 0.0032 -13.2144
# 5 -51.3154 -30.2755 -44.4120 0.0032 51.3391 0.0024
# 6 0.0048 0.0022 0.0037 -13.2144 0.0024 31.5634
#
#
#
# Elastic Compliance Matrix: (Units=1/GPa)
#
#
# Indices 1 2 3 4 5 6 
#
# 1 0.027660 -0.002176 0.002779 -0.000006 0.028768 -0.000009
# 2 -0.002176 0.009045 -0.001338 0.000000 0.002001 0.000000
# 3 0.002779 -0.001338 0.013727 -0.000004 0.013863 -0.000005
# 4 -0.000006 0.000000 -0.000004 0.021475 -0.000012 0.008991
# 5 0.028768 0.002001 0.013863 -0.000012 0.061406 -0.000016
# 6 -0.000009 0.000000 -0.000005 0.008991 -0.000016 0.035446
#
#
# Mechanical properties :
#
#
# Convention : Reuss Voigt Hill
#
# Bulk Modulus (GPa) = 20.42426 61.90267 41.16347
# Shear Modulus (GPa) = 26.80213 41.83588 34.31900
#
# Velocity S-wave (km/s) = 3.38137 4.22457 3.82627
# Velocity P-wave (km/s) = 4.89467 7.08543 6.08938
#
# Compressibility (1/GPa) = 0.04896138
#
# Stress axis : x y z
#
# Youngs Moduli (GPa) = 36.15284 110.55246 72.84748
#
# Poissons Ratio (x) = 0.24059 -0.20244
# Poissons Ratio (y) = 0.07868 0.09751
# Poissons Ratio (z) = -0.10046 0.14797
#
# Static dielectric constant tensor:
#      x y z
#    x 2.067690 0.000000 0.076480 
#    y 0.000000 1.848880 0.000000 
#    z 0.076480 0.000000 1.957940 
# 
# From -- ./inp_files/266258.got.cif
#   From: 2010.05.17/outbox.cif.g08.bks.cpg/sg15_134_cif.got.tgz:266258.got - 2010.06.03 18:47:42.
