data_PCOD9294354
_publ_section_title
;
Structure prediction by ZEFSAII (Michael W. Deem and Ramdas Pophale) SiO2 
 PCOD9294354
Probable space group: C 2/C
;
_chemical_formula_sum "Si O2"
_cell_formula_units_Z 56
_cell_length_a 9.466423
_cell_length_b 13.917844
_cell_length_c 22.965480
_cell_angle_alpha 90.000000
_cell_angle_beta 117.647086
_cell_angle_gamma 90.000000
_cell_volume 2680.279750
_symmetry_space_group_name_H-M "C 2/C"
_symmetry_group_IT_number 15
_symmetry_cell_setting 'monoclinic'
loop_
_space_group_symop_operation_xyz
x,y,z
-x,y,1/2-z
-x,-y,-z
x,-y,1/2+z
1/2+x,1/2+y,z
1/2-x,1/2+y,1/2-z
1/2-x,1/2-y,-z
1/2+x,1/2-y,1/2+z
loop_
_atom_site_type_symbol
_atom_site_label
_atom_site_fract_x
_atom_site_fract_y
_atom_site_fract_z
Si Si1 0.688518 0.480312 0.532740
Si Si2 0.835283 0.796427 0.886935
Si Si3 0.910532 0.666408 0.598871
Si Si4 0.353014 0.916710 0.267419
Si Si5 0.334409 0.133039 0.254525
Si Si6 0.326046 0.720577 0.848906
Si Si7 0.171226 0.827579 0.442210
O O1 0.500000 0.500000 0.500000
O O2 0.705980 0.395303 0.585449
O O3 0.796614 0.576053 0.559723
O O4 0.724315 0.429722 0.477430
O O5 0.797657 0.819580 0.812645
O O6 0.720962 0.712234 0.889185
O O7 0.012332 0.748781 0.928057
O O8 0.813530 0.721703 0.630661
O O9 0.065826 0.617643 0.657932
O O10 0.500000 0.917520 0.250000
O O11 0.223488 0.848971 0.213468
O O12 0.289565 0.023642 0.257093
O O13 0.500000 0.138704 0.250000
O O14 0.356332 0.180945 0.321394
O O15 0.482110 0.680484 0.909574
O O16 0.250000 0.750000 0.500000
#
# Coordination Sequence:
#
# PCOD9294354 Si02
#       7
#     8   8   8   8   8   8   8
#     4  11  23  43  66  89 127 173 215 267 324 390
#     4  11  23  41  65  94 124 168 220 265 330 394
#     4  11  23  41  67  95 127 169 220 268 329 401
#     4   9  20  35  60  92 125 161 205 258 324 390
#     4  11  20  35  66  92 126 170 209 260 333 396
#     4  11  20  39  65  94 131 166 207 275 324 388
#     4  10  23  40  62  92 127 169 220 263 317 392
#
# _framework density 20.893340999999999
#
# number of rings (size 3 to 8) (size 9 to 14) (size 15 to 20)
#    0.000    1.429    4.286    2.571    2.000    1.143 
#    0.000    1.429    9.429    0.000    0.000    0.000 
#    0.000    0.000    0.000    0.000    0.000    0.000 
#
# Total GULP energy -156071.407943 kJ/mol
# GULP energy per Si atom -5573.978855 kJ/mol
# Density = 2.084579 g / cm^3
# Si number density = 20.893341 Si / 1000 Ang^3
#
#
#
# Elastic Constant Matrix: (Units=GPa)
#
#
# Indices 1 2 3 4 5 6 
#
# 1 55.0172 17.8477 -1.7681 0.0000 10.5976 0.0000
# 2 17.8477 59.9181 3.6099 0.0000 7.2678 0.0000
# 3 -1.7681 3.6099 53.5118 0.0000 19.1350 0.0000
# 4 0.0000 0.0000 0.0000 25.4829 0.0000 4.5212
# 5 10.5976 7.2678 19.1350 0.0000 31.3768 0.0000
# 6 0.0000 0.0000 0.0000 4.5212 0.0000 28.4747
#
#
#
# Elastic Compliance Matrix: (Units=1/GPa)
#
#
# Indices 1 2 3 4 5 6 
#
# 1 0.021818 -0.005708 0.004180 0.000000 -0.008596 0.000000
# 2 -0.005708 0.018670 -0.000756 0.000000 -0.001936 0.000000
# 3 0.004180 -0.000756 0.024707 0.000000 -0.016304 0.000000
# 4 0.000000 0.000000 0.000000 0.040380 0.000000 -0.006411
# 5 -0.008596 -0.001936 -0.016304 0.000000 0.045165 0.000000
# 6 0.000000 0.000000 0.000000 -0.006411 0.000000 0.036137
#
#
# Mechanical properties :
#
#
# Convention : Reuss Voigt Hill
#
# Bulk Modulus (GPa) = 16.49459 23.09179 19.79319
# Shear Modulus (GPa) = 23.62356 26.98406 25.30381
#
# Velocity S-wave (km/s) = 3.36620 3.59766 3.48385
# Velocity P-wave (km/s) = 4.79794 5.32295 5.06725
#
# Compressibility (1/GPa) = 0.06062593
#
# Stress axis : x y z
#
# Youngs Moduli (GPa) = 45.83393 53.56177 40.47511
#
# Poissons Ratio (x) = 0.30573 -0.16917
# Poissons Ratio (y) = 0.26162 0.03060
# Poissons Ratio (z) = -0.19157 0.04049
#
# Static dielectric constant tensor:
#      x y z
#    x 1.770430 0.000000 -0.008960 
#    y 0.000000 1.781330 0.000000 
#    z -0.008960 0.000000 1.875960 
# 
# From -- ./inp_files/264807.got.cif
#   From: 2010.05.17/outbox.cif.g08.bks.cpg/sg15_133_cif.got.tgz:264807.got - 2010.06.03 18:47:42.
