data_PCOD9294353
_publ_section_title
;
Structure prediction by ZEFSAII (Michael W. Deem and Ramdas Pophale) SiO2 
 PCOD9294353
Probable space group: C 2/C
;
_chemical_formula_sum "Si O2"
_cell_formula_units_Z 56
_cell_length_a 11.250542
_cell_length_b 10.509509
_cell_length_c 26.297908
_cell_angle_alpha 90.000000
_cell_angle_beta 54.007054
_cell_angle_gamma 90.000000
_cell_volume 2515.785212
_symmetry_space_group_name_H-M "C 2/C"
_symmetry_group_IT_number 15
_symmetry_cell_setting 'monoclinic'
loop_
_space_group_symop_operation_xyz
x,y,z
-x,y,1/2-z
-x,-y,-z
x,-y,1/2+z
1/2+x,1/2+y,z
1/2-x,1/2+y,1/2-z
1/2-x,1/2-y,-z
1/2+x,1/2-y,1/2+z
loop_
_atom_site_type_symbol
_atom_site_label
_atom_site_fract_x
_atom_site_fract_y
_atom_site_fract_z
Si Si1 0.528929 0.494901 0.182731
Si Si2 0.403807 0.137130 0.165725
Si Si3 0.997327 0.349118 0.488117
Si Si4 0.304573 0.238947 0.390331
Si Si5 0.731119 0.264184 0.622299
Si Si6 0.226908 0.127748 0.305276
Si Si7 0.017234 0.639830 0.866006
O O1 0.500000 0.512292 0.250000
O O2 0.610933 0.361985 0.153698
O O3 0.635956 0.607753 0.137387
O O4 0.377681 0.514182 0.188928
O O5 0.568257 0.174630 0.109107
O O6 0.288089 0.223868 0.165373
O O7 0.369592 0.138339 0.234028
O O8 0.393978 0.990576 0.152774
O O9 0.158647 0.288078 0.454133
O O10 0.000000 0.500000 0.500000
O O11 0.874488 0.277479 0.551486
O O12 0.964527 0.331635 0.436414
O O13 0.261952 0.141536 0.355808
O O14 0.623764 0.148730 0.635173
O O15 0.130270 0.253712 0.319530
#
# Coordination Sequence:
#
# PCOD9294353 Si02
#       7
#     8   8   8   8   8   8   8
#     4  11  20  38  66  88 121 165 216 256 314 382
#     4  12  23  40  61  93 134 164 208 260 327 389
#     4  11  20  44  69  87 122 168 222 265 312 377
#     4  11  25  40  61  95 129 169 212 263 322 381
#     4  11  22  41  66  93 119 170 211 267 317 376
#     4  10  23  40  62  92 126 169 211 261 319 383
#     4  10  24  41  64  94 127 164 216 267 314 389
#
# _framework density 22.259450999999999
#
# number of rings (size 3 to 8) (size 9 to 14) (size 15 to 20)
#    0.000    1.143    4.286    2.571    2.000    1.714 
#    2.571    0.714    0.000    0.000    0.000    0.000 
#    0.000    0.000    0.000    0.000    0.000    0.000 
#
# Total GULP energy -156459.898873 kJ/mol
# GULP energy per Si atom -5587.853531 kJ/mol
# Density = 2.220879 g / cm^3
# Si number density = 22.259451 Si / 1000 Ang^3
#
#
#
# Elastic Constant Matrix: (Units=GPa)
#
#
# Indices 1 2 3 4 5 6 
#
# 1 83.6049 12.3985 -19.1132 0.0000 -12.3959 0.0000
# 2 12.3985 44.6535 5.8720 0.0000 -0.6625 0.0000
# 3 -19.1132 5.8720 80.6236 0.0000 -11.6836 0.0000
# 4 0.0000 0.0000 0.0000 22.0728 0.0000 2.1816
# 5 -12.3959 -0.6625 -11.6836 0.0000 29.4284 0.0000
# 6 0.0000 0.0000 0.0000 2.1816 0.0000 11.2781
#
#
#
# Elastic Compliance Matrix: (Units=1/GPa)
#
#
# Indices 1 2 3 4 5 6 
#
# 1 0.015057 -0.004730 0.005112 0.000000 0.008265 0.000000
# 2 -0.004730 0.024098 -0.003275 0.000000 -0.002750 0.000000
# 3 0.005112 -0.003275 0.015019 0.000000 0.008042 0.000000
# 4 0.000000 0.000000 0.000000 0.046188 0.000000 -0.008934
# 5 0.008265 -0.002750 0.008042 0.000000 0.040593 0.000000
# 6 0.000000 0.000000 0.000000 -0.008934 0.000000 0.090396
#
#
# Mechanical properties :
#
#
# Convention : Reuss Voigt Hill
#
# Bulk Modulus (GPa) = 20.66691 23.02183 21.84437
# Shear Modulus (GPa) = 19.74204 26.53749 23.13976
#
# Velocity S-wave (km/s) = 2.98133 3.45656 3.22770
# Velocity P-wave (km/s) = 4.59954 5.12790 4.87089
#
# Compressibility (1/GPa) = 0.04838653
#
# Stress axis : x y z
#
# Youngs Moduli (GPa) = 66.41624 41.49735 66.58177
#
# Poissons Ratio (x) = 0.19629 -0.34034
# Poissons Ratio (y) = 0.31416 0.21806
# Poissons Ratio (z) = -0.33950 0.13591
#
# Static dielectric constant tensor:
#      x y z
#    x 1.889440 0.000000 0.014180 
#    y 0.000000 1.806640 0.000000 
#    z 0.014180 0.000000 1.781170 
# 
# From -- ./inp_files/292212.got.cif
#   From: 2010.05.17/outbox.cif.g08.bks.cpg/sg15_147_cif.got.tgz:292212.got - 2010.06.03 18:47:42.
