data_PCOD9294699
_publ_section_title
;
Structure prediction by ZEFSAII (Michael W. Deem and Ramdas Pophale) SiO2 
 PCOD9294699
Probable space group: C 2/C
;
_chemical_formula_sum "Si O2"
_cell_formula_units_Z 28
_cell_length_a 6.968394
_cell_length_b 7.021109
_cell_length_c 19.605600
_cell_angle_alpha 90.000000
_cell_angle_beta 94.800452
_cell_angle_gamma 90.000000
_cell_volume 955.855965
_symmetry_space_group_name_H-M "C 2/C"
_symmetry_group_IT_number 15
_symmetry_cell_setting 'monoclinic'
loop_
_space_group_symop_operation_xyz
x,y,z
-x,y,1/2-z
-x,-y,-z
x,-y,1/2+z
1/2+x,1/2+y,z
1/2-x,1/2+y,1/2-z
1/2-x,1/2-y,-z
1/2+x,1/2-y,1/2+z
loop_
_atom_site_type_symbol
_atom_site_label
_atom_site_fract_x
_atom_site_fract_y
_atom_site_fract_z
Si Si1 0.130761 0.100747 0.845752
Si Si2 0.821559 0.548842 0.635418
Si Si3 0.500000 0.316050 0.750000
Si Si4 0.277213 0.526745 0.509991
O O1 0.164718 0.325182 0.845402
O O2 0.467780 0.174737 0.684587
O O3 0.244080 0.994739 0.910241
O O4 0.158852 0.974922 0.778838
O O5 0.597146 0.590958 0.643585
O O6 0.843077 0.574334 0.553425
O O7 0.500000 0.500000 0.500000
O O8 0.250000 0.750000 0.500000
#
# Coordination Sequence:
#
# PCOD9294699 Si02
#       4
#     8   8   4   8
#     4  10  23  41  64  92 130 172 224 275 337 400
#     4  10  23  41  64  92 130 172 224 275 337 400
#     4  12  26  34  62  90 132 174 214 278 336 416
#     4   8  16  37  62  87 120 168 219 276 325 393
#
# _framework density 29.293115
#
# number of rings (size 3 to 8) (size 9 to 14) (size 15 to 20)
#    0.000    2.286    0.000    0.857    8.000    1.143 
#    0.000    0.000    0.000   20.571    0.000    0.000 
#    0.000    0.000    0.000    0.000    0.000    0.000 
#
# Total GULP energy -78366.552878 kJ/mol
# GULP energy per Si atom -5597.610920 kJ/mol
# Density = 2.922644 g / cm^3
# Si number density = 29.293115 Si / 1000 Ang^3
#
#
#
# Elastic Constant Matrix: (Units=GPa)
#
#
# Indices 1 2 3 4 5 6 
#
# 1 149.1441 66.2985 37.9321 0.0000 25.5028 0.0000
# 2 66.2985 186.1533 44.2107 0.0000 14.9032 0.0000
# 3 37.9321 44.2107 287.4087 0.0000 59.7758 0.0000
# 4 0.0000 0.0000 0.0000 63.4234 0.0000 4.1909
# 5 25.5028 14.9032 59.7758 0.0000 51.4879 0.0000
# 6 0.0000 0.0000 0.0000 4.1909 0.0000 60.9699
#
#
#
# Elastic Compliance Matrix: (Units=1/GPa)
#
#
# Indices 1 2 3 4 5 6 
#
# 1 0.008516 -0.002762 0.000016 0.000000 -0.003437 0.000000
# 2 -0.002762 0.006497 -0.000696 0.000000 0.000296 0.000000
# 3 0.000016 -0.000696 0.004672 0.000000 -0.005231 0.000000
# 4 0.000000 0.000000 0.000000 0.015839 0.000000 -0.001089
# 5 -0.003437 0.000296 -0.005231 0.000000 0.027111 0.000000
# 6 0.000000 0.000000 0.000000 -0.001089 0.000000 0.016476
#
#
# Mechanical properties :
#
#
# Convention : Reuss Voigt Hill
#
# Bulk Modulus (GPa) = 78.11936 102.17651 90.14793
# Shear Modulus (GPa) = 55.39285 66.79389 61.09337
#
# Velocity S-wave (km/s) = 4.35326 4.78031 4.57178
# Velocity P-wave (km/s) = 7.21068 8.08857 7.66221
#
# Compressibility (1/GPa) = 0.01280092
#
# Stress axis : x y z
#
# Youngs Moduli (GPa) = 117.42213 153.91252 214.02756
#
# Poissons Ratio (x) = 0.42505 -0.00336
# Poissons Ratio (y) = 0.32428 0.14907
# Poissons Ratio (z) = -0.00184 0.10720
#
# Static dielectric constant tensor:
#      x y z
#    x 2.297180 0.000000 -0.093820 
#    y 0.000000 2.170980 0.000000 
#    z -0.093820 0.000000 2.465920 
# 
# From -- ./inp_files/194571.got.cif
#   From: 2010.05.17/outbox.cif.g08.bks.cpg/sg15_98_cif.got.tgz:194571.got - 2010.06.03 18:47:42.
