data_PCOD9294700
_publ_section_title
;
Structure prediction by ZEFSAII (Michael W. Deem and Ramdas Pophale) SiO2 
 PCOD9294700
Probable space group: C 2/C
;
_chemical_formula_sum "Si O2"
_cell_formula_units_Z 36
_cell_length_a 9.509836
_cell_length_b 9.060118
_cell_length_c 26.183558
_cell_angle_alpha 90.000000
_cell_angle_beta 48.004320
_cell_angle_gamma 90.000000
_cell_volume 1676.634824
_symmetry_space_group_name_H-M "C 2/C"
_symmetry_group_IT_number 15
_symmetry_cell_setting 'monoclinic'
loop_
_space_group_symop_operation_xyz
x,y,z
-x,y,1/2-z
-x,-y,-z
x,-y,1/2+z
1/2+x,1/2+y,z
1/2-x,1/2+y,1/2-z
1/2-x,1/2-y,-z
1/2+x,1/2-y,1/2+z
loop_
_atom_site_type_symbol
_atom_site_label
_atom_site_fract_x
_atom_site_fract_y
_atom_site_fract_z
Si Si1 0.946461 0.400203 0.587271
Si Si2 0.778243 0.904550 0.964629
Si Si3 0.000000 0.310778 0.250000
Si Si4 0.823959 0.985181 0.763548
Si Si5 0.358980 0.576199 0.639221
O O1 0.798453 0.399533 0.575354
O O2 0.853726 0.492310 0.655986
O O3 0.141864 0.473113 0.523196
O O4 0.959710 0.231213 0.602234
O O5 0.997351 0.952662 0.915100
O O6 0.750000 0.750000 0.000000
O O7 0.137706 0.401046 0.178859
O O8 0.124273 0.189983 0.250828
O O9 0.000000 0.058171 0.750000
O O10 0.824094 0.043888 0.707185
#
# Coordination Sequence:
#
# PCOD9294700 Si02
#       5
#     8   8   4   8   8
#     4  10  23  41  64  93 124 167 212 249 319 377
#     4  11  24  42  65  88 130 171 207 260 310 367
#     4   8  20  36  60  90 128 158 200 252 312 366
#     4   9  18  38  64  88 123 163 197 258 318 360
#     4  11  19  40  69  91 126 164 208 261 311 374
#
# _framework density 21.471581
#
# number of rings (size 3 to 8) (size 9 to 14) (size 15 to 20)
#    0.667    1.333    2.222    0.667    0.000    8.000 
#    0.000    8.889   22.000    0.000    0.000    0.000 
#    0.000    0.000    0.000    0.000    0.000    0.000 
#
# Total GULP energy -100253.578201 kJ/mol
# GULP energy per Si atom -5569.643233 kJ/mol
# Density = 2.142271 g / cm^3
# Si number density = 21.471581 Si / 1000 Ang^3
#
#
#
# Elastic Constant Matrix: (Units=GPa)
#
#
# Indices 1 2 3 4 5 6 
#
# 1 40.6416 22.1277 36.7515 0.0000 -0.5138 0.0000
# 2 22.1277 88.4048 58.9225 0.0000 3.0532 0.0000
# 3 36.7515 58.9225 150.2435 0.0000 -6.7157 0.0000
# 4 0.0000 0.0000 0.0000 9.8021 0.0000 30.2154
# 5 -0.5138 3.0532 -6.7157 0.0000 29.9826 0.0000
# 6 0.0000 0.0000 0.0000 30.2154 0.0000 -4.2172
#
#
#
# Elastic Compliance Matrix: (Units=1/GPa)
#
#
# Indices 1 2 3 4 5 6 
#
# 1 0.032538 -0.003800 -0.006492 0.000000 -0.000510 0.000000
# 2 -0.003800 0.016018 -0.005483 0.000000 -0.002925 0.000000
# 3 -0.006492 -0.005483 0.010520 0.000000 0.002803 0.000000
# 4 0.000000 0.000000 0.000000 0.004419 0.000000 0.031662
# 5 -0.000510 -0.002925 0.002803 0.000000 0.034270 0.000000
# 6 0.000000 0.000000 0.000000 0.031662 0.000000 -0.010271
#
#
# Mechanical properties :
#
#
# Convention : Reuss Voigt Hill
#
# Bulk Modulus (GPa) = 36.32907 57.21038 46.76973
# Shear Modulus (GPa) = 38.99580 17.87937 28.43759
#
# Velocity S-wave (km/s) = 4.26626 2.88878 3.64322
# Velocity P-wave (km/s) = 6.42062 6.15055 6.28704
#
# Compressibility (1/GPa) = 0.02752616
#
# Stress axis : x y z
#
# Youngs Moduli (GPa) = 30.73314 62.42830 95.06067
#
# Poissons Ratio (x) = 0.23722 0.61712
# Poissons Ratio (y) = 0.11678 0.52125
# Poissons Ratio (z) = 0.19951 0.34231
#
# Static dielectric constant tensor:
#      x y z
#    x 2.359240 0.000000 -0.090260 
#    y 0.000000 1.793030 0.000000 
#    z -0.090260 0.000000 1.797780 
# 
# From -- ./inp_files/309589.got.cif
#   From: 2010.05.17/outbox.cif.g08.bks.cpg/sg15_155_cif.got.tgz:309589.got - 2010.06.03 18:47:42.
