data_PCOD9294834
_publ_section_title
;
Structure prediction by ZEFSAII (Michael W. Deem and Ramdas Pophale) SiO2 
 PCOD9294834
Probable space group: C 2/C
;
_chemical_formula_sum "Si O2"
_cell_formula_units_Z 32
_cell_length_a 7.332938
_cell_length_b 17.343042
_cell_length_c 11.117942
_cell_angle_alpha 90.000000
_cell_angle_beta 108.645140
_cell_angle_gamma 90.000000
_cell_volume 1339.721799
_symmetry_space_group_name_H-M "C 2/C"
_symmetry_group_IT_number 15
_symmetry_cell_setting 'monoclinic'
loop_
_space_group_symop_operation_xyz
x,y,z
-x,y,1/2-z
-x,-y,-z
x,-y,1/2+z
1/2+x,1/2+y,z
1/2-x,1/2+y,1/2-z
1/2-x,1/2-y,-z
1/2+x,1/2-y,1/2+z
loop_
_atom_site_type_symbol
_atom_site_label
_atom_site_fract_x
_atom_site_fract_y
_atom_site_fract_z
Si Si1 0.064562 0.874442 0.087269
Si Si2 0.189794 0.413728 0.132176
Si Si3 0.796356 0.074024 0.145656
Si Si4 0.908422 0.291703 0.948779
O O1 0.226385 0.885086 0.223152
O O2 0.993454 0.785324 0.078109
O O3 0.872655 0.919492 0.081491
O O4 0.149305 0.905833 0.980809
O O5 0.145990 0.504715 0.135212
O O6 0.041130 0.352067 0.048692
O O7 0.703072 0.154744 0.170249
O O8 0.000000 0.057588 0.250000
O O9 0.750000 0.250000 0.000000
#
# Coordination Sequence:
#
# PCOD9294834 Si02
#       4
#     8   8   8   8
#     4  10  23  41  67  93 128 169 214 269 315 384
#     4  11  22  43  65  95 128 167 217 264 322 378
#     4  11  23  41  65  93 131 170 213 260 325 381
#     4  10  24  40  65  92 129 168 213 263 321 385
#
# _framework density 23.885556000000001
#
# number of rings (size 3 to 8) (size 9 to 14) (size 15 to 20)
#    0.000    1.500    2.500    2.250    7.000    3.000 
#    0.000    0.000    0.000    0.000    0.000    0.000 
#    0.000    0.000    0.000    0.000    0.000    0.000 
#
# Total GULP energy -89303.364180 kJ/mol
# GULP energy per Si atom -5581.460261 kJ/mol
# Density = 2.383119 g / cm^3
# Si number density = 23.885556 Si / 1000 Ang^3
#
#
#
# Elastic Constant Matrix: (Units=GPa)
#
#
# Indices 1 2 3 4 5 6 
#
# 1 39.2189 7.9132 32.1537 0.0000 10.1688 0.0000
# 2 7.9132 220.5909 46.9453 0.0000 18.9718 0.0000
# 3 32.1537 46.9453 79.3452 0.0000 15.3836 0.0000
# 4 0.0000 0.0000 0.0000 32.4025 0.0000 15.6152
# 5 10.1688 18.9718 15.3836 0.0000 33.8787 0.0000
# 6 0.0000 0.0000 0.0000 15.6152 0.0000 31.3414
#
#
#
# Elastic Compliance Matrix: (Units=1/GPa)
#
#
# Indices 1 2 3 4 5 6 
#
# 1 0.040191 0.002621 -0.016683 0.000000 -0.005956 0.000000
# 2 0.002621 0.005443 -0.003881 0.000000 -0.002073 0.000000
# 3 -0.016683 -0.003881 0.022224 0.000000 -0.002911 0.000000
# 4 0.000000 0.000000 0.000000 0.040613 0.000000 -0.020235
# 5 -0.005956 -0.002073 -0.002911 0.000000 0.033787 0.000000
# 6 0.000000 0.000000 0.000000 -0.020235 0.000000 0.041988
#
#
# Mechanical properties :
#
#
# Convention : Reuss Voigt Hill
#
# Bulk Modulus (GPa) = 31.27662 57.01993 44.14828
# Shear Modulus (GPa) = 21.66470 36.33402 28.99936
#
# Velocity S-wave (km/s) = 3.01495 3.90445 3.48817
# Velocity P-wave (km/s) = 5.02421 6.65209 5.89461
#
# Compressibility (1/GPa) = 0.03197276
#
# Stress axis : x y z
#
# Youngs Moduli (GPa) = 24.88136 183.70760 44.99607
#
# Poissons Ratio (x) = -0.48146 0.75066
# Poissons Ratio (y) = -0.06521 0.17462
# Poissons Ratio (z) = 0.41509 0.71294
#
# Static dielectric constant tensor:
#      x y z
#    x 2.023190 0.000000 0.001900 
#    y 0.000000 2.064270 0.000000 
#    z 0.001900 0.000000 1.897100 
# 
# From -- ./inp_files/76137.got.cif
#   From: 2010.05.17/outbox.cif.g08.bks.cpg/sg15_39_cif.got.tgz:76137.got - 2010.06.03 18:47:42.
