data_PCOD9294067
_publ_section_title
;
Structure prediction by ZEFSAII (Michael W. Deem and Ramdas Pophale) SiO2 
 PCOD9294067
Probable space group: C 2/C
;
_chemical_formula_sum "Si O2"
_cell_formula_units_Z 44
_cell_length_a 5.610589
_cell_length_b 20.065730
_cell_length_c 16.827471
_cell_angle_alpha 90.000000
_cell_angle_beta 84.657762
_cell_angle_gamma 90.000000
_cell_volume 1886.217332
_symmetry_space_group_name_H-M "C 2/C"
_symmetry_group_IT_number 15
_symmetry_cell_setting 'monoclinic'
loop_
_space_group_symop_operation_xyz
x,y,z
-x,y,1/2-z
-x,-y,-z
x,-y,1/2+z
1/2+x,1/2+y,z
1/2-x,1/2+y,1/2-z
1/2-x,1/2-y,-z
1/2+x,1/2-y,1/2+z
loop_
_atom_site_type_symbol
_atom_site_label
_atom_site_fract_x
_atom_site_fract_y
_atom_site_fract_z
Si Si1 0.163334 0.499061 0.648188
Si Si2 0.500000 0.425478 0.750000
Si Si3 0.598018 0.185702 0.989033
Si Si4 0.883634 0.650294 0.835361
Si Si5 0.009657 0.090376 0.939942
Si Si6 0.708855 0.891234 0.904657
O O1 0.276228 0.468893 0.724721
O O2 0.040456 0.571475 0.659982
O O3 0.411465 0.517423 0.592806
O O4 0.981066 0.449068 0.612063
O O5 0.399637 0.385672 0.828418
O O6 0.468267 0.191702 0.908545
O O7 0.755607 0.118293 0.972806
O O8 0.750000 0.250000 0.000000
O O9 0.438989 0.175025 0.072055
O O10 0.601453 0.637548 0.863282
O O11 0.000000 0.674411 0.750000
O O12 0.172954 0.098572 0.012849
#
# Coordination Sequence:
#
# PCOD9294067 Si02
#       6
#     8   4   8   8   8   8
#     4  10  23  38  65 104 133 168 208 272 342 408
#     4  12  24  36  68  96 146 170 206 276 350 410
#     4  11  25  45  69  91 132 183 234 275 320 392
#     4   9  21  38  66 100 133 161 221 276 334 396
#     4   9  23  38  69  92 132 169 217 268 335 387
#     4  11  23  42  64  99 135 171 220 270 336 404
#
# _framework density 23.327110000000001
#
# number of rings (size 3 to 8) (size 9 to 14) (size 15 to 20)
#    1.091    0.727    0.000    3.273    5.091    5.091 
#    0.000    0.000   30.000    0.000    0.000    0.000 
#    0.000    0.000    0.000    0.000    0.000    0.000 
#
# Total GULP energy -122580.732055 kJ/mol
# GULP energy per Si atom -5571.851457 kJ/mol
# Density = 2.327402 g / cm^3
# Si number density = 23.327110 Si / 1000 Ang^3
#
#
#
# Elastic Constant Matrix: (Units=GPa)
#
#
# Indices 1 2 3 4 5 6 
#
# 1 45.0964 4.9271 17.7804 0.0000 -5.8235 0.0000
# 2 4.9271 42.2887 25.7257 0.0000 -12.4882 0.0000
# 3 17.7804 25.7257 145.7055 0.0000 -36.1484 0.0000
# 4 0.0000 0.0000 0.0000 10.4558 0.0000 -1.2520
# 5 -5.8235 -12.4882 -36.1484 0.0000 43.2601 0.0000
# 6 0.0000 0.0000 0.0000 -1.2520 0.0000 35.8464
#
#
#
# Elastic Compliance Matrix: (Units=1/GPa)
#
#
# Indices 1 2 3 4 5 6 
#
# 1 0.023362 -0.000979 -0.002483 0.000000 0.000788 0.000000
# 2 -0.000979 0.027319 -0.003507 0.000000 0.004824 0.000000
# 3 -0.002483 -0.003507 0.009400 0.000000 0.006508 0.000000
# 4 0.000000 0.000000 0.000000 0.096042 0.000000 0.003354
# 5 0.000788 0.004824 0.006508 0.000000 0.030053 0.000000
# 6 0.000000 0.000000 0.000000 0.003354 0.000000 0.028014
#
#
# Mechanical properties :
#
#
# Convention : Reuss Voigt Hill
#
# Bulk Modulus (GPa) = 21.67147 36.66192 29.16669
# Shear Modulus (GPa) = 20.53312 30.22296 25.37804
#
# Velocity S-wave (km/s) = 2.97008 3.60337 3.30194
# Velocity P-wave (km/s) = 4.59045 5.75004 5.20265
#
# Compressibility (1/GPa) = 0.04614362
#
# Stress axis : x y z
#
# Youngs Moduli (GPa) = 42.80409 36.60436 106.38391
#
# Poissons Ratio (x) = 0.03584 0.26411
# Poissons Ratio (y) = 0.04191 0.37311
# Poissons Ratio (z) = 0.10626 0.12838
#
# Static dielectric constant tensor:
#      x y z
#    x 1.955180 0.000000 -0.055240 
#    y 0.000000 1.868240 0.000000 
#    z -0.055240 0.000000 1.893120 
# 
# From -- ./inp_files/129400.got.cif
#   From: 2010.05.17/outbox.cif.g08.bks.cpg/sg15_65_cif.got.tgz:129400.got - 2010.06.03 18:47:42.
