data_PCOD9294823
_publ_section_title
;
Structure prediction by ZEFSAII (Michael W. Deem and Ramdas Pophale) SiO2 
 PCOD9294823
Probable space group: C 2/C
;
_chemical_formula_sum "Si O2"
_cell_formula_units_Z 64
_cell_length_a 15.556083
_cell_length_b 13.264943
_cell_length_c 18.088503
_cell_angle_alpha 90.000000
_cell_angle_beta 50.336431
_cell_angle_gamma 90.000000
_cell_volume 2873.355135
_symmetry_space_group_name_H-M "C 2/C"
_symmetry_group_IT_number 15
_symmetry_cell_setting 'monoclinic'
loop_
_space_group_symop_operation_xyz
x,y,z
-x,y,1/2-z
-x,-y,-z
x,-y,1/2+z
1/2+x,1/2+y,z
1/2-x,1/2+y,1/2-z
1/2-x,1/2-y,-z
1/2+x,1/2-y,1/2+z
loop_
_atom_site_type_symbol
_atom_site_label
_atom_site_fract_x
_atom_site_fract_y
_atom_site_fract_z
Si Si1 0.966079 0.447503 0.850427
Si Si2 0.726347 0.698580 0.275873
Si Si3 0.061157 0.979677 0.889262
Si Si4 0.091132 0.379239 0.922988
Si Si5 0.275575 0.010007 0.553094
Si Si6 0.588912 0.356569 0.636701
Si Si7 0.991171 0.673272 0.630116
Si Si8 0.387904 0.648478 0.765045
O O1 0.000000 0.415148 0.750000
O O2 0.020932 0.384430 0.886557
O O3 0.012055 0.560917 0.837353
O O4 0.836084 0.453931 0.945358
O O5 0.670391 0.593662 0.334899
O O6 0.796378 0.673372 0.164908
O O7 0.627249 0.772315 0.305545
O O8 0.810942 0.757379 0.283322
O O9 0.969513 0.911430 0.899127
O O10 0.086789 0.076410 0.821264
O O11 0.000000 0.000000 0.000000
O O12 0.129434 0.486342 0.937365
O O13 0.030246 0.326165 0.023686
O O14 0.208905 0.906243 0.578052
O O15 0.187800 0.084676 0.636786
O O16 0.500000 0.381716 0.750000
O O17 0.579782 0.238034 0.628396
O O18 0.500000 0.672379 0.750000
#
# Coordination Sequence:
#
# PCOD9294823 Si02
#       8
#     8   8   8   8   8   8   8   8
#     4  11  25  41  63  95 139 183 235 293 358 432
#     4  11  25  41  72  99 137 187 238 293 366 427
#     4  11  24  44  70 106 144 186 244 304 356 439
#     4  11  23  43  65  93 140 188 230 288 361 444
#     4  11  20  43  69  93 136 188 223 295 375 415
#     4  11  20  40  69 104 137 171 237 298 361 427
#     4  10  23  41  67 103 133 175 239 297 357 435
#     4  12  23  46  73 105 141 196 242 296 366 437
#
# _framework density 22.273613000000001
#
# number of rings (size 3 to 8) (size 9 to 14) (size 15 to 20)
#    0.000    1.000    3.750    4.125    3.500    4.500 
#    0.000    0.625    0.000    0.000    0.000    0.000 
#    0.000    0.000    0.000    0.000    0.000    0.000 
#
# Total GULP energy -178784.832105 kJ/mol
# GULP energy per Si atom -5587.026003 kJ/mol
# Density = 2.222292 g / cm^3
# Si number density = 22.273613 Si / 1000 Ang^3
#
#
#
# Elastic Constant Matrix: (Units=GPa)
#
#
# Indices 1 2 3 4 5 6 
#
# 1 102.5368 32.9165 38.3678 0.0000 -4.4634 0.0000
# 2 32.9165 65.2887 30.2359 0.0000 -3.5978 0.0000
# 3 38.3678 30.2359 144.8484 0.0000 -0.1164 0.0000
# 4 0.0000 0.0000 0.0000 22.1548 0.0000 -9.4195
# 5 -4.4634 -3.5978 -0.1164 0.0000 33.2672 0.0000
# 6 0.0000 0.0000 0.0000 -9.4195 0.0000 39.9317
#
#
#
# Elastic Compliance Matrix: (Units=1/GPa)
#
#
# Indices 1 2 3 4 5 6 
#
# 1 0.012255 -0.005110 -0.002179 0.000000 0.001084 0.000000
# 2 -0.005110 0.019198 -0.002653 0.000000 0.001381 0.000000
# 3 -0.002179 -0.002653 0.008034 0.000000 -0.000551 0.000000
# 4 0.000000 0.000000 0.000000 0.050168 0.000000 0.011834
# 5 0.001084 0.001381 -0.000551 0.000000 0.030353 0.000000
# 6 0.000000 0.000000 0.000000 0.011834 0.000000 0.027834
#
#
# Mechanical properties :
#
#
# Convention : Reuss Voigt Hill
#
# Bulk Modulus (GPa) = 51.00935 57.30160 54.15548
# Shear Modulus (GPa) = 28.69275 33.14766 30.92021
#
# Velocity S-wave (km/s) = 3.59304 3.86191 3.72990
# Velocity P-wave (km/s) = 6.33752 6.75780 6.55103
#
# Compressibility (1/GPa) = 0.01960425
#
# Stress axis : x y z
#
# Youngs Moduli (GPa) = 81.59613 52.09005 124.46876
#
# Poissons Ratio (x) = 0.26619 0.27118
# Poissons Ratio (y) = 0.41697 0.33017
# Poissons Ratio (z) = 0.17777 0.13818
#
# Static dielectric constant tensor:
#      x y z
#    x 1.787240 0.000000 -0.411920 
#    y 0.000000 1.877610 0.000000 
#    z -0.411920 0.000000 0.165700 
# 
# From -- ./inp_files/205690.got.cif
#   From: 2010.05.17/outbox.cif.g08.bks.cpg/sg15_103_cif.got.tgz:205690.got - 2010.06.03 18:47:42.
