data_PCOD9294251
_publ_section_title
;
Structure prediction by ZEFSAII (Michael W. Deem and Ramdas Pophale) SiO2 
 PCOD9294251
Probable space group: C 2/C
;
_chemical_formula_sum "Si O2"
_cell_formula_units_Z 56
_cell_length_a 24.812509
_cell_length_b 14.381973
_cell_length_c 8.066657
_cell_angle_alpha 90.000000
_cell_angle_beta 47.730413
_cell_angle_gamma 90.000000
_cell_volume 2130.137088
_symmetry_space_group_name_H-M "C 2/C"
_symmetry_group_IT_number 15
_symmetry_cell_setting 'monoclinic'
loop_
_space_group_symop_operation_xyz
x,y,z
-x,y,1/2-z
-x,-y,-z
x,-y,1/2+z
1/2+x,1/2+y,z
1/2-x,1/2+y,1/2-z
1/2-x,1/2-y,-z
1/2+x,1/2-y,1/2+z
loop_
_atom_site_type_symbol
_atom_site_label
_atom_site_fract_x
_atom_site_fract_y
_atom_site_fract_z
Si Si1 0.070242 0.764327 0.496947
Si Si2 0.185334 0.419355 0.039165
Si Si3 0.563626 0.073953 0.316453
Si Si4 0.778242 0.033903 0.038793
Si Si5 0.073693 0.890341 0.158443
Si Si6 0.229882 0.811035 0.201619
Si Si7 0.121081 0.706304 0.913599
O O1 0.067138 0.656550 0.443367
O O2 0.067050 0.829421 0.339761
O O3 0.147881 0.786502 0.418452
O O4 0.000000 0.783615 0.750000
O O5 0.134494 0.509421 0.162315
O O6 0.249258 0.433525 0.044309
O O7 0.133138 0.337943 0.210076
O O8 0.222772 0.418499 0.783776
O O9 0.500000 0.000000 0.500000
O O10 0.573900 0.133179 0.122355
O O11 0.858013 0.043428 0.950465
O O12 0.775079 0.086950 0.869048
O O13 0.000000 0.938365 0.250000
O O14 0.089596 0.809230 0.990603
O O15 0.298485 0.788680 0.173650
O O16 0.250000 0.750000 0.000000
#
# Coordination Sequence:
#
# PCOD9294251 Si02
#       7
#     8   8   8   8   8   8   8
#     4  10  23  39  66  95 127 174 216 262 320 398
#     4  12  24  40  63  99 127 171 225 262 332 382
#     4  11  24  37  57  93 139 171 202 255 327 395
#     4  11  22  43  68  92 129 174 217 276 316 396
#     4  10  24  45  63  92 134 168 214 276 333 374
#     4  11  18  43  66  87 128 176 222 261 318 385
#     4  11  23  41  64  93 132 173 217 271 316 400
#
# _framework density 26.289387999999999
#
# number of rings (size 3 to 8) (size 9 to 14) (size 15 to 20)
#    0.000    1.143    7.143    0.000    6.000    2.857 
#    0.000    0.714    0.000    1.714    0.000    0.000 
#    0.000    0.000    0.000    0.000    0.000    0.000 
#
# Total GULP energy -156802.062926 kJ/mol
# GULP energy per Si atom -5600.073676 kJ/mol
# Density = 2.622955 g / cm^3
# Si number density = 26.289388 Si / 1000 Ang^3
#
#
#
# Elastic Constant Matrix: (Units=GPa)
#
#
# Indices 1 2 3 4 5 6 
#
# 1 88.5421 8.1660 52.2667 0.0000 -39.8088 0.0000
# 2 8.1660 59.5186 38.2687 0.0000 -4.8710 0.0000
# 3 52.2667 38.2687 174.5135 0.0000 -23.8749 0.0000
# 4 0.0000 0.0000 0.0000 32.3737 0.0000 -11.6465
# 5 -39.8088 -4.8710 -23.8749 0.0000 57.9744 0.0000
# 6 0.0000 0.0000 0.0000 -11.6465 0.0000 30.9919
#
#
#
# Elastic Compliance Matrix: (Units=1/GPa)
#
#
# Indices 1 2 3 4 5 6 
#
# 1 0.018794 0.001132 -0.004343 0.000000 0.011212 0.000000
# 2 0.001132 0.019628 -0.004569 0.000000 0.000545 0.000000
# 3 -0.004343 -0.004569 0.008024 0.000000 -0.000062 0.000000
# 4 0.000000 0.000000 0.000000 0.035718 0.000000 0.013423
# 5 0.011212 0.000545 -0.000062 0.000000 0.024968 0.000000
# 6 0.000000 0.000000 0.000000 0.013423 0.000000 0.037311
#
#
# Mechanical properties :
#
#
# Convention : Reuss Voigt Hill
#
# Bulk Modulus (GPa) = 32.37654 57.77521 45.07588
# Shear Modulus (GPa) = 29.35995 39.19285 34.27640
#
# Velocity S-wave (km/s) = 3.34548 3.86531 3.61475
# Velocity P-wave (km/s) = 5.22160 6.47651 5.88261
#
# Compressibility (1/GPa) = 0.03088656
#
# Stress axis : x y z
#
# Youngs Moduli (GPa) = 53.20740 50.94687 124.61965
#
# Poissons Ratio (x) = -0.05765 0.54124
# Poissons Ratio (y) = -0.06020 0.56934
# Poissons Ratio (z) = 0.23109 0.23276
#
# Static dielectric constant tensor:
#      x y z
#    x 2.332070 0.000000 0.116940 
#    y 0.000000 2.120210 0.000000 
#    z 0.116940 0.000000 2.064240 
# 
# From -- ./inp_files/67142.got.cif
#   From: 2010.05.17/outbox.cif.g08.bks.cpg/sg15_34_cif.got.tgz:67142.got - 2010.06.03 18:47:42.
