data_PCOD9294633
_publ_section_title
;
Structure prediction by ZEFSAII (Michael W. Deem and Ramdas Pophale) SiO2 
 PCOD9294633
Probable space group: C 2/C
;
_chemical_formula_sum "Si O2"
_cell_formula_units_Z 64
_cell_length_a 12.382207
_cell_length_b 10.251164
_cell_length_c 24.732509
_cell_angle_alpha 90.000000
_cell_angle_beta 113.803395
_cell_angle_gamma 90.000000
_cell_volume 2872.301447
_symmetry_space_group_name_H-M "C 2/C"
_symmetry_group_IT_number 15
_symmetry_cell_setting 'monoclinic'
loop_
_space_group_symop_operation_xyz
x,y,z
-x,y,1/2-z
-x,-y,-z
x,-y,1/2+z
1/2+x,1/2+y,z
1/2-x,1/2+y,1/2-z
1/2-x,1/2-y,-z
1/2+x,1/2-y,1/2+z
loop_
_atom_site_type_symbol
_atom_site_label
_atom_site_fract_x
_atom_site_fract_y
_atom_site_fract_z
Si Si1 0.785079 0.686820 0.921463
Si Si2 0.171869 0.663136 0.943336
Si Si3 0.200949 0.159319 0.183664
Si Si4 0.787239 0.353537 0.816882
Si Si5 0.455316 0.019524 0.422047
Si Si6 0.430236 0.696249 0.540438
Si Si7 0.334399 0.416209 0.390610
Si Si8 0.448859 0.694327 0.183612
O O1 0.781823 0.731625 0.858668
O O2 0.851052 0.546742 0.935942
O O3 0.663378 0.685771 0.929700
O O4 0.863428 0.792902 0.969988
O O5 0.268822 0.574389 0.934287
O O6 0.113751 0.734561 0.879573
O O7 0.063089 0.581267 0.944613
O O8 0.250000 0.750000 0.000000
O O9 0.279251 0.176505 0.252345
O O10 0.067432 0.145516 0.179044
O O11 0.222412 0.024375 0.158199
O O12 0.889525 0.455887 0.851589
O O13 0.813791 0.220139 0.854611
O O14 0.657335 0.394996 0.813561
O O15 0.503967 0.162453 0.445581
O O16 0.526782 0.584945 0.568641
O O17 0.500000 0.761145 0.250000
#
# Coordination Sequence:
#
# PCOD9294633 Si02
#       8
#     8   8   8   8   8   8   8   8
#     4  11  23  40  67  94 130 175 224 270 346 407
#     4  11  22  40  67  99 129 172 229 273 336 403
#     4  11  22  40  65  96 127 169 227 275 337 407
#     4   9  23  41  64  92 128 173 221 271 343 408
#     4  11  22  42  69  94 133 181 219 283 347 411
#     4  10  24  44  59  98 136 173 221 278 337 415
#     4  10  23  41  62  90 135 166 215 280 330 394
#     4   9  20  40  60  91 129 170 218 272 329 404
#
# _framework density 22.281783999999998
#
# number of rings (size 3 to 8) (size 9 to 14) (size 15 to 20)
#    0.000    1.750    1.250    1.875    3.500    3.500 
#    2.250    5.000    0.000    0.000    0.000    0.000 
#    0.000    0.000    0.000    0.000    0.000    0.000 
#
# Total GULP energy -178351.778388 kJ/mol
# GULP energy per Si atom -5573.493075 kJ/mol
# Density = 2.223107 g / cm^3
# Si number density = 22.281784 Si / 1000 Ang^3
#
#
#
# Elastic Constant Matrix: (Units=GPa)
#
#
# Indices 1 2 3 4 5 6 
#
# 1 65.1068 21.0015 34.9537 0.0000 2.5445 0.0000
# 2 21.0015 60.7007 16.8619 0.0000 0.2591 0.0000
# 3 34.9537 16.8619 140.8742 0.0000 6.1432 0.0000
# 4 0.0000 0.0000 0.0000 27.0348 0.0000 5.4111
# 5 2.5445 0.2591 6.1432 0.0000 36.7679 0.0000
# 6 0.0000 0.0000 0.0000 5.4111 0.0000 11.7622
#
#
#
# Elastic Compliance Matrix: (Units=1/GPa)
#
#
# Indices 1 2 3 4 5 6 
#
# 1 0.019388 -0.005561 -0.004118 0.000000 -0.000615 0.000000
# 2 -0.005561 0.018638 -0.000868 0.000000 0.000399 0.000000
# 3 -0.004118 -0.000868 0.008272 0.000000 -0.001091 0.000000
# 4 0.000000 0.000000 0.000000 0.040741 0.000000 -0.018743
# 5 -0.000615 0.000399 -0.001091 0.000000 0.027420 0.000000
# 6 0.000000 0.000000 0.000000 -0.018743 0.000000 0.093641
#
#
# Mechanical properties :
#
#
# Convention : Reuss Voigt Hill
#
# Bulk Modulus (GPa) = 39.67908 45.81287 42.74598
# Shear Modulus (GPa) = 21.04415 28.03728 24.54072
#
# Velocity S-wave (km/s) = 3.07653 3.55111 3.32231
# Velocity P-wave (km/s) = 5.51966 6.11712 5.82605
#
# Compressibility (1/GPa) = 0.02520219
#
# Stress axis : x y z
#
# Youngs Moduli (GPa) = 51.57765 53.65394 120.89221
#
# Poissons Ratio (x) = 0.29839 0.49785
# Poissons Ratio (y) = 0.28685 0.10498
# Poissons Ratio (z) = 0.21240 0.04659
#
# Static dielectric constant tensor:
#      x y z
#    x 1.879970 0.000000 0.063370 
#    y 0.000000 1.849990 0.000000 
#    z 0.063370 0.000000 2.004670 
# 
# From -- ./inp_files/269272.got.cif
#   From: 2010.05.17/outbox.cif.g08.bks.cpg/sg15_135_cif.got.tgz:269272.got - 2010.06.03 18:47:42.
