data_PCOD9294374
_publ_section_title
;
Structure prediction by ZEFSAII (Michael W. Deem and Ramdas Pophale) SiO2 
 PCOD9294374
Probable space group: C 2/C
;
_chemical_formula_sum "Si O2"
_cell_formula_units_Z 36
_cell_length_a 8.626544
_cell_length_b 11.721496
_cell_length_c 20.931735
_cell_angle_alpha 90.000000
_cell_angle_beta 44.858178
_cell_angle_gamma 90.000000
_cell_volume 1492.905981
_symmetry_space_group_name_H-M "C 2/C"
_symmetry_group_IT_number 15
_symmetry_cell_setting 'monoclinic'
loop_
_space_group_symop_operation_xyz
x,y,z
-x,y,1/2-z
-x,-y,-z
x,-y,1/2+z
1/2+x,1/2+y,z
1/2-x,1/2+y,1/2-z
1/2-x,1/2-y,-z
1/2+x,1/2-y,1/2+z
loop_
_atom_site_type_symbol
_atom_site_label
_atom_site_fract_x
_atom_site_fract_y
_atom_site_fract_z
Si Si1 0.629085 0.899435 0.497743
Si Si2 0.258186 0.006096 0.909037
Si Si3 0.757137 0.750304 0.878926
Si Si4 0.000000 0.050758 0.250000
Si Si5 0.856058 0.918496 0.185492
O O1 0.488193 0.785531 0.528015
O O2 0.881998 0.901733 0.402054
O O3 0.500000 0.000000 0.500000
O O4 0.626812 0.924608 0.574565
O O5 0.329762 0.139331 0.897353
O O6 0.252189 0.993941 0.834138
O O7 0.000000 0.000000 0.000000
O O8 0.745374 0.699730 0.809786
O O9 0.893737 0.865691 0.833704
O O10 0.831790 0.968427 0.262465
#
# Coordination Sequence:
#
# PCOD9294374 Si02
#       5
#     8   8   8   4   8
#     4  11  19  40  68  91 116 158 208 260 296 349
#     4   8  20  40  60  91 120 146 205 260 290 353
#     4  10  23  40  63  89 125 159 206 251 306 359
#     4  12  22  44  56  92 130 164 198 242 312 382
#     4   9  22  43  59  90 127 153 208 253 291 374
#
# _framework density 24.114044
#
# number of rings (size 3 to 8) (size 9 to 14) (size 15 to 20)
#    1.333    0.889    2.222    0.667    0.000    2.667 
#    4.000    0.000    0.000    0.000    0.000    0.000 
#    0.000    0.000    0.000    0.000    0.000    0.000 
#
# Total GULP energy -100293.004460 kJ/mol
# GULP energy per Si atom -5571.833581 kJ/mol
# Density = 2.405916 g / cm^3
# Si number density = 24.114044 Si / 1000 Ang^3
#
#
#
# Elastic Constant Matrix: (Units=GPa)
#
#
# Indices 1 2 3 4 5 6 
#
# 1 66.4478 0.5684 0.6772 0.0001 6.6418 0.0000
# 2 0.5684 75.5383 -1.4701 0.0001 -3.8112 0.0000
# 3 0.6772 -1.4701 54.6478 0.0001 -25.2438 -0.0001
# 4 0.0001 0.0001 0.0001 28.6212 -0.0001 0.8382
# 5 6.6418 -3.8112 -25.2438 -0.0001 42.2173 0.0000
# 6 0.0000 0.0000 -0.0001 0.8382 0.0000 44.3656
#
#
#
# Elastic Compliance Matrix: (Units=1/GPa)
#
#
# Indices 1 2 3 4 5 6 
#
# 1 0.015427 -0.000332 -0.001845 0.000000 -0.003560 0.000000
# 2 -0.000332 0.013369 0.001306 0.000000 0.002040 0.000000
# 3 -0.001845 0.001306 0.025623 0.000000 0.015729 0.000000
# 4 0.000000 0.000000 0.000000 0.034959 0.000000 -0.000661
# 5 -0.003560 0.002040 0.015729 0.000000 0.033837 0.000000
# 6 0.000000 0.000000 0.000000 -0.000661 0.000000 0.022552
#
#
# Mechanical properties :
#
#
# Convention : Reuss Voigt Hill
#
# Bulk Modulus (GPa) = 18.98291 21.79834 20.39062
# Shear Modulus (GPa) = 30.29087 36.16470 33.22779
#
# Velocity S-wave (km/s) = 3.54807 3.87684 3.71609
# Velocity P-wave (km/s) = 4.96732 5.39437 5.18524
#
# Compressibility (1/GPa) = 0.05267897
#
# Stress axis : x y z
#
# Youngs Moduli (GPa) = 64.82194 74.79906 39.02749
#
# Poissons Ratio (x) = 0.02480 0.07199
# Poissons Ratio (y) = 0.02149 -0.05098
# Poissons Ratio (z) = 0.11957 -0.09770
#
# Static dielectric constant tensor:
#      x y z
#    x 1.926440 0.000000 -0.013570 
#    y 0.000000 1.870130 0.000000 
#    z -0.013570 0.000000 2.014960 
# 
# From -- ./inp_files/229558.got.cif
#   From: 2010.05.17/outbox.cif.g08.bks.cpg/sg15_115_cif.got.tgz:229558.got - 2010.06.03 18:47:42.
