data_PCOD9294454
_publ_section_title
;
Structure prediction by ZEFSAII (Michael W. Deem and Ramdas Pophale) SiO2 
 PCOD9294454
Probable space group: C 2/C
;
_chemical_formula_sum "Si O2"
_cell_formula_units_Z 56
_cell_length_a 24.356924
_cell_length_b 10.495821
_cell_length_c 14.788608
_cell_angle_alpha 90.000000
_cell_angle_beta 39.601443
_cell_angle_gamma 90.000000
_cell_volume 2409.948596
_symmetry_space_group_name_H-M "C 2/C"
_symmetry_group_IT_number 15
_symmetry_cell_setting 'monoclinic'
loop_
_space_group_symop_operation_xyz
x,y,z
-x,y,1/2-z
-x,-y,-z
x,-y,1/2+z
1/2+x,1/2+y,z
1/2-x,1/2+y,1/2-z
1/2-x,1/2-y,-z
1/2+x,1/2-y,1/2+z
loop_
_atom_site_type_symbol
_atom_site_label
_atom_site_fract_x
_atom_site_fract_y
_atom_site_fract_z
Si Si1 0.030537 0.341578 0.449121
Si Si2 0.277082 0.563922 0.666874
Si Si3 0.589896 0.570608 0.371028
Si Si4 0.596800 0.517496 0.157089
Si Si5 0.161190 0.684600 0.334117
Si Si6 0.456118 0.995405 0.714985
Si Si7 0.649370 0.755797 0.642790
O O1 0.939487 0.321395 0.509552
O O2 0.011737 0.422167 0.564670
O O3 0.073278 0.212449 0.425895
O O4 0.087284 0.401884 0.296141
O O5 0.341313 0.504406 0.659132
O O6 0.328076 0.554565 0.507565
O O7 0.200264 0.458209 0.772976
O O8 0.276845 0.715449 0.692385
O O9 0.500000 0.500000 0.500000
O O10 0.612358 0.571409 0.237062
O O11 0.500000 0.553359 0.250000
O O12 0.602295 0.364053 0.159519
O O13 0.144427 0.743721 0.256779
O O14 0.500000 0.046728 0.750000
O O15 0.391795 0.888435 0.834605
O O16 0.750000 0.750000 0.500000
#
# Coordination Sequence:
#
# PCOD9294454 Si02
#       7
#     8   8   8   8   8   8   8
#     4  10  23  43  66  95 134 172 224 290 335 412
#     4  12  26  42  70 100 136 187 229 288 354 413
#     4  12  22  44  71  96 133 171 232 283 345 412
#     4  12  23  40  70  99 127 174 231 283 338 413
#     4  11  24  45  64  97 142 179 225 285 352 409
#     4  10  23  40  65  98 128 175 228 276 343 405
#     4  11  22  40  64  94 134 169 225 283 331 410
#
# _framework density 23.237010000000001
#
# number of rings (size 3 to 8) (size 9 to 14) (size 15 to 20)
#    0.000    0.857    5.714    1.286    2.000    6.286 
#    0.000    0.714    0.000    0.000    0.000    0.000 
#    0.000    0.000    0.000    0.000    0.000    0.000 
#
# Total GULP energy -156263.238627 kJ/mol
# GULP energy per Si atom -5580.829951 kJ/mol
# Density = 2.318412 g / cm^3
# Si number density = 23.237010 Si / 1000 Ang^3
#
#
#
# Elastic Constant Matrix: (Units=GPa)
#
#
# Indices 1 2 3 4 5 6 
#
# 1 68.6750 -2.0286 29.9912 0.0000 11.2896 0.0000
# 2 -2.0286 86.9228 5.8303 0.0000 -2.5095 0.0000
# 3 29.9912 5.8303 63.4796 0.0000 7.3662 0.0000
# 4 0.0000 0.0000 0.0000 13.3138 0.0000 -3.6300
# 5 11.2896 -2.5095 7.3662 0.0000 42.2502 0.0000
# 6 0.0000 0.0000 0.0000 -3.6300 0.0000 27.1033
#
#
#
# Elastic Compliance Matrix: (Units=1/GPa)
#
#
# Indices 1 2 3 4 5 6 
#
# 1 0.018929 0.000919 -0.008621 0.000000 -0.003500 0.000000
# 2 0.000919 0.011653 -0.001588 0.000000 0.000724 0.000000
# 3 -0.008621 -0.001588 0.020123 0.000000 -0.001299 0.000000
# 4 0.000000 0.000000 0.000000 0.077957 0.000000 0.010441
# 5 -0.003500 0.000724 -0.001299 0.000000 0.024873 0.000000
# 6 0.000000 0.000000 0.000000 0.010441 0.000000 0.038294
#
#
# Mechanical properties :
#
#
# Convention : Reuss Voigt Hill
#
# Bulk Modulus (GPa) = 31.12971 31.85147 31.49059
# Shear Modulus (GPa) = 22.61227 28.88576 25.74901
#
# Velocity S-wave (km/s) = 3.12286 3.52958 3.33243
# Velocity P-wave (km/s) = 5.14089 5.50886 5.32805
#
# Compressibility (1/GPa) = 0.03212365
#
# Stress axis : x y z
#
# Youngs Moduli (GPa) = 52.82925 85.81233 49.69465
#
# Poissons Ratio (x) = -0.07886 0.42843
# Poissons Ratio (y) = -0.04855 0.07894
# Poissons Ratio (z) = 0.45546 0.13631
#
# Static dielectric constant tensor:
#      x y z
#    x 1.943980 0.000000 -0.184520 
#    y 0.000000 1.939040 0.000000 
#    z -0.184520 0.000000 3.225690 
# 
# From -- ./inp_files/177564.got.cif
#   From: 2010.05.17/outbox.cif.g08.bks.cpg/sg15_89_cif.got.tgz:177564.got - 2010.06.03 18:47:42.
