data_PCOD9294760
_publ_section_title
;
Structure prediction by ZEFSAII (Michael W. Deem and Ramdas Pophale) SiO2 
 PCOD9294760
Probable space group: C 2/C
;
_chemical_formula_sum "Si O2"
_cell_formula_units_Z 52
_cell_length_a 27.430071
_cell_length_b 18.754409
_cell_length_c 14.040960
_cell_angle_alpha 90.000000
_cell_angle_beta 159.815773
_cell_angle_gamma 90.000000
_cell_volume 2492.277202
_symmetry_space_group_name_H-M "C 2/C"
_symmetry_group_IT_number 15
_symmetry_cell_setting 'monoclinic'
loop_
_space_group_symop_operation_xyz
x,y,z
-x,y,1/2-z
-x,-y,-z
x,-y,1/2+z
1/2+x,1/2+y,z
1/2-x,1/2+y,1/2-z
1/2-x,1/2-y,-z
1/2+x,1/2-y,1/2+z
loop_
_atom_site_type_symbol
_atom_site_label
_atom_site_fract_x
_atom_site_fract_y
_atom_site_fract_z
Si Si1 0.290852 0.904848 0.208827
Si Si2 0.377878 0.077218 0.664320
Si Si3 0.500000 0.182614 0.750000
Si Si4 0.065786 0.910874 0.528648
Si Si5 0.962374 0.925399 0.549188
Si Si6 0.500000 0.036600 0.250000
Si Si7 0.266649 0.295143 0.274457
Si Si8 0.500000 0.707626 0.750000
O O1 0.375219 0.930990 0.271949
O O2 0.378210 0.927657 0.462853
O O3 0.288978 0.820870 0.223972
O O4 0.124213 0.922160 0.886805
O O5 0.483013 0.133856 0.811756
O O6 0.222856 0.104453 0.352977
O O7 0.413514 0.007348 0.670233
O O8 0.371050 0.232208 0.489181
O O9 0.970399 0.916362 0.448997
O O10 0.021258 0.847849 0.376442
O O11 0.076079 0.991249 0.503486
O O12 0.860903 0.860887 0.401632
O O13 0.133226 0.260390 0.976692
#
# Coordination Sequence:
#
# PCOD9294760 Si02
#       8
#     8   8   4   8   8   4   8   4
#     4  11  23  41  68  95 135 183 228 284 344 420
#     4  10  23  41  65  98 132 179 229 280 348 418
#     4  11  22  41  63  92 125 178 232 266 329 423
#     4  10  23  42  67 102 137 181 237 294 351 417
#     4  10  23  43  71  98 134 189 239 282 353 433
#     4  11  23  40  66 103 137 170 228 294 350 402
#     4  12  24  42  66  99 134 186 228 283 351 414
#     4  12  27  41  69 105 148 178 230 308 351 405
#
# _framework density 20.864452
#
# number of rings (size 3 to 8) (size 9 to 14) (size 15 to 20)
#    0.000    1.231    3.077    1.846    4.308    2.462 
#    0.000    4.615    0.000    0.000    0.000    0.000 
#    0.000    0.000    0.000    0.000    0.000    0.000 
#
# Total GULP energy -144775.209333 kJ/mol
# GULP energy per Si atom -5568.277282 kJ/mol
# Density = 2.081696 g / cm^3
# Si number density = 20.864452 Si / 1000 Ang^3
#
#
#
# Elastic Constant Matrix: (Units=GPa)
#
#
# Indices 1 2 3 4 5 6 
#
# 1 99.5403 40.4986 41.2692 0.0000 -8.6182 0.0000
# 2 40.4986 88.8302 44.2171 0.0000 -2.7274 0.0000
# 3 41.2692 44.2171 112.5858 0.0000 -8.5397 0.0000
# 4 0.0000 0.0000 0.0000 64.1377 0.0000 115.5239
# 5 -8.6182 -2.7274 -8.5397 0.0000 27.8943 0.0000
# 6 0.0000 0.0000 0.0000 115.5239 0.0000 669.0145
#
#
#
# Elastic Compliance Matrix: (Units=1/GPa)
#
#
# Indices 1 2 3 4 5 6 
#
# 1 0.013340 -0.004559 -0.002888 0.000000 0.002792 0.000000
# 2 -0.004559 0.015554 -0.004534 0.000000 -0.001276 0.000000
# 3 -0.002888 -0.004534 0.011896 0.000000 0.002306 0.000000
# 4 0.000000 0.000000 0.000000 0.022630 0.000000 -0.003908
# 5 0.002792 -0.001276 0.002306 0.000000 0.037294 0.000000
# 6 0.000000 0.000000 0.000000 -0.003908 0.000000 0.002170
#
#
# Mechanical properties :
#
#
# Convention : Reuss Voigt Hill
#
# Bulk Modulus (GPa) = 59.42291 61.43625 60.42958
# Shear Modulus (GPa) = 37.74905 163.87404 100.81155
#
# Velocity S-wave (km/s) = 4.25814 8.87202 6.95861
# Velocity P-wave (km/s) = 7.26072 11.59567 9.67413
#
# Compressibility (1/GPa) = 0.01682852
#
# Stress axis : x y z
#
# Youngs Moduli (GPa) = 74.96347 64.29361 84.05910
#
# Poissons Ratio (x) = 0.29309 0.24274
# Poissons Ratio (y) = 0.34173 0.38115
# Poissons Ratio (z) = 0.21647 0.29153
#
# Static dielectric constant tensor:
#      x y z
#    x 1.824030 0.000000 0.012620 
#    y 0.000000 1.761010 0.000000 
#    z 0.012620 0.000000 1.755450 
# 
# From -- ./inp_files/182931.got.cif
#   From: 2010.05.17/outbox.cif.g08.bks.cpg/sg15_92_cif.got.tgz:182931.got - 2010.06.03 18:47:42.
