data_PCOD9294811
_publ_section_title
;
Structure prediction by ZEFSAII (Michael W. Deem and Ramdas Pophale) SiO2 
 PCOD9294811
Probable space group: C 2/C
;
_chemical_formula_sum "Si O2"
_cell_formula_units_Z 60
_cell_length_a 10.856212
_cell_length_b 8.829937
_cell_length_c 24.201968
_cell_angle_alpha 90.000000
_cell_angle_beta 92.102903
_cell_angle_gamma 90.000000
_cell_volume 2318.430186
_symmetry_space_group_name_H-M "C 2/C"
_symmetry_group_IT_number 15
_symmetry_cell_setting 'monoclinic'
loop_
_space_group_symop_operation_xyz
x,y,z
-x,y,1/2-z
-x,-y,-z
x,-y,1/2+z
1/2+x,1/2+y,z
1/2-x,1/2+y,1/2-z
1/2-x,1/2-y,-z
1/2+x,1/2-y,1/2+z
loop_
_atom_site_type_symbol
_atom_site_label
_atom_site_fract_x
_atom_site_fract_y
_atom_site_fract_z
Si Si1 0.973776 0.368980 0.426634
Si Si2 0.761689 0.224154 0.082472
Si Si3 0.427724 0.288167 0.827896
Si Si4 0.192208 0.022873 0.757158
Si Si5 0.596216 0.464739 0.380763
Si Si6 0.010413 0.280141 0.543811
Si Si7 0.500000 0.032770 0.750000
Si Si8 0.618935 0.826599 0.695427
O O1 0.880438 0.321961 0.376044
O O2 0.973132 0.545857 0.438621
O O3 0.117105 0.327989 0.414359
O O4 0.947595 0.280564 0.483138
O O5 0.651958 0.277962 0.041468
O O6 0.691606 0.201574 0.140554
O O7 0.815594 0.055860 0.076388
O O8 0.352498 0.379563 0.779806
O O9 0.481534 0.422679 0.866859
O O10 0.519844 0.174137 0.797908
O O11 0.143477 0.038590 0.818412
O O12 0.151001 0.173309 0.726870
O O13 0.337347 0.987043 0.769970
O O14 0.555359 0.313925 0.409767
O O15 0.483253 0.887006 0.699036
#
# Coordination Sequence:
#
# PCOD9294811 Si02
#       8
#     8   8   8   8   8   8   4   8
#     4  10  25  44  73 104 140 185 239 299 355 428
#     4  10  23  44  65 100 140 180 233 294 353 429
#     4  11  22  40  66  92 142 177 224 291 351 418
#     4  11  23  41  62 101 135 187 231 287 355 438
#     4  10  23  41  66  99 139 179 240 287 347 436
#     4  11  23  47  74 102 140 188 242 298 359 419
#     4  12  24  40  66  96 140 182 224 300 356 424
#     4  11  26  38  66  99 139 183 234 287 364 429
#
# _framework density 25.879581999999999
#
# number of rings (size 3 to 8) (size 9 to 14) (size 15 to 20)
#    0.000    1.333    1.333    2.800    9.333    3.200 
#    0.000    9.333    0.000    0.000    0.000    0.000 
#    0.000    0.000    0.000    0.000    0.000    0.000 
#
# Total GULP energy -167112.054193 kJ/mol
# GULP energy per Si atom -5570.401806 kJ/mol
# Density = 2.582068 g / cm^3
# Si number density = 25.879582 Si / 1000 Ang^3
#
#
#
# Elastic Constant Matrix: (Units=GPa)
#
#
# Indices 1 2 3 4 5 6 
#
# 1 59.4773 26.8265 23.3761 0.0000 -0.4869 0.0000
# 2 26.8265 108.1242 63.7302 0.0000 4.9472 0.0000
# 3 23.3761 63.7302 158.7258 0.0000 4.4423 0.0000
# 4 0.0000 0.0000 0.0000 54.9400 0.0000 -3.7668
# 5 -0.4869 4.9472 4.4423 0.0000 33.6432 0.0000
# 6 0.0000 0.0000 0.0000 -3.7668 0.0000 43.9911
#
#
#
# Elastic Compliance Matrix: (Units=1/GPa)
#
#
# Indices 1 2 3 4 5 6 
#
# 1 0.019138 -0.004084 -0.001208 0.000000 0.001037 0.000000
# 2 -0.004084 0.013031 -0.004592 0.000000 -0.001369 0.000000
# 3 -0.001208 -0.004592 0.008334 0.000000 -0.000443 0.000000
# 4 0.000000 0.000000 0.000000 0.018309 0.000000 0.001568
# 5 0.001037 -0.001369 -0.000443 0.000000 0.029998 0.000000
# 6 0.000000 0.000000 0.000000 0.001568 0.000000 0.022866
#
#
# Mechanical properties :
#
#
# Convention : Reuss Voigt Hill
#
# Bulk Modulus (GPa) = 48.22616 61.57697 54.90157
# Shear Modulus (GPa) = 36.13809 40.67451 38.40630
#
# Velocity S-wave (km/s) = 3.74089 3.96875 3.85650
# Velocity P-wave (km/s) = 6.11018 6.69676 6.41018
#
# Compressibility (1/GPa) = 0.02073564
#
# Stress axis : x y z
#
# Youngs Moduli (GPa) = 52.25115 76.73773 119.98491
#
# Poissons Ratio (x) = 0.31339 0.14493
# Poissons Ratio (y) = 0.21339 0.55103
# Poissons Ratio (z) = 0.06311 0.35242
#
# Static dielectric constant tensor:
#      x y z
#    x 2.204850 0.000000 0.004440 
#    y 0.000000 2.046210 0.000000 
#    z 0.004440 0.000000 2.233100 
# 
# From -- ./inp_files/291591.got.cif
#   From: 2010.05.17/outbox.cif.g08.bks.cpg/sg15_146_cif.got.tgz:291591.got - 2010.06.03 18:47:42.
