data_PCOD9294465
_publ_section_title
;
Structure prediction by ZEFSAII (Michael W. Deem and Ramdas Pophale) SiO2 
 PCOD9294465
Probable space group: C 2/C
;
_chemical_formula_sum "Si O2"
_cell_formula_units_Z 32
_cell_length_a 4.923326
_cell_length_b 13.503509
_cell_length_c 21.586150
_cell_angle_alpha 90.000000
_cell_angle_beta 106.344881
_cell_angle_gamma 90.000000
_cell_volume 1377.095119
_symmetry_space_group_name_H-M "C 2/C"
_symmetry_group_IT_number 15
_symmetry_cell_setting 'monoclinic'
loop_
_space_group_symop_operation_xyz
x,y,z
-x,y,1/2-z
-x,-y,-z
x,-y,1/2+z
1/2+x,1/2+y,z
1/2-x,1/2+y,1/2-z
1/2-x,1/2-y,-z
1/2+x,1/2-y,1/2+z
loop_
_atom_site_type_symbol
_atom_site_label
_atom_site_fract_x
_atom_site_fract_y
_atom_site_fract_z
Si Si1 0.694886 0.703843 0.204674
Si Si2 0.185475 0.668095 0.906119
Si Si3 0.420513 0.546168 0.405125
Si Si4 0.501540 0.139255 0.466582
O O1 0.500000 0.675772 0.250000
O O2 0.540138 0.791301 0.157441
O O3 0.708686 0.611742 0.158394
O O4 0.000000 0.731871 0.250000
O O5 0.327256 0.566272 0.895100
O O6 0.414781 0.755991 0.930511
O O7 0.033531 0.652857 0.962637
O O8 0.755285 0.564145 0.428552
O O9 0.292749 0.596473 0.459341
#
# Coordination Sequence:
#
# PCOD9294465 Si02
#       4
#     8   8   8   8
#     4  11  25  44  61  88 128 169 220 262 294 366
#     4  10  23  42  69  94 127 168 202 258 327 370
#     4  11  23  42  66  94 128 164 205 260 320 374
#     4  10  23  40  66 103 129 151 205 264 317 389
#
# _framework density 23.237318999999999
#
# number of rings (size 3 to 8) (size 9 to 14) (size 15 to 20)
#    0.000    1.500    0.000    4.500    0.000   18.000 
#    0.000    7.500    0.000    0.000    0.000    0.000 
#    0.000    0.000    0.000    0.000    0.000    0.000 
#
# Total GULP energy -89804.010653 kJ/mol
# GULP energy per Si atom -5612.750666 kJ/mol
# Density = 2.318443 g / cm^3
# Si number density = 23.237319 Si / 1000 Ang^3
#
#
#
# Elastic Constant Matrix: (Units=GPa)
#
#
# Indices 1 2 3 4 5 6 
#
# 1 84.5646 49.2575 10.0875 0.0000 8.5171 0.0000
# 2 49.2575 190.3437 61.7735 0.0000 6.6924 0.0000
# 3 10.0875 61.7735 106.4002 0.0000 10.5193 0.0000
# 4 0.0000 0.0000 0.0000 -110.0015 0.0000 8.3186
# 5 8.5171 6.6924 10.5193 0.0000 32.2538 0.0000
# 6 0.0000 0.0000 0.0000 8.3186 0.0000 35.6250
#
#
#
# Elastic Compliance Matrix: (Units=1/GPa)
#
#
# Indices 1 2 3 4 5 6 
#
# 1 0.014351 -0.004019 0.001307 0.000000 -0.003382 0.000000
# 2 -0.004019 0.007599 -0.004113 0.000000 0.000826 0.000000
# 3 0.001307 -0.004113 0.011999 0.000000 -0.003405 0.000000
# 4 0.000000 0.000000 0.000000 -0.008933 0.000000 0.002086
# 5 -0.003382 0.000826 -0.003405 0.000000 0.032836 0.000000
# 6 0.000000 0.000000 0.000000 0.002086 0.000000 0.027583
#
#
# Mechanical properties :
#
#
# Convention : Reuss Voigt Hill
#
# Bulk Modulus (GPa) = 49.26053 69.28283 59.27168
# Shear Modulus (GPa) = 47.23590 8.92146 28.07868
#
# Velocity S-wave (km/s) = 4.51351 1.96153 3.47990
# Velocity P-wave (km/s) = 6.95753 5.91694 6.45823
#
# Compressibility (1/GPa) = 0.02030023
#
# Stress axis : x y z
#
# Youngs Moduli (GPa) = 69.68137 131.58944 83.34088
#
# Poissons Ratio (x) = 0.52887 -0.10894
# Poissons Ratio (y) = 0.28006 0.34275
# Poissons Ratio (z) = -0.09109 0.54118
#
# Static dielectric constant tensor:
#      x y z
#    x 1.854990 0.000000 -0.008950 
#    y 0.000000 1.866170 0.000000 
#    z -0.008950 0.000000 1.850880 
# 
# From -- ./inp_files/183892.got.cif
#   From: 2010.05.17/outbox.cif.g08.bks.cpg/sg15_92_cif.got.tgz:183892.got - 2010.06.03 18:47:42.
