data_PCOD9294979
_publ_section_title
;
Structure prediction by ZEFSAII (Michael W. Deem and Ramdas Pophale) SiO2 
 PCOD9294979
Probable space group: C 2/C
;
_chemical_formula_sum "Si O2"
_cell_formula_units_Z 40
_cell_length_a 14.203270
_cell_length_b 17.319932
_cell_length_c 14.982039
_cell_angle_alpha 90.000000
_cell_angle_beta 151.581024
_cell_angle_gamma 90.000000
_cell_volume 1754.023121
_symmetry_space_group_name_H-M "C 2/C"
_symmetry_group_IT_number 15
_symmetry_cell_setting 'monoclinic'
loop_
_space_group_symop_operation_xyz
x,y,z
-x,y,1/2-z
-x,-y,-z
x,-y,1/2+z
1/2+x,1/2+y,z
1/2-x,1/2+y,1/2-z
1/2-x,1/2-y,-z
1/2+x,1/2-y,1/2+z
loop_
_atom_site_type_symbol
_atom_site_label
_atom_site_fract_x
_atom_site_fract_y
_atom_site_fract_z
Si Si1 0.009636 0.343296 0.122580
Si Si2 0.714980 0.599427 0.514442
Si Si3 0.000000 0.966090 0.250000
Si Si4 0.000000 0.298230 0.750000
Si Si5 0.662875 0.325217 0.717318
Si Si6 0.577125 0.660342 0.939159
O O1 0.835372 0.341439 0.051936
O O2 0.156947 0.406309 0.287842
O O3 0.136300 0.265338 0.218261
O O4 0.882552 0.352907 0.926838
O O5 0.678141 0.520894 0.430515
O O6 0.500752 0.630672 0.361150
O O7 0.955100 0.909974 0.295878
O O8 0.993002 0.240312 0.829236
O O9 0.797895 0.344601 0.581513
O O10 0.603051 0.338672 0.565579
#
# Coordination Sequence:
#
# PCOD9294979 Si02
#       6
#     8   8   4   4   8   8
#     4  11  23  37  67 101 133 173 215 278 334 379
#     4  11  24  39  63  93 144 179 209 259 333 411
#     4  11  24  48  62  90 141 192 210 254 341 410
#     4   9  20  44  66 100 119 170 226 280 339 366
#     4  12  21  39  66 103 127 166 227 285 320 371
#     4  10  23  41  72  93 131 170 222 281 324 394
#
# _framework density 22.804717
#
# number of rings (size 3 to 8) (size 9 to 14) (size 15 to 20)
#    0.000    1.200    4.000    1.800    2.800    2.400 
#    3.600    1.000    0.000    0.000    0.000    0.000 
#    0.000    0.000    0.000    0.000    0.000    0.000 
#
# Total GULP energy -111725.551053 kJ/mol
# GULP energy per Si atom -5586.277553 kJ/mol
# Density = 2.275281 g / cm^3
# Si number density = 22.804717 Si / 1000 Ang^3
#
#
#
# Elastic Constant Matrix: (Units=GPa)
#
#
# Indices 1 2 3 4 5 6 
#
# 1 45.5934 30.2261 28.1488 -0.0085 -28.4150 -0.0175
# 2 30.2261 79.8078 51.6062 -0.0054 -17.2444 -0.0070
# 3 28.1488 51.6062 176.0210 -0.0013 -26.4359 -0.0155
# 4 -0.0085 -0.0054 -0.0013 33.7895 -0.0011 -8.2936
# 5 -28.4150 -17.2444 -26.4359 -0.0011 49.2375 -0.0083
# 6 -0.0175 -0.0070 -0.0155 -8.2936 -0.0083 1.4676
#
#
#
# Elastic Compliance Matrix: (Units=1/GPa)
#
#
# Indices 1 2 3 4 5 6 
#
# 1 0.042351 -0.011418 -0.000386 -0.000380 0.020234 -0.001587
# 2 -0.011418 0.019031 -0.004070 0.000064 -0.002110 0.000259
# 3 -0.000386 -0.004070 0.007275 -0.000041 0.002258 -0.000164
# 4 -0.000380 0.000064 -0.000041 -0.076451 -0.000293 -0.432049
# 5 0.020234 -0.002110 0.002258 -0.000293 0.032460 -0.001220
# 6 -0.001587 0.000259 -0.000164 -0.432049 -0.001220 -1.760230
#
#
# Mechanical properties :
#
#
# Convention : Reuss Voigt Hill
#
# Bulk Modulus (GPa) = 27.09483 57.93163 42.51323
# Shear Modulus (GPa) = -2.95593 29.66164 13.35285
#
# Velocity S-wave (km/s) = -1.13974 3.61041 2.42240
# Velocity P-wave (km/s) = 3.18983 6.54512 5.14847
#
# Compressibility (1/GPa) = 0.03690742
#
# Stress axis : x y z
#
# Youngs Moduli (GPa) = 23.61224 52.54652 137.45098
#
# Poissons Ratio (x) = 0.59998 0.05310
# Poissons Ratio (y) = 0.26961 0.55947
# Poissons Ratio (z) = 0.00912 0.21388
#
# Static dielectric constant tensor:
#      x y z
#    x 1.862910 0.000000 -0.031050 
#    y 0.000000 1.844860 0.000000 
#    z -0.031050 0.000000 1.911820 
# 
# From -- ./inp_files/155628.got.cif
#   From: 2010.05.17/outbox.cif.g08.bks.cpg/sg15_78_cif.got.tgz:155628.got - 2010.06.03 18:47:42.
