data_PCOD9294036
_publ_section_title
;
Structure prediction by ZEFSAII (Michael W. Deem and Ramdas Pophale) SiO2 
 PCOD9294036
Probable space group: C 2/C
;
_chemical_formula_sum "Si O2"
_cell_formula_units_Z 48
_cell_length_a 17.494219
_cell_length_b 5.742372
_cell_length_c 21.935804
_cell_angle_alpha 90.000000
_cell_angle_beta 126.888951
_cell_angle_gamma 90.000000
_cell_volume 1762.467317
_symmetry_space_group_name_H-M "C 2/C"
_symmetry_group_IT_number 15
_symmetry_cell_setting 'monoclinic'
loop_
_space_group_symop_operation_xyz
x,y,z
-x,y,1/2-z
-x,-y,-z
x,-y,1/2+z
1/2+x,1/2+y,z
1/2-x,1/2+y,1/2-z
1/2-x,1/2-y,-z
1/2+x,1/2-y,1/2+z
loop_
_atom_site_type_symbol
_atom_site_label
_atom_site_fract_x
_atom_site_fract_y
_atom_site_fract_z
Si Si1 0.105400 0.003552 0.939007
Si Si2 0.288411 0.647316 0.125375
Si Si3 0.448707 0.998936 0.541201
Si Si4 0.065920 0.099884 0.732313
Si Si5 0.349186 0.086613 0.841386
Si Si6 0.261402 0.045138 0.179009
O O1 0.107109 0.257183 0.972924
O O2 0.002966 0.023165 0.854481
O O3 0.101325 0.749421 0.970446
O O4 0.187636 0.974307 0.926580
O O5 0.387270 0.620880 0.210854
O O6 0.201641 0.555224 0.127280
O O7 0.272363 0.923052 0.119464
O O8 0.547057 0.000132 0.627816
O O9 0.500000 0.000000 0.500000
O O10 0.159528 0.257316 0.774624
O O11 0.000000 0.227111 0.750000
O O12 0.284294 0.103634 0.749846
O O13 0.343750 0.348922 0.864352
#
# Coordination Sequence:
#
# PCOD9294036 Si02
#       6
#     8   8   8   8   8   8
#     4  11  25  45  69  96 134 177 229 280 338 401
#     4  10  23  38  62 100 138 177 213 273 345 416
#     4  12  28  49  71  94 129 182 238 286 331 393
#     4   9  20  34  59  99 137 172 209 266 340 413
#     4  11  23  37  66  98 138 173 223 271 337 406
#     4  11  20  35  63 100 139 173 214 270 349 412
#
# _framework density 27.234548
#
# number of rings (size 3 to 8) (size 9 to 14) (size 15 to 20)
#    0.000    1.333    3.333    1.500   11.667    0.667 
#    0.000    1.667    0.000    0.000    0.000    0.000 
#    0.000    0.000    0.000    0.000    0.000    0.000 
#
# Total GULP energy -133893.396278 kJ/mol
# GULP energy per Si atom -5578.891512 kJ/mol
# Density = 2.717256 g / cm^3
# Si number density = 27.234548 Si / 1000 Ang^3
#
#
#
# Elastic Constant Matrix: (Units=GPa)
#
#
# Indices 1 2 3 4 5 6 
#
# 1 147.6230 66.9514 21.4223 0.0000 -18.5937 0.0000
# 2 66.9514 173.9850 49.1950 -0.0002 -30.3134 0.0002
# 3 21.4223 49.1950 83.6079 0.0000 -9.4481 0.0000
# 4 0.0000 -0.0002 0.0000 29.5199 0.0000 -14.1841
# 5 -18.5937 -30.3134 -9.4481 0.0000 45.5983 0.0000
# 6 0.0000 0.0002 0.0000 -14.1841 0.0000 49.0344
#
#
#
# Elastic Compliance Matrix: (Units=1/GPa)
#
#
# Indices 1 2 3 4 5 6 
#
# 1 0.008293 -0.002865 -0.000279 0.000000 0.001419 0.000000
# 2 -0.002865 0.008607 -0.003907 0.000000 0.003744 0.000000
# 3 -0.000279 -0.003907 0.014361 0.000000 0.000264 0.000000
# 4 0.000000 0.000000 0.000000 0.039344 0.000000 0.011381
# 5 0.001419 0.003744 0.000264 0.000000 0.025053 0.000000
# 6 0.000000 0.000000 0.000000 0.011381 0.000000 0.023686
#
#
# Mechanical properties :
#
#
# Convention : Reuss Voigt Hill
#
# Bulk Modulus (GPa) = 58.27898 75.59480 66.93689
# Shear Modulus (GPa) = 35.92843 42.67367 39.30105
#
# Velocity S-wave (km/s) = 3.63605 3.96270 3.80288
# Velocity P-wave (km/s) = 6.25086 6.98244 6.62675
#
# Compressibility (1/GPa) = 0.01715884
#
# Stress axis : x y z
#
# Youngs Moduli (GPa) = 120.58998 116.18054 69.63331
#
# Poissons Ratio (x) = 0.33286 0.01940
# Poissons Ratio (y) = 0.34550 0.27208
# Poissons Ratio (z) = 0.03359 0.45396
#
# Static dielectric constant tensor:
#      x y z
#    x 2.168610 0.000000 0.030240 
#    y 0.000000 2.389260 0.000000 
#    z 0.030240 0.000000 2.351910 
# 
# From -- ./inp_files/275702.got.cif
#   From: 2010.05.17/outbox.cif.g08.bks.cpg/sg15_138_cif.got.tgz:275702.got - 2010.06.03 18:47:42.
