data_PCOD9294537
_publ_section_title
;
Structure prediction by ZEFSAII (Michael W. Deem and Ramdas Pophale) SiO2 
 PCOD9294537
Probable space group: C 2/C
;
_chemical_formula_sum "Si O2"
_cell_formula_units_Z 32
_cell_length_a 12.459440
_cell_length_b 19.985748
_cell_length_c 5.124885
_cell_angle_alpha 90.000000
_cell_angle_beta 88.695669
_cell_angle_gamma 90.000000
_cell_volume 1275.823245
_symmetry_space_group_name_H-M "C 2/C"
_symmetry_group_IT_number 15
_symmetry_cell_setting 'monoclinic'
loop_
_space_group_symop_operation_xyz
x,y,z
-x,y,1/2-z
-x,-y,-z
x,-y,1/2+z
1/2+x,1/2+y,z
1/2-x,1/2+y,1/2-z
1/2-x,1/2-y,-z
1/2+x,1/2-y,1/2+z
loop_
_atom_site_type_symbol
_atom_site_label
_atom_site_fract_x
_atom_site_fract_y
_atom_site_fract_z
Si Si1 0.120638 0.544931 0.504453
Si Si2 0.195473 0.862311 0.403992
Si Si3 0.000000 0.342778 0.750000
Si Si4 0.000000 0.950586 0.250000
Si Si5 0.883539 0.268880 0.382126
O O1 0.114774 0.510039 0.781213
O O2 0.234936 0.580522 0.463586
O O3 0.031551 0.602123 0.465834
O O4 0.103424 0.900796 0.251071
O O5 0.145171 0.808670 0.604965
O O6 0.290413 0.816060 0.269214
O O7 0.903234 0.292006 0.684792
O O8 0.000000 0.000000 0.500000
O O9 0.000000 0.277192 0.250000
#
# Coordination Sequence:
#
# PCOD9294537 Si02
#       5
#     8   8   4   4   8
#     4  11  24  43  70 102 143 187 233 297 361 432
#     4  10  24  47  73 110 144 188 256 294 370 441
#     4  10  23  40  68 104 139 178 244 288 368 432
#     4  12  27  50  78 108 153 200 242 302 364 444
#     4  10  23  47  75 104 143 192 241 315 366 428
#
# _framework density 25.081847
#
# number of rings (size 3 to 8) (size 9 to 14) (size 15 to 20)
#    0.000    1.500    0.000    3.000    8.750    0.000 
#    9.000    5.000    0.000    0.000    0.000    0.000 
#    0.000    0.000    0.000    0.000    0.000    0.000 
#
# Total GULP energy -89217.092805 kJ/mol
# GULP energy per Si atom -5576.068300 kJ/mol
# Density = 2.502476 g / cm^3
# Si number density = 25.081847 Si / 1000 Ang^3
#
#
#
# Elastic Constant Matrix: (Units=GPa)
#
#
# Indices 1 2 3 4 5 6 
#
# 1 203.7423 98.7394 55.8979 0.0000 10.6049 0.0000
# 2 98.7394 153.0345 34.3931 0.0000 12.2608 0.0000
# 3 55.8979 34.3931 80.8331 0.0000 8.0893 0.0000
# 4 0.0000 0.0000 0.0000 14.7317 0.0000 12.2246
# 5 10.6049 12.2608 8.0893 0.0000 33.5527 0.0000
# 6 0.0000 0.0000 0.0000 12.2246 0.0000 84.6515
#
#
#
# Elastic Compliance Matrix: (Units=1/GPa)
#
#
# Indices 1 2 3 4 5 6 
#
# 1 0.008033 -0.004347 -0.003700 0.000000 -0.000059 0.000000
# 2 -0.004347 0.009704 -0.000928 0.000000 -0.001948 0.000000
# 3 -0.003700 -0.000928 0.015548 0.000000 -0.002240 0.000000
# 4 0.000000 0.000000 0.000000 0.077123 0.000000 -0.011137
# 5 -0.000059 -0.001948 -0.002240 0.000000 0.031074 0.000000
# 6 0.000000 0.000000 0.000000 -0.011137 0.000000 0.013421
#
#
# Mechanical properties :
#
#
# Convention : Reuss Voigt Hill
#
# Bulk Modulus (GPa) = 65.20347 90.63007 77.91677
# Shear Modulus (GPa) = 28.09555 43.15913 35.62734
#
# Velocity S-wave (km/s) = 3.35050 4.15267 3.77297
# Velocity P-wave (km/s) = 6.40473 7.69448 7.07904
#
# Compressibility (1/GPa) = 0.01533661
#
# Stress axis : x y z
#
# Youngs Moduli (GPa) = 124.49100 103.05427 64.31496
#
# Poissons Ratio (x) = 0.44794 0.23793
# Poissons Ratio (y) = 0.54112 0.05968
# Poissons Ratio (z) = 0.46056 0.09563
#
# Static dielectric constant tensor:
#      x y z
#    x 2.039670 0.000000 -0.040500 
#    y 0.000000 1.969970 0.000000 
#    z -0.040500 0.000000 2.165200 
# 
# From -- ./inp_files/6547.got.cif
#   From: 2010.05.17/outbox.cif.g08.bks.cpg/sg15_4_cif.got.tgz:6547.got - 2010.06.03 18:47:42.
