data_PCOD9294515
_publ_section_title
;
Structure prediction by ZEFSAII (Michael W. Deem and Ramdas Pophale) SiO2 
 PCOD9294515
Probable space group: C 2/C
;
_chemical_formula_sum "Si O2"
_cell_formula_units_Z 56
_cell_length_a 23.848410
_cell_length_b 15.832555
_cell_length_c 16.203745
_cell_angle_alpha 90.000000
_cell_angle_beta 26.899582
_cell_angle_gamma 90.000000
_cell_volume 2768.060033
_symmetry_space_group_name_H-M "C 2/C"
_symmetry_group_IT_number 15
_symmetry_cell_setting 'monoclinic'
loop_
_space_group_symop_operation_xyz
x,y,z
-x,y,1/2-z
-x,-y,-z
x,-y,1/2+z
1/2+x,1/2+y,z
1/2-x,1/2+y,1/2-z
1/2-x,1/2-y,-z
1/2+x,1/2-y,1/2+z
loop_
_atom_site_type_symbol
_atom_site_label
_atom_site_fract_x
_atom_site_fract_y
_atom_site_fract_z
Si Si1 0.136551 0.667021 0.094078
Si Si2 0.747603 0.511460 0.645861
Si Si3 0.634728 0.643708 0.905823
Si Si4 0.864614 0.860350 0.809184
Si Si5 0.437054 0.067931 0.021627
Si Si6 0.184045 0.673546 0.689917
Si Si7 0.186075 0.710505 0.216910
O O1 0.137947 0.692150 0.187978
O O2 0.000000 0.642442 0.250000
O O3 0.219845 0.586177 0.961481
O O4 0.182122 0.745826 0.977639
O O5 0.659999 0.555590 0.828159
O O6 0.679056 0.435509 0.691775
O O7 0.869512 0.476831 0.533550
O O8 0.759406 0.664003 0.793236
O O9 0.617505 0.716461 0.859338
O O10 0.512752 0.640718 0.121627
O O11 0.826986 0.771530 0.817501
O O12 0.786473 0.866617 0.995238
O O13 0.334614 0.125449 0.203593
O O14 0.552263 0.128870 0.848336
O O15 0.500000 0.000000 0.000000
#
# Coordination Sequence:
#
# PCOD9294515 Si02
#       7
#     8   8   8   8   8   8   8
#     4  10  23  42  65  99 133 172 215 282 332 389
#     4  11  25  39  69 100 131 172 223 280 333 391
#     4  11  22  46  66  95 131 176 221 273 335 395
#     4  11  25  42  65  95 136 174 221 270 333 399
#     4  12  23  42  69  99 130 174 227 275 326 401
#     4  11  25  43  66  95 134 179 219 273 331 396
#     4  10  23  40  67  95 129 170 222 267 336 393
#
# _framework density 20.230775000000001
#
# number of rings (size 3 to 8) (size 9 to 14) (size 15 to 20)
#    0.000    1.143    2.857    2.571    6.000    1.143 
#    0.000    1.429    0.000    0.000    0.000    0.000 
#    0.000    0.000    0.000    0.000    0.000    0.000 
#
# Total GULP energy -156319.884606 kJ/mol
# GULP energy per Si atom -5582.853022 kJ/mol
# Density = 2.018473 g / cm^3
# Si number density = 20.230775 Si / 1000 Ang^3
#
#
#
# Elastic Constant Matrix: (Units=GPa)
#
#
# Indices 1 2 3 4 5 6 
#
# 1 62.0097 24.6072 9.0822 0.0000 8.6440 0.0000
# 2 24.6072 97.9107 9.3626 0.0000 8.3323 0.0000
# 3 9.0822 9.3626 66.9326 0.0000 12.0360 0.0000
# 4 0.0000 0.0000 0.0000 9.0295 0.0000 4.1413
# 5 8.6440 8.3323 12.0360 0.0000 27.3193 0.0000
# 6 0.0000 0.0000 0.0000 4.1413 0.0000 17.5562
#
#
#
# Elastic Compliance Matrix: (Units=1/GPa)
#
#
# Indices 1 2 3 4 5 6 
#
# 1 0.018533 -0.004198 -0.001198 0.000000 -0.004056 0.000000
# 2 -0.004198 0.011495 -0.000702 0.000000 -0.001868 0.000000
# 3 -0.001198 -0.000702 0.016393 0.000000 -0.006629 0.000000
# 4 0.000000 0.000000 0.000000 0.124183 0.000000 -0.029293
# 5 -0.004056 -0.001868 -0.006629 0.000000 0.041378 0.000000
# 6 0.000000 0.000000 0.000000 -0.029293 0.000000 0.063870
#
#
# Mechanical properties :
#
#
# Convention : Reuss Voigt Hill
#
# Bulk Modulus (GPa) = 29.21938 34.77297 31.99618
# Shear Modulus (GPa) = 16.69688 23.03441 19.86565
#
# Velocity S-wave (km/s) = 2.87596 3.37795 3.13701
# Velocity P-wave (km/s) = 5.05001 5.69557 5.38248
#
# Compressibility (1/GPa) = 0.03422386
#
# Stress axis : x y z
#
# Youngs Moduli (GPa) = 53.95692 86.99733 61.00059
#
# Poissons Ratio (x) = 0.36522 0.07309
# Poissons Ratio (y) = 0.22652 0.04284
# Poissons Ratio (z) = 0.06465 0.06110
#
# Static dielectric constant tensor:
#      x y z
#    x 1.702980 0.000000 0.018300 
#    y 0.000000 1.707550 0.000000 
#    z 0.018300 0.000000 1.732330 
# 
# From -- ./inp_files/169096.got.cif
#   From: 2010.05.17/outbox.cif.g08.bks.cpg/sg15_85_cif.got.tgz:169096.got - 2010.06.03 18:47:42.
