data_PCOD9294446
_publ_section_title
;
Structure prediction by ZEFSAII (Michael W. Deem and Ramdas Pophale) SiO2 
 PCOD9294446
Probable space group: C 2/C
;
_chemical_formula_sum "Si O2"
_cell_formula_units_Z 44
_cell_length_a 15.298031
_cell_length_b 10.933755
_cell_length_c 12.748321
_cell_angle_alpha 90.000000
_cell_angle_beta 92.139224
_cell_angle_gamma 90.000000
_cell_volume 2130.860841
_symmetry_space_group_name_H-M "C 2/C"
_symmetry_group_IT_number 15
_symmetry_cell_setting 'monoclinic'
loop_
_space_group_symop_operation_xyz
x,y,z
-x,y,1/2-z
-x,-y,-z
x,-y,1/2+z
1/2+x,1/2+y,z
1/2-x,1/2+y,1/2-z
1/2-x,1/2-y,-z
1/2+x,1/2-y,1/2+z
loop_
_atom_site_type_symbol
_atom_site_label
_atom_site_fract_x
_atom_site_fract_y
_atom_site_fract_z
Si Si1 0.863613 0.813126 0.576365
Si Si2 0.899294 0.264468 0.749508
Si Si3 0.500000 0.627104 0.250000
Si Si4 0.705749 0.866465 0.945432
Si Si5 0.175596 0.591028 0.074199
Si Si6 0.862309 0.965444 0.369153
O O1 0.840619 0.682989 0.524142
O O2 0.774912 0.877255 0.614198
O O3 0.890790 0.900085 0.479546
O O4 0.935523 0.802166 0.668969
O O5 0.864334 0.315904 0.639426
O O6 0.887537 0.369339 0.835965
O O7 0.844706 0.147403 0.789016
O O8 0.000000 0.226548 0.750000
O O9 0.438210 0.545132 0.321244
O O10 0.778876 0.950346 0.890762
O O11 0.750000 0.750000 0.000000
O O12 0.667147 0.954554 0.033010
#
# Coordination Sequence:
#
# PCOD9294446 Si02
#       6
#     8   8   4   8   8   8
#     4   9  20  38  63  94 126 174 214 270 332 385
#     4  11  24  43  69  98 135 174 217 281 342 376
#     4  12  20  34  68 102 128 162 228 278 324 390
#     4  11  26  42  71  97 129 180 231 259 325 419
#     4   9  21  45  62  88 138 174 211 268 335 391
#     4  10  23  40  65  96 136 167 220 278 332 385
#
# _framework density 20.64893
#
# number of rings (size 3 to 8) (size 9 to 14) (size 15 to 20)
#    0.000    1.818    0.909    2.727    7.636    3.636 
#    1.636    0.000    0.000    0.000    0.000    0.000 
#    0.000    0.000    0.000    0.000    0.000    0.000 
#
# Total GULP energy -122949.690171 kJ/mol
# GULP energy per Si atom -5588.622280 kJ/mol
# Density = 2.060193 g / cm^3
# Si number density = 20.648930 Si / 1000 Ang^3
#
#
#
# Elastic Constant Matrix: (Units=GPa)
#
#
# Indices 1 2 3 4 5 6 
#
# 1 49.3316 10.5262 20.3073 0.0000 15.1183 0.0000
# 2 10.5262 99.7799 26.2475 0.0000 17.4914 0.0000
# 3 20.3073 26.2475 53.0431 0.0000 30.9487 0.0000
# 4 0.0000 0.0000 0.0000 20.4551 0.0000 -10.1038
# 5 15.1183 17.4914 30.9487 0.0000 45.6329 0.0000
# 6 0.0000 0.0000 0.0000 -10.1038 0.0000 24.9361
#
#
#
# Elastic Compliance Matrix: (Units=1/GPa)
#
#
# Indices 1 2 3 4 5 6 
#
# 1 0.024290 -0.000062 -0.007591 0.000000 -0.002875 0.000000
# 2 -0.000062 0.011545 -0.005162 0.000000 -0.000904 0.000000
# 3 -0.007591 -0.005162 0.035896 0.000000 -0.019851 0.000000
# 4 0.000000 0.000000 0.000000 0.061120 0.000000 0.024765
# 5 -0.002875 -0.000904 -0.019851 0.000000 0.036676 0.000000
# 6 0.000000 0.000000 0.000000 0.024765 0.000000 0.050137
#
#
# Mechanical properties :
#
#
# Convention : Reuss Voigt Hill
#
# Bulk Modulus (GPa) = 21.69128 35.14629 28.41879
# Shear Modulus (GPa) = 19.18205 27.87640 23.52923
#
# Velocity S-wave (km/s) = 3.05119 3.67824 3.37929
# Velocity P-wave (km/s) = 4.78964 5.92428 5.38692
#
# Compressibility (1/GPa) = 0.04610147
#
# Stress axis : x y z
#
# Youngs Moduli (GPa) = 41.16880 86.61875 27.85864
#
# Poissons Ratio (x) = 0.00533 0.21148
# Poissons Ratio (y) = 0.00253 0.14380
# Poissons Ratio (z) = 0.31253 0.44710
#
# Static dielectric constant tensor:
#      x y z
#    x 1.733970 0.000000 -0.019470 
#    y 0.000000 1.728900 0.000000 
#    z -0.019470 0.000000 1.736030 
# 
# From -- ./inp_files/95048.got.cif
#   From: 2010.05.17/outbox.cif.g08.bks.cpg/sg15_48_cif.got.tgz:95048.got - 2010.06.03 18:47:42.
