data_PCOD9294717
_publ_section_title
;
Structure prediction by ZEFSAII (Michael W. Deem and Ramdas Pophale) SiO2 
 PCOD9294717
Probable space group: C 2/C
;
_chemical_formula_sum "Si O2"
_cell_formula_units_Z 36
_cell_length_a 25.490737
_cell_length_b 6.161278
_cell_length_c 27.089117
_cell_angle_alpha 90.000000
_cell_angle_beta 19.726862
_cell_angle_gamma 90.000000
_cell_volume 1436.047919
_symmetry_space_group_name_H-M "C 2/C"
_symmetry_group_IT_number 15
_symmetry_cell_setting 'monoclinic'
loop_
_space_group_symop_operation_xyz
x,y,z
-x,y,1/2-z
-x,-y,-z
x,-y,1/2+z
1/2+x,1/2+y,z
1/2-x,1/2+y,1/2-z
1/2-x,1/2-y,-z
1/2+x,1/2-y,1/2+z
loop_
_atom_site_type_symbol
_atom_site_label
_atom_site_fract_x
_atom_site_fract_y
_atom_site_fract_z
Si Si1 0.037103 0.402265 0.047204
Si Si2 0.111763 0.207178 0.406249
Si Si3 0.000000 0.783577 0.750000
Si Si4 0.287273 0.550990 0.002891
Si Si5 0.786655 0.519672 0.828553
O O1 0.895629 0.278533 0.143683
O O2 0.971312 0.445065 0.160274
O O3 0.066880 0.599588 0.983366
O O4 0.183912 0.239729 0.919775
O O5 0.261040 0.121076 0.301823
O O6 0.000000 0.000000 0.500000
O O7 0.851314 0.628878 0.873769
O O8 0.055146 0.940878 0.656611
O O9 0.281753 0.615867 0.065082
O O10 0.250000 0.750000 0.000000
#
# Coordination Sequence:
#
# PCOD9294717 Si02
#       5
#     8   8   4   8   8
#     4  10  23  41  64  96 137 170 227 275 338 411
#     4   9  22  38  60  93 133 175 213 269 331 404
#     4  10  24  44  68  94 138 172 230 292 358 414
#     4  11  24  44  69 100 135 179 234 295 353 421
#     4  11  24  40  69  97 129 176 224 278 347 404
#
# _framework density 25.068802999999999
#
# number of rings (size 3 to 8) (size 9 to 14) (size 15 to 20)
#    0.000    1.778    0.000    2.000    9.333    8.889 
#    0.000    0.000    0.000    0.000    0.000    0.000 
#    0.000    0.000    0.000    0.000    0.000    0.000 
#
# Total GULP energy -100357.828427 kJ/mol
# GULP energy per Si atom -5575.434913 kJ/mol
# Density = 2.501174 g / cm^3
# Si number density = 25.068803 Si / 1000 Ang^3
#
#
#
# Elastic Constant Matrix: (Units=GPa)
#
#
# Indices 1 2 3 4 5 6 
#
# 1 36.7831 20.6113 5.0723 0.0103 3.5354 0.0045
# 2 20.6113 87.6707 33.1310 -0.0211 10.2650 0.0275
# 3 5.0723 33.1310 140.0591 -0.0027 23.7851 0.0088
# 4 0.0103 -0.0211 -0.0027 41.4399 0.0046 -2.7036
# 5 3.5354 10.2650 23.7851 0.0046 22.3321 -0.0011
# 6 0.0045 0.0275 0.0088 -2.7036 -0.0011 42.3028
#
#
#
# Elastic Compliance Matrix: (Units=1/GPa)
#
#
# Indices 1 2 3 4 5 6 
#
# 1 0.031499 -0.007502 0.001093 -0.000011 -0.002702 0.000001
# 2 -0.007502 0.014500 -0.002720 0.000009 -0.002580 -0.000008
# 3 0.001093 -0.002720 0.009230 0.000000 -0.008753 -0.000001
# 4 -0.000011 0.000009 0.000000 0.024232 -0.000007 0.001549
# 5 -0.002702 -0.002580 -0.008753 -0.000007 0.055715 0.000005
# 6 0.000001 -0.000008 -0.000001 0.001549 0.000005 0.023738
#
#
# Mechanical properties :
#
#
# Convention : Reuss Voigt Hill
#
# Bulk Modulus (GPa) = 27.04842 42.46024 34.75433
# Shear Modulus (GPa) = 26.38555 34.92819 30.65687
#
# Velocity S-wave (km/s) = 3.24778 3.73673 3.50081
# Velocity P-wave (km/s) = 4.98771 5.96589 5.49859
#
# Compressibility (1/GPa) = 0.03697074
#
# Stress axis : x y z
#
# Youngs Moduli (GPa) = 31.74688 68.96511 108.33954
#
# Poissons Ratio (x) = 0.51737 -0.11839
# Poissons Ratio (y) = 0.23816 0.29470
# Poissons Ratio (z) = -0.03469 0.18759
#
# Static dielectric constant tensor:
#      x y z
#    x 2.183450 -0.000020 0.055990 
#    y -0.000020 2.091130 0.000020 
#    z 0.055990 0.000020 1.999400 
# 
# From -- ./inp_files/319898.got.cif
#   From: 2010.05.17/outbox.cif.g08.bks.cpg/sg15_160_cif.got.tgz:319898.got - 2010.06.03 18:47:42.
