data_PCOD9294375
_publ_section_title
;
Structure prediction by ZEFSAII (Michael W. Deem and Ramdas Pophale) SiO2 
 PCOD9294375
Probable space group: C 2/C
;
_chemical_formula_sum "Si O2"
_cell_formula_units_Z 60
_cell_length_a 20.165045
_cell_length_b 19.743717
_cell_length_c 5.853952
_cell_angle_alpha 90.000000
_cell_angle_beta 78.692822
_cell_angle_gamma 90.000000
_cell_volume 2285.413432
_symmetry_space_group_name_H-M "C 2/C"
_symmetry_group_IT_number 15
_symmetry_cell_setting 'monoclinic'
loop_
_space_group_symop_operation_xyz
x,y,z
-x,y,1/2-z
-x,-y,-z
x,-y,1/2+z
1/2+x,1/2+y,z
1/2-x,1/2+y,1/2-z
1/2-x,1/2-y,-z
1/2+x,1/2-y,1/2+z
loop_
_atom_site_type_symbol
_atom_site_label
_atom_site_fract_x
_atom_site_fract_y
_atom_site_fract_z
Si Si1 0.425863 0.321984 0.402989
Si Si2 0.670413 0.203556 0.181372
Si Si3 0.582614 0.469188 0.206883
Si Si4 0.245979 0.029478 0.865709
Si Si5 0.743455 0.176703 0.719899
Si Si6 0.000000 0.787063 0.750000
Si Si7 0.597240 0.167744 0.610858
Si Si8 0.089330 0.471646 0.288973
O O1 0.500000 0.307822 0.250000
O O2 0.379231 0.256783 0.409920
O O3 0.397187 0.389861 0.316637
O O4 0.448070 0.333429 0.648530
O O5 0.711840 0.256543 0.311316
O O6 0.624697 0.148673 0.341224
O O7 0.727717 0.166087 0.999797
O O8 0.500000 0.469689 0.250000
O O9 0.601736 0.497851 0.446315
O O10 0.228848 0.109051 0.908902
O O11 0.328399 0.026295 0.786814
O O12 0.225419 0.005660 0.621065
O O13 0.667022 0.185780 0.687454
O O14 0.050375 0.732182 0.602639
O O15 0.568743 0.107090 0.777038
O O16 0.068140 0.496219 0.556802
#
# Coordination Sequence:
#
# PCOD9294375 Si02
#       8
#     8   8   8   8   8   4   8   8
#     4  11  23  40  64  89 127 163 211 261 317 382
#     4  11  23  41  61  95 123 171 208 262 325 382
#     4   9  20  36  61  90 120 163 210 260 316 378
#     4   9  19  36  61  91 121 167 213 263 316 377
#     4  10  23  40  63  90 129 163 214 261 320 383
#     4  12  24  40  60 100 122 172 208 268 324 386
#     4  11  23  39  66  90 131 164 214 266 320 387
#     4   9  20  36  62  92 123 167 216 263 320 380
#
# _framework density 26.253454000000001
#
# number of rings (size 3 to 8) (size 9 to 14) (size 15 to 20)
#    0.000    1.867    2.667    0.400   14.000    0.000 
#    0.000    2.000    0.000    0.000    0.000    0.000 
#    0.000    0.000    0.000    0.000    0.000    0.000 
#
# Total GULP energy -167369.421923 kJ/mol
# GULP energy per Si atom -5578.980731 kJ/mol
# Density = 2.619370 g / cm^3
# Si number density = 26.253454 Si / 1000 Ang^3
#
#
#
# Elastic Constant Matrix: (Units=GPa)
#
#
# Indices 1 2 3 4 5 6 
#
# 1 76.7931 5.9456 30.7045 0.0000 25.0858 0.0000
# 2 5.9456 65.5738 52.5529 0.0000 -2.1336 0.0000
# 3 30.7045 52.5529 133.7883 0.0000 9.9140 0.0000
# 4 0.0000 0.0000 0.0000 65.4142 0.0000 -19.4952
# 5 25.0858 -2.1336 9.9140 0.0000 44.3573 0.0000
# 6 0.0000 0.0000 0.0000 -19.4952 0.0000 35.7509
#
#
#
# Elastic Compliance Matrix: (Units=1/GPa)
#
#
# Indices 1 2 3 4 5 6 
#
# 1 0.017355 0.001166 -0.003781 0.000000 -0.008914 0.000000
# 2 0.001166 0.022755 -0.009394 0.000000 0.002535 0.000000
# 3 -0.003781 -0.009394 0.012108 0.000000 -0.001020 0.000000
# 4 0.000000 0.000000 0.000000 0.018254 0.000000 0.009954
# 5 -0.008914 0.002535 -0.001020 0.000000 0.027935 0.000000
# 6 0.000000 0.000000 0.000000 0.009954 0.000000 0.033399
#
#
# Mechanical properties :
#
#
# Convention : Reuss Voigt Hill
#
# Bulk Modulus (GPa) = 35.45878 50.50679 42.98279
# Shear Modulus (GPa) = 30.26201 41.56794 35.91498
#
# Velocity S-wave (km/s) = 3.39881 3.98343 3.70267
# Velocity P-wave (km/s) = 5.37942 6.35900 5.88961
#
# Compressibility (1/GPa) = 0.02820176
#
# Stress axis : x y z
#
# Youngs Moduli (GPa) = 57.61948 43.94581 82.59197
#
# Poissons Ratio (x) = -0.05125 0.31225
# Poissons Ratio (y) = -0.06720 0.77586
# Poissons Ratio (z) = 0.21784 0.41282
#
# Static dielectric constant tensor:
#      x y z
#    x 2.100490 0.000000 0.064680 
#    y 0.000000 1.949220 0.000000 
#    z 0.064680 0.000000 2.532820 
# 
# From -- ./inp_files/15844.got.cif
#   From: 2010.05.17/outbox.cif.g08.bks.cpg/sg15_8_cif.got.tgz:15844.got - 2010.06.03 18:47:42.
