data_PCOD9294355
_publ_section_title
;
Structure prediction by ZEFSAII (Michael W. Deem and Ramdas Pophale) SiO2 
 PCOD9294355
Probable space group: C 2/C
;
_chemical_formula_sum "Si O2"
_cell_formula_units_Z 56
_cell_length_a 11.758924
_cell_length_b 27.113243
_cell_length_c 14.919838
_cell_angle_alpha 90.000000
_cell_angle_beta 145.140358
_cell_angle_gamma 90.000000
_cell_volume 2718.823961
_symmetry_space_group_name_H-M "C 2/C"
_symmetry_group_IT_number 15
_symmetry_cell_setting 'monoclinic'
loop_
_space_group_symop_operation_xyz
x,y,z
-x,y,1/2-z
-x,-y,-z
x,-y,1/2+z
1/2+x,1/2+y,z
1/2-x,1/2+y,1/2-z
1/2-x,1/2-y,-z
1/2+x,1/2-y,1/2+z
loop_
_atom_site_type_symbol
_atom_site_label
_atom_site_fract_x
_atom_site_fract_y
_atom_site_fract_z
Si Si1 0.226977 0.026082 0.908524
Si Si2 0.195763 0.361398 0.340927
Si Si3 0.728264 0.632234 0.411281
Si Si4 0.482911 0.944407 0.404708
Si Si5 0.080344 0.694952 0.102957
Si Si6 0.576543 0.697293 0.025781
Si Si7 0.169893 0.373904 0.933669
O O1 0.324081 0.036923 0.873893
O O2 0.000000 0.007792 0.750000
O O3 0.225952 0.076794 0.963797
O O4 0.390797 0.988898 0.056760
O O5 0.268184 0.382285 0.482288
O O6 0.125537 0.405272 0.230440
O O7 0.365959 0.327956 0.410925
O O8 0.000000 0.332548 0.250000
O O9 0.500000 0.641714 0.250000
O O10 0.851202 0.678561 0.452033
O O11 0.837284 0.586809 0.432456
O O12 0.275316 0.696813 0.292830
O O13 0.935530 0.654259 0.052419
O O14 0.968590 0.746878 0.030947
O O15 0.682174 0.664689 0.017974
O O16 0.000000 0.385702 0.750000
#
# Coordination Sequence:
#
# PCOD9294355 Si02
#       7
#     8   8   8   8   8   8   8
#     4  11  22  41  70 100 132 170 222 268 339 399
#     4  10  23  40  62  92 130 167 217 264 327 384
#     4  11  21  41  65  91 133 171 216 271 328 384
#     4  10  23  41  65  99 133 170 217 275 329 401
#     4  11  24  40  64  97 130 176 220 274 328 395
#     4  11  24  41  64  95 132 171 226 271 334 389
#     4  10  23  43  65  95 134 170 219 277 329 396
#
# _framework density 20.597141000000001
#
# number of rings (size 3 to 8) (size 9 to 14) (size 15 to 20)
#    0.000    1.429    2.857    1.714    4.000    4.000 
#    0.000    0.000    0.000   16.286    0.000    0.000 
#    0.000    0.000    0.000    0.000    0.000    0.000 
#
# Total GULP energy -156124.522328 kJ/mol
# GULP energy per Si atom -5575.875797 kJ/mol
# Density = 2.055026 g / cm^3
# Si number density = 20.597141 Si / 1000 Ang^3
#
#
#
# Elastic Constant Matrix: (Units=GPa)
#
#
# Indices 1 2 3 4 5 6 
#
# 1 87.9860 10.0908 20.2607 0.0000 10.2374 0.0000
# 2 10.0908 75.9074 12.7535 0.0000 -4.8487 0.0000
# 3 20.2607 12.7535 31.1240 0.0000 3.9014 0.0000
# 4 0.0000 0.0000 0.0000 30.9248 0.0000 7.2253
# 5 10.2374 -4.8487 3.9014 0.0000 30.3019 0.0000
# 6 0.0000 0.0000 0.0000 7.2253 0.0000 29.6110
#
#
#
# Elastic Compliance Matrix: (Units=1/GPa)
#
#
# Indices 1 2 3 4 5 6 
#
# 1 0.013767 -0.000686 -0.008217 0.000000 -0.003703 0.000000
# 2 -0.000686 0.014467 -0.005896 0.000000 0.003306 0.000000
# 3 -0.008217 -0.005896 0.040315 0.000000 -0.003358 0.000000
# 4 0.000000 0.000000 0.000000 0.034291 0.000000 -0.008367
# 5 -0.003703 0.003306 -0.003358 0.000000 0.035214 0.000000
# 6 0.000000 0.000000 0.000000 -0.008367 0.000000 0.035813
#
#
# Mechanical properties :
#
#
# Convention : Reuss Voigt Hill
#
# Bulk Modulus (GPa) = 25.67257 31.24748 28.46002
# Shear Modulus (GPa) = 23.10025 28.29503 25.69764
#
# Velocity S-wave (km/s) = 3.35255 3.71042 3.53601
# Velocity P-wave (km/s) = 5.24189 5.79310 5.52437
#
# Compressibility (1/GPa) = 0.03895208
#
# Stress axis : x y z
#
# Youngs Moduli (GPa) = 72.63725 69.12334 24.80465
#
# Poissons Ratio (x) = 0.04743 0.20381
# Poissons Ratio (y) = 0.04984 0.14624
# Poissons Ratio (z) = 0.59683 0.40753
#
# Static dielectric constant tensor:
#      x y z
#    x 1.752170 0.000000 -0.012280 
#    y 0.000000 1.765410 0.000000 
#    z -0.012280 0.000000 1.801000 
# 
# From -- ./inp_files/148557.got.cif
#   From: 2010.05.17/outbox.cif.g08.bks.cpg/sg15_75_cif.got.tgz:148557.got - 2010.06.03 18:47:42.
