data_PCOD9294005
_publ_section_title
;
Structure prediction by ZEFSAII (Michael W. Deem and Ramdas Pophale) SiO2 
 PCOD9294005
Probable space group: C 2/C
;
_chemical_formula_sum "Si O2"
_cell_formula_units_Z 48
_cell_length_a 18.542766
_cell_length_b 24.858873
_cell_length_c 5.197717
_cell_angle_alpha 90.000000
_cell_angle_beta 77.783942
_cell_angle_gamma 90.000000
_cell_volume 2341.648185
_symmetry_space_group_name_H-M "C 2/C"
_symmetry_group_IT_number 15
_symmetry_cell_setting 'monoclinic'
loop_
_space_group_symop_operation_xyz
x,y,z
-x,y,1/2-z
-x,-y,-z
x,-y,1/2+z
1/2+x,1/2+y,z
1/2-x,1/2+y,1/2-z
1/2-x,1/2-y,-z
1/2+x,1/2-y,1/2+z
loop_
_atom_site_type_symbol
_atom_site_label
_atom_site_fract_x
_atom_site_fract_y
_atom_site_fract_z
Si Si1 0.583389 0.021376 0.979487
Si Si2 0.181133 0.208948 0.016683
Si Si3 0.693091 0.635607 0.507710
Si Si4 0.912877 0.307527 0.329339
Si Si5 0.137212 0.368089 0.625642
Si Si6 0.087447 0.035329 0.692721
O O1 0.618888 0.015886 0.672319
O O2 0.587859 0.081113 0.082724
O O3 0.500000 0.000000 0.000000
O O4 0.186187 0.178965 0.741979
O O5 0.250000 0.250000 0.000000
O O6 0.181126 0.165903 0.246541
O O7 0.109935 0.246956 0.087125
O O8 0.777505 0.615341 0.446323
O O9 0.636570 0.587453 0.600855
O O10 0.882410 0.345172 0.580681
O O11 0.000000 0.314601 0.250000
O O12 0.877623 0.323812 0.082969
O O13 0.000000 0.048709 0.750000
O O14 0.102276 0.991507 0.458082
#
# Coordination Sequence:
#
# PCOD9294005 Si02
#       6
#     8   8   8   8   8   8
#     4  10  23  38  57  84 119 166 210 274 311 367
#     4  12  23  45  66  97 134 172 225 277 343 382
#     4  12  24  41  75  98 132 179 222 276 332 411
#     4  12  27  41  66  93 129 176 217 276 322 408
#     4  12  24  42  64  94 127 174 227 265 339 383
#     4  10  23  44  69 103 143 175 216 279 346 407
#
# _framework density 20.498381999999999
#
# number of rings (size 3 to 8) (size 9 to 14) (size 15 to 20)
#    0.000    0.667    3.333    4.000    7.000    2.667 
#    0.000    0.000    0.000    0.000    0.000    0.000 
#    0.000    0.000    0.000    0.000    0.000    0.000 
#
# Total GULP energy -134237.531613 kJ/mol
# GULP energy per Si atom -5593.230484 kJ/mol
# Density = 2.045173 g / cm^3
# Si number density = 20.498382 Si / 1000 Ang^3
#
#
#
# Elastic Constant Matrix: (Units=GPa)
#
#
# Indices 1 2 3 4 5 6 
#
# 1 62.6938 27.5553 19.9950 0.0000 -21.8943 0.0000
# 2 27.5553 66.4977 0.3427 0.0000 -21.7459 0.0000
# 3 19.9950 0.3427 98.7366 0.0000 -0.2850 0.0000
# 4 0.0000 0.0000 0.0000 38.4901 0.0000 -9.3490
# 5 -21.8943 -21.7459 -0.2850 0.0000 31.4146 0.0000
# 6 0.0000 0.0000 0.0000 -9.3490 0.0000 33.9141
#
#
#
# Elastic Compliance Matrix: (Units=1/GPa)
#
#
# Indices 1 2 3 4 5 6 
#
# 1 0.024697 -0.005939 -0.004943 0.000000 0.013057 0.000000
# 2 -0.005939 0.020866 0.001160 0.000000 0.010316 0.000000
# 3 -0.004943 0.001160 0.011118 0.000000 -0.002541 0.000000
# 4 0.000000 0.000000 0.000000 0.027845 0.000000 0.007676
# 5 0.013057 0.010316 -0.002541 0.000000 0.048050 0.000000
# 6 0.000000 0.000000 0.000000 0.007676 0.000000 0.031602
#
#
# Mechanical properties :
#
#
# Convention : Reuss Voigt Hill
#
# Bulk Modulus (GPa) = 26.85459 35.96823 31.41141
# Shear Modulus (GPa) = 25.50574 32.76609 29.13591
#
# Velocity S-wave (km/s) = 3.53126 4.00243 3.77420
# Velocity P-wave (km/s) = 5.45488 6.24053 5.86088
#
# Compressibility (1/GPa) = 0.03723758
#
# Stress axis : x y z
#
# Youngs Moduli (GPa) = 40.49086 47.92383 89.94744
#
# Poissons Ratio (x) = 0.28460 0.44461
# Poissons Ratio (y) = 0.24046 -0.10434
# Poissons Ratio (z) = 0.20015 -0.05559
#
# Static dielectric constant tensor:
#      x y z
#    x 1.365350 0.000000 1.282590 
#    y 0.000000 1.723100 0.000000 
#    z 1.282590 0.000000 -2.735310 
# 
# From -- ./inp_files/10884.got.cif
#   From: 2010.05.17/outbox.cif.g08.bks.cpg/sg15_6_cif.got.tgz:10884.got - 2010.06.03 18:47:42.
