data_PCOD9294791
_publ_section_title
;
Structure prediction by ZEFSAII (Michael W. Deem and Ramdas Pophale) SiO2 
 PCOD9294791
Probable space group: C 2/C
;
_chemical_formula_sum "Si O2"
_cell_formula_units_Z 48
_cell_length_a 14.163593
_cell_length_b 25.932056
_cell_length_c 8.606827
_cell_angle_alpha 90.000000
_cell_angle_beta 137.302807
_cell_angle_gamma 90.000000
_cell_volume 2143.691881
_symmetry_space_group_name_H-M "C 2/C"
_symmetry_group_IT_number 15
_symmetry_cell_setting 'monoclinic'
loop_
_space_group_symop_operation_xyz
x,y,z
-x,y,1/2-z
-x,-y,-z
x,-y,1/2+z
1/2+x,1/2+y,z
1/2-x,1/2+y,1/2-z
1/2-x,1/2-y,-z
1/2+x,1/2-y,1/2+z
loop_
_atom_site_type_symbol
_atom_site_label
_atom_site_fract_x
_atom_site_fract_y
_atom_site_fract_z
Si Si1 0.035799 0.444363 0.110996
Si Si2 0.832201 0.365597 0.685183
Si Si3 0.539012 0.357763 0.462190
Si Si4 0.819380 0.283083 0.216225
Si Si5 0.901873 0.744691 0.333143
Si Si6 0.718266 0.390641 0.202652
O O1 0.200374 0.436663 0.279074
O O2 0.000000 0.439819 0.250000
O O3 0.000000 0.500000 0.000000
O O4 0.948993 0.401614 0.905271
O O5 0.705280 0.359649 0.656664
O O6 0.881703 0.307115 0.710399
O O7 0.777499 0.386005 0.452186
O O8 0.500000 0.382452 0.250000
O O9 0.471503 0.299829 0.374944
O O10 0.448488 0.386578 0.482939
O O11 0.749285 0.258413 0.285085
O O12 0.769472 0.341381 0.165267
O O13 0.983504 0.276513 0.407976
O O14 0.750000 0.250000 0.000000
#
# Coordination Sequence:
#
# PCOD9294791 Si02
#       6
#     8   8   8   8   8   8
#     4  12  27  46  73 100 127 164 222 287 346 402
#     4  11  22  41  66  96 133 175 228 274 332 395
#     4   9  21  36  59  96 134 178 219 262 322 397
#     4  11  23  34  52  87 133 177 220 267 315 391
#     4  11  21  33  57  85 133 178 225 259 318 379
#     4  10  23  41  66  93 134 175 216 276 331 391
#
# _framework density 22.391278
#
# number of rings (size 3 to 8) (size 9 to 14) (size 15 to 20)
#    0.000    1.333    3.333    2.000    4.667    2.000 
#    0.000    1.667    0.000    0.000    0.000    0.000 
#    0.000    0.000    0.000    0.000    0.000    0.000 
#
# Total GULP energy -133837.303040 kJ/mol
# GULP energy per Si atom -5576.554293 kJ/mol
# Density = 2.234031 g / cm^3
# Si number density = 22.391278 Si / 1000 Ang^3
#
#
#
# Elastic Constant Matrix: (Units=GPa)
#
#
# Indices 1 2 3 4 5 6 
#
# 1 143.5391 43.9628 32.1088 0.0000 23.5535 0.0000
# 2 43.9628 80.1142 1.5790 0.0000 7.6576 0.0000
# 3 32.1088 1.5790 63.1200 0.0000 5.3783 0.0000
# 4 0.0000 0.0000 0.0000 35.0725 0.0000 2.4221
# 5 23.5535 7.6576 5.3783 0.0000 43.7302 0.0000
# 6 0.0000 0.0000 0.0000 2.4221 0.0000 22.2900
#
#
#
# Elastic Compliance Matrix: (Units=1/GPa)
#
#
# Indices 1 2 3 4 5 6 
#
# 1 0.010273 -0.005157 -0.004752 0.000000 -0.004046 0.000000
# 2 -0.005157 0.015284 0.002256 0.000000 -0.000176 0.000000
# 3 -0.004752 0.002256 0.018210 0.000000 -0.000075 0.000000
# 4 0.000000 0.000000 0.000000 0.028728 0.000000 -0.003122
# 5 -0.004046 -0.000176 -0.000075 0.000000 0.025087 0.000000
# 6 0.000000 0.000000 0.000000 -0.003122 0.000000 0.045202
#
#
# Mechanical properties :
#
#
# Convention : Reuss Voigt Hill
#
# Bulk Modulus (GPa) = 35.13518 49.11939 42.12729
# Shear Modulus (GPa) = 29.83679 34.16004 31.99841
#
# Velocity S-wave (km/s) = 3.65433 3.91013 3.78439
# Velocity P-wave (km/s) = 5.79060 6.50922 6.16039
#
# Compressibility (1/GPa) = 0.02846150
#
# Stress axis : x y z
#
# Youngs Moduli (GPa) = 97.34149 65.42579 54.91430
#
# Poissons Ratio (x) = 0.33740 0.26096
# Poissons Ratio (y) = 0.50199 -0.12389
# Poissons Ratio (z) = 0.46258 -0.14760
#
# Static dielectric constant tensor:
#      x y z
#    x 1.917220 0.000000 -0.041280 
#    y 0.000000 1.813860 0.000000 
#    z -0.041280 0.000000 1.883570 
# 
# From -- ./inp_files/43926.got.cif
#   From: 2010.05.17/outbox.cif.g08.bks.cpg/sg15_22_cif.got.tgz:43926.got - 2010.06.03 18:47:42.
