data_PCOD9294671
_publ_section_title
;
Structure prediction by ZEFSAII (Michael W. Deem and Ramdas Pophale) SiO2 
 PCOD9294671
Probable space group: C 2/C
;
_chemical_formula_sum "Si O2"
_cell_formula_units_Z 24
_cell_length_a 25.822455
_cell_length_b 7.274192
_cell_length_c 17.130970
_cell_angle_alpha 90.000000
_cell_angle_beta 164.527188
_cell_angle_gamma 90.000000
_cell_volume 858.458444
_symmetry_space_group_name_H-M "C 2/C"
_symmetry_group_IT_number 15
_symmetry_cell_setting 'monoclinic'
loop_
_space_group_symop_operation_xyz
x,y,z
-x,y,1/2-z
-x,-y,-z
x,-y,1/2+z
1/2+x,1/2+y,z
1/2-x,1/2+y,1/2-z
1/2-x,1/2-y,-z
1/2+x,1/2-y,1/2+z
loop_
_atom_site_type_symbol
_atom_site_label
_atom_site_fract_x
_atom_site_fract_y
_atom_site_fract_z
Si Si1 0.365181 0.788235 0.309001
Si Si2 0.863772 0.091683 0.620771
Si Si3 0.309008 0.419618 0.291851
O O1 0.257771 0.590300 0.161939
O O2 0.584017 0.743084 0.599548
O O3 0.347709 0.865213 0.371781
O O4 0.261936 0.926631 0.100092
O O5 0.750000 0.250000 0.500000
O O6 0.000000 0.173204 0.750000
O O7 0.012451 0.993437 0.895861
#
# Coordination Sequence:
#
# PCOD9294671 Si02
#       3
#     8   8   8
#     4  10  23  41  63  94 128 172 223 272 334 398
#     4  10  23  41  63  94 131 173 220 276 338 399
#     4  10  23  41  64  94 131 174 220 277 336 400
#
# _framework density 27.957087999999999
#
# number of rings (size 3 to 8) (size 9 to 14) (size 15 to 20)
#    0.000    2.000    0.000    1.000    0.000   18.667 
#    0.000    0.000    0.000    0.000    0.000    0.000 
#    0.000    0.000    0.000    0.000    0.000    0.000 
#
# Total GULP energy -67367.094747 kJ/mol
# GULP energy per Si atom -5613.924562 kJ/mol
# Density = 2.789346 g / cm^3
# Si number density = 27.957088 Si / 1000 Ang^3
#
#
#
# Elastic Constant Matrix: (Units=GPa)
#
#
# Indices 1 2 3 4 5 6 
#
# 1 208.1614 94.4733 74.9171 0.0000 31.4138 0.0000
# 2 94.4733 207.4991 88.8973 0.0000 15.6933 0.0000
# 3 74.9171 88.8973 129.6997 0.0000 16.7935 0.0000
# 4 0.0000 0.0000 0.0000 48.9670 0.0000 10.3385
# 5 31.4138 15.6933 16.7935 0.0000 48.8890 0.0000
# 6 0.0000 0.0000 0.0000 10.3385 0.0000 80.8571
#
#
#
# Elastic Compliance Matrix: (Units=1/GPa)
#
#
# Indices 1 2 3 4 5 6 
#
# 1 0.006983 -0.001967 -0.002288 0.000000 -0.003070 0.000000
# 2 -0.001967 0.007394 -0.003965 0.000000 0.000252 0.000000
# 3 -0.002288 -0.003965 0.011924 0.000000 -0.001353 0.000000
# 4 0.000000 0.000000 0.000000 0.020989 0.000000 -0.002684
# 5 -0.003070 0.000252 -0.001353 0.000000 0.022811 0.000000
# 6 0.000000 0.000000 0.000000 -0.002684 0.000000 0.012711
#
#
# Mechanical properties :
#
#
# Convention : Reuss Voigt Hill
#
# Bulk Modulus (GPa) = 101.39219 117.99285 109.69252
# Shear Modulus (GPa) = 48.76185 54.88077 51.82131
#
# Velocity S-wave (km/s) = 4.18085 4.43542 4.31002
# Velocity P-wave (km/s) = 7.72346 8.27812 8.00560
#
# Compressibility (1/GPa) = 0.00986269
#
# Stress axis : x y z
#
# Youngs Moduli (GPa) = 143.19535 135.23840 83.86249
#
# Poissons Ratio (x) = 0.26603 0.19188
# Poissons Ratio (y) = 0.28168 0.33248
# Poissons Ratio (z) = 0.32763 0.53616
#
# Static dielectric constant tensor:
#      x y z
#    x 2.201340 0.000000 -0.037030 
#    y 0.000000 2.224920 0.000000 
#    z -0.037030 0.000000 2.143750 
# 
# From -- ./inp_files/92835.got.cif
#   From: 2010.05.17/outbox.cif.g08.bks.cpg/sg15_47_cif.got.tgz:92835.got - 2010.06.03 18:47:42.
