data_PCOD9294641
_publ_section_title
;
Structure prediction by ZEFSAII (Michael W. Deem and Ramdas Pophale) SiO2 
 PCOD9294641
Probable space group: C 2/C
;
_chemical_formula_sum "Si O2"
_cell_formula_units_Z 56
_cell_length_a 13.719057
_cell_length_b 5.647126
_cell_length_c 29.849724
_cell_angle_alpha 90.000000
_cell_angle_beta 91.428984
_cell_angle_gamma 90.000000
_cell_volume 2311.835736
_symmetry_space_group_name_H-M "C 2/C"
_symmetry_group_IT_number 15
_symmetry_cell_setting 'monoclinic'
loop_
_space_group_symop_operation_xyz
x,y,z
-x,y,1/2-z
-x,-y,-z
x,-y,1/2+z
1/2+x,1/2+y,z
1/2-x,1/2+y,1/2-z
1/2-x,1/2-y,-z
1/2+x,1/2-y,1/2+z
loop_
_atom_site_type_symbol
_atom_site_label
_atom_site_fract_x
_atom_site_fract_y
_atom_site_fract_z
Si Si1 0.662926 0.392032 0.186338
Si Si2 0.098100 0.858264 0.084479
Si Si3 0.107619 0.962616 0.914464
Si Si4 0.892729 0.599286 0.504869
Si Si5 0.240811 0.663894 0.431460
Si Si6 0.367775 0.908473 0.153829
Si Si7 0.438220 0.911901 0.293718
O O1 0.636906 0.318343 0.134653
O O2 0.781054 0.409486 0.189192
O O3 0.616973 0.659120 0.194557
O O4 0.625483 0.155312 0.212072
O O5 0.145771 0.112467 0.072213
O O6 0.134161 0.707473 0.043109
O O7 0.982257 0.858835 0.083448
O O8 0.094452 0.792310 0.956172
O O9 0.107976 0.849274 0.865704
O O10 0.212316 0.071868 0.922381
O O11 0.811061 0.426387 0.524100
O O12 0.000000 0.500000 0.500000
O O13 0.181909 0.536367 0.389620
O O14 0.474059 0.987525 0.171093
O O15 0.500000 0.857857 0.250000
#
# Coordination Sequence:
#
# PCOD9294641 Si02
#       7
#     8   8   8   8   8   8   8
#     4  11  27  46  75 107 139 186 232 283 354 421
#     4  11  22  41  65  95 133 181 236 283 344 414
#     4  11  22  41  62  91 133 183 225 290 342 402
#     4  11  23  38  57  92 134 181 233 289 346 400
#     4  10  23  41  62  93 134 180 235 282 344 405
#     4  10  25  43  71 102 142 178 232 288 343 421
#     4  12  27  49  76 108 142 181 227 287 357 427
#
# _framework density 24.223177
#
# number of rings (size 3 to 8) (size 9 to 14) (size 15 to 20)
#    0.000    1.143    2.857    2.143    6.000    1.714 
#    5.143    0.000    0.000    0.000    0.000    0.000 
#    0.000    0.000    0.000    0.000    0.000    0.000 
#
# Total GULP energy -156260.315093 kJ/mol
# GULP energy per Si atom -5580.725539 kJ/mol
# Density = 2.416804 g / cm^3
# Si number density = 24.223177 Si / 1000 Ang^3
#
#
#
# Elastic Constant Matrix: (Units=GPa)
#
#
# Indices 1 2 3 4 5 6 
#
# 1 107.6577 32.4177 5.5950 0.0000 -13.1264 0.0000
# 2 32.4177 57.3580 16.8183 0.0000 -7.6356 0.0000
# 3 5.5950 16.8183 54.3055 0.0000 -21.2597 0.0000
# 4 0.0000 0.0000 0.0000 22.0909 0.0000 -1.0300
# 5 -13.1264 -7.6356 -21.2597 0.0000 31.6158 0.0000
# 6 0.0000 0.0000 0.0000 -1.0300 0.0000 41.5262
#
#
#
# Elastic Compliance Matrix: (Units=1/GPa)
#
#
# Indices 1 2 3 4 5 6 
#
# 1 0.011841 -0.006861 0.002960 0.000000 0.005250 0.000000
# 2 -0.006861 0.023169 -0.007320 0.000000 -0.002176 0.000000
# 3 0.002960 -0.007320 0.027371 0.000000 0.017866 0.000000
# 4 0.000000 0.000000 0.000000 0.045320 0.000000 0.001124
# 5 0.005250 -0.002176 0.017866 0.000000 0.045298 0.000000
# 6 0.000000 0.000000 0.000000 0.001124 0.000000 0.024109
#
#
# Mechanical properties :
#
#
# Convention : Reuss Voigt Hill
#
# Bulk Modulus (GPa) = 25.03885 36.55369 30.79627
# Shear Modulus (GPa) = 23.48925 30.01260 26.75092
#
# Velocity S-wave (km/s) = 3.11738 3.52377 3.32679
# Velocity P-wave (km/s) = 4.82873 5.62841 5.24384
#
# Compressibility (1/GPa) = 0.03993794
#
# Stress axis : x y z
#
# Youngs Moduli (GPa) = 84.45196 43.16089 36.53537
#
# Poissons Ratio (x) = 0.29615 -0.10815
# Poissons Ratio (y) = 0.57946 0.26745
# Poissons Ratio (z) = -0.24999 0.31595
#
# Static dielectric constant tensor:
#      x y z
#    x 1.902750 0.000000 0.053980 
#    y 0.000000 2.077260 0.000000 
#    z 0.053980 0.000000 1.989970 
# 
# From -- ./inp_files/312330.got.cif
#   From: 2010.05.17/outbox.cif.g08.bks.cpg/sg15_157_cif.got.tgz:312330.got - 2010.06.03 18:47:42.
