data_PCOD9294185
_publ_section_title
;
Structure prediction by ZEFSAII (Michael W. Deem and Ramdas Pophale) SiO2 
 PCOD9294185
Probable space group: C 2/C
;
_chemical_formula_sum "Si O2"
_cell_formula_units_Z 40
_cell_length_a 18.002054
_cell_length_b 10.927905
_cell_length_c 9.066469
_cell_angle_alpha 90.000000
_cell_angle_beta 95.916130
_cell_angle_gamma 90.000000
_cell_volume 1774.098986
_symmetry_space_group_name_H-M "C 2/C"
_symmetry_group_IT_number 15
_symmetry_cell_setting 'monoclinic'
loop_
_space_group_symop_operation_xyz
x,y,z
-x,y,1/2-z
-x,-y,-z
x,-y,1/2+z
1/2+x,1/2+y,z
1/2-x,1/2+y,1/2-z
1/2-x,1/2-y,-z
1/2+x,1/2-y,1/2+z
loop_
_atom_site_type_symbol
_atom_site_label
_atom_site_fract_x
_atom_site_fract_y
_atom_site_fract_z
Si Si1 0.077069 0.791067 0.341004
Si Si2 0.355809 0.217079 0.420997
Si Si3 0.224217 0.403127 0.349884
Si Si4 0.729865 0.386015 0.444262
Si Si5 0.990626 0.132940 0.072947
O O1 0.107376 0.688209 0.232028
O O2 0.145933 0.884810 0.361592
O O3 0.000000 0.833109 0.250000
O O4 0.051652 0.777397 0.505101
O O5 0.277187 0.282677 0.368402
O O6 0.341711 0.120531 0.547729
O O7 0.410547 0.315599 0.507499
O O8 0.213439 0.422119 0.174823
O O9 0.266436 0.520424 0.421976
O O10 0.750000 0.250000 0.500000
O O11 0.000000 0.130014 0.250000
O O12 0.000000 0.000000 0.000000
#
# Coordination Sequence:
#
# PCOD9294185 Si02
#       5
#     8   8   8   8   8
#     4   9  20  39  61  91 126 166 206 271 326 386
#     4   9  20  39  60  89 130 166 205 267 332 387
#     4  10  23  39  63  92 131 169 215 267 333 392
#     4  11  25  40  66  96 129 174 225 272 327 406
#     4  11  21  33  58  91 128 164 215 269 328 384
#
# _framework density 22.546655000000001
#
# number of rings (size 3 to 8) (size 9 to 14) (size 15 to 20)
#    0.000    2.000    0.000    3.000   11.200    3.200 
#    0.000    0.000    0.000    6.000    0.000    0.000 
#    0.000    0.000    0.000    0.000    0.000    0.000 
#
# Total GULP energy -111415.018851 kJ/mol
# GULP energy per Si atom -5570.750943 kJ/mol
# Density = 2.249534 g / cm^3
# Si number density = 22.546655 Si / 1000 Ang^3
#
#
#
# Elastic Constant Matrix: (Units=GPa)
#
#
# Indices 1 2 3 4 5 6 
#
# 1 60.1067 13.3164 24.0760 0.0000 -12.3430 0.0000
# 2 13.3164 23.1256 23.4022 0.0000 -4.3617 0.0000
# 3 24.0760 23.4022 205.6024 0.0000 -33.4176 0.0000
# 4 0.0000 0.0000 0.0000 30.8221 0.0000 -7.3244
# 5 -12.3430 -4.3617 -33.4176 0.0000 30.5969 0.0000
# 6 0.0000 0.0000 0.0000 -7.3244 0.0000 23.2049
#
#
#
# Elastic Compliance Matrix: (Units=1/GPa)
#
#
# Indices 1 2 3 4 5 6 
#
# 1 0.020331 -0.010329 -0.000135 0.000000 0.006581 0.000000
# 2 -0.010329 0.054148 -0.005321 0.000000 -0.002259 0.000000
# 3 -0.000135 -0.005321 0.006508 0.000000 0.006295 0.000000
# 4 0.000000 0.000000 0.000000 0.035075 0.000000 0.011071
# 5 0.006581 -0.002259 0.006295 0.000000 0.041892 0.000000
# 6 0.000000 0.000000 0.000000 0.011071 0.000000 0.046589
#
#
# Mechanical properties :
#
#
# Convention : Reuss Voigt Hill
#
# Bulk Modulus (GPa) = 20.23586 45.60267 32.91927
# Shear Modulus (GPa) = 19.79520 32.12745 25.96133
#
# Velocity S-wave (km/s) = 2.96626 3.77892 3.39698
# Velocity P-wave (km/s) = 4.55261 6.26978 5.47889
#
# Compressibility (1/GPa) = 0.04941721
#
# Stress axis : x y z
#
# Youngs Moduli (GPa) = 49.18564 18.46782 153.64572
#
# Poissons Ratio (x) = 0.19075 0.02080
# Poissons Ratio (y) = 0.50803 0.81755
# Poissons Ratio (z) = 0.00666 0.09827
#
# Static dielectric constant tensor:
#      x y z
#    x 1.885490 0.000000 -0.060400 
#    y 0.000000 1.848350 0.000000 
#    z -0.060400 0.000000 1.966450 
# 
# From -- ./inp_files/46095.got.cif
#   From: 2010.05.17/outbox.cif.g08.bks.cpg/sg15_24_cif.got.tgz:46095.got - 2010.06.03 18:47:42.
