data_PCOD9294701
_publ_section_title
;
Structure prediction by ZEFSAII (Michael W. Deem and Ramdas Pophale) SiO2 
 PCOD9294701
Probable space group: C 2/C
;
_chemical_formula_sum "Si O2"
_cell_formula_units_Z 44
_cell_length_a 11.305695
_cell_length_b 17.923806
_cell_length_c 10.038981
_cell_angle_alpha 90.000000
_cell_angle_beta 68.087643
_cell_angle_gamma 90.000000
_cell_volume 1887.342872
_symmetry_space_group_name_H-M "C 2/C"
_symmetry_group_IT_number 15
_symmetry_cell_setting 'monoclinic'
loop_
_space_group_symop_operation_xyz
x,y,z
-x,y,1/2-z
-x,-y,-z
x,-y,1/2+z
1/2+x,1/2+y,z
1/2-x,1/2+y,1/2-z
1/2-x,1/2-y,-z
1/2+x,1/2-y,1/2+z
loop_
_atom_site_type_symbol
_atom_site_label
_atom_site_fract_x
_atom_site_fract_y
_atom_site_fract_z
Si Si1 0.249694 0.748302 0.156496
Si Si2 0.510596 0.789684 0.096509
Si Si3 0.091740 0.386060 0.824822
Si Si4 0.136154 0.157008 0.914557
Si Si5 0.147020 0.058013 0.156620
Si Si6 0.000000 0.914204 0.250000
O O1 0.392936 0.731877 0.136837
O O2 0.141332 0.691003 0.240381
O O3 0.226184 0.822615 0.252427
O O4 0.250000 0.750000 0.000000
O O5 0.500000 0.818804 0.250000
O O6 0.516159 0.857252 0.988109
O O7 0.622030 0.732320 0.007383
O O8 0.226677 0.423947 0.810044
O O9 0.000000 0.421703 0.750000
O O10 0.013814 0.132462 0.878942
O O11 0.173762 0.091600 0.999065
O O12 0.000000 0.087515 0.250000
O O13 0.118858 0.970236 0.179928
#
# Coordination Sequence:
#
# PCOD9294701 Si02
#       6
#     8   8   8   8   8   4
#     4  11  21  35  59  97 129 170 207 263 337 394
#     4  11  22  37  64 101 136 170 206 270 347 396
#     4  11  22  40  64  97 137 172 214 266 333 406
#     4  11  21  39  63  94 133 166 227 278 317 393
#     4  10  23  41  64  93 126 174 226 274 318 375
#     4  10  24  40  66  92 122 178 236 274 310 374
#
# _framework density 23.313199000000001
#
# number of rings (size 3 to 8) (size 9 to 14) (size 15 to 20)
#    0.545    0.727    1.818    5.455    2.545    2.909 
#    0.000    0.000    0.000    5.455    0.000    0.000 
#    0.000    0.000    0.000    0.000    0.000    0.000 
#
# Total GULP energy -122489.174043 kJ/mol
# GULP energy per Si atom -5567.689729 kJ/mol
# Density = 2.326014 g / cm^3
# Si number density = 23.313199 Si / 1000 Ang^3
#
#
#
# Elastic Constant Matrix: (Units=GPa)
#
#
# Indices 1 2 3 4 5 6 
#
# 1 154.7315 25.9343 46.0297 0.0000 27.4329 0.0000
# 2 25.9343 48.2328 30.7329 0.0000 1.5397 0.0000
# 3 46.0297 30.7329 176.3272 0.0000 13.5265 0.0000
# 4 0.0000 0.0000 0.0000 4.7989 0.0000 5.2832
# 5 27.4329 1.5397 13.5265 0.0000 32.0759 0.0000
# 6 0.0000 0.0000 0.0000 5.2832 0.0000 25.7815
#
#
#
# Elastic Compliance Matrix: (Units=1/GPa)
#
#
# Indices 1 2 3 4 5 6 
#
# 1 0.008599 -0.003721 -0.001081 0.000000 -0.006720 0.000000
# 2 -0.003721 0.024944 -0.003647 0.000000 0.003522 0.000000
# 3 -0.001081 -0.003647 0.006722 0.000000 -0.001735 0.000000
# 4 0.000000 0.000000 0.000000 0.269090 0.000000 -0.055143
# 5 -0.006720 0.003522 -0.001735 0.000000 0.037486 0.000000
# 6 0.000000 0.000000 0.000000 -0.055143 0.000000 0.050088
#
#
# Mechanical properties :
#
#
# Convention : Reuss Voigt Hill
#
# Bulk Modulus (GPa) = 42.79028 64.96505 53.87767
# Shear Modulus (GPa) = 11.85913 30.97089 21.41501
#
# Velocity S-wave (km/s) = 2.25786 3.64877 3.03409
# Velocity P-wave (km/s) = 5.01912 6.75856 5.95272
#
# Compressibility (1/GPa) = 0.02336979
#
# Stress axis : x y z
#
# Youngs Moduli (GPa) = 116.28711 40.08911 148.76223
#
# Poissons Ratio (x) = 0.14916 0.16079
# Poissons Ratio (y) = 0.43266 0.54248
# Poissons Ratio (z) = 0.12569 0.14619
#
# Static dielectric constant tensor:
#      x y z
#    x 2.131560 0.000000 -0.043740 
#    y 0.000000 1.866250 0.000000 
#    z -0.043740 0.000000 1.936590 
# 
# From -- ./inp_files/30841.got.cif
#   From: 2010.05.17/outbox.cif.g08.bks.cpg/sg15_16_cif.got.tgz:30841.got - 2010.06.03 18:47:42.
