data_PCOD9294960
_publ_section_title
;
Structure prediction by ZEFSAII (Michael W. Deem and Ramdas Pophale) SiO2 
 PCOD9294960
Probable space group: C 2/C
;
_chemical_formula_sum "Si O2"
_cell_formula_units_Z 48
_cell_length_a 9.994006
_cell_length_b 21.558260
_cell_length_c 10.780379
_cell_angle_alpha 90.000000
_cell_angle_beta 67.227816
_cell_angle_gamma 90.000000
_cell_volume 2141.619763
_symmetry_space_group_name_H-M "C 2/C"
_symmetry_group_IT_number 15
_symmetry_cell_setting 'monoclinic'
loop_
_space_group_symop_operation_xyz
x,y,z
-x,y,1/2-z
-x,-y,-z
x,-y,1/2+z
1/2+x,1/2+y,z
1/2-x,1/2+y,1/2-z
1/2-x,1/2-y,-z
1/2+x,1/2-y,1/2+z
loop_
_atom_site_type_symbol
_atom_site_label
_atom_site_fract_x
_atom_site_fract_y
_atom_site_fract_z
Si Si1 0.500000 0.203457 0.250000
Si Si2 0.711665 0.102322 0.270234
Si Si3 0.451644 0.873214 0.453758
Si Si4 0.432167 0.263916 0.033302
Si Si5 0.000000 0.169552 0.250000
Si Si6 0.763878 0.628765 0.789991
Si Si7 0.409174 0.492956 0.158068
O O1 0.637331 0.157047 0.217461
O O2 0.527965 0.246276 0.119725
O O3 0.586975 0.086066 0.414429
O O4 0.853110 0.130295 0.288713
O O5 0.774118 0.039990 0.189868
O O6 0.387627 0.804984 0.508024
O O7 0.619696 0.864046 0.361488
O O8 0.361522 0.895558 0.368915
O O9 0.310504 0.307853 0.137929
O O10 0.490637 0.293723 0.884690
O O11 0.645002 0.577221 0.806668
O O12 0.500000 0.508087 0.250000
O O13 0.500000 0.500000 0.000000
#
# Coordination Sequence:
#
# PCOD9294960 Si02
#       7
#     4   8   8   8   4   8   8
#     4  10  28  42  69 111 154 180 238 316 382 398
#     4  11  24  48  68 106 142 199 245 292 374 445
#     4  10  23  41  71 104 139 199 234 290 374 443
#     4  11  24  44  67 109 145 190 240 297 367 445
#     4  12  22  42  83  91 144 202 242 288 362 456
#     4  11  23  42  70 109 143 182 254 303 354 433
#     4  12  27  48  75 105 141 197 254 302 365 434
#
# _framework density 22.412942000000001
#
# number of rings (size 3 to 8) (size 9 to 14) (size 15 to 20)
#    0.000    1.000    2.500    3.500    8.167    5.333 
#    3.000    0.000    0.000    0.000    0.000    0.000 
#    0.000    0.000    0.000    0.000    0.000    0.000 
#
# Total GULP energy -133897.252456 kJ/mol
# GULP energy per Si atom -5579.052186 kJ/mol
# Density = 2.236193 g / cm^3
# Si number density = 22.412942 Si / 1000 Ang^3
#
#
#
# Elastic Constant Matrix: (Units=GPa)
#
#
# Indices 1 2 3 4 5 6 
#
# 1 88.3734 34.0085 46.6264 0.0000 0.9689 0.0000
# 2 34.0085 69.4094 50.3973 0.0000 -19.2041 0.0000
# 3 46.6264 50.3973 175.3526 0.0000 -17.5267 0.0000
# 4 0.0000 0.0000 0.0000 14.3105 0.0000 -7.7486
# 5 0.9689 -19.2041 -17.5267 0.0000 44.9761 0.0000
# 6 0.0000 0.0000 0.0000 -7.7486 0.0000 34.6175
#
#
#
# Elastic Compliance Matrix: (Units=1/GPa)
#
#
# Indices 1 2 3 4 5 6 
#
# 1 0.015334 -0.006847 -0.002533 0.000000 -0.004241 0.000000
# 2 -0.006847 0.022945 -0.003933 0.000000 0.008412 0.000000
# 3 -0.002533 -0.003933 0.007642 0.000000 0.001353 0.000000
# 4 0.000000 0.000000 0.000000 0.079516 0.000000 0.017798
# 5 -0.004241 0.008412 0.001353 0.000000 0.026445 0.000000
# 6 0.000000 0.000000 0.000000 0.017798 0.000000 0.032871
#
#
# Mechanical properties :
#
#
# Convention : Reuss Voigt Hill
#
# Bulk Modulus (GPa) = 51.82941 66.13334 58.98137
# Shear Modulus (GPa) = 22.95573 32.25439 27.60506
#
# Velocity S-wave (km/s) = 3.20381 3.79766 3.51330
# Velocity P-wave (km/s) = 6.07131 6.98573 6.54451
#
# Compressibility (1/GPa) = 0.01929406
#
# Stress axis : x y z
#
# Youngs Moduli (GPa) = 65.21621 43.58173 130.85483
#
# Poissons Ratio (x) = 0.29841 0.33149
# Poissons Ratio (y) = 0.44654 0.51468
# Poissons Ratio (z) = 0.16521 0.17142
#
# Static dielectric constant tensor:
#      x y z
#    x 1.861140 0.000000 0.003580 
#    y 0.000000 1.879160 0.000000 
#    z 0.003580 0.000000 1.840940 
# 
# From -- ./inp_files/88810.got.cif
#   From: 2010.05.17/outbox.cif.g08.bks.cpg/sg15_45_cif.got.tgz:88810.got - 2010.06.03 18:47:42.
