data_PCOD9294074
_publ_section_title
;
Structure prediction by ZEFSAII (Michael W. Deem and Ramdas Pophale) SiO2 
 PCOD9294074
Probable space group: C 2/C
;
_chemical_formula_sum "Si O2"
_cell_formula_units_Z 40
_cell_length_a 26.108783
_cell_length_b 7.410527
_cell_length_c 14.304278
_cell_angle_alpha 90.000000
_cell_angle_beta 36.566002
_cell_angle_gamma 90.000000
_cell_volume 1648.786970
_symmetry_space_group_name_H-M "C 2/C"
_symmetry_group_IT_number 15
_symmetry_cell_setting 'monoclinic'
loop_
_space_group_symop_operation_xyz
x,y,z
-x,y,1/2-z
-x,-y,-z
x,-y,1/2+z
1/2+x,1/2+y,z
1/2-x,1/2+y,1/2-z
1/2-x,1/2-y,-z
1/2+x,1/2-y,1/2+z
loop_
_atom_site_type_symbol
_atom_site_label
_atom_site_fract_x
_atom_site_fract_y
_atom_site_fract_z
Si Si1 0.090463 0.856508 0.116881
Si Si2 0.060325 0.891766 0.840898
Si Si3 0.892453 0.208892 0.529220
Si Si4 0.264970 0.209445 0.369687
Si Si5 0.265989 0.780563 0.367086
O O1 0.000000 0.757336 0.250000
O O2 0.094199 0.973769 0.208536
O O3 0.170857 0.735094 0.971618
O O4 0.090773 0.014868 0.041135
O O5 0.140179 0.806767 0.779613
O O6 0.993381 0.739123 0.896429
O O7 0.000000 0.000000 0.000000
O O8 0.816358 0.287963 0.572688
O O9 0.727860 0.004861 0.657196
O O10 0.250000 0.250000 0.500000
O O11 0.156808 0.205810 0.799822
O O12 0.250000 0.750000 0.500000
#
# Coordination Sequence:
#
# PCOD9294074 Si02
#       5
#     8   8   8   8   8
#     4   9  20  40  64  94 122 174 228 262 334 413
#     4  11  22  41  71  95 130 180 229 278 339 420
#     4  10  23  38  65  97 133 169 227 281 341 403
#     4  11  23  41  65  97 138 171 221 289 351 403
#     4  11  24  41  69  99 133 181 231 279 348 418
#
# _framework density 24.260259999999999
#
# number of rings (size 3 to 8) (size 9 to 14) (size 15 to 20)
#    0.000    1.600    4.000    1.200    8.400    0.800 
#    0.000    0.000    4.400    0.000    0.000    0.000 
#    0.000    0.000    0.000    0.000    0.000    0.000 
#
# Total GULP energy -111427.522570 kJ/mol
# GULP energy per Si atom -5571.376129 kJ/mol
# Density = 2.420504 g / cm^3
# Si number density = 24.260260 Si / 1000 Ang^3
#
#
#
# Elastic Constant Matrix: (Units=GPa)
#
#
# Indices 1 2 3 4 5 6 
#
# 1 131.5759 14.2795 23.3120 0.0000 -21.8801 0.0000
# 2 14.2795 61.2636 27.2151 0.0003 -7.6622 -0.0002
# 3 23.3120 27.2151 115.6893 0.0001 -11.9699 -0.0001
# 4 0.0000 0.0003 0.0001 39.5971 -0.0001 -3.8944
# 5 -21.8801 -7.6622 -11.9699 -0.0001 75.9074 0.0000
# 6 0.0000 -0.0002 -0.0001 -3.8944 0.0000 20.5600
#
#
#
# Elastic Compliance Matrix: (Units=1/GPa)
#
#
# Indices 1 2 3 4 5 6 
#
# 1 0.008281 -0.001143 -0.001184 0.000000 0.002085 0.000000
# 2 -0.001143 0.018491 -0.004026 0.000000 0.000902 0.000000
# 3 -0.001184 -0.004026 0.009914 0.000000 0.000816 0.000000
# 4 0.000000 0.000000 0.000000 0.025734 0.000000 0.004874
# 5 0.002085 0.000902 0.000816 0.000000 0.013995 0.000000
# 6 0.000000 0.000000 0.000000 0.004874 0.000000 0.049561
#
#
# Mechanical properties :
#
#
# Convention : Reuss Voigt Hill
#
# Bulk Modulus (GPa) = 41.70401 48.68245 45.19323
# Shear Modulus (GPa) = 34.08903 43.46103 38.77503
#
# Velocity S-wave (km/s) = 3.75258 4.23714 4.00220
# Velocity P-wave (km/s) = 6.00029 6.63688 6.32659
#
# Compressibility (1/GPa) = 0.02397851
#
# Stress axis : x y z
#
# Youngs Moduli (GPa) = 120.76251 54.08110 100.86835
#
# Poissons Ratio (x) = 0.06184 0.11942
# Poissons Ratio (y) = 0.13808 0.40611
# Poissons Ratio (z) = 0.14297 0.21774
#
# Static dielectric constant tensor:
#      x y z
#    x 1.983980 0.000000 -0.123050 
#    y 0.000000 1.915760 0.000000 
#    z -0.123050 0.000000 1.943330 
# 
# From -- ./inp_files/176062.got.cif
#   From: 2010.05.17/outbox.cif.g08.bks.cpg/sg15_89_cif.got.tgz:176062.got - 2010.06.03 18:47:42.
