data_PCOD9294929
_publ_section_title
;
Structure prediction by ZEFSAII (Michael W. Deem and Ramdas Pophale) SiO2 
 PCOD9294929
Probable space group: C 2/C
;
_chemical_formula_sum "Si O2"
_cell_formula_units_Z 48
_cell_length_a 27.282722
_cell_length_b 10.707708
_cell_length_c 8.066414
_cell_angle_alpha 90.000000
_cell_angle_beta 125.930809
_cell_angle_gamma 90.000000
_cell_volume 1908.107892
_symmetry_space_group_name_H-M "C 2/C"
_symmetry_group_IT_number 15
_symmetry_cell_setting 'monoclinic'
loop_
_space_group_symop_operation_xyz
x,y,z
-x,y,1/2-z
-x,-y,-z
x,-y,1/2+z
1/2+x,1/2+y,z
1/2-x,1/2+y,1/2-z
1/2-x,1/2-y,-z
1/2+x,1/2-y,1/2+z
loop_
_atom_site_type_symbol
_atom_site_label
_atom_site_fract_x
_atom_site_fract_y
_atom_site_fract_z
Si Si1 0.412818 0.095177 0.488404
Si Si2 0.363357 0.441749 0.215259
Si Si3 0.797581 0.727298 0.241485
Si Si4 0.484904 0.333866 0.526873
Si Si5 0.312609 0.675604 0.276139
Si Si6 0.582862 0.831622 0.118484
O O1 0.342760 0.112595 0.297015
O O2 0.450118 0.199081 0.463048
O O3 0.415299 0.134134 0.684424
O O4 0.437171 0.956868 0.512487
O O5 0.340134 0.349353 0.316819
O O6 0.436281 0.433878 0.365341
O O7 0.330006 0.572153 0.175757
O O8 0.341229 0.381865 0.000999
O O9 0.757224 0.703218 0.323070
O O10 0.750000 0.750000 0.000000
O O11 0.500000 0.361364 0.750000
O O12 0.541967 0.293073 0.528733
O O13 0.350858 0.798081 0.314366
#
# Coordination Sequence:
#
# PCOD9294929 Si02
#       6
#     8   8   8   8   8   8
#     4  10  23  41  69  95 135 170 219 277 325 393
#     4  10  24  45  67  93 138 171 220 273 322 393
#     4   9  22  43  67  94 130 173 216 268 327 381
#     4   9  21  44  66  94 132 173 220 271 328 386
#     4  11  26  42  68  99 130 178 221 265 332 392
#     4  11  25  41  67 101 131 174 222 270 337 387
#
# _framework density 25.155809999999999
#
# number of rings (size 3 to 8) (size 9 to 14) (size 15 to 20)
#    0.000    2.000    0.000    0.500   16.333    3.333 
#    0.000    0.000    0.000    0.000    0.000    0.000 
#    0.000    0.000    0.000    0.000    0.000    0.000 
#
# Total GULP energy -134323.811216 kJ/mol
# GULP energy per Si atom -5596.825467 kJ/mol
# Density = 2.509855 g / cm^3
# Si number density = 25.155810 Si / 1000 Ang^3
#
#
#
# Elastic Constant Matrix: (Units=GPa)
#
#
# Indices 1 2 3 4 5 6 
#
# 1 98.5459 9.2361 17.3687 0.0000 13.0370 0.0000
# 2 9.2361 108.7703 2.3511 0.0000 -5.4873 0.0000
# 3 17.3687 2.3511 64.9398 0.0000 8.4751 0.0000
# 4 0.0000 0.0000 0.0000 26.1008 0.0000 -7.6689
# 5 13.0370 -5.4873 8.4751 0.0000 38.9066 0.0000
# 6 0.0000 0.0000 0.0000 -7.6689 0.0000 40.2787
#
#
#
# Elastic Compliance Matrix: (Units=1/GPa)
#
#
# Indices 1 2 3 4 5 6 
#
# 1 0.011129 -0.001059 -0.002503 0.000000 -0.003333 0.000000
# 2 -0.001059 0.009377 -0.000283 0.000000 0.001739 0.000000
# 3 -0.002503 -0.000283 0.016442 0.000000 -0.002783 0.000000
# 4 0.000000 0.000000 0.000000 0.040583 0.000000 0.007727
# 5 -0.003333 0.001739 -0.002783 0.000000 0.027671 0.000000
# 6 0.000000 0.000000 0.000000 0.007727 0.000000 0.026298
#
#
# Mechanical properties :
#
#
# Convention : Reuss Voigt Hill
#
# Bulk Modulus (GPa) = 34.17950 36.68532 35.43241
# Shear Modulus (GPa) = 33.56966 37.27723 35.42344
#
# Velocity S-wave (km/s) = 3.65700 3.85366 3.75662
# Velocity P-wave (km/s) = 5.60787 5.86650 5.73864
#
# Compressibility (1/GPa) = 0.02925731
#
# Stress axis : x y z
#
# Youngs Moduli (GPa) = 89.85564 106.63854 60.82058
#
# Poissons Ratio (x) = 0.11294 0.15225
# Poissons Ratio (y) = 0.09516 0.01723
# Poissons Ratio (z) = 0.22493 0.03020
#
# Static dielectric constant tensor:
#      x y z
#    x 2.040870 0.000000 0.032160 
#    y 0.000000 1.985800 0.000000 
#    z 0.032160 0.000000 1.999620 
# 
# From -- ./inp_files/60617.got.cif
#   From: 2010.05.17/outbox.cif.g08.bks.cpg/sg15_31_cif.got.tgz:60617.got - 2010.06.03 18:47:42.
