data_PCOD9294365
_publ_section_title
;
Structure prediction by ZEFSAII (Michael W. Deem and Ramdas Pophale) SiO2 
 PCOD9294365
Probable space group: C 2/C
;
_chemical_formula_sum "Si O2"
_cell_formula_units_Z 60
_cell_length_a 21.947551
_cell_length_b 26.468906
_cell_length_c 8.094287
_cell_angle_alpha 90.000000
_cell_angle_beta 31.077858
_cell_angle_gamma 90.000000
_cell_volume 2427.284399
_symmetry_space_group_name_H-M "C 2/C"
_symmetry_group_IT_number 15
_symmetry_cell_setting 'monoclinic'
loop_
_space_group_symop_operation_xyz
x,y,z
-x,y,1/2-z
-x,-y,-z
x,-y,1/2+z
1/2+x,1/2+y,z
1/2-x,1/2+y,1/2-z
1/2-x,1/2-y,-z
1/2+x,1/2-y,1/2+z
loop_
_atom_site_type_symbol
_atom_site_label
_atom_site_fract_x
_atom_site_fract_y
_atom_site_fract_z
Si Si1 0.272438 0.766643 0.738667
Si Si2 0.050992 0.174815 0.798368
Si Si3 0.302540 0.420413 0.624071
Si Si4 0.359681 0.487191 0.813849
Si Si5 0.616807 0.180044 0.233778
Si Si6 0.000000 0.842383 0.750000
Si Si7 0.263175 0.602806 0.750413
Si Si8 0.155350 0.655476 0.671741
O O1 0.379619 0.786436 0.605721
O O2 0.285766 0.792759 0.530892
O O3 0.171655 0.799440 0.062320
O O4 0.208152 0.712751 0.904857
O O5 0.089485 0.117864 0.666485
O O6 0.000000 0.197591 0.750000
O O7 0.972970 0.184356 0.139949
O O8 0.338678 0.455651 0.695808
O O9 0.292773 0.459550 0.495574
O O10 0.193456 0.385571 0.940149
O O11 0.500000 0.500000 0.500000
O O12 0.303869 0.451458 0.086612
O O13 0.481799 0.170499 0.494232
O O14 0.670192 0.123262 0.102211
O O15 0.114392 0.875660 0.464378
O O16 0.210594 0.629381 0.704992
#
# Coordination Sequence:
#
# PCOD9294365 Si02
#       8
#     8   8   8   8   8   4   8   8
#     4  10  23  42  68 102 132 177 241 278 352 424
#     4  11  22  41  63  99 144 180 227 289 360 428
#     4  10  23  40  62  99 132 179 233 276 357 427
#     4  11  22  38  64  99 138 178 233 297 352 424
#     4  11  23  45  69 102 136 183 235 294 348 429
#     4  12  22  38  66  96 144 182 226 298 352 420
#     4  11  25  40  65 104 135 185 238 289 359 432
#     4  10  23  46  69  94 146 184 227 293 359 427
#
# _framework density 24.718980999999999
#
# number of rings (size 3 to 8) (size 9 to 14) (size 15 to 20)
#    0.000    1.333    1.333    5.200    3.733    2.667 
#    0.000    0.667    0.000    4.800    0.000    0.000 
#    0.000    0.000    0.000    0.000    0.000    0.000 
#
# Total GULP energy -167177.772936 kJ/mol
# GULP energy per Si atom -5572.592431 kJ/mol
# Density = 2.466272 g / cm^3
# Si number density = 24.718981 Si / 1000 Ang^3
#
#
#
# Elastic Constant Matrix: (Units=GPa)
#
#
# Indices 1 2 3 4 5 6 
#
# 1 95.6233 40.5311 39.1272 0.0003 3.9099 -0.0001
# 2 40.5311 157.5726 47.5419 0.0000 -3.5696 0.0000
# 3 39.1272 47.5419 111.0173 0.0008 -12.7241 -0.0002
# 4 0.0003 0.0000 0.0008 -12.2087 -0.0005 12.7963
# 5 3.9099 -3.5696 -12.7241 -0.0005 44.6057 0.0002
# 6 -0.0001 0.0000 -0.0002 12.7963 0.0002 43.4345
#
#
#
# Elastic Compliance Matrix: (Units=1/GPa)
#
#
# Indices 1 2 3 4 5 6 
#
# 1 0.013123 -0.002240 -0.003947 0.000000 -0.002455 0.000000
# 2 -0.002240 0.007675 -0.002485 0.000000 0.000102 0.000000
# 3 -0.003947 -0.002485 0.011868 0.000000 0.003532 0.000000
# 4 0.000000 0.000000 0.000000 -0.062584 -0.000001 0.018438
# 5 -0.002455 0.000102 0.003532 -0.000001 0.023650 0.000000
# 6 0.000000 0.000000 0.000000 0.018438 0.000000 0.017591
#
#
# Mechanical properties :
#
#
# Convention : Reuss Voigt Hill
#
# Bulk Modulus (GPa) = 65.27436 68.73484 67.00460
# Shear Modulus (GPa) = 148.04016 30.96717 89.50366
#
# Velocity S-wave (km/s) = 7.74721 3.54329 6.02388
# Velocity P-wave (km/s) = 10.31938 6.67883 8.69184
#
# Compressibility (1/GPa) = 0.01531995
#
# Stress axis : x y z
#
# Youngs Moduli (GPa) = 76.20383 130.29837 84.26045
#
# Poissons Ratio (x) = 0.29189 0.33258
# Poissons Ratio (y) = 0.17071 0.20942
# Poissons Ratio (z) = 0.30078 0.32385
#
# Static dielectric constant tensor:
#      x y z
#    x 2.171040 0.000000 0.166180 
#    y 0.000000 2.051760 0.000000 
#    z 0.166180 0.000000 2.015370 
# 
# From -- ./inp_files/64105.got.cif
#   From: 2010.05.17/outbox.cif.g08.bks.cpg/sg15_33_cif.got.tgz:64105.got - 2010.06.03 18:47:42.
