data_PCOD9294188
_publ_section_title
;
Structure prediction by ZEFSAII (Michael W. Deem and Ramdas Pophale) SiO2 
 PCOD9294188
Probable space group: C 2/C
;
_chemical_formula_sum "Si O2"
_cell_formula_units_Z 48
_cell_length_a 24.641612
_cell_length_b 5.346660
_cell_length_c 17.916439
_cell_angle_alpha 90.000000
_cell_angle_beta 74.350508
_cell_angle_gamma 90.000000
_cell_volume 2272.992784
_symmetry_space_group_name_H-M "C 2/C"
_symmetry_group_IT_number 15
_symmetry_cell_setting 'monoclinic'
loop_
_space_group_symop_operation_xyz
x,y,z
-x,y,1/2-z
-x,-y,-z
x,-y,1/2+z
1/2+x,1/2+y,z
1/2-x,1/2+y,1/2-z
1/2-x,1/2-y,-z
1/2+x,1/2-y,1/2+z
loop_
_atom_site_type_symbol
_atom_site_label
_atom_site_fract_x
_atom_site_fract_y
_atom_site_fract_z
Si Si1 0.792756 0.546587 0.557175
Si Si2 0.118589 0.674300 0.674795
Si Si3 0.585325 0.009571 0.031139
Si Si4 0.477232 0.303151 0.068042
Si Si5 0.563529 0.666114 0.757733
Si Si6 0.754124 0.457852 0.402324
O O1 0.855756 0.632683 0.513251
O O2 0.761409 0.501796 0.489339
O O3 0.788862 0.270908 0.594570
O O4 0.765012 0.766835 0.615380
O O5 0.100194 0.668868 0.594492
O O6 0.087690 0.441437 0.727936
O O7 0.185266 0.622441 0.651015
O O8 0.101559 0.944360 0.711032
O O9 0.534557 0.180951 0.077968
O O10 0.560165 0.883751 0.966965
O O11 0.441634 0.384222 0.151980
O O12 0.500000 0.500000 0.000000
O O13 0.500000 0.643313 0.750000
#
# Coordination Sequence:
#
# PCOD9294188 Si02
#       6
#     8   8   8   8   8   8
#     4   9  18  33  59  90 120 157 203 256 303 356
#     4  11  23  40  65  95 128 162 207 264 310 365
#     4  10  23  39  63  94 127 167 208 260 312 369
#     4  11  25  41  61  92 129 168 208 252 312 381
#     4  12  24  40  63  92 128 167 206 251 314 373
#     4   9  18  34  57  91 122 152 204 258 306 348
#
# _framework density 21.117533000000002
#
# number of rings (size 3 to 8) (size 9 to 14) (size 15 to 20)
#    0.000    1.667    1.667    2.500    7.000    2.667 
#    0.000    0.000    0.000    4.000    0.000    0.000 
#    0.000    0.000    0.000    0.000    0.000    0.000 
#
# Total GULP energy -133914.718073 kJ/mol
# GULP energy per Si atom -5579.779920 kJ/mol
# Density = 2.106947 g / cm^3
# Si number density = 21.117533 Si / 1000 Ang^3
#
#
#
# Elastic Constant Matrix: (Units=GPa)
#
#
# Indices 1 2 3 4 5 6 
#
# 1 41.2436 11.7351 8.3221 0.0000 -9.2166 0.0000
# 2 11.7351 81.9173 2.0002 0.0000 -9.9982 0.0000
# 3 8.3221 2.0002 65.9135 0.0000 -4.3287 0.0000
# 4 0.0000 0.0000 0.0000 36.5010 0.0000 -20.6726
# 5 -9.2166 -9.9982 -4.3287 0.0000 16.5246 0.0000
# 6 0.0000 0.0000 0.0000 -20.6726 0.0000 11.5347
#
#
#
# Elastic Compliance Matrix: (Units=1/GPa)
#
#
# Indices 1 2 3 4 5 6 
#
# 1 0.028527 -0.002337 -0.002624 0.000000 0.013809 0.000000
# 2 -0.002337 0.013373 0.000341 0.000000 0.006877 0.000000
# 3 -0.002624 0.000341 0.015680 0.000000 0.002850 0.000000
# 4 0.000000 0.000000 0.000000 -1.823560 0.000000 -3.268185
# 5 0.013809 0.006877 0.002850 0.000000 0.073126 0.000000
# 6 0.000000 0.000000 0.000000 -3.268185 0.000000 -5.770547
#
#
# Mechanical properties :
#
#
# Convention : Reuss Voigt Hill
#
# Bulk Modulus (GPa) = 20.68715 25.90992 23.29853
# Shear Modulus (GPa) = -0.67222 24.04653 11.68716
#
# Velocity S-wave (km/s) = -0.56481 3.37812 2.35507
# Velocity P-wave (km/s) = 3.06466 5.24515 4.29556
#
# Compressibility (1/GPa) = 0.04833919
#
# Stress axis : x y z
#
# Youngs Moduli (GPa) = 35.05508 74.77589 63.77749
#
# Poissons Ratio (x) = 0.17476 0.16735
# Poissons Ratio (y) = 0.08193 -0.02174
# Poissons Ratio (z) = 0.09198 -0.02549
#
# Static dielectric constant tensor:
#      x y z
#    x 1.764140 0.000000 -0.071080 
#    y 0.000000 1.804780 0.000000 
#    z -0.071080 0.000000 1.603350 
# 
# From -- ./inp_files/217750.got.cif
#   From: 2010.05.17/outbox.cif.g08.bks.cpg/sg15_109_cif.got.tgz:217750.got - 2010.06.03 18:47:42.
