data_PCOD9294863
_publ_section_title
;
Structure prediction by ZEFSAII (Michael W. Deem and Ramdas Pophale) SiO2 
 PCOD9294863
Probable space group: C 2/C
;
_chemical_formula_sum "Si O2"
_cell_formula_units_Z 36
_cell_length_a 5.270793
_cell_length_b 23.470305
_cell_length_c 15.056647
_cell_angle_alpha 90.000000
_cell_angle_beta 60.080713
_cell_angle_gamma 90.000000
_cell_volume 1614.381750
_symmetry_space_group_name_H-M "C 2/C"
_symmetry_group_IT_number 15
_symmetry_cell_setting 'monoclinic'
loop_
_space_group_symop_operation_xyz
x,y,z
-x,y,1/2-z
-x,-y,-z
x,-y,1/2+z
1/2+x,1/2+y,z
1/2-x,1/2+y,1/2-z
1/2-x,1/2-y,-z
1/2+x,1/2-y,1/2+z
loop_
_atom_site_type_symbol
_atom_site_label
_atom_site_fract_x
_atom_site_fract_y
_atom_site_fract_z
Si Si1 0.693131 0.314683 0.980640
Si Si2 0.844785 0.011582 0.433891
Si Si3 0.143815 0.141813 0.128822
Si Si4 0.500000 0.428298 0.250000
Si Si5 0.697974 0.321849 0.284849
O O1 0.521388 0.321759 0.918283
O O2 0.009593 0.344633 0.926110
O O3 0.750000 0.250000 0.000000
O O4 0.478871 0.336784 0.096173
O O5 0.895257 0.076143 0.393841
O O6 0.500000 0.000000 0.500000
O O7 0.000000 0.000000 0.500000
O O8 0.966033 0.968009 0.339826
O O9 0.000000 0.150139 0.250000
O O10 0.756103 0.381471 0.222093
O O11 0.500000 0.287575 0.250000
O O12 0.000000 0.291952 0.250000
#
# Coordination Sequence:
#
# PCOD9294863 Si02
#       5
#     8   8   8   4   8
#     4  12  27  48  74 102 140 189 242 297 358 406
#     4  12  26  42  71 103 144 188 227 281 354 420
#     4  12  26  49  71 107 146 184 238 295 350 432
#     4  10  24  42  68  98 140 178 232 266 358 412
#     4  10  23  41  68 101 137 175 237 285 339 417
#
# _framework density 22.299561000000001
#
# number of rings (size 3 to 8) (size 9 to 14) (size 15 to 20)
#    0.667    0.000    1.111    6.667    6.222    2.667 
#    0.000    0.000    0.000    0.000    0.000    0.000 
#    0.000    0.000    0.000    0.000    0.000    0.000 
#
# Total GULP energy -100681.358918 kJ/mol
# GULP energy per Si atom -5593.408829 kJ/mol
# Density = 2.224881 g / cm^3
# Si number density = 22.299561 Si / 1000 Ang^3
#
#
#
# Elastic Constant Matrix: (Units=GPa)
#
#
# Indices 1 2 3 4 5 6 
#
# 1 200.9369 4.6658 87.5768 0.0000 15.2705 0.0000
# 2 4.6658 89.9475 19.2119 0.0000 8.7207 0.0000
# 3 87.5768 19.2119 165.3711 0.0000 28.0050 0.0000
# 4 0.0000 0.0000 0.0000 8.0116 0.0000 2.3384
# 5 15.2705 8.7207 28.0050 0.0000 43.7461 0.0000
# 6 0.0000 0.0000 0.0000 2.3384 0.0000 31.6925
#
#
#
# Elastic Compliance Matrix: (Units=1/GPa)
#
#
# Indices 1 2 3 4 5 6 
#
# 1 0.006485 0.000415 -0.003460 0.000000 -0.000131 0.000000
# 2 0.000415 0.011528 -0.001285 0.000000 -0.001621 0.000000
# 3 -0.003460 -0.001285 0.008727 0.000000 -0.004123 0.000000
# 4 0.000000 0.000000 0.000000 0.127566 0.000000 -0.009412
# 5 -0.000131 -0.001621 -0.004123 0.000000 0.025867 0.000000
# 6 0.000000 0.000000 0.000000 -0.009412 0.000000 0.032248
#
#
# Mechanical properties :
#
#
# Convention : Reuss Voigt Hill
#
# Bulk Modulus (GPa) = 55.30904 75.46274 65.38589
# Shear Modulus (GPa) = 22.01602 39.67676 30.84639
#
# Velocity S-wave (km/s) = 3.14552 4.22271 3.72327
# Velocity P-wave (km/s) = 6.16838 7.59532 6.91874
#
# Compressibility (1/GPa) = 0.01808023
#
# Stress axis : x y z
#
# Youngs Moduli (GPa) = 154.19647 86.74847 114.58677
#
# Poissons Ratio (x) = -0.03604 0.39652
# Poissons Ratio (y) = -0.06406 0.14722
# Poissons Ratio (z) = 0.53359 0.11145
#
# Static dielectric constant tensor:
#      x y z
#    x 1.912860 0.000000 -0.017790 
#    y 0.000000 1.818490 0.000000 
#    z -0.017790 0.000000 1.817890 
# 
# From -- ./inp_files/128976.got.cif
#   From: 2010.05.17/outbox.cif.g08.bks.cpg/sg15_65_cif.got.tgz:128976.got - 2010.06.03 18:47:42.
