data_PCOD9294056
_publ_section_title
;
Structure prediction by ZEFSAII (Michael W. Deem and Ramdas Pophale) SiO2 
 PCOD9294056
Probable space group: C 2/C
;
_chemical_formula_sum "Si O2"
_cell_formula_units_Z 28
_cell_length_a 7.797970
_cell_length_b 13.223045
_cell_length_c 10.650343
_cell_angle_alpha 90.000000
_cell_angle_beta 124.920381
_cell_angle_gamma 90.000000
_cell_volume 900.457256
_symmetry_space_group_name_H-M "C 2/C"
_symmetry_group_IT_number 15
_symmetry_cell_setting 'monoclinic'
loop_
_space_group_symop_operation_xyz
x,y,z
-x,y,1/2-z
-x,-y,-z
x,-y,1/2+z
1/2+x,1/2+y,z
1/2-x,1/2+y,1/2-z
1/2-x,1/2-y,-z
1/2+x,1/2-y,1/2+z
loop_
_atom_site_type_symbol
_atom_site_label
_atom_site_fract_x
_atom_site_fract_y
_atom_site_fract_z
Si Si1 0.500000 0.546755 0.750000
Si Si2 0.500000 0.085868 0.750000
Si Si3 0.750000 0.750000 0.500000
Si Si4 0.913663 0.606224 0.044043
Si Si5 0.179326 0.858406 0.697014
O O1 0.290630 0.605925 0.627782
O O2 0.572895 0.467365 0.673445
O O3 0.300374 0.152470 0.627861
O O4 0.512555 0.005076 0.873891
O O5 0.506973 0.717037 0.384226
O O6 0.807808 0.651366 0.124631
O O7 0.145534 0.656717 0.116484
#
# Coordination Sequence:
#
# PCOD9294056 Si02
#       5
#     4   4   4   8   8
#     4  12  19  40  74 104 135 190 244 294 339 422
#     4  10  23  38  64 100 135 190 228 300 341 434
#     4  12  22  40  68 100 152 176 236 294 370 400
#     4  10  24  44  70 102 150 186 251 287 350 429
#     4  10  23  41  67 109 140 194 239 296 352 433
#
# _framework density 31.095310999999999
#
# number of rings (size 3 to 8) (size 9 to 14) (size 15 to 20)
#    0.000    1.714    2.857    2.571    4.000    0.000 
#    0.000    0.000    0.000   41.143    0.000    0.000 
#    0.000    0.000    0.000    0.000    0.000    0.000 
#
# Total GULP energy -78091.829238 kJ/mol
# GULP energy per Si atom -5577.987803 kJ/mol
# Density = 3.102454 g / cm^3
# Si number density = 31.095311 Si / 1000 Ang^3
#
#
#
# Elastic Constant Matrix: (Units=GPa)
#
#
# Indices 1 2 3 4 5 6 
#
# 1 142.4297 30.6708 103.6815 0.0000 63.4663 0.0000
# 2 30.6708 155.4230 83.5444 0.0000 24.8108 0.0000
# 3 103.6815 83.5444 334.0352 0.0000 41.0906 0.0000
# 4 0.0000 0.0000 0.0000 64.3382 0.0000 50.3645
# 5 63.4663 24.8108 41.0906 0.0000 91.1337 0.0000
# 6 0.0000 0.0000 0.0000 50.3645 0.0000 -24.0846
#
#
#
# Elastic Compliance Matrix: (Units=1/GPa)
#
#
# Indices 1 2 3 4 5 6 
#
# 1 0.012459 0.000361 -0.003047 0.000000 -0.007401 0.000000
# 2 0.000361 0.007582 -0.001825 0.000000 -0.001493 0.000000
# 3 -0.003047 -0.001825 0.004313 0.000000 0.000674 0.000000
# 4 0.000000 0.000000 0.000000 0.005894 0.000000 0.012326
# 5 -0.007401 -0.001493 0.000674 0.000000 0.016230 0.000000
# 6 0.000000 0.000000 0.000000 0.012326 0.000000 -0.015745
#
#
# Mechanical properties :
#
#
# Convention : Reuss Voigt Hill
#
# Bulk Modulus (GPa) = 65.22230 118.63125 91.92678
# Shear Modulus (GPa) = 111.44483 53.87687 82.66085
#
# Velocity S-wave (km/s) = 5.99313 4.16701 5.16147
# Velocity P-wave (km/s) = 8.30124 7.83490 8.07144
#
# Compressibility (1/GPa) = 0.01533218
#
# Stress axis : x y z
#
# Youngs Moduli (GPa) = 80.26092 131.89217 231.86281
#
# Poissons Ratio (x) = -0.04757 0.70650
# Poissons Ratio (y) = -0.02895 0.42306
# Poissons Ratio (z) = 0.24456 0.24065
#
# Static dielectric constant tensor:
#      x y z
#    x 2.421730 0.000000 -0.207740 
#    y 0.000000 1.476900 0.000000 
#    z -0.207740 0.000000 2.379400 
# 
# From -- ./inp_files/133045.got.cif
#   From: 2010.05.17/outbox.cif.g08.bks.cpg/sg15_67_cif.got.tgz:133045.got - 2010.06.03 18:47:42.
