data_PCOD9294421
_publ_section_title
;
Structure prediction by ZEFSAII (Michael W. Deem and Ramdas Pophale) SiO2 
 PCOD9294421
Probable space group: C 2/C
;
_chemical_formula_sum "Si O2"
_cell_formula_units_Z 60
_cell_length_a 16.158224
_cell_length_b 11.754060
_cell_length_c 22.890482
_cell_angle_alpha 90.000000
_cell_angle_beta 37.265498
_cell_angle_gamma 90.000000
_cell_volume 2632.432639
_symmetry_space_group_name_H-M "C 2/C"
_symmetry_group_IT_number 15
_symmetry_cell_setting 'monoclinic'
loop_
_space_group_symop_operation_xyz
x,y,z
-x,y,1/2-z
-x,-y,-z
x,-y,1/2+z
1/2+x,1/2+y,z
1/2-x,1/2+y,1/2-z
1/2-x,1/2-y,-z
1/2+x,1/2-y,1/2+z
loop_
_atom_site_type_symbol
_atom_site_label
_atom_site_fract_x
_atom_site_fract_y
_atom_site_fract_z
Si Si1 0.239701 0.966979 0.459682
Si Si2 0.453215 0.556379 0.616794
Si Si3 0.045983 0.290828 0.833164
Si Si4 0.566466 0.863573 0.420735
Si Si5 0.643151 0.945454 0.494848
Si Si6 0.827793 0.820997 0.729695
Si Si7 0.500000 0.071141 0.250000
Si Si8 0.816852 0.209327 0.596116
O O1 0.210295 0.841329 0.452398
O O2 0.251800 0.988385 0.522308
O O3 0.382797 0.001159 0.349009
O O4 0.110892 0.040897 0.509683
O O5 0.450096 0.655775 0.666388
O O6 0.405325 0.435861 0.669463
O O7 0.359746 0.606564 0.616651
O O8 0.170006 0.337687 0.801800
O O9 0.905866 0.336725 0.940183
O O10 0.067547 0.346429 0.758966
O O11 0.669717 0.906316 0.413429
O O12 0.625225 0.782826 0.337912
O O13 0.448913 0.789299 0.518112
O O14 0.486326 0.969880 0.438650
O O15 0.812932 0.775361 0.804031
#
# Coordination Sequence:
#
# PCOD9294421 Si02
#       8
#     8   8   8   8   8   8   4   8
#     4  11  24  43  68  98 140 177 231 285 345 422
#     4  11  23  42  67  98 137 180 232 274 343 416
#     4  10  23  40  64  99 133 176 227 281 343 418
#     4  11  23  43  69  95 132 181 228 284 344 409
#     4  10  24  43  65  97 132 175 224 282 347 405
#     4  11  24  39  69  96 134 178 230 284 338 410
#     4  10  24  38  64 100 138 182 220 290 354 400
#     4  11  24  43  68 104 132 183 233 283 345 418
#
# _framework density 22.792607
#
# number of rings (size 3 to 8) (size 9 to 14) (size 15 to 20)
#    0.000    1.333    4.000    1.200    9.333    3.733 
#    0.000    0.000    0.000    0.000    0.000    0.000 
#    0.000    0.000    0.000    0.000    0.000    0.000 
#
# Total GULP energy -167517.975403 kJ/mol
# GULP energy per Si atom -5583.932513 kJ/mol
# Density = 2.274073 g / cm^3
# Si number density = 22.792607 Si / 1000 Ang^3
#
#
#
# Elastic Constant Matrix: (Units=GPa)
#
#
# Indices 1 2 3 4 5 6 
#
# 1 61.7654 35.6383 4.9286 0.0000 10.0729 0.0000
# 2 35.6383 96.1910 15.8943 0.0000 -0.0581 0.0000
# 3 4.9286 15.8943 73.4122 0.0000 -3.1887 0.0000
# 4 0.0000 0.0000 0.0000 19.4210 0.0000 -5.5748
# 5 10.0729 -0.0581 -3.1887 0.0000 18.6001 0.0000
# 6 0.0000 0.0000 0.0000 -5.5748 0.0000 23.7608
#
#
#
# Elastic Compliance Matrix: (Units=1/GPa)
#
#
# Indices 1 2 3 4 5 6 
#
# 1 0.023215 -0.008567 -0.000253 0.000000 -0.012642 0.000000
# 2 -0.008567 0.013946 -0.002258 0.000000 0.004296 0.000000
# 3 -0.000253 -0.002258 0.014239 0.000000 0.002571 0.000000
# 4 0.000000 0.000000 0.000000 0.055209 0.000000 0.012953
# 5 -0.012642 0.004296 0.002571 0.000000 0.061064 0.000000
# 6 0.000000 0.000000 0.000000 0.012953 0.000000 0.045125
#
#
# Mechanical properties :
#
#
# Convention : Reuss Voigt Hill
#
# Bulk Modulus (GPa) = 34.19368 38.25456 36.22412
# Shear Modulus (GPa) = 20.43305 24.01687 22.22496
#
# Velocity S-wave (km/s) = 2.99737 3.24962 3.12604
# Velocity P-wave (km/s) = 5.19746 5.55879 5.38116
#
# Compressibility (1/GPa) = 0.02924517
#
# Stress axis : x y z
#
# Youngs Moduli (GPa) = 43.07487 71.70689 70.22891
#
# Poissons Ratio (x) = 0.61432 0.01776
# Poissons Ratio (y) = 0.36902 0.15855
# Poissons Ratio (z) = 0.01089 0.16188
#
# Static dielectric constant tensor:
#      x y z
#    x 1.937080 0.000000 0.042810 
#    y 0.000000 1.870060 0.000000 
#    z 0.042810 0.000000 1.884940 
# 
# From -- ./inp_files/298953.got.cif
#   From: 2010.05.17/outbox.cif.g08.bks.cpg/sg15_150_cif.got.tgz:298953.got - 2010.06.03 18:47:42.
