data_PCOD9294984
_publ_section_title
;
Structure prediction by ZEFSAII (Michael W. Deem and Ramdas Pophale) SiO2 
 PCOD9294984
Probable space group: C 2/C
;
_chemical_formula_sum "Si O2"
_cell_formula_units_Z 40
_cell_length_a 9.432164
_cell_length_b 14.098643
_cell_length_c 15.499856
_cell_angle_alpha 90.000000
_cell_angle_beta 116.362964
_cell_angle_gamma 90.000000
_cell_volume 1846.816892
_symmetry_space_group_name_H-M "C 2/C"
_symmetry_group_IT_number 15
_symmetry_cell_setting 'monoclinic'
loop_
_space_group_symop_operation_xyz
x,y,z
-x,y,1/2-z
-x,-y,-z
x,-y,1/2+z
1/2+x,1/2+y,z
1/2-x,1/2+y,1/2-z
1/2-x,1/2-y,-z
1/2+x,1/2-y,1/2+z
loop_
_atom_site_type_symbol
_atom_site_label
_atom_site_fract_x
_atom_site_fract_y
_atom_site_fract_z
Si Si1 0.917832 0.151423 0.011664
Si Si2 0.225905 0.861988 0.487885
Si Si3 0.657979 0.518141 0.347782
Si Si4 0.980898 0.537930 0.344479
Si Si5 0.919873 0.679183 0.640390
O O1 0.951641 0.249812 0.070448
O O2 0.074581 0.116117 0.007267
O O3 0.860331 0.079339 0.070048
O O4 0.770820 0.167998 0.907160
O O5 0.250000 0.750000 0.500000
O O6 0.188128 0.909944 0.385969
O O7 0.384853 0.910936 0.564518
O O8 0.500000 0.525647 0.250000
O O9 0.807424 0.555785 0.334764
O O10 0.011892 0.425173 0.357261
O O11 0.000000 0.566499 0.250000
O O12 0.000000 0.715570 0.750000
#
# Coordination Sequence:
#
# PCOD9294984 Si02
#       5
#     8   8   8   8   8
#     4  11  24  44  69 103 139 180 228 285 337 413
#     4  12  27  45  68 100 143 178 231 282 341 403
#     4  12  26  44  72 101 137 182 231 279 346 408
#     4  11  25  46  70  98 136 179 227 287 341 405
#     4  10  23  41  72  99 139 178 232 274 350 403
#
# _framework density 21.658888999999999
#
# number of rings (size 3 to 8) (size 9 to 14) (size 15 to 20)
#    0.000    0.800    2.000    4.200   11.200    0.800 
#    0.000    0.000    0.000    0.000    0.000    0.000 
#    0.000    0.000    0.000    0.000    0.000    0.000 
#
# Total GULP energy -111998.744124 kJ/mol
# GULP energy per Si atom -5599.937206 kJ/mol
# Density = 2.160959 g / cm^3
# Si number density = 21.658889 Si / 1000 Ang^3
#
#
#
# Elastic Constant Matrix: (Units=GPa)
#
#
# Indices 1 2 3 4 5 6 
#
# 1 206.3500 13.5483 76.1818 0.0000 10.4083 0.0000
# 2 13.5483 54.0412 18.0985 0.0000 -0.0617 0.0000
# 3 76.1818 18.0985 131.1852 0.0000 33.7135 0.0000
# 4 0.0000 0.0000 0.0000 0.9008 0.0000 -14.1251
# 5 10.4083 -0.0617 33.7135 0.0000 39.5931 0.0000
# 6 0.0000 0.0000 0.0000 -14.1251 0.0000 8.7752
#
#
#
# Elastic Compliance Matrix: (Units=1/GPa)
#
#
# Indices 1 2 3 4 5 6 
#
# 1 0.006276 -0.000203 -0.004087 0.000000 0.001830 0.000000
# 2 -0.000203 0.019681 -0.003353 0.000000 0.002939 0.000000
# 3 -0.004087 -0.003353 0.013037 0.000000 -0.010032 0.000000
# 4 0.000000 0.000000 0.000000 -0.045796 0.000000 -0.073717
# 5 0.001830 0.002939 -0.010032 0.000000 0.033322 0.000000
# 6 0.000000 0.000000 0.000000 -0.073717 0.000000 -0.004701
#
#
# Mechanical properties :
#
#
# Convention : Reuss Voigt Hill
#
# Bulk Modulus (GPa) = 42.17735 67.47038 54.82387
# Shear Modulus (GPa) = 111.09442 28.77036 69.93239
#
# Velocity S-wave (km/s) = 7.16967 3.64859 5.68842
# Velocity P-wave (km/s) = 9.38374 6.99776 8.27717
#
# Compressibility (1/GPa) = 0.02370941
#
# Stress axis : x y z
#
# Youngs Moduli (GPa) = 159.33817 50.80925 76.70616
#
# Poissons Ratio (x) = 0.01029 0.31349
# Poissons Ratio (y) = 0.03228 0.25719
# Poissons Ratio (z) = 0.65119 0.17036
#
# Static dielectric constant tensor:
#      x y z
#    x 1.769900 0.000000 -0.015410 
#    y 0.000000 1.812800 0.000000 
#    z -0.015410 0.000000 1.776900 
# 
# From -- ./inp_files/133061.got.cif
#   From: 2010.05.17/outbox.cif.g08.bks.cpg/sg15_67_cif.got.tgz:133061.got - 2010.06.03 18:47:42.
