data_PCOD9294243
_publ_section_title
;
Structure prediction by ZEFSAII (Michael W. Deem and Ramdas Pophale) SiO2 
 PCOD9294243
Probable space group: C 2/C
;
_chemical_formula_sum "Si O2"
_cell_formula_units_Z 64
_cell_length_a 13.872460
_cell_length_b 24.711061
_cell_length_c 8.643475
_cell_angle_alpha 90.000000
_cell_angle_beta 92.572119
_cell_angle_gamma 90.000000
_cell_volume 2960.025778
_symmetry_space_group_name_H-M "C 2/C"
_symmetry_group_IT_number 15
_symmetry_cell_setting 'monoclinic'
loop_
_space_group_symop_operation_xyz
x,y,z
-x,y,1/2-z
-x,-y,-z
x,-y,1/2+z
1/2+x,1/2+y,z
1/2-x,1/2+y,1/2-z
1/2-x,1/2-y,-z
1/2+x,1/2-y,1/2+z
loop_
_atom_site_type_symbol
_atom_site_label
_atom_site_fract_x
_atom_site_fract_y
_atom_site_fract_z
Si Si1 0.448300 0.265969 0.492322
Si Si2 0.349706 0.272446 0.160167
Si Si3 0.079386 0.577140 0.457815
Si Si4 0.597101 0.626811 0.329086
Si Si5 0.250310 0.660942 0.415023
Si Si6 0.754245 0.072885 0.948676
Si Si7 0.837193 0.500701 0.289270
Si Si8 0.073436 0.645096 0.901228
O O1 0.389187 0.280151 0.333789
O O2 0.559674 0.261895 0.447443
O O3 0.431280 0.313628 0.611521
O O4 0.418022 0.207457 0.551401
O O5 0.283609 0.219083 0.153041
O O6 0.296920 0.323843 0.082995
O O7 0.159940 0.622480 0.434388
O O8 0.097004 0.533034 0.326698
O O9 0.101332 0.544128 0.615766
O O10 0.979783 0.609081 0.470531
O O11 0.500000 0.601741 0.250000
O O12 0.675576 0.634074 0.198789
O O13 0.646347 0.595868 0.476666
O O14 0.706976 0.041193 0.089716
O O15 0.679351 0.119860 0.893044
O O16 0.748505 0.029658 0.809666
O O17 0.000000 0.642828 0.750000
#
# Coordination Sequence:
#
# PCOD9294243 Si02
#       8
#     8   8   8   8   8   8   8   8
#     4  11  24  41  64  98 143 174 232 269 335 418
#     4  10  23  39  65  98 128 183 225 277 337 410
#     4  11  23  43  68  99 143 176 228 280 345 411
#     4  12  25  46  68  99 135 184 228 288 336 404
#     4  11  22  42  67  95 135 181 224 282 345 402
#     4  11  25  44  68  99 133 176 227 282 347 396
#     4  10  24  44  69  99 137 178 230 285 338 409
#     4  12  25  40  69 106 141 184 216 275 347 424
#
# _framework density 21.621433
#
# number of rings (size 3 to 8) (size 9 to 14) (size 15 to 20)
#    0.000    1.000    5.000    1.125    1.750    5.500 
#    0.000    0.625    0.000    0.000    0.000    0.000 
#    0.000    0.000    0.000    0.000    0.000    0.000 
#
# Total GULP energy -179082.016965 kJ/mol
# GULP energy per Si atom -5596.313030 kJ/mol
# Density = 2.157222 g / cm^3
# Si number density = 21.621433 Si / 1000 Ang^3
#
#
#
# Elastic Constant Matrix: (Units=GPa)
#
#
# Indices 1 2 3 4 5 6 
#
# 1 66.9248 4.1553 9.2329 0.0000 22.9939 0.0000
# 2 4.1553 61.5332 25.2398 0.0000 15.7128 0.0000
# 3 9.2329 25.2398 68.8958 0.0000 14.6946 0.0000
# 4 0.0000 0.0000 0.0000 30.5185 0.0000 -3.3522
# 5 22.9939 15.7128 14.6946 0.0000 30.4913 0.0000
# 6 0.0000 0.0000 0.0000 -3.3522 0.0000 15.0351
#
#
#
# Elastic Compliance Matrix: (Units=1/GPa)
#
#
# Indices 1 2 3 4 5 6 
#
# 1 0.020632 0.003055 -0.000256 0.000000 -0.017010 0.000000
# 2 0.003055 0.021119 -0.005945 0.000000 -0.010322 0.000000
# 3 -0.000256 -0.005945 0.017869 0.000000 -0.005355 0.000000
# 4 0.000000 0.000000 0.000000 0.033590 0.000000 0.007489
# 5 -0.017010 -0.010322 -0.005355 0.000000 0.053524 0.000000
# 6 0.000000 0.000000 0.000000 0.007489 0.000000 0.068181
#
#
# Mechanical properties :
#
#
# Convention : Reuss Voigt Hill
#
# Bulk Modulus (GPa) = 18.75155 30.51221 24.63188
# Shear Modulus (GPa) = 20.92203 25.79069 23.35636
#
# Velocity S-wave (km/s) = 3.11409 3.45748 3.29027
# Velocity P-wave (km/s) = 4.64990 5.48467 5.08444
#
# Compressibility (1/GPa) = 0.05332893
#
# Stress axis : x y z
#
# Youngs Moduli (GPa) = 48.46838 47.34972 55.96274
#
# Poissons Ratio (x) = -0.14467 0.01434
# Poissons Ratio (y) = -0.14809 0.33269
# Poissons Ratio (z) = 0.01242 0.28149
#
# Static dielectric constant tensor:
#      x y z
#    x 1.783970 0.000000 0.035290 
#    y 0.000000 1.762360 0.000000 
#    z 0.035290 0.000000 1.819650 
# 
# From -- ./inp_files/42667.got.cif
#   From: 2010.05.17/outbox.cif.g08.bks.cpg/sg15_22_cif.got.tgz:42667.got - 2010.06.03 18:47:42.
