data_PCOD9294639
_publ_section_title
;
Structure prediction by ZEFSAII (Michael W. Deem and Ramdas Pophale) SiO2 
 PCOD9294639
Probable space group: C 2/C
;
_chemical_formula_sum "Si O2"
_cell_formula_units_Z 36
_cell_length_a 15.550303
_cell_length_b 4.855642
_cell_length_c 21.093921
_cell_angle_alpha 90.000000
_cell_angle_beta 63.352411
_cell_angle_gamma 90.000000
_cell_volume 1423.555643
_symmetry_space_group_name_H-M "C 2/C"
_symmetry_group_IT_number 15
_symmetry_cell_setting 'monoclinic'
loop_
_space_group_symop_operation_xyz
x,y,z
-x,y,1/2-z
-x,-y,-z
x,-y,1/2+z
1/2+x,1/2+y,z
1/2-x,1/2+y,1/2-z
1/2-x,1/2-y,-z
1/2+x,1/2-y,1/2+z
loop_
_atom_site_type_symbol
_atom_site_label
_atom_site_fract_x
_atom_site_fract_y
_atom_site_fract_z
Si Si1 0.500000 0.411628 0.750000
Si Si2 0.571731 0.619797 0.609160
Si Si3 0.179142 0.222931 0.284810
Si Si4 0.915874 0.885355 0.075781
Si Si5 0.650980 0.891563 0.019977
O O1 0.566919 0.606279 0.684773
O O2 0.417474 0.274647 0.730005
O O3 0.474030 0.747519 0.614051
O O4 0.580104 0.304616 0.583905
O O5 0.648075 0.806113 0.548768
O O6 0.260474 0.005633 0.232996
O O7 0.148060 0.107517 0.365396
O O8 0.867899 0.657037 0.047634
O O9 0.000000 0.000000 0.000000
O O10 0.750000 0.750000 0.000000
#
# Coordination Sequence:
#
# PCOD9294639 Si02
#       5
#     4   8   8   8   8
#     4  10  26  46  72  98 150 176 234 286 356 418
#     4  10  23  41  62  92 125 176 207 271 339 393
#     4  11  27  45  73 105 140 188 235 291 351 422
#     4   9  22  44  66  95 134 177 224 279 347 407
#     4  11  23  37  64  94 126 163 220 270 324 398
#
# _framework density 25.288791
#
# number of rings (size 3 to 8) (size 9 to 14) (size 15 to 20)
#    0.000    1.778    0.000    1.333    6.222   16.000 
#    0.000    0.000    0.000    0.000    0.000    0.000 
#    0.000    0.000    0.000    0.000    0.000    0.000 
#
# Total GULP energy -100324.756933 kJ/mol
# GULP energy per Si atom -5573.597607 kJ/mol
# Density = 2.523123 g / cm^3
# Si number density = 25.288791 Si / 1000 Ang^3
#
#
#
# Elastic Constant Matrix: (Units=GPa)
#
#
# Indices 1 2 3 4 5 6 
#
# 1 102.8303 20.0969 24.6087 -0.0038 -8.0392 0.0040
# 2 20.0969 106.4606 13.0176 -0.0184 0.9199 0.0090
# 3 24.6087 13.0176 110.4467 0.0069 14.7753 -0.0002
# 4 -0.0038 -0.0184 0.0069 34.7366 -0.0015 -7.5108
# 5 -8.0392 0.9199 14.7753 -0.0015 35.9740 0.0013
# 6 0.0040 0.0090 -0.0002 -7.5108 0.0013 16.8199
#
#
#
# Elastic Compliance Matrix: (Units=1/GPa)
#
#
# Indices 1 2 3 4 5 6 
#
# 1 0.011008 -0.001776 -0.002729 0.000001 0.003626 -0.000002
# 2 -0.001776 0.009819 -0.000714 0.000005 -0.000355 -0.000003
# 3 -0.002729 -0.000714 0.010397 -0.000003 -0.004862 0.000000
# 4 0.000001 0.000005 -0.000003 0.031865 0.000002 0.014229
# 5 0.003626 -0.000355 -0.004862 0.000002 0.030614 -0.000002
# 6 -0.000002 -0.000003 0.000000 0.014229 -0.000002 0.065807
#
#
# Mechanical properties :
#
#
# Convention : Reuss Voigt Hill
#
# Bulk Modulus (GPa) = 48.10776 48.35381 48.23078
# Shear Modulus (GPa) = 28.26847 34.97371 31.62109
#
# Velocity S-wave (km/s) = 3.34702 3.72287 3.53994
# Velocity P-wave (km/s) = 5.83107 6.13529 5.98511
#
# Compressibility (1/GPa) = 0.02078667
#
# Stress axis : x y z
#
# Youngs Moduli (GPa) = 90.84071 101.84590 96.18482
#
# Poissons Ratio (x) = 0.18085 0.26245
# Poissons Ratio (y) = 0.16131 0.06869
# Poissons Ratio (z) = 0.24787 0.07274
#
# Static dielectric constant tensor:
#      x y z
#    x 2.101340 -0.000010 -0.130360 
#    y -0.000010 2.058210 0.000020 
#    z -0.130360 0.000020 2.071380 
# 
# From -- ./inp_files/208153.got.cif
#   From: 2010.05.17/outbox.cif.g08.bks.cpg/sg15_105_cif.got.tgz:208153.got - 2010.06.03 18:47:42.
