data_PCOD9294322
_publ_section_title
;
Structure prediction by ZEFSAII (Michael W. Deem and Ramdas Pophale) SiO2 
 PCOD9294322
Probable space group: C 2/C
;
_chemical_formula_sum "Si O2"
_cell_formula_units_Z 48
_cell_length_a 10.827871
_cell_length_b 9.100232
_cell_length_c 23.554361
_cell_angle_alpha 90.000000
_cell_angle_beta 111.184448
_cell_angle_gamma 90.000000
_cell_volume 2164.110044
_symmetry_space_group_name_H-M "C 2/C"
_symmetry_group_IT_number 15
_symmetry_cell_setting 'monoclinic'
loop_
_space_group_symop_operation_xyz
x,y,z
-x,y,1/2-z
-x,-y,-z
x,-y,1/2+z
1/2+x,1/2+y,z
1/2-x,1/2+y,1/2-z
1/2-x,1/2-y,-z
1/2+x,1/2-y,1/2+z
loop_
_atom_site_type_symbol
_atom_site_label
_atom_site_fract_x
_atom_site_fract_y
_atom_site_fract_z
Si Si1 0.808384 0.709107 0.105018
Si Si2 0.859366 0.496248 0.718968
Si Si3 0.485406 0.948885 0.933125
Si Si4 0.290384 0.707306 0.237264
Si Si5 0.179230 0.055037 0.369981
Si Si6 0.547169 0.733379 0.117188
O O1 0.852636 0.596437 0.161370
O O2 0.830435 0.879473 0.125325
O O3 0.648086 0.694648 0.082503
O O4 0.897847 0.661235 0.066656
O O5 0.839218 0.382751 0.766572
O O6 0.758725 0.630360 0.709075
O O7 0.000000 0.572669 0.750000
O O8 0.332931 0.896726 0.902217
O O9 0.494132 0.098141 0.897513
O O10 0.500000 0.000000 0.000000
O O11 0.357338 0.613497 0.198707
O O12 0.369496 0.717852 0.310057
O O13 0.080780 0.132295 0.397614
#
# Coordination Sequence:
#
# PCOD9294322 Si02
#       6
#     8   8   8   8   8   8
#     4  10  23  40  60  91 125 163 211 262 315 374
#     4  11  21  35  57  86 128 169 205 252 311 377
#     4  11  25  46  67  90 127 173 221 268 314 372
#     4  11  21  37  61  92 130 166 204 256 319 387
#     4  11  23  40  64  95 126 164 212 260 320 386
#     4  10  23  41  61  93 131 165 208 266 321 377
#
# _framework density 22.180019000000001
#
# number of rings (size 3 to 8) (size 9 to 14) (size 15 to 20)
#    0.000    1.333    0.000    7.500    0.000   11.333 
#    0.000    4.167    0.000    0.000    0.000    0.000 
#    0.000    0.000    0.000    0.000    0.000    0.000 
#
# Total GULP energy -133994.787592 kJ/mol
# GULP energy per Si atom -5583.116150 kJ/mol
# Density = 2.212954 g / cm^3
# Si number density = 22.180019 Si / 1000 Ang^3
#
#
#
# Elastic Constant Matrix: (Units=GPa)
#
#
# Indices 1 2 3 4 5 6 
#
# 1 140.7615 57.6982 29.5244 0.0000 -24.3349 0.0000
# 2 57.6982 82.5920 8.1874 0.0000 -20.5775 0.0000
# 3 29.5244 8.1874 49.8663 0.0000 -10.1439 0.0000
# 4 0.0000 0.0000 0.0000 18.2008 0.0000 -10.3074
# 5 -24.3349 -20.5775 -10.1439 0.0000 17.5727 0.0000
# 6 0.0000 0.0000 0.0000 -10.3074 0.0000 39.1937
#
#
#
# Elastic Compliance Matrix: (Units=1/GPa)
#
#
# Indices 1 2 3 4 5 6 
#
# 1 0.011678 -0.006121 -0.004620 0.000000 0.006337 0.000000
# 2 -0.006121 0.020395 0.003863 0.000000 0.017635 0.000000
# 3 -0.004620 0.003863 0.024670 0.000000 0.012367 0.000000
# 4 0.000000 0.000000 0.000000 0.064557 0.000000 0.016978
# 5 0.006337 0.017635 0.012367 0.000000 0.093471 0.000000
# 6 0.000000 0.000000 0.000000 0.016978 0.000000 0.029979
#
#
# Mechanical properties :
#
#
# Convention : Reuss Voigt Hill
#
# Bulk Modulus (GPa) = 23.26309 51.55997 37.41153
# Shear Modulus (GPa) = 18.32599 26.84743 22.58671
#
# Velocity S-wave (km/s) = 2.87755 3.48290 3.19460
# Velocity P-wave (km/s) = 4.64236 6.28257 5.52369
#
# Compressibility (1/GPa) = 0.04298654
#
# Stress axis : x y z
#
# Youngs Moduli (GPa) = 85.63192 49.03197 40.53440
#
# Poissons Ratio (x) = 0.30014 0.18727
# Poissons Ratio (y) = 0.52418 -0.15659
# Poissons Ratio (z) = 0.39563 -0.18942
#
# Static dielectric constant tensor:
#      x y z
#    x 1.886820 0.000000 -0.006390 
#    y 0.000000 1.784580 0.000000 
#    z -0.006390 0.000000 1.833980 
# 
# From -- ./inp_files/267793.got.cif
#   From: 2010.05.17/outbox.cif.g08.bks.cpg/sg15_134_cif.got.tgz:267793.got - 2010.06.03 18:47:42.
