data_PCOD9294703
_publ_section_title
;
Structure prediction by ZEFSAII (Michael W. Deem and Ramdas Pophale) SiO2 
 PCOD9294703
Probable space group: C 2/C
;
_chemical_formula_sum "Si O2"
_cell_formula_units_Z 40
_cell_length_a 16.204121
_cell_length_b 9.620879
_cell_length_c 10.425590
_cell_angle_alpha 90.000000
_cell_angle_beta 105.059012
_cell_angle_gamma 90.000000
_cell_volume 1569.511667
_symmetry_space_group_name_H-M "C 2/C"
_symmetry_group_IT_number 15
_symmetry_cell_setting 'monoclinic'
loop_
_space_group_symop_operation_xyz
x,y,z
-x,y,1/2-z
-x,-y,-z
x,-y,1/2+z
1/2+x,1/2+y,z
1/2-x,1/2+y,1/2-z
1/2-x,1/2-y,-z
1/2+x,1/2-y,1/2+z
loop_
_atom_site_type_symbol
_atom_site_label
_atom_site_fract_x
_atom_site_fract_y
_atom_site_fract_z
Si Si1 0.630327 0.991107 0.425753
Si Si2 0.211281 0.149256 0.088858
Si Si3 0.031478 0.217735 0.907499
Si Si4 0.929772 0.815176 0.619950
Si Si5 0.242887 0.144889 0.379134
O O1 0.588871 0.849095 0.359923
O O2 0.673769 0.950894 0.580519
O O3 0.718932 0.025525 0.386632
O O4 0.566181 0.121123 0.410709
O O5 0.227318 0.210835 0.235648
O O6 0.250000 0.250000 0.000000
O O7 0.112161 0.142637 0.010753
O O8 0.000000 0.182813 0.750000
O O9 0.957087 0.189059 0.981868
O O10 0.850046 0.913996 0.623944
O O11 0.000000 0.857575 0.750000
O O12 0.250000 0.250000 0.500000
#
# Coordination Sequence:
#
# PCOD9294703 Si02
#       5
#     8   8   8   8   8
#     4  10  24  38  67  95 125 169 216 257 316 384
#     4  10  23  42  63  93 133 172 212 261 327 386
#     4  11  24  43  65  96 134 167 211 270 324 375
#     4  11  22  41  65  96 130 166 214 270 321 370
#     4  10  23  41  64  94 131 171 212 266 323 384
#
# _framework density 25.485633
#
# number of rings (size 3 to 8) (size 9 to 14) (size 15 to 20)
#    0.000    1.600    2.000    1.200   14.000    1.600 
#    0.000    2.000    0.000    0.000    0.000    0.000 
#    0.000    0.000    0.000    0.000    0.000    0.000 
#
# Total GULP energy -111452.544658 kJ/mol
# GULP energy per Si atom -5572.627233 kJ/mol
# Density = 2.542763 g / cm^3
# Si number density = 25.485633 Si / 1000 Ang^3
#
#
#
# Elastic Constant Matrix: (Units=GPa)
#
#
# Indices 1 2 3 4 5 6 
#
# 1 73.8560 -12.8714 28.3598 0.0000 10.5237 0.0000
# 2 -12.8714 84.9932 12.7316 0.0000 1.1986 0.0000
# 3 28.3598 12.7316 214.8520 0.0000 13.0153 0.0000
# 4 0.0000 0.0000 0.0000 18.1936 0.0000 7.0984
# 5 10.5237 1.1986 13.0153 0.0000 49.3588 0.0000
# 6 0.0000 0.0000 0.0000 7.0984 0.0000 34.1781
#
#
#
# Elastic Compliance Matrix: (Units=1/GPa)
#
#
# Indices 1 2 3 4 5 6 
#
# 1 0.015157 0.002632 -0.001989 0.000000 -0.002771 0.000000
# 2 0.002632 0.012329 -0.001043 0.000000 -0.000586 0.000000
# 3 -0.001989 -0.001043 0.005032 0.000000 -0.000877 0.000000
# 4 0.000000 0.000000 0.000000 0.059811 0.000000 -0.012422
# 5 -0.002771 -0.000586 -0.000877 0.000000 0.021096 0.000000
# 6 0.000000 0.000000 0.000000 -0.012422 0.000000 0.031838
#
#
# Mechanical properties :
#
#
# Convention : Reuss Voigt Hill
#
# Bulk Modulus (GPa) = 31.52609 47.79347 39.65978
# Shear Modulus (GPa) = 31.92143 43.37815 37.64979
#
# Velocity S-wave (km/s) = 3.54294 4.13008 3.84773
# Velocity P-wave (km/s) = 5.39756 6.44494 5.94436
#
# Compressibility (1/GPa) = 0.03171976
#
# Stress axis : x y z
#
# Youngs Moduli (GPa) = 65.97537 81.11139 198.73518
#
# Poissons Ratio (x) = -0.21352 0.39525
# Poissons Ratio (y) = -0.17367 0.20719
# Poissons Ratio (z) = 0.13121 0.08456
#
# Static dielectric constant tensor:
#      x y z
#    x 2.062720 0.000000 -0.114920 
#    y 0.000000 2.119460 0.000000 
#    z -0.114920 0.000000 1.915330 
# 
# From -- ./inp_files/46240.got.cif
#   From: 2010.05.17/outbox.cif.g08.bks.cpg/sg15_24_cif.got.tgz:46240.got - 2010.06.03 18:47:42.
