data_PCOD9294316
_publ_section_title
;
Structure prediction by ZEFSAII (Michael W. Deem and Ramdas Pophale) SiO2 
 PCOD9294316
Probable space group: C 2/C
;
_chemical_formula_sum "Si O2"
_cell_formula_units_Z 48
_cell_length_a 12.792687
_cell_length_b 12.750284
_cell_length_c 16.964804
_cell_angle_alpha 90.000000
_cell_angle_beta 112.176981
_cell_angle_gamma 90.000000
_cell_volume 2562.429521
_symmetry_space_group_name_H-M "C 2/C"
_symmetry_group_IT_number 15
_symmetry_cell_setting 'monoclinic'
loop_
_space_group_symop_operation_xyz
x,y,z
-x,y,1/2-z
-x,-y,-z
x,-y,1/2+z
1/2+x,1/2+y,z
1/2-x,1/2+y,1/2-z
1/2-x,1/2-y,-z
1/2+x,1/2-y,1/2+z
loop_
_atom_site_type_symbol
_atom_site_label
_atom_site_fract_x
_atom_site_fract_y
_atom_site_fract_z
Si Si1 0.707077 0.801380 0.164752
Si Si2 0.616219 0.873813 0.829184
Si Si3 0.380870 0.956342 0.495011
Si Si4 0.702047 0.367012 0.995131
Si Si5 0.289839 0.549929 0.827383
Si Si6 0.469625 0.374741 0.833307
O O1 0.804853 0.726520 0.159785
O O2 0.755366 0.867161 0.251538
O O3 0.605090 0.726220 0.163822
O O4 0.666592 0.879124 0.084958
O O5 0.500000 0.860768 0.750000
O O6 0.600864 0.897295 0.916969
O O7 0.684413 0.972051 0.812043
O O8 0.500000 0.000000 0.500000
O O9 0.292028 0.049960 0.485775
O O10 0.685323 0.394960 0.082241
O O11 0.750000 0.250000 0.000000
O O12 0.584286 0.376620 0.915879
O O13 0.393861 0.476984 0.830318
O O14 0.500000 0.370480 0.750000
#
# Coordination Sequence:
#
# PCOD9294316 Si02
#       6
#     8   8   8   8   8   8
#     4  11  23  39  61  88 118 153 196 243 291 346
#     4  10  23  40  60  86 118 154 195 240 291 347
#     4  11  23  40  62  87 119 156 195 241 292 350
#     4  11  23  40  62  89 119 156 198 243 295 351
#     4  10  23  41  60  86 120 157 196 241 294 350
#     4  11  23  40  61  88 120 156 197 244 294 350
#
# _framework density 18.732222
#
# number of rings (size 3 to 8) (size 9 to 14) (size 15 to 20)
#    0.000    1.333    0.000    5.000    0.000   10.667 
#    0.000    0.000    0.000    0.000    0.000    0.000 
#    0.000    0.000    0.000    0.000    0.000    0.000 
#
# Total GULP energy -134261.446923 kJ/mol
# GULP energy per Si atom -5594.226955 kJ/mol
# Density = 1.868959 g / cm^3
# Si number density = 18.732222 Si / 1000 Ang^3
#
#
#
# Elastic Constant Matrix: (Units=GPa)
#
#
# Indices 1 2 3 4 5 6 
#
# 1 161.0073 89.5854 130.4762 0.0000 0.8549 0.0000
# 2 89.5854 154.1713 120.6019 0.0000 -7.5439 0.0000
# 3 130.4762 120.6019 207.1765 0.0000 1.6102 0.0000
# 4 0.0000 0.0000 0.0000 25.4105 0.0000 1.1261
# 5 0.8549 -7.5439 1.6102 0.0000 40.5415 0.0000
# 6 0.0000 0.0000 0.0000 1.1261 0.0000 8.9662
#
#
#
# Elastic Compliance Matrix: (Units=1/GPa)
#
#
# Indices 1 2 3 4 5 6 
#
# 1 0.013057 -0.002160 -0.006963 0.000000 -0.000401 0.000000
# 2 -0.002160 0.012524 -0.005950 0.000000 0.002612 0.000000
# 3 -0.006963 -0.005950 0.012687 0.000000 -0.001464 0.000000
# 4 0.000000 0.000000 0.000000 0.039574 0.000000 -0.004970
# 5 -0.000401 0.002612 -0.001464 0.000000 0.025219 0.000000
# 6 0.000000 0.000000 0.000000 -0.004970 0.000000 0.112155
#
#
# Mechanical properties :
#
#
# Convention : Reuss Voigt Hill
#
# Bulk Modulus (GPa) = 123.12453 133.74246 128.43349
# Shear Modulus (GPa) = 20.15560 27.09641 23.62601
#
# Velocity S-wave (km/s) = 3.28378 3.80743 3.55526
# Velocity P-wave (km/s) = 8.95818 9.53314 9.25013
#
# Compressibility (1/GPa) = 0.00812186
#
# Stress axis : x y z
#
# Youngs Moduli (GPa) = 76.58490 79.84560 78.82146
#
# Poissons Ratio (x) = 0.17250 0.54880
# Poissons Ratio (y) = 0.16546 0.46901
# Poissons Ratio (z) = 0.53323 0.47511
#
# Static dielectric constant tensor:
#      x y z
#    x 1.620370 0.000000 -0.007770 
#    y 0.000000 1.625500 0.000000 
#    z -0.007770 0.000000 1.608160 
# 
# From -- ./inp_files/144387.got.cif
#   From: 2010.05.17/outbox.cif.g08.bks.cpg/sg15_73_cif.got.tgz:144387.got - 2010.06.03 18:47:42.
