data_PCOD9294404
_publ_section_title
;
Structure prediction by ZEFSAII (Michael W. Deem and Ramdas Pophale) SiO2 
 PCOD9294404
Probable space group: C 2/C
;
_chemical_formula_sum "Si O2"
_cell_formula_units_Z 48
_cell_length_a 32.372345
_cell_length_b 5.287347
_cell_length_c 12.925219
_cell_angle_alpha 90.000000
_cell_angle_beta 99.095194
_cell_angle_gamma 90.000000
_cell_volume 2184.514405
_symmetry_space_group_name_H-M "C 2/C"
_symmetry_group_IT_number 15
_symmetry_cell_setting 'monoclinic'
loop_
_space_group_symop_operation_xyz
x,y,z
-x,y,1/2-z
-x,-y,-z
x,-y,1/2+z
1/2+x,1/2+y,z
1/2-x,1/2+y,1/2-z
1/2-x,1/2-y,-z
1/2+x,1/2-y,1/2+z
loop_
_atom_site_type_symbol
_atom_site_label
_atom_site_fract_x
_atom_site_fract_y
_atom_site_fract_z
Si Si1 0.655410 0.568139 0.168073
Si Si2 0.252739 0.352302 0.815822
Si Si3 0.601647 0.174567 0.479971
Si Si4 0.838462 0.569694 0.187901
Si Si5 0.960906 0.315581 0.998616
Si Si6 0.483853 0.583887 0.634083
O O1 0.700682 0.585461 0.128511
O O2 0.653092 0.305071 0.229937
O O3 0.654938 0.802684 0.250204
O O4 0.621335 0.627899 0.067294
O O5 0.247958 0.559478 0.720562
O O6 0.210687 0.405110 0.862856
O O7 0.632925 0.099144 0.401436
O O8 0.558068 0.268605 0.413600
O O9 0.583981 0.933635 0.535609
O O10 0.974549 0.104216 0.921237
O O11 0.000000 0.500000 0.000000
O O12 0.966993 0.200530 0.114827
O O13 0.500000 0.662283 0.750000
#
# Coordination Sequence:
#
# PCOD9294404 Si02
#       6
#     8   8   8   8   8   8
#     4  10  23  40  64  94 136 169 210 273 310 373
#     4   8  16  37  60  88 128 173 212 248 314 378
#     4  11  25  38  64  95 126 160 220 262 326 380
#     4  10  23  40  65  96 130 175 212 259 320 378
#     4   9  22  43  59  88 120 158 209 262 318 385
#     4  10  23  42  64  85 122 168 210 262 328 392
#
# _framework density 21.972847999999999
#
# number of rings (size 3 to 8) (size 9 to 14) (size 15 to 20)
#    0.000    2.333    0.000    0.000    7.000    6.000 
#    0.000    0.000    0.000   12.000    0.000    0.000 
#    0.000    0.000    0.000    0.000    0.000    0.000 
#
# Total GULP energy -133674.710264 kJ/mol
# GULP energy per Si atom -5569.779594 kJ/mol
# Density = 2.192284 g / cm^3
# Si number density = 21.972848 Si / 1000 Ang^3
#
#
#
# Elastic Constant Matrix: (Units=GPa)
#
#
# Indices 1 2 3 4 5 6 
#
# 1 145.6749 14.1724 29.4414 0.0000 -12.9603 0.0000
# 2 14.1724 90.5025 -3.5428 0.0000 1.0652 0.0000
# 3 29.4414 -3.5428 33.7695 0.0000 6.6075 0.0000
# 4 0.0000 0.0000 0.0000 15.4763 0.0000 4.8754
# 5 -12.9603 1.0652 6.6075 0.0000 34.2007 0.0000
# 6 0.0000 0.0000 0.0000 4.8754 0.0000 20.7647
#
#
#
# Elastic Compliance Matrix: (Units=1/GPa)
#
#
# Indices 1 2 3 4 5 6 
#
# 1 0.009465 -0.001920 -0.009527 0.000000 0.005487 0.000000
# 2 -0.001920 0.011496 0.003214 0.000000 -0.001706 0.000000
# 3 -0.009527 0.003214 0.040513 0.000000 -0.011537 0.000000
# 4 0.000000 0.000000 0.000000 0.069776 0.000000 -0.016383
# 5 0.005487 -0.001706 -0.011537 0.000000 0.033601 0.000000
# 6 0.000000 0.000000 0.000000 -0.016383 0.000000 0.052005
#
#
# Mechanical properties :
#
#
# Convention : Reuss Voigt Hill
#
# Bulk Modulus (GPa) = 22.21833 38.89877 30.55855
# Shear Modulus (GPa) = 20.13494 29.41337 24.77416
#
# Velocity S-wave (km/s) = 3.03042 3.66269 3.36145
# Velocity P-wave (km/s) = 4.73057 5.96897 5.38548
#
# Compressibility (1/GPa) = 0.04500788
#
# Stress axis : x y z
#
# Youngs Moduli (GPa) = 105.65286 86.98739 24.68340
#
# Poissons Ratio (x) = 0.16699 0.23516
# Poissons Ratio (y) = 0.20282 -0.07932
# Poissons Ratio (z) = 1.00655 -0.27954
#
# Static dielectric constant tensor:
#      x y z
#    x 1.807600 0.000000 -0.023960 
#    y 0.000000 1.987020 0.000000 
#    z -0.023960 0.000000 1.945180 
# 
# From -- ./inp_files/179753.got.cif
#   From: 2010.05.17/outbox.cif.g08.bks.cpg/sg15_90_cif.got.tgz:179753.got - 2010.06.03 18:47:42.
