data_PCOD9294901
_publ_section_title
;
Structure prediction by ZEFSAII (Michael W. Deem and Ramdas Pophale) SiO2 
 PCOD9294901
Probable space group: C 2/C
;
_chemical_formula_sum "Si O2"
_cell_formula_units_Z 52
_cell_length_a 12.778654
_cell_length_b 11.863763
_cell_length_c 16.892980
_cell_angle_alpha 90.000000
_cell_angle_beta 71.160413
_cell_angle_gamma 90.000000
_cell_volume 2423.821733
_symmetry_space_group_name_H-M "C 2/C"
_symmetry_group_IT_number 15
_symmetry_cell_setting 'monoclinic'
loop_
_space_group_symop_operation_xyz
x,y,z
-x,y,1/2-z
-x,-y,-z
x,-y,1/2+z
1/2+x,1/2+y,z
1/2-x,1/2+y,1/2-z
1/2-x,1/2-y,-z
1/2+x,1/2-y,1/2+z
loop_
_atom_site_type_symbol
_atom_site_label
_atom_site_fract_x
_atom_site_fract_y
_atom_site_fract_z
Si Si1 0.604856 0.418759 0.478162
Si Si2 0.664723 0.002481 0.022452
Si Si3 0.314754 0.900721 0.150180
Si Si4 0.000000 0.130576 0.250000
Si Si5 0.681821 0.481902 0.813249
Si Si6 0.787110 0.703689 0.403866
Si Si7 0.956528 0.280649 0.395527
O O1 0.500000 0.500000 0.500000
O O2 0.703226 0.477783 0.503693
O O3 0.650920 0.414164 0.377895
O O4 0.566342 0.303031 0.526092
O O5 0.611254 0.892264 0.071602
O O6 0.626810 0.109950 0.084867
O O7 0.644291 0.028868 0.936040
O O8 0.213200 0.819008 0.146551
O O9 0.416956 0.819439 0.145066
O O10 0.277215 0.979683 0.230452
O O11 0.077479 0.057341 0.287541
O O12 0.072914 0.210069 0.175338
O O13 0.715405 0.380571 0.864846
O O14 0.750000 0.750000 0.500000
#
# Coordination Sequence:
#
# PCOD9294901 Si02
#       7
#     8   8   8   4   8   8   8
#     4  11  22  44  66  95 131 185 232 272 342 417
#     4  10  23  41  68  98 136 182 230 275 346 425
#     4  11  23  43  68  97 139 176 231 287 353 406
#     4  12  24  42  68  98 140 170 232 288 350 398
#     4  11  24  41  70  98 132 180 237 290 338 422
#     4   9  20  42  65  92 135 185 216 278 346 413
#     4  12  24  41  69 100 137 181 222 292 351 415
#
# _framework density 21.453721999999999
#
# number of rings (size 3 to 8) (size 9 to 14) (size 15 to 20)
#    0.000    1.231    3.077    2.769    4.308    1.231 
#    0.000    0.000    0.000    0.000    0.000    0.000 
#    0.000    0.000    0.000    0.000    0.000    0.000 
#
# Total GULP energy -144899.144974 kJ/mol
# GULP energy per Si atom -5573.044037 kJ/mol
# Density = 2.140489 g / cm^3
# Si number density = 21.453722 Si / 1000 Ang^3
#
#
#
# Elastic Constant Matrix: (Units=GPa)
#
#
# Indices 1 2 3 4 5 6 
#
# 1 38.3670 4.7350 26.6360 0.0000 13.8852 0.0000
# 2 4.7350 102.5021 33.6930 0.0000 7.4785 0.0000
# 3 26.6360 33.6930 99.2427 0.0000 23.8574 0.0000
# 4 0.0000 0.0000 0.0000 44.7596 0.0000 -7.7892
# 5 13.8852 7.4785 23.8574 0.0000 28.8908 0.0000
# 6 0.0000 0.0000 0.0000 -7.7892 0.0000 24.7625
#
#
#
# Elastic Compliance Matrix: (Units=1/GPa)
#
#
# Indices 1 2 3 4 5 6 
#
# 1 0.034946 0.001576 -0.007210 0.000000 -0.011250 0.000000
# 2 0.001576 0.011054 -0.004125 0.000000 -0.000213 0.000000
# 3 -0.007210 -0.004125 0.015374 0.000000 -0.008163 0.000000
# 4 0.000000 0.000000 0.000000 0.023635 0.000000 0.007435
# 5 -0.011250 -0.000213 -0.008163 0.000000 0.046815 0.000000
# 6 0.000000 0.000000 0.000000 0.007435 0.000000 0.042722
#
#
# Mechanical properties :
#
#
# Convention : Reuss Voigt Hill
#
# Bulk Modulus (GPa) = 23.89050 41.13778 32.51414
# Shear Modulus (GPa) = 24.03638 31.35244 27.69441
#
# Velocity S-wave (km/s) = 3.35084 3.82697 3.59679
# Velocity P-wave (km/s) = 5.11184 6.22450 5.69540
#
# Compressibility (1/GPa) = 0.04185764
#
# Stress axis : x y z
#
# Youngs Moduli (GPa) = 28.61523 90.46093 65.04427
#
# Poissons Ratio (x) = -0.14261 0.46898
# Poissons Ratio (y) = -0.04511 0.26830
# Poissons Ratio (z) = 0.20632 0.37315
#
# Static dielectric constant tensor:
#      x y z
#    x 1.917970 0.000000 0.005310 
#    y 0.000000 1.802900 0.000000 
#    z 0.005310 0.000000 1.780620 
# 
# From -- ./inp_files/203905.got.cif
#   From: 2010.05.17/outbox.cif.g08.bks.cpg/sg15_102_cif.got.tgz:203905.got - 2010.06.03 18:47:42.
