data_PCOD9294708
_publ_section_title
;
Structure prediction by ZEFSAII (Michael W. Deem and Ramdas Pophale) SiO2 
 PCOD9294708
Probable space group: C 2/C
;
_chemical_formula_sum "Si O2"
_cell_formula_units_Z 40
_cell_length_a 26.307771
_cell_length_b 8.696784
_cell_length_c 17.256521
_cell_angle_alpha 90.000000
_cell_angle_beta 30.004920
_cell_angle_gamma 90.000000
_cell_volume 1974.379223
_symmetry_space_group_name_H-M "C 2/C"
_symmetry_group_IT_number 15
_symmetry_cell_setting 'monoclinic'
loop_
_space_group_symop_operation_xyz
x,y,z
-x,y,1/2-z
-x,-y,-z
x,-y,1/2+z
1/2+x,1/2+y,z
1/2-x,1/2+y,1/2-z
1/2-x,1/2-y,-z
1/2+x,1/2-y,1/2+z
loop_
_atom_site_type_symbol
_atom_site_label
_atom_site_fract_x
_atom_site_fract_y
_atom_site_fract_z
Si Si1 0.064483 0.353877 0.886908
Si Si2 0.649084 0.318957 0.595333
Si Si3 0.563254 0.168198 0.087141
Si Si4 0.435604 0.803179 0.443939
Si Si5 0.722172 0.356949 0.964530
O O1 0.170346 0.411325 0.711724
O O2 0.000675 0.273846 0.902540
O O3 0.082019 0.262257 0.943244
O O4 0.000000 0.500000 0.000000
O O5 0.750000 0.250000 0.500000
O O6 0.639664 0.274341 0.517581
O O7 0.549216 0.249732 0.768839
O O8 0.656342 0.502669 0.584357
O O9 0.500000 0.180254 0.250000
O O10 0.577838 0.986343 0.052279
O O11 0.663725 0.262712 0.975029
O O12 0.750000 0.250000 0.000000
#
# Coordination Sequence:
#
# PCOD9294708 Si02
#       5
#     8   8   8   8   8
#     4  10  23  42  65  95 134 167 214 272 323 377
#     4  11  22  41  66  92 127 172 218 254 324 392
#     4  11  20  41  68  90 132 170 213 269 322 381
#     4  10  23  41  64  95 129 171 209 269 323 378
#     4  12  25  39  69  99 123 177 222 263 324 388
#
# _framework density 20.259532
#
# number of rings (size 3 to 8) (size 9 to 14) (size 15 to 20)
#    0.000    1.200    4.000    3.600    2.800    4.800 
#    0.000    4.000    0.000    0.000    0.000    0.000 
#    0.000    0.000    0.000    0.000    0.000    0.000 
#
# Total GULP energy -111655.236780 kJ/mol
# GULP energy per Si atom -5582.761839 kJ/mol
# Density = 2.021342 g / cm^3
# Si number density = 20.259532 Si / 1000 Ang^3
#
#
#
# Elastic Constant Matrix: (Units=GPa)
#
#
# Indices 1 2 3 4 5 6 
#
# 1 180.7851 30.4092 12.1115 0.0002 -0.6007 -0.0001
# 2 30.4092 94.6031 11.2253 -0.0031 -13.2183 0.0009
# 3 12.1115 11.2253 51.3482 -0.0020 -7.4423 0.0003
# 4 0.0002 -0.0031 -0.0020 21.4595 0.0007 -9.7082
# 5 -0.6007 -13.2183 -7.4423 0.0007 42.4794 0.0000
# 6 -0.0001 0.0009 0.0003 -9.7082 0.0000 30.6080
#
#
#
# Elastic Compliance Matrix: (Units=1/GPa)
#
#
# Indices 1 2 3 4 5 6 
#
# 1 0.005916 -0.001869 -0.001087 0.000000 -0.000688 0.000000
# 2 -0.001869 0.011839 -0.001659 0.000002 0.003367 0.000000
# 3 -0.001087 -0.001659 0.020538 0.000002 0.003067 0.000000
# 4 0.000000 0.000002 0.000002 0.054406 0.000000 0.017256
# 5 -0.000688 0.003367 0.003067 0.000000 0.025116 0.000000
# 6 0.000000 0.000000 0.000000 0.017256 0.000000 0.038145
#
#
# Mechanical properties :
#
#
# Convention : Reuss Voigt Hill
#
# Bulk Modulus (GPa) = 34.40749 48.24763 41.32756
# Shear Modulus (GPa) = 28.59145 37.10874 32.85010
#
# Velocity S-wave (km/s) = 3.76075 4.28444 4.03111
# Velocity P-wave (km/s) = 5.98981 6.95282 6.48921
#
# Compressibility (1/GPa) = 0.02906344
#
# Stress axis : x y z
#
# Youngs Moduli (GPa) = 169.02415 84.47005 48.68935
#
# Poissons Ratio (x) = 0.15787 0.05291
# Poissons Ratio (y) = 0.31590 0.08079
# Poissons Ratio (z) = 0.18367 0.14016
#
# Static dielectric constant tensor:
#      x y z
#    x 1.788210 0.000010 -0.003810 
#    y 0.000010 3.409350 -0.000010 
#    z -0.003810 -0.000010 1.724180 
# 
# From -- ./inp_files/176319.got.cif
#   From: 2010.05.17/outbox.cif.g08.bks.cpg/sg15_89_cif.got.tgz:176319.got - 2010.06.03 18:47:42.
