data_PCOD9294291
_publ_section_title
;
Structure prediction by ZEFSAII (Michael W. Deem and Ramdas Pophale) SiO2 
 PCOD9294291
Probable space group: C 2/C
;
_chemical_formula_sum "Si O2"
_cell_formula_units_Z 48
_cell_length_a 24.851889
_cell_length_b 9.424260
_cell_length_c 18.256065
_cell_angle_alpha 90.000000
_cell_angle_beta 35.110441
_cell_angle_gamma 90.000000
_cell_volume 2459.224825
_symmetry_space_group_name_H-M "C 2/C"
_symmetry_group_IT_number 15
_symmetry_cell_setting 'monoclinic'
loop_
_space_group_symop_operation_xyz
x,y,z
-x,y,1/2-z
-x,-y,-z
x,-y,1/2+z
1/2+x,1/2+y,z
1/2-x,1/2+y,1/2-z
1/2-x,1/2-y,-z
1/2+x,1/2-y,1/2+z
loop_
_atom_site_type_symbol
_atom_site_label
_atom_site_fract_x
_atom_site_fract_y
_atom_site_fract_z
Si Si1 0.451706 0.359411 0.021231
Si Si2 0.863730 0.333491 0.739832
Si Si3 0.366502 0.283321 0.758900
Si Si4 0.901317 0.540963 0.824825
Si Si5 0.262318 0.078853 0.765770
Si Si6 0.252214 0.934566 0.105912
O O1 0.432467 0.247787 0.107853
O O2 0.349332 0.398236 0.104446
O O3 0.500000 0.500000 0.000000
O O4 0.524075 0.296281 0.882523
O O5 0.913320 0.431347 0.744265
O O6 0.797286 0.436294 0.766089
O O7 0.800749 0.213262 0.848221
O O8 0.321876 0.437163 0.818166
O O9 0.355368 0.181120 0.840817
O O10 0.314840 0.206974 0.748242
O O11 0.000000 0.576760 0.750000
O O12 0.834818 0.469196 0.958687
O O13 0.284340 0.071483 0.654984
#
# Coordination Sequence:
#
# PCOD9294291 Si02
#       6
#     8   8   8   8   8   8
#     4  11  22  39  69 100 123 156 219 260 319 366
#     4  10  23  42  65  92 127 166 207 264 311 369
#     4  11  24  43  65  95 127 166 208 264 311 374
#     4  11  27  40  61  91 128 171 208 254 313 375
#     4  10  23  39  70  97 125 164 205 271 313 364
#     4  11  21  43  63  89 128 166 206 251 315 374
#
# _framework density 19.518345
#
# number of rings (size 3 to 8) (size 9 to 14) (size 15 to 20)
#    0.000    1.333    3.333    3.000    7.000    1.333 
#    0.000    0.833    0.000    0.000    0.000    0.000 
#    0.000    0.000    0.000    0.000    0.000    0.000 
#
# Total GULP energy -134145.463543 kJ/mol
# GULP energy per Si atom -5589.394314 kJ/mol
# Density = 1.947392 g / cm^3
# Si number density = 19.518345 Si / 1000 Ang^3
#
#
#
# Elastic Constant Matrix: (Units=GPa)
#
#
# Indices 1 2 3 4 5 6 
#
# 1 98.0262 25.1112 3.2552 0.0002 -9.9188 -0.0005
# 2 25.1112 84.0405 -8.5565 0.0007 -6.1541 -0.0021
# 3 3.2552 -8.5565 51.2759 0.0008 -4.5747 -0.0021
# 4 0.0002 0.0007 0.0008 23.6692 -0.0005 -6.1518
# 5 -9.9188 -6.1541 -4.5747 -0.0005 8.1557 0.0013
# 6 -0.0005 -0.0021 -0.0021 -6.1518 0.0013 11.1935
#
#
#
# Elastic Compliance Matrix: (Units=1/GPa)
#
#
# Indices 1 2 3 4 5 6 
#
# 1 0.012188 -0.002720 -0.000093 0.000000 0.012719 -0.000002
# 2 -0.002720 0.013690 0.003246 0.000000 0.008843 0.000002
# 3 -0.000093 0.003246 0.021326 0.000000 0.014298 0.000003
# 4 0.000000 0.000000 0.000000 0.049290 -0.000002 0.027089
# 5 0.012719 0.008843 0.014298 -0.000002 0.152775 -0.000014
# 6 -0.000002 0.000002 0.000003 0.027089 -0.000014 0.104225
#
#
# Mechanical properties :
#
#
# Convention : Reuss Voigt Hill
#
# Bulk Modulus (GPa) = 20.80306 30.32917 25.56612
# Shear Modulus (GPa) = 13.56299 22.83918 18.20109
#
# Velocity S-wave (km/s) = 2.63893 3.42444 3.05702
# Velocity P-wave (km/s) = 4.46840 5.58644 5.05840
#
# Compressibility (1/GPa) = 0.04806984
#
# Stress axis : x y z
#
# Youngs Moduli (GPa) = 82.04704 73.04731 46.89207
#
# Poissons Ratio (x) = 0.19868 0.00436
# Poissons Ratio (y) = 0.22316 -0.15221
# Poissons Ratio (z) = 0.00762 -0.23711
#
# Static dielectric constant tensor:
#      x y z
#    x 1.662940 0.000000 0.009860 
#    y 0.000000 1.679290 0.000000 
#    z 0.009860 0.000000 1.673240 
# 
# From -- ./inp_files/257117.got.cif
#   From: 2010.05.17/outbox.cif.g08.bks.cpg/sg15_129_cif.got.tgz:257117.got - 2010.06.03 18:47:42.
