data_PCOD9294531
_publ_section_title
;
Structure prediction by ZEFSAII (Michael W. Deem and Ramdas Pophale) SiO2 
 PCOD9294531
Probable space group: C 2/C
;
_chemical_formula_sum "Si O2"
_cell_formula_units_Z 44
_cell_length_a 20.242115
_cell_length_b 8.235363
_cell_length_c 26.816110
_cell_angle_alpha 90.000000
_cell_angle_beta 25.217002
_cell_angle_gamma 90.000000
_cell_volume 1904.551460
_symmetry_space_group_name_H-M "C 2/C"
_symmetry_group_IT_number 15
_symmetry_cell_setting 'monoclinic'
loop_
_space_group_symop_operation_xyz
x,y,z
-x,y,1/2-z
-x,-y,-z
x,-y,1/2+z
1/2+x,1/2+y,z
1/2-x,1/2+y,1/2-z
1/2-x,1/2-y,-z
1/2+x,1/2-y,1/2+z
loop_
_atom_site_type_symbol
_atom_site_label
_atom_site_fract_x
_atom_site_fract_y
_atom_site_fract_z
Si Si1 0.785058 0.458857 0.058433
Si Si2 0.792115 0.539563 0.667583
Si Si3 0.397504 0.633538 0.132142
Si Si4 0.500000 0.251000 0.250000
Si Si5 0.709564 0.733612 0.886301
Si Si6 0.087119 0.463715 0.784709
O O1 0.794801 0.395217 0.109331
O O2 0.638250 0.367027 0.136602
O O3 0.760360 0.649906 0.087063
O O4 0.937889 0.440176 0.921433
O O5 0.627636 0.487101 0.803707
O O6 0.878783 0.667828 0.643712
O O7 0.852371 0.355229 0.615314
O O8 0.243105 0.592171 0.206485
O O9 0.569860 0.612203 0.993877
O O10 0.442314 0.137938 0.244855
O O11 0.866002 0.645794 0.763506
#
# Coordination Sequence:
#
# PCOD9294531 Si02
#       6
#     8   8   8   4   8   8
#     4  10  25  48  68 101 141 185 233 287 347 404
#     4  10  23  40  67  99 146 180 226 286 349 409
#     4  12  22  40  69 105 142 179 225 285 355 415
#     4  12  26  52  70 100 134 196 240 286 340 418
#     4  10  23  42  67 107 137 179 225 291 354 408
#     4  12  25  45  73 104 138 183 240 284 345 422
#
# _framework density 23.102551999999999
#
# number of rings (size 3 to 8) (size 9 to 14) (size 15 to 20)
#    1.091    0.000    1.818    4.909    2.545    2.182 
#    3.273    1.818    0.000    0.000    0.000    0.000 
#    0.000    0.000    0.000    0.000    0.000    0.000 
#
# Total GULP energy -122549.035259 kJ/mol
# GULP energy per Si atom -5570.410694 kJ/mol
# Density = 2.304997 g / cm^3
# Si number density = 23.102552 Si / 1000 Ang^3
#
#
#
# Elastic Constant Matrix: (Units=GPa)
#
#
# Indices 1 2 3 4 5 6 
#
# 1 60.4569 26.2435 30.8477 0.0001 2.0712 -0.0001
# 2 26.2435 76.1789 46.8111 0.0003 -1.0020 -0.0007
# 3 30.8477 46.8111 127.4815 -0.0012 17.8361 0.0004
# 4 0.0001 0.0003 -0.0012 35.0965 0.0003 -3.8427
# 5 2.0712 -1.0020 17.8361 0.0003 30.4951 0.0000
# 6 -0.0001 -0.0007 0.0004 -3.8427 0.0000 7.8025
#
#
#
# Elastic Compliance Matrix: (Units=1/GPa)
#
#
# Indices 1 2 3 4 5 6 
#
# 1 0.020318 -0.005105 -0.003077 0.000000 0.000252 0.000000
# 2 -0.005105 0.018841 -0.006337 0.000000 0.004672 0.000002
# 3 -0.003077 -0.006337 0.011888 0.000000 -0.006953 -0.000001
# 4 0.000000 0.000000 0.000000 0.030117 -0.000001 0.014832
# 5 0.000252 0.004672 -0.006953 -0.000001 0.036995 0.000000
# 6 0.000000 0.000002 -0.000001 0.014832 0.000000 0.135469
#
#
# Mechanical properties :
#
#
# Convention : Reuss Voigt Hill
#
# Bulk Modulus (GPa) = 45.43529 52.43576 48.93553
# Shear Modulus (GPa) = 17.24117 25.35981 21.30049
#
# Velocity S-wave (km/s) = 2.73479 3.31676 3.03974
# Velocity P-wave (km/s) = 5.44808 6.11671 5.79205
#
# Compressibility (1/GPa) = 0.02200932
#
# Stress axis : x y z
#
# Youngs Moduli (GPa) = 49.21659 53.07542 84.11536
#
# Poissons Ratio (x) = 0.27098 0.25883
# Poissons Ratio (y) = 0.25127 0.53301
# Poissons Ratio (z) = 0.15144 0.33632
#
# Static dielectric constant tensor:
#      x y z
#    x 1.910350 0.000000 0.064470 
#    y 0.000000 1.962450 0.000000 
#    z 0.064470 0.000000 1.883940 
# 
# From -- ./inp_files/318549.got.cif
#   From: 2010.05.17/outbox.cif.g08.bks.cpg/sg15_160_cif.got.tgz:318549.got - 2010.06.03 18:47:42.
