data_PCOD9294975
_publ_section_title
;
Structure prediction by ZEFSAII (Michael W. Deem and Ramdas Pophale) SiO2 
 PCOD9294975
Probable space group: C 2/C
;
_chemical_formula_sum "Si O2"
_cell_formula_units_Z 40
_cell_length_a 29.238107
_cell_length_b 4.969524
_cell_length_c 10.029181
_cell_angle_alpha 90.000000
_cell_angle_beta 79.475039
_cell_angle_gamma 90.000000
_cell_volume 1432.717371
_symmetry_space_group_name_H-M "C 2/C"
_symmetry_group_IT_number 15
_symmetry_cell_setting 'monoclinic'
loop_
_space_group_symop_operation_xyz
x,y,z
-x,y,1/2-z
-x,-y,-z
x,-y,1/2+z
1/2+x,1/2+y,z
1/2-x,1/2+y,1/2-z
1/2-x,1/2-y,-z
1/2+x,1/2-y,1/2+z
loop_
_atom_site_type_symbol
_atom_site_label
_atom_site_fract_x
_atom_site_fract_y
_atom_site_fract_z
Si Si1 0.500000 0.604806 0.250000
Si Si2 0.244979 0.551720 0.161598
Si Si3 0.000000 0.500000 0.000000
Si Si4 0.646440 0.067526 0.758343
Si Si5 0.156652 0.065101 0.937543
Si Si6 0.421236 0.257901 0.369521
O O1 0.508014 0.788751 0.118740
O O2 0.456799 0.404313 0.250360
O O3 0.251001 0.352635 0.285521
O O4 0.192575 0.493302 0.146038
O O5 0.289649 0.483795 0.049003
O O6 0.047376 0.665917 0.023759
O O7 0.649043 0.860651 0.882143
O O8 0.602226 0.985262 0.697020
O O9 0.649545 0.362317 0.816406
O O10 0.118846 0.961039 0.061248
#
# Coordination Sequence:
#
# PCOD9294975 Si02
#       6
#     4   8   4   8   8   8
#     4  12  30  54  76 112 148 208 260 344 394 474
#     4   8  16  37  63 100 144 191 239 308 381 462
#     4  12  30  52  80 106 156 200 266 332 404 462
#     4  10  23  42  69 105 149 194 251 312 388 469
#     4  10  23  41  72 104 147 196 253 313 389 465
#     4  12  28  45  73 106 147 200 265 323 397 460
#
# _framework density 27.918973000000001
#
# number of rings (size 3 to 8) (size 9 to 14) (size 15 to 20)
#    0.000    1.600    0.000    2.400   11.200    0.800 
#    0.000    0.000    0.000   14.400    0.000    0.000 
#    0.000    0.000    0.000    0.000    0.000    0.000 
#
# Total GULP energy -111894.556166 kJ/mol
# GULP energy per Si atom -5594.727808 kJ/mol
# Density = 2.785543 g / cm^3
# Si number density = 27.918973 Si / 1000 Ang^3
#
#
#
# Elastic Constant Matrix: (Units=GPa)
#
#
# Indices 1 2 3 4 5 6 
#
# 1 146.1794 29.0857 47.3986 0.0000 -17.4997 0.0000
# 2 29.0857 113.3524 40.7221 0.0000 9.2126 0.0000
# 3 47.3986 40.7221 64.3171 0.0000 2.2098 0.0000
# 4 0.0000 0.0000 0.0000 45.8397 0.0000 -11.9387
# 5 -17.4997 9.2126 2.2098 0.0000 54.2432 0.0000
# 6 0.0000 0.0000 0.0000 -11.9387 0.0000 24.7979
#
#
#
# Elastic Compliance Matrix: (Units=1/GPa)
#
#
# Indices 1 2 3 4 5 6 
#
# 1 0.009573 -0.000203 -0.007044 0.000000 0.003410 0.000000
# 2 -0.000203 0.011573 -0.007118 0.000000 -0.001741 0.000000
# 3 -0.007044 -0.007118 0.025317 0.000000 -0.002095 0.000000
# 4 0.000000 0.000000 0.000000 0.024943 0.000000 0.012008
# 5 0.003410 -0.001741 -0.002095 0.000000 0.019917 0.000000
# 6 0.000000 0.000000 0.000000 0.012008 0.000000 0.046107
#
#
# Mechanical properties :
#
#
# Convention : Reuss Voigt Hill
#
# Bulk Modulus (GPa) = 56.38751 62.02907 59.20829
# Shear Modulus (GPa) = 29.05783 38.75233 33.90508
#
# Velocity S-wave (km/s) = 3.22963 3.72967 3.48862
# Velocity P-wave (km/s) = 5.84363 6.38850 6.12213
#
# Compressibility (1/GPa) = 0.01773442
#
# Stress axis : x y z
#
# Youngs Moduli (GPa) = 104.45516 86.41019 39.49870
#
# Poissons Ratio (x) = 0.01756 0.27822
# Poissons Ratio (y) = 0.02122 0.28114
# Poissons Ratio (z) = 0.73575 0.61504
#
# Static dielectric constant tensor:
#      x y z
#    x 2.135530 0.000000 -0.068880 
#    y 0.000000 2.015280 0.000000 
#    z -0.068880 0.000000 2.191410 
# 
# From -- ./inp_files/120771.got.cif
#   From: 2010.05.17/outbox.cif.g08.bks.cpg/sg15_61_cif.got.tgz:120771.got - 2010.06.03 18:47:42.
