data_PCOD9294485
_publ_section_title
;
Structure prediction by ZEFSAII (Michael W. Deem and Ramdas Pophale) SiO2 
 PCOD9294485
Probable space group: C 2/C
;
_chemical_formula_sum "Si O2"
_cell_formula_units_Z 56
_cell_length_a 7.920267
_cell_length_b 14.205093
_cell_length_c 20.505948
_cell_angle_alpha 90.000000
_cell_angle_beta 94.818120
_cell_angle_gamma 90.000000
_cell_volume 2298.933406
_symmetry_space_group_name_H-M "C 2/C"
_symmetry_group_IT_number 15
_symmetry_cell_setting 'monoclinic'
loop_
_space_group_symop_operation_xyz
x,y,z
-x,y,1/2-z
-x,-y,-z
x,-y,1/2+z
1/2+x,1/2+y,z
1/2-x,1/2+y,1/2-z
1/2-x,1/2-y,-z
1/2+x,1/2-y,1/2+z
loop_
_atom_site_type_symbol
_atom_site_label
_atom_site_fract_x
_atom_site_fract_y
_atom_site_fract_z
Si Si1 0.528577 0.250148 0.384577
Si Si2 0.598873 0.575523 0.961371
Si Si3 0.247966 0.033936 0.225397
Si Si4 0.000000 0.634960 0.750000
Si Si5 0.500000 0.191540 0.250000
Si Si6 0.440726 0.236896 0.884687
Si Si7 0.916400 0.934637 0.642224
Si Si8 0.540798 0.890720 0.992005
O O1 0.489323 0.340857 0.427729
O O2 0.445409 0.252837 0.310191
O O3 0.734978 0.256659 0.383781
O O4 0.473302 0.159342 0.424693
O O5 0.672526 0.512860 0.904517
O O6 0.754878 0.616722 0.006305
O O7 0.500000 0.500000 0.000000
O O8 0.373397 0.118310 0.211007
O O9 0.178428 0.071301 0.292344
O O10 0.100250 0.025199 0.168656
O O11 0.342712 0.936418 0.237772
O O12 0.977251 0.695779 0.814126
O O13 0.539601 0.336129 0.890191
O O14 0.502905 0.169017 0.944802
O O15 0.500000 0.000000 0.000000
#
# Coordination Sequence:
#
# PCOD9294485 Si02
#       8
#     8   8   8   4   4   8   8   8
#     4  11  24  45  72 101 138 183 236 289 354 416
#     4  11  24  43  70  98 137 183 230 284 353 415
#     4  10  23  40  66  96 139 178 223 289 344 410
#     4  11  24  40  69 106 138 186 233 280 353 420
#     4  11  24  40  73  98 134 172 239 288 345 404
#     4  11  23  43  70  97 139 184 225 280 352 417
#     4  11  22  44  65  98 138 183 227 282 349 411
#     4  11  26  46  70  98 137 183 234 288 351 421
#
# _framework density 24.359121999999999
#
# number of rings (size 3 to 8) (size 9 to 14) (size 15 to 20)
#    0.000    1.143    1.429    6.000    6.000    2.286 
#    2.571    1.429    0.000    0.000    0.000    0.000 
#    0.000    0.000    0.000    0.000    0.000    0.000 
#
# Total GULP energy -156734.915806 kJ/mol
# GULP energy per Si atom -5597.675565 kJ/mol
# Density = 2.430368 g / cm^3
# Si number density = 24.359122 Si / 1000 Ang^3
#
#
#
# Elastic Constant Matrix: (Units=GPa)
#
#
# Indices 1 2 3 4 5 6 
#
# 1 34.1915 3.2459 -1.8033 0.0000 -1.1946 0.0000
# 2 3.2459 144.1785 58.5239 0.0000 -4.5519 0.0000
# 3 -1.8033 58.5239 144.5944 0.0000 -2.5806 0.0000
# 4 0.0000 0.0000 0.0000 56.1341 0.0000 -4.7713
# 5 -1.1946 -4.5519 -2.5806 0.0000 28.2909 0.0000
# 6 0.0000 0.0000 0.0000 -4.7713 0.0000 34.0274
#
#
#
# Elastic Compliance Matrix: (Units=1/GPa)
#
#
# Indices 1 2 3 4 5 6 
#
# 1 0.029417 -0.000937 0.000767 0.000000 0.001161 0.000000
# 2 -0.000937 0.008359 -0.003377 0.000000 0.000997 0.000000
# 3 0.000767 -0.003377 0.008297 0.000000 0.000246 0.000000
# 4 0.000000 0.000000 0.000000 0.018029 0.000000 0.002528
# 5 0.001161 0.000997 0.000246 0.000000 0.035579 0.000000
# 6 0.000000 0.000000 0.000000 0.002528 0.000000 0.029743
#
#
# Mechanical properties :
#
#
# Convention : Reuss Voigt Hill
#
# Bulk Modulus (GPa) = 25.65524 49.21083 37.43303
# Shear Modulus (GPa) = 33.44226 41.22368 37.33297
#
# Velocity S-wave (km/s) = 3.70927 4.11826 3.91910
# Velocity P-wave (km/s) = 5.37586 6.54671 5.98996
#
# Compressibility (1/GPa) = 0.03897839
#
# Stress axis : x y z
#
# Youngs Moduli (GPa) = 33.99398 119.62721 120.52866
#
# Poissons Ratio (x) = 0.11207 -0.09242
# Poissons Ratio (y) = 0.03185 0.40706
# Poissons Ratio (z) = -0.02607 0.40401
#
# Static dielectric constant tensor:
#      x y z
#    x 1.985040 0.000000 -0.014950 
#    y 0.000000 1.937020 0.000000 
#    z -0.014950 0.000000 1.992920 
# 
# From -- ./inp_files/231644.got.cif
#   From: 2010.05.17/outbox.cif.g08.bks.cpg/sg15_116_cif.got.tgz:231644.got - 2010.06.03 18:47:42.
