data_PCOD9294987
_publ_section_title
;
Structure prediction by ZEFSAII (Michael W. Deem and Ramdas Pophale) SiO2 
 PCOD9294987
Probable space group: C 2/C
;
_chemical_formula_sum "Si O2"
_cell_formula_units_Z 44
_cell_length_a 25.916009
_cell_length_b 9.467403
_cell_length_c 13.039599
_cell_angle_alpha 90.000000
_cell_angle_beta 140.801277
_cell_angle_gamma 90.000000
_cell_volume 2022.034530
_symmetry_space_group_name_H-M "C 2/C"
_symmetry_group_IT_number 15
_symmetry_cell_setting 'monoclinic'
loop_
_space_group_symop_operation_xyz
x,y,z
-x,y,1/2-z
-x,-y,-z
x,-y,1/2+z
1/2+x,1/2+y,z
1/2-x,1/2+y,1/2-z
1/2-x,1/2-y,-z
1/2+x,1/2-y,1/2+z
loop_
_atom_site_type_symbol
_atom_site_label
_atom_site_fract_x
_atom_site_fract_y
_atom_site_fract_z
Si Si1 0.436413 0.379605 0.370227
Si Si2 0.696231 0.251486 0.732410
Si Si3 0.000000 0.501684 0.750000
Si Si4 0.540377 0.862175 0.113182
Si Si5 0.383053 0.763664 0.583686
Si Si6 0.745547 0.546394 0.846283
O O1 0.500000 0.500000 0.500000
O O2 0.469406 0.250624 0.487083
O O3 0.430177 0.323054 0.242709
O O4 0.345758 0.425455 0.258181
O O5 0.625741 0.196006 0.699834
O O6 0.650951 0.324879 0.563866
O O7 0.754025 0.376556 0.862345
O O8 0.739537 0.118845 0.742798
O O9 0.954004 0.595907 0.760337
O O10 0.935044 0.387970 0.608342
O O11 0.500000 0.000000 0.000000
O O12 0.307842 0.858658 0.510842
#
# Coordination Sequence:
#
# PCOD9294987 Si02
#       6
#     8   8   4   8   8   8
#     4  12  24  45  72 105 147 190 249 309 369 438
#     4  10  23  44  71 101 147 192 246 299 373 444
#     4  12  24  42  72 104 134 196 248 298 364 448
#     4  12  23  44  73 101 141 192 246 300 365 448
#     4  10  23  41  73 100 144 195 236 297 385 428
#     4  10  24  43  68 107 145 190 239 313 368 442
#
# _framework density 21.760261
#
# number of rings (size 3 to 8) (size 9 to 14) (size 15 to 20)
#    1.091    0.000    5.455    0.545    5.091    0.000 
#    3.273    0.909    0.000    0.000    0.000    0.000 
#    0.000    0.000    0.000    0.000    0.000    0.000 
#
# Total GULP energy -122480.193049 kJ/mol
# GULP energy per Si atom -5567.281502 kJ/mol
# Density = 2.171073 g / cm^3
# Si number density = 21.760261 Si / 1000 Ang^3
#
#
#
# Elastic Constant Matrix: (Units=GPa)
#
#
# Indices 1 2 3 4 5 6 
#
# 1 108.1690 30.1512 19.8383 0.0000 3.5745 0.0000
# 2 30.1512 116.0112 28.8677 0.0000 3.9218 0.0000
# 3 19.8383 28.8677 70.4670 0.0000 0.9100 0.0000
# 4 0.0000 0.0000 0.0000 45.4061 0.0000 2.9874
# 5 3.5745 3.9218 0.9100 0.0000 29.8467 0.0000
# 6 0.0000 0.0000 0.0000 2.9874 0.0000 30.1592
#
#
#
# Elastic Compliance Matrix: (Units=1/GPa)
#
#
# Indices 1 2 3 4 5 6 
#
# 1 0.010235 -0.002133 -0.001996 0.000000 -0.000885 0.000000
# 2 -0.002133 0.010082 -0.003517 0.000000 -0.000962 0.000000
# 3 -0.001996 -0.003517 0.016191 0.000000 0.000208 0.000000
# 4 0.000000 0.000000 0.000000 0.022168 0.000000 -0.002196
# 5 -0.000885 -0.000962 0.000208 0.000000 0.033731 0.000000
# 6 0.000000 0.000000 0.000000 -0.002196 0.000000 0.033375
#
#
# Mechanical properties :
#
#
# Convention : Reuss Voigt Hill
#
# Bulk Modulus (GPa) = 47.13690 50.26239 48.69965
# Shear Modulus (GPa) = 33.75044 35.46838 34.60941
#
# Velocity S-wave (km/s) = 3.94256 4.04166 3.99242
# Velocity P-wave (km/s) = 6.51414 6.70286 6.60918
#
# Compressibility (1/GPa) = 0.02121480
#
# Stress axis : x y z
#
# Youngs Moduli (GPa) = 97.70625 99.18601 61.76218
#
# Poissons Ratio (x) = 0.21161 0.12327
# Poissons Ratio (y) = 0.20845 0.21723
# Poissons Ratio (z) = 0.19502 0.34886
#
# Static dielectric constant tensor:
#      x y z
#    x 1.830320 0.000000 0.023080 
#    y 0.000000 2.495460 0.000000 
#    z 0.023080 0.000000 1.891810 
# 
# From -- ./inp_files/176733.got.cif
#   From: 2010.05.17/outbox.cif.g08.bks.cpg/sg15_89_cif.got.tgz:176733.got - 2010.06.03 18:47:42.
