data_PCOD9294865
_publ_section_title
;
Structure prediction by ZEFSAII (Michael W. Deem and Ramdas Pophale) SiO2 
 PCOD9294865
Probable space group: C 2/C
;
_chemical_formula_sum "Si O2"
_cell_formula_units_Z 44
_cell_length_a 16.829337
_cell_length_b 12.336091
_cell_length_c 29.148531
_cell_angle_alpha 90.000000
_cell_angle_beta 159.355988
_cell_angle_gamma 90.000000
_cell_volume 2133.511555
_symmetry_space_group_name_H-M "C 2/C"
_symmetry_group_IT_number 15
_symmetry_cell_setting 'monoclinic'
loop_
_space_group_symop_operation_xyz
x,y,z
-x,y,1/2-z
-x,-y,-z
x,-y,1/2+z
1/2+x,1/2+y,z
1/2-x,1/2+y,1/2-z
1/2-x,1/2-y,-z
1/2+x,1/2-y,1/2+z
loop_
_atom_site_type_symbol
_atom_site_label
_atom_site_fract_x
_atom_site_fract_y
_atom_site_fract_z
Si Si1 0.409734 0.439095 0.651864
Si Si2 0.250003 0.345693 0.036699
Si Si3 0.928740 0.730257 0.555311
Si Si4 0.030736 0.873232 0.524482
Si Si5 0.288750 0.778707 0.818403
Si Si6 0.000000 0.717248 0.250000
O O1 0.500000 0.478028 0.750000
O O2 0.362757 0.537260 0.591197
O O3 0.174641 0.372297 0.527509
O O4 0.598600 0.354474 0.737720
O O5 0.384864 0.292768 0.150838
O O6 0.250000 0.250000 0.000000
O O7 0.989540 0.355879 0.909945
O O8 0.750000 0.750000 0.500000
O O9 0.949735 0.827603 0.530044
O O10 0.167839 0.718645 0.710237
O O11 0.296727 0.849774 0.662480
O O12 0.894175 0.805323 0.411824
O O13 0.000000 0.000000 0.500000
#
# Coordination Sequence:
#
# PCOD9294865 Si02
#       6
#     8   8   8   8   8   4
#     4  11  22  43  72  97 131 183 240 291 346 419
#     4  11  24  41  64  97 139 174 225 291 357 427
#     4  10  23  41  68 102 137 178 241 298 349 428
#     4  11  24  43  69 100 145 191 239 302 373 441
#     4  10  24  41  66 102 134 185 234 289 356 432
#     4  10  24  40  60  94 132 180 226 286 358 432
#
# _framework density 20.623276000000001
#
# number of rings (size 3 to 8) (size 9 to 14) (size 15 to 20)
#    0.000    1.455    2.727    1.091    0.000   15.273 
#    0.000    0.000    0.000    0.000    0.000    0.000 
#    0.000    0.000    0.000    0.000    0.000    0.000 
#
# Total GULP energy -122715.273931 kJ/mol
# GULP energy per Si atom -5577.966997 kJ/mol
# Density = 2.057634 g / cm^3
# Si number density = 20.623276 Si / 1000 Ang^3
#
#
#
# Elastic Constant Matrix: (Units=GPa)
#
#
# Indices 1 2 3 4 5 6 
#
# 1 74.5017 36.6129 32.6234 0.0020 -7.1119 0.0007
# 2 36.6129 109.4847 35.1180 0.0058 14.7230 0.0004
# 3 32.6234 35.1180 142.0179 0.0130 -2.8334 0.0005
# 4 0.0020 0.0058 0.0130 20.3474 -0.0012 -7.8728
# 5 -7.1119 14.7230 -2.8334 -0.0012 35.6936 0.0006
# 6 0.0007 0.0004 0.0005 -7.8728 0.0006 23.8890
#
#
#
# Elastic Compliance Matrix: (Units=1/GPa)
#
#
# Indices 1 2 3 4 5 6 
#
# 1 0.018051 -0.006011 -0.002543 0.000002 0.005874 0.000000
# 2 -0.006011 0.012626 -0.001872 -0.000002 -0.006554 -0.000001
# 3 -0.002543 -0.001872 0.008107 -0.000005 0.000909 -0.000002
# 4 0.000002 -0.000002 -0.000005 0.056329 0.000003 0.018564
# 5 0.005874 -0.006554 0.000909 0.000003 0.031962 0.000000
# 6 0.000000 -0.000001 -0.000002 0.018564 0.000000 0.047978
#
#
# Mechanical properties :
#
#
# Convention : Reuss Voigt Hill
#
# Bulk Modulus (GPa) = 55.76786 59.41255 57.59020
# Shear Modulus (GPa) = 24.76714 30.76266 27.76490
#
# Velocity S-wave (km/s) = 3.46921 3.86638 3.67316
# Velocity P-wave (km/s) = 6.56865 6.98590 6.78048
#
# Compressibility (1/GPa) = 0.01793148
#
# Stress axis : x y z
#
# Youngs Moduli (GPa) = 55.39989 79.20457 123.35642
#
# Poissons Ratio (x) = 0.47606 0.31369
# Poissons Ratio (y) = 0.33298 0.23093
# Poissons Ratio (z) = 0.14088 0.14828
#
# Static dielectric constant tensor:
#      x y z
#    x 1.820570 0.000190 -0.006490 
#    y 0.000190 1.262910 0.000070 
#    z -0.006490 0.000070 1.754230 
# 
# From -- ./inp_files/104079.got.cif
#   From: 2010.05.17/outbox.cif.g08.bks.cpg/sg15_53_cif.got.tgz:104079.got - 2010.06.03 18:47:42.
