data_PCOD9294827
_publ_section_title
;
Structure prediction by ZEFSAII (Michael W. Deem and Ramdas Pophale) SiO2 
 PCOD9294827
Probable space group: C 2/C
;
_chemical_formula_sum "Si O2"
_cell_formula_units_Z 28
_cell_length_a 12.760836
_cell_length_b 14.191200
_cell_length_c 6.972173
_cell_angle_alpha 90.000000
_cell_angle_beta 121.552578
_cell_angle_gamma 90.000000
_cell_volume 1075.939163
_symmetry_space_group_name_H-M "C 2/C"
_symmetry_group_IT_number 15
_symmetry_cell_setting 'monoclinic'
loop_
_space_group_symop_operation_xyz
x,y,z
-x,y,1/2-z
-x,-y,-z
x,-y,1/2+z
1/2+x,1/2+y,z
1/2-x,1/2+y,1/2-z
1/2-x,1/2-y,-z
1/2+x,1/2-y,1/2+z
loop_
_atom_site_type_symbol
_atom_site_label
_atom_site_fract_x
_atom_site_fract_y
_atom_site_fract_z
Si Si1 0.532871 0.366176 0.077963
Si Si2 0.593366 0.992980 0.966589
Si Si3 0.295950 0.356939 0.580031
Si Si4 0.500000 0.813030 0.750000
O O1 0.500000 0.414139 0.250000
O O2 0.562304 0.257981 0.162490
O O3 0.410368 0.358881 0.835497
O O4 0.646300 0.400235 0.061344
O O5 0.693362 0.074383 0.063944
O O6 0.562849 0.990376 0.183299
O O7 0.601475 0.879584 0.944705
O O8 0.250000 0.250000 0.500000
#
# Coordination Sequence:
#
# PCOD9294827 Si02
#       4
#     8   8   8   4
#     4   9  22  45  70 105 144 187 240 292 368 425
#     4  10  23  41  67 107 142 183 240 296 357 416
#     4  11  23  38  73 107 147 187 236 302 359 429
#     4   8  20  42  70 100 142 180 244 292 348 424
#
# _framework density 26.023774
#
# number of rings (size 3 to 8) (size 9 to 14) (size 15 to 20)
#    1.714    0.571    0.000    1.714    8.000    1.143 
#    5.143    0.000    0.000    6.857   14.857    0.000 
#    0.000    0.000    0.000    0.000    0.000    0.000 
#
# Total GULP energy -78119.010826 kJ/mol
# GULP energy per Si atom -5579.929345 kJ/mol
# Density = 2.596454 g / cm^3
# Si number density = 26.023774 Si / 1000 Ang^3
#
#
#
# Elastic Constant Matrix: (Units=GPa)
#
#
# Indices 1 2 3 4 5 6 
#
# 1 216.6415 84.8709 67.3530 0.0000 -39.6483 0.0000
# 2 84.8709 150.7046 16.8352 0.0000 -7.5324 0.0000
# 3 67.3530 16.8352 119.0228 0.0000 -31.3070 0.0000
# 4 0.0000 0.0000 0.0000 30.9961 0.0000 -3.5698
# 5 -39.6483 -7.5324 -31.3070 0.0000 51.3963 0.0000
# 6 0.0000 0.0000 0.0000 -3.5698 0.0000 43.8294
#
#
#
# Elastic Compliance Matrix: (Units=1/GPa)
#
#
# Indices 1 2 3 4 5 6 
#
# 1 0.007655 -0.003813 -0.002841 0.000000 0.003615 0.000000
# 2 -0.003813 0.008651 0.000588 0.000000 -0.001315 0.000000
# 3 -0.002841 0.000588 0.011161 0.000000 0.004693 0.000000
# 4 0.000000 0.000000 0.000000 0.032568 0.000000 0.002653
# 5 0.003615 -0.001315 0.004693 0.000000 0.024911 0.000000
# 6 0.000000 0.000000 0.000000 0.002653 0.000000 0.023032
#
#
# Mechanical properties :
#
#
# Convention : Reuss Voigt Hill
#
# Bulk Modulus (GPa) = 65.21278 91.60968 78.41123
# Shear Modulus (GPa) = 39.92942 46.39837 43.16389
#
# Velocity S-wave (km/s) = 3.92132 4.22705 4.07705
# Velocity P-wave (km/s) = 6.75394 7.68782 7.23596
#
# Compressibility (1/GPa) = 0.01533442
#
# Stress axis : x y z
#
# Youngs Moduli (GPa) = 130.64058 115.59057 89.59939
#
# Poissons Ratio (x) = 0.44071 0.25458
# Poissons Ratio (y) = 0.49809 -0.05268
# Poissons Ratio (z) = 0.37120 -0.06796
#
# Static dielectric constant tensor:
#      x y z
#    x 2.099720 0.000000 -0.161750 
#    y 0.000000 1.928240 0.000000 
#    z -0.161750 0.000000 2.274680 
# 
# From -- ./inp_files/6595.got.cif
#   From: 2010.05.17/outbox.cif.g08.bks.cpg/sg15_4_cif.got.tgz:6595.got - 2010.06.03 18:47:42.
