data_PCOD9294246
_publ_section_title
;
Structure prediction by ZEFSAII (Michael W. Deem and Ramdas Pophale) SiO2 
 PCOD9294246
Probable space group: C 2/C
;
_chemical_formula_sum "Si O2"
_cell_formula_units_Z 56
_cell_length_a 13.509971
_cell_length_b 13.335381
_cell_length_c 22.304469
_cell_angle_alpha 90.000000
_cell_angle_beta 35.821191
_cell_angle_gamma 90.000000
_cell_volume 2351.791424
_symmetry_space_group_name_H-M "C 2/C"
_symmetry_group_IT_number 15
_symmetry_cell_setting 'monoclinic'
loop_
_space_group_symop_operation_xyz
x,y,z
-x,y,1/2-z
-x,-y,-z
x,-y,1/2+z
1/2+x,1/2+y,z
1/2-x,1/2+y,1/2-z
1/2-x,1/2-y,-z
1/2+x,1/2-y,1/2+z
loop_
_atom_site_type_symbol
_atom_site_label
_atom_site_fract_x
_atom_site_fract_y
_atom_site_fract_z
Si Si1 0.111195 0.096139 0.456237
Si Si2 0.803652 0.578927 0.484139
Si Si3 0.502878 0.466503 0.676216
Si Si4 0.846814 0.776005 0.780082
Si Si5 0.983471 0.680495 0.506880
Si Si6 0.593926 0.147410 0.263820
Si Si7 0.252217 0.856767 0.228642
O O1 0.182202 0.114448 0.488867
O O2 0.027836 0.200511 0.479585
O O3 0.262095 0.081593 0.335733
O O4 0.000000 0.000000 0.500000
O O5 0.694710 0.485228 0.560780
O O6 0.852883 0.644802 0.518465
O O7 0.981908 0.579660 0.362421
O O8 0.500000 0.472632 0.750000
O O9 0.425944 0.359445 0.696313
O O10 0.379327 0.553834 0.714056
O O11 0.679194 0.829666 0.890418
O O12 0.809862 0.670536 0.766871
O O13 0.000000 0.759437 0.750000
O O14 0.906865 0.632164 0.605202
O O15 0.500000 0.184072 0.250000
O O16 0.655359 0.251135 0.262337
#
# Coordination Sequence:
#
# PCOD9294246 Si02
#       7
#     8   8   8   8   8   8   8
#     4  10  23  39  66 106 147 186 228 285 359 434
#     4  11  21  38  69 101 140 183 228 295 353 404
#     4  11  24  42  72 108 133 180 239 293 349 420
#     4  11  27  49  67  98 148 187 236 293 361 430
#     4  11  23  42  70  98 135 189 234 298 356 413
#     4   9  20  36  61 100 139 175 226 289 351 413
#     4  11  22  42  72 100 138 178 240 293 352 426
#
# _framework density 23.811634999999999
#
# number of rings (size 3 to 8) (size 9 to 14) (size 15 to 20)
#    0.000    1.429    2.857    1.714    8.000    1.143 
#    0.000    3.571    0.000    0.857    0.000    0.000 
#    0.000    0.000    0.000    0.000    0.000    0.000 
#
# Total GULP energy -156341.799974 kJ/mol
# GULP energy per Si atom -5583.635713 kJ/mol
# Density = 2.375744 g / cm^3
# Si number density = 23.811635 Si / 1000 Ang^3
#
#
#
# Elastic Constant Matrix: (Units=GPa)
#
#
# Indices 1 2 3 4 5 6 
#
# 1 114.6809 30.2352 13.2749 0.0000 -7.4693 0.0000
# 2 30.2352 68.2832 -3.1634 -0.0002 -12.7282 0.0000
# 3 13.2749 -3.1634 102.9435 -0.0011 3.6350 0.0002
# 4 0.0000 -0.0002 -0.0011 17.5873 0.0001 5.3570
# 5 -7.4693 -12.7282 3.6350 0.0001 30.3609 0.0000
# 6 0.0000 0.0000 0.0002 5.3570 0.0000 28.1565
#
#
#
# Elastic Compliance Matrix: (Units=1/GPa)
#
#
# Indices 1 2 3 4 5 6 
#
# 1 0.010100 -0.004387 -0.001466 0.000000 0.000821 0.000000
# 2 -0.004387 0.017798 0.000891 0.000000 0.006276 0.000000
# 3 -0.001466 0.000891 0.009972 0.000001 -0.001181 0.000000
# 4 0.000000 0.000000 0.000001 0.060357 0.000000 -0.011483
# 5 0.000821 0.006276 -0.001181 0.000000 0.035912 0.000000
# 6 0.000000 0.000000 0.000000 -0.011483 0.000000 0.037701
#
#
# Mechanical properties :
#
#
# Convention : Reuss Voigt Hill
#
# Bulk Modulus (GPa) = 35.78298 40.73343 38.25821
# Shear Modulus (GPa) = 26.16722 31.59167 28.87944
#
# Velocity S-wave (km/s) = 3.31860 3.64639 3.48635
# Velocity P-wave (km/s) = 5.45383 5.90524 5.68402
#
# Compressibility (1/GPa) = 0.02794625
#
# Stress axis : x y z
#
# Youngs Moduli (GPa) = 99.01347 56.18469 100.27851
#
# Poissons Ratio (x) = 0.24648 0.14703
# Poissons Ratio (y) = 0.43436 -0.08935
# Poissons Ratio (z) = 0.14517 -0.05006
#
# Static dielectric constant tensor:
#      x y z
#    x 2.062540 0.000000 -0.047780 
#    y 0.000000 1.862400 0.000000 
#    z -0.047780 0.000000 1.997840 
# 
# From -- ./inp_files/274450.got.cif
#   From: 2010.05.17/outbox.cif.g08.bks.cpg/sg15_138_cif.got.tgz:274450.got - 2010.06.03 18:47:42.
