data_PCOD9294686
_publ_section_title
;
Structure prediction by ZEFSAII (Michael W. Deem and Ramdas Pophale) SiO2 
 PCOD9294686
Probable space group: C 2/C
;
_chemical_formula_sum "Si O2"
_cell_formula_units_Z 56
_cell_length_a 24.282236
_cell_length_b 5.458649
_cell_length_c 21.719252
_cell_angle_alpha 90.000000
_cell_angle_beta 127.881987
_cell_angle_gamma 90.000000
_cell_volume 2272.208863
_symmetry_space_group_name_H-M "C 2/C"
_symmetry_group_IT_number 15
_symmetry_cell_setting 'monoclinic'
loop_
_space_group_symop_operation_xyz
x,y,z
-x,y,1/2-z
-x,-y,-z
x,-y,1/2+z
1/2+x,1/2+y,z
1/2-x,1/2+y,1/2-z
1/2-x,1/2-y,-z
1/2+x,1/2-y,1/2+z
loop_
_atom_site_type_symbol
_atom_site_label
_atom_site_fract_x
_atom_site_fract_y
_atom_site_fract_z
Si Si1 0.078257 0.591048 0.066266
Si Si2 0.541939 0.273416 0.327939
Si Si3 0.940898 0.142187 0.060772
Si Si4 0.930348 0.558007 0.810747
Si Si5 0.707201 0.835019 0.098619
Si Si6 0.715729 0.166955 0.848298
Si Si7 0.332599 0.005828 0.559669
O O1 0.089471 0.620644 0.146239
O O2 0.132337 0.391745 0.077119
O O3 0.083616 0.827523 0.025797
O O4 0.000000 0.500000 0.000000
O O5 0.500000 0.443276 0.250000
O O6 0.556784 0.383749 0.405292
O O7 0.481478 0.075645 0.298242
O O8 0.618612 0.175392 0.365566
O O9 0.887094 0.308627 0.063673
O O10 0.019150 0.241040 0.124108
O O11 0.861453 0.657002 0.732356
O O12 0.750800 0.076131 0.147432
O O13 0.741203 0.577336 0.140132
O O14 0.702199 0.858858 0.020417
O O15 0.711877 0.148933 0.920208
#
# Coordination Sequence:
#
# PCOD9294686 Si02
#       7
#     8   8   8   8   8   8   8
#     4   9  21  50  68  96 130 174 237 290 344 411
#     4  11  22  37  67 105 138 174 236 296 349 410
#     4   9  22  38  68  98 133 178 236 289 345 409
#     4  10  23  41  64 100 135 181 231 285 355 400
#     4  11  27  45  68  99 136 184 234 274 344 419
#     4  12  26  43  68 100 143 185 224 282 343 421
#     4  10  23  41  64  96 141 180 231 284 345 407
#
# _framework density 24.645620999999998
#
# number of rings (size 3 to 8) (size 9 to 14) (size 15 to 20)
#    0.000    1.714    1.429    1.714   10.000    1.714 
#    5.143    0.000    0.000    0.000    0.000    0.000 
#    0.000    0.000    0.000    0.000    0.000    0.000 
#
# Total GULP energy -156507.992776 kJ/mol
# GULP energy per Si atom -5589.571171 kJ/mol
# Density = 2.458953 g / cm^3
# Si number density = 24.645621 Si / 1000 Ang^3
#
#
#
# Elastic Constant Matrix: (Units=GPa)
#
#
# Indices 1 2 3 4 5 6 
#
# 1 95.0638 23.8905 10.5376 0.0002 5.4576 0.0001
# 2 23.8905 83.8396 29.9343 0.0030 24.6457 0.0143
# 3 10.5376 29.9343 72.1047 0.0007 7.0223 0.0008
# 4 0.0002 0.0030 0.0007 24.2342 -0.0002 2.8482
# 5 5.4576 24.6457 7.0223 -0.0002 43.5583 -0.0003
# 6 0.0001 0.0143 0.0008 2.8482 -0.0003 18.7683
#
#
#
# Elastic Compliance Matrix: (Units=1/GPa)
#
#
# Indices 1 2 3 4 5 6 
#
# 1 0.011347 -0.003245 -0.000357 0.000000 0.000472 0.000002
# 2 -0.003245 0.017484 -0.005954 -0.000001 -0.008526 -0.000013
# 3 -0.000357 -0.005954 0.016317 0.000000 0.000783 0.000004
# 4 0.000000 -0.000001 0.000000 0.042013 0.000001 -0.006376
# 5 0.000472 -0.008526 0.000783 0.000001 0.027597 0.000007
# 6 0.000002 -0.000013 0.000004 -0.006376 0.000007 0.054249
#
#
# Mechanical properties :
#
#
# Convention : Reuss Voigt Hill
#
# Bulk Modulus (GPa) = 38.40794 42.19253 40.30023
# Shear Modulus (GPa) = 25.40683 29.75522 27.58102
#
# Velocity S-wave (km/s) = 3.21422 3.47842 3.34893
# Velocity P-wave (km/s) = 5.42152 5.76970 5.59832
#
# Compressibility (1/GPa) = 0.02603629
#
# Stress axis : x y z
#
# Youngs Moduli (GPa) = 88.12778 57.19376 61.28755
#
# Poissons Ratio (x) = 0.18557 0.02190
# Poissons Ratio (y) = 0.28593 0.36491
# Poissons Ratio (z) = 0.03149 0.34054
#
# Static dielectric constant tensor:
#      x y z
#    x 2.012060 0.000000 -0.064370 
#    y 0.000000 2.075320 0.000000 
#    z -0.064370 0.000000 2.003880 
# 
# From -- ./inp_files/283031.got.cif
#   From: 2010.05.17/outbox.cif.g08.bks.cpg/sg15_142_cif.got.tgz:283031.got - 2010.06.03 18:47:42.
