data_PCOD9294032
_publ_section_title
;
Structure prediction by ZEFSAII (Michael W. Deem and Ramdas Pophale) SiO2 
 PCOD9294032
Probable space group: C 2/C
;
_chemical_formula_sum "Si O2"
_cell_formula_units_Z 48
_cell_length_a 9.371878
_cell_length_b 11.405158
_cell_length_c 25.909340
_cell_angle_alpha 90.000000
_cell_angle_beta 55.636063
_cell_angle_gamma 90.000000
_cell_volume 2286.046273
_symmetry_space_group_name_H-M "C 2/C"
_symmetry_group_IT_number 15
_symmetry_cell_setting 'monoclinic'
loop_
_space_group_symop_operation_xyz
x,y,z
-x,y,1/2-z
-x,-y,-z
x,-y,1/2+z
1/2+x,1/2+y,z
1/2-x,1/2+y,1/2-z
1/2-x,1/2-y,-z
1/2+x,1/2-y,1/2+z
loop_
_atom_site_type_symbol
_atom_site_label
_atom_site_fract_x
_atom_site_fract_y
_atom_site_fract_z
Si Si1 0.476170 0.595128 0.815353
Si Si2 0.233801 0.255707 0.232758
Si Si3 0.679557 0.404479 0.835148
Si Si4 0.333059 0.721863 0.428550
Si Si5 0.037181 0.559047 0.662998
Si Si6 0.295587 0.924167 0.636538
O O1 0.500000 0.608071 0.750000
O O2 0.576405 0.698506 0.822856
O O3 0.582294 0.484201 0.813456
O O4 0.283509 0.552028 0.862220
O O5 0.262813 0.192943 0.281623
O O6 0.185993 0.164547 0.196964
O O7 0.104290 0.364427 0.274090
O O8 0.518259 0.345187 0.897996
O O9 0.820168 0.483374 0.835260
O O10 0.250000 0.750000 0.500000
O O11 0.372033 0.840578 0.389248
O O12 0.207560 0.645208 0.416752
O O13 0.947803 0.465731 0.642996
#
# Coordination Sequence:
#
# PCOD9294032 Si02
#       6
#     8   8   8   8   8   8
#     4  11  20  36  53  85 126 162 184 225 287 362
#     4  11  22  35  61  89 131 154 188 228 301 365
#     4  10  23  38  61  89 123 154 199 246 298 361
#     4  10  25  46  63  82 115 161 210 261 306 346
#     4  11  24  39  61  94 120 157 198 244 299 360
#     4  11  24  39  61  89 124 159 198 243 294 361
#
# _framework density 20.996950999999999
#
# number of rings (size 3 to 8) (size 9 to 14) (size 15 to 20)
#    0.000    1.333    3.333    1.000    2.333    8.667 
#    0.000    0.833    0.000    0.000    0.000    0.000 
#    0.000    0.000    0.000    0.000    0.000    0.000 
#
# Total GULP energy -133660.205620 kJ/mol
# GULP energy per Si atom -5569.175234 kJ/mol
# Density = 2.094916 g / cm^3
# Si number density = 20.996951 Si / 1000 Ang^3
#
#
#
# Elastic Constant Matrix: (Units=GPa)
#
#
# Indices 1 2 3 4 5 6 
#
# 1 134.8522 46.5507 18.9735 0.0000 13.0086 0.0000
# 2 46.5507 93.4667 20.7593 0.0000 -2.2818 0.0000
# 3 18.9735 20.7593 57.3201 0.0000 7.7922 0.0000
# 4 0.0000 0.0000 0.0000 13.7499 0.0000 0.9501
# 5 13.0086 -2.2818 7.7922 0.0000 16.9576 0.0000
# 6 0.0000 0.0000 0.0000 0.9501 0.0000 36.8957
#
#
#
# Elastic Compliance Matrix: (Units=1/GPa)
#
#
# Indices 1 2 3 4 5 6 
#
# 1 0.010023 -0.005115 -0.000348 0.000000 -0.008217 0.000000
# 2 -0.005115 0.014472 -0.004636 0.000000 0.008001 0.000000
# 3 -0.000348 -0.004636 0.020574 0.000000 -0.009811 0.000000
# 4 0.000000 0.000000 0.000000 0.072857 0.000000 -0.001876
# 5 -0.008217 0.008001 -0.009811 0.000000 0.070859 0.000000
# 6 0.000000 0.000000 0.000000 -0.001876 0.000000 0.027152
#
#
# Mechanical properties :
#
#
# Convention : Reuss Voigt Hill
#
# Bulk Modulus (GPa) = 40.20860 50.91176 45.56018
# Shear Modulus (GPa) = 20.45626 26.81102 23.63364
#
# Velocity S-wave (km/s) = 3.12468 3.57725 3.35860
# Velocity P-wave (km/s) = 5.67534 6.43134 6.06513
#
# Compressibility (1/GPa) = 0.02487030
#
# Stress axis : x y z
#
# Youngs Moduli (GPa) = 99.77123 69.10119 48.60593
#
# Poissons Ratio (x) = 0.35346 0.01692
# Poissons Ratio (y) = 0.51035 0.22532
# Poissons Ratio (z) = 0.03473 0.32033
#
# Static dielectric constant tensor:
#      x y z
#    x 1.847460 0.000000 -0.066990 
#    y 0.000000 1.838180 0.000000 
#    z -0.066990 0.000000 1.735980 
# 
# From -- ./inp_files/263091.got.cif
#   From: 2010.05.17/outbox.cif.g08.bks.cpg/sg15_132_cif.got.tgz:263091.got - 2010.06.03 18:47:42.
