data_PCOD9294489
_publ_section_title
;
Structure prediction by ZEFSAII (Michael W. Deem and Ramdas Pophale) SiO2 
 PCOD9294489
Probable space group: C 2/C
;
_chemical_formula_sum "Si O2"
_cell_formula_units_Z 56
_cell_length_a 31.513727
_cell_length_b 9.096503
_cell_length_c 11.218648
_cell_angle_alpha 90.000000
_cell_angle_beta 124.129140
_cell_angle_gamma 90.000000
_cell_volume 2662.116835
_symmetry_space_group_name_H-M "C 2/C"
_symmetry_group_IT_number 15
_symmetry_cell_setting 'monoclinic'
loop_
_space_group_symop_operation_xyz
x,y,z
-x,y,1/2-z
-x,-y,-z
x,-y,1/2+z
1/2+x,1/2+y,z
1/2-x,1/2+y,1/2-z
1/2-x,1/2-y,-z
1/2+x,1/2-y,1/2+z
loop_
_atom_site_type_symbol
_atom_site_label
_atom_site_fract_x
_atom_site_fract_y
_atom_site_fract_z
Si Si1 0.450341 0.566907 0.252525
Si Si2 0.374308 0.028280 0.276967
Si Si3 0.818936 0.958661 0.195214
Si Si4 0.782648 0.393021 0.015360
Si Si5 0.113020 0.789537 0.372045
Si Si6 0.635149 0.749879 0.531164
Si Si7 0.400556 0.707676 0.367909
O O1 0.500000 0.575814 0.250000
O O2 0.431910 0.399524 0.238160
O O3 0.449639 0.630663 0.385457
O O4 0.407241 0.661249 0.111134
O O5 0.388742 0.129005 0.187509
O O6 0.385396 0.127364 0.409625
O O7 0.402175 0.873785 0.326269
O O8 0.314674 0.977995 0.168329
O O9 0.836401 0.866218 0.106008
O O10 0.836478 0.866972 0.338034
O O11 0.759390 0.995612 0.102681
O O12 0.852505 0.108425 0.247400
O O13 0.824736 0.333825 0.989417
O O14 0.750000 0.250000 0.000000
O O15 0.108020 0.787829 0.505167
#
# Coordination Sequence:
#
# PCOD9294489 Si02
#       7
#     8   8   8   8   8   8   8
#     4  11  24  47  74  99 129 177 233 284 348 415
#     4  11  24  41  66  96 138 177 216 282 337 392
#     4  10  23  40  66  97 134 184 226 273 326 410
#     4  12  23  38  63  98 138 181 226 261 342 402
#     4  10  23  44  66  97 133 174 231 278 342 404
#     4  11  24  44  64  97 138 173 230 283 332 402
#     4  11  21  42  70  94 140 175 215 290 334 396
#
# _framework density 21.035890999999999
#
# number of rings (size 3 to 8) (size 9 to 14) (size 15 to 20)
#    0.000    1.143    4.286    1.714    2.000    4.000 
#    0.000    1.429    0.000    0.000    0.000    0.000 
#    0.000    0.000    0.000    0.000    0.000    0.000 
#
# Total GULP energy -156354.329531 kJ/mol
# GULP energy per Si atom -5584.083198 kJ/mol
# Density = 2.098801 g / cm^3
# Si number density = 21.035891 Si / 1000 Ang^3
#
#
#
# Elastic Constant Matrix: (Units=GPa)
#
#
# Indices 1 2 3 4 5 6 
#
# 1 104.3526 25.4676 26.9800 0.0000 -10.7611 0.0000
# 2 25.4676 134.9355 30.2859 0.0000 -9.9119 0.0000
# 3 26.9800 30.2859 38.7863 0.0000 -20.6816 0.0000
# 4 0.0000 0.0000 0.0000 11.7669 0.0000 -7.5710
# 5 -10.7611 -9.9119 -20.6816 0.0000 28.6417 0.0000
# 6 0.0000 0.0000 0.0000 -7.5710 0.0000 23.1265
#
#
#
# Elastic Compliance Matrix: (Units=1/GPa)
#
#
# Indices 1 2 3 4 5 6 
#
# 1 0.011799 -0.000337 -0.009176 0.000000 -0.002309 0.000000
# 2 -0.000337 0.009177 -0.008627 0.000000 -0.003180 0.000000
# 3 -0.009176 -0.008627 0.057679 0.000000 0.035216 0.000000
# 4 0.000000 0.000000 0.000000 0.107662 0.000000 0.035246
# 5 -0.002309 -0.003180 0.035216 0.000000 0.058375 0.000000
# 6 0.000000 0.000000 0.000000 0.035246 0.000000 0.054779
#
#
# Mechanical properties :
#
#
# Convention : Reuss Voigt Hill
#
# Bulk Modulus (GPa) = 23.59838 49.28237 36.44038
# Shear Modulus (GPa) = 14.29071 25.72974 20.01023
#
# Velocity S-wave (km/s) = 2.60926 3.50113 3.08757
# Velocity P-wave (km/s) = 4.50779 6.31051 5.48373
#
# Compressibility (1/GPa) = 0.04237579
#
# Stress axis : x y z
#
# Youngs Moduli (GPa) = 84.74998 108.96394 17.33720
#
# Poissons Ratio (x) = 0.03674 0.15908
# Poissons Ratio (y) = 0.02857 0.14957
# Poissons Ratio (z) = 0.77764 0.94007
#
# Static dielectric constant tensor:
#      x y z
#    x 1.742410 0.000000 -0.015050 
#    y 0.000000 1.763160 0.000000 
#    z -0.015050 0.000000 1.812060 
# 
# From -- ./inp_files/125983.got.cif
#   From: 2010.05.17/outbox.cif.g08.bks.cpg/sg15_63_cif.got.tgz:125983.got - 2010.06.03 18:47:42.
