data_PCOD9294306
_publ_section_title
;
Structure prediction by ZEFSAII (Michael W. Deem and Ramdas Pophale) SiO2 
 PCOD9294306
Probable space group: C 2/C
;
_chemical_formula_sum "Si O2"
_cell_formula_units_Z 48
_cell_length_a 24.051937
_cell_length_b 15.383191
_cell_length_c 13.563876
_cell_angle_alpha 90.000000
_cell_angle_beta 28.669958
_cell_angle_gamma 90.000000
_cell_volume 2407.728532
_symmetry_space_group_name_H-M "C 2/C"
_symmetry_group_IT_number 15
_symmetry_cell_setting 'monoclinic'
loop_
_space_group_symop_operation_xyz
x,y,z
-x,y,1/2-z
-x,-y,-z
x,-y,1/2+z
1/2+x,1/2+y,z
1/2-x,1/2+y,1/2-z
1/2-x,1/2-y,-z
1/2+x,1/2-y,1/2+z
loop_
_atom_site_type_symbol
_atom_site_label
_atom_site_fract_x
_atom_site_fract_y
_atom_site_fract_z
Si Si1 0.331134 0.357731 0.377571
Si Si2 0.690390 0.559724 0.088955
Si Si3 0.863560 0.712184 0.462507
Si Si4 0.493729 0.696552 0.056163
Si Si5 0.896041 0.660303 0.836871
Si Si6 0.698367 0.319675 0.394996
O O1 0.346367 0.460428 0.353535
O O2 0.211888 0.337107 0.504414
O O3 0.335551 0.312643 0.477324
O O4 0.434804 0.311458 0.155237
O O5 0.601809 0.621612 0.285861
O O6 0.817080 0.578283 0.936489
O O7 0.696398 0.598227 0.969422
O O8 0.807871 0.688885 0.653835
O O9 0.000000 0.695677 0.250000
O O10 0.442431 0.790440 0.166480
O O11 0.586954 0.677575 0.997388
O O12 0.000000 0.640784 0.750000
O O13 0.819004 0.735023 0.009649
#
# Coordination Sequence:
#
# PCOD9294306 Si02
#       6
#     8   8   8   8   8   8
#     4  10  23  40  57  90 119 151 200 249 289 356
#     4  11  20  34  62  93 118 145 197 252 305 336
#     4  10  23  41  61  75 119 167 200 229 301 364
#     4   9  18  36  61  85 122 151 191 246 299 359
#     4   9  19  34  59  88 120 158 200 235 293 362
#     4   9  19  37  57  86 115 154 197 243 289 361
#
# _framework density 19.935801000000001
#
# number of rings (size 3 to 8) (size 9 to 14) (size 15 to 20)
#    0.000    2.333    0.000    4.000    4.667    2.000 
#    6.000    0.833    0.000    0.000    0.000    0.000 
#    0.000    0.000    0.000    0.000    0.000    0.000 
#
# Total GULP energy -134007.789389 kJ/mol
# GULP energy per Si atom -5583.657891 kJ/mol
# Density = 1.989043 g / cm^3
# Si number density = 19.935801 Si / 1000 Ang^3
#
#
#
# Elastic Constant Matrix: (Units=GPa)
#
#
# Indices 1 2 3 4 5 6 
#
# 1 40.0611 -9.0828 27.0154 0.0000 0.0288 0.0000
# 2 -9.0828 37.8539 12.2891 0.0000 3.9128 0.0000
# 3 27.0154 12.2891 111.0757 0.0000 -10.5133 0.0000
# 4 0.0000 0.0000 0.0000 11.7893 0.0000 -5.8580
# 5 0.0288 3.9128 -10.5133 0.0000 28.0736 0.0000
# 6 0.0000 0.0000 0.0000 -5.8580 0.0000 13.2001
#
#
#
# Elastic Compliance Matrix: (Units=1/GPa)
#
#
# Indices 1 2 3 4 5 6 
#
# 1 0.034713 0.012263 -0.010331 0.000000 -0.005614 0.000000
# 2 0.012263 0.032467 -0.007262 0.000000 -0.007257 0.000000
# 3 -0.010331 -0.007262 0.012872 0.000000 0.005843 0.000000
# 4 0.000000 0.000000 0.000000 0.108819 0.000000 0.048292
# 5 -0.005614 -0.007257 0.005843 0.000000 0.038826 0.000000
# 6 0.000000 0.000000 0.000000 0.048292 0.000000 0.097188
#
#
# Mechanical properties :
#
#
# Convention : Reuss Voigt Hill
#
# Bulk Modulus (GPa) = 14.41049 27.71490 21.06270
# Shear Modulus (GPa) = 13.94020 21.19718 17.56869
#
# Velocity S-wave (km/s) = 2.64721 3.26432 2.97183
# Velocity P-wave (km/s) = 4.07281 5.30471 4.72905
#
# Compressibility (1/GPa) = 0.06939387
#
# Stress axis : x y z
#
# Youngs Moduli (GPa) = 28.80773 30.80011 77.68832
#
# Poissons Ratio (x) = -0.37771 0.80258
# Poissons Ratio (y) = -0.35328 0.56414
# Poissons Ratio (z) = 0.29761 0.22366
#
# Static dielectric constant tensor:
#      x y z
#    x 1.734500 0.000000 -0.006230 
#    y 0.000000 1.665680 0.000000 
#    z -0.006230 0.000000 1.735810 
# 
# From -- ./inp_files/178133.got.cif
#   From: 2010.05.17/outbox.cif.g08.bks.cpg/sg15_90_cif.got.tgz:178133.got - 2010.06.03 18:47:42.
