data_PCOD9294343
_publ_section_title
;
Structure prediction by ZEFSAII (Michael W. Deem and Ramdas Pophale) SiO2 
 PCOD9294343
Probable space group: C 2/C
;
_chemical_formula_sum "Si O2"
_cell_formula_units_Z 56
_cell_length_a 8.902824
_cell_length_b 10.706319
_cell_length_c 24.926990
_cell_angle_alpha 90.000000
_cell_angle_beta 110.890004
_cell_angle_gamma 90.000000
_cell_volume 2219.773565
_symmetry_space_group_name_H-M "C 2/C"
_symmetry_group_IT_number 15
_symmetry_cell_setting 'monoclinic'
loop_
_space_group_symop_operation_xyz
x,y,z
-x,y,1/2-z
-x,-y,-z
x,-y,1/2+z
1/2+x,1/2+y,z
1/2-x,1/2+y,1/2-z
1/2-x,1/2-y,-z
1/2+x,1/2-y,1/2+z
loop_
_atom_site_type_symbol
_atom_site_label
_atom_site_fract_x
_atom_site_fract_y
_atom_site_fract_z
Si Si1 0.829091 0.717586 0.200560
Si Si2 0.945500 0.818836 0.576230
Si Si3 0.482976 0.881984 0.863957
Si Si4 0.568975 0.865490 0.520248
Si Si5 0.157105 0.996808 0.303939
Si Si6 0.612821 0.507338 0.650706
Si Si7 0.080175 0.647494 0.821055
O O1 0.778427 0.859795 0.206530
O O2 0.716912 0.598496 0.196305
O O3 0.000000 0.695577 0.250000
O O4 0.889108 0.707959 0.147513
O O5 0.762507 0.859513 0.544026
O O6 0.988772 0.724655 0.534416
O O7 0.953467 0.751520 0.636763
O O8 0.068561 0.934433 0.591034
O O9 0.483447 0.844209 0.925594
O O10 0.293904 0.900036 0.824440
O O11 0.539807 0.018440 0.848335
O O12 0.500000 0.000000 0.500000
O O13 0.000000 0.030482 0.250000
O O14 0.063923 0.973836 0.347662
O O15 0.727223 0.626287 0.663226
O O16 0.000000 0.658085 0.750000
#
# Coordination Sequence:
#
# PCOD9294343 Si02
#       7
#     8   8   8   8   8   8   8
#     4  10  23  40  61  96 139 173 211 268 334 408
#     4  11  25  46  71  98 130 183 233 279 336 401
#     4  11  21  44  68  92 133 181 215 277 346 386
#     4  11  24  47  73  92 133 181 235 289 333 392
#     4  11  22  37  63  96 132 174 221 269 331 412
#     4  11  23  40  65  99 136 169 225 273 327 402
#     4  11  24  45  69 105 146 176 216 277 345 415
#
# _framework density 25.227799000000001
#
# number of rings (size 3 to 8) (size 9 to 14) (size 15 to 20)
#    0.000    1.143    2.857    4.286    2.000    1.714 
#    2.571    7.143    0.000    0.000    0.000    0.000 
#    0.000    0.000    0.000    0.000    0.000    0.000 
#
# Total GULP energy -156272.752299 kJ/mol
# GULP energy per Si atom -5581.169725 kJ/mol
# Density = 2.517038 g / cm^3
# Si number density = 25.227799 Si / 1000 Ang^3
#
#
#
# Elastic Constant Matrix: (Units=GPa)
#
#
# Indices 1 2 3 4 5 6 
#
# 1 73.6911 25.7444 15.3994 0.0000 -14.8340 0.0000
# 2 25.7444 126.9156 16.2621 0.0000 2.3623 0.0000
# 3 15.3994 16.2621 102.8649 0.0000 -14.8440 0.0000
# 4 0.0000 0.0000 0.0000 4.6291 0.0000 6.8867
# 5 -14.8340 2.3623 -14.8440 0.0000 35.2081 0.0000
# 6 0.0000 0.0000 0.0000 6.8867 0.0000 37.3204
#
#
#
# Elastic Compliance Matrix: (Units=1/GPa)
#
#
# Indices 1 2 3 4 5 6 
#
# 1 0.016266 -0.003302 -0.000950 0.000000 0.006674 0.000000
# 2 -0.003302 0.008756 -0.001252 0.000000 -0.002506 0.000000
# 3 -0.000950 -0.001252 0.010665 0.000000 0.004180 0.000000
# 4 0.000000 0.000000 0.000000 0.297774 0.000000 -0.054948
# 5 0.006674 -0.002506 0.004180 0.000000 0.033145 0.000000
# 6 0.000000 0.000000 0.000000 -0.054948 0.000000 0.036935
#
#
# Mechanical properties :
#
#
# Convention : Reuss Voigt Hill
#
# Bulk Modulus (GPa) = 40.51935 46.47594 43.49765
# Shear Modulus (GPa) = 11.82665 31.83590 21.83127
#
# Velocity S-wave (km/s) = 2.16751 3.55623 2.94490
# Velocity P-wave (km/s) = 4.72868 5.94347 5.37053
#
# Compressibility (1/GPa) = 0.02467956
#
# Stress axis : x y z
#
# Youngs Moduli (GPa) = 61.47895 114.20652 93.76648
#
# Poissons Ratio (x) = 0.37710 0.08907
# Poissons Ratio (y) = 0.20300 0.11736
# Poissons Ratio (z) = 0.05840 0.14294
#
# Static dielectric constant tensor:
#      x y z
#    x 1.885550 0.000000 0.448020 
#    y 0.000000 2.090140 0.000000 
#    z 0.448020 0.000000 1.167780 
# 
# From -- ./inp_files/288057.got.cif
#   From: 2010.05.17/outbox.cif.g08.bks.cpg/sg15_145_cif.got.tgz:288057.got - 2010.06.03 18:47:42.
