data_PCOD9294920
_publ_section_title
;
Structure prediction by ZEFSAII (Michael W. Deem and Ramdas Pophale) SiO2 
 PCOD9294920
Probable space group: C 2/C
;
_chemical_formula_sum "Si O2"
_cell_formula_units_Z 40
_cell_length_a 21.802339
_cell_length_b 8.940189
_cell_length_c 8.720141
_cell_angle_alpha 90.000000
_cell_angle_beta 108.146253
_cell_angle_gamma 90.000000
_cell_volume 1615.168577
_symmetry_space_group_name_H-M "C 2/C"
_symmetry_group_IT_number 15
_symmetry_cell_setting 'monoclinic'
loop_
_space_group_symop_operation_xyz
x,y,z
-x,y,1/2-z
-x,-y,-z
x,-y,1/2+z
1/2+x,1/2+y,z
1/2-x,1/2+y,1/2-z
1/2-x,1/2-y,-z
1/2+x,1/2-y,1/2+z
loop_
_atom_site_type_symbol
_atom_site_label
_atom_site_fract_x
_atom_site_fract_y
_atom_site_fract_z
Si Si1 0.700503 0.038676 0.433704
Si Si2 0.207651 0.007064 0.740992
Si Si3 0.937821 0.673636 0.146891
Si Si4 0.475730 0.331379 0.478482
Si Si5 0.354399 0.294850 0.576901
O O1 0.756545 0.089052 0.592513
O O2 0.682936 0.861425 0.432284
O O3 0.730736 0.069649 0.292249
O O4 0.632466 0.111960 0.411458
O O5 0.176293 0.109436 0.587384
O O6 0.158626 0.891941 0.781012
O O7 0.960455 0.732395 0.999916
O O8 0.000000 0.574478 0.250000
O O9 0.500000 0.500000 0.500000
O O10 0.428634 0.284915 0.578977
O O11 0.560022 0.297590 0.214008
#
# Coordination Sequence:
#
# PCOD9294920 Si02
#       5
#     8   8   8   8   8
#     4  11  22  49  68 107 143 180 240 292 347 422
#     4  10  23  41  69 105 143 186 231 287 353 417
#     4   8  22  42  71 100 135 181 231 283 349 406
#     4   9  21  44  68  99 141 179 233 280 349 419
#     4  11  24  44  70 103 145 185 235 293 352 415
#
# _framework density 24.765217
#
# number of rings (size 3 to 8) (size 9 to 14) (size 15 to 20)
#    1.200    0.800    0.000    3.600    5.600    0.800 
#    7.200    9.000    0.000    0.000    0.000    0.000 
#    0.000    0.000    0.000    0.000    0.000    0.000 
#
# Total GULP energy -111697.322374 kJ/mol
# GULP energy per Si atom -5584.866119 kJ/mol
# Density = 2.470885 g / cm^3
# Si number density = 24.765217 Si / 1000 Ang^3
#
#
#
# Elastic Constant Matrix: (Units=GPa)
#
#
# Indices 1 2 3 4 5 6 
#
# 1 143.9709 32.8367 48.4888 0.0000 -47.2741 0.0000
# 2 32.8367 87.7205 40.1823 0.0000 -11.4915 0.0000
# 3 48.4888 40.1823 90.8289 0.0000 -40.1890 0.0000
# 4 0.0000 0.0000 0.0000 4.0550 0.0000 5.6920
# 5 -47.2741 -11.4915 -40.1890 0.0000 62.5487 0.0000
# 6 0.0000 0.0000 0.0000 5.6920 0.0000 45.4191
#
#
#
# Elastic Compliance Matrix: (Units=1/GPa)
#
#
# Indices 1 2 3 4 5 6 
#
# 1 0.010007 -0.002175 -0.001691 0.000000 0.006077 0.000000
# 2 -0.002175 0.014953 -0.006938 0.000000 -0.003355 0.000000
# 3 -0.001691 -0.006938 0.019355 0.000000 0.009883 0.000000
# 4 0.000000 0.000000 0.000000 0.299250 0.000000 -0.037503
# 5 0.006077 -0.003355 0.009883 0.000000 0.026314 0.000000
# 6 0.000000 0.000000 0.000000 -0.037503 0.000000 0.026717
#
#
# Mechanical properties :
#
#
# Convention : Reuss Voigt Hill
#
# Bulk Modulus (GPa) = 44.04154 62.83731 53.43943
# Shear Modulus (GPa) = 11.74332 35.80540 23.77436
#
# Velocity S-wave (km/s) = 2.17994 3.80648 3.10173
# Velocity P-wave (km/s) = 4.91512 6.68935 5.86966
#
# Compressibility (1/GPa) = 0.02270584
#
# Stress axis : x y z
#
# Youngs Moduli (GPa) = 99.93057 66.87700 51.66652
#
# Poissons Ratio (x) = 0.14547 0.08736
# Poissons Ratio (y) = 0.21737 0.35847
# Poissons Ratio (z) = 0.16897 0.46401
#
# Static dielectric constant tensor:
#      x y z
#    x 2.024020 0.000000 0.026710 
#    y 0.000000 2.023880 0.000000 
#    z 0.026710 0.000000 2.030240 
# 
# From -- ./inp_files/54124.got.cif
#   From: 2010.05.17/outbox.cif.g08.bks.cpg/sg15_28_cif.got.tgz:54124.got - 2010.06.03 18:47:42.
