data_PCOD9294040
_publ_section_title
;
Structure prediction by ZEFSAII (Michael W. Deem and Ramdas Pophale) SiO2 
 PCOD9294040
Probable space group: C 2/C
;
_chemical_formula_sum "Si O2"
_cell_formula_units_Z 40
_cell_length_a 23.081725
_cell_length_b 13.689706
_cell_length_c 11.441398
_cell_angle_alpha 90.000000
_cell_angle_beta 149.758944
_cell_angle_gamma 90.000000
_cell_volume 1820.794518
_symmetry_space_group_name_H-M "C 2/C"
_symmetry_group_IT_number 15
_symmetry_cell_setting 'monoclinic'
loop_
_space_group_symop_operation_xyz
x,y,z
-x,y,1/2-z
-x,-y,-z
x,-y,1/2+z
1/2+x,1/2+y,z
1/2-x,1/2+y,1/2-z
1/2-x,1/2-y,-z
1/2+x,1/2-y,1/2+z
loop_
_atom_site_type_symbol
_atom_site_label
_atom_site_fract_x
_atom_site_fract_y
_atom_site_fract_z
Si Si1 0.574405 0.806482 0.138174
Si Si2 0.777672 0.897674 0.114197
Si Si3 0.787563 0.116798 0.160722
Si Si4 0.812300 0.303427 0.771403
Si Si5 0.983542 0.456074 0.842116
O O1 0.680437 0.860228 0.387280
O O2 0.611966 0.694427 0.191445
O O3 0.448806 0.817914 0.980438
O O4 0.561157 0.859187 0.989617
O O5 0.806645 0.814176 0.257486
O O6 0.831243 0.005376 0.222739
O O7 0.773940 0.845932 0.979846
O O8 0.645147 0.923169 0.894777
O O9 0.732734 0.144915 0.190557
O O10 0.000000 0.513340 0.750000
O O11 0.000000 0.500000 0.000000
#
# Coordination Sequence:
#
# PCOD9294040 Si02
#       5
#     8   8   8   8   8
#     4  10  23  39  59  96 124 160 219 259 318 387
#     4  10  23  38  62  91 122 170 214 255 326 385
#     4  11  22  39  65  90 127 168 211 269 316 383
#     4  10  23  42  60  91 133 164 211 272 317 385
#     4  11  22  36  62  92 123 162 210 268 319 378
#
# _framework density 21.968433999999998
#
# number of rings (size 3 to 8) (size 9 to 14) (size 15 to 20)
#    0.000    1.600    2.000    1.800    5.600    4.000 
#    0.000    0.000    0.000    2.400    0.000    0.000 
#    0.000    0.000    0.000    0.000    0.000    0.000 
#
# Total GULP energy -111353.903099 kJ/mol
# GULP energy per Si atom -5567.695155 kJ/mol
# Density = 2.191843 g / cm^3
# Si number density = 21.968434 Si / 1000 Ang^3
#
#
#
# Elastic Constant Matrix: (Units=GPa)
#
#
# Indices 1 2 3 4 5 6 
#
# 1 74.9433 22.5310 11.9265 0.0000 -12.4585 0.0000
# 2 22.5310 193.5517 16.1158 0.0000 -6.9836 0.0000
# 3 11.9265 16.1158 33.9278 0.0000 -3.4931 0.0000
# 4 0.0000 0.0000 0.0000 42.1368 0.0000 -1.0762
# 5 -12.4585 -6.9836 -3.4931 0.0000 24.7364 0.0000
# 6 0.0000 0.0000 0.0000 -1.0762 0.0000 18.1011
#
#
#
# Elastic Compliance Matrix: (Units=1/GPa)
#
#
# Indices 1 2 3 4 5 6 
#
# 1 0.015515 -0.001211 -0.004170 0.000000 0.006884 0.000000
# 2 -0.001211 0.005508 -0.002124 0.000000 0.000645 0.000000
# 3 -0.004170 -0.002124 0.032139 0.000000 0.001838 0.000000
# 4 0.000000 0.000000 0.000000 0.023768 0.000000 0.001413
# 5 0.006884 0.000645 0.001838 0.000000 0.044335 0.000000
# 6 0.000000 0.000000 0.000000 0.001413 0.000000 0.055329
#
#
# Mechanical properties :
#
#
# Convention : Reuss Voigt Hill
#
# Bulk Modulus (GPa) = 26.21129 44.84106 35.52618
# Shear Modulus (GPa) = 24.47127 33.78483 29.12805
#
# Velocity S-wave (km/s) = 3.34118 3.92584 3.64525
# Velocity P-wave (km/s) = 5.18091 6.40355 5.82440
#
# Compressibility (1/GPa) = 0.03815150
#
# Stress axis : x y z
#
# Youngs Moduli (GPa) = 64.45233 181.56598 31.11527
#
# Poissons Ratio (x) = 0.21979 0.12976
# Poissons Ratio (y) = 0.07802 0.06609
# Poissons Ratio (z) = 0.26879 0.38568
#
# Static dielectric constant tensor:
#      x y z
#    x 1.919310 0.000000 -0.052150 
#    y 0.000000 2.034440 0.000000 
#    z -0.052150 0.000000 1.817080 
# 
# From -- ./inp_files/118862.got.cif
#   From: 2010.05.17/outbox.cif.g08.bks.cpg/sg15_60_cif.got.tgz:118862.got - 2010.06.03 18:47:42.
