data_PCOD9294054
_publ_section_title
;
Structure prediction by ZEFSAII (Michael W. Deem and Ramdas Pophale) SiO2 
 PCOD9294054
Probable space group: C 2/C
;
_chemical_formula_sum "Si O2"
_cell_formula_units_Z 64
_cell_length_a 30.786502
_cell_length_b 8.461627
_cell_length_c 13.976865
_cell_angle_alpha 90.000000
_cell_angle_beta 51.022714
_cell_angle_gamma 90.000000
_cell_volume 2830.518202
_symmetry_space_group_name_H-M "C 2/C"
_symmetry_group_IT_number 15
_symmetry_cell_setting 'monoclinic'
loop_
_space_group_symop_operation_xyz
x,y,z
-x,y,1/2-z
-x,-y,-z
x,-y,1/2+z
1/2+x,1/2+y,z
1/2-x,1/2+y,1/2-z
1/2-x,1/2-y,-z
1/2+x,1/2-y,1/2+z
loop_
_atom_site_type_symbol
_atom_site_label
_atom_site_fract_x
_atom_site_fract_y
_atom_site_fract_z
Si Si1 0.870840 0.397669 0.242173
Si Si2 0.606563 0.570460 0.530972
Si Si3 0.512914 0.445005 0.375335
Si Si4 0.860508 0.059298 0.334738
Si Si5 0.805371 0.419629 0.674008
Si Si6 0.395625 0.938725 0.905641
Si Si7 0.971509 0.394230 0.960921
Si Si8 0.187704 0.942999 0.276554
O O1 0.849610 0.237781 0.319675
O O2 0.825569 0.490702 0.242291
O O3 0.894754 0.504064 0.297138
O O4 0.916854 0.346474 0.098830
O O5 0.542236 0.514128 0.610720
O O6 0.646084 0.467799 0.544371
O O7 0.608054 0.748805 0.570716
O O8 0.634994 0.541590 0.389781
O O9 0.500000 0.500000 0.500000
O O10 0.573722 0.511856 0.267486
O O11 0.509371 0.254439 0.380674
O O12 0.822147 0.947399 0.323579
O O13 0.845048 0.477926 0.532518
O O14 0.811611 0.234887 0.686752
O O15 0.743115 0.467453 0.731946
O O16 0.450038 0.980031 0.894991
O O17 0.000000 0.500000 0.000000
#
# Coordination Sequence:
#
# PCOD9294054 Si02
#       8
#     8   8   8   8   8   8   8   8
#     4  11  23  43  63  96 131 171 216 268 319 384
#     4  11  24  42  65  98 129 174 216 267 319 388
#     4  11  21  41  64  91 132 171 215 260 312 383
#     4  12  24  41  67  95 132 175 217 265 323 385
#     4  11  25  44  69  96 127 169 211 275 325 389
#     4  10  23  43  63  94 134 167 217 267 321 381
#     4  10  23  38  63  91 131 171 213 265 317 373
#     4  12  24  44  70  95 128 167 217 265 332 386
#
# _framework density 22.610702
#
# number of rings (size 3 to 8) (size 9 to 14) (size 15 to 20)
#    0.000    1.000    2.500    4.875    5.250    2.500 
#    2.250    5.000    0.000    0.000    0.000    0.000 
#    0.000    0.000    0.000    0.000    0.000    0.000 
#
# Total GULP energy -178848.990765 kJ/mol
# GULP energy per Si atom -5589.030961 kJ/mol
# Density = 2.255924 g / cm^3
# Si number density = 22.610702 Si / 1000 Ang^3
#
#
#
# Elastic Constant Matrix: (Units=GPa)
#
#
# Indices 1 2 3 4 5 6 
#
# 1 166.1964 53.6264 36.6067 0.0000 14.9136 0.0000
# 2 53.6264 91.7095 17.6337 0.0000 -8.0463 0.0000
# 3 36.6067 17.6337 39.4355 0.0000 7.2713 0.0000
# 4 0.0000 0.0000 0.0000 30.5263 0.0000 3.6911
# 5 14.9136 -8.0463 7.2713 0.0000 38.1400 0.0000
# 6 0.0000 0.0000 0.0000 3.6911 0.0000 42.1454
#
#
#
# Elastic Compliance Matrix: (Units=1/GPa)
#
#
# Indices 1 2 3 4 5 6 
#
# 1 0.009031 -0.004469 -0.005763 0.000000 -0.003376 0.000000
# 2 -0.004469 0.014656 -0.003418 0.000000 0.005491 0.000000
# 3 -0.005763 -0.003418 0.033117 0.000000 -0.004781 0.000000
# 4 0.000000 0.000000 0.000000 0.033109 0.000000 -0.002900
# 5 -0.003376 0.005491 -0.004781 0.000000 0.029609 0.000000
# 6 0.000000 0.000000 0.000000 -0.002900 0.000000 0.023981
#
#
# Mechanical properties :
#
#
# Convention : Reuss Voigt Hill
#
# Bulk Modulus (GPa) = 33.89163 57.00834 45.44998
# Shear Modulus (GPa) = 27.67975 34.79399 31.23687
#
# Velocity S-wave (km/s) = 3.50264 3.92705 3.72090
# Velocity P-wave (km/s) = 5.60176 6.76978 6.21328
#
# Compressibility (1/GPa) = 0.02950581
#
# Stress axis : x y z
#
# Youngs Moduli (GPa) = 110.72732 68.23088 30.19612
#
# Poissons Ratio (x) = 0.30493 0.17401
# Poissons Ratio (y) = 0.49485 0.10320
# Poissons Ratio (z) = 0.63808 0.23318
#
# Static dielectric constant tensor:
#      x y z
#    x 1.856650 0.000000 0.025470 
#    y 0.000000 1.884610 0.000000 
#    z 0.025470 0.000000 1.894240 
# 
# From -- ./inp_files/181149.got.cif
#   From: 2010.05.17/outbox.cif.g08.bks.cpg/sg15_91_cif.got.tgz:181149.got - 2010.06.03 18:47:42.
