data_PCOD9294744
_publ_section_title
;
Structure prediction by ZEFSAII (Michael W. Deem and Ramdas Pophale) SiO2 
 PCOD9294744
Probable space group: C 2/C
;
_chemical_formula_sum "Si O2"
_cell_formula_units_Z 56
_cell_length_a 5.172915
_cell_length_b 15.138744
_cell_length_c 31.483968
_cell_angle_alpha 90.000000
_cell_angle_beta 96.944061
_cell_angle_gamma 90.000000
_cell_volume 2447.469065
_symmetry_space_group_name_H-M "C 2/C"
_symmetry_group_IT_number 15
_symmetry_cell_setting 'monoclinic'
loop_
_space_group_symop_operation_xyz
x,y,z
-x,y,1/2-z
-x,-y,-z
x,-y,1/2+z
1/2+x,1/2+y,z
1/2-x,1/2+y,1/2-z
1/2-x,1/2-y,-z
1/2+x,1/2-y,1/2+z
loop_
_atom_site_type_symbol
_atom_site_label
_atom_site_fract_x
_atom_site_fract_y
_atom_site_fract_z
Si Si1 0.731587 0.459575 0.977478
Si Si2 0.500000 0.298749 0.250000
Si Si3 0.543392 0.613452 0.840508
Si Si4 0.000000 0.821428 0.750000
Si Si5 0.379027 0.411654 0.658502
Si Si6 0.463170 0.954299 0.593584
Si Si7 0.027356 0.180858 0.073076
Si Si8 0.397060 0.144075 0.608083
O O1 0.776588 0.479039 0.928288
O O2 0.657593 0.357288 0.967989
O O3 0.500000 0.500000 0.000000
O O4 0.000000 0.500000 0.000000
O O5 0.510296 0.356412 0.208003
O O6 0.245740 0.238404 0.243271
O O7 0.494014 0.508559 0.842047
O O8 0.351615 0.667410 0.868056
O O9 0.843948 0.630541 0.858567
O O10 0.927543 0.875151 0.706113
O O11 0.072682 0.426984 0.641556
O O12 0.467983 0.347984 0.621404
O O13 0.320139 0.047664 0.588659
O O14 0.299841 0.872219 0.571830
O O15 0.984609 0.285205 0.074828
#
# Coordination Sequence:
#
# PCOD9294744 Si02
#       8
#     8   4   8   4   8   8   8   8
#     4  11  23  42  70 100 135 175 213 270 335 401
#     4  12  25  40  57  92 128 174 220 285 336 389
#     4  11  23  42  61  91 132 169 224 281 336 390
#     4  12  27  40  63  94 134 174 230 275 330 399
#     4  10  23  41  65  95 127 181 223 275 334 397
#     4  10  23  44  69  99 133 173 226 272 337 402
#     4  11  22  42  72  95 132 174 223 269 332 400
#     4  11  25  40  68  98 127 171 224 277 326 402
#
# _framework density 22.880779
#
# number of rings (size 3 to 8) (size 9 to 14) (size 15 to 20)
#    0.000    1.143    2.857    3.000    8.000    0.000 
#    0.000    2.857    0.000    0.000    0.000    0.000 
#    0.000    0.000    0.000    0.000    0.000    0.000 
#
# Total GULP energy -156086.104211 kJ/mol
# GULP energy per Si atom -5574.503722 kJ/mol
# Density = 2.282870 g / cm^3
# Si number density = 22.880779 Si / 1000 Ang^3
#
#
#
# Elastic Constant Matrix: (Units=GPa)
#
#
# Indices 1 2 3 4 5 6 
#
# 1 128.9496 24.5389 20.7155 0.0000 -0.1276 0.0000
# 2 24.5389 63.4149 -4.5329 0.0000 0.9739 0.0000
# 3 20.7155 -4.5329 66.2248 0.0000 6.6573 0.0000
# 4 0.0000 0.0000 0.0000 33.1101 0.0000 0.7465
# 5 -0.1276 0.9739 6.6573 0.0000 38.3889 0.0000
# 6 0.0000 0.0000 0.0000 0.7465 0.0000 21.6107
#
#
#
# Elastic Compliance Matrix: (Units=1/GPa)
#
#
# Indices 1 2 3 4 5 6 
#
# 1 0.008962 -0.003701 -0.003124 0.000000 0.000665 0.000000
# 2 -0.003701 0.017389 0.002436 0.000000 -0.000876 0.000000
# 3 -0.003124 0.002436 0.016539 0.000000 -0.002940 0.000000
# 4 0.000000 0.000000 0.000000 0.030226 0.000000 -0.001044
# 5 0.000665 -0.000876 -0.002940 0.000000 0.026584 0.000000
# 6 0.000000 0.000000 0.000000 -0.001044 0.000000 0.046309
#
#
# Mechanical properties :
#
#
# Convention : Reuss Voigt Hill
#
# Bulk Modulus (GPa) = 29.31460 37.78138 33.54799
# Shear Modulus (GPa) = 30.09194 33.14646 31.61920
#
# Velocity S-wave (km/s) = 3.63045 3.81026 3.72144
# Velocity P-wave (km/s) = 5.51482 5.99212 5.75842
#
# Compressibility (1/GPa) = 0.03411269
#
# Stress axis : x y z
#
# Youngs Moduli (GPa) = 111.58506 57.50759 60.46143
#
# Poissons Ratio (x) = 0.21285 0.18885
# Poissons Ratio (y) = 0.41301 -0.14729
# Poissons Ratio (z) = 0.34854 -0.14009
#
# Static dielectric constant tensor:
#      x y z
#    x 1.959140 0.000000 -0.026280 
#    y 0.000000 1.964230 0.000000 
#    z -0.026280 0.000000 1.889180 
# 
# From -- ./inp_files/305441.got.cif
#   From: 2010.05.17/outbox.cif.g08.bks.cpg/sg15_153_cif.got.tgz:305441.got - 2010.06.03 18:47:42.
