data_PCOD9294368
_publ_section_title
;
Structure prediction by ZEFSAII (Michael W. Deem and Ramdas Pophale) SiO2 
 PCOD9294368
Probable space group: C 2/C
;
_chemical_formula_sum "Si O2"
_cell_formula_units_Z 52
_cell_length_a 7.281905
_cell_length_b 26.799535
_cell_length_c 12.580385
_cell_angle_alpha 90.000000
_cell_angle_beta 96.833446
_cell_angle_gamma 90.000000
_cell_volume 2437.642749
_symmetry_space_group_name_H-M "C 2/C"
_symmetry_group_IT_number 15
_symmetry_cell_setting 'monoclinic'
loop_
_space_group_symop_operation_xyz
x,y,z
-x,y,1/2-z
-x,-y,-z
x,-y,1/2+z
1/2+x,1/2+y,z
1/2-x,1/2+y,1/2-z
1/2-x,1/2-y,-z
1/2+x,1/2-y,1/2+z
loop_
_atom_site_type_symbol
_atom_site_label
_atom_site_fract_x
_atom_site_fract_y
_atom_site_fract_z
Si Si1 0.133595 0.797455 0.449285
Si Si2 0.500000 0.244885 0.250000
Si Si3 0.379342 0.051584 0.503821
Si Si4 0.166681 0.830083 0.678433
Si Si5 0.723977 0.567772 0.263023
Si Si6 0.110481 0.627242 0.663137
Si Si7 0.689646 0.538451 0.697628
O O1 0.250000 0.750000 0.500000
O O2 0.981378 0.777976 0.355581
O O3 0.081275 0.824313 0.555067
O O4 0.259665 0.834801 0.389681
O O5 0.679616 0.211100 0.282865
O O6 0.305685 0.069662 0.386018
O O7 0.496835 0.095174 0.568778
O O8 0.203866 0.044533 0.571853
O O9 0.500000 0.000000 0.500000
O O10 0.266556 0.883633 0.697307
O O11 0.000000 0.826599 0.750000
O O12 0.500000 0.566899 0.250000
O O13 0.785797 0.514877 0.221357
O O14 0.210893 0.584406 0.738913
O O15 0.000000 0.655219 0.750000
O O16 0.500000 0.536020 0.750000
#
# Coordination Sequence:
#
# PCOD9294368 Si02
#       7
#     8   4   8   8   8   8   8
#     4  10  24  44  68 101 131 176 235 288 354 412
#     4  10  24  46  72  98 132 188 234 296 364 412
#     4  11  23  40  66  99 134 186 231 280 350 414
#     4  10  24  44  68 104 141 174 234 289 362 426
#     4  10  23  40  63 100 136 179 225 277 346 417
#     4  10  23  44  66 100 136 179 233 293 346 421
#     4  10  23  40  64  97 141 180 231 278 342 422
#
# _framework density 21.332083999999998
#
# number of rings (size 3 to 8) (size 9 to 14) (size 15 to 20)
#    0.000    1.846    1.538    0.000    7.538    8.000 
#    5.538    0.000    0.000    0.000    0.000    0.000 
#    0.000    0.000    0.000    0.000    0.000    0.000 
#
# Total GULP energy -145049.402910 kJ/mol
# GULP energy per Si atom -5578.823189 kJ/mol
# Density = 2.128353 g / cm^3
# Si number density = 21.332084 Si / 1000 Ang^3
#
#
#
# Elastic Constant Matrix: (Units=GPa)
#
#
# Indices 1 2 3 4 5 6 
#
# 1 56.8747 12.0954 7.3145 0.0000 -9.9912 0.0000
# 2 12.0954 98.6878 48.6147 0.0000 -6.0363 0.0000
# 3 7.3145 48.6147 126.5800 0.0000 -2.8914 0.0000
# 4 0.0000 0.0000 0.0000 67.6564 0.0000 -5.6067
# 5 -9.9912 -6.0363 -2.8914 0.0000 37.0033 0.0000
# 6 0.0000 0.0000 0.0000 -5.6067 0.0000 36.2718
#
#
#
# Elastic Compliance Matrix: (Units=1/GPa)
#
#
# Indices 1 2 3 4 5 6 
#
# 1 0.018855 -0.001895 -0.000253 0.000000 0.004762 0.000000
# 2 -0.001895 0.012791 -0.004776 0.000000 0.001202 0.000000
# 3 -0.000253 -0.004776 0.009747 0.000000 -0.000086 0.000000
# 4 0.000000 0.000000 0.000000 0.014972 0.000000 0.002314
# 5 0.004762 0.001202 -0.000086 0.000000 0.028500 0.000000
# 6 0.000000 0.000000 0.000000 0.002314 0.000000 0.027927
#
#
# Mechanical properties :
#
#
# Convention : Reuss Voigt Hill
#
# Bulk Modulus (GPa) = 36.30350 46.46574 41.38462
# Shear Modulus (GPa) = 36.81304 42.46083 39.63694
#
# Velocity S-wave (km/s) = 4.15868 4.46631 4.31523
# Velocity P-wave (km/s) = 6.33361 6.95892 6.65362
#
# Compressibility (1/GPa) = 0.02754555
#
# Stress axis : x y z
#
# Youngs Moduli (GPa) = 53.03754 78.17817 102.59596
#
# Poissons Ratio (x) = 0.14815 0.02595
# Poissons Ratio (y) = 0.10050 0.48997
# Poissons Ratio (z) = 0.01342 0.37336
#
# Static dielectric constant tensor:
#      x y z
#    x 1.943800 0.000000 -0.073570 
#    y 0.000000 1.829900 0.000000 
#    z -0.073570 0.000000 1.778050 
# 
# From -- ./inp_files/80813.got.cif
#   From: 2010.05.17/outbox.cif.g08.bks.cpg/sg15_41_cif.got.tgz:80813.got - 2010.06.03 18:47:42.
