data_PCOD9294220
_publ_section_title
;
Structure prediction by ZEFSAII (Michael W. Deem and Ramdas Pophale) SiO2 
 PCOD9294220
Probable space group: C 2/C
;
_chemical_formula_sum "Si O2"
_cell_formula_units_Z 48
_cell_length_a 14.104737
_cell_length_b 17.759954
_cell_length_c 13.976537
_cell_angle_alpha 90.000000
_cell_angle_beta 35.811307
_cell_angle_gamma 90.000000
_cell_volume 2048.564584
_symmetry_space_group_name_H-M "C 2/C"
_symmetry_group_IT_number 15
_symmetry_cell_setting 'monoclinic'
loop_
_space_group_symop_operation_xyz
x,y,z
-x,y,1/2-z
-x,-y,-z
x,-y,1/2+z
1/2+x,1/2+y,z
1/2-x,1/2+y,1/2-z
1/2-x,1/2-y,-z
1/2+x,1/2-y,1/2+z
loop_
_atom_site_type_symbol
_atom_site_label
_atom_site_fract_x
_atom_site_fract_y
_atom_site_fract_z
Si Si1 0.179090 0.622524 0.616856
Si Si2 0.484956 0.315229 0.940254
Si Si3 0.841458 0.213148 0.834618
Si Si4 0.263446 0.074011 0.138764
Si Si5 0.507730 0.175082 0.043182
Si Si6 0.353625 0.556140 0.649048
O O1 0.320590 0.683451 0.514228
O O2 0.205533 0.577123 0.498356
O O3 0.218429 0.569120 0.676269
O O4 0.000000 0.654063 0.750000
O O5 0.526404 0.232633 0.938721
O O6 0.441231 0.362422 0.073599
O O7 0.621079 0.364699 0.777603
O O8 0.905211 0.279470 0.709416
O O9 0.000000 0.174718 0.750000
O O10 0.750000 0.250000 0.000000
O O11 0.694487 0.162478 0.916459
O O12 0.409530 0.104269 0.085293
O O13 0.217809 0.990417 0.206137
O O14 0.500000 0.500000 0.500000
#
# Coordination Sequence:
#
# PCOD9294220 Si02
#       6
#     8   8   8   8   8   8
#     4  10  23  39  64  97 131 161 217 275 323 396
#     4   9  21  40  62  92 134 164 211 262 333 393
#     4   9  20  38  58  85 134 174 216 267 313 381
#     4  11  21  40  70  93 129 174 217 268 330 391
#     4  11  20  36  66  96 130 177 212 269 330 394
#     4   8  20  41  64  86 127 172 216 264 320 393
#
# _framework density 23.431039999999999
#
# number of rings (size 3 to 8) (size 9 to 14) (size 15 to 20)
#    1.000    1.333    1.667    0.500    2.333    1.333 
#    0.000    4.167    3.667    0.000    0.000    0.000 
#    0.000    0.000    0.000    0.000    0.000    0.000 
#
# Total GULP energy -133861.295381 kJ/mol
# GULP energy per Si atom -5577.553974 kJ/mol
# Density = 2.337771 g / cm^3
# Si number density = 23.431040 Si / 1000 Ang^3
#
#
#
# Elastic Constant Matrix: (Units=GPa)
#
#
# Indices 1 2 3 4 5 6 
#
# 1 102.1193 2.8926 26.4430 -0.0003 -37.1395 0.0007
# 2 2.8926 57.3009 -1.4662 -0.0003 -7.5137 0.0014
# 3 26.4430 -1.4662 85.2793 0.0005 -25.4158 0.0006
# 4 -0.0003 -0.0003 0.0005 21.7312 -0.0002 -4.1486
# 5 -37.1395 -7.5137 -25.4158 -0.0002 62.6811 0.0007
# 6 0.0007 0.0014 0.0006 -4.1486 0.0007 15.1242
#
#
#
# Elastic Compliance Matrix: (Units=1/GPa)
#
#
# Indices 1 2 3 4 5 6 
#
# 1 0.012760 0.000199 -0.001925 0.000000 0.006803 -0.000001
# 2 0.000199 0.017819 0.001042 0.000000 0.002676 -0.000002
# 3 -0.001925 0.001042 0.013693 0.000000 0.004536 -0.000001
# 4 0.000000 0.000000 0.000000 0.048560 0.000000 0.013320
# 5 0.006803 0.002676 0.004536 0.000000 0.022145 -0.000002
# 6 -0.000001 -0.000002 -0.000001 0.013320 -0.000002 0.069773
#
#
# Mechanical properties :
#
#
# Convention : Reuss Voigt Hill
#
# Bulk Modulus (GPa) = 23.30812 33.38206 28.34509
# Shear Modulus (GPa) = 24.94765 34.36264 29.65515
#
# Velocity S-wave (km/s) = 3.26655 3.83370 3.56144
# Velocity P-wave (km/s) = 4.91897 5.82016 5.38844
#
# Compressibility (1/GPa) = 0.04290351
#
# Stress axis : x y z
#
# Youngs Moduli (GPa) = 78.37149 56.11887 73.02951
#
# Poissons Ratio (x) = -0.01115 0.14061
# Poissons Ratio (y) = -0.01557 -0.07613
# Poissons Ratio (z) = 0.15090 -0.05850
#
# Static dielectric constant tensor:
#      x y z
#    x 1.929200 0.000000 0.030320 
#    y 0.000000 1.862260 0.000000 
#    z 0.030320 0.000000 1.980540 
# 
# From -- ./inp_files/156744.got.cif
#   From: 2010.05.17/outbox.cif.g08.bks.cpg/sg15_79_cif.got.tgz:156744.got - 2010.06.03 18:47:42.
