data_PCOD9294458
_publ_section_title
;
Structure prediction by ZEFSAII (Michael W. Deem and Ramdas Pophale) SiO2 
 PCOD9294458
Probable space group: C 2/C
;
_chemical_formula_sum "Si O2"
_cell_formula_units_Z 40
_cell_length_a 12.281217
_cell_length_b 13.966368
_cell_length_c 9.134850
_cell_angle_alpha 90.000000
_cell_angle_beta 75.892050
_cell_angle_gamma 90.000000
_cell_volume 1519.587086
_symmetry_space_group_name_H-M "C 2/C"
_symmetry_group_IT_number 15
_symmetry_cell_setting 'monoclinic'
loop_
_space_group_symop_operation_xyz
x,y,z
-x,y,1/2-z
-x,-y,-z
x,-y,1/2+z
1/2+x,1/2+y,z
1/2-x,1/2+y,1/2-z
1/2-x,1/2-y,-z
1/2+x,1/2-y,1/2+z
loop_
_atom_site_type_symbol
_atom_site_label
_atom_site_fract_x
_atom_site_fract_y
_atom_site_fract_z
Si Si1 0.098170 0.157208 0.615318
Si Si2 0.686608 0.046187 0.472586
Si Si3 0.305901 0.819696 0.263068
Si Si4 0.622667 0.397108 0.777994
Si Si5 0.955061 0.371190 0.970377
O O1 0.209139 0.174381 0.673345
O O2 0.115837 0.101369 0.456787
O O3 0.059078 0.264743 0.583625
O O4 0.000000 0.116483 0.750000
O O5 0.723525 0.119863 0.585491
O O6 0.788974 0.031875 0.327164
O O7 0.581916 0.094028 0.421237
O O8 0.630958 0.951076 0.560533
O O9 0.331854 0.708681 0.279778
O O10 0.416299 0.864227 0.151825
O O11 0.500000 0.405955 0.750000
#
# Coordination Sequence:
#
# PCOD9294458 Si02
#       5
#     8   8   8   8   8
#     4  11  23  42  68  98 137 181 228 279 334 401
#     4  11  23  41  68 100 137 179 225 281 339 403
#     4  11  22  39  64  97 134 177 229 279 335 399
#     4  11  22  40  66  98 135 178 227 276 331 401
#     4  10  23  40  65  99 138 177 222 278 343 402
#
# _framework density 26.322941
#
# number of rings (size 3 to 8) (size 9 to 14) (size 15 to 20)
#    0.000    1.200    0.000    8.400    0.000    6.400 
#    0.000    1.000    0.000   10.800    0.000    0.000 
#    0.000    0.000    0.000    0.000    0.000    0.000 
#
# Total GULP energy -112287.111303 kJ/mol
# GULP energy per Si atom -5614.355565 kJ/mol
# Density = 2.626303 g / cm^3
# Si number density = 26.322941 Si / 1000 Ang^3
#
#
#
# Elastic Constant Matrix: (Units=GPa)
#
#
# Indices 1 2 3 4 5 6 
#
# 1 184.9479 -7.9636 68.5402 0.0000 5.7816 0.0000
# 2 -7.9636 56.6909 21.5492 0.0000 17.4897 0.0000
# 3 68.5402 21.5492 192.0275 0.0000 -8.8058 0.0000
# 4 0.0000 0.0000 0.0000 32.3793 0.0000 -9.7343
# 5 5.7816 17.4897 -8.8058 0.0000 40.8337 0.0000
# 6 0.0000 0.0000 0.0000 -9.7343 0.0000 27.9289
#
#
#
# Elastic Compliance Matrix: (Units=1/GPa)
#
#
# Indices 1 2 3 4 5 6 
#
# 1 0.006666 0.002870 -0.002829 0.000000 -0.002783 0.000000
# 2 0.002870 0.023057 -0.004124 0.000000 -0.011171 0.000000
# 3 -0.002829 -0.004124 0.006847 0.000000 0.003644 0.000000
# 4 0.000000 0.000000 0.000000 0.034499 0.000000 0.012024
# 5 -0.002783 -0.011171 0.003644 0.000000 0.030454 0.000000
# 6 0.000000 0.000000 0.000000 0.012024 0.000000 0.039996
#
#
# Mechanical properties :
#
#
# Convention : Reuss Voigt Hill
#
# Bulk Modulus (GPa) = 35.20571 66.43532 50.82051
# Shear Modulus (GPa) = 31.41628 43.66443 37.54036
#
# Velocity S-wave (km/s) = 3.45845 4.07725 3.78053
# Velocity P-wave (km/s) = 5.41769 6.88903 6.19718
#
# Compressibility (1/GPa) = 0.02840448
#
# Stress axis : x y z
#
# Youngs Moduli (GPa) = 150.01610 43.37084 146.04388
#
# Poissons Ratio (x) = -0.12449 0.41316
# Poissons Ratio (y) = -0.43061 0.60232
# Poissons Ratio (z) = 0.42440 0.17887
#
# Static dielectric constant tensor:
#      x y z
#    x 2.030340 0.000000 -0.011560 
#    y 0.000000 2.080300 0.000000 
#    z -0.011560 0.000000 2.046390 
# 
# From -- ./inp_files/29106.got.cif
#   From: 2010.05.17/outbox.cif.g08.bks.cpg/sg15_15_cif.got.tgz:29106.got - 2010.06.03 18:47:42.
