data_PCOD9294754
_publ_section_title
;
Structure prediction by ZEFSAII (Michael W. Deem and Ramdas Pophale) SiO2 
 PCOD9294754
Probable space group: C 2/C
;
_chemical_formula_sum "Si O2"
_cell_formula_units_Z 40
_cell_length_a 17.765448
_cell_length_b 8.671934
_cell_length_c 14.378455
_cell_angle_alpha 90.000000
_cell_angle_beta 49.828927
_cell_angle_gamma 90.000000
_cell_volume 1692.649132
_symmetry_space_group_name_H-M "C 2/C"
_symmetry_group_IT_number 15
_symmetry_cell_setting 'monoclinic'
loop_
_space_group_symop_operation_xyz
x,y,z
-x,y,1/2-z
-x,-y,-z
x,-y,1/2+z
1/2+x,1/2+y,z
1/2-x,1/2+y,1/2-z
1/2-x,1/2-y,-z
1/2+x,1/2-y,1/2+z
loop_
_atom_site_type_symbol
_atom_site_label
_atom_site_fract_x
_atom_site_fract_y
_atom_site_fract_z
Si Si1 0.298619 0.990244 0.316929
Si Si2 0.893418 0.293450 0.375438
Si Si3 0.391297 0.924175 0.572565
Si Si4 0.877701 0.065004 0.922426
Si Si5 0.913832 0.223295 0.714487
O O1 0.314864 0.832120 0.358045
O O2 0.205488 0.078331 0.433126
O O3 0.311845 0.979702 0.195857
O O4 0.391115 0.103194 0.267993
O O5 0.871766 0.400629 0.480818
O O6 0.898069 0.116136 0.400364
O O7 0.000000 0.327756 0.250000
O O8 0.388575 0.755400 0.626439
O O9 0.500000 0.000000 0.500000
O O10 0.854608 0.118642 0.835110
O O11 0.975189 0.161316 0.870182
#
# Coordination Sequence:
#
# PCOD9294754 Si02
#       5
#     8   8   8   8   8
#     4  10  24  44  68  95 133 180 220 268 335 405
#     4  12  22  43  69  93 137 176 217 273 331 396
#     4  10  23  41  65  97 127 180 220 265 331 394
#     4  11  22  44  68  99 131 174 219 275 338 386
#     4   9  22  42  65  95 131 170 215 276 326 388
#
# _framework density 23.631595999999998
#
# number of rings (size 3 to 8) (size 9 to 14) (size 15 to 20)
#    1.200    0.400    4.000    1.200    8.400    0.800 
#    7.200    0.000    0.000    0.000    0.000    0.000 
#    0.000    0.000    0.000    0.000    0.000    0.000 
#
# Total GULP energy -111502.813401 kJ/mol
# GULP energy per Si atom -5575.140670 kJ/mol
# Density = 2.357781 g / cm^3
# Si number density = 23.631596 Si / 1000 Ang^3
#
#
#
# Elastic Constant Matrix: (Units=GPa)
#
#
# Indices 1 2 3 4 5 6 
#
# 1 29.5859 4.7246 28.0078 0.0000 8.5549 0.0000
# 2 4.7246 49.4286 14.1596 0.0000 -2.1092 0.0000
# 3 28.0078 14.1596 194.5156 0.0000 6.1463 0.0000
# 4 0.0000 0.0000 0.0000 29.2094 0.0000 1.0002
# 5 8.5549 -2.1092 6.1463 0.0000 46.9264 0.0000
# 6 0.0000 0.0000 0.0000 1.0002 0.0000 7.3041
#
#
#
# Elastic Compliance Matrix: (Units=1/GPa)
#
#
# Indices 1 2 3 4 5 6 
#
# 1 0.041503 -0.002671 -0.005562 0.000000 -0.006958 0.000000
# 2 -0.002671 0.020894 -0.001186 0.000000 0.001581 0.000000
# 3 -0.005562 -0.001186 0.006023 0.000000 0.000172 0.000000
# 4 0.000000 0.000000 0.000000 0.034397 0.000000 -0.004710
# 5 -0.006958 0.001581 0.000172 0.000000 0.022627 0.000000
# 6 0.000000 0.000000 0.000000 -0.004710 0.000000 0.137554
#
#
# Mechanical properties :
#
#
# Convention : Reuss Voigt Hill
#
# Bulk Modulus (GPa) = 20.16849 40.81268 30.49058
# Shear Modulus (GPa) = 16.75811 31.79718 24.27765
#
# Velocity S-wave (km/s) = 2.66586 3.67214 3.20869
# Velocity P-wave (km/s) = 4.24603 5.94031 5.16314
#
# Compressibility (1/GPa) = 0.04958229
#
# Stress axis : x y z
#
# Youngs Moduli (GPa) = 24.09446 47.86110 166.03786
#
# Poissons Ratio (x) = 0.12782 0.92345
# Poissons Ratio (y) = 0.06435 0.19698
# Poissons Ratio (z) = 0.13401 0.05678
#
# Static dielectric constant tensor:
#      x y z
#    x 1.936800 0.000000 0.023350 
#    y 0.000000 1.865290 0.000000 
#    z 0.023350 0.000000 1.989940 
# 
# From -- ./inp_files/171665.got.cif
#   From: 2010.05.17/outbox.cif.g08.bks.cpg/sg15_86_cif.got.tgz:171665.got - 2010.06.03 18:47:42.
