data_PCOD9294170
_publ_section_title
;
Structure prediction by ZEFSAII (Michael W. Deem and Ramdas Pophale) SiO2 
 PCOD9294170
Probable space group: C 2/C
;
_chemical_formula_sum "Si O2"
_cell_formula_units_Z 56
_cell_length_a 12.798097
_cell_length_b 17.068621
_cell_length_c 16.926435
_cell_angle_alpha 90.000000
_cell_angle_beta 52.382937
_cell_angle_gamma 90.000000
_cell_volume 2928.826714
_symmetry_space_group_name_H-M "C 2/C"
_symmetry_group_IT_number 15
_symmetry_cell_setting 'monoclinic'
loop_
_space_group_symop_operation_xyz
x,y,z
-x,y,1/2-z
-x,-y,-z
x,-y,1/2+z
1/2+x,1/2+y,z
1/2-x,1/2+y,1/2-z
1/2-x,1/2-y,-z
1/2+x,1/2-y,1/2+z
loop_
_atom_site_type_symbol
_atom_site_label
_atom_site_fract_x
_atom_site_fract_y
_atom_site_fract_z
Si Si1 0.364474 0.381652 0.264646
Si Si2 0.149501 0.503993 0.399894
Si Si3 0.644899 0.950860 0.717691
Si Si4 0.434316 0.291038 0.947453
Si Si5 0.380771 0.442396 0.077782
Si Si6 0.258734 0.713694 0.207467
Si Si7 0.259545 0.332592 0.891016
O O1 0.500000 0.389570 0.250000
O O2 0.242442 0.427652 0.361963
O O3 0.385800 0.418545 0.167697
O O4 0.322757 0.291425 0.273768
O O5 0.140681 0.524272 0.311199
O O6 0.226098 0.575834 0.405502
O O7 0.000000 0.500000 0.500000
O O8 0.500000 0.954782 0.750000
O O9 0.700215 0.862539 0.691355
O O10 0.745550 0.009696 0.628439
O O11 0.588717 0.277559 0.885736
O O12 0.392073 0.313160 0.877853
O O13 0.389631 0.364166 0.021886
O O14 0.354545 0.214575 0.010604
O O15 0.500000 0.500000 0.000000
O O16 0.258657 0.696977 0.301497
#
# Coordination Sequence:
#
# PCOD9294170 Si02
#       7
#     8   8   8   8   8   8   8
#     4  11  25  42  66  93 126 168 207 262 317 377
#     4  10  23  41  61  91 126 159 209 256 307 377
#     4  10  23  39  63  90 124 165 202 260 313 362
#     4  11  22  40  67  91 126 167 207 261 318 370
#     4  11  23  43  64  96 127 163 213 260 308 386
#     4  11  21  43  61  91 130 160 213 256 310 376
#     4  10  23  39  62  94 123 163 206 259 313 372
#
# _framework density 19.120284000000002
#
# number of rings (size 3 to 8) (size 9 to 14) (size 15 to 20)
#    0.000    1.429    2.857    1.714    4.000    0.000 
#    2.571    0.714    0.000    0.000    0.000    0.000 
#    0.000    0.000    0.000    0.000    0.000    0.000 
#
# Total GULP energy -156462.343976 kJ/mol
# GULP energy per Si atom -5587.940856 kJ/mol
# Density = 1.907677 g / cm^3
# Si number density = 19.120284 Si / 1000 Ang^3
#
#
#
# Elastic Constant Matrix: (Units=GPa)
#
#
# Indices 1 2 3 4 5 6 
#
# 1 113.9127 29.6765 18.8755 0.0000 -22.4372 0.0000
# 2 29.6765 83.8730 19.1118 0.0000 -0.7028 0.0000
# 3 18.8755 19.1118 69.0426 0.0000 -18.7426 0.0000
# 4 0.0000 0.0000 0.0000 34.6190 0.0000 -2.8594
# 5 -22.4372 -0.7028 -18.7426 0.0000 31.7496 0.0000
# 6 0.0000 0.0000 0.0000 -2.8594 0.0000 16.4001
#
#
#
# Elastic Compliance Matrix: (Units=1/GPa)
#
#
# Indices 1 2 3 4 5 6 
#
# 1 0.011378 -0.004001 0.000185 0.000000 0.008062 0.000000
# 2 -0.004001 0.014255 -0.004209 0.000000 -0.004996 0.000000
# 3 0.000185 -0.004209 0.018587 0.000000 0.011010 0.000000
# 4 0.000000 0.000000 0.000000 0.029308 0.000000 0.005110
# 5 0.008062 -0.004996 0.011010 0.000000 0.043582 0.000000
# 6 0.000000 0.000000 0.000000 0.005110 0.000000 0.061866
#
#
# Mechanical properties :
#
#
# Convention : Reuss Voigt Hill
#
# Bulk Modulus (GPa) = 35.49551 44.68401 40.08976
# Shear Modulus (GPa) = 24.45992 29.83135 27.14563
#
# Velocity S-wave (km/s) = 3.58056 3.95421 3.77202
# Velocity P-wave (km/s) = 5.97482 6.65345 6.32325
#
# Compressibility (1/GPa) = 0.02817258
#
# Stress axis : x y z
#
# Youngs Moduli (GPa) = 87.88853 70.14875 53.80093
#
# Poissons Ratio (x) = 0.28063 -0.00996
# Poissons Ratio (y) = 0.35160 0.22643
# Poissons Ratio (z) = -0.01627 0.29523
#
# Static dielectric constant tensor:
#      x y z
#    x 1.638040 0.000000 0.006930 
#    y 0.000000 1.651020 0.000000 
#    z 0.006930 0.000000 1.658970 
# 
# From -- ./inp_files/199434.got.cif
#   From: 2010.05.17/outbox.cif.g08.bks.cpg/sg15_100_cif.got.tgz:199434.got - 2010.06.03 18:47:42.
