data_PCOD9294773
_publ_section_title
;
Structure prediction by ZEFSAII (Michael W. Deem and Ramdas Pophale) SiO2 
 PCOD9294773
Probable space group: C 2/C
;
_chemical_formula_sum "Si O2"
_cell_formula_units_Z 36
_cell_length_a 12.301358
_cell_length_b 13.091126
_cell_length_c 8.733104
_cell_angle_alpha 90.000000
_cell_angle_beta 106.598838
_cell_angle_gamma 90.000000
_cell_volume 1347.761471
_symmetry_space_group_name_H-M "C 2/C"
_symmetry_group_IT_number 15
_symmetry_cell_setting 'monoclinic'
loop_
_space_group_symop_operation_xyz
x,y,z
-x,y,1/2-z
-x,-y,-z
x,-y,1/2+z
1/2+x,1/2+y,z
1/2-x,1/2+y,1/2-z
1/2-x,1/2-y,-z
1/2+x,1/2-y,1/2+z
loop_
_atom_site_type_symbol
_atom_site_label
_atom_site_fract_x
_atom_site_fract_y
_atom_site_fract_z
Si Si1 0.810217 0.414979 0.503084
Si Si2 0.137349 0.385550 0.303450
Si Si3 0.019776 0.260233 0.589916
Si Si4 0.500000 0.357150 0.750000
Si Si5 0.725442 0.662187 0.271941
O O1 0.792263 0.419930 0.317121
O O2 0.825335 0.530003 0.562683
O O3 0.730672 0.356265 0.590439
O O4 0.928275 0.351752 0.554289
O O5 0.172621 0.268008 0.316328
O O6 0.000000 0.391823 0.250000
O O7 0.004229 0.195343 0.426953
O O8 0.142123 0.316920 0.638473
O O9 0.000000 0.208480 0.750000
O O10 0.376376 0.410516 0.708432
#
# Coordination Sequence:
#
# PCOD9294773 Si02
#       5
#     8   8   8   4   8
#     4  11  25  44  67 104 141 175 235 292 349 413
#     4  12  23  41  71 102 139 178 228 294 349 412
#     4  10  23  41  66 101 138 179 231 281 346 411
#     4  12  22  40  70 100 136 184 230 284 344 408
#     4  11  23  43  70 100 141 184 233 283 349 417
#
# _framework density 26.710958999999999
#
# number of rings (size 3 to 8) (size 9 to 14) (size 15 to 20)
#    0.000    0.889    3.333    4.000    3.111    5.333 
#    0.000    0.000    7.333    2.667    0.000    0.000 
#    0.000    0.000    0.000    0.000    0.000    0.000 
#
# Total GULP energy -100297.114880 kJ/mol
# GULP energy per Si atom -5572.061938 kJ/mol
# Density = 2.665016 g / cm^3
# Si number density = 26.710959 Si / 1000 Ang^3
#
#
#
# Elastic Constant Matrix: (Units=GPa)
#
#
# Indices 1 2 3 4 5 6 
#
# 1 246.1985 17.6738 42.1062 0.0000 -28.6433 0.0000
# 2 17.6738 40.3150 15.0459 0.0000 -24.6947 0.0000
# 3 42.1062 15.0459 139.7678 0.0000 -42.0868 0.0000
# 4 0.0000 0.0000 0.0000 -113.8608 0.0000 27.3694
# 5 -28.6433 -24.6947 -42.0868 0.0000 54.0059 0.0000
# 6 0.0000 0.0000 0.0000 27.3694 0.0000 23.5836
#
#
#
# Elastic Compliance Matrix: (Units=1/GPa)
#
#
# Indices 1 2 3 4 5 6 
#
# 1 0.004418 -0.000819 -0.000849 0.000000 0.001307 0.000000
# 2 -0.000819 0.034804 0.001518 0.000000 0.016663 0.000000
# 3 -0.000849 0.001518 0.009565 0.000000 0.007698 0.000000
# 4 0.000000 0.000000 0.000000 -0.006867 0.000000 0.007969
# 5 0.001307 0.016663 0.007698 0.000000 0.032827 0.000000
# 6 0.000000 0.000000 0.000000 0.007969 0.000000 0.033154
#
#
# Mechanical properties :
#
#
# Convention : Reuss Voigt Hill
#
# Bulk Modulus (GPa) = 20.62495 63.99256 42.30875
# Shear Modulus (GPa) = 40.20426 16.17609 28.19018
#
# Velocity S-wave (km/s) = 3.88385 2.46356 3.25218
# Velocity P-wave (km/s) = 5.27737 5.66583 5.47505
#
# Compressibility (1/GPa) = 0.04848496
#
# Stress axis : x y z
#
# Youngs Moduli (GPa) = 226.35473 28.73223 104.54668
#
# Poissons Ratio (x) = 0.02355 0.08879
# Poissons Ratio (y) = 0.18549 -0.15867
# Poissons Ratio (z) = 0.19224 -0.04361
#
# Static dielectric constant tensor:
#      x y z
#    x 2.106390 0.000000 0.120060 
#    y 0.000000 2.240920 0.000000 
#    z 0.120060 0.000000 2.449170 
# 
# From -- ./inp_files/28809.got.cif
#   From: 2010.05.17/outbox.cif.g08.bks.cpg/sg15_15_cif.got.tgz:28809.got - 2010.06.03 18:47:42.
