data_PCOD9294718
_publ_section_title
;
Structure prediction by ZEFSAII (Michael W. Deem and Ramdas Pophale) SiO2 
 PCOD9294718
Probable space group: C 2/C
;
_chemical_formula_sum "Si O2"
_cell_formula_units_Z 52
_cell_length_a 13.811112
_cell_length_b 17.302888
_cell_length_c 10.929467
_cell_angle_alpha 90.000000
_cell_angle_beta 56.757221
_cell_angle_gamma 90.000000
_cell_volume 2184.424379
_symmetry_space_group_name_H-M "C 2/C"
_symmetry_group_IT_number 15
_symmetry_cell_setting 'monoclinic'
loop_
_space_group_symop_operation_xyz
x,y,z
-x,y,1/2-z
-x,-y,-z
x,-y,1/2+z
1/2+x,1/2+y,z
1/2-x,1/2+y,1/2-z
1/2-x,1/2-y,-z
1/2+x,1/2-y,1/2+z
loop_
_atom_site_type_symbol
_atom_site_label
_atom_site_fract_x
_atom_site_fract_y
_atom_site_fract_z
Si Si1 0.560083 0.319651 0.025981
Si Si2 0.500000 0.546256 0.750000
Si Si3 0.137781 0.651746 0.037943
Si Si4 0.224089 0.962689 0.224666
Si Si5 0.826374 0.835867 0.075466
Si Si6 0.123511 0.393370 0.827284
Si Si7 0.183321 0.804027 0.689602
O O1 0.612556 0.330752 0.855488
O O2 0.556837 0.395867 0.110245
O O3 0.622283 0.244343 0.038322
O O4 0.424402 0.303119 0.097905
O O5 0.391965 0.504477 0.759606
O O6 0.160104 0.630346 0.163719
O O7 0.013753 0.617098 0.081045
O O8 0.230422 0.609364 0.888231
O O9 0.188642 0.924561 0.377784
O O10 0.325895 0.022786 0.176414
O O11 0.708288 0.787651 0.174163
O O12 0.863286 0.825448 0.910192
O O13 0.189599 0.341110 0.880590
#
# Coordination Sequence:
#
# PCOD9294718 Si02
#       7
#     8   4   8   8   8   8   8
#     4  11  21  42  70 101 128 168 229 286 331 384
#     4  10  24  42  70  98 134 174 226 276 330 398
#     4  11  23  42  70  99 131 173 225 282 335 388
#     4  11  24  45  64  97 137 179 221 273 332 397
#     4  10  23  41  64  97 135 173 221 277 325 403
#     4  11  25  41  66  99 136 177 221 271 332 408
#     4  11  22  41  65  97 133 175 219 272 338 388
#
# _framework density 23.804898000000001
#
# number of rings (size 3 to 8) (size 9 to 14) (size 15 to 20)
#    0.000    1.231    3.077    2.769    4.308    1.231 
#    2.769    2.308    0.000    0.000    0.000    0.000 
#    0.000    0.000    0.000    0.000    0.000    0.000 
#
# Total GULP energy -145456.162792 kJ/mol
# GULP energy per Si atom -5594.467800 kJ/mol
# Density = 2.375072 g / cm^3
# Si number density = 23.804898 Si / 1000 Ang^3
#
#
#
# Elastic Constant Matrix: (Units=GPa)
#
#
# Indices 1 2 3 4 5 6 
#
# 1 122.4792 11.9474 3.0288 0.0000 5.5324 0.0000
# 2 11.9474 58.4570 -5.6259 0.0000 3.7032 0.0000
# 3 3.0288 -5.6259 77.1783 0.0000 6.9200 0.0000
# 4 0.0000 0.0000 0.0000 18.8210 0.0000 7.1281
# 5 5.5324 3.7032 6.9200 0.0000 32.4108 0.0000
# 6 0.0000 0.0000 0.0000 7.1281 0.0000 17.4465
#
#
#
# Elastic Compliance Matrix: (Units=1/GPa)
#
#
# Indices 1 2 3 4 5 6 
#
# 1 0.008389 -0.001674 -0.000347 0.000000 -0.001167 0.000000
# 2 -0.001674 0.017728 0.001544 0.000000 -0.002069 0.000000
# 3 -0.000347 0.001544 0.013349 0.000000 -0.002967 0.000000
# 4 0.000000 0.000000 0.000000 0.062859 0.000000 -0.025682
# 5 -0.001167 -0.002069 -0.002967 0.000000 0.031923 0.000000
# 6 0.000000 0.000000 0.000000 -0.025682 0.000000 0.067811
#
#
# Mechanical properties :
#
#
# Convention : Reuss Voigt Hill
#
# Bulk Modulus (GPa) = 25.96556 30.75723 28.36140
# Shear Modulus (GPa) = 23.16412 30.31995 26.74204
#
# Velocity S-wave (km/s) = 3.12281 3.57274 3.35533
# Velocity P-wave (km/s) = 4.89223 5.47430 5.19143
#
# Compressibility (1/GPa) = 0.03851255
#
# Stress axis : x y z
#
# Youngs Moduli (GPa) = 119.20061 56.40673 74.91091
#
# Poissons Ratio (x) = 0.09443 0.02597
# Poissons Ratio (y) = 0.19955 -0.11563
# Poissons Ratio (z) = 0.04132 -0.08707
#
# Static dielectric constant tensor:
#      x y z
#    x 1.892440 0.000000 -0.030090 
#    y 0.000000 1.934960 0.000000 
#    z -0.030090 0.000000 1.901140 
# 
# From -- ./inp_files/98205.got.cif
#   From: 2010.05.17/outbox.cif.g08.bks.cpg/sg15_50_cif.got.tgz:98205.got - 2010.06.03 18:47:42.
