data_PCOD9294940
_publ_section_title
;
Structure prediction by ZEFSAII (Michael W. Deem and Ramdas Pophale) SiO2 
 PCOD9294940
Probable space group: C 2/C
;
_chemical_formula_sum "Si O2"
_cell_formula_units_Z 52
_cell_length_a 13.937221
_cell_length_b 8.292858
_cell_length_c 21.100186
_cell_angle_alpha 90.000000
_cell_angle_beta 126.749352
_cell_angle_gamma 90.000000
_cell_volume 1954.071614
_symmetry_space_group_name_H-M "C 2/C"
_symmetry_group_IT_number 15
_symmetry_cell_setting 'monoclinic'
loop_
_space_group_symop_operation_xyz
x,y,z
-x,y,1/2-z
-x,-y,-z
x,-y,1/2+z
1/2+x,1/2+y,z
1/2-x,1/2+y,1/2-z
1/2-x,1/2-y,-z
1/2+x,1/2-y,1/2+z
loop_
_atom_site_type_symbol
_atom_site_label
_atom_site_fract_x
_atom_site_fract_y
_atom_site_fract_z
Si Si1 0.649574 0.112611 0.481392
Si Si2 0.500000 0.719941 0.750000
Si Si3 0.406645 0.198067 0.341511
Si Si4 0.960595 0.897787 0.546758
Si Si5 0.290751 0.883477 0.106249
Si Si6 0.335418 0.467661 0.629986
Si Si7 0.300816 0.445195 0.813482
O O1 0.750000 0.250000 0.500000
O O2 0.512584 0.168870 0.433588
O O3 0.650046 0.969275 0.429920
O O4 0.702898 0.032377 0.564995
O O5 0.519979 0.817528 0.694893
O O6 0.391955 0.595971 0.698526
O O7 0.361321 0.380510 0.329034
O O8 0.285279 0.099869 0.278558
O O9 0.839014 0.821806 0.470654
O O10 0.904216 0.978172 0.588672
O O11 0.086891 0.829572 0.623855
O O12 0.000000 0.000000 0.500000
O O13 0.349531 0.719074 0.153691
O O14 0.275622 0.020495 0.153251
#
# Coordination Sequence:
#
# PCOD9294940 Si02
#       7
#     8   4   8   8   8   8   8
#     4  11  21  44  70  98 131 177 235 281 334 407
#     4  12  24  44  68  98 138 180 228 286 342 412
#     4  12  26  44  67  99 137 183 229 281 353 408
#     4   9  18  40  65  95 132 173 216 277 337 391
#     4  10  23  41  70 102 133 180 234 282 335 407
#     4  11  23  41  74 100 134 181 238 283 337 412
#     4  11  25  43  65  96 142 177 220 284 348 413
#
# _framework density 26.611101000000001
#
# number of rings (size 3 to 8) (size 9 to 14) (size 15 to 20)
#    0.000    1.231    3.077    3.692    2.154    3.692 
#    0.000    0.769    0.000    0.000    0.000    0.000 
#    0.000    0.000    0.000    0.000    0.000    0.000 
#
# Total GULP energy -145194.125294 kJ/mol
# GULP energy per Si atom -5584.389434 kJ/mol
# Density = 2.655053 g / cm^3
# Si number density = 26.611101 Si / 1000 Ang^3
#
#
#
# Elastic Constant Matrix: (Units=GPa)
#
#
# Indices 1 2 3 4 5 6 
#
# 1 78.1896 2.3704 4.2894 0.0000 3.9574 0.0000
# 2 2.3704 68.1597 32.5488 0.0000 26.2062 0.0000
# 3 4.2894 32.5488 149.7401 0.0000 38.4003 0.0000
# 4 0.0000 0.0000 0.0000 30.3046 0.0000 7.1823
# 5 3.9574 26.2062 38.4003 0.0000 47.6446 0.0000
# 6 0.0000 0.0000 0.0000 7.1823 0.0000 29.2786
#
#
#
# Elastic Compliance Matrix: (Units=1/GPa)
#
#
# Indices 1 2 3 4 5 6 
#
# 1 0.012845 -0.000021 -0.000117 0.000000 -0.000961 0.000000
# 2 -0.000021 0.018995 -0.001827 0.000000 -0.008973 0.000000
# 3 -0.000117 -0.001827 0.008595 0.000000 -0.005913 0.000000
# 4 0.000000 0.000000 0.000000 0.035035 0.000000 -0.008594
# 5 -0.000961 -0.008973 -0.005913 0.000000 0.030770 0.000000
# 6 0.000000 0.000000 0.000000 -0.008594 0.000000 0.036263
#
#
# Mechanical properties :
#
#
# Convention : Reuss Voigt Hill
#
# Bulk Modulus (GPa) = 27.39410 41.61187 34.50298
# Shear Modulus (GPa) = 31.52552 38.57094 35.04823
#
# Velocity S-wave (km/s) = 3.44565 3.81127 3.63306
# Velocity P-wave (km/s) = 5.11337 5.91935 5.53106
#
# Compressibility (1/GPa) = 0.03650422
#
# Stress axis : x y z
#
# Youngs Moduli (GPa) = 77.85054 52.64601 116.34635
#
# Poissons Ratio (x) = 0.00113 0.01360
# Poissons Ratio (y) = 0.00167 0.21257
# Poissons Ratio (z) = 0.00910 0.09619
#
# Static dielectric constant tensor:
#      x y z
#    x 2.167570 0.000000 0.039460 
#    y 0.000000 2.104730 0.000000 
#    z 0.039460 0.000000 2.117050 
# 
# From -- ./inp_files/298439.got.cif
#   From: 2010.05.17/outbox.cif.g08.bks.cpg/sg15_150_cif.got.tgz:298439.got - 2010.06.03 18:47:42.
