data_PCOD9294081
_publ_section_title
;
Structure prediction by ZEFSAII (Michael W. Deem and Ramdas Pophale) SiO2 
 PCOD9294081
Probable space group: C 2/C
;
_chemical_formula_sum "Si O2"
_cell_formula_units_Z 40
_cell_length_a 18.260377
_cell_length_b 6.734064
_cell_length_c 16.650669
_cell_angle_alpha 90.000000
_cell_angle_beta 101.201320
_cell_angle_gamma 90.000000
_cell_volume 2008.472267
_symmetry_space_group_name_H-M "C 2/C"
_symmetry_group_IT_number 15
_symmetry_cell_setting 'monoclinic'
loop_
_space_group_symop_operation_xyz
x,y,z
-x,y,1/2-z
-x,-y,-z
x,-y,1/2+z
1/2+x,1/2+y,z
1/2-x,1/2+y,1/2-z
1/2-x,1/2-y,-z
1/2+x,1/2-y,1/2+z
loop_
_atom_site_type_symbol
_atom_site_label
_atom_site_fract_x
_atom_site_fract_y
_atom_site_fract_z
Si Si1 0.735866 0.932024 0.559441
Si Si2 0.687827 0.376891 0.166860
Si Si3 0.910102 0.476985 0.562244
Si Si4 0.041265 0.803827 0.030188
Si Si5 0.806522 0.719751 0.156372
O O1 0.750000 0.750000 0.500000
O O2 0.731781 0.815054 0.642118
O O3 0.657811 0.035488 0.517297
O O4 0.792090 0.113423 0.584758
O O5 0.611255 0.359194 0.100708
O O6 0.734984 0.574990 0.155808
O O7 0.676167 0.334593 0.257921
O O8 0.934348 0.700820 0.548303
O O9 0.872662 0.420010 0.638009
O O10 0.981859 0.342400 0.559875
O O11 0.000000 0.000000 0.000000
#
# Coordination Sequence:
#
# PCOD9294081 Si02
#       5
#     8   8   8   8   8
#     4  11  22  38  66  98 124 169 222 269 327 389
#     4  11  24  40  65  98 132 168 216 276 334 398
#     4  10  23  38  66  94 125 173 218 267 321 404
#     4  10  23  43  64  94 129 174 224 269 326 396
#     4  12  23  41  66  98 134 168 217 280 338 391
#
# _framework density 19.915635999999999
#
# number of rings (size 3 to 8) (size 9 to 14) (size 15 to 20)
#    0.000    1.200    4.000    1.800    5.600    0.800 
#    0.000    0.000    4.400    0.000    0.000    0.000 
#    0.000    0.000    0.000    0.000    0.000    0.000 
#
# Total GULP energy -111467.559204 kJ/mol
# GULP energy per Si atom -5573.377960 kJ/mol
# Density = 1.987031 g / cm^3
# Si number density = 19.915636 Si / 1000 Ang^3
#
#
#
# Elastic Constant Matrix: (Units=GPa)
#
#
# Indices 1 2 3 4 5 6 
#
# 1 97.2939 60.4522 29.8011 0.0000 -3.6605 0.0000
# 2 60.4522 124.5428 55.3642 0.0000 6.3035 0.0000
# 3 29.8011 55.3642 78.2983 0.0000 -15.7443 0.0000
# 4 0.0000 0.0000 0.0000 31.0048 0.0000 0.5591
# 5 -3.6605 6.3035 -15.7443 0.0000 24.8971 0.0000
# 6 0.0000 0.0000 0.0000 0.5591 0.0000 42.2563
#
#
#
# Elastic Compliance Matrix: (Units=1/GPa)
#
#
# Indices 1 2 3 4 5 6 
#
# 1 0.015152 -0.007959 0.000818 0.000000 0.004760 0.000000
# 2 -0.007959 0.018186 -0.012592 0.000000 -0.013737 0.000000
# 3 0.000818 -0.012592 0.025238 0.000000 0.019268 0.000000
# 4 0.000000 0.000000 0.000000 0.032261 0.000000 -0.000427
# 5 0.004760 -0.013737 0.019268 0.000000 0.056528 0.000000
# 6 0.000000 0.000000 0.000000 -0.000427 0.000000 0.023671
#
#
# Mechanical properties :
#
#
# Convention : Reuss Voigt Hill
#
# Bulk Modulus (GPa) = 52.32841 65.70777 59.01809
# Shear Modulus (GPa) = 23.05512 29.93281 26.49396
#
# Velocity S-wave (km/s) = 3.40610 3.88103 3.65130
# Velocity P-wave (km/s) = 6.46535 7.29026 6.89016
#
# Compressibility (1/GPa) = 0.01911008
#
# Stress axis : x y z
#
# Youngs Moduli (GPa) = 65.99761 54.98849 39.62222
#
# Poissons Ratio (x) = 0.43767 -0.03242
# Poissons Ratio (y) = 0.52530 0.49892
# Poissons Ratio (z) = -0.05400 0.69241
#
# Static dielectric constant tensor:
#      x y z
#    x 2.697840 0.000000 -0.014790 
#    y 0.000000 1.706250 0.000000 
#    z -0.014790 0.000000 1.719590 
# 
# From -- ./inp_files/208043.got.cif
#   From: 2010.05.17/outbox.cif.g08.bks.cpg/sg15_105_cif.got.tgz:208043.got - 2010.06.03 18:47:42.
