data_PCOD9294890
_publ_section_title
;
Structure prediction by ZEFSAII (Michael W. Deem and Ramdas Pophale) SiO2 
 PCOD9294890
Probable space group: C 2/C
;
_chemical_formula_sum "Si O2"
_cell_formula_units_Z 52
_cell_length_a 18.946029
_cell_length_b 16.601520
_cell_length_c 9.418145
_cell_angle_alpha 90.000000
_cell_angle_beta 54.817451
_cell_angle_gamma 90.000000
_cell_volume 2421.161600
_symmetry_space_group_name_H-M "C 2/C"
_symmetry_group_IT_number 15
_symmetry_cell_setting 'monoclinic'
loop_
_space_group_symop_operation_xyz
x,y,z
-x,y,1/2-z
-x,-y,-z
x,-y,1/2+z
1/2+x,1/2+y,z
1/2-x,1/2+y,1/2-z
1/2-x,1/2-y,-z
1/2+x,1/2-y,1/2+z
loop_
_atom_site_type_symbol
_atom_site_label
_atom_site_fract_x
_atom_site_fract_y
_atom_site_fract_z
Si Si1 0.875208 0.089773 0.306950
Si Si2 0.339272 0.761632 0.317168
Si Si3 0.167118 0.571313 0.547731
Si Si4 0.423597 0.055727 0.145093
Si Si5 0.500000 0.809051 0.750000
Si Si6 0.825511 0.215893 0.010110
Si Si7 0.083299 0.057252 0.560435
O O1 0.895549 0.184503 0.297878
O O2 0.771155 0.076714 0.420383
O O3 0.901460 0.033494 0.406135
O O4 0.918638 0.062486 0.108012
O O5 0.250000 0.750000 0.500000
O O6 0.368746 0.850952 0.323654
O O7 0.314862 0.746548 0.182628
O O8 0.134386 0.574963 0.424295
O O9 0.131004 0.492421 0.671209
O O10 0.470878 0.132713 0.156421
O O11 0.500000 0.000000 0.000000
O O12 0.582767 0.754274 0.632897
O O13 0.750000 0.250000 0.000000
O O14 0.839407 0.119557 0.988894
O O15 0.000000 0.082973 0.750000
#
# Coordination Sequence:
#
# PCOD9294890 Si02
#       7
#     8   8   8   8   4   8   8
#     4  10  23  41  68  94 130 178 232 279 339 410
#     4   9  22  43  65  99 135 175 233 282 336 416
#     4  11  23  42  68 100 141 180 231 280 346 414
#     4  12  24  41  66  99 141 181 217 286 343 412
#     4  12  26  44  68 106 138 174 238 278 350 420
#     4  11  26  44  73  98 137 184 228 286 348 413
#     4  11  23  45  64  96 131 175 229 292 340 401
#
# _framework density 21.477295000000002
#
# number of rings (size 3 to 8) (size 9 to 14) (size 15 to 20)
#    0.000    1.231    2.308    2.308    8.615    2.462 
#    0.000    1.538    0.000    0.000    0.000    0.000 
#    0.000    0.000    0.000    0.000    0.000    0.000 
#
# Total GULP energy -145227.114462 kJ/mol
# GULP energy per Si atom -5585.658249 kJ/mol
# Density = 2.142841 g / cm^3
# Si number density = 21.477295 Si / 1000 Ang^3
#
#
#
# Elastic Constant Matrix: (Units=GPa)
#
#
# Indices 1 2 3 4 5 6 
#
# 1 92.0552 30.6243 23.7740 0.0000 -0.3934 0.0000
# 2 30.6243 96.2448 21.4525 0.0000 18.4820 0.0000
# 3 23.7740 21.4525 100.8366 0.0000 -2.6276 0.0000
# 4 0.0000 0.0000 0.0000 26.5120 0.0000 6.4214
# 5 -0.3934 18.4820 -2.6276 0.0000 33.1114 0.0000
# 6 0.0000 0.0000 0.0000 6.4214 0.0000 24.5725
#
#
#
# Elastic Compliance Matrix: (Units=1/GPa)
#
#
# Indices 1 2 3 4 5 6 
#
# 1 0.012750 -0.004018 -0.002093 0.000000 0.002228 0.000000
# 2 -0.004018 0.013657 -0.002162 0.000000 -0.007842 0.000000
# 3 -0.002093 -0.002162 0.010924 0.000000 0.002049 0.000000
# 4 0.000000 0.000000 0.000000 0.040267 0.000000 -0.010523
# 5 0.002228 -0.007842 0.002049 0.000000 0.034767 0.000000
# 6 0.000000 0.000000 0.000000 -0.010523 0.000000 0.043446
#
#
# Mechanical properties :
#
#
# Convention : Reuss Voigt Hill
#
# Bulk Modulus (GPa) = 48.11607 48.98202 48.54904
# Shear Modulus (GPa) = 27.88836 31.05825 29.47331
#
# Velocity S-wave (km/s) = 3.60739 3.80688 3.70848
# Velocity P-wave (km/s) = 6.30895 6.49454 6.40242
#
# Compressibility (1/GPa) = 0.02078308
#
# Stress axis : x y z
#
# Youngs Moduli (GPa) = 78.43202 73.22426 91.54206
#
# Poissons Ratio (x) = 0.29424 0.19160
# Poissons Ratio (y) = 0.31516 0.19795
# Poissons Ratio (z) = 0.16416 0.15834
#
# Static dielectric constant tensor:
#      x y z
#    x 1.782220 0.000000 -0.052850 
#    y 0.000000 1.829220 0.000000 
#    z -0.052850 0.000000 1.890940 
# 
# From -- ./inp_files/48937.got.cif
#   From: 2010.05.17/outbox.cif.g08.bks.cpg/sg15_25_cif.got.tgz:48937.got - 2010.06.03 18:47:42.
