data_PCOD9294989
_publ_section_title
;
Structure prediction by ZEFSAII (Michael W. Deem and Ramdas Pophale) SiO2 
 PCOD9294989
Probable space group: C 2/C
;
_chemical_formula_sum "Si O2"
_cell_formula_units_Z 20
_cell_length_a 12.258819
_cell_length_b 13.609972
_cell_length_c 5.239947
_cell_angle_alpha 90.000000
_cell_angle_beta 100.227477
_cell_angle_gamma 90.000000
_cell_volume 860.352957
_symmetry_space_group_name_H-M "C 2/C"
_symmetry_group_IT_number 15
_symmetry_cell_setting 'monoclinic'
loop_
_space_group_symop_operation_xyz
x,y,z
-x,y,1/2-z
-x,-y,-z
x,-y,1/2+z
1/2+x,1/2+y,z
1/2-x,1/2+y,1/2-z
1/2-x,1/2-y,-z
1/2+x,1/2-y,1/2+z
loop_
_atom_site_type_symbol
_atom_site_label
_atom_site_fract_x
_atom_site_fract_y
_atom_site_fract_z
Si Si1 0.727213 0.183731 0.745671
Si Si2 0.450605 0.609363 0.970298
Si Si3 0.000000 0.569266 0.750000
O O1 0.750000 0.250000 0.500000
O O2 0.822690 0.102106 0.836907
O O3 0.608235 0.135382 0.738563
O O4 0.750000 0.250000 0.000000
O O5 0.500000 0.667179 0.750000
O O6 0.500000 0.654333 0.250000
O O7 0.500000 0.500000 0.000000
O O8 0.000000 0.500000 0.500000
#
# Coordination Sequence:
#
# PCOD9294989 Si02
#       3
#     8   8   4
#     4  12  28  48  77 111 154 195 255 322 383 445
#     4  10  23  41  73 103 141 188 255 296 366 444
#     4  12  30  52  78 110 160 208 252 310 400 466
#
# _framework density 23.246275000000001
#
# number of rings (size 3 to 8) (size 9 to 14) (size 15 to 20)
#    0.000    0.800    0.000    4.800   19.600    0.000 
#    0.000    0.000    0.000    0.000    0.000    0.000 
#    0.000    0.000    0.000    0.000    0.000    0.000 
#
# Total GULP energy -55724.961919 kJ/mol
# GULP energy per Si atom -5572.496192 kJ/mol
# Density = 2.319337 g / cm^3
# Si number density = 23.246275 Si / 1000 Ang^3
#
#
#
# Elastic Constant Matrix: (Units=GPa)
#
#
# Indices 1 2 3 4 5 6 
#
# 1 257.5247 93.0056 92.6264 0.0000 26.3774 0.0000
# 2 93.0056 123.4111 72.5620 0.0000 15.6480 0.0000
# 3 92.6264 72.5620 278.9247 0.0000 -19.6337 0.0000
# 4 0.0000 0.0000 0.0000 42.8047 0.0000 16.5612
# 5 26.3774 15.6480 -19.6337 0.0000 42.0248 0.0000
# 6 0.0000 0.0000 0.0000 16.5612 0.0000 61.2047
#
#
#
# Elastic Compliance Matrix: (Units=1/GPa)
#
#
# Indices 1 2 3 4 5 6 
#
# 1 0.005840 -0.003240 -0.001313 0.000000 -0.003073 0.000000
# 2 -0.003240 0.012443 -0.002424 0.000000 -0.003732 0.000000
# 3 -0.001313 -0.002424 0.004936 0.000000 0.004032 0.000000
# 4 0.000000 0.000000 0.000000 0.026094 0.000000 -0.007061
# 5 -0.003073 -0.003732 0.004032 0.000000 0.028998 0.000000
# 6 0.000000 0.000000 0.000000 -0.007061 0.000000 0.018249
#
#
# Mechanical properties :
#
#
# Convention : Reuss Voigt Hill
#
# Bulk Modulus (GPa) = 107.92501 130.69427 119.30964
# Shear Modulus (GPa) = 44.01391 55.98461 49.99926
#
# Velocity S-wave (km/s) = 4.35601 4.91279 4.64276
# Velocity P-wave (km/s) = 8.47510 9.40874 8.95410
#
# Compressibility (1/GPa) = 0.00926569
#
# Stress axis : x y z
#
# Youngs Moduli (GPa) = 171.23039 80.36724 202.60977
#
# Poissons Ratio (x) = 0.26037 0.26600
# Poissons Ratio (y) = 0.55473 0.49110
# Poissons Ratio (z) = 0.22481 0.19480
#
# Static dielectric constant tensor:
#      x y z
#    x 1.920020 0.000000 0.065810 
#    y 0.000000 2.378390 0.000000 
#    z 0.065810 0.000000 1.939480 
# 
# From -- ./inp_files/3059.got.cif
#   From: 2010.05.17/outbox.cif.g08.bks.cpg/sg15_2_cif.got.tgz:3059.got - 2010.06.03 18:47:42.
