data_PCOD9294576
_publ_section_title
;
Structure prediction by ZEFSAII (Michael W. Deem and Ramdas Pophale) SiO2 
 PCOD9294576
Probable space group: C 2/C
;
_chemical_formula_sum "Si O2"
_cell_formula_units_Z 56
_cell_length_a 18.537737
_cell_length_b 7.852057
_cell_length_c 26.767358
_cell_angle_alpha 90.000000
_cell_angle_beta 34.329549
_cell_angle_gamma 90.000000
_cell_volume 2197.292233
_symmetry_space_group_name_H-M "C 2/C"
_symmetry_group_IT_number 15
_symmetry_cell_setting 'monoclinic'
loop_
_space_group_symop_operation_xyz
x,y,z
-x,y,1/2-z
-x,-y,-z
x,-y,1/2+z
1/2+x,1/2+y,z
1/2-x,1/2+y,1/2-z
1/2-x,1/2-y,-z
1/2+x,1/2-y,1/2+z
loop_
_atom_site_type_symbol
_atom_site_label
_atom_site_fract_x
_atom_site_fract_y
_atom_site_fract_z
Si Si1 0.932854 0.686035 0.929414
Si Si2 0.679992 0.007045 0.298249
Si Si3 0.596379 0.317618 0.156576
Si Si4 0.109106 0.886041 0.960595
Si Si5 0.311363 0.987713 0.093095
Si Si6 0.057146 0.153108 0.848637
Si Si7 0.767198 0.519472 0.939477
O O1 0.873862 0.610055 0.911980
O O2 0.084458 0.652373 0.843080
O O3 0.889540 0.583568 0.004841
O O4 0.860266 0.867267 0.974565
O O5 0.684066 0.067905 0.354548
O O6 0.824730 0.962130 0.202327
O O7 0.619082 0.162716 0.303279
O O8 0.500000 0.227891 0.250000
O O9 0.677098 0.453423 0.142091
O O10 0.511158 0.402079 0.162885
O O11 0.689381 0.178419 0.078609
O O12 0.048301 0.829757 0.048576
O O13 0.142739 0.704230 0.919327
O O14 0.235433 0.999952 0.898361
O O15 0.000000 0.000000 0.000000
#
# Coordination Sequence:
#
# PCOD9294576 Si02
#       7
#     8   8   8   8   8   8   8
#     4  11  22  43  66 100 134 176 227 288 340 401
#     4  12  26  43  68  98 139 178 218 289 338 418
#     4  11  22  47  69  97 135 183 229 284 346 425
#     4  11  24  42  71  98 133 182 237 281 335 426
#     4  11  23  43  70  96 132 179 227 277 344 404
#     4  12  27  45  68 101 138 181 225 285 355 403
#     4  10  23  40  70  96 131 177 228 284 336 409
#
# _framework density 25.485914999999999
#
# number of rings (size 3 to 8) (size 9 to 14) (size 15 to 20)
#    0.000    0.857    4.286    2.143    6.000    2.286 
#    0.000    0.714    0.000    0.000    0.000    0.000 
#    0.000    0.000    0.000    0.000    0.000    0.000 
#
# Total GULP energy -156181.264303 kJ/mol
# GULP energy per Si atom -5577.902297 kJ/mol
# Density = 2.542791 g / cm^3
# Si number density = 25.485915 Si / 1000 Ang^3
#
#
#
# Elastic Constant Matrix: (Units=GPa)
#
#
# Indices 1 2 3 4 5 6 
#
# 1 141.4138 17.6801 12.1098 -0.0002 -25.1647 0.0041
# 2 17.6801 56.8789 24.1694 -0.0013 -3.0886 0.0032
# 3 12.1098 24.1694 63.0494 0.0001 -12.5906 -0.0006
# 4 -0.0002 -0.0013 0.0001 29.0826 0.0000 -4.0593
# 5 -25.1647 -3.0886 -12.5906 0.0000 34.6357 -0.0006
# 6 0.0041 0.0032 -0.0006 -4.0593 -0.0006 26.3507
#
#
#
# Elastic Compliance Matrix: (Units=1/GPa)
#
#
# Indices 1 2 3 4 5 6 
#
# 1 0.008425 -0.002530 0.000570 0.000000 0.006103 -0.000001
# 2 -0.002530 0.021803 -0.008466 0.000001 -0.002971 -0.000002
# 3 0.000570 -0.008466 0.020410 0.000000 0.007079 0.000001
# 4 0.000000 0.000001 0.000000 0.035140 0.000000 0.005413
# 5 0.006103 -0.002971 0.007079 0.000000 0.035614 0.000000
# 6 -0.000001 -0.000002 0.000001 0.005413 0.000000 0.038783
#
#
# Mechanical properties :
#
#
# Convention : Reuss Voigt Hill
#
# Bulk Modulus (GPa) = 33.57038 41.02898 37.29968
# Shear Modulus (GPa) = 26.18407 31.83932 29.01169
#
# Velocity S-wave (km/s) = 3.20878 3.53837 3.37759
# Velocity P-wave (km/s) = 5.18932 5.72949 5.46608
#
# Compressibility (1/GPa) = 0.02978817
#
# Stress axis : x y z
#
# Youngs Moduli (GPa) = 118.69585 45.86424 48.99599
#
# Poissons Ratio (x) = 0.11602 -0.02794
# Poissons Ratio (y) = 0.30027 0.41478
# Poissons Ratio (z) = -0.06769 0.38827
#
# Static dielectric constant tensor:
#      x y z
#    x 2.044890 0.000000 -0.032350 
#    y 0.000000 2.043250 0.000000 
#    z -0.032350 0.000000 2.066330 
# 
# From -- ./inp_files/298490.got.cif
#   From: 2010.05.17/outbox.cif.g08.bks.cpg/sg15_150_cif.got.tgz:298490.got - 2010.06.03 18:47:42.
