data_PCOD9294734
_publ_section_title
;
Structure prediction by ZEFSAII (Michael W. Deem and Ramdas Pophale) SiO2 
 PCOD9294734
Probable space group: C 2/C
;
_chemical_formula_sum "Si O2"
_cell_formula_units_Z 24
_cell_length_a 17.219630
_cell_length_b 6.400056
_cell_length_c 17.472717
_cell_angle_alpha 90.000000
_cell_angle_beta 34.147490
_cell_angle_gamma 90.000000
_cell_volume 1080.892566
_symmetry_space_group_name_H-M "C 2/C"
_symmetry_group_IT_number 15
_symmetry_cell_setting 'monoclinic'
loop_
_space_group_symop_operation_xyz
x,y,z
-x,y,1/2-z
-x,-y,-z
x,-y,1/2+z
1/2+x,1/2+y,z
1/2-x,1/2+y,1/2-z
1/2-x,1/2-y,-z
1/2+x,1/2-y,1/2+z
loop_
_atom_site_type_symbol
_atom_site_label
_atom_site_fract_x
_atom_site_fract_y
_atom_site_fract_z
Si Si1 0.527295 0.810242 0.037531
Si Si2 0.824150 0.086843 0.103724
Si Si3 0.990465 0.666245 0.168581
O O1 0.400140 0.658522 0.119548
O O2 0.533320 0.927645 0.112923
O O3 0.658784 0.662378 0.917296
O O4 0.500000 0.000000 0.000000
O O5 0.669875 0.171849 0.225450
O O6 0.911943 0.185015 0.961646
O O7 0.000000 0.711897 0.250000
#
# Coordination Sequence:
#
# PCOD9294734 Si02
#       3
#     8   8   8
#     4   9  22  39  62  91 123 171 217 258 310 378
#     4  10  23  41  65  92 130 170 215 264 315 384
#     4  11  24  40  65  98 132 167 211 264 325 377
#
# _framework density 22.203869999999998
#
# number of rings (size 3 to 8) (size 9 to 14) (size 15 to 20)
#    0.000    2.000    0.000    1.000   14.000    5.333 
#    0.000    0.000    0.000    0.000    0.000    0.000 
#    0.000    0.000    0.000    0.000    0.000    0.000 
#
# Total GULP energy -66971.828429 kJ/mol
# GULP energy per Si atom -5580.985702 kJ/mol
# Density = 2.215333 g / cm^3
# Si number density = 22.203870 Si / 1000 Ang^3
#
#
#
# Elastic Constant Matrix: (Units=GPa)
#
#
# Indices 1 2 3 4 5 6 
#
# 1 34.5798 5.3067 19.5567 0.0000 12.4384 0.0000
# 2 5.3067 102.0189 44.5219 -0.0006 11.5406 0.0004
# 3 19.5567 44.5219 136.7486 0.0000 3.0167 0.0002
# 4 0.0000 -0.0006 0.0000 33.4686 0.0001 10.3131
# 5 12.4384 11.5406 3.0167 0.0001 36.5932 -0.0001
# 6 0.0000 0.0004 0.0002 10.3131 -0.0001 19.1966
#
#
#
# Elastic Compliance Matrix: (Units=1/GPa)
#
#
# Indices 1 2 3 4 5 6 
#
# 1 0.036241 0.001944 -0.005541 0.000000 -0.012475 0.000000
# 2 0.001944 0.011943 -0.004076 0.000000 -0.004091 0.000000
# 3 -0.005541 -0.004076 0.009379 0.000000 0.002396 0.000000
# 4 0.000000 0.000000 0.000000 0.035806 0.000000 -0.019236
# 5 -0.012475 -0.004091 0.002396 0.000000 0.032661 0.000000
# 6 0.000000 0.000000 0.000000 -0.019236 0.000000 0.062427
#
#
# Mechanical properties :
#
#
# Convention : Reuss Voigt Hill
#
# Bulk Modulus (GPa) = 23.68666 45.79085 34.73876
# Shear Modulus (GPa) = 22.94895 31.44914 27.19905
#
# Velocity S-wave (km/s) = 3.21839 3.76757 3.50375
# Velocity P-wave (km/s) = 4.94991 6.29236 5.66107
#
# Compressibility (1/GPa) = 0.04221786
#
# Stress axis : x y z
#
# Youngs Moduli (GPa) = 27.59294 83.73408 106.61832
#
# Poissons Ratio (x) = -0.16278 0.59073
# Poissons Ratio (y) = -0.05364 0.43457
# Poissons Ratio (z) = 0.15288 0.34130
#
# Static dielectric constant tensor:
#      x y z
#    x 1.812860 0.000000 0.016180 
#    y 0.000000 1.896000 0.000000 
#    z 0.016180 0.000000 1.870840 
# 
# From -- ./inp_files/101913.got.cif
#   From: 2010.05.17/outbox.cif.g08.bks.cpg/sg15_51_cif.got.tgz:101913.got - 2010.06.03 18:47:42.
