data_PCOD9294810
_publ_section_title
;
Structure prediction by ZEFSAII (Michael W. Deem and Ramdas Pophale) SiO2 
 PCOD9294810
Probable space group: C 2/C
;
_chemical_formula_sum "Si O2"
_cell_formula_units_Z 56
_cell_length_a 18.109074
_cell_length_b 12.525327
_cell_length_c 14.251707
_cell_angle_alpha 90.000000
_cell_angle_beta 129.314884
_cell_angle_gamma 90.000000
_cell_volume 2500.985238
_symmetry_space_group_name_H-M "C 2/C"
_symmetry_group_IT_number 15
_symmetry_cell_setting 'monoclinic'
loop_
_space_group_symop_operation_xyz
x,y,z
-x,y,1/2-z
-x,-y,-z
x,-y,1/2+z
1/2+x,1/2+y,z
1/2-x,1/2+y,1/2-z
1/2-x,1/2-y,-z
1/2+x,1/2-y,1/2+z
loop_
_atom_site_type_symbol
_atom_site_label
_atom_site_fract_x
_atom_site_fract_y
_atom_site_fract_z
Si Si1 0.631127 0.778127 0.311717
Si Si2 0.560576 0.098592 0.083723
Si Si3 0.840510 0.763764 0.451724
Si Si4 0.015423 0.889040 0.598392
Si Si5 0.120279 0.063447 0.994879
Si Si6 0.923225 0.290268 0.606261
Si Si7 0.835791 0.518832 0.148341
O O1 0.731173 0.776927 0.336234
O O2 0.650294 0.726707 0.428694
O O3 0.556006 0.705737 0.195963
O O4 0.612968 0.903423 0.315689
O O5 0.623166 0.149024 0.052352
O O6 0.482305 0.180454 0.061014
O O7 0.628420 0.068240 0.224819
O O8 0.500000 0.000000 0.000000
O O9 0.917749 0.844913 0.472025
O O10 0.093362 0.917862 0.582877
O O11 0.971101 0.993726 0.612964
O O12 0.129809 0.179790 0.955355
O O13 0.221468 0.006400 0.058953
O O14 0.865351 0.395380 0.592793
O O15 0.000000 0.271825 0.750000
#
# Coordination Sequence:
#
# PCOD9294810 Si02
#       7
#     8   8   8   8   8   8   8
#     4  11  24  41  66 100 133 180 228 285 344 402
#     4  11  22  40  66  95 130 179 228 280 341 404
#     4  11  22  42  64  93 135 169 232 278 337 409
#     4  11  23  42  70  96 137 180 223 285 337 407
#     4  11  23  44  68 101 140 180 228 278 347 414
#     4  10  23  41  66  99 133 179 226 277 346 413
#     4  11  23  42  67 101 137 176 229 286 340 416
#
# _framework density 22.391175
#
# number of rings (size 3 to 8) (size 9 to 14) (size 15 to 20)
#    0.000    1.143    2.857    3.429    0.000    3.429 
#    0.000    0.000    3.143    0.000    0.000    0.000 
#    0.000    0.000    0.000    0.000    0.000    0.000 
#
# Total GULP energy -156388.566533 kJ/mol
# GULP energy per Si atom -5585.305948 kJ/mol
# Density = 2.234021 g / cm^3
# Si number density = 22.391175 Si / 1000 Ang^3
#
#
#
# Elastic Constant Matrix: (Units=GPa)
#
#
# Indices 1 2 3 4 5 6 
#
# 1 102.6375 36.0957 30.3959 0.0000 14.1798 0.0000
# 2 36.0957 145.4441 28.9550 0.0000 5.9417 0.0000
# 3 30.3959 28.9550 43.1959 0.0000 8.8178 0.0000
# 4 0.0000 0.0000 0.0000 37.0574 0.0000 4.5951
# 5 14.1798 5.9417 8.8178 0.0000 28.3473 0.0000
# 6 0.0000 0.0000 0.0000 4.5951 0.0000 43.1602
#
#
#
# Elastic Compliance Matrix: (Units=1/GPa)
#
#
# Indices 1 2 3 4 5 6 
#
# 1 0.013005 -0.001621 -0.007267 0.000000 -0.003905 0.000000
# 2 -0.001621 0.008136 -0.004411 0.000000 0.000478 0.000000
# 3 -0.007267 -0.004411 0.032344 0.000000 -0.005501 0.000000
# 4 0.000000 0.000000 0.000000 0.027346 0.000000 -0.002911
# 5 -0.003905 0.000478 -0.005501 0.000000 0.038841 0.000000
# 6 0.000000 0.000000 0.000000 -0.002911 0.000000 0.023479
#
#
# Mechanical properties :
#
#
# Convention : Reuss Voigt Hill
#
# Bulk Modulus (GPa) = 37.19328 53.57450 45.38389
# Shear Modulus (GPa) = 27.97792 34.76839 31.37316
#
# Velocity S-wave (km/s) = 3.53867 3.94480 3.74724
# Velocity P-wave (km/s) = 5.77434 6.68783 6.24781
#
# Compressibility (1/GPa) = 0.02688658
#
# Stress axis : x y z
#
# Youngs Moduli (GPa) = 76.89441 122.90450 30.91786
#
# Poissons Ratio (x) = 0.19925 0.22469
# Poissons Ratio (y) = 0.12466 0.13637
# Poissons Ratio (z) = 0.55882 0.54209
#
# Static dielectric constant tensor:
#      x y z
#    x 1.810910 0.000000 -0.060320 
#    y 0.000000 1.947050 0.000000 
#    z -0.060320 0.000000 1.719050 
# 
# From -- ./inp_files/161434.got.cif
#   From: 2010.05.17/outbox.cif.g08.bks.cpg/sg15_81_cif.got.tgz:161434.got - 2010.06.03 18:47:42.
