data_PCOD9294636
_publ_section_title
;
Structure prediction by ZEFSAII (Michael W. Deem and Ramdas Pophale) SiO2 
 PCOD9294636
Probable space group: C 2/C
;
_chemical_formula_sum "Si O2"
_cell_formula_units_Z 56
_cell_length_a 8.682167
_cell_length_b 24.127580
_cell_length_c 14.453609
_cell_angle_alpha 90.000000
_cell_angle_beta 65.701036
_cell_angle_gamma 90.000000
_cell_volume 2759.512290
_symmetry_space_group_name_H-M "C 2/C"
_symmetry_group_IT_number 15
_symmetry_cell_setting 'monoclinic'
loop_
_space_group_symop_operation_xyz
x,y,z
-x,y,1/2-z
-x,-y,-z
x,-y,1/2+z
1/2+x,1/2+y,z
1/2-x,1/2+y,1/2-z
1/2-x,1/2-y,-z
1/2+x,1/2-y,1/2+z
loop_
_atom_site_type_symbol
_atom_site_label
_atom_site_fract_x
_atom_site_fract_y
_atom_site_fract_z
Si Si1 0.844416 0.376153 0.226658
Si Si2 0.914826 0.318211 0.670221
Si Si3 0.823858 0.966388 0.544128
Si Si4 0.221038 0.357300 0.468368
Si Si5 0.048470 0.804799 0.346693
Si Si6 0.314909 0.420076 0.755869
Si Si7 0.461251 0.000156 0.159990
O O1 0.832585 0.353691 0.125503
O O2 0.677507 0.356064 0.321514
O O3 0.000000 0.356085 0.250000
O O4 0.874693 0.441572 0.203282
O O5 0.875961 0.255244 0.650071
O O6 0.755018 0.358224 0.715267
O O7 0.000000 0.316423 0.750000
O O8 0.058526 0.344330 0.569415
O O9 0.798052 0.917435 0.475610
O O10 0.821212 0.937728 0.646381
O O11 0.650293 0.002547 0.572731
O O12 0.000000 0.000000 0.500000
O O13 0.376331 0.315219 0.444646
O O14 0.000000 0.804211 0.250000
O O15 0.500000 0.427144 0.750000
O O16 0.180871 0.459360 0.843943
O O17 0.500000 0.027233 0.250000
#
# Coordination Sequence:
#
# PCOD9294636 Si02
#       7
#     8   8   8   8   8   8   8
#     4  10  23  41  62  91 130 163 210 263 323 374
#     4  11  20  44  64  88 128 166 216 265 321 384
#     4  11  24  39  63  98 126 165 217 255 314 388
#     4  11  22  40  66  94 122 168 219 256 322 381
#     4   9  22  39  66  91 119 169 216 268 315 377
#     4  11  23  39  61  90 129 171 205 260 321 378
#     4   9  20  40  59  83 126 167 198 252 318 375
#
# _framework density 20.293441999999999
#
# number of rings (size 3 to 8) (size 9 to 14) (size 15 to 20)
#    0.000    1.714    2.857    0.857    8.000    2.857 
#    0.000    0.714    0.000    0.000    0.000    0.000 
#    0.000    0.000    0.000    0.000    0.000    0.000 
#
# Total GULP energy -156049.772626 kJ/mol
# GULP energy per Si atom -5573.206165 kJ/mol
# Density = 2.024725 g / cm^3
# Si number density = 20.293442 Si / 1000 Ang^3
#
#
#
# Elastic Constant Matrix: (Units=GPa)
#
#
# Indices 1 2 3 4 5 6 
#
# 1 121.5192 52.6751 35.0034 0.0000 -22.3365 0.0000
# 2 52.6751 105.9253 18.0667 0.0000 -28.9612 0.0000
# 3 35.0034 18.0667 72.5301 0.0000 -10.0639 0.0000
# 4 0.0000 0.0000 0.0000 18.2329 0.0000 -10.2398
# 5 -22.3365 -28.9612 -10.0639 0.0000 36.4822 0.0000
# 6 0.0000 0.0000 0.0000 -10.2398 0.0000 30.8650
#
#
#
# Elastic Compliance Matrix: (Units=1/GPa)
#
#
# Indices 1 2 3 4 5 6 
#
# 1 0.011863 -0.004481 -0.004258 0.000000 0.002532 0.000000
# 2 -0.004481 0.013966 -0.000165 0.000000 0.008298 0.000000
# 3 -0.004258 -0.000165 0.016120 0.000000 0.001709 0.000000
# 4 0.000000 0.000000 0.000000 0.067405 0.000000 0.022362
# 5 0.002532 0.008298 0.001709 0.000000 0.036019 0.000000
# 6 0.000000 0.000000 0.000000 0.022362 0.000000 0.039818
#
#
# Mechanical properties :
#
#
# Convention : Reuss Voigt Hill
#
# Bulk Modulus (GPa) = 41.42151 56.82943 49.12547
# Shear Modulus (GPa) = 23.69147 30.06465 26.87806
#
# Velocity S-wave (km/s) = 3.42050 3.85320 3.64328
# Velocity P-wave (km/s) = 6.00461 6.91815 6.47750
#
# Compressibility (1/GPa) = 0.02414205
#
# Stress axis : x y z
#
# Youngs Moduli (GPa) = 84.29303 71.60362 62.03294
#
# Poissons Ratio (x) = 0.32086 0.26413
# Poissons Ratio (y) = 0.37773 0.01022
# Poissons Ratio (z) = 0.35891 0.01180
#
# Static dielectric constant tensor:
#      x y z
#    x 1.739760 0.000000 -0.014360 
#    y 0.000000 1.757710 0.000000 
#    z -0.014360 0.000000 1.759600 
# 
# From -- ./inp_files/137698.got.cif
#   From: 2010.05.17/outbox.cif.g08.bks.cpg/sg15_69_cif.got.tgz:137698.got - 2010.06.03 18:47:42.
