data_PCOD9294203
_publ_section_title
;
Structure prediction by ZEFSAII (Michael W. Deem and Ramdas Pophale) SiO2 
 PCOD9294203
Probable space group: C 2/C
;
_chemical_formula_sum "Si O2"
_cell_formula_units_Z 60
_cell_length_a 7.827485
_cell_length_b 23.679421
_cell_length_c 19.880410
_cell_angle_alpha 90.000000
_cell_angle_beta 43.984551
_cell_angle_gamma 90.000000
_cell_volume 2558.990291
_symmetry_space_group_name_H-M "C 2/C"
_symmetry_group_IT_number 15
_symmetry_cell_setting 'monoclinic'
loop_
_space_group_symop_operation_xyz
x,y,z
-x,y,1/2-z
-x,-y,-z
x,-y,1/2+z
1/2+x,1/2+y,z
1/2-x,1/2+y,1/2-z
1/2-x,1/2-y,-z
1/2+x,1/2-y,1/2+z
loop_
_atom_site_type_symbol
_atom_site_label
_atom_site_fract_x
_atom_site_fract_y
_atom_site_fract_z
Si Si1 0.000000 0.105192 0.250000
Si Si2 0.122245 0.322474 0.032265
Si Si3 0.726645 0.576815 0.800657
Si Si4 0.076563 0.694152 0.339067
Si Si5 0.575807 0.063366 0.902823
Si Si6 0.227846 0.193258 0.855752
Si Si7 0.135389 0.206216 0.378003
Si Si8 0.109872 0.979322 0.595850
O O1 0.248056 0.143612 0.185280
O O2 0.018112 0.065824 0.177699
O O3 0.211249 0.323918 0.085051
O O4 0.947165 0.373352 0.063858
O O5 0.972611 0.265322 0.066026
O O6 0.388499 0.324854 0.922761
O O7 0.773764 0.565906 0.708688
O O8 0.616047 0.638428 0.849636
O O9 0.602643 0.521641 0.867665
O O10 0.000000 0.582346 0.750000
O O11 0.079446 0.748746 0.386508
O O12 0.207130 0.715143 0.233342
O O13 0.803945 0.678648 0.388502
O O14 0.720803 0.022378 0.909992
O O15 0.287505 0.044854 0.987240
O O16 0.500000 0.206199 0.750000
#
# Coordination Sequence:
#
# PCOD9294203 Si02
#       8
#     4   8   8   8   8   8   8   8
#     4  12  22  46  64  90 146 172 224 272 326 398
#     4  11  21  42  65  95 137 163 216 283 326 396
#     4  11  22  44  68  97 130 166 221 282 327 392
#     4  11  22  41  66  95 130 180 214 265 336 401
#     4  11  22  44  66  92 129 175 221 268 334 387
#     4  11  20  39  65  95 127 169 207 273 333 383
#     4  10  23  39  64 101 128 170 221 267 338 391
#     4  11  26  43  66  96 127 182 226 266 331 400
#
# _framework density 23.446746999999998
#
# number of rings (size 3 to 8) (size 9 to 14) (size 15 to 20)
#    0.000    1.067    6.000    0.800    1.867    2.133 
#    9.600    0.000    0.000    0.000    0.000    0.000 
#    0.000    0.000    0.000    0.000    0.000    0.000 
#
# Total GULP energy -167502.151949 kJ/mol
# GULP energy per Si atom -5583.405065 kJ/mol
# Density = 2.339338 g / cm^3
# Si number density = 23.446747 Si / 1000 Ang^3
#
#
#
# Elastic Constant Matrix: (Units=GPa)
#
#
# Indices 1 2 3 4 5 6 
#
# 1 71.9050 27.8860 9.5265 0.0001 -7.0152 0.0000
# 2 27.8860 119.0497 3.1306 0.0000 -1.7044 0.0000
# 3 9.5265 3.1306 64.1755 0.0002 7.0698 -0.0002
# 4 0.0001 0.0000 0.0002 35.1445 -0.0001 -13.5353
# 5 -7.0152 -1.7044 7.0698 -0.0001 32.1198 0.0001
# 6 0.0000 0.0000 -0.0002 -13.5353 0.0001 48.5009
#
#
#
# Elastic Compliance Matrix: (Units=1/GPa)
#
#
# Indices 1 2 3 4 5 6 
#
# 1 0.016045 -0.003633 -0.002633 0.000000 0.003891 0.000000
# 2 -0.003633 0.009243 0.000125 0.000000 -0.000331 0.000000
# 3 -0.002633 0.000125 0.016428 0.000000 -0.004184 0.000000
# 4 0.000000 0.000000 0.000000 0.031881 0.000000 0.008897
# 5 0.003891 -0.000331 -0.004184 0.000000 0.032887 0.000000
# 6 0.000000 0.000000 0.000000 0.008897 0.000000 0.023101
#
#
# Mechanical properties :
#
#
# Convention : Reuss Voigt Hill
#
# Bulk Modulus (GPa) = 33.97613 37.35738 35.66676
# Shear Modulus (GPa) = 32.96453 37.45885 35.21169
#
# Velocity S-wave (km/s) = 3.75364 4.00135 3.87948
# Velocity P-wave (km/s) = 5.77137 6.10862 5.94239
#
# Compressibility (1/GPa) = 0.02943243
#
# Stress axis : x y z
#
# Youngs Moduli (GPa) = 62.32552 108.19106 60.87163
#
# Poissons Ratio (x) = 0.39310 0.16029
# Poissons Ratio (y) = 0.22645 -0.00760
# Poissons Ratio (z) = 0.16411 -0.01351
#
# Static dielectric constant tensor:
#      x y z
#    x 2.427930 0.000000 0.476340 
#    y 0.000000 1.947430 0.000000 
#    z 0.476340 0.000000 2.447920 
# 
# From -- ./inp_files/234531.got.cif
#   From: 2010.05.17/outbox.cif.g08.bks.cpg/sg15_118_cif.got.tgz:234531.got - 2010.06.03 18:47:42.
