data_PCOD9294553
_publ_section_title
;
Structure prediction by ZEFSAII (Michael W. Deem and Ramdas Pophale) SiO2 
 PCOD9294553
Probable space group: C 2/C
;
_chemical_formula_sum "Si O2"
_cell_formula_units_Z 44
_cell_length_a 22.339960
_cell_length_b 19.615937
_cell_length_c 5.481762
_cell_angle_alpha 90.000000
_cell_angle_beta 60.705989
_cell_angle_gamma 90.000000
_cell_volume 2095.019556
_symmetry_space_group_name_H-M "C 2/C"
_symmetry_group_IT_number 15
_symmetry_cell_setting 'monoclinic'
loop_
_space_group_symop_operation_xyz
x,y,z
-x,y,1/2-z
-x,-y,-z
x,-y,1/2+z
1/2+x,1/2+y,z
1/2-x,1/2+y,1/2-z
1/2-x,1/2-y,-z
1/2+x,1/2-y,1/2+z
loop_
_atom_site_type_symbol
_atom_site_label
_atom_site_fract_x
_atom_site_fract_y
_atom_site_fract_z
Si Si1 0.500000 0.456061 0.250000
Si Si2 0.262828 0.849198 0.564582
Si Si3 0.000000 0.727032 0.250000
Si Si4 0.870777 0.457387 0.486655
Si Si5 0.610483 0.661366 0.590651
Si Si6 0.000000 0.642177 0.750000
Si Si7 0.799596 0.214013 0.707908
O O1 0.500000 0.500000 0.500000
O O2 0.434024 0.406155 0.358748
O O3 0.302582 0.912293 0.591386
O O4 0.246011 0.846783 0.312178
O O5 0.306881 0.779567 0.517209
O O6 0.185565 0.845338 0.823478
O O7 0.934811 0.776534 0.417591
O O8 0.009169 0.684503 0.480670
O O9 0.873573 0.494172 0.743071
O O10 0.934279 0.405799 0.346326
O O11 0.630711 0.683410 0.826384
O O12 0.750000 0.250000 0.000000
#
# Coordination Sequence:
#
# PCOD9294553 Si02
#       7
#     4   8   4   8   8   4   8
#     4  11  28  47  66  93 134 191 228 266 322 395
#     4  10  23  40  69 100 137 169 218 282 341 397
#     4  11  26  41  74 105 130 175 224 280 354 391
#     4  12  28  46  69  98 137 186 231 267 327 402
#     4  10  24  42  68 100 137 167 224 283 334 405
#     4  12  26  48  72  96 138 178 228 280 334 396
#     4   9  20  38  66  99 134 163 212 280 352 385
#
# _framework density 21.002189999999999
#
# number of rings (size 3 to 8) (size 9 to 14) (size 15 to 20)
#    0.000    1.455    0.000    2.727   17.818    2.909 
#    0.000    0.000    0.000    0.000    0.000    0.000 
#    0.000    0.000    0.000    0.000    0.000    0.000 
#
# Total GULP energy -122710.215178 kJ/mol
# GULP energy per Si atom -5577.737054 kJ/mol
# Density = 2.095439 g / cm^3
# Si number density = 21.002190 Si / 1000 Ang^3
#
#
#
# Elastic Constant Matrix: (Units=GPa)
#
#
# Indices 1 2 3 4 5 6 
#
# 1 149.8249 81.9145 51.9245 0.0000 -1.2239 0.0000
# 2 81.9145 120.6451 55.2828 0.0000 0.6881 0.0000
# 3 51.9245 55.2828 92.2783 0.0000 -1.3005 0.0000
# 4 0.0000 0.0000 0.0000 22.4915 0.0000 -22.2916
# 5 -1.2239 0.6881 -1.3005 0.0000 46.5996 0.0000
# 6 0.0000 0.0000 0.0000 -22.2916 0.0000 191.1579
#
#
#
# Elastic Compliance Matrix: (Units=1/GPa)
#
#
# Indices 1 2 3 4 5 6 
#
# 1 0.010980 -0.006379 -0.002352 0.000000 0.000317 0.000000
# 2 -0.006379 0.015137 -0.005487 0.000000 -0.000544 0.000000
# 3 -0.002352 -0.005487 0.015454 0.000000 0.000451 0.000000
# 4 0.000000 0.000000 0.000000 0.050271 0.000000 0.005862
# 5 0.000317 -0.000544 0.000451 0.000000 0.021488 0.000000
# 6 0.000000 0.000000 0.000000 0.005862 0.000000 0.005915
#
#
# Mechanical properties :
#
#
# Convention : Reuss Voigt Hill
#
# Bulk Modulus (GPa) = 76.13341 82.33244 79.23293
# Shear Modulus (GPa) = 32.88182 63.62490 48.25336
#
# Velocity S-wave (km/s) = 3.96111 5.51001 4.79847
# Velocity P-wave (km/s) = 7.56633 8.93125 8.27697
#
# Compressibility (1/GPa) = 0.01313484
#
# Stress axis : x y z
#
# Youngs Moduli (GPa) = 91.07586 66.06260 64.70890
#
# Poissons Ratio (x) = 0.42141 0.15222
# Poissons Ratio (y) = 0.58097 0.35504
# Poissons Ratio (z) = 0.21424 0.36247
#
# Static dielectric constant tensor:
#      x y z
#    x 1.591800 0.000000 -0.178440 
#    y 0.000000 1.763900 0.000000 
#    z -0.178440 0.000000 1.506180 
# 
# From -- ./inp_files/12964.got.cif
#   From: 2010.05.17/outbox.cif.g08.bks.cpg/sg15_7_cif.got.tgz:12964.got - 2010.06.03 18:47:42.
