data_PCOD9294606
_publ_section_title
;
Structure prediction by ZEFSAII (Michael W. Deem and Ramdas Pophale) SiO2 
 PCOD9294606
Probable space group: C 2/C
;
_chemical_formula_sum "Si O2"
_cell_formula_units_Z 64
_cell_length_a 8.814798
_cell_length_b 20.883177
_cell_length_c 22.516433
_cell_angle_alpha 90.000000
_cell_angle_beta 122.301019
_cell_angle_gamma 90.000000
_cell_volume 3503.441758
_symmetry_space_group_name_H-M "C 2/C"
_symmetry_group_IT_number 15
_symmetry_cell_setting 'monoclinic'
loop_
_space_group_symop_operation_xyz
x,y,z
-x,y,1/2-z
-x,-y,-z
x,-y,1/2+z
1/2+x,1/2+y,z
1/2-x,1/2+y,1/2-z
1/2-x,1/2-y,-z
1/2+x,1/2-y,1/2+z
loop_
_atom_site_type_symbol
_atom_site_label
_atom_site_fract_x
_atom_site_fract_y
_atom_site_fract_z
Si Si1 0.268644 0.692366 0.049155
Si Si2 0.503790 0.617965 0.681458
Si Si3 0.602103 0.805051 0.954648
Si Si4 0.457720 0.237930 0.301422
Si Si5 0.640333 0.112111 0.826007
Si Si6 0.462665 0.253114 0.804559
Si Si7 0.792332 0.433865 0.463140
Si Si8 0.162524 0.564743 0.965109
O O1 0.446547 0.706212 0.124780
O O2 0.084483 0.698617 0.048007
O O3 0.250000 0.750000 0.000000
O O4 0.268816 0.624482 0.016018
O O5 0.500000 0.597296 0.750000
O O6 0.446272 0.692772 0.672835
O O7 0.681329 0.617661 0.676983
O O8 0.367183 0.575927 0.615944
O O9 0.527959 0.799685 0.872449
O O10 0.750000 0.750000 0.000000
O O11 0.690013 0.872218 0.990873
O O12 0.500000 0.201387 0.250000
O O13 0.249743 0.255544 0.245601
O O14 0.500000 0.082001 0.750000
O O15 0.562594 0.183687 0.825102
O O16 0.656477 0.076394 0.892723
O O17 0.500000 0.287324 0.750000
O O18 0.766027 0.496377 0.497978
O O19 0.968027 0.434475 0.457206
#
# Coordination Sequence:
#
# PCOD9294606 Si02
#       8
#     8   8   8   8   8   8   8   8
#     4  11  22  35  62  90 118 153 201 250 303 354
#     4  11  21  35  60  89 118 154 199 247 301 360
#     4  11  22  37  59  91 120 154 197 251 305 356
#     4  11  23  36  58  91 122 155 197 251 315 360
#     4  11  20  35  61  89 117 152 201 249 298 359
#     4  11  20  37  57  89 124 150 198 258 302 360
#     4  10  23  41  61  84 127 162 201 249 298 362
#     4  10  23  41  60  88 121 165 204 243 302 357
#
# _framework density 18.267752000000002
#
# number of rings (size 3 to 8) (size 9 to 14) (size 15 to 20)
#    0.000    1.250    6.250    0.750    3.500    0.500 
#    0.000    1.250    2.750    0.000    0.000    0.000 
#    0.000    0.000    0.000    0.000    0.000    0.000 
#
# Total GULP energy -178156.919015 kJ/mol
# GULP energy per Si atom -5567.403719 kJ/mol
# Density = 1.822617 g / cm^3
# Si number density = 18.267752 Si / 1000 Ang^3
#
#
#
# Elastic Constant Matrix: (Units=GPa)
#
#
# Indices 1 2 3 4 5 6 
#
# 1 44.9801 31.4904 50.2045 0.0000 -14.1329 0.0000
# 2 31.4904 109.3049 85.2620 0.0000 -10.8670 0.0000
# 3 50.2045 85.2620 200.4177 0.0000 -23.1577 0.0000
# 4 0.0000 0.0000 0.0000 26.4517 0.0000 -1.9882
# 5 -14.1329 -10.8670 -23.1577 0.0000 36.3500 0.0000
# 6 0.0000 0.0000 0.0000 -1.9882 0.0000 15.0480
#
#
#
# Elastic Compliance Matrix: (Units=1/GPa)
#
#
# Indices 1 2 3 4 5 6 
#
# 1 0.034477 -0.004667 -0.005682 0.000000 0.008390 0.000000
# 2 -0.004667 0.014330 -0.005011 0.000000 -0.000723 0.000000
# 3 -0.005682 -0.005011 0.008761 0.000000 0.001874 0.000000
# 4 0.000000 0.000000 0.000000 0.038184 0.000000 0.005045
# 5 0.008390 -0.000723 0.001874 0.000000 0.031750 0.000000
# 6 0.000000 0.000000 0.000000 0.005045 0.000000 0.067121
#
#
# Mechanical properties :
#
#
# Convention : Reuss Voigt Hill
#
# Bulk Modulus (GPa) = 37.24436 76.51295 56.87866
# Shear Modulus (GPa) = 21.34097 28.08634 24.71365
#
# Velocity S-wave (km/s) = 3.42165 3.92533 3.68211
# Velocity P-wave (km/s) = 6.00354 7.90692 7.02004
#
# Compressibility (1/GPa) = 0.02684970
#
# Stress axis : x y z
#
# Youngs Moduli (GPa) = 29.00494 69.78411 114.14065
#
# Poissons Ratio (x) = 0.32566 0.64852
# Poissons Ratio (y) = 0.13535 0.57193
# Poissons Ratio (z) = 0.16480 0.34967
#
# Static dielectric constant tensor:
#      x y z
#    x 1.321540 0.000000 -0.121860 
#    y 0.000000 1.610470 0.000000 
#    z -0.121860 0.000000 1.608700 
# 
# From -- ./inp_files/233869.got.cif
#   From: 2010.05.17/outbox.cif.g08.bks.cpg/sg15_117_cif.got.tgz:233869.got - 2010.06.03 18:47:42.
