data_PCOD9294721
_publ_section_title
;
Structure prediction by ZEFSAII (Michael W. Deem and Ramdas Pophale) SiO2 
 PCOD9294721
Probable space group: C 2/C
;
_chemical_formula_sum "Si O2"
_cell_formula_units_Z 56
_cell_length_a 12.715098
_cell_length_b 11.763911
_cell_length_c 25.295655
_cell_angle_alpha 90.000000
_cell_angle_beta 133.281911
_cell_angle_gamma 90.000000
_cell_volume 2754.497188
_symmetry_space_group_name_H-M "C 2/C"
_symmetry_group_IT_number 15
_symmetry_cell_setting 'monoclinic'
loop_
_space_group_symop_operation_xyz
x,y,z
-x,y,1/2-z
-x,-y,-z
x,-y,1/2+z
1/2+x,1/2+y,z
1/2-x,1/2+y,1/2-z
1/2-x,1/2-y,-z
1/2+x,1/2-y,1/2+z
loop_
_atom_site_type_symbol
_atom_site_label
_atom_site_fract_x
_atom_site_fract_y
_atom_site_fract_z
Si Si1 0.395412 0.768718 0.167892
Si Si2 0.021434 0.021035 0.945527
Si Si3 0.197939 0.623798 0.965491
Si Si4 0.820680 0.395456 0.845146
Si Si5 0.637984 0.348842 0.681176
Si Si6 0.595064 0.224459 0.470824
Si Si7 0.117302 0.638042 0.598140
O O1 0.500000 0.813701 0.250000
O O2 0.336570 0.865026 0.108705
O O3 0.268882 0.693236 0.149552
O O4 0.498255 0.687673 0.167855
O O5 0.014793 0.155138 0.937459
O O6 0.905446 0.952666 0.871302
O O7 0.177507 0.968180 0.983013
O O8 0.000000 0.000000 0.000000
O O9 0.049747 0.609582 0.945840
O O10 0.250000 0.750000 0.000000
O O11 0.760109 0.381943 0.765155
O O12 0.798707 0.521769 0.860816
O O13 0.989375 0.364161 0.906101
O O14 0.667308 0.238991 0.654585
O O15 0.750000 0.250000 0.500000
O O16 0.618359 0.183179 0.538896
#
# Coordination Sequence:
#
# PCOD9294721 Si02
#       7
#     8   8   8   8   8   8   8
#     4   9  19  37  62  96 118 157 221 264 315 379
#     4  12  22  40  65  94 131 166 217 272 330 383
#     4  11  19  38  66  88 123 169 218 269 314 380
#     4  11  24  42  67  92 133 171 216 270 327 397
#     4  10  23  41  64  98 124 169 214 270 331 382
#     4  12  27  42  64  99 133 174 220 266 336 399
#     4  11  23  44  66  93 128 170 224 269 322 396
#
# _framework density 20.330390000000001
#
# number of rings (size 3 to 8) (size 9 to 14) (size 15 to 20)
#    0.000    1.143    4.286    3.000    4.000    0.000 
#    2.571    0.714    0.000    0.000    0.000    0.000 
#    0.000    0.000    0.000    0.000    0.000    0.000 
#
# Total GULP energy -156509.812006 kJ/mol
# GULP energy per Si atom -5589.636143 kJ/mol
# Density = 2.028412 g / cm^3
# Si number density = 20.330390 Si / 1000 Ang^3
#
#
#
# Elastic Constant Matrix: (Units=GPa)
#
#
# Indices 1 2 3 4 5 6 
#
# 1 83.4781 20.9650 50.7709 0.0000 -12.3957 0.0000
# 2 20.9650 121.9493 55.7052 0.0000 -4.1845 0.0000
# 3 50.7709 55.7052 140.8834 0.0000 -21.4499 0.0000
# 4 0.0000 0.0000 0.0000 30.1036 0.0000 1.3683
# 5 -12.3957 -4.1845 -21.4499 0.0000 24.0615 0.0000
# 6 0.0000 0.0000 0.0000 1.3683 0.0000 9.2496
#
#
#
# Elastic Compliance Matrix: (Units=1/GPa)
#
#
# Indices 1 2 3 4 5 6 
#
# 1 0.015601 -0.000292 -0.004964 0.000000 0.003560 0.000000
# 2 -0.000292 0.010103 -0.004217 0.000000 -0.002153 0.000000
# 3 -0.004964 -0.004217 0.011632 0.000000 0.007079 0.000000
# 4 0.000000 0.000000 0.000000 0.033443 0.000000 -0.004947
# 5 0.003560 -0.002153 0.007079 0.000000 0.049331 0.000000
# 6 0.000000 0.000000 0.000000 -0.004947 0.000000 0.108845
#
#
# Mechanical properties :
#
#
# Convention : Reuss Voigt Hill
#
# Bulk Modulus (GPa) = 54.38239 66.79923 60.59081
# Shear Modulus (GPa) = 19.68257 27.27425 23.47841
#
# Velocity S-wave (km/s) = 3.11486 3.66669 3.40199
# Velocity P-wave (km/s) = 6.30427 7.13122 6.73046
#
# Compressibility (1/GPa) = 0.01838830
#
# Stress axis : x y z
#
# Youngs Moduli (GPa) = 64.10010 98.98211 85.96676
#
# Poissons Ratio (x) = 0.02891 0.42678
# Poissons Ratio (y) = 0.01872 0.36254
# Poissons Ratio (z) = 0.31822 0.41743
#
# Static dielectric constant tensor:
#      x y z
#    x 1.712140 0.000000 -0.037550 
#    y 0.000000 1.900970 0.000000 
#    z -0.037550 0.000000 1.614540 
# 
# From -- ./inp_files/295960.got.cif
#   From: 2010.05.17/outbox.cif.g08.bks.cpg/sg15_148_cif.got.tgz:295960.got - 2010.06.03 18:47:42.
