data_PCOD9294213
_publ_section_title
;
Structure prediction by ZEFSAII (Michael W. Deem and Ramdas Pophale) SiO2 
 PCOD9294213
Probable space group: C 2/C
;
_chemical_formula_sum "Si O2"
_cell_formula_units_Z 48
_cell_length_a 23.316514
_cell_length_b 14.411149
_cell_length_c 8.889034
_cell_angle_alpha 90.000000
_cell_angle_beta 48.338983
_cell_angle_gamma 90.000000
_cell_volume 2231.465003
_symmetry_space_group_name_H-M "C 2/C"
_symmetry_group_IT_number 15
_symmetry_cell_setting 'monoclinic'
loop_
_space_group_symop_operation_xyz
x,y,z
-x,y,1/2-z
-x,-y,-z
x,-y,1/2+z
1/2+x,1/2+y,z
1/2-x,1/2+y,1/2-z
1/2-x,1/2-y,-z
1/2+x,1/2-y,1/2+z
loop_
_atom_site_type_symbol
_atom_site_label
_atom_site_fract_x
_atom_site_fract_y
_atom_site_fract_z
Si Si1 0.467253 0.866679 0.551773
Si Si2 0.500000 0.999187 0.250000
Si Si3 0.370325 0.780934 0.316628
Si Si4 0.159722 0.950945 0.087113
Si Si5 0.095863 0.177779 0.928547
Si Si6 0.217080 0.878191 0.678641
Si Si7 0.500000 0.469954 0.750000
O O1 0.448320 0.931024 0.441168
O O2 0.556103 0.836963 0.369761
O O3 0.425526 0.768994 0.627309
O O4 0.456868 0.932322 0.712005
O O5 0.388550 0.717691 0.431974
O O6 0.302008 0.847635 0.486356
O O7 0.337398 0.711565 0.248030
O O8 0.159081 0.876829 0.223835
O O9 0.188790 0.045537 0.109346
O O10 0.073332 0.970493 0.174091
O O11 0.208781 0.917135 0.860464
O O12 0.029602 0.100340 0.068362
#
# Coordination Sequence:
#
# PCOD9294213 Si02
#       7
#     8   4   8   8   8   8   4
#     4  11  22  42  64  98 123 169 214 274 324 381
#     4  10  23  39  64  94 128 154 220 271 317 386
#     4  11  23  43  64  87 135 178 209 264 320 384
#     4  12  25  41  66 102 130 169 222 264 332 389
#     4  12  22  41  69  98 134 165 216 276 326 384
#     4  11  25  43  62  93 132 173 217 258 320 400
#     4  12  21  39  70  98 136 166 204 283 323 380
#
# _framework density 21.510532000000001
#
# number of rings (size 3 to 8) (size 9 to 14) (size 15 to 20)
#    0.000    0.667    6.667    0.500    4.667    2.000 
#    0.000    0.000    0.000    0.000    0.000    0.000 
#    0.000    0.000    0.000    0.000    0.000    0.000 
#
# Total GULP energy -134134.072303 kJ/mol
# GULP energy per Si atom -5588.919679 kJ/mol
# Density = 2.146157 g / cm^3
# Si number density = 21.510532 Si / 1000 Ang^3
#
#
#
# Elastic Constant Matrix: (Units=GPa)
#
#
# Indices 1 2 3 4 5 6 
#
# 1 27.6996 6.0046 11.2950 0.0000 -5.2751 0.0000
# 2 6.0046 84.5610 36.7784 0.0000 -2.4609 0.0000
# 3 11.2950 36.7784 69.2634 0.0000 14.7972 0.0000
# 4 0.0000 0.0000 0.0000 33.4197 0.0000 -3.9076
# 5 -5.2751 -2.4609 14.7972 0.0000 27.4482 0.0000
# 6 0.0000 0.0000 0.0000 -3.9076 0.0000 18.9407
#
#
#
# Elastic Compliance Matrix: (Units=1/GPa)
#
#
# Indices 1 2 3 4 5 6 
#
# 1 0.043013 0.002311 -0.011360 0.000000 0.014598 0.000000
# 2 0.002311 0.016613 -0.010862 0.000000 0.007790 0.000000
# 3 -0.011360 -0.010862 0.025691 0.000000 -0.017007 0.000000
# 4 0.000000 0.000000 0.000000 0.030662 0.000000 0.006326
# 5 0.014598 0.007790 -0.017007 0.000000 0.049105 0.000000
# 6 0.000000 0.000000 0.000000 0.006326 0.000000 0.054101
#
#
# Mechanical properties :
#
#
# Convention : Reuss Voigt Hill
#
# Bulk Modulus (GPa) = 21.98054 32.18666 27.08360
# Shear Modulus (GPa) = 18.23671 24.45813 21.34742
#
# Velocity S-wave (km/s) = 2.91487 3.37565 3.15368
# Velocity P-wave (km/s) = 4.64427 5.49445 5.08715
#
# Compressibility (1/GPa) = 0.04549478
#
# Stress axis : x y z
#
# Youngs Moduli (GPa) = 23.24885 60.19484 38.92356
#
# Poissons Ratio (x) = -0.13914 0.44218
# Poissons Ratio (y) = -0.05374 0.42280
# Poissons Ratio (z) = 0.26411 0.65385
#
# Static dielectric constant tensor:
#      x y z
#    x 1.820800 0.000000 0.010910 
#    y 0.000000 1.762820 0.000000 
#    z 0.010910 0.000000 1.765150 
# 
# From -- ./inp_files/55002.got.cif
#   From: 2010.05.17/outbox.cif.g08.bks.cpg/sg15_28_cif.got.tgz:55002.got - 2010.06.03 18:47:42.
