data_PCOD9294214
_publ_section_title
;
Structure prediction by ZEFSAII (Michael W. Deem and Ramdas Pophale) SiO2 
 PCOD9294214
Probable space group: C 2/C
;
_chemical_formula_sum "Si O2"
_cell_formula_units_Z 56
_cell_length_a 13.969214
_cell_length_b 12.941466
_cell_length_c 14.686832
_cell_angle_alpha 90.000000
_cell_angle_beta 64.792550
_cell_angle_gamma 90.000000
_cell_volume 2402.274176
_symmetry_space_group_name_H-M "C 2/C"
_symmetry_group_IT_number 15
_symmetry_cell_setting 'monoclinic'
loop_
_space_group_symop_operation_xyz
x,y,z
-x,y,1/2-z
-x,-y,-z
x,-y,1/2+z
1/2+x,1/2+y,z
1/2-x,1/2+y,1/2-z
1/2-x,1/2-y,-z
1/2+x,1/2-y,1/2+z
loop_
_atom_site_type_symbol
_atom_site_label
_atom_site_fract_x
_atom_site_fract_y
_atom_site_fract_z
Si Si1 0.169550 0.527572 0.304666
Si Si2 0.500000 0.434526 0.750000
Si Si3 0.365737 0.252218 0.116076
Si Si4 0.550372 0.393815 0.104149
Si Si5 0.500000 0.087248 0.750000
Si Si6 0.926679 0.223014 0.396087
Si Si7 0.354428 0.629077 0.113035
Si Si8 0.264417 0.330669 0.337015
O O1 0.131617 0.630003 0.371192
O O2 0.273239 0.564237 0.206653
O O3 0.196901 0.434575 0.361594
O O4 0.082529 0.483338 0.270620
O O5 0.517768 0.513851 0.825472
O O6 0.594607 0.361509 0.674384
O O7 0.476270 0.301480 0.102694
O O8 0.285377 0.300922 0.222091
O O9 0.354173 0.278184 0.014344
O O10 0.630991 0.354915 0.148038
O O11 0.608506 0.433805 0.990362
O O12 0.558792 0.165929 0.656141
O O13 0.043734 0.182260 0.379961
O O14 0.291015 0.729341 0.101496
#
# Coordination Sequence:
#
# PCOD9294214 Si02
#       8
#     8   4   8   8   4   8   8   8
#     4  11  25  41  68  93 135 174 219 270 335 385
#     4  11  22  37  70  90 128 167 212 271 322 392
#     4  10  24  41  69  96 134 170 219 274 328 396
#     4  11  22  40  65  98 125 166 219 270 328 385
#     4  11  24  45  64  94 134 179 220 265 326 404
#     4  10  23  45  63  96 130 175 217 269 329 400
#     4  10  23  39  64  94 128 167 214 276 318 394
#     4  11  21  42  61  97 129 169 213 279 319 391
#
# _framework density 23.311243999999999
#
# number of rings (size 3 to 8) (size 9 to 14) (size 15 to 20)
#    0.000    1.429    2.857    1.286    6.000    2.857 
#    0.000    0.714    0.000    0.000    0.000    0.000 
#    0.000    0.000    0.000    0.000    0.000    0.000 
#
# Total GULP energy -156571.587817 kJ/mol
# GULP energy per Si atom -5591.842422 kJ/mol
# Density = 2.325819 g / cm^3
# Si number density = 23.311244 Si / 1000 Ang^3
#
#
#
# Elastic Constant Matrix: (Units=GPa)
#
#
# Indices 1 2 3 4 5 6 
#
# 1 85.3901 35.6338 2.5051 0.0000 10.0042 0.0000
# 2 35.6338 118.1909 22.2941 0.0000 11.8319 0.0000
# 3 2.5051 22.2941 140.1653 0.0000 17.0841 0.0000
# 4 0.0000 0.0000 0.0000 6.0300 0.0000 4.6707
# 5 10.0042 11.8319 17.0841 0.0000 19.8031 0.0000
# 6 0.0000 0.0000 0.0000 4.6707 0.0000 30.7412
#
#
#
# Elastic Compliance Matrix: (Units=1/GPa)
#
#
# Indices 1 2 3 4 5 6 
#
# 1 0.013944 -0.003836 0.001051 0.000000 -0.005659 0.000000
# 2 -0.003836 0.010150 -0.001165 0.000000 -0.003121 0.000000
# 3 0.001051 -0.001165 0.008136 0.000000 -0.006854 0.000000
# 4 0.000000 0.000000 0.000000 0.187959 0.000000 -0.028558
# 5 -0.005659 -0.003121 -0.006854 0.000000 0.061133 0.000000
# 6 0.000000 0.000000 0.000000 -0.028558 0.000000 0.036869
#
#
# Mechanical properties :
#
#
# Convention : Reuss Voigt Hill
#
# Bulk Modulus (GPa) = 41.10344 51.62359 46.36352
# Shear Modulus (GPa) = 14.96104 30.20242 22.58173
#
# Velocity S-wave (km/s) = 2.53612 3.60337 3.11578
# Velocity P-wave (km/s) = 5.12314 6.28537 5.73378
#
# Compressibility (1/GPa) = 0.02432886
#
# Stress axis : x y z
#
# Youngs Moduli (GPa) = 71.71677 98.52629 122.90470
#
# Poissons Ratio (x) = 0.37791 -0.12912
# Poissons Ratio (y) = 0.27508 0.14323
# Poissons Ratio (z) = -0.07535 0.11482
#
# Static dielectric constant tensor:
#      x y z
#    x 1.900290 0.000000 0.040250 
#    y 0.000000 1.867500 0.000000 
#    z 0.040250 0.000000 1.941320 
# 
# From -- ./inp_files/161284.got.cif
#   From: 2010.05.17/outbox.cif.g08.bks.cpg/sg15_81_cif.got.tgz:161284.got - 2010.06.03 18:47:42.
