data_PCOD9294112
_publ_section_title
;
Structure prediction by ZEFSAII (Michael W. Deem and Ramdas Pophale) SiO2 
 PCOD9294112
Probable space group: C 2/C
;
_chemical_formula_sum "Si O2"
_cell_formula_units_Z 48
_cell_length_a 16.081970
_cell_length_b 28.445965
_cell_length_c 15.827206
_cell_angle_alpha 90.000000
_cell_angle_beta 161.128026
_cell_angle_gamma 90.000000
_cell_volume 2341.949431
_symmetry_space_group_name_H-M "C 2/C"
_symmetry_group_IT_number 15
_symmetry_cell_setting 'monoclinic'
loop_
_space_group_symop_operation_xyz
x,y,z
-x,y,1/2-z
-x,-y,-z
x,-y,1/2+z
1/2+x,1/2+y,z
1/2-x,1/2+y,1/2-z
1/2-x,1/2-y,-z
1/2+x,1/2-y,1/2+z
loop_
_atom_site_type_symbol
_atom_site_label
_atom_site_fract_x
_atom_site_fract_y
_atom_site_fract_z
Si Si1 0.694033 0.867016 0.219348
Si Si2 0.781151 0.769923 0.935490
Si Si3 0.265061 0.544115 0.459816
Si Si4 0.962989 0.719220 0.815124
Si Si5 0.222460 0.134355 0.138683
Si Si6 0.767287 0.478560 0.220430
O O1 0.595505 0.829777 0.193752
O O2 0.714611 0.922206 0.263002
O O3 0.980649 0.853723 0.465176
O O4 0.488117 0.865465 0.944954
O O5 0.549031 0.748941 0.659278
O O6 0.750000 0.750000 0.000000
O O7 0.767791 0.825468 0.922662
O O8 0.328401 0.584753 0.453652
O O9 0.214407 0.497626 0.357050
O O10 0.000000 0.557855 0.250000
O O11 0.500000 0.539064 0.750000
O O12 0.721583 0.754559 0.594305
O O13 0.000000 0.710875 0.750000
O O14 0.000000 0.500000 0.500000
O O15 0.500000 0.500000 0.000000
#
# Coordination Sequence:
#
# PCOD9294112 Si02
#       6
#     8   8   8   8   8   8
#     4  12  24  43  73 100 131 181 227 280 337 418
#     4  10  23  39  55  84 125 174 214 275 313 367
#     4  12  26  42  69  98 132 178 226 281 331 413
#     4  10  23  44  70 102 141 175 219 288 357 414
#     4  12  25  41  67  97 131 183 231 270 337 396
#     4  12  23  47  67  97 136 178 225 281 350 393
#
# _framework density 20.495746
#
# number of rings (size 3 to 8) (size 9 to 14) (size 15 to 20)
#    0.000    0.667    3.333    4.000    4.667    4.667 
#    0.000    2.500    0.000    0.000    0.000    0.000 
#    0.000    0.000    0.000    0.000    0.000    0.000 
#
# Total GULP energy -134167.901046 kJ/mol
# GULP energy per Si atom -5590.329210 kJ/mol
# Density = 2.044910 g / cm^3
# Si number density = 20.495746 Si / 1000 Ang^3
#
#
#
# Elastic Constant Matrix: (Units=GPa)
#
#
# Indices 1 2 3 4 5 6 
#
# 1 52.5500 35.8682 8.5168 0.0055 5.1145 -0.0108
# 2 35.8682 154.5303 12.9964 0.0029 -1.0735 -0.0089
# 3 8.5168 12.9964 141.4417 -0.0041 12.7730 -0.0006
# 4 0.0055 0.0029 -0.0041 27.8748 -0.0013 -4.1431
# 5 5.1145 -1.0735 12.7730 -0.0013 28.0616 -0.0043
# 6 -0.0108 -0.0089 -0.0006 -4.1431 -0.0043 111.2818
#
#
#
# Elastic Compliance Matrix: (Units=1/GPa)
#
#
# Indices 1 2 3 4 5 6 
#
# 1 0.023186 -0.005367 -0.000524 -0.000004 -0.004192 0.000002
# 2 -0.005367 0.007772 -0.000528 0.000000 0.001516 0.000000
# 3 -0.000524 -0.000528 0.007450 0.000001 -0.003315 0.000000
# 4 -0.000004 0.000000 0.000001 0.036074 0.000002 0.001343
# 5 -0.004192 0.001516 -0.003315 0.000002 0.037967 0.000001
# 6 0.000002 0.000000 0.000000 0.001343 0.000001 0.009036
#
#
# Mechanical properties :
#
#
# Convention : Reuss Voigt Hill
#
# Bulk Modulus (GPa) = 39.10964 51.47607 45.29286
# Shear Modulus (GPa) = 35.00290 52.85301 43.92796
#
# Velocity S-wave (km/s) = 4.13705 5.08363 4.63457
# Velocity P-wave (km/s) = 6.47638 7.72190 7.12640
#
# Compressibility (1/GPa) = 0.02556914
#
# Stress axis : x y z
#
# Youngs Moduli (GPa) = 43.13034 128.67024 134.23665
#
# Poissons Ratio (x) = 0.69053 0.07039
# Poissons Ratio (y) = 0.23147 0.07086
# Poissons Ratio (z) = 0.02262 0.06792
#
# Static dielectric constant tensor:
#      x y z
#    x 1.743170 0.000000 0.035860 
#    y 0.000000 1.752440 -0.000010 
#    z 0.035860 -0.000010 1.754710 
# 
# From -- ./inp_files/157719.got.cif
#   From: 2010.05.17/outbox.cif.g08.bks.cpg/sg15_79_cif.got.tgz:157719.got - 2010.06.03 18:47:42.
