data_PCOD9294477
_publ_section_title
;
Structure prediction by ZEFSAII (Michael W. Deem and Ramdas Pophale) SiO2 
 PCOD9294477
Probable space group: C 2/C
;
_chemical_formula_sum "Si O2"
_cell_formula_units_Z 32
_cell_length_a 25.434449
_cell_length_b 7.219240
_cell_length_c 15.212450
_cell_angle_alpha 90.000000
_cell_angle_beta 151.581769
_cell_angle_gamma 90.000000
_cell_volume 1329.328778
_symmetry_space_group_name_H-M "C 2/C"
_symmetry_group_IT_number 15
_symmetry_cell_setting 'monoclinic'
loop_
_space_group_symop_operation_xyz
x,y,z
-x,y,1/2-z
-x,-y,-z
x,-y,1/2+z
1/2+x,1/2+y,z
1/2-x,1/2+y,1/2-z
1/2-x,1/2-y,-z
1/2+x,1/2-y,1/2+z
loop_
_atom_site_type_symbol
_atom_site_label
_atom_site_fract_x
_atom_site_fract_y
_atom_site_fract_z
Si Si1 0.288277 0.657921 0.791708
Si Si2 0.325792 0.678417 0.228319
Si Si3 0.503671 0.090572 0.910001
Si Si4 0.673285 0.121577 0.448105
O O1 0.348395 0.478337 0.837589
O O2 0.225935 0.651312 0.792999
O O3 0.622096 0.178448 0.062165
O O4 0.196337 0.695840 0.580492
O O5 0.425378 0.732717 0.312875
O O6 0.233285 0.577035 0.036243
O O7 0.447477 0.935867 0.764486
O O8 0.500000 0.000000 0.000000
O O9 0.750000 0.250000 0.500000
#
# Coordination Sequence:
#
# PCOD9294477 Si02
#       4
#     8   8   8   8
#     4  10  23  40  66  94 133 174 222 275 341 393
#     4  10  23  43  64  93 139 167 224 283 327 406
#     4  12  21  41  70  93 134 178 218 274 347 395
#     4  10  23  40  66  97 131 168 228 271 333 399
#
# _framework density 24.072299000000001
#
# number of rings (size 3 to 8) (size 9 to 14) (size 15 to 20)
#    1.500    0.000    2.500    3.000    0.000    1.000 
#    0.000    0.000    5.500    0.000    0.000    0.000 
#    0.000    0.000    0.000    0.000    0.000    0.000 
#
# Total GULP energy -89111.762638 kJ/mol
# GULP energy per Si atom -5569.485165 kJ/mol
# Density = 2.401751 g / cm^3
# Si number density = 24.072299 Si / 1000 Ang^3
#
#
#
# Elastic Constant Matrix: (Units=GPa)
#
#
# Indices 1 2 3 4 5 6 
#
# 1 90.9838 15.8199 42.0466 0.0000 10.7194 0.0000
# 2 15.8199 80.5520 33.3038 0.0000 2.4294 0.0000
# 3 42.0466 33.3038 132.9588 0.0000 4.3935 0.0000
# 4 0.0000 0.0000 0.0000 51.6624 0.0000 -2.1385
# 5 10.7194 2.4294 4.3935 0.0000 33.2037 0.0000
# 6 0.0000 0.0000 0.0000 -2.1385 0.0000 45.7988
#
#
#
# Elastic Compliance Matrix: (Units=1/GPa)
#
#
# Indices 1 2 3 4 5 6 
#
# 1 0.013383 -0.000911 -0.003880 0.000000 -0.003741 0.000000
# 2 -0.000911 0.013921 -0.003189 0.000000 -0.000302 0.000000
# 3 -0.003880 -0.003189 0.009540 0.000000 0.000224 0.000000
# 4 0.000000 0.000000 0.000000 0.019394 0.000000 0.000906
# 5 -0.003741 -0.000302 0.000224 0.000000 0.031317 0.000000
# 6 0.000000 0.000000 0.000000 0.000906 0.000000 0.021877
#
#
# Mechanical properties :
#
#
# Convention : Reuss Voigt Hill
#
# Bulk Modulus (GPa) = 47.88616 54.09281 50.98948
# Shear Modulus (GPa) = 37.77754 40.35460 39.06607
#
# Velocity S-wave (km/s) = 3.96578 4.09882 4.03285
# Velocity P-wave (km/s) = 6.39576 6.70225 6.55080
#
# Compressibility (1/GPa) = 0.02088286
#
# Stress axis : x y z
#
# Youngs Moduli (GPa) = 74.71935 71.83499 104.82601
#
# Poissons Ratio (x) = 0.06546 0.40678
# Poissons Ratio (y) = 0.06809 0.33426
# Poissons Ratio (z) = 0.28995 0.22906
#
# Static dielectric constant tensor:
#      x y z
#    x 1.913950 0.000000 0.024330 
#    y 0.000000 2.051130 0.000000 
#    z 0.024330 0.000000 2.030500 
# 
# From -- ./inp_files/176780.got.cif
#   From: 2010.05.17/outbox.cif.g08.bks.cpg/sg15_89_cif.got.tgz:176780.got - 2010.06.03 18:47:42.
