data_PCOD9294595
_publ_section_title
;
Structure prediction by ZEFSAII (Michael W. Deem and Ramdas Pophale) SiO2 
 PCOD9294595
Probable space group: C 2/C
;
_chemical_formula_sum "Si O2"
_cell_formula_units_Z 44
_cell_length_a 25.862629
_cell_length_b 9.098987
_cell_length_c 10.809561
_cell_angle_alpha 90.000000
_cell_angle_beta 48.180600
_cell_angle_gamma 90.000000
_cell_volume 1895.727521
_symmetry_space_group_name_H-M "C 2/C"
_symmetry_group_IT_number 15
_symmetry_cell_setting 'monoclinic'
loop_
_space_group_symop_operation_xyz
x,y,z
-x,y,1/2-z
-x,-y,-z
x,-y,1/2+z
1/2+x,1/2+y,z
1/2-x,1/2+y,1/2-z
1/2-x,1/2-y,-z
1/2+x,1/2-y,1/2+z
loop_
_atom_site_type_symbol
_atom_site_label
_atom_site_fract_x
_atom_site_fract_y
_atom_site_fract_z
Si Si1 0.108675 0.383067 0.504687
Si Si2 0.637643 0.200266 0.440266
Si Si3 0.000000 0.854376 0.250000
Si Si4 0.785954 0.798453 0.814952
Si Si5 0.169511 0.765243 0.119740
Si Si6 0.888689 0.951335 0.821190
O O1 0.092666 0.551967 0.506135
O O2 0.048689 0.260101 0.596930
O O3 0.172740 0.332349 0.317341
O O4 0.135740 0.369904 0.602328
O O5 0.718424 0.156923 0.342364
O O6 0.637522 0.274349 0.306346
O O7 0.612980 0.313536 0.584425
O O8 0.961923 0.964256 0.214329
O O9 0.847775 0.906745 0.761558
O O10 0.750000 0.750000 0.000000
O O11 0.157370 0.911209 0.057634
O O12 0.250000 0.750000 0.000000
#
# Coordination Sequence:
#
# PCOD9294595 Si02
#       6
#     8   8   4   8   8   8
#     4  11  25  44  67 104 143 184 240 293 350 432
#     4  11  25  42  72 105 145 182 237 305 365 412
#     4  10  26  50  68  98 146 194 248 284 342 438
#     4  10  23  40  74 105 140 176 231 298 370 413
#     4  11  23  38  70 104 141 182 235 289 370 417
#     4  10  25  45  67 102 140 192 240 282 355 422
#
# _framework density 23.210086
#
# number of rings (size 3 to 8) (size 9 to 14) (size 15 to 20)
#    0.000    1.455    1.818    1.091   15.273    1.455 
#    3.273    3.636    0.000    0.000    0.000    0.000 
#    0.000    0.000    0.000    0.000    0.000    0.000 
#
# Total GULP energy -122663.298031 kJ/mol
# GULP energy per Si atom -5575.604456 kJ/mol
# Density = 2.315726 g / cm^3
# Si number density = 23.210086 Si / 1000 Ang^3
#
#
#
# Elastic Constant Matrix: (Units=GPa)
#
#
# Indices 1 2 3 4 5 6 
#
# 1 87.1906 32.7821 14.6710 0.0000 -7.8716 0.0000
# 2 32.7821 155.7226 37.0748 0.0000 -3.0993 0.0000
# 3 14.6710 37.0748 68.4334 0.0000 6.2414 0.0000
# 4 0.0000 0.0000 0.0000 29.8033 0.0000 1.2725
# 5 -7.8716 -3.0993 6.2414 0.0000 32.6426 0.0000
# 6 0.0000 0.0000 0.0000 1.2725 0.0000 32.7099
#
#
#
# Elastic Compliance Matrix: (Units=1/GPa)
#
#
# Indices 1 2 3 4 5 6 
#
# 1 0.012908 -0.002208 -0.001869 0.000000 0.003260 0.000000
# 2 -0.002208 0.007822 -0.003851 0.000000 0.000947 0.000000
# 3 -0.001869 -0.003851 0.017479 0.000000 -0.004158 0.000000
# 4 0.000000 0.000000 0.000000 0.033609 0.000000 -0.001307
# 5 0.003260 0.000947 -0.004158 0.000000 0.032306 0.000000
# 6 0.000000 0.000000 0.000000 -0.001307 0.000000 0.030623
#
#
# Mechanical properties :
#
#
# Convention : Reuss Voigt Hill
#
# Bulk Modulus (GPa) = 44.73303 53.37805 49.05554
# Shear Modulus (GPa) = 31.63515 34.15240 32.89377
#
# Velocity S-wave (km/s) = 3.69588 3.84011 3.76868
# Velocity P-wave (km/s) = 6.12598 6.53526 6.33392
#
# Compressibility (1/GPa) = 0.02235485
#
# Stress axis : x y z
#
# Youngs Moduli (GPa) = 77.47199 127.84379 57.21207
#
# Poissons Ratio (x) = 0.28222 0.10691
# Poissons Ratio (y) = 0.17102 0.22031
# Poissons Ratio (z) = 0.14477 0.49230
#
# Static dielectric constant tensor:
#      x y z
#    x 1.941440 0.000000 -0.002320 
#    y 0.000000 1.881390 0.000000 
#    z -0.002320 0.000000 1.843470 
# 
# From -- ./inp_files/110026.got.cif
#   From: 2010.05.17/outbox.cif.g08.bks.cpg/sg15_56_cif.got.tgz:110026.got - 2010.06.03 18:47:42.
