data_PCOD9294596
_publ_section_title
;
Structure prediction by ZEFSAII (Michael W. Deem and Ramdas Pophale) SiO2 
 PCOD9294596
Probable space group: C 2/C
;
_chemical_formula_sum "Si O2"
_cell_formula_units_Z 40
_cell_length_a 9.759881
_cell_length_b 18.081155
_cell_length_c 15.245894
_cell_angle_alpha 90.000000
_cell_angle_beta 37.266406
_cell_angle_gamma 90.000000
_cell_volume 1629.121349
_symmetry_space_group_name_H-M "C 2/C"
_symmetry_group_IT_number 15
_symmetry_cell_setting 'monoclinic'
loop_
_space_group_symop_operation_xyz
x,y,z
-x,y,1/2-z
-x,-y,-z
x,-y,1/2+z
1/2+x,1/2+y,z
1/2-x,1/2+y,1/2-z
1/2-x,1/2-y,-z
1/2+x,1/2-y,1/2+z
loop_
_atom_site_type_symbol
_atom_site_label
_atom_site_fract_x
_atom_site_fract_y
_atom_site_fract_z
Si Si1 0.785485 0.664308 0.967816
Si Si2 0.322669 0.024714 0.663376
Si Si3 0.000000 0.081726 0.250000
Si Si4 0.229104 0.185693 0.727434
Si Si5 0.882960 0.167443 0.045938
Si Si6 0.000000 0.456428 0.750000
O O1 0.699941 0.627859 0.102586
O O2 0.601156 0.639794 0.990758
O O3 0.750000 0.750000 0.000000
O O4 0.055079 0.666917 0.819368
O O5 0.440694 0.007891 0.696889
O O6 0.110861 0.969858 0.766378
O O7 0.500000 0.000000 0.500000
O O8 0.234255 0.105556 0.679996
O O9 0.280304 0.260346 0.647653
O O10 0.996722 0.193957 0.897879
O O11 0.707137 0.100573 0.125905
#
# Coordination Sequence:
#
# PCOD9294596 Si02
#       6
#     8   8   4   8   8   4
#     4  10  23  40  74 106 148 194 260 313 379 452
#     4  12  29  49  79 115 161 209 259 326 404 475
#     4  12  24  49  73 112 154 206 258 318 388 481
#     4  11  27  46  78 112 156 201 264 321 396 463
#     4  11  27  48  77 114 155 206 264 326 390 473
#     4  12  30  51  79 118 166 202 266 330 402 469
#
# _framework density 24.553114000000001
#
# number of rings (size 3 to 8) (size 9 to 14) (size 15 to 20)
#    0.000    0.800    4.000    0.600   19.600    2.400 
#    0.000    0.000    0.000    0.000    0.000    0.000 
#    0.000    0.000    0.000    0.000    0.000    0.000 
#
# Total GULP energy -111693.569959 kJ/mol
# GULP energy per Si atom -5584.678498 kJ/mol
# Density = 2.449723 g / cm^3
# Si number density = 24.553114 Si / 1000 Ang^3
#
#
#
# Elastic Constant Matrix: (Units=GPa)
#
#
# Indices 1 2 3 4 5 6 
#
# 1 105.0827 12.3555 3.2811 -0.0019 -10.7680 0.0023
# 2 12.3555 121.8635 24.8985 0.0027 8.3908 0.0016
# 3 3.2811 24.8985 117.7539 0.0096 4.1201 0.0054
# 4 -0.0019 0.0027 0.0096 38.9545 0.0000 2.3206
# 5 -10.7680 8.3908 4.1201 0.0000 39.2490 -0.0031
# 6 0.0023 0.0016 0.0054 2.3206 -0.0031 25.6120
#
#
#
# Elastic Compliance Matrix: (Units=1/GPa)
#
#
# Indices 1 2 3 4 5 6 
#
# 1 0.009968 -0.001191 -0.000131 0.000001 0.003003 0.000000
# 2 -0.001191 0.008826 -0.001762 0.000000 -0.002029 0.000000
# 3 -0.000131 -0.001762 0.008889 -0.000002 -0.000592 -0.000002
# 4 0.000001 0.000000 -0.000002 0.025810 0.000000 -0.002339
# 5 0.003003 -0.002029 -0.000592 0.000000 0.026798 0.000003
# 6 0.000000 0.000000 -0.000002 -0.002339 0.000003 0.039256
#
#
# Mechanical properties :
#
#
# Convention : Reuss Voigt Hill
#
# Bulk Modulus (GPa) = 46.47698 47.30781 46.89239
# Shear Modulus (GPa) = 37.62571 41.04078 39.33324
#
# Velocity S-wave (km/s) = 3.91886 4.09285 4.00680
# Velocity P-wave (km/s) = 6.28068 6.45326 6.36755
#
# Compressibility (1/GPa) = 0.02151603
#
# Stress axis : x y z
#
# Youngs Moduli (GPa) = 100.31976 113.29745 112.49533
#
# Poissons Ratio (x) = 0.13490 0.01475
# Poissons Ratio (y) = 0.11944 0.19823
# Poissons Ratio (z) = 0.01315 0.19964
#
# Static dielectric constant tensor:
#      x y z
#    x 2.367350 -0.000020 -0.051970 
#    y -0.000020 1.910080 0.000000 
#    z -0.051970 0.000000 1.932410 
# 
# From -- ./inp_files/199705.got.cif
#   From: 2010.05.17/outbox.cif.g08.bks.cpg/sg15_100_cif.got.tgz:199705.got - 2010.06.03 18:47:42.
