data_PCOD9294335
_publ_section_title
;
Structure prediction by ZEFSAII (Michael W. Deem and Ramdas Pophale) SiO2 
 PCOD9294335
Probable space group: C 2/C
;
_chemical_formula_sum "Si O2"
_cell_formula_units_Z 60
_cell_length_a 25.488605
_cell_length_b 23.348767
_cell_length_c 9.722300
_cell_angle_alpha 90.000000
_cell_angle_beta 29.340369
_cell_angle_gamma 90.000000
_cell_volume 2835.125249
_symmetry_space_group_name_H-M "C 2/C"
_symmetry_group_IT_number 15
_symmetry_cell_setting 'monoclinic'
loop_
_space_group_symop_operation_xyz
x,y,z
-x,y,1/2-z
-x,-y,-z
x,-y,1/2+z
1/2+x,1/2+y,z
1/2-x,1/2+y,1/2-z
1/2-x,1/2-y,-z
1/2+x,1/2-y,1/2+z
loop_
_atom_site_type_symbol
_atom_site_label
_atom_site_fract_x
_atom_site_fract_y
_atom_site_fract_z
Si Si1 0.193598 0.144593 0.879147
Si Si2 0.378167 0.139681 0.992726
Si Si3 0.333300 0.203560 0.354024
Si Si4 0.402008 0.435302 0.138952
Si Si5 0.000000 0.218827 0.750000
Si Si6 0.348618 0.618266 0.049525
Si Si7 0.131976 0.941445 0.721148
Si Si8 0.932975 0.249470 0.193232
O O1 0.297145 0.177825 0.582691
O O2 0.136108 0.112770 0.881355
O O3 0.216207 0.094381 0.937899
O O4 0.115804 0.191125 0.132243
O O5 0.500000 0.119700 0.750000
O O6 0.382134 0.197987 0.893235
O O7 0.331333 0.152154 0.250246
O O8 0.279757 0.108540 0.143095
O O9 0.250000 0.250000 0.500000
O O10 0.442775 0.236371 0.071426
O O11 0.379198 0.415505 0.345031
O O12 0.344799 0.497135 0.264213
O O13 0.530169 0.446759 0.849887
O O14 0.096027 0.180487 0.596230
O O15 0.065178 0.249717 0.477683
O O16 0.396903 0.597517 0.082766
#
# Coordination Sequence:
#
# PCOD9294335 Si02
#       8
#     8   8   8   8   4   8   8   8
#     4  12  23  39  66  90 131 181 209 269 325 388
#     4  10  23  40  61  88 125 174 221 264 309 388
#     4  11  22  35  59  92 119 168 226 258 303 394
#     4  11  23  39  62  93 129 166 213 265 325 404
#     4  12  24  36  58  92 132 170 198 268 328 384
#     4  12  21  40  61  90 129 163 206 267 325 377
#     4  11  24  38  60  96 130 166 210 262 343 393
#     4  11  25  39  57  92 132 168 221 258 321 391
#
# _framework density 21.163086
#
# number of rings (size 3 to 8) (size 9 to 14) (size 15 to 20)
#    0.000    0.800    5.333    2.000    3.733    3.733 
#    0.000    0.000    0.000    0.800    0.000    0.000 
#    0.000    0.000    0.000    0.000    0.000    0.000 
#
# Total GULP energy -167058.107606 kJ/mol
# GULP energy per Si atom -5568.603587 kJ/mol
# Density = 2.111492 g / cm^3
# Si number density = 21.163086 Si / 1000 Ang^3
#
#
#
# Elastic Constant Matrix: (Units=GPa)
#
#
# Indices 1 2 3 4 5 6 
#
# 1 46.2382 5.7464 20.0809 0.0000 14.2160 0.0000
# 2 5.7464 20.3893 25.7457 0.0000 6.2068 0.0000
# 3 20.0809 25.7457 102.4588 0.0000 19.3698 0.0000
# 4 0.0000 0.0000 0.0000 18.8144 0.0000 11.1819
# 5 14.2160 6.2068 19.3698 0.0000 46.6487 0.0000
# 6 0.0000 0.0000 0.0000 11.1819 0.0000 24.2901
#
#
#
# Elastic Compliance Matrix: (Units=1/GPa)
#
#
# Indices 1 2 3 4 5 6 
#
# 1 0.025147 -0.000681 -0.003609 0.000000 -0.006074 0.000000
# 2 -0.000681 0.072074 -0.017584 0.000000 -0.002081 0.000000
# 3 -0.003609 -0.017584 0.015448 0.000000 -0.002975 0.000000
# 4 0.000000 0.000000 0.000000 0.073170 0.000000 -0.033684
# 5 -0.006074 -0.002081 -0.002975 0.000000 0.024800 0.000000
# 6 0.000000 0.000000 0.000000 -0.033684 0.000000 0.056676
#
#
# Mechanical properties :
#
#
# Convention : Reuss Voigt Hill
#
# Bulk Modulus (GPa) = 14.50931 30.24805 22.37868
# Shear Modulus (GPa) = 14.96847 25.78485 20.37666
#
# Velocity S-wave (km/s) = 2.66238 3.49433 3.10633
# Velocity P-wave (km/s) = 4.04003 5.53212 4.84387
#
# Compressibility (1/GPa) = 0.06892127
#
# Stress axis : x y z
#
# Youngs Moduli (GPa) = 39.76676 13.87467 64.73228
#
# Poissons Ratio (x) = 0.00945 0.23363
# Poissons Ratio (y) = 0.02707 1.13824
# Poissons Ratio (z) = 0.14352 0.24397
#
# Static dielectric constant tensor:
#      x y z
#    x 2.549240 0.000000 -0.625880 
#    y 0.000000 1.868150 0.000000 
#    z -0.625880 0.000000 2.350540 
# 
# From -- ./inp_files/64104.got.cif
#   From: 2010.05.17/outbox.cif.g08.bks.cpg/sg15_33_cif.got.tgz:64104.got - 2010.06.03 18:47:42.
