data_PCOD9294548
_publ_section_title
;
Structure prediction by ZEFSAII (Michael W. Deem and Ramdas Pophale) SiO2 
 PCOD9294548
Probable space group: C 2/C
;
_chemical_formula_sum "Si O2"
_cell_formula_units_Z 40
_cell_length_a 11.392075
_cell_length_b 14.073569
_cell_length_c 16.901514
_cell_angle_alpha 90.000000
_cell_angle_beta 140.039233
_cell_angle_gamma 90.000000
_cell_volume 1740.385823
_symmetry_space_group_name_H-M "C 2/C"
_symmetry_group_IT_number 15
_symmetry_cell_setting 'monoclinic'
loop_
_space_group_symop_operation_xyz
x,y,z
-x,y,1/2-z
-x,-y,-z
x,-y,1/2+z
1/2+x,1/2+y,z
1/2-x,1/2+y,1/2-z
1/2-x,1/2-y,-z
1/2+x,1/2-y,1/2+z
loop_
_atom_site_type_symbol
_atom_site_label
_atom_site_fract_x
_atom_site_fract_y
_atom_site_fract_z
Si Si1 0.483004 0.742060 0.877711
Si Si2 0.988642 0.538362 0.662138
Si Si3 0.000000 0.361222 0.750000
Si Si4 0.500000 0.472409 0.250000
Si Si5 0.929822 0.021242 0.551202
Si Si6 0.333488 0.160974 0.881457
O O1 0.593485 0.792207 0.862289
O O2 0.527351 0.632492 0.915598
O O3 0.280498 0.736382 0.732021
O O4 0.529588 0.796925 0.982269
O O5 0.780899 0.505761 0.548540
O O6 0.939077 0.406891 0.374947
O O7 0.000000 0.597393 0.750000
O O8 0.092995 0.439341 0.739113
O O9 0.484760 0.526002 0.325540
O O10 0.320896 0.404828 0.157216
O O11 0.000000 0.000000 0.500000
#
# Coordination Sequence:
#
# PCOD9294548 Si02
#       6
#     8   8   4   4   8   8
#     4  11  23  44  71 106 141 188 244 301 353 426
#     4  10  23  44  69 101 144 183 232 294 366 418
#     4  10  23  40  74  99 132 184 238 303 340 406
#     4  10  23  40  68  97 142 178 242 293 356 424
#     4  11  23  43  67  98 142 186 232 297 356 421
#     4  11  24  44  70 106 147 185 239 302 358 431
#
# _framework density 22.983409000000002
#
# number of rings (size 3 to 8) (size 9 to 14) (size 15 to 20)
#    0.600    0.800    0.000    7.200    0.000    9.600 
#    3.600    4.000    0.000    0.000    0.000    0.000 
#    0.000    0.000    0.000    0.000    0.000    0.000 
#
# Total GULP energy -111411.944239 kJ/mol
# GULP energy per Si atom -5570.597212 kJ/mol
# Density = 2.293110 g / cm^3
# Si number density = 22.983409 Si / 1000 Ang^3
#
#
#
# Elastic Constant Matrix: (Units=GPa)
#
#
# Indices 1 2 3 4 5 6 
#
# 1 137.9744 54.6729 77.5305 0.0000 -44.8372 -0.0001
# 2 54.6729 65.3142 63.3732 0.0000 -32.3623 0.0000
# 3 77.5305 63.3732 201.6552 0.0000 -49.7565 0.0000
# 4 0.0000 0.0000 0.0000 41.2070 0.0000 -21.7220
# 5 -44.8372 -32.3623 -49.7565 0.0000 49.8403 0.0000
# 6 -0.0001 0.0000 0.0000 -21.7220 0.0000 32.0918
#
#
#
# Elastic Compliance Matrix: (Units=1/GPa)
#
#
# Indices 1 2 3 4 5 6 
#
# 1 0.012315 -0.006121 -0.001404 0.000000 0.005703 0.000000
# 2 -0.006121 0.029392 -0.004688 0.000000 0.008898 0.000000
# 3 -0.001404 -0.004688 0.007841 0.000000 0.003520 0.000000
# 4 0.000000 0.000000 0.000000 0.037730 0.000000 0.025539
# 5 0.005703 0.008898 0.003520 0.000000 0.034487 0.000000
# 6 0.000000 0.000000 0.000000 0.025539 0.000000 0.048447
#
#
# Mechanical properties :
#
#
# Convention : Reuss Voigt Hill
#
# Bulk Modulus (GPa) = 39.80568 88.45520 64.13044
# Shear Modulus (GPa) = 24.62913 38.58563 31.60738
#
# Velocity S-wave (km/s) = 3.27709 4.10182 3.71243
# Velocity P-wave (km/s) = 5.62814 7.81046 6.80732
#
# Compressibility (1/GPa) = 0.02512204
#
# Stress axis : x y z
#
# Youngs Moduli (GPa) = 81.19897 34.02317 127.53940
#
# Poissons Ratio (x) = 0.20824 0.17910
# Poissons Ratio (y) = 0.49699 0.59791
# Poissons Ratio (z) = 0.11402 0.15950
#
# Static dielectric constant tensor:
#      x y z
#    x 1.884760 0.000000 0.026240 
#    y 0.000000 1.916910 0.000000 
#    z 0.026240 0.000000 2.061940 
# 
# From -- ./inp_files/143958.got.cif
#   From: 2010.05.17/outbox.cif.g08.bks.cpg/sg15_72_cif.got.tgz:143958.got - 2010.06.03 18:47:42.
