data_PCOD9294943
_publ_section_title
;
Structure prediction by ZEFSAII (Michael W. Deem and Ramdas Pophale) SiO2 
 PCOD9294943
Probable space group: C 2/C
;
_chemical_formula_sum "Si O2"
_cell_formula_units_Z 36
_cell_length_a 17.729145
_cell_length_b 6.024333
_cell_length_c 16.982308
_cell_angle_alpha 90.000000
_cell_angle_beta 52.012879
_cell_angle_gamma 90.000000
_cell_volume 1429.558300
_symmetry_space_group_name_H-M "C 2/C"
_symmetry_group_IT_number 15
_symmetry_cell_setting 'monoclinic'
loop_
_space_group_symop_operation_xyz
x,y,z
-x,y,1/2-z
-x,-y,-z
x,-y,1/2+z
1/2+x,1/2+y,z
1/2-x,1/2+y,1/2-z
1/2-x,1/2-y,-z
1/2+x,1/2-y,1/2+z
loop_
_atom_site_type_symbol
_atom_site_label
_atom_site_fract_x
_atom_site_fract_y
_atom_site_fract_z
Si Si1 0.841228 0.904143 0.786806
Si Si2 0.476973 0.061885 0.638946
Si Si3 0.822534 0.210844 0.523435
Si Si4 0.899065 0.121293 0.079271
Si Si5 0.500000 0.299299 0.250000
O O1 0.998415 0.333968 0.833968
O O2 0.732394 0.855279 0.875453
O O3 0.853220 0.979088 0.688572
O O4 0.902067 0.061406 0.804717
O O5 0.575225 0.196766 0.567960
O O6 0.424539 0.127339 0.589611
O O7 0.402257 0.175424 0.747604
O O8 0.750000 0.250000 0.500000
O O9 0.834350 0.960353 0.549029
O O10 0.000000 0.000000 0.000000
#
# Coordination Sequence:
#
# PCOD9294943 Si02
#       5
#     8   8   8   8   4
#     4  10  23  41  70 102 142 189 240 298 357 436
#     4   9  22  43  66  97 145 185 232 301 361 421
#     4  11  20  41  74 101 139 191 244 299 357 433
#     4   8  20  44  67  94 140 188 229 298 359 422
#     4  12  20  40  70 104 138 192 240 292 358 428
#
# _framework density 25.182604000000001
#
# number of rings (size 3 to 8) (size 9 to 14) (size 15 to 20)
#    1.333    0.889    0.000    3.333    0.000    0.889 
#    8.000    8.889    0.000    0.000    0.000    0.000 
#    0.000    0.000    0.000    0.000    0.000    0.000 
#
# Total GULP energy -100335.701770 kJ/mol
# GULP energy per Si atom -5574.205654 kJ/mol
# Density = 2.512529 g / cm^3
# Si number density = 25.182604 Si / 1000 Ang^3
#
#
#
# Elastic Constant Matrix: (Units=GPa)
#
#
# Indices 1 2 3 4 5 6 
#
# 1 133.6625 40.6438 19.7032 0.0006 11.6732 0.0005
# 2 40.6438 66.2126 13.6246 0.0019 18.2131 0.0012
# 3 19.7032 13.6246 93.1325 0.0003 -1.4772 0.0000
# 4 0.0006 0.0019 0.0003 31.6762 -0.0001 1.5598
# 5 11.6732 18.2131 -1.4772 -0.0001 37.7073 0.0000
# 6 0.0005 0.0012 0.0000 1.5598 0.0000 38.0531
#
#
#
# Elastic Compliance Matrix: (Units=1/GPa)
#
#
# Indices 1 2 3 4 5 6 
#
# 1 0.009324 -0.005388 -0.001190 0.000000 -0.000331 0.000000
# 2 -0.005388 0.021227 -0.002103 -0.000001 -0.008667 -0.000001
# 3 -0.001190 -0.002103 0.011326 0.000000 0.001828 0.000000
# 4 0.000000 -0.000001 0.000000 0.031633 0.000001 -0.001297
# 5 -0.000331 -0.008667 0.001828 0.000001 0.030880 0.000000
# 6 0.000000 -0.000001 0.000000 -0.001297 0.000000 0.026332
#
#
# Mechanical properties :
#
#
# Convention : Reuss Voigt Hill
#
# Bulk Modulus (GPa) = 40.78970 48.99451 44.89211
# Shear Modulus (GPa) = 31.99891 36.08973 34.04432
#
# Velocity S-wave (km/s) = 3.56852 3.78977 3.68081
# Velocity P-wave (km/s) = 5.76297 6.21673 5.99415
#
# Compressibility (1/GPa) = 0.02451599
#
# Stress axis : x y z
#
# Youngs Moduli (GPa) = 107.24935 47.11005 88.29460
#
# Poissons Ratio (x) = 0.25381 0.10504
# Poissons Ratio (y) = 0.57783 0.18568
# Poissons Ratio (z) = 0.12759 0.09907
#
# Static dielectric constant tensor:
#      x y z
#    x 1.951500 0.000000 0.082640 
#    y 0.000000 2.067070 0.000000 
#    z 0.082640 0.000000 2.091820 
# 
# From -- ./inp_files/212568.got.cif
#   From: 2010.05.17/outbox.cif.g08.bks.cpg/sg15_107_cif.got.tgz:212568.got - 2010.06.03 18:47:42.
