data_PCOD9294624
_publ_section_title
;
Structure prediction by ZEFSAII (Michael W. Deem and Ramdas Pophale) SiO2 
 PCOD9294624
Probable space group: C 2/C
;
_chemical_formula_sum "Si O2"
_cell_formula_units_Z 56
_cell_length_a 20.250906
_cell_length_b 23.934649
_cell_length_c 16.572579
_cell_angle_alpha 90.000000
_cell_angle_beta 21.135121
_cell_angle_gamma 90.000000
_cell_volume 2896.340025
_symmetry_space_group_name_H-M "C 2/C"
_symmetry_group_IT_number 15
_symmetry_cell_setting 'monoclinic'
loop_
_space_group_symop_operation_xyz
x,y,z
-x,y,1/2-z
-x,-y,-z
x,-y,1/2+z
1/2+x,1/2+y,z
1/2-x,1/2+y,1/2-z
1/2-x,1/2-y,-z
1/2+x,1/2-y,1/2+z
loop_
_atom_site_type_symbol
_atom_site_label
_atom_site_fract_x
_atom_site_fract_y
_atom_site_fract_z
Si Si1 0.538916 0.204300 0.369988
Si Si2 0.500000 0.864116 0.750000
Si Si3 0.165788 0.397327 0.112069
Si Si4 0.897697 0.913509 0.287495
Si Si5 0.613603 0.312000 0.751643
Si Si6 0.084441 0.826002 0.973307
Si Si7 0.500000 0.478659 0.750000
Si Si8 0.813093 0.312708 0.286884
O O1 0.501835 0.174753 0.327513
O O2 0.539268 0.271639 0.365266
O O3 0.386096 0.191931 0.612583
O O4 0.729797 0.182652 0.188380
O O5 0.682977 0.901694 0.540092
O O6 0.095677 0.363627 0.269792
O O7 0.000000 0.422986 0.250000
O O8 0.258816 0.349716 0.949515
O O9 0.321350 0.440615 0.961188
O O10 0.000000 0.888054 0.250000
O O11 0.978657 0.881272 0.119559
O O12 0.956186 0.978232 0.227038
O O13 0.648166 0.245497 0.711487
O O14 0.631886 0.326671 0.825064
O O15 0.403858 0.321759 0.965993
#
# Coordination Sequence:
#
# PCOD9294624 Si02
#       8
#     8   4   8   8   8   8   4   8
#     4  11  22  34  61  94 127 161 198 243 311 376
#     4  12  22  39  66  90 119 164 200 250 314 360
#     4  12  23  41  66  89 121 160 205 253 305 362
#     4  10  23  41  62  83 119 161 206 252 296 349
#     4  11  21  37  61  92 128 160 197 248 306 373
#     4  11  21  39  57  93 129 160 202 250 301 369
#     4  10  24  43  62  88 117 162 214 258 294 352
#     4  11  21  38  58  95 130 158 197 244 310 373
#
# _framework density 19.334747
#
# number of rings (size 3 to 8) (size 9 to 14) (size 15 to 20)
#    0.429    0.571    2.857    7.286    2.000    1.143 
#    0.000    0.714    0.000    2.571    0.000    0.000 
#    0.000    0.000    0.000    0.000    0.000    0.000 
#
# Total GULP energy -156412.894328 kJ/mol
# GULP energy per Si atom -5586.174797 kJ/mol
# Density = 1.929074 g / cm^3
# Si number density = 19.334747 Si / 1000 Ang^3
#
#
#
# Elastic Constant Matrix: (Units=GPa)
#
#
# Indices 1 2 3 4 5 6 
#
# 1 87.1708 36.8281 19.6202 0.0172 -8.9162 -0.0192
# 2 36.8281 104.7423 25.3505 0.0284 9.1179 0.1655
# 3 19.6202 25.3505 76.7778 0.0658 -17.0538 0.2566
# 4 0.0172 0.0284 0.0658 25.2517 0.0191 -2.0734
# 5 -8.9162 9.1179 -17.0538 0.0191 32.3474 -0.0593
# 6 -0.0192 0.1655 0.2566 -2.0734 -0.0593 3.2648
#
#
#
# Elastic Compliance Matrix: (Units=1/GPa)
#
#
# Indices 1 2 3 4 5 6 
#
# 1 0.014414 -0.005312 -0.000811 0.000038 0.005044 0.000534
# 2 -0.005312 0.013225 -0.004713 -0.000034 -0.007677 -0.000492
# 3 -0.000811 -0.004713 0.017031 -0.000128 0.010082 -0.001003
# 4 0.000038 -0.000034 -0.000128 0.041781 -0.000024 0.026546
# 5 0.005044 -0.007677 0.010082 -0.000024 0.039784 0.000334
# 6 0.000534 -0.000492 -0.001003 0.026546 0.000334 0.323272
#
#
# Mechanical properties :
#
#
# Convention : Reuss Voigt Hill
#
# Bulk Modulus (GPa) = 43.48124 48.03204 45.75664
# Shear Modulus (GPa) = 10.44180 24.63226 17.53703
#
# Velocity S-wave (km/s) = 2.32643 3.57317 3.01495
# Velocity P-wave (km/s) = 5.45471 6.47454 5.98638
#
# Compressibility (1/GPa) = 0.02299843
#
# Stress axis : x y z
#
# Youngs Moduli (GPa) = 69.37478 75.61658 58.71735
#
# Poissons Ratio (x) = 0.40166 0.04763
# Poissons Ratio (y) = 0.36851 0.27672
# Poissons Ratio (z) = 0.05628 0.35636
#
# Static dielectric constant tensor:
#      x y z
#    x 1.691450 -0.000060 -0.016750 
#    y -0.000060 1.666200 0.000070 
#    z -0.016750 0.000070 1.682190 
# 
# From -- ./inp_files/216898.got.cif
#   From: 2010.05.17/outbox.cif.g08.bks.cpg/sg15_109_cif.got.tgz:216898.got - 2010.06.03 18:47:42.
