data_PCOD9294401
_publ_section_title
;
Structure prediction by ZEFSAII (Michael W. Deem and Ramdas Pophale) SiO2 
 PCOD9294401
Probable space group: C 2/C
;
_chemical_formula_sum "Si O2"
_cell_formula_units_Z 32
_cell_length_a 8.554447
_cell_length_b 8.662829
_cell_length_c 23.151291
_cell_angle_alpha 90.000000
_cell_angle_beta 55.945543
_cell_angle_gamma 90.000000
_cell_volume 1421.419935
_symmetry_space_group_name_H-M "C 2/C"
_symmetry_group_IT_number 15
_symmetry_cell_setting 'monoclinic'
loop_
_space_group_symop_operation_xyz
x,y,z
-x,y,1/2-z
-x,-y,-z
x,-y,1/2+z
1/2+x,1/2+y,z
1/2-x,1/2+y,1/2-z
1/2-x,1/2-y,-z
1/2+x,1/2-y,1/2+z
loop_
_atom_site_type_symbol
_atom_site_label
_atom_site_fract_x
_atom_site_fract_y
_atom_site_fract_z
Si Si1 0.652430 0.781951 0.959416
Si Si2 0.273823 0.796199 0.786912
Si Si3 0.160270 0.138641 0.841237
Si Si4 0.774853 0.636975 0.587456
O O1 0.721545 0.672430 0.893700
O O2 0.693016 0.956611 0.931029
O O3 0.750000 0.750000 0.000000
O O4 0.429471 0.770226 0.018832
O O5 0.500000 0.806605 0.750000
O O6 0.239864 0.739710 0.728898
O O7 0.200024 0.676619 0.850175
O O8 0.186460 0.961709 0.818296
O O9 0.938365 0.178398 0.884517
#
# Coordination Sequence:
#
# PCOD9294401 Si02
#       4
#     8   8   8   8
#     4  11  24  40  64  94 126 164 206 253 309 369
#     4  10  23  40  64  93 122 161 207 258 309 363
#     4  11  23  42  65  90 125 163 206 255 309 367
#     4  10  23  42  62  91 126 161 206 255 308 366
#
# _framework density 22.512701
#
# number of rings (size 3 to 8) (size 9 to 14) (size 15 to 20)
#    0.000    1.500    0.000    3.750    0.000   16.000 
#    0.000    0.000    0.000    0.000    0.000    0.000 
#    0.000    0.000    0.000    0.000    0.000    0.000 
#
# Total GULP energy -89559.476649 kJ/mol
# GULP energy per Si atom -5597.467291 kJ/mol
# Density = 2.246146 g / cm^3
# Si number density = 22.512701 Si / 1000 Ang^3
#
#
#
# Elastic Constant Matrix: (Units=GPa)
#
#
# Indices 1 2 3 4 5 6 
#
# 1 64.2128 30.7008 64.1894 0.0000 30.6248 0.0000
# 2 30.7008 98.9979 79.2987 0.0000 26.7411 0.0000
# 3 64.1894 79.2987 195.7804 0.0000 45.8938 0.0000
# 4 0.0000 0.0000 0.0000 51.2053 0.0000 6.4372
# 5 30.6248 26.7411 45.8938 0.0000 32.4788 0.0000
# 6 0.0000 0.0000 0.0000 6.4372 0.0000 23.0158
#
#
#
# Elastic Compliance Matrix: (Units=1/GPa)
#
#
# Indices 1 2 3 4 5 6 
#
# 1 0.031275 0.000561 -0.005174 0.000000 -0.022641 0.000000
# 2 0.000561 0.015679 -0.005061 0.000000 -0.006287 0.000000
# 3 -0.005174 -0.005061 0.010069 0.000000 -0.005182 0.000000
# 4 0.000000 0.000000 0.000000 0.020241 0.000000 -0.005661
# 5 -0.022641 -0.006287 -0.005182 0.000000 0.064637 0.000000
# 6 0.000000 0.000000 0.000000 -0.005661 0.000000 0.045032
#
#
# Mechanical properties :
#
#
# Convention : Reuss Voigt Hill
#
# Bulk Modulus (GPa) = 26.54227 78.59656 52.56942
# Shear Modulus (GPa) = 22.84793 33.66013 28.25403
#
# Velocity S-wave (km/s) = 3.18919 3.87093 3.54648
# Velocity P-wave (km/s) = 5.03753 7.41395 6.33812
#
# Compressibility (1/GPa) = 0.03767575
#
# Stress axis : x y z
#
# Youngs Moduli (GPa) = 31.97451 63.77804 99.31740
#
# Poissons Ratio (x) = -0.03579 0.51386
# Poissons Ratio (y) = -0.01794 0.50264
# Poissons Ratio (z) = 0.16543 0.32278
#
# Static dielectric constant tensor:
#      x y z
#    x 1.856330 0.000000 -0.011810 
#    y 0.000000 1.781850 0.000000 
#    z -0.011810 0.000000 1.829540 
# 
# From -- ./inp_files/229161.got.cif
#   From: 2010.05.17/outbox.cif.g08.bks.cpg/sg15_115_cif.got.tgz:229161.got - 2010.06.03 18:47:42.
