data_PCOD9294004
_publ_section_title
;
Structure prediction by ZEFSAII (Michael W. Deem and Ramdas Pophale) SiO2 
 PCOD9294004
Probable space group: C 2/C
;
_chemical_formula_sum "Si O2"
_cell_formula_units_Z 44
_cell_length_a 22.326787
_cell_length_b 5.192550
_cell_length_c 14.277114
_cell_angle_alpha 90.000000
_cell_angle_beta 96.362185
_cell_angle_gamma 90.000000
_cell_volume 1644.994202
_symmetry_space_group_name_H-M "C 2/C"
_symmetry_group_IT_number 15
_symmetry_cell_setting 'monoclinic'
loop_
_space_group_symop_operation_xyz
x,y,z
-x,y,1/2-z
-x,-y,-z
x,-y,1/2+z
1/2+x,1/2+y,z
1/2-x,1/2+y,1/2-z
1/2-x,1/2-y,-z
1/2+x,1/2-y,1/2+z
loop_
_atom_site_type_symbol
_atom_site_label
_atom_site_fract_x
_atom_site_fract_y
_atom_site_fract_z
Si Si1 0.674364 0.857298 0.061569
Si Si2 0.773886 0.026103 0.702631
Si Si3 0.514072 0.322862 0.596990
Si Si4 0.000000 0.440982 0.750000
Si Si5 0.874890 0.142575 0.841391
Si Si6 0.420474 0.695719 0.584492
O O1 0.744047 0.925246 0.095761
O O2 0.658610 0.579435 0.103006
O O3 0.642404 0.085711 0.115792
O O4 0.642749 0.822248 0.955694
O O5 0.740742 0.237159 0.764695
O O6 0.843434 0.090292 0.735069
O O7 0.529748 0.123445 0.678662
O O8 0.555528 0.567917 0.633925
O O9 0.442871 0.394682 0.588890
O O10 0.538035 0.235139 0.500512
O O11 0.051712 0.303036 0.816618
#
# Coordination Sequence:
#
# PCOD9294004 Si02
#       6
#     8   8   8   4   8   8
#     4   9  18  31  55  82 113 149 188 238 286 340
#     4   8  14  28  48  81 111 139 187 234 280 337
#     4  10  23  38  57  84 117 156 195 242 292 348
#     4  12  24  38  56  84 114 158 196 246 286 360
#     4   9  18  31  55  82 113 149 188 238 286 340
#     4  10  23  38  59  82 118 155 194 241 295 345
#
# _framework density 26.747812
#
# number of rings (size 3 to 8) (size 9 to 14) (size 15 to 20)
#    0.000    2.545    0.000    1.091   12.727    0.000 
#    0.000    0.000    0.000    1.091    0.000    5.091 
#    0.000    0.000    0.000    0.000    0.000    0.000 
#
# Total GULP energy -122799.670928 kJ/mol
# GULP energy per Si atom -5581.803224 kJ/mol
# Density = 2.668693 g / cm^3
# Si number density = 26.747812 Si / 1000 Ang^3
#
#
#
# Elastic Constant Matrix: (Units=GPa)
#
#
# Indices 1 2 3 4 5 6 
#
# 1 85.9271 15.9632 -6.9583 0.0000 38.4284 0.0000
# 2 15.9632 114.8060 10.6880 0.0000 -8.2020 0.0000
# 3 -6.9583 10.6880 150.8630 0.0000 47.4659 0.0000
# 4 0.0000 0.0000 0.0000 31.5395 0.0000 3.5117
# 5 38.4284 -8.2020 47.4659 0.0000 44.8724 0.0000
# 6 0.0000 0.0000 0.0000 3.5117 0.0000 18.2917
#
#
#
# Elastic Compliance Matrix: (Units=1/GPa)
#
#
# Indices 1 2 3 4 5 6 
#
# 1 0.047462 -0.013923 0.025128 0.000000 -0.069771 0.000000
# 2 -0.013923 0.013210 -0.009127 0.000000 0.023993 0.000000
# 3 0.025128 -0.009127 0.023576 0.000000 -0.048126 0.000000
# 4 0.000000 0.000000 0.000000 0.032399 0.000000 -0.006220
# 5 -0.069771 0.023993 -0.048126 0.000000 0.137330 0.000000
# 6 0.000000 0.000000 0.000000 -0.006220 0.000000 0.055864
#
#
# Mechanical properties :
#
#
# Convention : Reuss Voigt Hill
#
# Bulk Modulus (GPa) = 11.31184 43.44243 27.37714
# Shear Modulus (GPa) = 14.91855 41.06760 27.99308
#
# Velocity S-wave (km/s) = 2.36423 3.92262 3.23856
# Velocity P-wave (km/s) = 3.41922 6.06570 4.92360
#
# Compressibility (1/GPa) = 0.08840293
#
# Stress axis : x y z
#
# Youngs Moduli (GPa) = 21.06938 75.69979 42.41630
#
# Poissons Ratio (x) = 1.05399 -1.06582
# Poissons Ratio (y) = 0.29335 0.38713
# Poissons Ratio (z) = -0.52942 0.69090
#
# Static dielectric constant tensor:
#      x y z
#    x 2.202360 0.000000 0.031470 
#    y 0.000000 2.123600 0.000000 
#    z 0.031470 0.000000 2.150100 
# 
# From -- ./inp_files/175443.got.cif
#   From: 2010.05.17/outbox.cif.g08.bks.cpg/sg15_88_cif.got.tgz:175443.got - 2010.06.03 18:47:42.
