data_PCOD9294130
_publ_section_title
;
Structure prediction by ZEFSAII (Michael W. Deem and Ramdas Pophale) SiO2 
 PCOD9294130
Probable space group: C 2/C
;
_chemical_formula_sum "Si O2"
_cell_formula_units_Z 56
_cell_length_a 22.160065
_cell_length_b 8.627966
_cell_length_c 14.502533
_cell_angle_alpha 90.000000
_cell_angle_beta 108.752362
_cell_angle_gamma 90.000000
_cell_volume 2625.639968
_symmetry_space_group_name_H-M "C 2/C"
_symmetry_group_IT_number 15
_symmetry_cell_setting 'monoclinic'
loop_
_space_group_symop_operation_xyz
x,y,z
-x,y,1/2-z
-x,-y,-z
x,-y,1/2+z
1/2+x,1/2+y,z
1/2-x,1/2+y,1/2-z
1/2-x,1/2-y,-z
1/2+x,1/2-y,1/2+z
loop_
_atom_site_type_symbol
_atom_site_label
_atom_site_fract_x
_atom_site_fract_y
_atom_site_fract_z
Si Si1 0.424381 0.204070 0.735522
Si Si2 0.882958 0.806681 0.036219
Si Si3 0.209012 0.180892 0.681093
Si Si4 0.106254 0.345044 0.756722
Si Si5 0.624874 0.325126 0.974768
Si Si6 0.830075 0.178421 0.324292
Si Si7 0.985010 0.324827 0.954494
O O1 0.500000 0.219311 0.750000
O O2 0.382704 0.254290 0.628316
O O3 0.398866 0.302526 0.809435
O O4 0.405339 0.027179 0.742038
O O5 0.883804 0.727610 0.136969
O O6 0.948583 0.759485 0.020967
O O7 0.879278 0.991179 0.040854
O O8 0.831401 0.764842 0.931517
O O9 0.166152 0.289582 0.725860
O O10 0.187064 0.213736 0.565674
O O11 0.280757 0.219397 0.742116
O O12 0.190674 0.001303 0.689014
O O13 0.045448 0.304086 0.662715
O O14 0.565318 0.257257 0.003326
O O15 0.000000 0.500000 0.000000
#
# Coordination Sequence:
#
# PCOD9294130 Si02
#       7
#     8   8   8   8   8   8   8
#     4  12  24  40  64  97 128 166 209 257 317 378
#     4  11  22  38  60  91 124 165 207 259 319 373
#     4  10  24  45  65  92 122 168 217 262 318 371
#     4  11  23  39  63  93 127 163 209 258 311 378
#     4  10  23  39  60  89 126 164 210 262 315 376
#     4  11  24  43  67  90 126 166 213 265 313 379
#     4  11  21  38  61  90 127 166 210 258 313 375
#
# _framework density 21.328133000000001
#
# number of rings (size 3 to 8) (size 9 to 14) (size 15 to 20)
#    0.000    1.143    0.000    6.857    0.000    8.000 
#    0.000    0.714    0.000    0.000    0.000    0.000 
#    0.000    0.000    0.000    0.000    0.000    0.000 
#
# Total GULP energy -156371.517067 kJ/mol
# GULP energy per Si atom -5584.697038 kJ/mol
# Density = 2.127959 g / cm^3
# Si number density = 21.328133 Si / 1000 Ang^3
#
#
#
# Elastic Constant Matrix: (Units=GPa)
#
#
# Indices 1 2 3 4 5 6 
#
# 1 62.1951 14.9241 41.4855 0.0000 11.9948 0.0000
# 2 14.9241 25.7994 18.9949 0.0000 8.0284 0.0000
# 3 41.4855 18.9949 147.7125 0.0000 -4.1867 0.0000
# 4 0.0000 0.0000 0.0000 35.5960 0.0000 -7.3316
# 5 11.9948 8.0284 -4.1867 0.0000 27.2513 0.0000
# 6 0.0000 0.0000 0.0000 -7.3316 0.0000 33.6139
#
#
#
# Elastic Compliance Matrix: (Units=1/GPa)
#
#
# Indices 1 2 3 4 5 6 
#
# 1 0.023407 -0.006155 -0.006049 0.000000 -0.009419 0.000000
# 2 -0.006155 0.050040 -0.005069 0.000000 -0.012812 0.000000
# 3 -0.006049 -0.005069 0.009279 0.000000 0.005582 0.000000
# 4 0.000000 0.000000 0.000000 0.029414 0.000000 0.006416
# 5 -0.009419 -0.012812 0.005582 0.000000 0.045473 0.000000
# 6 0.000000 0.000000 0.000000 0.006416 0.000000 0.031149
#
#
# Mechanical properties :
#
#
# Convention : Reuss Voigt Hill
#
# Bulk Modulus (GPa) = 20.75625 42.94624 31.85124
# Shear Modulus (GPa) = 20.88817 29.97907 25.43362
#
# Velocity S-wave (km/s) = 3.13289 3.75322 3.45699
# Velocity P-wave (km/s) = 4.77908 6.24194 5.55884
#
# Compressibility (1/GPa) = 0.04817827
#
# Stress axis : x y z
#
# Youngs Moduli (GPa) = 42.72232 19.98392 107.77079
#
# Poissons Ratio (x) = 0.12301 0.65194
# Poissons Ratio (y) = 0.26297 0.54631
# Poissons Ratio (z) = 0.25844 0.10130
#
# Static dielectric constant tensor:
#      x y z
#    x 1.776300 0.000000 0.001550 
#    y 0.000000 1.718350 0.000000 
#    z 0.001550 0.000000 1.785720 
# 
# From -- ./inp_files/172483.got.cif
#   From: 2010.05.17/outbox.cif.g08.bks.cpg/sg15_87_cif.got.tgz:172483.got - 2010.06.03 18:47:42.
