data_PCOD9294892
_publ_section_title
;
Structure prediction by ZEFSAII (Michael W. Deem and Ramdas Pophale) SiO2 
 PCOD9294892
Probable space group: C 2/C
;
_chemical_formula_sum "Si O2"
_cell_formula_units_Z 44
_cell_length_a 27.106004
_cell_length_b 7.752969
_cell_length_c 9.780984
_cell_angle_alpha 90.000000
_cell_angle_beta 114.899533
_cell_angle_gamma 90.000000
_cell_volume 1864.430070
_symmetry_space_group_name_H-M "C 2/C"
_symmetry_group_IT_number 15
_symmetry_cell_setting 'monoclinic'
loop_
_space_group_symop_operation_xyz
x,y,z
-x,y,1/2-z
-x,-y,-z
x,-y,1/2+z
1/2+x,1/2+y,z
1/2-x,1/2+y,1/2-z
1/2-x,1/2-y,-z
1/2+x,1/2-y,1/2+z
loop_
_atom_site_type_symbol
_atom_site_label
_atom_site_fract_x
_atom_site_fract_y
_atom_site_fract_z
Si Si1 0.000000 0.531701 0.750000
Si Si2 0.478397 0.363282 0.867469
Si Si3 0.796900 0.141400 0.903028
Si Si4 0.639499 0.522838 0.268199
Si Si5 0.885822 0.349439 0.639467
Si Si6 0.178115 0.515837 0.687192
O O1 0.999566 0.666964 0.620399
O O2 0.053508 0.417358 0.811622
O O3 0.500000 0.438274 0.750000
O O4 0.413470 0.358039 0.800777
O O5 0.500000 0.500000 0.000000
O O6 0.833892 0.026139 0.844337
O O7 0.808637 0.336719 0.874498
O O8 0.734682 0.096045 0.802034
O O9 0.815827 0.100207 0.077822
O O10 0.617990 0.344266 0.309367
O O11 0.857711 0.466559 0.723504
O O12 0.852551 0.369533 0.460316
#
# Coordination Sequence:
#
# PCOD9294892 Si02
#       6
#     4   8   8   8   8   8
#     4  10  26  44  68  96 136 176 220 274 334 388
#     4  10  23  41  68  95 131 172 220 266 327 393
#     4  11  24  43  70  99 135 174 223 276 338 396
#     4  11  24  43  69  99 132 177 222 276 334 399
#     4  11  26  44  67  99 137 175 226 273 332 396
#     4  11  25  44  67 100 134 175 223 277 334 399
#
# _framework density 23.599703999999999
#
# number of rings (size 3 to 8) (size 9 to 14) (size 15 to 20)
#    0.545    0.727    0.000    4.364    6.364   12.364 
#    0.000    0.000    0.000    0.000    0.000    0.000 
#    0.000    0.000    0.000    0.000    0.000    0.000 
#
# Total GULP energy -123331.296761 kJ/mol
# GULP energy per Si atom -5605.968035 kJ/mol
# Density = 2.354599 g / cm^3
# Si number density = 23.599704 Si / 1000 Ang^3
#
#
#
# Elastic Constant Matrix: (Units=GPa)
#
#
# Indices 1 2 3 4 5 6 
#
# 1 114.0777 39.8674 -5.6664 0.0000 0.5183 0.0000
# 2 39.8674 112.8136 14.1010 0.0000 -2.1550 0.0000
# 3 -5.6664 14.1010 42.5339 0.0000 -11.0313 0.0000
# 4 0.0000 0.0000 0.0000 -3.8140 0.0000 26.6356
# 5 0.5183 -2.1550 -11.0313 0.0000 30.5963 0.0000
# 6 0.0000 0.0000 0.0000 26.6356 0.0000 -53.7559
#
#
#
# Elastic Compliance Matrix: (Units=1/GPa)
#
#
# Indices 1 2 3 4 5 6 
#
# 1 0.010296 -0.003983 0.002840 0.000000 0.000569 0.000000
# 2 -0.003983 0.010795 -0.004296 0.000000 -0.000721 0.000000
# 3 0.002840 -0.004296 0.027824 0.000000 0.009681 0.000000
# 4 0.000000 0.000000 0.000000 0.106568 0.000000 0.052803
# 5 0.000569 -0.000721 0.009681 0.000000 0.036114 0.000000
# 6 0.000000 0.000000 0.000000 0.052803 0.000000 0.007561
#
#
# Mechanical properties :
#
#
# Convention : Reuss Voigt Hill
#
# Bulk Modulus (GPa) = 26.29069 40.66992 33.48031
# Shear Modulus (GPa) = 22.45013 9.34682 15.89847
#
# Velocity S-wave (km/s) = 3.08764 1.99228 2.59834
# Velocity P-wave (km/s) = 4.88629 4.75004 4.81865
#
# Compressibility (1/GPa) = 0.03803627
#
# Stress axis : x y z
#
# Youngs Moduli (GPa) = 97.12253 92.63650 35.94000
#
# Poissons Ratio (x) = 0.36894 -0.10205
# Poissons Ratio (y) = 0.38681 0.15441
# Poissons Ratio (z) = -0.27579 0.39800
#
# Static dielectric constant tensor:
#      x y z
#    x 1.839920 0.000000 -0.021180 
#    y 0.000000 1.907220 0.000000 
#    z -0.021180 0.000000 1.857170 
# 
# From -- ./inp_files/68665.got.cif
#   From: 2010.05.17/outbox.cif.g08.bks.cpg/sg15_35_cif.got.tgz:68665.got - 2010.06.03 18:47:42.
