data_PCOD9294705
_publ_section_title
;
Structure prediction by ZEFSAII (Michael W. Deem and Ramdas Pophale) SiO2 
 PCOD9294705
Probable space group: C 2/C
;
_chemical_formula_sum "Si O2"
_cell_formula_units_Z 48
_cell_length_a 9.847334
_cell_length_b 9.711960
_cell_length_c 25.485053
_cell_angle_alpha 90.000000
_cell_angle_beta 62.339096
_cell_angle_gamma 90.000000
_cell_volume 2158.752930
_symmetry_space_group_name_H-M "C 2/C"
_symmetry_group_IT_number 15
_symmetry_cell_setting 'monoclinic'
loop_
_space_group_symop_operation_xyz
x,y,z
-x,y,1/2-z
-x,-y,-z
x,-y,1/2+z
1/2+x,1/2+y,z
1/2-x,1/2+y,1/2-z
1/2-x,1/2-y,-z
1/2+x,1/2-y,1/2+z
loop_
_atom_site_type_symbol
_atom_site_label
_atom_site_fract_x
_atom_site_fract_y
_atom_site_fract_z
Si Si1 0.849106 0.554950 0.745621
Si Si2 0.511600 0.177291 0.544081
Si Si3 0.182565 0.722119 0.210720
Si Si4 0.581711 0.906214 0.876587
Si Si5 0.193190 0.872849 0.581404
Si Si6 0.314019 0.691087 0.908911
O O1 0.763206 0.436455 0.794738
O O2 0.751676 0.683556 0.743865
O O3 0.000000 0.598517 0.750000
O O4 0.897770 0.473290 0.684012
O O5 0.657298 0.163491 0.480397
O O6 0.559573 0.276869 0.583373
O O7 0.358628 0.226619 0.541103
O O8 0.473180 0.028278 0.574927
O O9 0.208871 0.791669 0.149914
O O10 0.000000 0.716368 0.250000
O O11 0.743277 0.852560 0.871031
O O12 0.451225 0.791160 0.898939
O O13 0.152319 0.033358 0.583000
#
# Coordination Sequence:
#
# PCOD9294705 Si02
#       6
#     8   8   8   8   8   8
#     4  11  23  42  60  90 123 158 209 254 301 367
#     4  10  23  41  64  95 125 160 209 253 306 374
#     4  11  23  42  60  90 123 158 209 254 301 367
#     4  11  21  41  63  86 127 163 198 254 310 359
#     4  10  23  41  64  95 125 160 209 253 306 374
#     4  11  21  41  63  86 127 163 198 254 310 359
#
# _framework density 22.235059
#
# number of rings (size 3 to 8) (size 9 to 14) (size 15 to 20)
#    0.000    1.333    6.667    2.000    0.000    7.333 
#    0.000    3.333    0.000    0.000    0.000    0.000 
#    0.000    0.000    0.000    0.000    0.000    0.000 
#
# Total GULP energy -134163.880245 kJ/mol
# GULP energy per Si atom -5590.161677 kJ/mol
# Density = 2.218445 g / cm^3
# Si number density = 22.235059 Si / 1000 Ang^3
#
#
#
# Elastic Constant Matrix: (Units=GPa)
#
#
# Indices 1 2 3 4 5 6 
#
# 1 111.1965 60.2378 -15.6358 0.0000 23.7225 0.0000
# 2 60.2378 84.3418 -31.3853 0.0000 9.2650 0.0000
# 3 -15.6358 -31.3853 32.8371 0.0000 8.7031 0.0000
# 4 0.0000 0.0000 0.0000 27.6074 0.0000 7.6828
# 5 23.7225 9.2650 8.7031 0.0000 33.6387 0.0000
# 6 0.0000 0.0000 0.0000 7.6828 0.0000 33.7571
#
#
#
# Elastic Compliance Matrix: (Units=1/GPa)
#
#
# Indices 1 2 3 4 5 6 
#
# 1 0.016893 -0.011264 -0.000415 0.000000 -0.008704 0.000000
# 2 -0.011264 0.029994 0.025111 0.000000 -0.006814 0.000000
# 3 -0.000415 0.025111 0.060135 0.000000 -0.022182 0.000000
# 4 0.000000 0.000000 0.000000 0.038671 0.000000 -0.008801
# 5 -0.008704 -0.006814 -0.022182 0.000000 0.043482 0.000000
# 6 0.000000 0.000000 0.000000 -0.008801 0.000000 0.031627
#
#
# Mechanical properties :
#
#
# Convention : Reuss Voigt Hill
#
# Bulk Modulus (GPa) = 7.46900 28.31208 17.89054
# Shear Modulus (GPa) = 20.95848 33.34457 27.15152
#
# Velocity S-wave (km/s) = 3.07349 3.87672 3.49823
# Velocity P-wave (km/s) = 3.99519 5.72707 4.93765
#
# Compressibility (1/GPa) = 0.13388669
#
# Stress axis : x y z
#
# Youngs Moduli (GPa) = 59.19459 33.34015 16.62916
#
# Poissons Ratio (x) = 0.37553 0.00690
# Poissons Ratio (y) = 0.66675 -0.41757
# Poissons Ratio (z) = 0.02455 -0.83719
#
# Static dielectric constant tensor:
#      x y z
#    x 1.817750 0.000000 0.001790 
#    y 0.000000 1.805210 0.000000 
#    z 0.001790 0.000000 1.896600 
# 
# From -- ./inp_files/263548.got.cif
#   From: 2010.05.17/outbox.cif.g08.bks.cpg/sg15_132_cif.got.tgz:263548.got - 2010.06.03 18:47:42.
