data_PCOD9294603
_publ_section_title
;
Structure prediction by ZEFSAII (Michael W. Deem and Ramdas Pophale) SiO2 
 PCOD9294603
Probable space group: C 2/C
;
_chemical_formula_sum "Si O2"
_cell_formula_units_Z 56
_cell_length_a 9.023576
_cell_length_b 17.561610
_cell_length_c 18.749205
_cell_angle_alpha 90.000000
_cell_angle_beta 62.824011
_cell_angle_gamma 90.000000
_cell_volume 2643.166210
_symmetry_space_group_name_H-M "C 2/C"
_symmetry_group_IT_number 15
_symmetry_cell_setting 'monoclinic'
loop_
_space_group_symop_operation_xyz
x,y,z
-x,y,1/2-z
-x,-y,-z
x,-y,1/2+z
1/2+x,1/2+y,z
1/2-x,1/2+y,1/2-z
1/2-x,1/2-y,-z
1/2+x,1/2-y,1/2+z
loop_
_atom_site_type_symbol
_atom_site_label
_atom_site_fract_x
_atom_site_fract_y
_atom_site_fract_z
Si Si1 0.149750 0.384876 0.959846
Si Si2 0.977661 0.863549 0.586080
Si Si3 0.051020 0.481059 0.592839
Si Si4 0.347850 0.202085 0.586470
Si Si5 0.640739 0.394159 0.031559
Si Si6 0.381785 0.100619 0.720160
Si Si7 0.941741 0.991874 0.181485
O O1 0.335961 0.354882 0.924435
O O2 0.105269 0.429637 0.897441
O O3 0.103153 0.450796 0.027362
O O4 0.016692 0.319426 0.006623
O O5 0.865935 0.788292 0.607357
O O6 0.999502 0.884835 0.497385
O O7 0.898271 0.929809 0.651543
O O8 0.205852 0.424575 0.550039
O O9 0.993942 0.527631 0.673350
O O10 0.200125 0.178162 0.564871
O O11 0.342708 0.149053 0.657821
O O12 0.589201 0.456472 0.100992
O O13 0.500000 0.144350 0.750000
O O14 0.208277 0.068534 0.787326
O O15 0.000000 0.002284 0.250000
#
# Coordination Sequence:
#
# PCOD9294603 Si02
#       7
#     8   8   8   8   8   8   8
#     4   9  18  34  61  89 118 155 205 264 316 364
#     4  12  23  37  67  98 123 161 229 276 306 394
#     4   9  18  38  61  90 120 163 211 264 313 375
#     4  10  23  41  59  89 134 166 206 269 347 376
#     4  11  22  41  67  92 126 169 218 270 323 394
#     4  11  23  39  63  87 128 174 211 259 334 411
#     4  12  24  41  66  97 130 167 220 273 329 389
#
# _framework density 21.186712
#
# number of rings (size 3 to 8) (size 9 to 14) (size 15 to 20)
#    0.000    1.429    2.857    3.857    4.000    0.571 
#    0.000    0.000   12.571    0.000    0.000    0.000 
#    0.000    0.000    0.000    0.000    0.000    0.000 
#
# Total GULP energy -156226.340623 kJ/mol
# GULP energy per Si atom -5579.512165 kJ/mol
# Density = 2.113849 g / cm^3
# Si number density = 21.186712 Si / 1000 Ang^3
#
#
#
# Elastic Constant Matrix: (Units=GPa)
#
#
# Indices 1 2 3 4 5 6 
#
# 1 55.4368 10.8919 24.3097 0.0000 17.3033 0.0000
# 2 10.8919 92.1786 16.7011 0.0000 8.3240 0.0000
# 3 24.3097 16.7011 77.6949 0.0000 14.2556 0.0000
# 4 0.0000 0.0000 0.0000 13.4400 0.0000 13.1722
# 5 17.3033 8.3240 14.2556 0.0000 32.4215 0.0000
# 6 0.0000 0.0000 0.0000 13.1722 0.0000 21.9781
#
#
#
# Elastic Compliance Matrix: (Units=1/GPa)
#
#
# Indices 1 2 3 4 5 6 
#
# 1 0.023716 -0.000920 -0.005378 0.000000 -0.010057 0.000000
# 2 -0.000920 0.011443 -0.001874 0.000000 -0.001623 0.000000
# 3 -0.005378 -0.001874 0.015600 0.000000 -0.003508 0.000000
# 4 0.000000 0.000000 0.000000 0.180327 0.000000 -0.108075
# 5 -0.010057 -0.001623 -0.003508 0.000000 0.038170 0.000000
# 6 0.000000 0.000000 0.000000 -0.108075 0.000000 0.110273
#
#
# Mechanical properties :
#
#
# Convention : Reuss Voigt Hill
#
# Bulk Modulus (GPa) = 29.05596 36.56841 32.81219
# Shear Modulus (GPa) = 12.27461 25.12843 18.70152
#
# Velocity S-wave (km/s) = 2.40959 3.44764 2.97425
# Velocity P-wave (km/s) = 4.63525 5.75724 5.22644
#
# Compressibility (1/GPa) = 0.03441635
#
# Stress axis : x y z
#
# Youngs Moduli (GPa) = 42.16486 87.38715 64.10264
#
# Poissons Ratio (x) = 0.08039 0.34472
# Poissons Ratio (y) = 0.03879 0.12014
# Poissons Ratio (z) = 0.22675 0.16378
#
# Static dielectric constant tensor:
#      x y z
#    x 1.827050 0.000000 0.030800 
#    y 0.000000 1.785570 0.000000 
#    z 0.030800 0.000000 1.755340 
# 
# From -- ./inp_files/190920.got.cif
#   From: 2010.05.17/outbox.cif.g08.bks.cpg/sg15_96_cif.got.tgz:190920.got - 2010.06.03 18:47:42.
