data_PCOD9294858
_publ_section_title
;
Structure prediction by ZEFSAII (Michael W. Deem and Ramdas Pophale) SiO2 
 PCOD9294858
Probable space group: C 2/C
;
_chemical_formula_sum "Si O2"
_cell_formula_units_Z 36
_cell_length_a 11.311798
_cell_length_b 22.408883
_cell_length_c 7.976352
_cell_angle_alpha 90.000000
_cell_angle_beta 128.083309
_cell_angle_gamma 90.000000
_cell_volume 1591.454426
_symmetry_space_group_name_H-M "C 2/C"
_symmetry_group_IT_number 15
_symmetry_cell_setting 'monoclinic'
loop_
_space_group_symop_operation_xyz
x,y,z
-x,y,1/2-z
-x,-y,-z
x,-y,1/2+z
1/2+x,1/2+y,z
1/2-x,1/2+y,1/2-z
1/2-x,1/2-y,-z
1/2+x,1/2-y,1/2+z
loop_
_atom_site_type_symbol
_atom_site_label
_atom_site_fract_x
_atom_site_fract_y
_atom_site_fract_z
Si Si1 0.704402 0.446248 0.048790
Si Si2 0.000000 0.626199 0.750000
Si Si3 0.388215 0.572939 0.417784
Si Si4 0.895537 0.797205 0.004671
Si Si5 0.641914 0.764236 0.557315
O O1 0.690853 0.517837 0.057727
O O2 0.866029 0.414556 0.209787
O O3 0.661529 0.429757 0.820037
O O4 0.570593 0.428707 0.061047
O O5 0.933386 0.671705 0.550930
O O6 0.350187 0.634292 0.473540
O O7 0.000000 0.779381 0.250000
O O8 0.014381 0.785314 0.959471
O O9 0.748191 0.763636 0.813633
O O10 0.750000 0.750000 0.500000
#
# Coordination Sequence:
#
# PCOD9294858 Si02
#       5
#     8   4   8   8   8
#     4  10  23  41  67  99 134 179 235 283 344 415
#     4  12  22  42  74 100 138 176 238 288 332 418
#     4  10  23  43  67  97 134 184 231 281 346 421
#     4  12  26  43  69 102 141 178 229 292 352 412
#     4  12  24  45  70 104 134 188 233 283 347 423
#
# _framework density 22.620816999999999
#
# number of rings (size 3 to 8) (size 9 to 14) (size 15 to 20)
#    0.000    0.889    4.444    2.000    9.333    0.889 
#    0.000    0.000    0.000    0.000    0.000    0.000 
#    0.000    0.000    0.000    0.000    0.000    0.000 
#
# Total GULP energy -100430.617054 kJ/mol
# GULP energy per Si atom -5579.478725 kJ/mol
# Density = 2.256933 g / cm^3
# Si number density = 22.620817 Si / 1000 Ang^3
#
#
#
# Elastic Constant Matrix: (Units=GPa)
#
#
# Indices 1 2 3 4 5 6 
#
# 1 66.7388 36.5907 29.6673 0.0000 21.0322 0.0000
# 2 36.5907 63.1152 9.3424 0.0000 35.3617 0.0000
# 3 29.6673 9.3424 147.0960 0.0000 9.5576 0.0000
# 4 0.0000 0.0000 0.0000 27.3128 0.0000 9.6760
# 5 21.0322 35.3617 9.5576 0.0000 31.5090 0.0000
# 6 0.0000 0.0000 0.0000 9.6760 0.0000 40.4482
#
#
#
# Elastic Compliance Matrix: (Units=1/GPa)
#
#
# Indices 1 2 3 4 5 6 
#
# 1 0.024104 -0.013598 -0.004023 0.000000 0.000392 0.000000
# 2 -0.013598 0.050377 0.002680 0.000000 -0.048272 0.000000
# 3 -0.004023 0.002680 0.007610 0.000000 -0.002630 0.000000
# 4 0.000000 0.000000 0.000000 0.040003 0.000000 -0.009570
# 5 0.000392 -0.048272 -0.002630 0.000000 0.086447 0.000000
# 6 0.000000 0.000000 0.000000 -0.009570 0.000000 0.027012
#
#
# Mechanical properties :
#
#
# Convention : Reuss Voigt Hill
#
# Bulk Modulus (GPa) = 19.15454 47.57232 33.36343
# Shear Modulus (GPa) = 17.67779 33.27730 25.47755
#
# Velocity S-wave (km/s) = 2.79854 3.83964 3.35966
# Velocity P-wave (km/s) = 4.35068 6.38225 5.46176
#
# Compressibility (1/GPa) = 0.05220695
#
# Stress axis : x y z
#
# Youngs Moduli (GPa) = 41.48631 19.85050 131.39848
#
# Poissons Ratio (x) = 0.26994 0.52866
# Poissons Ratio (y) = 0.56415 -0.35209
# Poissons Ratio (z) = 0.16691 -0.05319
#
# Static dielectric constant tensor:
#      x y z
#    x -1.142190 0.000000 1.150600 
#    y 0.000000 1.894090 0.000000 
#    z 1.150600 0.000000 1.454460 
# 
# From -- ./inp_files/32335.got.cif
#   From: 2010.05.17/outbox.cif.g08.bks.cpg/sg15_17_cif.got.tgz:32335.got - 2010.06.03 18:47:42.
