data_PCOD9294492
_publ_section_title
;
Structure prediction by ZEFSAII (Michael W. Deem and Ramdas Pophale) SiO2 
 PCOD9294492
Probable space group: C 2/C
;
_chemical_formula_sum "Si O2"
_cell_formula_units_Z 32
_cell_length_a 11.355306
_cell_length_b 8.902965
_cell_length_c 26.692758
_cell_angle_alpha 90.000000
_cell_angle_beta 27.179758
_cell_angle_gamma 90.000000
_cell_volume 1232.643623
_symmetry_space_group_name_H-M "C 2/C"
_symmetry_group_IT_number 15
_symmetry_cell_setting 'monoclinic'
loop_
_space_group_symop_operation_xyz
x,y,z
-x,y,1/2-z
-x,-y,-z
x,-y,1/2+z
1/2+x,1/2+y,z
1/2-x,1/2+y,1/2-z
1/2-x,1/2-y,-z
1/2+x,1/2-y,1/2+z
loop_
_atom_site_type_symbol
_atom_site_label
_atom_site_fract_x
_atom_site_fract_y
_atom_site_fract_z
Si Si1 0.658816 0.291549 0.233475
Si Si2 0.593252 0.379482 0.506984
Si Si3 0.941155 0.369995 0.903292
Si Si4 0.936319 0.706806 0.722514
O O1 0.500000 0.371266 0.250000
O O2 0.472008 0.174400 0.332986
O O3 0.774750 0.374210 0.238924
O O4 0.881843 0.199593 0.120897
O O5 0.500000 0.500000 0.500000
O O6 0.785749 0.477381 0.468817
O O7 0.785141 0.262457 0.406704
O O8 0.231583 0.338020 0.813151
O O9 0.750000 0.250000 0.000000
O O10 0.000000 0.624021 0.750000
#
# Coordination Sequence:
#
# PCOD9294492 Si02
#       4
#     8   8   8   8
#     4  10  23  40  66  98 128 174 216 273 322 380
#     4  12  22  40  71  96 124 177 231 260 314 402
#     4  10  24  38  64  95 133 160 218 273 324 367
#     4  10  24  40  64  95 133 170 214 274 324 382
#
# _framework density 25.960463000000001
#
# number of rings (size 3 to 8) (size 9 to 14) (size 15 to 20)
#    1.500    0.000    2.500    2.250    7.000    0.000 
#    0.000    2.500    0.000    0.000    0.000    0.000 
#    0.000    0.000    0.000    0.000    0.000    0.000 
#
# Total GULP energy -89120.219264 kJ/mol
# GULP energy per Si atom -5570.013704 kJ/mol
# Density = 2.590138 g / cm^3
# Si number density = 25.960463 Si / 1000 Ang^3
#
#
#
# Elastic Constant Matrix: (Units=GPa)
#
#
# Indices 1 2 3 4 5 6 
#
# 1 199.2127 46.2114 42.4133 0.0022 25.1688 0.0010
# 2 46.2114 66.2535 46.3689 -0.0017 -7.3102 0.0005
# 3 42.4133 46.3689 228.7915 0.0096 -4.7031 -0.0056
# 4 0.0022 -0.0017 0.0096 27.0596 -0.0065 -6.2764
# 5 25.1688 -7.3102 -4.7031 -0.0065 39.5369 0.0004
# 6 0.0010 0.0005 -0.0056 -6.2764 0.0004 35.9944
#
#
#
# Elastic Compliance Matrix: (Units=1/GPa)
#
#
# Indices 1 2 3 4 5 6 
#
# 1 0.007001 -0.005243 -0.000348 -0.000002 -0.005467 -0.000001
# 2 -0.005243 0.021838 -0.003310 0.000005 0.006981 0.000000
# 3 -0.000348 -0.003310 0.005111 -0.000002 0.000217 0.000001
# 4 -0.000002 0.000005 -0.000002 0.038513 0.000008 0.006716
# 5 -0.005467 0.006981 0.000217 0.000008 0.030090 0.000001
# 6 -0.000001 0.000000 0.000001 0.006716 0.000001 0.028953
#
#
# Mechanical properties :
#
#
# Convention : Reuss Voigt Hill
#
# Bulk Modulus (GPa) = 61.93046 84.91608 73.42327
# Shear Modulus (GPa) = 32.32289 44.46913 38.39601
#
# Velocity S-wave (km/s) = 3.53240 4.14328 3.84997
# Velocity P-wave (km/s) = 6.36746 7.46122 6.93593
#
# Compressibility (1/GPa) = 0.01614714
#
# Stress axis : x y z
#
# Youngs Moduli (GPa) = 142.84245 45.79263 195.67178
#
# Poissons Ratio (x) = 0.24009 0.06802
# Poissons Ratio (y) = 0.74891 0.64774
# Poissons Ratio (z) = 0.04965 0.15159
#
# Static dielectric constant tensor:
#      x y z
#    x 2.151580 0.000000 -0.038550 
#    y 0.000000 2.145470 0.000040 
#    z -0.038550 0.000040 2.040880 
# 
# From -- ./inp_files/84782.got.cif
#   From: 2010.05.17/outbox.cif.g08.bks.cpg/sg15_43_cif.got.tgz:84782.got - 2010.06.03 18:47:42.
