data_PCOD9294307
_publ_section_title
;
Structure prediction by ZEFSAII (Michael W. Deem and Ramdas Pophale) SiO2 
 PCOD9294307
Probable space group: C 2/C
;
_chemical_formula_sum "Si O2"
_cell_formula_units_Z 60
_cell_length_a 16.227033
_cell_length_b 25.046519
_cell_length_c 12.209033
_cell_angle_alpha 90.000000
_cell_angle_beta 145.092992
_cell_angle_gamma 90.000000
_cell_volume 2839.557503
_symmetry_space_group_name_H-M "C 2/C"
_symmetry_group_IT_number 15
_symmetry_cell_setting 'monoclinic'
loop_
_space_group_symop_operation_xyz
x,y,z
-x,y,1/2-z
-x,-y,-z
x,-y,1/2+z
1/2+x,1/2+y,z
1/2-x,1/2+y,1/2-z
1/2-x,1/2-y,-z
1/2+x,1/2-y,1/2+z
loop_
_atom_site_type_symbol
_atom_site_label
_atom_site_fract_x
_atom_site_fract_y
_atom_site_fract_z
Si Si1 0.500000 0.367196 0.250000
Si Si2 0.613491 0.460552 0.683200
Si Si3 0.263228 0.552301 0.549514
Si Si4 0.683599 0.900289 0.201267
Si Si5 0.035813 0.848655 0.914229
Si Si6 0.544501 0.180342 0.419900
Si Si7 0.855184 0.512558 0.279645
Si Si8 0.885851 0.786028 0.305836
O O1 0.633135 0.407631 0.402727
O O2 0.460561 0.328842 0.306644
O O3 0.500000 0.500000 0.500000
O O4 0.662200 0.495539 0.841067
O O5 0.549881 0.402325 0.640571
O O6 0.747177 0.458246 0.745019
O O7 0.232519 0.578049 0.634178
O O8 0.136177 0.540678 0.326803
O O9 0.797851 0.862479 0.382792
O O10 0.545724 0.865653 0.014639
O O11 0.691686 0.951410 0.287178
O O12 0.000000 0.837910 0.750000
O O13 0.029773 0.798104 0.988410
O O14 0.711670 0.203285 0.606004
O O15 0.430790 0.227029 0.319342
O O16 0.500000 0.160333 0.250000
O O17 0.000000 0.500000 0.500000
#
# Coordination Sequence:
#
# PCOD9294307 Si02
#       8
#     4   8   8   8   8   8   8   8
#     4  12  20  36  66  98 134 148 220 262 322 382
#     4  11  20  37  59  90 117 160 217 247 311 363
#     4  11  21  35  61  87 130 165 201 261 300 377
#     4  10  23  40  57  94 123 165 216 247 324 377
#     4  11  21  41  65  91 125 165 219 269 311 372
#     4  11  23  42  65  93 127 161 209 267 329 375
#     4  11  24  36  54  90 132 170 203 248 315 383
#     4  11  24  41  63 100 124 162 212 268 326 388
#
# _framework density 21.130054000000001
#
# number of rings (size 3 to 8) (size 9 to 14) (size 15 to 20)
#    0.000    1.067    6.000    2.800    2.800    1.600 
#    2.400    2.667    0.000    0.000    0.000    0.000 
#    0.000    0.000    0.000    0.000    0.000    0.000 
#
# Total GULP energy -167212.831157 kJ/mol
# GULP energy per Si atom -5573.761039 kJ/mol
# Density = 2.108196 g / cm^3
# Si number density = 21.130054 Si / 1000 Ang^3
#
#
#
# Elastic Constant Matrix: (Units=GPa)
#
#
# Indices 1 2 3 4 5 6 
#
# 1 44.8292 -6.7282 29.8050 0.0000 -1.7852 0.0000
# 2 -6.7282 25.5736 -4.8115 0.0000 -8.0379 0.0000
# 3 29.8050 -4.8115 130.1768 0.0000 -28.2922 0.0000
# 4 0.0000 0.0000 0.0000 6.7510 0.0000 7.7011
# 5 -1.7852 -8.0379 -28.2922 0.0000 29.2577 0.0000
# 6 0.0000 0.0000 0.0000 7.7011 0.0000 12.9954
#
#
#
# Elastic Compliance Matrix: (Units=1/GPa)
#
#
# Indices 1 2 3 4 5 6 
#
# 1 0.027475 0.004761 -0.006920 0.000000 -0.003708 0.000000
# 2 0.004761 0.046644 0.004409 0.000000 0.017368 0.000000
# 3 -0.006920 0.004409 0.012155 0.000000 0.012543 0.000000
# 4 0.000000 0.000000 0.000000 0.457184 0.000000 -0.270928
# 5 -0.003708 0.017368 0.012543 0.000000 0.050854 0.000000
# 6 0.000000 0.000000 0.000000 -0.270928 0.000000 0.237503
#
#
# Mechanical properties :
#
#
# Convention : Reuss Voigt Hill
#
# Bulk Modulus (GPa) = 11.01655 26.34560 18.68108
# Shear Modulus (GPa) = 5.83040 21.95509 13.89275
#
# Velocity S-wave (km/s) = 1.66291 3.22692 2.56693
# Velocity P-wave (km/s) = 2.98531 5.13609 4.20068
#
# Compressibility (1/GPa) = 0.09077248
#
# Stress axis : x y z
#
# Youngs Moduli (GPa) = 36.39684 21.43911 82.26801
#
# Poissons Ratio (x) = -0.10207 0.56933
# Poissons Ratio (y) = -0.17329 -0.36269
# Poissons Ratio (z) = 0.25188 -0.09452
#
# Static dielectric constant tensor:
#      x y z
#    x 1.804780 0.000000 0.017040 
#    y 0.000000 1.518010 0.000000 
#    z 0.017040 0.000000 1.785080 
# 
# From -- ./inp_files/108454.got.cif
#   From: 2010.05.17/outbox.cif.g08.bks.cpg/sg15_55_cif.got.tgz:108454.got - 2010.06.03 18:47:42.
