data_PCOD9294208
_publ_section_title
;
Structure prediction by ZEFSAII (Michael W. Deem and Ramdas Pophale) SiO2 
 PCOD9294208
Probable space group: C 2/C
;
_chemical_formula_sum "Si O2"
_cell_formula_units_Z 44
_cell_length_a 14.121942
_cell_length_b 10.426932
_cell_length_c 16.294010
_cell_angle_alpha 90.000000
_cell_angle_beta 128.133060
_cell_angle_gamma 90.000000
_cell_volume 1887.214272
_symmetry_space_group_name_H-M "C 2/C"
_symmetry_group_IT_number 15
_symmetry_cell_setting 'monoclinic'
loop_
_space_group_symop_operation_xyz
x,y,z
-x,y,1/2-z
-x,-y,-z
x,-y,1/2+z
1/2+x,1/2+y,z
1/2-x,1/2+y,1/2-z
1/2-x,1/2-y,-z
1/2+x,1/2-y,1/2+z
loop_
_atom_site_type_symbol
_atom_site_label
_atom_site_fract_x
_atom_site_fract_y
_atom_site_fract_z
Si Si1 0.935401 0.078253 0.085130
Si Si2 0.000000 0.456208 0.750000
Si Si3 0.968696 0.805223 0.014725
Si Si4 0.710046 0.752152 0.882880
Si Si5 0.671450 0.532165 0.312435
Si Si6 0.933962 0.451942 0.883255
O O1 0.831446 0.091236 0.097193
O O2 0.060366 0.086517 0.201826
O O3 0.941998 0.936410 0.048421
O O4 0.938199 0.171261 0.009049
O O5 0.880111 0.368954 0.678390
O O6 0.977408 0.525097 0.824755
O O7 0.839558 0.765379 0.908688
O O8 0.020461 0.694944 0.100456
O O9 0.653744 0.619201 0.822412
O O10 0.750000 0.750000 0.000000
O O11 0.793415 0.545992 0.327170
O O12 0.000000 0.500000 0.000000
#
# Coordination Sequence:
#
# PCOD9294208 Si02
#       6
#     8   4   8   8   8   8
#     4  10  23  39  64  91 123 168 212 262 324 393
#     4  12  24  40  68  96 128 178 224 266 328 382
#     4  11  22  41  63  94 123 166 218 266 321 384
#     4  12  20  38  67  95 127 170 225 276 312 386
#     4  11  21  40  62  92 128 164 210 265 330 389
#     4  12  24  42  65  96 131 169 215 276 329 388
#
# _framework density 23.314786999999999
#
# number of rings (size 3 to 8) (size 9 to 14) (size 15 to 20)
#    0.000    0.727    5.455    3.273    0.000    0.727 
#    0.000    1.818    0.000    0.000    0.000    0.000 
#    0.000    0.000    0.000    0.000    0.000    0.000 
#
# Total GULP energy -122984.502731 kJ/mol
# GULP energy per Si atom -5590.204670 kJ/mol
# Density = 2.326172 g / cm^3
# Si number density = 23.314787 Si / 1000 Ang^3
#
#
#
# Elastic Constant Matrix: (Units=GPa)
#
#
# Indices 1 2 3 4 5 6 
#
# 1 155.0698 -4.1338 18.5798 0.0000 -21.7139 0.0000
# 2 -4.1338 11.9446 -5.1951 0.0000 -7.2817 0.0000
# 3 18.5798 -5.1951 66.2588 0.0000 -17.7183 0.0000
# 4 0.0000 0.0000 0.0000 28.6842 0.0000 -4.7591
# 5 -21.7139 -7.2817 -17.7183 0.0000 47.2535 0.0000
# 6 0.0000 0.0000 0.0000 -4.7591 0.0000 4.8457
#
#
#
# Elastic Compliance Matrix: (Units=1/GPa)
#
#
# Indices 1 2 3 4 5 6 
#
# 1 0.007170 0.004472 -0.000661 0.000000 0.003736 0.000000
# 2 0.004472 0.105155 0.013197 0.000000 0.023207 0.000000
# 3 -0.000661 0.013197 0.018644 0.000000 0.008721 0.000000
# 4 0.000000 0.000000 0.000000 0.041649 0.000000 0.040904
# 5 0.003736 0.023207 0.008721 0.000000 0.029726 0.000000
# 6 0.000000 0.000000 0.000000 0.040904 0.000000 0.246540
#
#
# Mechanical properties :
#
#
# Convention : Reuss Voigt Hill
#
# Bulk Modulus (GPa) = 6.06116 27.97499 17.01808
# Shear Modulus (GPa) = 10.64137 31.09148 20.86642
#
# Velocity S-wave (km/s) = 2.13872 3.65574 2.99488
# Velocity P-wave (km/s) = 2.95028 5.46298 4.39024
#
# Compressibility (1/GPa) = 0.16498495
#
# Stress axis : x y z
#
# Youngs Moduli (GPa) = 139.46486 9.50975 53.63529
#
# Poissons Ratio (x) = -0.04252 0.03545
# Poissons Ratio (y) = -0.62364 -0.70781
# Poissons Ratio (z) = 0.09218 -0.12550
#
# Static dielectric constant tensor:
#      x y z
#    x 1.962750 0.000000 -0.058730 
#    y 0.000000 1.928570 0.000000 
#    z -0.058730 0.000000 1.882990 
# 
# From -- ./inp_files/177668.got.cif
#   From: 2010.05.17/outbox.cif.g08.bks.cpg/sg15_89_cif.got.tgz:177668.got - 2010.06.03 18:47:42.
