data_PCOD9294329
_publ_section_title
;
Structure prediction by ZEFSAII (Michael W. Deem and Ramdas Pophale) SiO2 
 PCOD9294329
Probable space group: C 2/C
;
_chemical_formula_sum "Si O2"
_cell_formula_units_Z 56
_cell_length_a 25.611133
_cell_length_b 11.085661
_cell_length_c 25.518645
_cell_angle_alpha 90.000000
_cell_angle_beta 159.364230
_cell_angle_gamma 90.000000
_cell_volume 2553.382597
_symmetry_space_group_name_H-M "C 2/C"
_symmetry_group_IT_number 15
_symmetry_cell_setting 'monoclinic'
loop_
_space_group_symop_operation_xyz
x,y,z
-x,y,1/2-z
-x,-y,-z
x,-y,1/2+z
1/2+x,1/2+y,z
1/2-x,1/2+y,1/2-z
1/2-x,1/2-y,-z
1/2+x,1/2-y,1/2+z
loop_
_atom_site_type_symbol
_atom_site_label
_atom_site_fract_x
_atom_site_fract_y
_atom_site_fract_z
Si Si1 0.203217 0.482450 0.529353
Si Si2 0.397596 0.710031 0.338094
Si Si3 0.405626 0.121109 0.403338
Si Si4 0.006153 0.128159 0.698792
Si Si5 0.189191 0.789324 0.056608
Si Si6 0.199893 0.507400 0.905381
Si Si7 0.039141 0.639730 0.163832
O O1 0.374476 0.521215 0.687448
O O2 0.175669 0.351910 0.528781
O O3 0.148248 0.489106 0.417172
O O4 0.126076 0.584856 0.492123
O O5 0.491666 0.777219 0.471773
O O6 0.262612 0.626195 0.231718
O O7 0.305796 0.800177 0.213937
O O8 0.530341 0.659467 0.426245
O O9 0.392365 0.139470 0.328953
O O10 0.500000 0.000000 0.500000
O O11 0.041062 0.227153 0.688783
O O12 0.000000 0.192057 0.750000
O O13 0.846251 0.073478 0.541775
O O14 0.254756 0.858719 0.069024
O O15 0.110969 0.449558 0.773805
#
# Coordination Sequence:
#
# PCOD9294329 Si02
#       7
#     8   8   8   8   8   8   8
#     4  11  23  40  67  97 135 171 213 276 338 407
#     4  10  24  44  64  97 127 170 226 272 333 382
#     4  11  25  46  67  95 132 173 228 282 330 393
#     4  10  23  40  60  94 136 171 216 268 326 407
#     4  11  21  43  68  96 132 173 218 281 342 398
#     4  11  23  39  65 101 129 173 220 266 337 413
#     4  12  24  40  65  90 131 176 221 270 337 398
#
# _framework density 21.931691000000001
#
# number of rings (size 3 to 8) (size 9 to 14) (size 15 to 20)
#    0.000    1.143    0.000    6.857    4.000    2.286 
#    0.000    6.429    0.000    0.000    0.000    0.000 
#    0.000    0.000    0.000    0.000    0.000    0.000 
#
# Total GULP energy -156362.444889 kJ/mol
# GULP energy per Si atom -5584.373032 kJ/mol
# Density = 2.188177 g / cm^3
# Si number density = 21.931691 Si / 1000 Ang^3
#
#
#
# Elastic Constant Matrix: (Units=GPa)
#
#
# Indices 1 2 3 4 5 6 
#
# 1 115.9078 18.1951 25.9736 0.0000 -6.9734 -0.0002
# 2 18.1951 58.3739 2.8901 -0.0063 -11.2998 -0.0102
# 3 25.9736 2.8901 86.8139 -0.0060 2.7459 -0.0112
# 4 0.0000 -0.0063 -0.0060 0.0536 -0.0026 -24.2736
# 5 -6.9734 -11.2998 2.7459 -0.0026 27.8252 -0.0050
# 6 -0.0002 -0.0102 -0.0112 -24.2736 -0.0050 -8.4697
#
#
#
# Elastic Compliance Matrix: (Units=1/GPa)
#
#
# Indices 1 2 3 4 5 6 
#
# 1 0.009783 -0.002579 -0.002894 0.000002 0.001690 0.000001
# 2 -0.002579 0.019337 -0.000100 -0.000007 0.007216 -0.000006
# 3 -0.002894 -0.000100 0.012451 -0.000004 -0.001995 -0.000003
# 4 0.000002 -0.000007 -0.000004 0.014364 -0.000008 -0.041165
# 5 0.001690 0.007216 -0.001995 -0.000008 0.039490 -0.000006
# 6 0.000001 -0.000006 -0.000003 -0.041165 -0.000006 -0.000091
#
#
# Mechanical properties :
#
#
# Convention : Reuss Voigt Hill
#
# Bulk Modulus (GPa) = 32.86963 39.46813 36.16888
# Shear Modulus (GPa) = 42.87383 18.15095 30.51239
#
# Velocity S-wave (km/s) = 4.42620 2.87995 3.73399
# Velocity P-wave (km/s) = 6.41416 5.39387 5.92601
#
# Compressibility (1/GPa) = 0.03042322
#
# Stress axis : x y z
#
# Youngs Moduli (GPa) = 102.22171 51.71542 80.31274
#
# Poissons Ratio (x) = 0.13336 0.23246
# Poissons Ratio (y) = 0.26361 0.00807
# Poissons Ratio (z) = 0.29588 0.00519
#
# Static dielectric constant tensor:
#      x y z
#    x 1.791490 0.000000 -0.016220 
#    y 0.000000 1.781890 0.000000 
#    z -0.016220 0.000000 1.853850 
# 
# From -- ./inp_files/303292.got.cif
#   From: 2010.05.17/outbox.cif.g08.bks.cpg/sg15_152_cif.got.tgz:303292.got - 2010.06.03 18:47:42.
