data_PCOD9294719
_publ_section_title
;
Structure prediction by ZEFSAII (Michael W. Deem and Ramdas Pophale) SiO2 
 PCOD9294719
Probable space group: C 2/C
;
_chemical_formula_sum "Si O2"
_cell_formula_units_Z 64
_cell_length_a 31.859940
_cell_length_b 8.050257
_cell_length_c 18.565805
_cell_angle_alpha 90.000000
_cell_angle_beta 141.568532
_cell_angle_gamma 90.000000
_cell_volume 2959.812451
_symmetry_space_group_name_H-M "C 2/C"
_symmetry_group_IT_number 15
_symmetry_cell_setting 'monoclinic'
loop_
_space_group_symop_operation_xyz
x,y,z
-x,y,1/2-z
-x,-y,-z
x,-y,1/2+z
1/2+x,1/2+y,z
1/2-x,1/2+y,1/2-z
1/2-x,1/2-y,-z
1/2+x,1/2-y,1/2+z
loop_
_atom_site_type_symbol
_atom_site_label
_atom_site_fract_x
_atom_site_fract_y
_atom_site_fract_z
Si Si1 0.106178 0.604267 0.610616
Si Si2 0.000609 0.057668 0.326598
Si Si3 0.758783 0.025061 0.150260
Si Si4 0.751953 0.891663 0.296804
Si Si5 0.980103 0.719597 0.515259
Si Si6 0.394098 0.636724 0.769222
Si Si7 0.370283 0.350969 0.991555
Si Si8 0.316856 0.162263 0.059417
O O1 0.180479 0.537509 0.730365
O O2 0.058954 0.452008 0.524196
O O3 0.120002 0.735887 0.565745
O O4 0.059641 0.691312 0.607849
O O5 0.000000 0.150909 0.250000
O O6 0.028810 0.169081 0.427868
O O7 0.931264 0.979270 0.261182
O O8 0.055305 0.914333 0.390310
O O9 0.747842 0.206167 0.170481
O O10 0.747767 0.902028 0.204004
O O11 0.832434 0.968559 0.220597
O O12 0.709026 0.005123 0.014440
O O13 0.816951 0.000931 0.404322
O O14 0.946688 0.809054 0.401440
O O15 0.369010 0.803785 0.694145
O O16 0.344194 0.258627 0.026816
O O17 0.250000 0.250000 0.000000
#
# Coordination Sequence:
#
# PCOD9294719 Si02
#       8
#     8   8   8   8   8   8   8   8
#     4  11  25  45  68 106 138 183 235 301 352 418
#     4  12  25  44  72 102 139 183 231 289 351 427
#     4  11  23  39  66 102 140 186 237 288 351 422
#     4  12  24  40  68 101 139 184 233 295 348 423
#     4  11  26  44  73 104 137 178 243 291 355 429
#     4  11  23  44  73  99 141 192 231 289 361 421
#     4  12  24  42  68 100 135 185 238 282 359 422
#     4  10  23  41  64  97 142 184 233 289 347 426
#
# _framework density 21.622992
#
# number of rings (size 3 to 8) (size 9 to 14) (size 15 to 20)
#    0.000    0.750    5.000    1.875    7.000    0.000 
#    0.000    8.125    2.750    0.000    0.000    0.000 
#    0.000    0.000    0.000    0.000    0.000    0.000 
#
# Total GULP energy -178664.790305 kJ/mol
# GULP energy per Si atom -5583.274697 kJ/mol
# Density = 2.157378 g / cm^3
# Si number density = 21.622992 Si / 1000 Ang^3
#
#
#
# Elastic Constant Matrix: (Units=GPa)
#
#
# Indices 1 2 3 4 5 6 
#
# 1 143.2628 52.3386 37.2282 0.0000 13.3993 0.0000
# 2 52.3386 58.8582 5.2531 0.0000 4.7688 0.0000
# 3 37.2282 5.2531 67.1640 0.0000 -5.6427 0.0000
# 4 0.0000 0.0000 0.0000 13.7584 0.0000 11.1654
# 5 13.3993 4.7688 -5.6427 0.0000 40.1515 0.0000
# 6 0.0000 0.0000 0.0000 11.1654 0.0000 17.3793
#
#
#
# Elastic Compliance Matrix: (Units=1/GPa)
#
#
# Indices 1 2 3 4 5 6 
#
# 1 0.012973 -0.010613 -0.006698 0.000000 -0.004010 0.000000
# 2 -0.010613 0.025995 0.003934 0.000000 0.001007 0.000000
# 3 -0.006698 0.003934 0.018662 0.000000 0.004391 0.000000
# 4 0.000000 0.000000 0.000000 0.151856 0.000000 -0.097560
# 5 -0.004010 0.001007 0.004391 0.000000 0.026741 0.000000
# 6 0.000000 0.000000 0.000000 -0.097560 0.000000 0.120217
#
#
# Mechanical properties :
#
#
# Convention : Reuss Voigt Hill
#
# Bulk Modulus (GPa) = 32.38634 50.99166 41.68900
# Shear Modulus (GPa) = 12.70676 25.88885 19.29781
#
# Velocity S-wave (km/s) = 2.42678 3.46393 2.99066
# Velocity P-wave (km/s) = 4.78148 6.29538 5.58992
#
# Compressibility (1/GPa) = 0.03087722
#
# Stress axis : x y z
#
# Youngs Moduli (GPa) = 77.08250 38.46891 53.58349
#
# Poissons Ratio (x) = 0.40829 0.35888
# Poissons Ratio (y) = 0.81811 -0.21082
# Poissons Ratio (z) = 0.51627 -0.15135
#
# Static dielectric constant tensor:
#      x y z
#    x 1.739540 0.000000 -0.009930 
#    y 0.000000 1.829430 0.000000 
#    z -0.009930 0.000000 1.839580 
# 
# From -- ./inp_files/224624.got.cif
#   From: 2010.05.17/outbox.cif.g08.bks.cpg/sg15_113_cif.got.tgz:224624.got - 2010.06.03 18:47:42.
