data_PCOD9294075
_publ_section_title
;
Structure prediction by ZEFSAII (Michael W. Deem and Ramdas Pophale) SiO2 
 PCOD9294075
Probable space group: C 2/C
;
_chemical_formula_sum "Si O2"
_cell_formula_units_Z 60
_cell_length_a 12.541435
_cell_length_b 8.337711
_cell_length_c 29.210349
_cell_angle_alpha 90.000000
_cell_angle_beta 114.955725
_cell_angle_gamma 90.000000
_cell_volume 2769.254442
_symmetry_space_group_name_H-M "C 2/C"
_symmetry_group_IT_number 15
_symmetry_cell_setting 'monoclinic'
loop_
_space_group_symop_operation_xyz
x,y,z
-x,y,1/2-z
-x,-y,-z
x,-y,1/2+z
1/2+x,1/2+y,z
1/2-x,1/2+y,1/2-z
1/2-x,1/2-y,-z
1/2+x,1/2-y,1/2+z
loop_
_atom_site_type_symbol
_atom_site_label
_atom_site_fract_x
_atom_site_fract_y
_atom_site_fract_z
Si Si1 0.060510 0.196755 0.139741
Si Si2 0.000000 0.246575 0.750000
Si Si3 0.683982 0.751919 0.649772
Si Si4 0.038901 0.545939 0.362537
Si Si5 0.805367 0.549851 0.201641
Si Si6 0.172122 0.769302 0.441112
Si Si7 0.863403 0.974411 0.151810
Si Si8 0.543792 0.467683 0.059065
O O1 0.019980 0.375653 0.140439
O O2 0.191889 0.162801 0.180340
O O3 0.060707 0.137364 0.087335
O O4 0.968206 0.079974 0.148583
O O5 0.099625 0.368632 0.748072
O O6 0.072559 0.133636 0.797984
O O7 0.562142 0.819480 0.647949
O O8 0.751204 0.627832 0.695612
O O9 0.650816 0.645760 0.597839
O O10 0.768539 0.900301 0.653973
O O11 0.117369 0.544683 0.331004
O O12 0.131770 0.592838 0.418755
O O13 0.250000 0.750000 0.500000
O O14 0.199998 0.862597 0.398262
O O15 0.065314 0.875599 0.439295
O O16 0.500000 0.500000 0.000000
#
# Coordination Sequence:
#
# PCOD9294075 Si02
#       8
#     8   4   8   8   8   8   8   8
#     4  10  23  44  70  96 137 180 220 288 338 404
#     4  12  26  44  72 100 136 182 226 288 340 422
#     4  10  23  43  70  98 140 179 226 290 332 419
#     4  11  22  44  70  99 135 176 231 273 345 404
#     4  11  24  46  69  98 133 177 223 282 343 398
#     4  10  23  38  65  97 138 176 222 286 331 407
#     4  11  23  47  67 104 137 180 237 277 351 413
#     4   9  21  38  64  98 138 180 231 280 339 405
#
# _framework density 21.666481000000001
#
# number of rings (size 3 to 8) (size 9 to 14) (size 15 to 20)
#    0.000    1.600    2.667    1.600    3.733    1.600 
#    4.800    5.333    0.000    0.000    0.000    0.000 
#    0.000    0.000    0.000    0.000    0.000    0.000 
#
# Total GULP energy -167259.988703 kJ/mol
# GULP energy per Si atom -5575.332957 kJ/mol
# Density = 2.161717 g / cm^3
# Si number density = 21.666481 Si / 1000 Ang^3
#
#
#
# Elastic Constant Matrix: (Units=GPa)
#
#
# Indices 1 2 3 4 5 6 
#
# 1 86.3191 42.2425 28.8605 0.0000 22.3092 0.0000
# 2 42.2425 146.4583 40.3580 0.0000 11.5382 0.0000
# 3 28.8605 40.3580 114.7048 0.0000 16.1195 0.0000
# 4 0.0000 0.0000 0.0000 21.2211 0.0000 8.7252
# 5 22.3092 11.5382 16.1195 0.0000 26.0813 0.0000
# 6 0.0000 0.0000 0.0000 8.7252 0.0000 49.1715
#
#
#
# Elastic Compliance Matrix: (Units=1/GPa)
#
#
# Indices 1 2 3 4 5 6 
#
# 1 0.016878 -0.003560 -0.001299 0.000000 -0.012059 0.000000
# 2 -0.003560 0.008395 -0.002151 0.000000 0.000660 0.000000
# 3 -0.001299 -0.002151 0.010417 0.000000 -0.004375 0.000000
# 4 0.000000 0.000000 0.000000 0.050831 0.000000 -0.009020
# 5 -0.012059 0.000660 -0.004375 0.000000 0.051068 0.000000
# 6 0.000000 0.000000 0.000000 -0.009020 0.000000 0.021937
#
#
# Mechanical properties :
#
#
# Convention : Reuss Voigt Hill
#
# Bulk Modulus (GPa) = 46.14803 63.37825 54.76314
# Shear Modulus (GPa) = 27.65922 35.02952 31.34437
#
# Velocity S-wave (km/s) = 3.57682 4.02526 3.80765
# Velocity P-wave (km/s) = 6.19707 7.13575 6.68291
#
# Compressibility (1/GPa) = 0.02166940
#
# Stress axis : x y z
#
# Youngs Moduli (GPa) = 59.24770 119.11322 96.00087
#
# Poissons Ratio (x) = 0.42405 0.12475
# Poissons Ratio (y) = 0.21092 0.20649
# Poissons Ratio (z) = 0.07699 0.25620
#
# Static dielectric constant tensor:
#      x y z
#    x 1.805700 0.000000 -0.003090 
#    y 0.000000 1.801670 0.000000 
#    z -0.003090 0.000000 1.913630 
# 
# From -- ./inp_files/310355.got.cif
#   From: 2010.05.17/outbox.cif.g08.bks.cpg/sg15_156_cif.got.tgz:310355.got - 2010.06.03 18:47:42.
