data_PCOD9294052
_publ_section_title
;
Structure prediction by ZEFSAII (Michael W. Deem and Ramdas Pophale) SiO2 
 PCOD9294052
Probable space group: C 2/C
;
_chemical_formula_sum "Si O2"
_cell_formula_units_Z 44
_cell_length_a 9.325840
_cell_length_b 28.794546
_cell_length_c 11.729802
_cell_angle_alpha 90.000000
_cell_angle_beta 135.261680
_cell_angle_gamma 90.000000
_cell_volume 2217.079633
_symmetry_space_group_name_H-M "C 2/C"
_symmetry_group_IT_number 15
_symmetry_cell_setting 'monoclinic'
loop_
_space_group_symop_operation_xyz
x,y,z
-x,y,1/2-z
-x,-y,-z
x,-y,1/2+z
1/2+x,1/2+y,z
1/2-x,1/2+y,1/2-z
1/2-x,1/2-y,-z
1/2+x,1/2-y,1/2+z
loop_
_atom_site_type_symbol
_atom_site_label
_atom_site_fract_x
_atom_site_fract_y
_atom_site_fract_z
Si Si1 0.772832 0.428373 0.774799
Si Si2 0.500000 0.002189 0.750000
Si Si3 0.171170 0.814779 0.056006
Si Si4 0.661482 0.698403 0.944826
Si Si5 0.789251 0.918902 0.499001
Si Si6 0.000000 0.757173 0.750000
Si Si7 0.000000 0.357020 0.750000
O O1 0.528466 0.431726 0.629076
O O2 0.800145 0.416870 0.923174
O O3 0.841981 0.387331 0.731866
O O4 0.909716 0.470616 0.802111
O O5 0.321231 0.037347 0.617646
O O6 0.334916 0.779603 0.205439
O O7 0.972822 0.812789 0.020835
O O8 0.238417 0.867970 0.073554
O O9 0.110318 0.790580 0.902195
O O10 0.500000 0.691611 0.750000
O O11 0.750000 0.750000 0.000000
O O12 0.867101 0.668852 0.078290
#
# Coordination Sequence:
#
# PCOD9294052 Si02
#       7
#     8   4   8   8   8   4   4
#     4  10  23  43  66  94 136 178 217 289 357 408
#     4  11  23  40  68 102 128 172 232 285 353 428
#     4  11  23  41  62  98 128 180 227 278 339 409
#     4  12  25  41  66  96 136 185 235 283 342 410
#     4  11  22  41  69  94 133 175 226 281 349 418
#     4  10  23  38  63  90 134 167 222 285 332 400
#     4  11  24  44  67  94 142 181 234 282 349 412
#
# _framework density 19.845928000000001
#
# number of rings (size 3 to 8) (size 9 to 14) (size 15 to 20)
#    0.000    1.091    2.727    3.818    0.000    4.364 
#    0.000    0.000    0.000    0.000    0.000    0.000 
#    0.000    0.000    0.000    0.000    0.000    0.000 
#
# Total GULP energy -122607.775820 kJ/mol
# GULP energy per Si atom -5573.080719 kJ/mol
# Density = 1.980076 g / cm^3
# Si number density = 19.845928 Si / 1000 Ang^3
#
#
#
# Elastic Constant Matrix: (Units=GPa)
#
#
# Indices 1 2 3 4 5 6 
#
# 1 103.3343 45.8172 2.7717 0.0000 -2.0961 0.0000
# 2 45.8172 135.2457 34.6440 0.0000 0.3048 0.0000
# 3 2.7717 34.6440 63.7437 0.0000 10.0769 0.0000
# 4 0.0000 0.0000 0.0000 38.5892 0.0000 17.6579
# 5 -2.0961 0.3048 10.0769 0.0000 24.5317 0.0000
# 6 0.0000 0.0000 0.0000 17.6579 0.0000 25.5252
#
#
#
# Elastic Compliance Matrix: (Units=1/GPa)
#
#
# Indices 1 2 3 4 5 6 
#
# 1 0.011583 -0.004396 0.001840 0.000000 0.000289 0.000000
# 2 -0.004396 0.010345 -0.005723 0.000000 0.001847 0.000000
# 3 0.001840 -0.005723 0.019980 0.000000 -0.007979 0.000000
# 4 0.000000 0.000000 0.000000 0.037917 0.000000 -0.026230
# 5 0.000289 0.001847 -0.007979 0.000000 0.044043 0.000000
# 6 0.000000 0.000000 0.000000 -0.026230 0.000000 0.057323
#
#
# Mechanical properties :
#
#
# Convention : Reuss Voigt Hill
#
# Bulk Modulus (GPa) = 39.44914 52.08772 45.76843
# Shear Modulus (GPa) = 24.24857 32.33526 28.29192
#
# Velocity S-wave (km/s) = 3.49928 4.04086 3.77978
# Velocity P-wave (km/s) = 6.02058 6.93357 6.49314
#
# Compressibility (1/GPa) = 0.02534909
#
# Stress axis : x y z
#
# Youngs Moduli (GPa) = 86.33402 96.66485 50.05093
#
# Poissons Ratio (x) = 0.42493 -0.09209
# Poissons Ratio (y) = 0.37951 0.28645
# Poissons Ratio (z) = -0.15884 0.55323
#
# Static dielectric constant tensor:
#      x y z
#    x 1.688190 0.000000 -0.032020 
#    y 0.000000 1.730940 0.000000 
#    z -0.032020 0.000000 1.530990 
# 
# From -- ./inp_files/81622.got.cif
#   From: 2010.05.17/outbox.cif.g08.bks.cpg/sg15_41_cif.got.tgz:81622.got - 2010.06.03 18:47:42.
