data_PCOD9294295
_publ_section_title
;
Structure prediction by ZEFSAII (Michael W. Deem and Ramdas Pophale) SiO2 
 PCOD9294295
Probable space group: C 2/C
;
_chemical_formula_sum "Si O2"
_cell_formula_units_Z 40
_cell_length_a 12.318033
_cell_length_b 17.201545
_cell_length_c 11.512492
_cell_angle_alpha 90.000000
_cell_angle_beta 42.143749
_cell_angle_gamma 90.000000
_cell_volume 1636.801937
_symmetry_space_group_name_H-M "C 2/C"
_symmetry_group_IT_number 15
_symmetry_cell_setting 'monoclinic'
loop_
_space_group_symop_operation_xyz
x,y,z
-x,y,1/2-z
-x,-y,-z
x,-y,1/2+z
1/2+x,1/2+y,z
1/2-x,1/2+y,1/2-z
1/2-x,1/2-y,-z
1/2+x,1/2-y,1/2+z
loop_
_atom_site_type_symbol
_atom_site_label
_atom_site_fract_x
_atom_site_fract_y
_atom_site_fract_z
Si Si1 0.000000 0.392265 0.750000
Si Si2 0.962558 0.284120 0.562297
Si Si3 0.121024 0.181701 0.262222
Si Si4 0.920033 0.109629 0.611170
Si Si5 0.683216 0.044447 0.621326
Si Si6 0.500000 0.491162 0.750000
O O1 0.015985 0.340672 0.622376
O O2 0.850893 0.451597 0.850050
O O3 0.813157 0.318808 0.607257
O O4 0.918320 0.199294 0.653424
O O5 0.090205 0.258712 0.365126
O O6 0.000000 0.190940 0.250000
O O7 0.050680 0.114760 0.402311
O O8 0.970998 0.048814 0.665906
O O9 0.756971 0.079814 0.679527
O O10 0.500000 0.075737 0.750000
O O11 0.829044 0.053689 0.411484
#
# Coordination Sequence:
#
# PCOD9294295 Si02
#       6
#     4   8   8   8   8   4
#     4  10  23  46  68 108 141 180 242 302 349 426
#     4  10  23  39  72  96 141 180 241 287 357 407
#     4  10  23  42  67 102 144 186 236 295 357 422
#     4  10  25  43  70 108 141 191 238 297 357 431
#     4  10  26  45  69 106 151 186 238 293 367 423
#     4  12  23  44  74 100 145 190 242 290 365 428
#
# _framework density 24.437899000000002
#
# number of rings (size 3 to 8) (size 9 to 14) (size 15 to 20)
#    1.800    0.000    0.000    3.000    4.200    2.400 
#    0.000    0.000    0.000    0.000    0.000    0.000 
#    0.000    0.000    0.000    0.000    0.000    0.000 
#
# Total GULP energy -111577.773660 kJ/mol
# GULP energy per Si atom -5578.888683 kJ/mol
# Density = 2.438228 g / cm^3
# Si number density = 24.437899 Si / 1000 Ang^3
#
#
#
# Elastic Constant Matrix: (Units=GPa)
#
#
# Indices 1 2 3 4 5 6 
#
# 1 92.6268 30.3978 34.4558 0.0002 -5.4010 0.0006
# 2 30.3978 125.2156 7.8141 0.0002 -2.5273 0.0000
# 3 34.4558 7.8141 89.0587 -0.0001 -10.6266 0.0004
# 4 0.0002 0.0002 -0.0001 17.7515 0.0000 -11.9891
# 5 -5.4010 -2.5273 -10.6266 0.0000 41.3278 -0.0006
# 6 0.0006 0.0000 0.0004 -11.9891 -0.0006 30.0725
#
#
#
# Elastic Compliance Matrix: (Units=1/GPa)
#
#
# Indices 1 2 3 4 5 6 
#
# 1 0.013651 -0.002997 -0.004980 0.000000 0.000320 0.000000
# 2 -0.002997 0.008692 0.000426 0.000000 0.000250 0.000000
# 3 -0.004980 0.000426 0.013456 0.000000 0.002835 0.000000
# 4 0.000000 0.000000 0.000000 0.077091 0.000000 0.030734
# 5 0.000320 0.000250 0.002835 0.000000 0.024983 0.000001
# 6 0.000000 0.000000 0.000000 0.030734 0.000001 0.045506
#
#
# Mechanical properties :
#
#
# Convention : Reuss Voigt Hill
#
# Bulk Modulus (GPa) = 48.31297 50.24850 49.28073
# Shear Modulus (GPa) = 24.34529 33.44592 28.89560
#
# Velocity S-wave (km/s) = 3.15970 3.70348 3.44235
# Velocity P-wave (km/s) = 5.75537 6.23651 6.00076
#
# Compressibility (1/GPa) = 0.02069838
#
# Stress axis : x y z
#
# Youngs Moduli (GPa) = 73.25657 115.04673 74.31520
#
# Poissons Ratio (x) = 0.34475 0.37010
# Poissons Ratio (y) = 0.21952 -0.03170
# Poissons Ratio (z) = 0.36483 -0.04907
#
# Static dielectric constant tensor:
#      x y z
#    x 1.883350 0.000000 -0.002570 
#    y 0.000000 1.999040 0.000000 
#    z -0.002570 0.000000 2.002710 
# 
# From -- ./inp_files/89348.got.cif
#   From: 2010.05.17/outbox.cif.g08.bks.cpg/sg15_45_cif.got.tgz:89348.got - 2010.06.03 18:47:42.
