data_PCOD9294044
_publ_section_title
;
Structure prediction by ZEFSAII (Michael W. Deem and Ramdas Pophale) SiO2 
 PCOD9294044
Probable space group: C 2/C
;
_chemical_formula_sum "Si O2"
_cell_formula_units_Z 52
_cell_length_a 26.668477
_cell_length_b 7.068019
_cell_length_c 12.933467
_cell_angle_alpha 90.000000
_cell_angle_beta 119.843673
_cell_angle_gamma 90.000000
_cell_volume 2114.576907
_symmetry_space_group_name_H-M "C 2/C"
_symmetry_group_IT_number 15
_symmetry_cell_setting 'monoclinic'
loop_
_space_group_symop_operation_xyz
x,y,z
-x,y,1/2-z
-x,-y,-z
x,-y,1/2+z
1/2+x,1/2+y,z
1/2-x,1/2+y,1/2-z
1/2-x,1/2-y,-z
1/2+x,1/2-y,1/2+z
loop_
_atom_site_type_symbol
_atom_site_label
_atom_site_fract_x
_atom_site_fract_y
_atom_site_fract_z
Si Si1 0.562323 0.130127 0.684467
Si Si2 0.500000 0.428510 0.750000
Si Si3 0.025057 0.718488 0.416582
Si Si4 0.280550 0.077511 0.383516
Si Si5 0.695067 0.461270 0.154672
Si Si6 0.647267 0.244223 0.480062
Si Si7 0.688644 0.998661 0.860020
O O1 0.548942 0.282990 0.760283
O O2 0.524223 0.937642 0.653189
O O3 0.541512 0.219196 0.554129
O O4 0.629494 0.076246 0.753388
O O5 0.489278 0.576670 0.645516
O O6 0.084126 0.656273 0.419435
O O7 0.311834 0.237649 0.348716
O O8 0.213906 0.054576 0.282034
O O9 0.204753 0.387735 0.481854
O O10 0.310221 0.873834 0.401670
O O11 0.646554 0.554357 0.034063
O O12 0.754562 0.491243 0.150315
O O13 0.674579 0.209384 0.395602
#
# Coordination Sequence:
#
# PCOD9294044 Si02
#       7
#     8   4   8   8   8   8   8
#     4  11  25  46  72  97 143 180 227 296 343 413
#     4  12  24  44  72 104 134 174 236 286 348 410
#     4  11  25  47  70 102 136 182 234 281 352 411
#     4  10  23  38  62  92 129 177 218 276 337 397
#     4  12  21  42  62  94 136 173 224 282 331 410
#     4  10  23  39  65  94 131 173 225 277 334 403
#     4  10  23  42  63  96 129 180 219 280 344 400
#
# _framework density 24.591207000000001
#
# number of rings (size 3 to 8) (size 9 to 14) (size 15 to 20)
#    0.923    0.308    1.538    4.615    2.154    0.000 
#    0.000    3.077    0.000    0.000    0.000    0.000 
#    0.000    0.000    0.000    0.000    0.000    0.000 
#
# Total GULP energy -145152.103639 kJ/mol
# GULP energy per Si atom -5582.773217 kJ/mol
# Density = 2.453524 g / cm^3
# Si number density = 24.591207 Si / 1000 Ang^3
#
#
#
# Elastic Constant Matrix: (Units=GPa)
#
#
# Indices 1 2 3 4 5 6 
#
# 1 87.4604 10.2827 23.8134 0.0000 9.7417 0.0000
# 2 10.2827 103.1679 36.6396 0.0000 -2.6755 0.0000
# 3 23.8134 36.6396 133.5132 0.0000 -4.0599 0.0000
# 4 0.0000 0.0000 0.0000 39.0885 0.0000 -7.5498
# 5 9.7417 -2.6755 -4.0599 0.0000 29.6205 0.0000
# 6 0.0000 0.0000 0.0000 -7.5498 0.0000 33.8218
#
#
#
# Elastic Compliance Matrix: (Units=1/GPa)
#
#
# Indices 1 2 3 4 5 6 
#
# 1 0.012610 -0.000583 -0.002226 0.000000 -0.004505 0.000000
# 2 -0.000583 0.010776 -0.002830 0.000000 0.000777 0.000000
# 3 -0.002226 -0.002830 0.008714 0.000000 0.001671 0.000000
# 4 0.000000 0.000000 0.000000 0.026736 0.000000 0.005968
# 5 -0.004505 0.000777 0.001671 0.000000 0.035541 0.000000
# 6 0.000000 0.000000 0.000000 0.005968 0.000000 0.030899
#
#
# Mechanical properties :
#
#
# Convention : Reuss Voigt Hill
#
# Bulk Modulus (GPa) = 48.02394 51.73477 49.87936
# Shear Modulus (GPa) = 34.84435 37.39987 36.12211
#
# Velocity S-wave (km/s) = 3.76831 3.90406 3.83679
# Velocity P-wave (km/s) = 6.20523 6.43473 6.32102
#
# Compressibility (1/GPa) = 0.02082295
#
# Stress axis : x y z
#
# Youngs Moduli (GPa) = 79.30074 92.79764 114.75407
#
# Poissons Ratio (x) = 0.05411 0.25546
# Poissons Ratio (y) = 0.04624 0.32471
# Poissons Ratio (z) = 0.17653 0.26258
#
# Static dielectric constant tensor:
#      x y z
#    x 1.957720 0.000000 -0.074100 
#    y 0.000000 1.959760 0.000000 
#    z -0.074100 0.000000 1.974810 
# 
# From -- ./inp_files/224122.got.cif
#   From: 2010.05.17/outbox.cif.g08.bks.cpg/sg15_113_cif.got.tgz:224122.got - 2010.06.03 18:47:42.
