data_PCOD9294853
_publ_section_title
;
Structure prediction by ZEFSAII (Michael W. Deem and Ramdas Pophale) SiO2 
 PCOD9294853
Probable space group: C 2/C
;
_chemical_formula_sum "Si O2"
_cell_formula_units_Z 44
_cell_length_a 7.868617
_cell_length_b 28.429978
_cell_length_c 8.343816
_cell_angle_alpha 90.000000
_cell_angle_beta 98.248876
_cell_angle_gamma 90.000000
_cell_volume 1847.239138
_symmetry_space_group_name_H-M "C 2/C"
_symmetry_group_IT_number 15
_symmetry_cell_setting 'monoclinic'
loop_
_space_group_symop_operation_xyz
x,y,z
-x,y,1/2-z
-x,-y,-z
x,-y,1/2+z
1/2+x,1/2+y,z
1/2-x,1/2+y,1/2-z
1/2-x,1/2-y,-z
1/2+x,1/2-y,1/2+z
loop_
_atom_site_type_symbol
_atom_site_label
_atom_site_fract_x
_atom_site_fract_y
_atom_site_fract_z
Si Si1 0.000000 0.735351 0.750000
Si Si2 0.802827 0.492818 0.029800
Si Si3 0.817023 0.072228 0.265481
Si Si4 0.928988 0.221948 0.562425
Si Si5 0.000000 0.356918 0.750000
Si Si6 0.500000 0.922645 0.250000
Si Si7 0.664551 0.839959 0.082944
O O1 0.854026 0.696873 0.773199
O O2 0.966061 0.765712 0.585454
O O3 0.713828 0.539909 0.081414
O O4 0.841901 0.454779 0.173054
O O5 0.704641 0.466069 0.878247
O O6 0.000000 0.500000 0.000000
O O7 0.663716 0.109728 0.242020
O O8 0.000000 0.094492 0.250000
O O9 0.750000 0.250000 0.500000
O O10 0.860342 0.167575 0.555099
O O11 0.000000 0.232091 0.750000
O O12 0.955905 0.327771 0.585607
O O13 0.584857 0.888718 0.129371
#
# Coordination Sequence:
#
# PCOD9294853 Si02
#       7
#     4   8   8   8   4   4   8
#     4   9  22  44  73 100 132 180 236 286 353 428
#     4  12  20  41  71  92 132 183 238 293 351 415
#     4  12  25  42  67  99 133 187 240 293 355 423
#     4  10  23  45  70 103 137 177 238 295 357 438
#     4  12  23  46  67  94 152 182 234 292 369 430
#     4  11  19  40  66  90 128 190 218 284 364 418
#     4  10  23  41  67  97 134 186 224 285 369 423
#
# _framework density 23.819333
#
# number of rings (size 3 to 8) (size 9 to 14) (size 15 to 20)
#    0.000    1.091    5.455    0.545    5.091    2.909 
#    8.182    0.000    0.000    0.000    0.000    0.000 
#    0.000    0.000    0.000    0.000    0.000    0.000 
#
# Total GULP energy -122623.367900 kJ/mol
# GULP energy per Si atom -5573.789450 kJ/mol
# Density = 2.376512 g / cm^3
# Si number density = 23.819333 Si / 1000 Ang^3
#
#
#
# Elastic Constant Matrix: (Units=GPa)
#
#
# Indices 1 2 3 4 5 6 
#
# 1 120.1914 35.8748 28.6780 0.0000 -12.3722 0.0000
# 2 35.8748 62.8146 27.8254 0.0000 -9.8582 0.0000
# 3 28.6780 27.8254 146.2490 0.0000 -4.3854 0.0000
# 4 0.0000 0.0000 0.0000 24.7155 0.0000 2.1418
# 5 -12.3722 -9.8582 -4.3854 0.0000 26.8255 0.0000
# 6 0.0000 0.0000 0.0000 2.1418 0.0000 8.3416
#
#
#
# Elastic Compliance Matrix: (Units=1/GPa)
#
#
# Indices 1 2 3 4 5 6 
#
# 1 0.010343 -0.005037 -0.000987 0.000000 0.002758 0.000000
# 2 -0.005037 0.020812 -0.002826 0.000000 0.004863 0.000000
# 3 -0.000987 -0.002826 0.007561 0.000000 -0.000258 0.000000
# 4 0.000000 0.000000 0.000000 0.041381 0.000000 -0.010625
# 5 0.002758 0.004863 -0.000258 0.000000 0.040295 0.000000
# 6 0.000000 0.000000 0.000000 -0.010625 0.000000 0.122609
#
#
# Mechanical properties :
#
#
# Convention : Reuss Voigt Hill
#
# Bulk Modulus (GPa) = 47.58414 57.11235 52.34824
# Shear Modulus (GPa) = 18.67718 27.76831 23.22275
#
# Velocity S-wave (km/s) = 2.80325 3.41807 3.12581
# Velocity P-wave (km/s) = 5.52251 6.29341 5.92052
#
# Compressibility (1/GPa) = 0.02101541
#
# Stress axis : x y z
#
# Youngs Moduli (GPa) = 96.68454 48.04985 132.25439
#
# Poissons Ratio (x) = 0.24203 0.13055
# Poissons Ratio (y) = 0.48700 0.37377
# Poissons Ratio (z) = 0.09544 0.13579
#
# Static dielectric constant tensor:
#      x y z
#    x 2.044630 0.000000 -0.095200 
#    y 0.000000 2.019830 0.000000 
#    z -0.095200 0.000000 2.023170 
# 
# From -- ./inp_files/25685.got.cif
#   From: 2010.05.17/outbox.cif.g08.bks.cpg/sg15_13_cif.got.tgz:25685.got - 2010.06.03 18:47:42.
