data_PCOD9294280
_publ_section_title
;
Structure prediction by ZEFSAII (Michael W. Deem and Ramdas Pophale) SiO2 
 PCOD9294280
Probable space group: C 2/C
;
_chemical_formula_sum "Si O2"
_cell_formula_units_Z 60
_cell_length_a 14.397524
_cell_length_b 13.796134
_cell_length_c 14.677289
_cell_angle_alpha 90.000000
_cell_angle_beta 59.074445
_cell_angle_gamma 90.000000
_cell_volume 2500.893587
_symmetry_space_group_name_H-M "C 2/C"
_symmetry_group_IT_number 15
_symmetry_cell_setting 'monoclinic'
loop_
_space_group_symop_operation_xyz
x,y,z
-x,y,1/2-z
-x,-y,-z
x,-y,1/2+z
1/2+x,1/2+y,z
1/2-x,1/2+y,1/2-z
1/2-x,1/2-y,-z
1/2+x,1/2-y,1/2+z
loop_
_atom_site_type_symbol
_atom_site_label
_atom_site_fract_x
_atom_site_fract_y
_atom_site_fract_z
Si Si1 0.965751 0.053216 0.354034
Si Si2 0.227831 0.840810 0.447454
Si Si3 0.500000 0.950847 0.750000
Si Si4 0.842921 0.293774 0.790880
Si Si5 0.802026 0.099545 0.923755
Si Si6 0.876428 0.134486 0.094160
Si Si7 0.895874 0.458471 0.453569
Si Si8 0.064863 0.274493 0.936550
O O1 0.867127 0.099675 0.457517
O O2 0.000000 0.117556 0.250000
O O3 0.062923 0.051197 0.378175
O O4 0.903269 0.964066 0.337792
O O5 0.250000 0.750000 0.500000
O O6 0.332929 0.905817 0.400788
O O7 0.171083 0.794850 0.389995
O O8 0.392818 0.886004 0.816746
O O9 0.497856 0.005170 0.653182
O O10 0.809851 0.203127 0.870181
O O11 0.731274 0.329861 0.801283
O O12 0.939888 0.278145 0.669619
O O13 0.834364 0.108615 0.014378
O O14 0.688820 0.040793 0.967901
O O15 0.964387 0.219389 0.033218
O O16 0.917618 0.376568 0.519738
#
# Coordination Sequence:
#
# PCOD9294280 Si02
#       8
#     8   8   4   8   8   8   8   8
#     4  10  23  39  69 104 134 177 238 283 342 424
#     4   8  18  41  65  92 137 176 214 286 353 411
#     4  12  26  46  68 100 138 192 242 292 366 434
#     4  12  27  44  71 101 141 192 240 288 365 431
#     4  11  24  47  69  99 142 188 235 294 359 417
#     4  11  24  45  70 103 142 188 233 297 355 432
#     4  10  23  46  70 100 140 184 237 300 354 430
#     4  10  24  45  68 104 146 179 236 300 358 427
#
# _framework density 23.991426000000001
#
# number of rings (size 3 to 8) (size 9 to 14) (size 15 to 20)
#    0.000    1.600    1.333    1.600   10.267    1.600 
#   10.800    0.000    0.000    0.000    0.000    0.000 
#    0.000    0.000    0.000    0.000    0.000    0.000 
#
# Total GULP energy -167162.958904 kJ/mol
# GULP energy per Si atom -5572.098630 kJ/mol
# Density = 2.393682 g / cm^3
# Si number density = 23.991426 Si / 1000 Ang^3
#
#
#
# Elastic Constant Matrix: (Units=GPa)
#
#
# Indices 1 2 3 4 5 6 
#
# 1 81.7771 21.7014 9.7960 0.0000 -10.0795 0.0000
# 2 21.7014 100.9225 22.9241 0.0000 -4.1389 0.0000
# 3 9.7960 22.9241 79.3097 0.0000 -4.6277 0.0000
# 4 0.0000 0.0000 0.0000 8.2659 0.0000 -8.5237
# 5 -10.0795 -4.1389 -4.6277 0.0000 34.5556 0.0000
# 6 0.0000 0.0000 0.0000 -8.5237 0.0000 29.2971
#
#
#
# Elastic Compliance Matrix: (Units=1/GPa)
#
#
# Indices 1 2 3 4 5 6 
#
# 1 0.013432 -0.002583 -0.000707 0.000000 0.003514 0.000000
# 2 -0.002583 0.011128 -0.002886 0.000000 0.000193 0.000000
# 3 -0.000707 -0.002886 0.013604 0.000000 0.001270 0.000000
# 4 0.000000 0.000000 0.000000 0.172832 0.000000 0.050284
# 5 0.003514 0.000193 0.001270 0.000000 0.030157 0.000000
# 6 0.000000 0.000000 0.000000 0.050284 0.000000 0.048763
#
#
# Mechanical properties :
#
#
# Convention : Reuss Voigt Hill
#
# Bulk Modulus (GPa) = 38.74434 41.20582 39.97508
# Shear Modulus (GPa) = 16.08378 28.26291 22.17335
#
# Velocity S-wave (km/s) = 2.59201 3.43599 3.04340
# Velocity P-wave (km/s) = 5.01421 5.74054 5.38963
#
# Compressibility (1/GPa) = 0.02581022
#
# Stress axis : x y z
#
# Youngs Moduli (GPa) = 74.45038 89.86687 73.50537
#
# Poissons Ratio (x) = 0.23217 0.05199
# Poissons Ratio (y) = 0.19234 0.21214
# Poissons Ratio (z) = 0.05266 0.25936
#
# Static dielectric constant tensor:
#      x y z
#    x 2.005120 0.000000 0.007970 
#    y 0.000000 2.081950 0.000000 
#    z 0.007970 0.000000 1.948250 
# 
# From -- ./inp_files/154231.got.cif
#   From: 2010.05.17/outbox.cif.g08.bks.cpg/sg15_78_cif.got.tgz:154231.got - 2010.06.03 18:47:42.
