data_PCOD9294998
_publ_section_title
;
Structure prediction by ZEFSAII (Michael W. Deem and Ramdas Pophale) SiO2 
 PCOD9294998
Probable space group: C 2/C
;
_chemical_formula_sum "Si O2"
_cell_formula_units_Z 32
_cell_length_a 18.256466
_cell_length_b 7.241941
_cell_length_c 13.207270
_cell_angle_alpha 90.000000
_cell_angle_beta 43.102631
_cell_angle_gamma 90.000000
_cell_volume 1193.165845
_symmetry_space_group_name_H-M "C 2/C"
_symmetry_group_IT_number 15
_symmetry_cell_setting 'monoclinic'
loop_
_space_group_symop_operation_xyz
x,y,z
-x,y,1/2-z
-x,-y,-z
x,-y,1/2+z
1/2+x,1/2+y,z
1/2-x,1/2+y,1/2-z
1/2-x,1/2-y,-z
1/2+x,1/2-y,1/2+z
loop_
_atom_site_type_symbol
_atom_site_label
_atom_site_fract_x
_atom_site_fract_y
_atom_site_fract_z
Si Si1 0.603588 0.502998 0.326334
Si Si2 0.335542 0.488999 0.450776
Si Si3 0.324508 0.181300 0.637043
Si Si4 0.392528 0.907196 0.418669
O O1 0.500000 0.500000 0.500000
O O2 0.596143 0.438998 0.218582
O O3 0.639798 0.718175 0.296629
O O4 0.703123 0.385802 0.267610
O O5 0.334773 0.335535 0.538155
O O6 0.379313 0.687738 0.440364
O O7 0.214226 0.517719 0.530911
O O8 0.390836 0.007918 0.529197
O O9 0.500000 0.951664 0.250000
#
# Coordination Sequence:
#
# PCOD9294998 Si02
#       4
#     8   8   8   8
#     4  11  27  45  75 107 142 192 243 301 355 439
#     4  10  25  48  66 102 149 181 238 297 358 428
#     4  11  27  46  70 105 149 182 240 299 362 424
#     4  10  23  41  74  98 131 194 232 287 357 427
#
# _framework density 26.819407000000002
#
# number of rings (size 3 to 8) (size 9 to 14) (size 15 to 20)
#    0.000    1.500    0.000    3.000   21.000    0.000 
#    0.000    2.500    0.000    0.000    0.000    0.000 
#    0.000    0.000    0.000    0.000    0.000    0.000 
#
# Total GULP energy -89812.642242 kJ/mol
# GULP energy per Si atom -5613.290140 kJ/mol
# Density = 2.675837 g / cm^3
# Si number density = 26.819407 Si / 1000 Ang^3
#
#
#
# Elastic Constant Matrix: (Units=GPa)
#
#
# Indices 1 2 3 4 5 6 
#
# 1 67.2882 4.4379 47.4328 0.0002 -11.2263 -0.0006
# 2 4.4379 101.5465 39.8093 -0.0001 -0.9436 -0.0006
# 3 47.4328 39.8093 246.4185 0.0000 -10.8758 -0.0001
# 4 0.0002 -0.0001 0.0000 56.8172 -0.0001 18.4304
# 5 -11.2263 -0.9436 -10.8758 -0.0001 43.0674 0.0002
# 6 -0.0006 -0.0006 -0.0001 18.4304 0.0002 28.5850
#
#
#
# Elastic Compliance Matrix: (Units=1/GPa)
#
#
# Indices 1 2 3 4 5 6 
#
# 1 0.017825 0.000572 -0.003355 0.000000 0.003812 0.000001
# 2 0.000572 0.010534 -0.001815 0.000000 -0.000079 0.000000
# 3 -0.003355 -0.001815 0.005013 0.000000 0.000351 0.000000
# 4 0.000000 0.000000 0.000000 0.022255 0.000000 -0.014349
# 5 0.003812 -0.000079 0.000351 0.000000 0.024300 0.000000
# 6 0.000001 0.000000 0.000000 -0.014349 0.000000 0.044235
#
#
# Mechanical properties :
#
#
# Convention : Reuss Voigt Hill
#
# Bulk Modulus (GPa) = 41.36714 66.51259 53.93986
# Shear Modulus (GPa) = 35.35657 47.26546 41.31102
#
# Velocity S-wave (km/s) = 3.63481 4.20260 3.92897
# Velocity P-wave (km/s) = 5.75096 6.95724 6.38266
#
# Compressibility (1/GPa) = 0.02417378
#
# Stress axis : x y z
#
# Youngs Moduli (GPa) = 56.10153 94.93418 199.49126
#
# Poissons Ratio (x) = -0.05428 0.66934
# Poissons Ratio (y) = -0.03208 0.36213
# Poissons Ratio (z) = 0.18823 0.17233
#
# Static dielectric constant tensor:
#      x y z
#    x 2.188550 0.000000 0.007540 
#    y 0.000000 2.092290 0.000000 
#    z 0.007540 0.000000 2.072490 
# 
# From -- ./inp_files/165917.got.cif
#   From: 2010.05.17/outbox.cif.g08.bks.cpg/sg15_83_cif.got.tgz:165917.got - 2010.06.03 18:47:42.
