data_PCOD9294562
_publ_section_title
;
Structure prediction by ZEFSAII (Michael W. Deem and Ramdas Pophale) SiO2 
 PCOD9294562
Probable space group: C 2/C
;
_chemical_formula_sum "Si O2"
_cell_formula_units_Z 40
_cell_length_a 28.399133
_cell_length_b 7.364045
_cell_length_c 18.616923
_cell_angle_alpha 90.000000
_cell_angle_beta 150.111507
_cell_angle_gamma 90.000000
_cell_volume 1940.136030
_symmetry_space_group_name_H-M "C 2/C"
_symmetry_group_IT_number 15
_symmetry_cell_setting 'monoclinic'
loop_
_space_group_symop_operation_xyz
x,y,z
-x,y,1/2-z
-x,-y,-z
x,-y,1/2+z
1/2+x,1/2+y,z
1/2-x,1/2+y,1/2-z
1/2-x,1/2-y,-z
1/2+x,1/2-y,1/2+z
loop_
_atom_site_type_symbol
_atom_site_label
_atom_site_fract_x
_atom_site_fract_y
_atom_site_fract_z
Si Si1 0.234268 0.846784 0.054692
Si Si2 0.909728 0.037507 0.429933
Si Si3 0.390676 0.952925 0.365516
Si Si4 0.595419 0.356612 0.417262
Si Si5 0.705318 0.999629 0.117424
O O1 0.326643 0.948998 0.209666
O O2 0.205814 0.679897 0.069461
O O3 0.250000 0.750000 0.000000
O O4 0.156036 0.003586 0.950014
O O5 0.887649 0.246555 0.386765
O O6 0.925001 0.032644 0.535513
O O7 0.813702 0.941727 0.277057
O O8 0.000000 0.000000 0.500000
O O9 0.342275 0.050880 0.369097
O O10 0.500000 0.000000 0.500000
O O11 0.500000 0.309241 0.250000
O O12 0.651436 0.171197 0.510518
#
# Coordination Sequence:
#
# PCOD9294562 Si02
#       5
#     8   8   8   8   8
#     4  11  26  43  68 103 141 182 224 293 354 396
#     4  10  23  40  69  98 128 180 230 275 337 413
#     4  10  23  40  70  99 127 184 230 271 342 411
#     4  11  26  43  68 101 139 181 228 287 350 402
#     4  10  24  48  67  96 141 182 230 283 339 416
#
# _framework density 20.617111999999999
#
# number of rings (size 3 to 8) (size 9 to 14) (size 15 to 20)
#    0.000    1.600    2.000    0.000   11.200    4.800 
#    0.000    0.000    0.000    0.000    0.000    0.000 
#    0.000    0.000    0.000    0.000    0.000    0.000 
#
# Total GULP energy -111632.535907 kJ/mol
# GULP energy per Si atom -5581.626795 kJ/mol
# Density = 2.057019 g / cm^3
# Si number density = 20.617112 Si / 1000 Ang^3
#
#
#
# Elastic Constant Matrix: (Units=GPa)
#
#
# Indices 1 2 3 4 5 6 
#
# 1 110.0704 28.7110 75.4199 0.0000 13.8078 0.0000
# 2 28.7110 102.1496 57.8601 0.0000 2.1928 0.0000
# 3 75.4199 57.8601 190.0993 0.0000 13.0349 0.0000
# 4 0.0000 0.0000 0.0000 33.9180 0.0000 3.5940
# 5 13.8078 2.1928 13.0349 0.0000 31.6756 0.0000
# 6 0.0000 0.0000 0.0000 3.5940 0.0000 37.3387
#
#
#
# Elastic Compliance Matrix: (Units=1/GPa)
#
#
# Indices 1 2 3 4 5 6 
#
# 1 0.012943 -0.000959 -0.004590 0.000000 -0.003687 0.000000
# 2 -0.000959 0.011914 -0.003312 0.000000 0.000956 0.000000
# 3 -0.004590 -0.003312 0.008167 0.000000 -0.001131 0.000000
# 4 0.000000 0.000000 0.000000 0.029787 0.000000 -0.002867
# 5 -0.003687 0.000956 -0.001131 0.000000 0.033576 0.000000
# 6 0.000000 0.000000 0.000000 -0.002867 0.000000 0.027058
#
#
# Mechanical properties :
#
#
# Convention : Reuss Voigt Hill
#
# Bulk Modulus (GPa) = 65.34610 80.70013 73.02312
# Shear Modulus (GPa) = 34.18404 36.60834 35.39619
#
# Velocity S-wave (km/s) = 4.07632 4.21839 4.14797
# Velocity P-wave (km/s) = 7.34296 7.93434 7.64437
#
# Compressibility (1/GPa) = 0.01530313
#
# Stress axis : x y z
#
# Youngs Moduli (GPa) = 77.26209 83.93344 122.44310
#
# Poissons Ratio (x) = 0.08046 0.56207
# Poissons Ratio (y) = 0.07406 0.40547
# Poissons Ratio (z) = 0.35467 0.27795
#
# Static dielectric constant tensor:
#      x y z
#    x 1.666780 0.000000 -0.110910 
#    y 0.000000 1.736930 0.000000 
#    z -0.110910 0.000000 1.667500 
# 
# From -- ./inp_files/221956.got.cif
#   From: 2010.05.17/outbox.cif.g08.bks.cpg/sg15_111_cif.got.tgz:221956.got - 2010.06.03 18:47:42.
