data_PCOD9294891
_publ_section_title
;
Structure prediction by ZEFSAII (Michael W. Deem and Ramdas Pophale) SiO2 
 PCOD9294891
Probable space group: C 2/C
;
_chemical_formula_sum "Si O2"
_cell_formula_units_Z 48
_cell_length_a 16.802422
_cell_length_b 9.888428
_cell_length_c 14.114464
_cell_angle_alpha 90.000000
_cell_angle_beta 106.093154
_cell_angle_gamma 90.000000
_cell_volume 2253.212128
_symmetry_space_group_name_H-M "C 2/C"
_symmetry_group_IT_number 15
_symmetry_cell_setting 'monoclinic'
loop_
_space_group_symop_operation_xyz
x,y,z
-x,y,1/2-z
-x,-y,-z
x,-y,1/2+z
1/2+x,1/2+y,z
1/2-x,1/2+y,1/2-z
1/2-x,1/2-y,-z
1/2+x,1/2-y,1/2+z
loop_
_atom_site_type_symbol
_atom_site_label
_atom_site_fract_x
_atom_site_fract_y
_atom_site_fract_z
Si Si1 0.789281 0.644401 0.585724
Si Si2 0.527648 0.028048 0.902419
Si Si3 0.000000 0.255017 0.250000
Si Si4 0.165487 0.843388 0.360021
Si Si5 0.312840 0.374243 0.921542
Si Si6 0.158198 0.127076 0.277910
Si Si7 0.000000 0.286921 0.750000
O O1 0.750000 0.750000 0.500000
O O2 0.877985 0.582973 0.580658
O O3 0.731631 0.517158 0.580691
O O4 0.793664 0.735019 0.682257
O O5 0.476522 0.143202 0.827854
O O6 0.513461 0.888811 0.841995
O O7 0.500000 0.000000 0.000000
O O8 0.073445 0.157884 0.304922
O O9 0.240540 0.737033 0.382281
O O10 0.141913 0.847878 0.464212
O O11 0.084499 0.798946 0.274544
O O12 0.194938 0.989531 0.331673
O O13 0.361080 0.382434 0.839139
#
# Coordination Sequence:
#
# PCOD9294891 Si02
#       7
#     8   8   4   8   8   8   4
#     4  11  22  45  67 100 136 172 235 284 330 419
#     4  10  23  41  68  94 134 181 217 274 349 408
#     4   9  23  42  60  98 132 164 228 278 322 412
#     4  11  24  43  64  99 131 169 225 278 330 417
#     4  11  24  42  69  94 133 178 220 278 345 405
#     4  11  23  42  67  94 133 174 216 285 343 395
#     4  11  23  44  62  96 136 168 226 274 328 416
#
# _framework density 21.302921000000001
#
# number of rings (size 3 to 8) (size 9 to 14) (size 15 to 20)
#    0.000    1.333    3.333    1.500    2.333    2.667 
#    0.000    1.667    0.000    0.000    0.000    0.000 
#    0.000    0.000    0.000    0.000    0.000    0.000 
#
# Total GULP energy -133891.806439 kJ/mol
# GULP energy per Si atom -5578.825268 kJ/mol
# Density = 2.125443 g / cm^3
# Si number density = 21.302921 Si / 1000 Ang^3
#
#
#
# Elastic Constant Matrix: (Units=GPa)
#
#
# Indices 1 2 3 4 5 6 
#
# 1 31.0926 31.4927 19.5491 0.0000 4.9023 0.0000
# 2 31.4927 138.4036 31.4060 0.0000 1.9781 0.0000
# 3 19.5491 31.4060 109.1738 0.0000 -21.0011 0.0000
# 4 0.0000 0.0000 0.0000 37.5317 0.0000 16.2363
# 5 4.9023 1.9781 -21.0011 0.0000 38.6110 0.0000
# 6 0.0000 0.0000 0.0000 16.2363 0.0000 22.8214
#
#
#
# Elastic Compliance Matrix: (Units=1/GPa)
#
#
# Indices 1 2 3 4 5 6 
#
# 1 0.047717 -0.008929 -0.007878 0.000000 -0.009886 0.000000
# 2 -0.008929 0.009513 -0.001132 0.000000 0.000031 0.000000
# 3 -0.007878 -0.001132 0.012397 0.000000 0.007801 0.000000
# 4 0.000000 0.000000 0.000000 0.038491 0.000000 -0.027384
# 5 -0.009886 0.000031 0.007801 0.000000 0.031396 0.000000
# 6 0.000000 0.000000 0.000000 -0.027384 0.000000 0.063301
#
#
# Mechanical properties :
#
#
# Convention : Reuss Voigt Hill
#
# Bulk Modulus (GPa) = 29.62928 49.28506 39.45717
# Shear Modulus (GPa) = 20.00466 32.87430 26.43948
#
# Velocity S-wave (km/s) = 3.06773 3.93260 3.52678
# Velocity P-wave (km/s) = 5.14652 6.61861 5.92844
#
# Compressibility (1/GPa) = 0.03375040
#
# Stress axis : x y z
#
# Youngs Moduli (GPa) = 20.95672 105.11524 80.66770
#
# Poissons Ratio (x) = 0.93856 0.63547
# Poissons Ratio (y) = 0.18712 0.09131
# Poissons Ratio (z) = 0.16509 0.11899
#
# Static dielectric constant tensor:
#      x y z
#    x 1.855250 0.000000 0.021600 
#    y 0.000000 1.784370 0.000000 
#    z 0.021600 0.000000 1.822520 
# 
# From -- ./inp_files/166421.got.cif
#   From: 2010.05.17/outbox.cif.g08.bks.cpg/sg15_84_cif.got.tgz:166421.got - 2010.06.03 18:47:42.
