data_PCOD9294524
_publ_section_title
;
Structure prediction by ZEFSAII (Michael W. Deem and Ramdas Pophale) SiO2 
 PCOD9294524
Probable space group: C 2/C
;
_chemical_formula_sum "Si O2"
_cell_formula_units_Z 40
_cell_length_a 20.984447
_cell_length_b 12.047196
_cell_length_c 9.823841
_cell_angle_alpha 90.000000
_cell_angle_beta 45.128254
_cell_angle_gamma 90.000000
_cell_volume 1760.028934
_symmetry_space_group_name_H-M "C 2/C"
_symmetry_group_IT_number 15
_symmetry_cell_setting 'monoclinic'
loop_
_space_group_symop_operation_xyz
x,y,z
-x,y,1/2-z
-x,-y,-z
x,-y,1/2+z
1/2+x,1/2+y,z
1/2-x,1/2+y,1/2-z
1/2-x,1/2-y,-z
1/2+x,1/2-y,1/2+z
loop_
_atom_site_type_symbol
_atom_site_label
_atom_site_fract_x
_atom_site_fract_y
_atom_site_fract_z
Si Si1 0.111578 0.477196 0.698801
Si Si2 0.822082 0.809294 0.795392
Si Si3 0.236465 0.493556 0.763269
Si Si4 0.411395 0.390094 0.927792
Si Si5 0.497586 0.813321 0.039010
O O1 0.193996 0.497473 0.678710
O O2 0.157059 0.469923 0.483972
O O3 0.044444 0.582291 0.813972
O O4 0.060698 0.369003 0.831116
O O5 0.869766 0.879980 0.840424
O O6 0.907090 0.740587 0.613332
O O7 0.767010 0.871171 0.762810
O O8 0.750000 0.750000 0.000000
O O9 0.328915 0.561905 0.637407
O O10 0.500000 0.459073 0.750000
O O11 0.448931 0.278141 0.948479
#
# Coordination Sequence:
#
# PCOD9294524 Si02
#       5
#     8   8   8   8   8
#     4  11  25  41  70  98 132 179 218 287 327 397
#     4  11  20  40  69  95 128 183 220 265 334 410
#     4  12  23  44  67 100 136 171 229 273 341 396
#     4  10  23  40  67  98 131 178 220 275 335 405
#     4  10  23  41  65  99 132 173 227 268 334 399
#
# _framework density 22.726900000000001
#
# number of rings (size 3 to 8) (size 9 to 14) (size 15 to 20)
#    0.000    1.200    4.000    1.200    5.600    6.400 
#    0.000    2.000    0.000    0.000    0.000    0.000 
#    0.000    0.000    0.000    0.000    0.000    0.000 
#
# Total GULP energy -111540.758507 kJ/mol
# GULP energy per Si atom -5577.037925 kJ/mol
# Density = 2.267517 g / cm^3
# Si number density = 22.726900 Si / 1000 Ang^3
#
#
#
# Elastic Constant Matrix: (Units=GPa)
#
#
# Indices 1 2 3 4 5 6 
#
# 1 91.0822 13.5400 -6.4456 0.0000 -14.9080 0.0000
# 2 13.5400 58.6109 25.3576 0.0000 -9.5742 0.0000
# 3 -6.4456 25.3576 114.1044 0.0000 -38.6246 0.0000
# 4 0.0000 0.0000 0.0000 28.9185 0.0000 -21.0899
# 5 -14.9080 -9.5742 -38.6246 0.0000 36.1084 0.0000
# 6 0.0000 0.0000 0.0000 -21.0899 0.0000 35.7157
#
#
#
# Elastic Compliance Matrix: (Units=1/GPa)
#
#
# Indices 1 2 3 4 5 6 
#
# 1 0.013475 -0.003624 0.004898 0.000000 0.009842 0.000000
# 2 -0.003624 0.019867 -0.005241 0.000000 -0.001835 0.000000
# 3 0.004898 -0.005241 0.016334 0.000000 0.018105 0.000000
# 4 0.000000 0.000000 0.000000 0.060735 0.000000 0.035863
# 5 0.009842 -0.001835 0.018105 0.000000 0.050638 0.000000
# 6 0.000000 0.000000 0.000000 0.035863 0.000000 0.049176
#
#
# Mechanical properties :
#
#
# Convention : Reuss Voigt Hill
#
# Bulk Modulus (GPa) = 23.95680 36.52237 30.23958
# Shear Modulus (GPa) = 21.54505 35.57156 28.55830
#
# Velocity S-wave (km/s) = 3.08230 3.96052 3.54868
# Velocity P-wave (km/s) = 4.81990 6.08435 5.48866
#
# Compressibility (1/GPa) = 0.04174181
#
# Stress axis : x y z
#
# Youngs Moduli (GPa) = 74.20898 50.33558 61.22301
#
# Poissons Ratio (x) = 0.18244 -0.29989
# Poissons Ratio (y) = 0.26897 0.32086
# Poissons Ratio (z) = -0.36350 0.26380
#
# Static dielectric constant tensor:
#      x y z
#    x 1.801620 0.000000 -0.029190 
#    y 0.000000 1.979640 0.000000 
#    z -0.029190 0.000000 1.863780 
# 
# From -- ./inp_files/117383.got.cif
#   From: 2010.05.17/outbox.cif.g08.bks.cpg/sg15_59_cif.got.tgz:117383.got - 2010.06.03 18:47:42.
