data_PCOD9294363
_publ_section_title
;
Structure prediction by ZEFSAII (Michael W. Deem and Ramdas Pophale) SiO2 
 PCOD9294363
Probable space group: C 2/C
;
_chemical_formula_sum "Si O2"
_cell_formula_units_Z 64
_cell_length_a 30.736920
_cell_length_b 20.122592
_cell_length_c 15.921880
_cell_angle_alpha 90.000000
_cell_angle_beta 19.070699
_cell_angle_gamma 90.000000
_cell_volume 3217.612613
_symmetry_space_group_name_H-M "C 2/C"
_symmetry_group_IT_number 15
_symmetry_cell_setting 'monoclinic'
loop_
_space_group_symop_operation_xyz
x,y,z
-x,y,1/2-z
-x,-y,-z
x,-y,1/2+z
1/2+x,1/2+y,z
1/2-x,1/2+y,1/2-z
1/2-x,1/2-y,-z
1/2+x,1/2-y,1/2+z
loop_
_atom_site_type_symbol
_atom_site_label
_atom_site_fract_x
_atom_site_fract_y
_atom_site_fract_z
Si Si1 0.058901 0.804227 0.289199
Si Si2 0.689791 0.848644 0.768646
Si Si3 0.540124 0.754470 0.274030
Si Si4 0.735127 0.355830 0.681024
Si Si5 0.354080 0.501119 0.227495
Si Si6 0.092769 0.337215 0.662966
Si Si7 0.610549 0.051666 0.270161
Si Si8 0.109591 0.857748 0.382996
O O1 0.068643 0.724864 0.268832
O O2 0.099877 0.840244 0.301249
O O3 0.907359 0.821694 0.546361
O O4 0.163739 0.828001 0.028402
O O5 0.694728 0.867221 0.857371
O O6 0.641383 0.905126 0.795178
O O7 0.580603 0.791042 0.958605
O O8 0.500000 0.751458 0.250000
O O9 0.521305 0.678638 0.340782
O O10 0.669847 0.802666 0.042311
O O11 0.696607 0.428171 0.714628
O O12 0.245926 0.483275 0.494733
O O13 0.369698 0.436403 0.138820
O O14 0.500000 0.500000 0.000000
O O15 0.074761 0.402134 0.754660
O O16 0.246006 0.330577 0.352621
O O17 0.000000 0.336189 0.750000
O O18 0.500000 0.000000 0.500000
#
# Coordination Sequence:
#
# PCOD9294363 Si02
#       8
#     8   8   8   8   8   8   8   8
#     4  12  21  40  70  96 122 166 225 272 319 395
#     4  11  20  41  67  94 124 171 223 272 320 393
#     4  10  23  40  62  97 136 167 216 280 343 386
#     4  11  24  39  66  98 130 173 222 273 330 399
#     4  11  22  44  61  91 133 179 213 268 332 404
#     4  11  23  39  67 100 126 165 218 276 322 391
#     4  11  24  41  65  93 129 169 221 268 326 392
#     4  11  22  42  69  90 137 174 213 274 342 389
#
# _framework density 19.890523000000002
#
# number of rings (size 3 to 8) (size 9 to 14) (size 15 to 20)
#    0.000    1.000    5.000    3.000    1.750    2.500 
#    2.250    3.125    0.000    0.000    0.000    0.000 
#    0.000    0.000    0.000    0.000    0.000    0.000 
#
# Total GULP energy -178362.818052 kJ/mol
# GULP energy per Si atom -5573.838064 kJ/mol
# Density = 1.984525 g / cm^3
# Si number density = 19.890523 Si / 1000 Ang^3
#
#
#
# Elastic Constant Matrix: (Units=GPa)
#
#
# Indices 1 2 3 4 5 6 
#
# 1 49.4050 2.8048 17.5540 -0.0007 -7.6213 0.0005
# 2 2.8048 109.0275 63.9153 -0.0004 2.3702 0.0004
# 3 17.5540 63.9153 118.7156 -0.0006 -6.1463 0.0003
# 4 -0.0007 -0.0004 -0.0006 36.9420 0.0004 -6.0209
# 5 -7.6213 2.3702 -6.1463 0.0004 27.5587 -0.0003
# 6 0.0005 0.0004 0.0003 -6.0209 -0.0003 14.1272
#
#
#
# Elastic Compliance Matrix: (Units=1/GPa)
#
#
# Indices 1 2 3 4 5 6 
#
# 1 0.022331 0.001596 -0.003893 0.000000 0.005170 0.000000
# 2 0.001596 0.013732 -0.007757 0.000000 -0.002470 0.000000
# 3 -0.003893 -0.007757 0.013308 0.000000 0.002558 0.000000
# 4 0.000000 0.000000 0.000000 0.029090 0.000000 0.012398
# 5 0.005170 -0.002470 0.002558 0.000000 0.038499 0.000001
# 6 0.000000 0.000000 0.000000 0.012398 0.000001 0.076069
#
#
# Mechanical properties :
#
#
# Convention : Reuss Voigt Hill
#
# Bulk Modulus (GPa) = 34.17462 49.52183 41.84823
# Shear Modulus (GPa) = 22.43229 28.58385 25.50807
#
# Velocity S-wave (km/s) = 3.36190 3.79497 3.58498
# Velocity P-wave (km/s) = 5.68229 6.64482 6.18232
#
# Compressibility (1/GPa) = 0.02926148
#
# Stress axis : x y z
#
# Youngs Moduli (GPa) = 44.78047 72.82249 75.14320
#
# Poissons Ratio (x) = -0.11619 0.29256
# Poissons Ratio (y) = -0.07145 0.58288
# Poissons Ratio (z) = 0.17435 0.56488
#
# Static dielectric constant tensor:
#      x y z
#    x 1.704560 0.000000 -0.014390 
#    y 0.000000 1.953620 0.000000 
#    z -0.014390 0.000000 1.712940 
# 
# From -- ./inp_files/183131.got.cif
#   From: 2010.05.17/outbox.cif.g08.bks.cpg/sg15_92_cif.got.tgz:183131.got - 2010.06.03 18:47:42.
