data_PCOD9294961
_publ_section_title
;
Structure prediction by ZEFSAII (Michael W. Deem and Ramdas Pophale) SiO2 
 PCOD9294961
Probable space group: C 2/C
;
_chemical_formula_sum "Si O2"
_cell_formula_units_Z 32
_cell_length_a 5.071610
_cell_length_b 23.207193
_cell_length_c 10.561060
_cell_angle_alpha 90.000000
_cell_angle_beta 79.998285
_cell_angle_gamma 90.000000
_cell_volume 1224.123232
_symmetry_space_group_name_H-M "C 2/C"
_symmetry_group_IT_number 15
_symmetry_cell_setting 'monoclinic'
loop_
_space_group_symop_operation_xyz
x,y,z
-x,y,1/2-z
-x,-y,-z
x,-y,1/2+z
1/2+x,1/2+y,z
1/2-x,1/2+y,1/2-z
1/2-x,1/2-y,-z
1/2+x,1/2-y,1/2+z
loop_
_atom_site_type_symbol
_atom_site_label
_atom_site_fract_x
_atom_site_fract_y
_atom_site_fract_z
Si Si1 0.098392 0.842978 0.964738
Si Si2 0.196566 0.542013 0.114290
Si Si3 0.851873 0.418877 0.395887
Si Si4 0.500120 0.224688 0.893965
O O1 0.313927 0.822379 0.051676
O O2 0.825215 0.862153 0.060567
O O3 0.128554 0.901283 0.882769
O O4 0.139322 0.788074 0.872378
O O5 0.000000 0.540247 0.250000
O O6 0.323419 0.478026 0.102992
O O7 0.041793 0.560744 0.996915
O O8 0.000000 0.414092 0.250000
O O9 0.500000 0.207007 0.750000
O O10 0.250000 0.250000 0.000000
#
# Coordination Sequence:
#
# PCOD9294961 Si02
#       4
#     8   8   8   8
#     4  11  25  43  76  99 147 194 242 310 380 445
#     4  10  23  41  71 107 145 189 244 304 375 453
#     4  10  23  44  69 109 148 190 245 302 376 459
#     4  11  28  48  70 107 143 192 260 313 378 450
#
# _framework density 26.141159999999999
#
# number of rings (size 3 to 8) (size 9 to 14) (size 15 to 20)
#    0.000    1.500    0.000    2.250    7.000   10.000 
#    0.000    7.500    0.000    0.000    0.000    0.000 
#    0.000    0.000    0.000    0.000    0.000    0.000 
#
# Total GULP energy -89124.727078 kJ/mol
# GULP energy per Si atom -5570.295442 kJ/mol
# Density = 2.608166 g / cm^3
# Si number density = 26.141160 Si / 1000 Ang^3
#
#
#
# Elastic Constant Matrix: (Units=GPa)
#
#
# Indices 1 2 3 4 5 6 
#
# 1 88.9301 7.8880 44.6177 0.0000 6.4826 0.0000
# 2 7.8880 202.9084 38.2311 0.0000 0.5483 0.0000
# 3 44.6177 38.2311 153.8211 0.0000 14.2575 0.0000
# 4 0.0000 0.0000 0.0000 -18.7291 0.0000 -25.5532
# 5 6.4826 0.5483 14.2575 0.0000 40.6221 0.0000
# 6 0.0000 0.0000 0.0000 -25.5532 0.0000 41.1763
#
#
#
# Elastic Compliance Matrix: (Units=1/GPa)
#
#
# Indices 1 2 3 4 5 6 
#
# 1 0.013192 0.000206 -0.003806 0.000000 -0.000772 0.000000
# 2 0.000206 0.005180 -0.001383 0.000000 0.000382 0.000000
# 3 -0.003806 -0.001383 0.008156 0.000000 -0.002237 0.000000
# 4 0.000000 0.000000 0.000000 -0.028913 0.000000 -0.017943
# 5 -0.000772 0.000382 -0.002237 0.000000 0.025520 0.000000
# 6 0.000000 0.000000 0.000000 -0.017943 0.000000 0.013151
#
#
# Mechanical properties :
#
#
# Convention : Reuss Voigt Hill
#
# Bulk Modulus (GPa) = 60.37546 69.68148 65.02847
# Shear Modulus (GPa) = 96.57487 36.27537 66.42512
#
# Velocity S-wave (km/s) = 6.08472 3.72919 5.04632
# Velocity P-wave (km/s) = 8.51535 6.72727 7.67357
#
# Compressibility (1/GPa) = 0.01656302
#
# Stress axis : x y z
#
# Youngs Moduli (GPa) = 75.80070 193.05768 122.60739
#
# Poissons Ratio (x) = -0.03985 0.46669
# Poissons Ratio (y) = -0.01565 0.16953
# Poissons Ratio (z) = 0.28853 0.26694
#
# Static dielectric constant tensor:
#      x y z
#    x 2.584270 0.000000 -0.104060 
#    y 0.000000 2.384340 0.000000 
#    z -0.104060 0.000000 2.251140 
# 
# From -- ./inp_files/72099.got.cif
#   From: 2010.05.17/outbox.cif.g08.bks.cpg/sg15_37_cif.got.tgz:72099.got - 2010.06.03 18:47:42.
