data_PCOD9294689
_publ_section_title
;
Structure prediction by ZEFSAII (Michael W. Deem and Ramdas Pophale) SiO2 
 PCOD9294689
Probable space group: C 2/C
;
_chemical_formula_sum "Si O2"
_cell_formula_units_Z 44
_cell_length_a 5.323325
_cell_length_b 29.015706
_cell_length_c 12.560268
_cell_angle_alpha 90.000000
_cell_angle_beta 81.259727
_cell_angle_gamma 90.000000
_cell_volume 1917.530126
_symmetry_space_group_name_H-M "C 2/C"
_symmetry_group_IT_number 15
_symmetry_cell_setting 'monoclinic'
loop_
_space_group_symop_operation_xyz
x,y,z
-x,y,1/2-z
-x,-y,-z
x,-y,1/2+z
1/2+x,1/2+y,z
1/2-x,1/2+y,1/2-z
1/2-x,1/2-y,-z
1/2+x,1/2-y,1/2+z
loop_
_atom_site_type_symbol
_atom_site_label
_atom_site_fract_x
_atom_site_fract_y
_atom_site_fract_z
Si Si1 0.731018 0.370057 0.443659
Si Si2 0.500000 0.866043 0.750000
Si Si3 0.583076 0.212845 0.869071
Si Si4 0.898187 0.183786 0.131891
Si Si5 0.000000 0.159478 0.750000
Si Si6 0.000000 0.929356 0.750000
Si Si7 0.760635 0.971847 0.970605
O O1 0.531717 0.352476 0.545487
O O2 0.652402 0.371548 0.323780
O O3 0.795232 0.421787 0.473680
O O4 0.935730 0.329075 0.431856
O O5 0.399749 0.830124 0.845166
O O6 0.248789 0.897814 0.761114
O O7 0.500000 0.214059 0.750000
O O8 0.560477 0.264352 0.912214
O O9 0.866869 0.194303 0.840836
O O10 0.000000 0.184013 0.250000
O O11 0.130622 0.960491 0.652725
O O12 0.500000 0.000000 0.000000
O O13 0.000000 0.000000 0.000000
#
# Coordination Sequence:
#
# PCOD9294689 Si02
#       7
#     8   4   8   8   4   4   8
#     4  11  24  44  70 103 147 197 244 314 371 447
#     4  12  21  42  76 109 152 195 232 310 369 430
#     4   9  21  41  65 103 150 196 250 296 362 449
#     4  11  22  39  71 108 148 198 249 302 370 437
#     4  10  23  41  64 100 152 196 242 293 367 454
#     4  12  26  51  76 109 148 185 250 317 378 452
#     4  12  29  51  79 110 143 192 252 318 389 452
#
# _framework density 22.946182
#
# number of rings (size 3 to 8) (size 9 to 14) (size 15 to 20)
#    0.000    1.091    2.727    2.182    2.545    2.909 
#    6.545    0.000    0.000    0.000    0.000    0.000 
#    0.000    0.000    0.000    0.000    0.000    0.000 
#
# Total GULP energy -122603.760803 kJ/mol
# GULP energy per Si atom -5572.898218 kJ/mol
# Density = 2.289396 g / cm^3
# Si number density = 22.946182 Si / 1000 Ang^3
#
#
#
# Elastic Constant Matrix: (Units=GPa)
#
#
# Indices 1 2 3 4 5 6 
#
# 1 130.9589 81.2411 48.4273 0.0000 -33.0006 0.0000
# 2 81.2411 213.6118 74.3149 0.0000 -24.3116 0.0000
# 3 48.4273 74.3149 110.4503 0.0000 3.9382 0.0000
# 4 0.0000 0.0000 0.0000 16.3792 0.0000 -18.0378
# 5 -33.0006 -24.3116 3.9382 0.0000 37.8477 0.0000
# 6 0.0000 0.0000 0.0000 -18.0378 0.0000 22.4940
#
#
#
# Elastic Compliance Matrix: (Units=1/GPa)
#
#
# Indices 1 2 3 4 5 6 
#
# 1 0.013548 -0.002237 -0.004823 0.000000 0.010878 0.000000
# 2 -0.002237 0.007298 -0.004042 0.000000 0.003158 0.000000
# 3 -0.004823 -0.004042 0.014183 0.000000 -0.008278 0.000000
# 4 0.000000 0.000000 0.000000 0.522261 0.000000 0.418799
# 5 0.010878 0.003158 -0.008278 0.000000 0.038797 0.000000
# 6 0.000000 0.000000 0.000000 0.418799 0.000000 0.380290
#
#
# Mechanical properties :
#
#
# Convention : Reuss Voigt Hill
#
# Bulk Modulus (GPa) = 77.97002 95.88752 86.92877
# Shear Modulus (GPa) = 4.98576 32.08002 18.53289
#
# Velocity S-wave (km/s) = 1.47564 3.74311 2.84503
# Velocity P-wave (km/s) = 6.07920 7.78203 6.98271
#
# Compressibility (1/GPa) = 0.01282544
#
# Stress axis : x y z
#
# Youngs Moduli (GPa) = 73.80948 137.02974 70.50455
#
# Poissons Ratio (x) = 0.30648 0.34007
# Poissons Ratio (y) = 0.16508 0.28499
# Poissons Ratio (z) = 0.35601 0.55389
#
# Static dielectric constant tensor:
#      x y z
#    x 2.053950 0.000000 0.077680 
#    y 0.000000 1.897560 0.000000 
#    z 0.077680 0.000000 2.004850 
# 
# From -- ./inp_files/73899.got.cif
#   From: 2010.05.17/outbox.cif.g08.bks.cpg/sg15_37_cif.got.tgz:73899.got - 2010.06.03 18:47:42.
