data_PCOD9294630
_publ_section_title
;
Structure prediction by ZEFSAII (Michael W. Deem and Ramdas Pophale) SiO2 
 PCOD9294630
Probable space group: C 2/C
;
_chemical_formula_sum "Si O2"
_cell_formula_units_Z 40
_cell_length_a 8.393858
_cell_length_b 18.371775
_cell_length_c 12.415082
_cell_angle_alpha 90.000000
_cell_angle_beta 77.980715
_cell_angle_gamma 90.000000
_cell_volume 1872.559497
_symmetry_space_group_name_H-M "C 2/C"
_symmetry_group_IT_number 15
_symmetry_cell_setting 'monoclinic'
loop_
_space_group_symop_operation_xyz
x,y,z
-x,y,1/2-z
-x,-y,-z
x,-y,1/2+z
1/2+x,1/2+y,z
1/2-x,1/2+y,1/2-z
1/2-x,1/2-y,-z
1/2+x,1/2-y,1/2+z
loop_
_atom_site_type_symbol
_atom_site_label
_atom_site_fract_x
_atom_site_fract_y
_atom_site_fract_z
Si Si1 0.299448 0.845146 0.692466
Si Si2 0.903619 0.696185 0.481767
Si Si3 0.283647 0.572971 0.074922
Si Si4 0.831393 0.090146 0.509047
Si Si5 0.875390 0.297829 0.345051
O O1 0.476196 0.811607 0.637472
O O2 0.271034 0.893787 0.802112
O O3 0.249099 0.892896 0.595221
O O4 0.182550 0.774760 0.706622
O O5 0.750000 0.750000 0.500000
O O6 0.822205 0.616230 0.498864
O O7 0.021650 0.718346 0.562064
O O8 0.269331 0.486780 0.063430
O O9 0.474736 0.589352 0.031820
O O10 0.774598 0.153485 0.597114
O O11 0.000000 0.339172 0.250000
#
# Coordination Sequence:
#
# PCOD9294630 Si02
#       5
#     8   8   8   8   8
#     4  11  22  41  65  90 127 168 205 256 321 373
#     4  11  22  38  63  93 121 156 210 258 298 368
#     4  11  23  40  64  93 126 165 209 260 313 371
#     4  10  23  41  62  90 127 167 208 256 314 378
#     4  11  23  39  63  89 125 168 206 256 316 376
#
# _framework density 21.361138
#
# number of rings (size 3 to 8) (size 9 to 14) (size 15 to 20)
#    0.000    1.200    0.000    8.400    0.000    6.400 
#    0.000    5.000    0.000    0.000    0.000    0.000 
#    0.000    0.000    0.000    0.000    0.000    0.000 
#
# Total GULP energy -111727.218565 kJ/mol
# GULP energy per Si atom -5586.360928 kJ/mol
# Density = 2.131252 g / cm^3
# Si number density = 21.361138 Si / 1000 Ang^3
#
#
#
# Elastic Constant Matrix: (Units=GPa)
#
#
# Indices 1 2 3 4 5 6 
#
# 1 79.0120 25.7823 5.8039 0.0000 -29.1567 0.0000
# 2 25.7823 111.2389 33.7602 0.0000 -12.9232 0.0000
# 3 5.8039 33.7602 87.9956 0.0000 -28.6895 0.0000
# 4 0.0000 0.0000 0.0000 36.3582 0.0000 -2.8206
# 5 -29.1567 -12.9232 -28.6895 0.0000 28.5028 0.0000
# 6 0.0000 0.0000 0.0000 -2.8206 0.0000 37.5406
#
#
#
# Elastic Compliance Matrix: (Units=1/GPa)
#
#
# Indices 1 2 3 4 5 6 
#
# 1 0.028258 -0.006000 0.013360 0.000000 0.039633 0.000000
# 2 -0.006000 0.011468 -0.006415 0.000000 -0.007395 0.000000
# 3 0.013360 -0.006415 0.024488 0.000000 0.035406 0.000000
# 4 0.000000 0.000000 0.000000 0.027665 0.000000 0.002079
# 5 0.039633 -0.007395 0.035406 0.000000 0.107912 0.000000
# 6 0.000000 0.000000 0.000000 0.002079 0.000000 0.026794
#
#
# Mechanical properties :
#
#
# Convention : Reuss Voigt Hill
#
# Bulk Modulus (GPa) = 15.12765 45.43768 30.28267
# Shear Modulus (GPa) = 20.26510 34.67367 27.46939
#
# Velocity S-wave (km/s) = 3.08342 4.03328 3.58991
# Velocity P-wave (km/s) = 4.44678 6.55799 5.60273
#
# Compressibility (1/GPa) = 0.06610413
#
# Stress axis : x y z
#
# Youngs Moduli (GPa) = 35.38808 87.19873 40.83682
#
# Poissons Ratio (x) = 0.52317 -0.54557
# Poissons Ratio (y) = 0.21232 0.26197
# Poissons Ratio (z) = -0.47278 0.55938
#
# Static dielectric constant tensor:
#      x y z
#    x 1.818530 0.000000 0.010620 
#    y 0.000000 1.761610 0.000000 
#    z 0.010620 0.000000 1.806220 
# 
# From -- ./inp_files/76661.got.cif
#   From: 2010.05.17/outbox.cif.g08.bks.cpg/sg15_39_cif.got.tgz:76661.got - 2010.06.03 18:47:42.
