data_PCOD9294014
_publ_section_title
;
Structure prediction by ZEFSAII (Michael W. Deem and Ramdas Pophale) SiO2 
 PCOD9294014
Probable space group: C 2/C
;
_chemical_formula_sum "Si O2"
_cell_formula_units_Z 56
_cell_length_a 13.849599
_cell_length_b 5.716432
_cell_length_c 28.198624
_cell_angle_alpha 90.000000
_cell_angle_beta 106.446521
_cell_angle_gamma 90.000000
_cell_volume 2141.149492
_symmetry_space_group_name_H-M "C 2/C"
_symmetry_group_IT_number 15
_symmetry_cell_setting 'monoclinic'
loop_
_space_group_symop_operation_xyz
x,y,z
-x,y,1/2-z
-x,-y,-z
x,-y,1/2+z
1/2+x,1/2+y,z
1/2-x,1/2+y,1/2-z
1/2-x,1/2-y,-z
1/2+x,1/2-y,1/2+z
loop_
_atom_site_type_symbol
_atom_site_label
_atom_site_fract_x
_atom_site_fract_y
_atom_site_fract_z
Si Si1 0.424476 0.233208 0.140371
Si Si2 0.378258 0.028393 0.818110
Si Si3 0.215242 0.509288 0.950841
Si Si4 0.913001 0.242529 0.999037
Si Si5 0.245480 0.215872 0.633355
Si Si6 0.304079 0.146946 0.210700
Si Si7 0.547810 0.518360 0.585492
O O1 0.502690 0.012596 0.156944
O O2 0.370585 0.294633 0.182249
O O3 0.493166 0.431261 0.126835
O O4 0.338699 0.181440 0.089234
O O5 0.321937 0.921964 0.856222
O O6 0.354985 0.868976 0.768757
O O7 0.309757 0.257156 0.798399
O O8 0.151051 0.547373 0.989244
O O9 0.206630 0.731516 0.911944
O O10 0.330289 0.529880 0.984382
O O11 0.957344 0.237590 0.952524
O O12 0.997196 0.185272 0.049036
O O13 0.165288 0.004210 0.612173
O O14 0.307976 0.105706 0.684852
#
# Coordination Sequence:
#
# PCOD9294014 Si02
#       7
#     8   8   8   8   8   8   8
#     4  10  23  38  58  90 117 148 207 247 290 373
#     4  11  22  40  63  86 120 159 193 254 305 358
#     4   9  19  35  55  82 115 152 194 245 289 358
#     4   9  18  34  56  78 117 156 190 242 298 353
#     4   9  20  38  56  86 119 150 203 239 297 366
#     4  11  22  40  63  86 120 159 193 254 305 358
#     4   9  19  35  55  82 115 152 194 245 289 358
#
# _framework density 26.154176
#
# number of rings (size 3 to 8) (size 9 to 14) (size 15 to 20)
#    0.000    2.286    1.429    0.429    4.000    1.143 
#    0.000    0.000    0.000    0.000    0.000    0.000 
#    0.000    0.000    0.000    0.000    0.000    0.000 
#
# Total GULP energy -156056.525819 kJ/mol
# GULP energy per Si atom -5573.447351 kJ/mol
# Density = 2.609465 g / cm^3
# Si number density = 26.154176 Si / 1000 Ang^3
#
#
#
# Elastic Constant Matrix: (Units=GPa)
#
#
# Indices 1 2 3 4 5 6 
#
# 1 106.9594 20.8245 3.8003 0.0000 0.2817 0.0000
# 2 20.8245 28.9999 18.4862 0.0000 4.3743 0.0000
# 3 3.8003 18.4862 106.6328 0.0000 -12.1608 0.0000
# 4 0.0000 0.0000 0.0000 19.3560 0.0000 5.7217
# 5 0.2817 4.3743 -12.1608 0.0000 53.0723 0.0000
# 6 0.0000 0.0000 0.0000 5.7217 0.0000 22.9381
#
#
#
# Elastic Compliance Matrix: (Units=1/GPa)
#
#
# Indices 1 2 3 4 5 6 
#
# 1 0.011028 -0.008862 0.001253 0.000000 0.000959 0.000000
# 2 -0.008862 0.047150 -0.008519 0.000000 -0.005791 0.000000
# 3 0.001253 -0.008519 0.011182 0.000000 0.003258 0.000000
# 4 0.000000 0.000000 0.000000 0.055776 0.000000 -0.013913
# 5 0.000959 -0.005791 0.003258 0.000000 0.020061 0.000000
# 6 0.000000 0.000000 0.000000 -0.013913 0.000000 0.047066
#
#
# Mechanical properties :
#
#
# Convention : Reuss Voigt Hill
#
# Bulk Modulus (GPa) = 26.95156 36.53490 31.74323
# Shear Modulus (GPa) = 21.10711 32.37203 26.73957
#
# Velocity S-wave (km/s) = 2.84390 3.52197 3.20094
# Velocity P-wave (km/s) = 4.59467 5.52615 5.08180
#
# Compressibility (1/GPa) = 0.03710361
#
# Stress axis : x y z
#
# Youngs Moduli (GPa) = 90.68061 21.20871 89.43200
#
# Poissons Ratio (x) = 0.18795 -0.11203
# Poissons Ratio (y) = 0.80362 0.76185
# Poissons Ratio (z) = -0.11360 0.18067
#
# Static dielectric constant tensor:
#      x y z
#    x 2.102420 0.000000 -0.025830 
#    y 0.000000 2.160310 0.000000 
#    z -0.025830 0.000000 2.055170 
# 
# From -- ./inp_files/294855.got.cif
#   From: 2010.05.17/outbox.cif.g08.bks.cpg/sg15_148_cif.got.tgz:294855.got - 2010.06.03 18:47:42.
