data_PCOD9294864
_publ_section_title
;
Structure prediction by ZEFSAII (Michael W. Deem and Ramdas Pophale) SiO2 
 PCOD9294864
Probable space group: C 2/C
;
_chemical_formula_sum "Si O2"
_cell_formula_units_Z 48
_cell_length_a 17.882107
_cell_length_b 5.109261
_cell_length_c 18.260506
_cell_angle_alpha 90.000000
_cell_angle_beta 106.869470
_cell_angle_gamma 90.000000
_cell_volume 1596.567040
_symmetry_space_group_name_H-M "C 2/C"
_symmetry_group_IT_number 15
_symmetry_cell_setting 'monoclinic'
loop_
_space_group_symop_operation_xyz
x,y,z
-x,y,1/2-z
-x,-y,-z
x,-y,1/2+z
1/2+x,1/2+y,z
1/2-x,1/2+y,1/2-z
1/2-x,1/2-y,-z
1/2+x,1/2-y,1/2+z
loop_
_atom_site_type_symbol
_atom_site_label
_atom_site_fract_x
_atom_site_fract_y
_atom_site_fract_z
Si Si1 0.000000 0.570205 0.250000
Si Si2 0.250000 0.250000 0.000000
Si Si3 0.612747 0.047873 0.060088
Si Si4 0.196398 0.061630 0.131888
Si Si5 0.137199 0.782740 0.924152
Si Si6 0.003760 0.136656 0.623438
Si Si7 0.628823 0.670457 0.250249
O O1 0.045231 0.700339 0.330862
O O2 0.934445 0.402732 0.273710
O O3 0.242083 0.323474 0.906923
O O4 0.195033 0.991677 0.975465
O O5 0.673561 0.259969 0.112250
O O6 0.533679 0.186660 0.065365
O O7 0.621771 0.752819 0.090168
O O8 0.640524 0.036287 0.982389
O O9 0.203370 0.144344 0.218666
O O10 0.050026 0.896351 0.913314
O O11 0.149008 0.796951 0.840837
O O12 0.073592 0.058248 0.700257
#
# Coordination Sequence:
#
# PCOD9294864 Si02
#       7
#     4   4   8   8   8   8   8
#     4  12  18  36  68 102 138 166 224 296 366 410
#     4  10  26  48  68  96 144 194 236 280 344 426
#     4  10  23  41  68 101 138 179 229 291 359 413
#     4  10  23  46  68  95 140 185 237 288 338 416
#     4  11  22  43  66 101 140 188 231 288 348 423
#     4  11  21  40  63 102 140 176 231 293 356 416
#     4  11  22  40  66 104 135 176 235 295 352 410
#
# _framework density 30.064509000000001
#
# number of rings (size 3 to 8) (size 9 to 14) (size 15 to 20)
#    0.000    1.333    5.000    0.500    0.000    5.333 
#    0.000   12.500    0.000    0.000    0.000    0.000 
#    0.000    0.000    0.000    0.000    0.000    0.000 
#
# Total GULP energy -133893.072889 kJ/mol
# GULP energy per Si atom -5578.878037 kJ/mol
# Density = 2.999608 g / cm^3
# Si number density = 30.064509 Si / 1000 Ang^3
#
#
#
# Elastic Constant Matrix: (Units=GPa)
#
#
# Indices 1 2 3 4 5 6 
#
# 1 98.2630 -13.6939 42.3949 0.0000 -22.1268 0.0000
# 2 -13.6939 95.4332 34.9792 -0.0002 11.5463 0.0001
# 3 42.3949 34.9792 208.8990 -0.0001 -42.0914 0.0000
# 4 0.0000 -0.0002 -0.0001 52.2985 0.0000 -5.6008
# 5 -22.1268 11.5463 -42.0914 0.0000 69.4417 0.0000
# 6 0.0000 0.0001 0.0000 -5.6008 0.0000 41.5711
#
#
#
# Elastic Compliance Matrix: (Units=1/GPa)
#
#
# Indices 1 2 3 4 5 6 
#
# 1 0.012001 0.002381 -0.002442 0.000000 0.001948 0.000000
# 2 0.002381 0.012391 -0.003213 0.000000 -0.003249 0.000000
# 3 -0.002442 -0.003213 0.006574 0.000000 0.003741 0.000000
# 4 0.000000 0.000000 0.000000 0.019401 0.000000 0.002614
# 5 0.001948 -0.003249 0.003741 0.000000 0.017829 0.000000
# 6 0.000000 0.000000 0.000000 0.002614 0.000000 0.024407
#
#
# Mechanical properties :
#
#
# Convention : Reuss Voigt Hill
#
# Bulk Modulus (GPa) = 40.95063 58.88395 49.91729
# Shear Modulus (GPa) = 46.60298 55.25659 50.92979
#
# Velocity S-wave (km/s) = 3.94140 4.29176 4.12031
# Velocity P-wave (km/s) = 5.86203 6.64736 6.26701
#
# Compressibility (1/GPa) = 0.02441965
#
# Stress axis : x y z
#
# Youngs Moduli (GPa) = 83.32829 80.70474 152.10777
#
# Poissons Ratio (x) = -0.19218 0.37141
# Poissons Ratio (y) = -0.19843 0.48867
# Poissons Ratio (z) = 0.20347 0.25928
#
# Static dielectric constant tensor:
#      x y z
#    x 2.256230 0.000000 -0.047220 
#    y 0.000000 2.450480 0.000000 
#    z -0.047220 0.000000 2.316300 
# 
# From -- ./inp_files/217832.got.cif
#   From: 2010.05.17/outbox.cif.g08.bks.cpg/sg15_109_cif.got.tgz:217832.got - 2010.06.03 18:47:42.
