data_PCOD9294453
_publ_section_title
;
Structure prediction by ZEFSAII (Michael W. Deem and Ramdas Pophale) SiO2 
 PCOD9294453
Probable space group: C 2/C
;
_chemical_formula_sum "Si O2"
_cell_formula_units_Z 60
_cell_length_a 17.899843
_cell_length_b 5.813626
_cell_length_c 28.783018
_cell_angle_alpha 90.000000
_cell_angle_beta 107.198216
_cell_angle_gamma 90.000000
_cell_volume 2861.322217
_symmetry_space_group_name_H-M "C 2/C"
_symmetry_group_IT_number 15
_symmetry_cell_setting 'monoclinic'
loop_
_space_group_symop_operation_xyz
x,y,z
-x,y,1/2-z
-x,-y,-z
x,-y,1/2+z
1/2+x,1/2+y,z
1/2-x,1/2+y,1/2-z
1/2-x,1/2-y,-z
1/2+x,1/2-y,1/2+z
loop_
_atom_site_type_symbol
_atom_site_label
_atom_site_fract_x
_atom_site_fract_y
_atom_site_fract_z
Si Si1 0.037953 0.901419 0.678250
Si Si2 0.669438 0.245086 0.423895
Si Si3 0.000000 0.458299 0.250000
Si Si4 0.111500 0.201227 0.815776
Si Si5 0.946326 0.706670 0.473860
Si Si6 0.704188 0.512496 0.749392
Si Si7 0.301061 0.046652 0.487557
Si Si8 0.027034 0.970896 0.926362
O O1 0.022918 0.692858 0.710108
O O2 0.019922 0.836036 0.621562
O O3 0.125453 0.994740 0.702971
O O4 0.968408 0.078690 0.680371
O O5 0.657497 0.189810 0.367947
O O6 0.752911 0.342046 0.454665
O O7 0.609454 0.451994 0.421359
O O8 0.651603 0.052658 0.459269
O O9 0.076049 0.606058 0.276089
O O10 0.167612 0.040103 0.794988
O O11 0.856726 0.638687 0.457833
O O12 0.953928 0.869473 0.520159
O O13 0.000000 0.500000 0.500000
O O14 0.974701 0.810189 0.430944
O O15 0.749943 0.261281 0.751971
O O16 0.250000 0.250000 0.500000
#
# Coordination Sequence:
#
# PCOD9294453 Si02
#       8
#     8   8   4   8   8   8   8   8
#     4  11  24  44  70  98 129 185 238 287 343 430
#     4  10  23  40  65  98 127 169 233 273 341 410
#     4  12  20  40  76  92 136 170 258 290 342 418
#     4  11  24  44  70  98 129 185 238 287 343 430
#     4  11  22  41  64  91 133 173 214 277 340 408
#     4  12  26  48  69 103 150 180 228 298 374 424
#     4  11  22  41  64  91 133 173 214 277 340 408
#     4  10  23  40  65  98 127 169 233 273 341 410
#
# _framework density 20.969327
#
# number of rings (size 3 to 8) (size 9 to 14) (size 15 to 20)
#    0.000    1.067    5.333    0.800    1.867    1.067 
#    4.800    0.000    0.000    0.000    0.000    0.000 
#    0.000    0.000    0.000    0.000    0.000    0.000 
#
# Total GULP energy -167149.411143 kJ/mol
# GULP energy per Si atom -5571.647038 kJ/mol
# Density = 2.092160 g / cm^3
# Si number density = 20.969327 Si / 1000 Ang^3
#
#
#
# Elastic Constant Matrix: (Units=GPa)
#
#
# Indices 1 2 3 4 5 6 
#
# 1 80.5213 7.1217 -0.9800 0.0000 8.3154 0.0000
# 2 7.1217 41.9502 -9.1883 0.0000 8.8475 -0.0001
# 3 -0.9800 -9.1883 79.8963 0.0000 10.9062 0.0000
# 4 0.0000 0.0000 0.0000 -5.2258 0.0000 -0.1869
# 5 8.3154 8.8475 10.9062 0.0000 17.9313 0.0000
# 6 0.0000 -0.0001 0.0000 -0.1869 0.0000 36.7080
#
#
#
# Elastic Compliance Matrix: (Units=1/GPa)
#
#
# Indices 1 2 3 4 5 6 
#
# 1 0.013145 -0.000689 0.000946 0.000000 -0.006332 0.000000
# 2 -0.000689 0.028865 0.005684 0.000000 -0.017380 0.000000
# 3 0.000946 0.005684 0.014858 0.000000 -0.012280 0.000000
# 4 0.000000 0.000000 0.000000 -0.191324 0.000000 -0.000974
# 5 -0.006332 -0.017380 -0.012280 0.000000 0.074749 0.000000
# 6 0.000000 0.000000 0.000000 -0.000974 0.000000 0.027237
#
#
# Mechanical properties :
#
#
# Convention : Reuss Voigt Hill
#
# Bulk Modulus (GPa) = 14.54546 21.80827 18.17687
# Shear Modulus (GPa) = -233.26794 23.57699 -104.84547
#
# Velocity S-wave (km/s) = -10.55860 3.35678 -7.07870
# Velocity P-wave (km/s) = 11.90352 5.04446 7.62388
#
# Compressibility (1/GPa) = 0.06874999
#
# Stress axis : x y z
#
# Youngs Moduli (GPa) = 76.07227 34.64388 67.30495
#
# Poissons Ratio (x) = 0.02387 -0.06369
# Poissons Ratio (y) = 0.05241 -0.38253
# Poissons Ratio (z) = -0.07199 -0.19690
#
# Static dielectric constant tensor:
#      x y z
#    x 1.793790 0.000000 0.003980 
#    y 0.000000 1.898370 0.000000 
#    z 0.003980 0.000000 1.794830 
# 
# From -- ./inp_files/315109.got.cif
#   From: 2010.05.17/outbox.cif.g08.bks.cpg/sg15_158_cif.got.tgz:315109.got - 2010.06.03 18:47:42.
