data_PCOD9294252
_publ_section_title
;
Structure prediction by ZEFSAII (Michael W. Deem and Ramdas Pophale) SiO2 
 PCOD9294252
Probable space group: C 2/C
;
_chemical_formula_sum "Si O2"
_cell_formula_units_Z 28
_cell_length_a 10.464170
_cell_length_b 10.458459
_cell_length_c 11.937207
_cell_angle_alpha 90.000000
_cell_angle_beta 74.785191
_cell_angle_gamma 90.000000
_cell_volume 1260.606183
_symmetry_space_group_name_H-M "C 2/C"
_symmetry_group_IT_number 15
_symmetry_cell_setting 'monoclinic'
loop_
_space_group_symop_operation_xyz
x,y,z
-x,y,1/2-z
-x,-y,-z
x,-y,1/2+z
1/2+x,1/2+y,z
1/2-x,1/2+y,1/2-z
1/2-x,1/2-y,-z
1/2+x,1/2-y,1/2+z
loop_
_atom_site_type_symbol
_atom_site_label
_atom_site_fract_x
_atom_site_fract_y
_atom_site_fract_z
Si Si1 0.039459 0.371677 0.928457
Si Si2 0.488294 0.690206 0.126968
Si Si3 0.000000 0.944589 0.250000
Si Si4 0.183558 0.711571 0.194454
O O1 0.912775 0.334486 0.881763
O O2 0.157573 0.374324 0.811087
O O3 0.068675 0.264178 0.014723
O O4 0.000000 0.500000 0.000000
O O5 0.500000 0.748623 0.250000
O O6 0.519724 0.541403 0.141635
O O7 0.335334 0.706013 0.128866
O O8 0.874211 0.852227 0.263993
#
# Coordination Sequence:
#
# PCOD9294252 Si02
#       4
#     8   8   4   8
#     4  10  23  39  66  96 127 170 215 264 323 384
#     4  10  23  40  65  95 126 173 211 260 326 378
#     4   8  22  40  62  92 128 160 216 256 318 378
#     4  10  23  42  63  96 129 168 213 270 323 370
#
# _framework density 22.211537
#
# number of rings (size 3 to 8) (size 9 to 14) (size 15 to 20)
#    0.857    1.714    0.000    0.857    8.000    5.714 
#    0.000    0.000    0.000    0.000    0.000    0.000 
#    0.000    0.000    0.000    0.000    0.000    0.000 
#
# Total GULP energy -78151.831864 kJ/mol
# GULP energy per Si atom -5582.273705 kJ/mol
# Density = 2.216098 g / cm^3
# Si number density = 22.211537 Si / 1000 Ang^3
#
#
#
# Elastic Constant Matrix: (Units=GPa)
#
#
# Indices 1 2 3 4 5 6 
#
# 1 30.2227 -11.5199 -12.2582 0.0000 -1.7483 0.0000
# 2 -11.5199 123.3303 40.4220 0.0000 5.4792 0.0000
# 3 -12.2582 40.4220 121.1851 0.0000 9.4945 0.0000
# 4 0.0000 0.0000 0.0000 6.4300 0.0000 4.9953
# 5 -1.7483 5.4792 9.4945 0.0000 22.4015 0.0000
# 6 0.0000 0.0000 0.0000 4.9953 0.0000 17.2186
#
#
#
# Elastic Compliance Matrix: (Units=1/GPa)
#
#
# Indices 1 2 3 4 5 6 
#
# 1 0.035135 0.002355 0.002688 0.000000 0.001027 0.000000
# 2 0.002355 0.009282 -0.002787 0.000000 -0.000905 0.000000
# 3 0.002688 -0.002787 0.009706 0.000000 -0.003222 0.000000
# 4 0.000000 0.000000 0.000000 0.200772 0.000000 -0.058246
# 5 0.001027 -0.000905 -0.003222 0.000000 0.046307 0.000000
# 6 0.000000 0.000000 0.000000 -0.058246 0.000000 0.074974
#
#
# Mechanical properties :
#
#
# Convention : Reuss Voigt Hill
#
# Bulk Modulus (GPa) = 17.05452 34.22510 25.63981
# Shear Modulus (GPa) = 12.78089 26.41628 19.59859
#
# Velocity S-wave (km/s) = 2.40139 3.45237 2.97368
# Velocity P-wave (km/s) = 3.92222 5.59768 4.83310
#
# Compressibility (1/GPa) = 0.05863549
#
# Stress axis : x y z
#
# Youngs Moduli (GPa) = 28.46155 107.73612 103.03149
#
# Poissons Ratio (x) = -0.25374 -0.27695
# Poissons Ratio (y) = -0.06703 0.28714
# Poissons Ratio (z) = -0.07650 0.30025
#
# Static dielectric constant tensor:
#      x y z
#    x 1.714410 0.000000 0.043940 
#    y 0.000000 1.837870 0.000000 
#    z 0.043940 0.000000 1.809370 
# 
# From -- ./inp_files/83554.got.cif
#   From: 2010.05.17/outbox.cif.g08.bks.cpg/sg15_42_cif.got.tgz:83554.got - 2010.06.03 18:47:42.
