data_PCOD9294468
_publ_section_title
;
Structure prediction by ZEFSAII (Michael W. Deem and Ramdas Pophale) SiO2 
 PCOD9294468
Probable space group: C 2/C
;
_chemical_formula_sum "Si O2"
_cell_formula_units_Z 24
_cell_length_a 9.530907
_cell_length_b 24.346788
_cell_length_c 5.422865
_cell_angle_alpha 90.000000
_cell_angle_beta 122.966269
_cell_angle_gamma 90.000000
_cell_volume 1055.752291
_symmetry_space_group_name_H-M "C 2/C"
_symmetry_group_IT_number 15
_symmetry_cell_setting 'monoclinic'
loop_
_space_group_symop_operation_xyz
x,y,z
-x,y,1/2-z
-x,-y,-z
x,-y,1/2+z
1/2+x,1/2+y,z
1/2-x,1/2+y,1/2-z
1/2-x,1/2-y,-z
1/2+x,1/2-y,1/2+z
loop_
_atom_site_type_symbol
_atom_site_label
_atom_site_fract_x
_atom_site_fract_y
_atom_site_fract_z
Si Si1 0.500000 0.536603 0.250000
Si Si2 0.357123 0.378074 0.920150
Si Si3 0.500000 0.841589 0.750000
Si Si4 0.853372 0.753838 0.845782
O O1 0.500000 0.500000 0.500000
O O2 0.644537 0.580993 0.315581
O O3 0.417036 0.316229 0.911976
O O4 0.171499 0.373933 0.859543
O O5 0.500000 0.396702 0.250000
O O6 0.468138 0.799596 0.491848
O O7 0.750000 0.750000 0.500000
O O8 0.750000 0.750000 0.000000
#
# Coordination Sequence:
#
# PCOD9294468 Si02
#       4
#     4   8   4   8
#     4  12  28  51  76 102 140 189 254 328 378 418
#     4  11  25  46  77 106 147 198 244 297 374 435
#     4  10  24  47  70 120 154 191 240 290 352 468
#     4  10  23  40  66 111 156 189 227 282 354 448
#
# _framework density 22.732600999999999
#
# number of rings (size 3 to 8) (size 9 to 14) (size 15 to 20)
#    0.000    1.333    3.333    0.000    9.333    5.333 
#    0.000    1.667    0.000    0.000    0.000    0.000 
#    0.000    0.000    0.000    0.000    0.000    0.000 
#
# Total GULP energy -66848.147830 kJ/mol
# GULP energy per Si atom -5570.678986 kJ/mol
# Density = 2.268086 g / cm^3
# Si number density = 22.732601 Si / 1000 Ang^3
#
#
#
# Elastic Constant Matrix: (Units=GPa)
#
#
# Indices 1 2 3 4 5 6 
#
# 1 199.3136 53.4542 58.9051 0.0000 -9.1877 0.0000
# 2 53.4542 139.8703 40.4261 0.0000 -18.3308 0.0000
# 3 58.9051 40.4261 172.3249 0.0000 -19.4066 0.0000
# 4 0.0000 0.0000 0.0000 0.4853 0.0000 -12.3896
# 5 -9.1877 -18.3308 -19.4066 0.0000 46.3306 0.0000
# 6 0.0000 0.0000 0.0000 -12.3896 0.0000 40.6931
#
#
#
# Elastic Compliance Matrix: (Units=1/GPa)
#
#
# Indices 1 2 3 4 5 6 
#
# 1 0.005986 -0.001844 -0.001639 0.000000 -0.000229 0.000000
# 2 -0.001844 0.008499 -0.001077 0.000000 0.002546 0.000000
# 3 -0.001639 -0.001077 0.006855 0.000000 0.002120 0.000000
# 4 0.000000 0.000000 0.000000 -0.304238 0.000000 -0.092629
# 5 -0.000229 0.002546 0.002120 0.000000 0.023434 0.000000
# 6 0.000000 0.000000 0.000000 -0.092629 0.000000 -0.003628
#
#
# Mechanical properties :
#
#
# Convention : Reuss Voigt Hill
#
# Bulk Modulus (GPa) = 81.83621 90.78663 86.31142
# Shear Modulus (GPa) = -20.00802 41.41669 10.70434
#
# Velocity S-wave (km/s) = -2.96994 4.27301 2.17233
# Velocity P-wave (km/s) = 4.93121 8.02298 6.65902
#
# Compressibility (1/GPa) = 0.01221953
#
# Stress axis : x y z
#
# Youngs Moduli (GPa) = 167.06720 117.66093 145.88466
#
# Poissons Ratio (x) = 0.21694 0.23915
# Poissons Ratio (y) = 0.30803 0.15710
# Poissons Ratio (z) = 0.27388 0.12670
#
# Static dielectric constant tensor:
#      x y z
#    x 2.150710 0.000000 0.021380 
#    y 0.000000 1.913880 0.000000 
#    z 0.021380 0.000000 1.946480 
# 
# From -- ./inp_files/3929.got.cif
#   From: 2010.05.17/outbox.cif.g08.bks.cpg/sg15_2_cif.got.tgz:3929.got - 2010.06.03 18:47:42.
