data_PCOD9294455
_publ_section_title
;
Structure prediction by ZEFSAII (Michael W. Deem and Ramdas Pophale) SiO2 
 PCOD9294455
Probable space group: C 2/C
;
_chemical_formula_sum "Si O2"
_cell_formula_units_Z 48
_cell_length_a 22.117938
_cell_length_b 7.441937
_cell_length_c 20.202278
_cell_angle_alpha 90.000000
_cell_angle_beta 38.865102
_cell_angle_gamma 90.000000
_cell_volume 2086.589577
_symmetry_space_group_name_H-M "C 2/C"
_symmetry_group_IT_number 15
_symmetry_cell_setting 'monoclinic'
loop_
_space_group_symop_operation_xyz
x,y,z
-x,y,1/2-z
-x,-y,-z
x,-y,1/2+z
1/2+x,1/2+y,z
1/2-x,1/2+y,1/2-z
1/2-x,1/2-y,-z
1/2+x,1/2-y,1/2+z
loop_
_atom_site_type_symbol
_atom_site_label
_atom_site_fract_x
_atom_site_fract_y
_atom_site_fract_z
Si Si1 0.538920 0.373629 0.646934
Si Si2 0.606469 0.995530 0.023736
Si Si3 0.984315 0.159786 0.930104
Si Si4 0.736470 0.541622 0.356813
Si Si5 0.244716 0.966803 0.495490
Si Si6 0.842146 0.704483 0.143455
O O1 0.500000 0.310041 0.750000
O O2 0.569553 0.198620 0.579741
O O3 0.478917 0.503477 0.650188
O O4 0.630713 0.496260 0.589409
O O5 0.695594 0.046781 0.995102
O O6 0.526176 0.147219 0.096186
O O7 0.637776 0.964215 0.921248
O O8 0.057740 0.193282 0.926928
O O9 0.874031 0.112564 0.043945
O O10 0.780426 0.528496 0.392923
O O11 0.795769 0.651626 0.252594
O O12 0.726486 0.338750 0.338130
O O13 0.250000 0.750000 0.500000
#
# Coordination Sequence:
#
# PCOD9294455 Si02
#       6
#     8   8   8   8   8   8
#     4  10  23  40  65  98 131 181 222 275 345 390
#     4  11  23  44  68  95 137 178 225 281 334 402
#     4  11  25  44  65 100 142 172 226 284 330 410
#     4  11  24  43  70 100 134 183 226 275 346 398
#     4   9  19  43  65  91 134 172 227 275 323 402
#     4  12  24  44  68 103 137 179 226 280 343 404
#
# _framework density 23.004045000000001
#
# number of rings (size 3 to 8) (size 9 to 14) (size 15 to 20)
#    0.000    1.333    5.000    2.000    0.000   10.000 
#    0.000    0.000    0.000    0.000    0.000    0.000 
#    0.000    0.000    0.000    0.000    0.000    0.000 
#
# Total GULP energy -134109.074160 kJ/mol
# GULP energy per Si atom -5587.878090 kJ/mol
# Density = 2.295169 g / cm^3
# Si number density = 23.004045 Si / 1000 Ang^3
#
#
#
# Elastic Constant Matrix: (Units=GPa)
#
#
# Indices 1 2 3 4 5 6 
#
# 1 104.9057 13.2529 13.8332 0.0019 27.5961 -0.0012
# 2 13.2529 72.3127 1.4557 -0.0002 7.9735 -0.0015
# 3 13.8332 1.4557 99.2868 0.0008 28.9186 -0.0003
# 4 0.0019 -0.0002 0.0008 18.0344 -0.0008 6.7005
# 5 27.5961 7.9735 28.9186 -0.0008 26.1670 0.0006
# 6 -0.0012 -0.0015 -0.0003 6.7005 0.0006 16.0258
#
#
#
# Elastic Compliance Matrix: (Units=1/GPa)
#
#
# Indices 1 2 3 4 5 6 
#
# 1 0.013977 -0.000612 0.003393 -0.000004 -0.018304 0.000003
# 2 -0.000612 0.014503 0.001433 -0.000001 -0.005358 0.000002
# 3 0.003393 0.001433 0.015849 -0.000003 -0.021531 0.000003
# 4 -0.000004 -0.000001 -0.000003 0.065647 0.000010 -0.027448
# 5 -0.018304 -0.005358 -0.021531 0.000010 0.082946 -0.000009
# 6 0.000003 0.000002 0.000003 -0.027448 -0.000009 0.073875
#
#
# Mechanical properties :
#
#
# Convention : Reuss Voigt Hill
#
# Bulk Modulus (GPa) = 18.95460 37.06544 28.01002
# Shear Modulus (GPa) = 18.11885 28.57635 23.34760
#
# Velocity S-wave (km/s) = 2.80953 3.52835 3.18926
# Velocity P-wave (km/s) = 4.33384 5.72246 5.07586
#
# Compressibility (1/GPa) = 0.05275765
#
# Stress axis : x y z
#
# Youngs Moduli (GPa) = 71.54549 68.95184 63.09478
#
# Poissons Ratio (x) = 0.04218 -0.21406
# Poissons Ratio (y) = 0.04376 -0.09043
# Poissons Ratio (z) = -0.24274 -0.09882
#
# Static dielectric constant tensor:
#      x y z
#    x 1.911130 0.000000 0.011720 
#    y 0.000000 1.896460 0.000000 
#    z 0.011720 0.000000 1.904770 
# 
# From -- ./inp_files/213749.got.cif
#   From: 2010.05.17/outbox.cif.g08.bks.cpg/sg15_107_cif.got.tgz:213749.got - 2010.06.03 18:47:42.
