data_PCOD9294658
_publ_section_title
;
Structure prediction by ZEFSAII (Michael W. Deem and Ramdas Pophale) SiO2 
 PCOD9294658
Probable space group: C 2/C
;
_chemical_formula_sum "Si O2"
_cell_formula_units_Z 52
_cell_length_a 13.140095
_cell_length_b 27.333178
_cell_length_c 8.607446
_cell_angle_alpha 90.000000
_cell_angle_beta 56.733371
_cell_angle_gamma 90.000000
_cell_volume 2584.849034
_symmetry_space_group_name_H-M "C 2/C"
_symmetry_group_IT_number 15
_symmetry_cell_setting 'monoclinic'
loop_
_space_group_symop_operation_xyz
x,y,z
-x,y,1/2-z
-x,-y,-z
x,-y,1/2+z
1/2+x,1/2+y,z
1/2-x,1/2+y,1/2-z
1/2-x,1/2-y,-z
1/2+x,1/2-y,1/2+z
loop_
_atom_site_type_symbol
_atom_site_label
_atom_site_fract_x
_atom_site_fract_y
_atom_site_fract_z
Si Si1 0.496290 0.906565 0.573300
Si Si2 0.385753 0.380283 0.755236
Si Si3 0.750451 0.801647 0.083639
Si Si4 0.776242 0.935283 0.318074
Si Si5 0.755563 0.463064 0.806103
Si Si6 0.000000 0.649884 0.750000
Si Si7 0.439255 0.339075 0.139474
O O1 0.500000 0.884379 0.750000
O O2 0.636244 0.918555 0.421340
O O3 0.400949 0.951715 0.672739
O O4 0.458866 0.879091 0.442703
O O5 0.500000 0.402961 0.750000
O O6 0.304991 0.422775 0.753173
O O7 0.449331 0.346900 0.571520
O O8 0.312225 0.344090 0.927787
O O9 0.612016 0.818100 0.219026
O O10 0.837045 0.801986 0.161989
O O11 0.750000 0.750000 0.000000
O O12 0.789533 0.951825 0.483990
O O13 0.868562 0.891218 0.209661
O O14 0.784754 0.982797 0.204339
O O15 0.500000 0.325414 0.250000
#
# Coordination Sequence:
#
# PCOD9294658 Si02
#       7
#     8   8   8   8   8   4   8
#     4  10  23  42  62  97 136 181 230 291 345 405
#     4  10  23  41  63  90 133 170 214 275 332 397
#     4  11  26  46  74 103 129 171 230 283 355 420
#     4  11  24  38  62  97 132 183 234 274 338 407
#     4  11  23  39  61  92 137 176 232 281 332 396
#     4  12  22  42  82  94 138 180 224 290 356 404
#     4  11  23  45  66  95 139 179 218 279 343 408
#
# _framework density 20.117228999999998
#
# number of rings (size 3 to 8) (size 9 to 14) (size 15 to 20)
#    0.000    1.231    4.615    0.462    9.692    1.231 
#    0.000    1.538    0.000    0.000    0.000    0.000 
#    0.000    0.000    0.000    0.000    0.000    0.000 
#
# Total GULP energy -145028.107660 kJ/mol
# GULP energy per Si atom -5578.004141 kJ/mol
# Density = 2.007144 g / cm^3
# Si number density = 20.117229 Si / 1000 Ang^3
#
#
#
# Elastic Constant Matrix: (Units=GPa)
#
#
# Indices 1 2 3 4 5 6 
#
# 1 139.1892 35.5539 25.0276 0.0000 14.2461 0.0000
# 2 35.5539 66.0736 4.2113 0.0000 8.8797 0.0000
# 3 25.0276 4.2113 55.7187 0.0000 6.2844 0.0000
# 4 0.0000 0.0000 0.0000 21.7514 0.0000 12.3338
# 5 14.2461 8.8797 6.2844 0.0000 38.9960 0.0000
# 6 0.0000 0.0000 0.0000 12.3338 0.0000 15.3820
#
#
#
# Elastic Compliance Matrix: (Units=1/GPa)
#
#
# Indices 1 2 3 4 5 6 
#
# 1 0.009145 -0.004458 -0.003573 0.000000 -0.001750 0.000000
# 2 -0.004458 0.017820 0.000947 0.000000 -0.002582 0.000000
# 3 -0.003573 0.000947 0.019716 0.000000 -0.002088 0.000000
# 4 0.000000 0.000000 0.000000 0.084305 0.000000 -0.067599
# 5 -0.001750 -0.002582 -0.002088 0.000000 0.027207 0.000000
# 6 0.000000 0.000000 0.000000 -0.067599 0.000000 0.119214
#
#
# Mechanical properties :
#
#
# Convention : Reuss Voigt Hill
#
# Bulk Modulus (GPa) = 30.75782 43.39634 37.07708
# Shear Modulus (GPa) = 16.53364 28.30511 22.41938
#
# Velocity S-wave (km/s) = 2.86993 3.75508 3.34194
# Velocity P-wave (km/s) = 5.12879 6.35763 5.77598
#
# Compressibility (1/GPa) = 0.03251206
#
# Stress axis : x y z
#
# Youngs Moduli (GPa) = 109.35199 56.11666 50.71954
#
# Poissons Ratio (x) = 0.25016 0.18124
# Poissons Ratio (y) = 0.48747 -0.04802
# Poissons Ratio (z) = 0.39075 -0.05312
#
# Static dielectric constant tensor:
#      x y z
#    x 1.780460 0.000000 0.033810 
#    y 0.000000 1.680430 0.000000 
#    z 0.033810 0.000000 1.739360 
# 
# From -- ./inp_files/33499.got.cif
#   From: 2010.05.17/outbox.cif.g08.bks.cpg/sg15_17_cif.got.tgz:33499.got - 2010.06.03 18:47:42.
