data_PCOD9294930
_publ_section_title
;
Structure prediction by ZEFSAII (Michael W. Deem and Ramdas Pophale) SiO2 
 PCOD9294930
Probable space group: C 2/C
;
_chemical_formula_sum "Si O2"
_cell_formula_units_Z 56
_cell_length_a 9.278488
_cell_length_b 18.115942
_cell_length_c 17.063108
_cell_angle_alpha 90.000000
_cell_angle_beta 64.299621
_cell_angle_gamma 90.000000
_cell_volume 2584.382573
_symmetry_space_group_name_H-M "C 2/C"
_symmetry_group_IT_number 15
_symmetry_cell_setting 'monoclinic'
loop_
_space_group_symop_operation_xyz
x,y,z
-x,y,1/2-z
-x,-y,-z
x,-y,1/2+z
1/2+x,1/2+y,z
1/2-x,1/2+y,1/2-z
1/2-x,1/2-y,-z
1/2+x,1/2-y,1/2+z
loop_
_atom_site_type_symbol
_atom_site_label
_atom_site_fract_x
_atom_site_fract_y
_atom_site_fract_z
Si Si1 0.505317 0.500000 0.373241
Si Si2 0.135295 0.661706 0.571733
Si Si3 0.221692 0.500000 0.060346
Si Si4 0.364705 0.161706 0.428267
Si Si5 0.794665 0.716753 0.618834
Si Si6 0.205335 0.716753 0.381166
Si Si7 0.000000 0.129265 0.750000
Si Si8 0.500000 0.370735 0.750000
O O1 0.649678 0.500000 0.400429
O O2 0.334366 0.500000 0.457035
O O3 0.516917 0.426519 0.318705
O O4 0.516917 0.573481 0.318705
O O5 0.120531 0.574729 0.586525
O O6 0.197521 0.677228 0.468804
O O7 0.254767 0.699158 0.605481
O O8 0.966388 0.703608 0.616696
O O9 0.120531 0.574729 0.086525
O O10 0.245233 0.199158 0.394519
O O11 0.302479 0.177228 0.531196
O O12 0.533612 0.203608 0.383304
O O13 0.655092 0.679741 0.701250
O O14 0.344908 0.679741 0.298750
#
# Coordination Sequence:
#
# PCOD9294930 Si02
#       8
#     8   8   8   8   8   8   4   4
#     4  10  24  38  69 101 137 173 221 275 341 389
#     4  10  23  42  68  99 130 181 225 266 325 408
#     4  11  22  43  70 100 133 177 223 276 321 413
#     4  10  23  42  68  99 130 181 225 266 325 408
#     4  10  23  41  69  95 137 174 227 268 331 396
#     4  10  23  41  69  95 137 174 227 268 331 396
#     4  11  22  44  64 103 134 178 212 287 332 392
#     4  11  22  44  64 103 134 178 212 287 332 392
#
# _framework density 21.668620000000001
#
# number of rings (size 3 to 8) (size 9 to 14) (size 15 to 20)
#    0.000    1.714    2.857    0.000    4.000    8.000 
#    0.000    1.429    0.000    0.000    0.000    0.000 
#    0.000    0.000    0.000    0.000    0.000    0.000 
#
# Total GULP energy -156666.985962 kJ/mol
# GULP energy per Si atom -5595.249499 kJ/mol
# Density = 2.161930 g / cm^3
# Si number density = 21.668620 Si / 1000 Ang^3
#
#
#
# Elastic Constant Matrix: (Units=GPa)
#
#
# Indices 1 2 3 4 5 6 
#
# 1 84.5825 34.0985 27.8759 0.0000 -17.7709 0.0000
# 2 34.0985 131.3220 11.6596 0.0000 8.8893 0.0000
# 3 27.8759 11.6596 69.4392 0.0000 -12.9576 0.0000
# 4 0.0000 0.0000 0.0000 22.7910 0.0000 -7.6092
# 5 -17.7709 8.8893 -12.9576 0.0000 25.2893 0.0000
# 6 0.0000 0.0000 0.0000 -7.6092 0.0000 23.8253
#
#
#
# Elastic Compliance Matrix: (Units=1/GPa)
#
#
# Indices 1 2 3 4 5 6 
#
# 1 0.017755 -0.005082 -0.003995 0.000000 0.012216 0.000000
# 2 -0.005082 0.009519 -0.000939 0.000000 -0.007398 0.000000
# 3 -0.003995 -0.000939 0.017360 0.000000 0.006418 0.000000
# 4 0.000000 0.000000 0.000000 0.049114 0.000000 0.015686
# 5 0.012216 -0.007398 0.006418 0.000000 0.054015 0.000000
# 6 0.000000 0.000000 0.000000 0.015686 0.000000 0.046982
#
#
# Mechanical properties :
#
#
# Convention : Reuss Voigt Hill
#
# Bulk Modulus (GPa) = 40.64658 48.06796 44.35727
# Shear Modulus (GPa) = 22.42393 28.49510 25.45952
#
# Velocity S-wave (km/s) = 3.22041 3.63028 3.43147
# Velocity P-wave (km/s) = 5.71201 6.30899 6.01790
#
# Compressibility (1/GPa) = 0.02460231
#
# Stress axis : x y z
#
# Youngs Moduli (GPa) = 56.32273 105.05686 57.60433
#
# Poissons Ratio (x) = 0.53394 0.23010
# Poissons Ratio (y) = 0.28625 0.05406
# Poissons Ratio (z) = 0.22499 0.09860
#
# Static dielectric constant tensor:
#      x y z
#    x 1.760560 0.000000 0.020200 
#    y 0.000000 1.761490 0.000000 
#    z 0.020200 0.000000 1.782910 
# 
# From -- ./inp_files/190945.got.cif
#   From: 2010.05.17/outbox.cif.g08.bks.cpg/sg15_96_cif.got.tgz:190945.got - 2010.06.03 18:47:42.
