data_PCOD9294151
_publ_section_title
;
Structure prediction by ZEFSAII (Michael W. Deem and Ramdas Pophale) SiO2 
 PCOD9294151
Probable space group: C 2/C
;
_chemical_formula_sum "Si O2"
_cell_formula_units_Z 56
_cell_length_a 11.909102
_cell_length_b 8.681974
_cell_length_c 26.745199
_cell_angle_alpha 90.000000
_cell_angle_beta 72.206797
_cell_angle_gamma 90.000000
_cell_volume 2633.030197
_symmetry_space_group_name_H-M "C 2/C"
_symmetry_group_IT_number 15
_symmetry_cell_setting 'monoclinic'
loop_
_space_group_symop_operation_xyz
x,y,z
-x,y,1/2-z
-x,-y,-z
x,-y,1/2+z
1/2+x,1/2+y,z
1/2-x,1/2+y,1/2-z
1/2-x,1/2-y,-z
1/2+x,1/2-y,1/2+z
loop_
_atom_site_type_symbol
_atom_site_label
_atom_site_fract_x
_atom_site_fract_y
_atom_site_fract_z
Si Si1 0.467932 0.084190 0.933647
Si Si2 0.619401 0.316921 0.869225
Si Si3 0.923326 0.876419 0.186093
Si Si4 0.140882 0.196355 0.981495
Si Si5 0.271153 0.614993 0.037354
Si Si6 0.175203 0.896067 0.191376
Si Si7 0.825154 0.354666 0.623377
O O1 0.497968 0.220300 0.890437
O O2 0.352479 0.979554 0.941408
O O3 0.580751 0.976090 0.911515
O O4 0.458493 0.183959 0.986299
O O5 0.591108 0.480718 0.849414
O O6 0.681523 0.329306 0.915458
O O7 0.715356 0.221006 0.824785
O O8 0.860962 0.922768 0.246442
O O9 0.868457 0.728306 0.167337
O O10 0.058328 0.836072 0.180041
O O11 0.178480 0.227771 0.919619
O O12 0.133348 0.014500 0.992994
O O13 0.250000 0.250000 0.000000
O O14 0.250000 0.750000 0.000000
O O15 0.213056 0.046792 0.155016
#
# Coordination Sequence:
#
# PCOD9294151 Si02
#       7
#     8   8   8   8   8   8   8
#     4  10  25  40  61  93 130 170 211 262 322 379
#     4  11  24  42  67  93 130 172 214 262 329 390
#     4  11  23  44  68  97 125 170 223 267 337 380
#     4  10  23  39  61  93 133 168 213 263 314 392
#     4  11  25  41  61  94 130 172 217 266 313 389
#     4  10  25  42  67  97 130 164 218 284 319 387
#     4  11  22  43  66  91 132 174 212 270 328 389
#
# _framework density 21.268270999999999
#
# number of rings (size 3 to 8) (size 9 to 14) (size 15 to 20)
#    0.000    1.429    1.429    2.143   14.000    1.714 
#    0.000    0.000    0.000    6.857    0.000    0.000 
#    0.000    0.000    0.000    0.000    0.000    0.000 
#
# Total GULP energy -156265.296474 kJ/mol
# GULP energy per Si atom -5580.903446 kJ/mol
# Density = 2.121986 g / cm^3
# Si number density = 21.268271 Si / 1000 Ang^3
#
#
#
# Elastic Constant Matrix: (Units=GPa)
#
#
# Indices 1 2 3 4 5 6 
#
# 1 54.8244 6.2686 30.0772 0.0000 -6.4223 0.0000
# 2 6.2686 87.4358 14.2671 0.0000 -3.9296 0.0000
# 3 30.0772 14.2671 71.5654 0.0000 -2.3417 0.0000
# 4 0.0000 0.0000 0.0000 35.5133 0.0000 5.0686
# 5 -6.4223 -3.9296 -2.3417 0.0000 34.2981 0.0000
# 6 0.0000 0.0000 0.0000 5.0686 0.0000 27.1388
#
#
#
# Elastic Compliance Matrix: (Units=1/GPa)
#
#
# Indices 1 2 3 4 5 6 
#
# 1 0.024202 0.000080 -0.010061 0.000000 0.003854 0.000000
# 2 0.000080 0.011871 -0.002360 0.000000 0.001214 0.000000
# 3 -0.010061 -0.002360 0.018643 0.000000 -0.000882 0.000000
# 4 0.000000 0.000000 0.000000 0.028930 0.000000 -0.005403
# 5 0.003854 0.001214 -0.000882 0.000000 0.029957 0.000000
# 6 0.000000 0.000000 0.000000 -0.005403 0.000000 0.037857
#
#
# Mechanical properties :
#
#
# Convention : Reuss Voigt Hill
#
# Bulk Modulus (GPa) = 33.29703 35.00569 34.15136
# Shear Modulus (GPa) = 26.85940 30.27088 28.56514
#
# Velocity S-wave (km/s) = 3.55757 3.77674 3.66879
# Velocity P-wave (km/s) = 5.70655 5.95930 5.83429
#
# Compressibility (1/GPa) = 0.03003271
#
# Stress axis : x y z
#
# Youngs Moduli (GPa) = 41.31859 84.23931 53.63802
#
# Poissons Ratio (x) = -0.00672 0.53967
# Poissons Ratio (y) = -0.00330 0.12661
# Poissons Ratio (z) = 0.41572 0.19884
#
# Static dielectric constant tensor:
#      x y z
#    x 1.781510 0.000000 -0.048250 
#    y 0.000000 1.796000 0.000000 
#    z -0.048250 0.000000 1.791650 
# 
# From -- ./inp_files/291497.got.cif
#   From: 2010.05.17/outbox.cif.g08.bks.cpg/sg15_146_cif.got.tgz:291497.got - 2010.06.03 18:47:42.
