data_PCOD9294580
_publ_section_title
;
Structure prediction by ZEFSAII (Michael W. Deem and Ramdas Pophale) SiO2 
 PCOD9294580
Probable space group: C 2/C
;
_chemical_formula_sum "Si O2"
_cell_formula_units_Z 48
_cell_length_a 26.702185
_cell_length_b 9.040542
_cell_length_c 14.170893
_cell_angle_alpha 90.000000
_cell_angle_beta 144.166385
_cell_angle_gamma 90.000000
_cell_volume 2002.700461
_symmetry_space_group_name_H-M "C 2/C"
_symmetry_group_IT_number 15
_symmetry_cell_setting 'monoclinic'
loop_
_space_group_symop_operation_xyz
x,y,z
-x,y,1/2-z
-x,-y,-z
x,-y,1/2+z
1/2+x,1/2+y,z
1/2-x,1/2+y,1/2-z
1/2-x,1/2-y,-z
1/2+x,1/2-y,1/2+z
loop_
_atom_site_type_symbol
_atom_site_label
_atom_site_fract_x
_atom_site_fract_y
_atom_site_fract_z
Si Si1 0.434961 0.678053 0.736594
Si Si2 0.807337 0.357519 0.213354
Si Si3 0.586645 0.898230 0.406142
Si Si4 0.715083 0.156402 0.597777
Si Si5 0.871833 0.140225 0.166729
Si Si6 0.610658 0.175738 0.157791
O O1 0.500000 0.684231 0.750000
O O2 0.346340 0.738172 0.556623
O O3 0.424227 0.508966 0.751257
O O4 0.453953 0.773978 0.859257
O O5 0.793104 0.326072 0.301850
O O6 0.852188 0.216767 0.235635
O O7 0.858757 0.508829 0.275057
O O8 0.718174 0.385356 0.023895
O O9 0.500000 0.988311 0.250000
O O10 0.585302 0.763389 0.332652
O O11 0.584255 0.838281 0.508808
O O12 0.672734 0.993807 0.519275
O O13 0.811145 0.204840 0.718576
#
# Coordination Sequence:
#
# PCOD9294580 Si02
#       6
#     8   8   8   8   8   8
#     4  12  27  44  69 103 145 186 238 299 358 420
#     4  10  23  40  71 105 132 183 235 294 344 420
#     4  11  25  45  72 106 149 189 231 294 365 429
#     4  11  23  44  73 107 140 186 242 291 351 428
#     4  11  23  41  67 103 144 178 235 287 358 414
#     4  11  24  46  73 103 139 191 244 293 350 428
#
# _framework density 23.967638000000001
#
# number of rings (size 3 to 8) (size 9 to 14) (size 15 to 20)
#    0.000    1.000    3.333    2.500    4.667    2.667 
#    0.000    7.500    0.000    0.000    0.000    0.000 
#    0.000    0.000    0.000    0.000    0.000    0.000 
#
# Total GULP energy -134412.085885 kJ/mol
# GULP energy per Si atom -5600.503579 kJ/mol
# Density = 2.391309 g / cm^3
# Si number density = 23.967638 Si / 1000 Ang^3
#
#
#
# Elastic Constant Matrix: (Units=GPa)
#
#
# Indices 1 2 3 4 5 6 
#
# 1 106.0775 42.4216 6.6145 0.0000 -11.4189 0.0000
# 2 42.4216 116.1213 10.3996 0.0000 -4.0130 0.0000
# 3 6.6145 10.3996 71.5291 0.0000 4.1861 0.0000
# 4 0.0000 0.0000 0.0000 -17.4881 0.0000 -6.8326
# 5 -11.4189 -4.0130 4.1861 0.0000 20.2628 0.0000
# 6 0.0000 0.0000 0.0000 -6.8326 0.0000 44.2382
#
#
#
# Elastic Compliance Matrix: (Units=1/GPa)
#
#
# Indices 1 2 3 4 5 6 
#
# 1 0.011725 -0.004000 -0.000853 0.000000 0.005992 0.000000
# 2 -0.004000 0.010172 -0.001108 0.000000 -0.000011 0.000000
# 3 -0.000853 -0.001108 0.014436 0.000000 -0.003683 0.000000
# 4 0.000000 0.000000 0.000000 -0.053928 0.000000 -0.008329
# 5 0.005992 -0.000011 -0.003683 0.000000 0.053487 0.000000
# 6 0.000000 0.000000 0.000000 -0.008329 0.000000 0.021318
#
#
# Mechanical properties :
#
#
# Convention : Reuss Voigt Hill
#
# Bulk Modulus (GPa) = 40.96778 45.84437 43.40608
# Shear Modulus (GPa) = 64.70825 25.02206 44.86516
#
# Velocity S-wave (km/s) = 5.20161 3.23459 4.33125
# Velocity P-wave (km/s) = 7.29423 5.75493 6.56982
#
# Compressibility (1/GPa) = 0.02440942
#
# Stress axis : x y z
#
# Youngs Moduli (GPa) = 85.28892 98.31085 69.27176
#
# Poissons Ratio (x) = 0.39323 0.05911
# Poissons Ratio (y) = 0.34114 0.07678
# Poissons Ratio (z) = 0.07278 0.10897
#
# Static dielectric constant tensor:
#      x y z
#    x 1.934140 0.000000 0.071540 
#    y 0.000000 1.898420 0.000000 
#    z 0.071540 0.000000 1.933990 
# 
# From -- ./inp_files/176979.got.cif
#   From: 2010.05.17/outbox.cif.g08.bks.cpg/sg15_89_cif.got.tgz:176979.got - 2010.06.03 18:47:42.
