data_PCOD9294802
_publ_section_title
;
Structure prediction by ZEFSAII (Michael W. Deem and Ramdas Pophale) SiO2 
 PCOD9294802
Probable space group: C 2/C
;
_chemical_formula_sum "Si O2"
_cell_formula_units_Z 40
_cell_length_a 9.582853
_cell_length_b 15.969934
_cell_length_c 13.480340
_cell_angle_alpha 90.000000
_cell_angle_beta 115.881611
_cell_angle_gamma 90.000000
_cell_volume 1856.074960
_symmetry_space_group_name_H-M "C 2/C"
_symmetry_group_IT_number 15
_symmetry_cell_setting 'monoclinic'
loop_
_space_group_symop_operation_xyz
x,y,z
-x,y,1/2-z
-x,-y,-z
x,-y,1/2+z
1/2+x,1/2+y,z
1/2-x,1/2+y,1/2-z
1/2-x,1/2-y,-z
1/2+x,1/2-y,1/2+z
loop_
_atom_site_type_symbol
_atom_site_label
_atom_site_fract_x
_atom_site_fract_y
_atom_site_fract_z
Si Si1 0.629298 0.178601 0.721977
Si Si2 0.895385 0.113374 0.907640
Si Si3 0.675091 0.048825 0.337129
Si Si4 0.445348 0.636028 0.336343
Si Si5 0.235389 0.846238 0.450390
O O1 0.500000 0.133738 0.750000
O O2 0.779458 0.187266 0.839142
O O3 0.546373 0.264410 0.666536
O O4 0.692148 0.144846 0.636504
O O5 0.054177 0.126883 0.896338
O O6 0.788020 0.031621 0.859023
O O7 0.952719 0.109167 0.038552
O O8 0.500000 0.039830 0.250000
O O9 0.766126 0.116286 0.298924
O O10 0.683868 0.088530 0.449567
O O11 0.500000 0.598237 0.250000
O O12 0.250000 0.750000 0.500000
#
# Coordination Sequence:
#
# PCOD9294802 Si02
#       5
#     8   8   8   8   8
#     4  11  24  41  68 105 137 185 237 294 348 419
#     4  11  24  44  66 101 148 181 237 294 366 413
#     4  11  25  43  70 104 145 183 240 292 361 425
#     4  10  23  41  66  97 138 186 234 290 353 417
#     4  11  22  43  72 104 136 189 243 294 349 424
#
# _framework density 21.550854999999999
#
# number of rings (size 3 to 8) (size 9 to 14) (size 15 to 20)
#    0.000    1.200    4.000    3.600    2.800    8.000 
#    0.000    3.000    0.000    0.000    0.000    0.000 
#    0.000    0.000    0.000    0.000    0.000    0.000 
#
# Total GULP energy -111510.093593 kJ/mol
# GULP energy per Si atom -5575.504680 kJ/mol
# Density = 2.150180 g / cm^3
# Si number density = 21.550855 Si / 1000 Ang^3
#
#
#
# Elastic Constant Matrix: (Units=GPa)
#
#
# Indices 1 2 3 4 5 6 
#
# 1 201.4086 22.4777 115.8819 0.0000 -15.1417 0.0000
# 2 22.4777 45.0622 23.4452 0.0000 5.3012 0.0000
# 3 115.8819 23.4452 105.1080 0.0000 7.4390 0.0000
# 4 0.0000 0.0000 0.0000 16.5314 0.0000 11.0196
# 5 -15.1417 5.3012 7.4390 0.0000 53.1144 0.0000
# 6 0.0000 0.0000 0.0000 11.0196 0.0000 8.5015
#
#
#
# Elastic Compliance Matrix: (Units=1/GPa)
#
#
# Indices 1 2 3 4 5 6 
#
# 1 0.015821 0.000701 -0.018092 0.000000 0.006974 0.000000
# 2 0.000701 0.025296 -0.006314 0.000000 -0.001441 0.000000
# 3 -0.018092 -0.006314 0.031502 0.000000 -0.008940 0.000000
# 4 0.000000 0.000000 0.000000 0.444880 0.000000 -0.576653
# 5 0.006974 -0.001441 -0.008940 0.000000 0.022211 0.000000
# 6 0.000000 0.000000 0.000000 -0.576653 0.000000 0.865082
#
#
# Mechanical properties :
#
#
# Convention : Reuss Voigt Hill
#
# Bulk Modulus (GPa) = 39.66807 75.02092 57.34449
# Shear Modulus (GPa) = 3.42324 28.28105 15.85215
#
# Velocity S-wave (km/s) = 1.26170 3.62649 2.71508
# Velocity P-wave (km/s) = 4.53533 7.24030 6.04116
#
# Compressibility (1/GPa) = 0.02520920
#
# Stress axis : x y z
#
# Youngs Moduli (GPa) = 63.20892 39.53169 31.74433
#
# Poissons Ratio (x) = -0.02772 0.57432
# Poissons Ratio (y) = -0.04432 0.20042
# Poissons Ratio (z) = 1.14359 0.24959
#
# Static dielectric constant tensor:
#      x y z
#    x 1.806960 0.000000 -0.030040 
#    y 0.000000 1.868370 0.000000 
#    z -0.030040 0.000000 1.795540 
# 
# From -- ./inp_files/77885.got.cif
#   From: 2010.05.17/outbox.cif.g08.bks.cpg/sg15_39_cif.got.tgz:77885.got - 2010.06.03 18:47:42.
