data_PCOD9294521
_publ_section_title
;
Structure prediction by ZEFSAII (Michael W. Deem and Ramdas Pophale) SiO2 
 PCOD9294521
Probable space group: C 2/C
;
_chemical_formula_sum "Si O2"
_cell_formula_units_Z 52
_cell_length_a 8.404113
_cell_length_b 25.892038
_cell_length_c 12.165637
_cell_angle_alpha 90.000000
_cell_angle_beta 103.068892
_cell_angle_gamma 90.000000
_cell_volume 2578.671481
_symmetry_space_group_name_H-M "C 2/C"
_symmetry_group_IT_number 15
_symmetry_cell_setting 'monoclinic'
loop_
_space_group_symop_operation_xyz
x,y,z
-x,y,1/2-z
-x,-y,-z
x,-y,1/2+z
1/2+x,1/2+y,z
1/2-x,1/2+y,1/2-z
1/2-x,1/2-y,-z
1/2+x,1/2-y,1/2+z
loop_
_atom_site_type_symbol
_atom_site_label
_atom_site_fract_x
_atom_site_fract_y
_atom_site_fract_z
Si Si1 0.312340 0.890669 0.482522
Si Si2 0.841521 0.978458 0.911225
Si Si3 0.475754 0.805890 0.876494
Si Si4 0.186448 0.851793 0.959996
Si Si5 0.923417 0.568326 0.620286
Si Si6 0.946766 0.192198 0.613076
Si Si7 0.000000 0.077488 0.250000
O O1 0.195610 0.924601 0.537088
O O2 0.437677 0.857945 0.572847
O O3 0.414962 0.931731 0.428631
O O4 0.208010 0.845990 0.408139
O O5 0.878503 0.961619 0.792892
O O6 0.690099 0.017815 0.892934
O O7 0.000000 0.000000 0.000000
O O8 0.500000 0.806391 0.750000
O O9 0.296266 0.810877 0.905654
O O10 0.564909 0.752499 0.922747
O O11 0.090735 0.886676 0.854569
O O12 0.309471 0.887589 0.049678
O O13 0.067463 0.829055 0.035768
O O14 0.000000 0.581472 0.750000
O O15 0.000000 0.192114 0.750000
#
# Coordination Sequence:
#
# PCOD9294521 Si02
#       7
#     8   8   8   8   8   8   4
#     4  11  23  42  63  91 137 171 222 281 335 406
#     4  12  25  43  65  97 132 180 231 274 342 409
#     4  10  23  40  67  97 136 177 226 283 348 404
#     4  11  23  45  67 104 138 182 231 284 347 416
#     4  11  25  42  66  98 135 179 227 282 345 400
#     4  11  22  42  68  99 135 179 228 278 345 417
#     4  12  24  42  72  94 140 178 234 282 350 404
#
# _framework density 20.165423000000001
#
# number of rings (size 3 to 8) (size 9 to 14) (size 15 to 20)
#    0.000    0.923    3.077    3.231    2.154    3.077 
#    1.385    0.000    3.385    0.000    0.000    0.000 
#    0.000    0.000    0.000    0.000    0.000    0.000 
#
# Total GULP energy -144843.161220 kJ/mol
# GULP energy per Si atom -5570.890816 kJ/mol
# Density = 2.011953 g / cm^3
# Si number density = 20.165423 Si / 1000 Ang^3
#
#
#
# Elastic Constant Matrix: (Units=GPa)
#
#
# Indices 1 2 3 4 5 6 
#
# 1 92.1729 44.7665 43.7704 0.0000 -13.8376 0.0000
# 2 44.7665 99.7322 39.7016 0.0000 -11.9506 0.0000
# 3 43.7704 39.7016 112.3363 0.0000 -8.5780 0.0000
# 4 0.0000 0.0000 0.0000 627.3371 0.0000 230.8931
# 5 -13.8376 -11.9506 -8.5780 0.0000 33.2046 0.0000
# 6 0.0000 0.0000 0.0000 230.8931 0.0000 161.9221
#
#
#
# Elastic Compliance Matrix: (Units=1/GPa)
#
#
# Indices 1 2 3 4 5 6 
#
# 1 0.015785 -0.005009 -0.004096 0.000000 0.003717 0.000000
# 2 -0.005009 0.013601 -0.002694 0.000000 0.002111 0.000000
# 3 -0.004096 -0.002694 0.011472 0.000000 0.000287 0.000000
# 4 0.000000 0.000000 0.000000 0.003355 0.000000 -0.004784
# 5 0.003717 0.002111 0.000287 0.000000 0.032500 0.000000
# 6 0.000000 0.000000 0.000000 -0.004784 0.000000 0.012997
#
#
# Mechanical properties :
#
#
# Convention : Reuss Voigt Hill
#
# Bulk Modulus (GPa) = 57.94025 62.30206 60.12115
# Shear Modulus (GPa) = 41.99527 176.22627 109.11077
#
# Velocity S-wave (km/s) = 4.56843 9.35842 7.36378
# Velocity P-wave (km/s) = 7.52478 12.15467 10.10837
#
# Compressibility (1/GPa) = 0.01725916
#
# Stress axis : x y z
#
# Youngs Moduli (GPa) = 63.34940 73.52542 87.17015
#
# Poissons Ratio (x) = 0.36832 0.35708
# Poissons Ratio (y) = 0.31735 0.23480
# Poissons Ratio (z) = 0.25950 0.19805
#
# Static dielectric constant tensor:
#      x y z
#    x 1.818700 0.000000 -0.051450 
#    y 0.000000 1.703670 0.000000 
#    z -0.051450 0.000000 1.694730 
# 
# From -- ./inp_files/80819.got.cif
#   From: 2010.05.17/outbox.cif.g08.bks.cpg/sg15_41_cif.got.tgz:80819.got - 2010.06.03 18:47:42.
