data_PCOD9294868
_publ_section_title
;
Structure prediction by ZEFSAII (Michael W. Deem and Ramdas Pophale) SiO2 
 PCOD9294868
Probable space group: C 2/C
;
_chemical_formula_sum "Si O2"
_cell_formula_units_Z 44
_cell_length_a 13.471241
_cell_length_b 18.899659
_cell_length_c 21.733638
_cell_angle_alpha 90.000000
_cell_angle_beta 159.406329
_cell_angle_gamma 90.000000
_cell_volume 1946.317101
_symmetry_space_group_name_H-M "C 2/C"
_symmetry_group_IT_number 15
_symmetry_cell_setting 'monoclinic'
loop_
_space_group_symop_operation_xyz
x,y,z
-x,y,1/2-z
-x,-y,-z
x,-y,1/2+z
1/2+x,1/2+y,z
1/2-x,1/2+y,1/2-z
1/2-x,1/2-y,-z
1/2+x,1/2-y,1/2+z
loop_
_atom_site_type_symbol
_atom_site_label
_atom_site_fract_x
_atom_site_fract_y
_atom_site_fract_z
Si Si1 0.070674 0.381988 0.465127
Si Si2 0.210840 0.909353 0.043389
Si Si3 0.545320 0.556995 0.904366
Si Si4 0.500000 0.513810 0.250000
Si Si5 0.664445 0.730712 0.572627
Si Si6 0.732238 0.705784 0.051739
O O1 0.229589 0.385659 0.492096
O O2 0.241261 0.432023 0.611601
O O3 0.051667 0.302718 0.478243
O O4 0.770685 0.415088 0.278321
O O5 0.500000 0.916741 0.250000
O O6 0.047956 0.843306 0.978163
O O7 0.073066 0.986150 0.960528
O O8 0.594494 0.533234 0.862352
O O9 0.730245 0.622363 0.034545
O O10 0.557189 0.726590 0.580261
O O11 0.000000 0.731295 0.750000
O O12 0.000000 0.722786 0.250000
O O13 0.750000 0.750000 0.000000
#
# Coordination Sequence:
#
# PCOD9294868 Si02
#       6
#     8   8   8   4   8   8
#     4  11  22  43  68 106 140 187 248 305 372 435
#     4  10  23  41  68 104 136 183 239 308 367 439
#     4  11  24  43  69 100 148 193 245 300 381 447
#     4  10  24  42  68 102 142 192 246 312 368 450
#     4  11  24  46  77 103 144 189 249 306 364 440
#     4  12  29  49  73 113 152 202 246 308 377 449
#
# _framework density 22.6068
#
# number of rings (size 3 to 8) (size 9 to 14) (size 15 to 20)
#    0.000    1.091    0.909    4.909    3.818    7.273 
#    0.000    0.000    0.000    0.000    0.000    0.000 
#    0.000    0.000    0.000    0.000    0.000    0.000 
#
# Total GULP energy -123035.151976 kJ/mol
# GULP energy per Si atom -5592.506908 kJ/mol
# Density = 2.255535 g / cm^3
# Si number density = 22.606800 Si / 1000 Ang^3
#
#
#
# Elastic Constant Matrix: (Units=GPa)
#
#
# Indices 1 2 3 4 5 6 
#
# 1 118.8335 79.8799 28.0864 -0.0238 -6.2108 0.0253
# 2 79.8799 193.9250 48.0150 0.0358 -6.8855 -0.0600
# 3 28.0864 48.0150 77.5395 0.1107 -13.7737 -0.0508
# 4 -0.0238 0.0358 0.1107 40.2918 -0.0045 -14.2621
# 5 -6.2108 -6.8855 -13.7737 -0.0045 30.3677 0.0300
# 6 0.0253 -0.0600 -0.0508 -14.2621 0.0300 25.3143
#
#
#
# Elastic Compliance Matrix: (Units=1/GPa)
#
#
# Indices 1 2 3 4 5 6 
#
# 1 0.011799 -0.004498 -0.001350 0.000007 0.000781 -0.000022
# 2 -0.004498 0.007809 -0.003323 0.000007 -0.000657 0.000021
# 3 -0.001350 -0.003323 0.016598 -0.000045 0.006499 -0.000006
# 4 0.000007 0.000007 -0.000045 0.031002 -0.000030 0.017466
# 5 0.000781 -0.000657 0.006499 -0.000030 0.035888 -0.000049
# 6 -0.000022 0.000021 -0.000006 0.017466 -0.000049 0.049344
#
#
# Mechanical properties :
#
#
# Convention : Reuss Voigt Hill
#
# Bulk Modulus (GPa) = 55.97868 78.02895 67.00381
# Shear Modulus (GPa) = 28.29106 34.81588 31.55347
#
# Velocity S-wave (km/s) = 3.54141 3.92862 3.74003
# Velocity P-wave (km/s) = 6.44498 7.42761 6.95367
#
# Compressibility (1/GPa) = 0.01786394
#
# Stress axis : x y z
#
# Youngs Moduli (GPa) = 84.75618 128.05992 60.24986
#
# Poissons Ratio (x) = 0.57602 0.08131
# Poissons Ratio (y) = 0.38124 0.20020
# Poissons Ratio (z) = 0.11439 0.42552
#
# Static dielectric constant tensor:
#      x y z
#    x 1.883690 -0.000020 0.004260 
#    y -0.000020 1.834070 -0.000040 
#    z 0.004260 -0.000040 1.838150 
# 
# From -- ./inp_files/274873.got.cif
#   From: 2010.05.17/outbox.cif.g08.bks.cpg/sg15_138_cif.got.tgz:274873.got - 2010.06.03 18:47:42.
