data_PCOD9294339
_publ_section_title
;
Structure prediction by ZEFSAII (Michael W. Deem and Ramdas Pophale) SiO2 
 PCOD9294339
Probable space group: C 2/C
;
_chemical_formula_sum "Si O2"
_cell_formula_units_Z 56
_cell_length_a 13.347891
_cell_length_b 16.612136
_cell_length_c 15.364072
_cell_angle_alpha 90.000000
_cell_angle_beta 129.549198
_cell_angle_gamma 90.000000
_cell_volume 2626.895779
_symmetry_space_group_name_H-M "C 2/C"
_symmetry_group_IT_number 15
_symmetry_cell_setting 'monoclinic'
loop_
_space_group_symop_operation_xyz
x,y,z
-x,y,1/2-z
-x,-y,-z
x,-y,1/2+z
1/2+x,1/2+y,z
1/2-x,1/2+y,1/2-z
1/2-x,1/2-y,-z
1/2+x,1/2-y,1/2+z
loop_
_atom_site_type_symbol
_atom_site_label
_atom_site_fract_x
_atom_site_fract_y
_atom_site_fract_z
Si Si1 0.478089 0.453777 0.340886
Si Si2 0.088593 0.665508 0.075014
Si Si3 0.089023 0.781241 0.219310
Si Si4 0.707118 0.826680 0.032472
Si Si5 0.956151 0.618528 0.631196
Si Si6 0.753398 0.983156 0.945494
Si Si7 0.185029 0.507705 0.216817
O O1 0.500000 0.467886 0.250000
O O2 0.490093 0.357223 0.362897
O O3 0.591780 0.496749 0.459141
O O4 0.331281 0.479104 0.279568
O O5 0.151285 0.727241 0.178095
O O6 0.139318 0.576114 0.124762
O O7 0.085413 0.677504 0.969816
O O8 0.942209 0.676847 0.026703
O O9 0.207354 0.822160 0.334727
O O10 0.000000 0.744477 0.250000
O O11 0.750000 0.750000 0.000000
O O12 0.727124 0.910983 0.996672
O O13 0.833203 0.560230 0.579524
O O14 0.000000 0.651444 0.750000
O O15 0.076130 0.562426 0.662799
O O16 0.699922 0.956035 0.822074
#
# Coordination Sequence:
#
# PCOD9294339 Si02
#       7
#     8   8   8   8   8   8   8
#     4  11  21  39  59  89 135 176 209 267 342 389
#     4  12  23  37  64  93 130 172 221 262 329 392
#     4  11  22  36  57  94 132 166 202 265 337 398
#     4  12  21  35  60  94 135 167 203 267 333 397
#     4  10  23  40  61  93 130 172 226 280 307 378
#     4  11  21  37  60  91 132 172 217 268 325 389
#     4  11  23  36  62  95 130 171 224 270 326 389
#
# _framework density 21.317938000000002
#
# number of rings (size 3 to 8) (size 9 to 14) (size 15 to 20)
#    0.000    0.857    5.714    3.429    0.000    0.000 
#    0.000    0.000    0.000    7.714    0.000   22.000 
#    0.000    0.000    0.000    0.000    0.000    0.000 
#
# Total GULP energy -156335.044444 kJ/mol
# GULP energy per Si atom -5583.394444 kJ/mol
# Density = 2.126942 g / cm^3
# Si number density = 21.317938 Si / 1000 Ang^3
#
#
#
# Elastic Constant Matrix: (Units=GPa)
#
#
# Indices 1 2 3 4 5 6 
#
# 1 58.9551 9.8249 13.0860 0.0000 1.4491 0.0000
# 2 9.8249 31.1952 19.7069 0.0000 -16.7201 0.0000
# 3 13.0860 19.7069 102.2166 0.0000 -23.3320 0.0000
# 4 0.0000 0.0000 0.0000 28.5475 0.0000 -7.3074
# 5 1.4491 -16.7201 -23.3320 0.0000 45.9185 0.0000
# 6 0.0000 0.0000 0.0000 -7.3074 0.0000 19.0614
#
#
#
# Elastic Compliance Matrix: (Units=1/GPa)
#
#
# Indices 1 2 3 4 5 6 
#
# 1 0.018640 -0.006789 -0.002009 0.000000 -0.004081 0.000000
# 2 -0.006789 0.044638 -0.004500 0.000000 0.014182 0.000000
# 3 -0.002009 -0.004500 0.011932 0.000000 0.004488 0.000000
# 4 0.000000 0.000000 0.000000 0.038841 0.000000 0.014890
# 5 -0.004081 0.014182 0.004488 0.000000 0.029351 0.000000
# 6 0.000000 0.000000 0.000000 0.014890 0.000000 0.058170
#
#
# Mechanical properties :
#
#
# Convention : Reuss Voigt Hill
#
# Bulk Modulus (GPa) = 20.56979 30.84472 25.70725
# Shear Modulus (GPa) = 20.46063 28.68877 24.57470
#
# Velocity S-wave (km/s) = 3.10140 3.67244 3.39893
# Velocity P-wave (km/s) = 4.74288 5.69936 5.24298
#
# Compressibility (1/GPa) = 0.04861498
#
# Stress axis : x y z
#
# Youngs Moduli (GPa) = 53.64916 22.40243 83.80614
#
# Poissons Ratio (x) = 0.15208 0.16836
# Poissons Ratio (y) = 0.36421 0.37711
# Poissons Ratio (z) = 0.10778 0.10081
#
# Static dielectric constant tensor:
#      x y z
#    x 1.811680 0.000000 -0.002400 
#    y 0.000000 1.865630 0.000000 
#    z -0.002400 0.000000 1.901160 
# 
# From -- ./inp_files/155249.got.cif
#   From: 2010.05.17/outbox.cif.g08.bks.cpg/sg15_78_cif.got.tgz:155249.got - 2010.06.03 18:47:42.
