data_PCOD9294578
_publ_section_title
;
Structure prediction by ZEFSAII (Michael W. Deem and Ramdas Pophale) SiO2 
 PCOD9294578
Probable space group: C 2/C
;
_chemical_formula_sum "Si O2"
_cell_formula_units_Z 60
_cell_length_a 18.126526
_cell_length_b 15.395625
_cell_length_c 8.752343
_cell_angle_alpha 90.000000
_cell_angle_beta 106.788454
_cell_angle_gamma 90.000000
_cell_volume 2338.404021
_symmetry_space_group_name_H-M "C 2/C"
_symmetry_group_IT_number 15
_symmetry_cell_setting 'monoclinic'
loop_
_space_group_symop_operation_xyz
x,y,z
-x,y,1/2-z
-x,-y,-z
x,-y,1/2+z
1/2+x,1/2+y,z
1/2-x,1/2+y,1/2-z
1/2-x,1/2-y,-z
1/2+x,1/2-y,1/2+z
loop_
_atom_site_type_symbol
_atom_site_label
_atom_site_fract_x
_atom_site_fract_y
_atom_site_fract_z
Si Si1 0.147687 0.420266 0.737464
Si Si2 0.668942 0.803727 0.473972
Si Si3 0.934088 0.303747 0.359862
Si Si4 0.500000 0.032026 0.750000
Si Si5 0.749380 0.559135 0.666584
Si Si6 0.600783 0.473400 0.884485
Si Si7 0.458055 0.387407 0.957153
Si Si8 0.724168 0.838302 0.059863
O O1 0.144229 0.335600 0.627267
O O2 0.201421 0.494679 0.696994
O O3 0.070504 0.534556 0.256838
O O4 0.205393 0.399652 0.909334
O O5 0.750000 0.750000 0.500000
O O6 0.598019 0.770910 0.326997
O O7 0.687460 0.893671 0.399649
O O8 0.984612 0.392756 0.373126
O O9 0.962429 0.215942 0.455481
O O10 0.857459 0.325269 0.406963
O O11 0.682165 0.535753 0.512439
O O12 0.719063 0.627554 0.775276
O O13 0.541010 0.420755 0.954581
O O14 0.595027 0.431439 0.711957
O O15 0.571806 0.571491 0.902268
O O16 0.750000 0.750000 0.000000
#
# Coordination Sequence:
#
# PCOD9294578 Si02
#       8
#     8   8   8   4   8   8   8   8
#     4  12  26  45  73 111 146 198 260 309 377 458
#     4  11  24  44  69 106 146 194 253 312 382 462
#     4  11  25  45  71 102 150 202 242 311 394 456
#     4  12  26  48  76 102 158 196 258 310 376 472
#     4  11  24  42  69 108 137 200 241 308 377 448
#     4  10  23  40  71 100 139 181 251 304 370 451
#     4  10  23  45  67 107 137 193 239 310 383 447
#     4  11  26  46  68 108 148 190 249 317 376 450
#
# _framework density 25.658525999999998
#
# number of rings (size 3 to 8) (size 9 to 14) (size 15 to 20)
#    0.000    1.067    2.667    4.000    7.467    2.133 
#    0.000    1.333    0.000    0.000    0.000    0.000 
#    0.000    0.000    0.000    0.000    0.000    0.000 
#
# Total GULP energy -167326.591712 kJ/mol
# GULP energy per Si atom -5577.553057 kJ/mol
# Density = 2.560013 g / cm^3
# Si number density = 25.658526 Si / 1000 Ang^3
#
#
#
# Elastic Constant Matrix: (Units=GPa)
#
#
# Indices 1 2 3 4 5 6 
#
# 1 85.7520 24.6414 12.1639 0.0000 0.9733 0.0000
# 2 24.6414 96.0982 9.8882 0.0000 6.0895 0.0000
# 3 12.1639 9.8882 70.4914 0.0000 0.8280 0.0000
# 4 0.0000 0.0000 0.0000 36.4615 0.0000 -1.9840
# 5 0.9733 6.0895 0.8280 0.0000 36.5479 0.0000
# 6 0.0000 0.0000 0.0000 -1.9840 0.0000 47.1385
#
#
#
# Elastic Compliance Matrix: (Units=1/GPa)
#
#
# Indices 1 2 3 4 5 6 
#
# 1 0.012806 -0.003115 -0.001775 0.000000 0.000218 0.000000
# 2 -0.003115 0.011426 -0.001044 0.000000 -0.001797 0.000000
# 3 -0.001775 -0.001044 0.014640 0.000000 -0.000110 0.000000
# 4 0.000000 0.000000 0.000000 0.027489 0.000000 0.001157
# 5 0.000218 -0.001797 -0.000110 0.000000 0.027657 0.000000
# 6 0.000000 0.000000 0.000000 0.001157 0.000000 0.021263
#
#
# Mechanical properties :
#
#
# Convention : Reuss Voigt Hill
#
# Bulk Modulus (GPa) = 37.03239 38.41432 37.72336
# Shear Modulus (GPa) = 36.72376 37.73948 37.23162
#
# Velocity S-wave (km/s) = 3.78729 3.83931 3.81339
# Velocity P-wave (km/s) = 5.79559 5.88707 5.84151
#
# Compressibility (1/GPa) = 0.02700339
#
# Stress axis : x y z
#
# Youngs Moduli (GPa) = 78.08861 87.51929 68.30482
#
# Poissons Ratio (x) = 0.27261 0.12127
# Poissons Ratio (y) = 0.24323 0.07132
# Poissons Ratio (z) = 0.13864 0.09139
#
# Static dielectric constant tensor:
#      x y z
#    x 2.136120 0.000000 -0.001090 
#    y 0.000000 2.535270 0.000000 
#    z -0.001090 0.000000 2.119910 
# 
# From -- ./inp_files/57044.got.cif
#   From: 2010.05.17/outbox.cif.g08.bks.cpg/sg15_29_cif.got.tgz:57044.got - 2010.06.03 18:47:42.
