data_PCOD9294423
_publ_section_title
;
Structure prediction by ZEFSAII (Michael W. Deem and Ramdas Pophale) SiO2 
 PCOD9294423
Probable space group: C 2/C
;
_chemical_formula_sum "Si O2"
_cell_formula_units_Z 56
_cell_length_a 16.812604
_cell_length_b 14.724435
_cell_length_c 15.302438
_cell_angle_alpha 90.000000
_cell_angle_beta 136.801024
_cell_angle_gamma 90.000000
_cell_volume 2593.160065
_symmetry_space_group_name_H-M "C 2/C"
_symmetry_group_IT_number 15
_symmetry_cell_setting 'monoclinic'
loop_
_space_group_symop_operation_xyz
x,y,z
-x,y,1/2-z
-x,-y,-z
x,-y,1/2+z
1/2+x,1/2+y,z
1/2-x,1/2+y,1/2-z
1/2-x,1/2-y,-z
1/2+x,1/2-y,1/2+z
loop_
_atom_site_type_symbol
_atom_site_label
_atom_site_fract_x
_atom_site_fract_y
_atom_site_fract_z
Si Si1 0.629540 0.671675 0.976355
Si Si2 0.740404 0.137310 0.587780
Si Si3 0.754237 0.736868 0.399087
Si Si4 0.430130 0.872254 0.281742
Si Si5 0.386491 0.361445 0.377864
Si Si6 0.759060 0.478097 0.679708
Si Si7 0.857864 0.553189 0.445737
O O1 0.657357 0.778426 0.999442
O O2 0.725850 0.614333 0.106656
O O3 0.652984 0.638578 0.895914
O O4 0.509113 0.651692 0.928661
O O5 0.791505 0.152267 0.725132
O O6 0.671982 0.042262 0.532996
O O7 0.750000 0.750000 0.500000
O O8 0.642311 0.780774 0.262571
O O9 0.859742 0.790420 0.434773
O O10 0.765334 0.630270 0.395826
O O11 0.500000 0.857757 0.250000
O O12 0.518740 0.905607 0.426571
O O13 0.335794 0.950666 0.186897
O O14 0.355491 0.463126 0.386551
O O15 0.837335 0.459240 0.826910
#
# Coordination Sequence:
#
# PCOD9294423 Si02
#       7
#     8   8   8   8   8   8   8
#     4  11  22  43  68  96 134 179 225 279 342 397
#     4  10  24  42  68 100 133 173 232 280 329 415
#     4  11  24  42  65  97 132 169 224 277 331 410
#     4  11  22  42  66  95 129 174 220 274 341 394
#     4  10  23  42  66  95 137 177 223 281 345 400
#     4  10  23  40  65 100 133 175 224 280 327 410
#     4  11  23  43  65  94 134 173 221 279 340 399
#
# _framework density 21.595274
#
# number of rings (size 3 to 8) (size 9 to 14) (size 15 to 20)
#    0.000    1.429    1.429    3.000    2.000    6.857 
#    0.000    4.286    0.000    0.000    0.000    0.000 
#    0.000    0.000    0.000    0.000    0.000    0.000 
#
# Total GULP energy -156387.946219 kJ/mol
# GULP energy per Si atom -5585.283794 kJ/mol
# Density = 2.154612 g / cm^3
# Si number density = 21.595274 Si / 1000 Ang^3
#
#
#
# Elastic Constant Matrix: (Units=GPa)
#
#
# Indices 1 2 3 4 5 6 
#
# 1 114.5765 31.5826 28.0831 0.0000 1.9811 0.0000
# 2 31.5826 141.6307 47.0561 0.0000 1.4150 0.0000
# 3 28.0831 47.0561 62.6881 0.0000 10.5913 0.0000
# 4 0.0000 0.0000 0.0000 46.6513 0.0000 -15.4906
# 5 1.9811 1.4150 10.5913 0.0000 36.1346 0.0000
# 6 0.0000 0.0000 0.0000 -15.4906 0.0000 36.9985
#
#
#
# Elastic Compliance Matrix: (Units=1/GPa)
#
#
# Indices 1 2 3 4 5 6 
#
# 1 0.009918 -0.000942 -0.003841 0.000000 0.000619 0.000000
# 2 -0.000942 0.009607 -0.007086 0.000000 0.001752 0.000000
# 3 -0.003841 -0.007086 0.024103 0.000000 -0.006577 0.000000
# 4 0.000000 0.000000 0.000000 0.024897 0.000000 0.010424
# 5 0.000619 0.001752 -0.006577 0.000000 0.029499 0.000000
# 6 0.000000 0.000000 0.000000 0.010424 0.000000 0.031392
#
#
# Mechanical properties :
#
#
# Convention : Reuss Voigt Hill
#
# Bulk Modulus (GPa) = 50.27307 59.14876 54.71092
# Shear Modulus (GPa) = 31.29228 38.10178 34.69703
#
# Velocity S-wave (km/s) = 3.81075 4.20498 4.01271
# Velocity P-wave (km/s) = 6.53396 7.14318 6.84535
#
# Compressibility (1/GPa) = 0.01989137
#
# Stress axis : x y z
#
# Youngs Moduli (GPa) = 100.82610 104.08717 41.48932
#
# Poissons Ratio (x) = 0.09803 0.15935
# Poissons Ratio (y) = 0.09496 0.29398
# Poissons Ratio (z) = 0.38725 0.73754
#
# Static dielectric constant tensor:
#      x y z
#    x 1.836740 0.000000 0.012550 
#    y 0.000000 1.797080 0.000000 
#    z 0.012550 0.000000 1.786220 
# 
# From -- ./inp_files/211231.got.cif
#   From: 2010.05.17/outbox.cif.g08.bks.cpg/sg15_106_cif.got.tgz:211231.got - 2010.06.03 18:47:42.
