data_PCOD9294648
_publ_section_title
;
Structure prediction by ZEFSAII (Michael W. Deem and Ramdas Pophale) SiO2 
 PCOD9294648
Probable space group: C 2/C
;
_chemical_formula_sum "Si O2"
_cell_formula_units_Z 52
_cell_length_a 18.714361
_cell_length_b 13.297897
_cell_length_c 30.719758
_cell_angle_alpha 90.000000
_cell_angle_beta 19.396420
_cell_angle_gamma 90.000000
_cell_volume 2538.911163
_symmetry_space_group_name_H-M "C 2/C"
_symmetry_group_IT_number 15
_symmetry_cell_setting 'monoclinic'
loop_
_space_group_symop_operation_xyz
x,y,z
-x,y,1/2-z
-x,-y,-z
x,-y,1/2+z
1/2+x,1/2+y,z
1/2-x,1/2+y,1/2-z
1/2-x,1/2-y,-z
1/2+x,1/2-y,1/2+z
loop_
_atom_site_type_symbol
_atom_site_label
_atom_site_fract_x
_atom_site_fract_y
_atom_site_fract_z
Si Si1 0.495886 0.766360 0.345429
Si Si2 0.378673 0.485848 0.523822
Si Si3 0.820041 0.203870 0.787775
Si Si4 0.277672 0.740436 0.064885
Si Si5 0.000000 0.354294 0.250000
Si Si6 0.723211 0.054599 0.767393
Si Si7 0.832506 0.339511 0.703250
O O1 0.531809 0.786417 0.274125
O O2 0.595286 0.863186 0.312896
O O3 0.636713 0.674876 0.282664
O O4 0.250000 0.750000 0.500000
O O5 0.500000 0.500000 0.500000
O O6 0.264005 0.377239 0.584668
O O7 0.561795 0.480944 0.381484
O O8 0.202680 0.573658 0.622735
O O9 0.691171 0.203771 0.906912
O O10 0.778792 0.107534 0.781168
O O11 0.763010 0.301029 0.790802
O O12 0.065365 0.220530 0.662579
O O13 0.480990 0.762660 0.918047
O O14 0.586405 0.952486 0.847116
#
# Coordination Sequence:
#
# PCOD9294648 Si02
#       7
#     8   8   8   8   4   8   8
#     4  11  25  44  61  99 134 176 219 271 335 393
#     4  12  22  41  65 103 130 165 228 277 337 383
#     4  10  23  41  62  97 128 163 218 270 327 394
#     4  11  22  39  67  94 130 167 213 278 331 384
#     4  12  24  40  74  98 134 174 224 282 328 398
#     4  11  24  42  66  93 133 179 217 272 333 393
#     4  11  23  42  65  90 134 172 219 270 332 391
#
# _framework density 20.481221000000001
#
# number of rings (size 3 to 8) (size 9 to 14) (size 15 to 20)
#    0.000    0.923    4.615    3.231    2.154    5.538 
#    0.000    1.538    0.000    0.000    0.000    0.000 
#    0.000    0.000    0.000    0.000    0.000    0.000 
#
# Total GULP energy -145283.200951 kJ/mol
# GULP energy per Si atom -5587.815421 kJ/mol
# Density = 2.043461 g / cm^3
# Si number density = 20.481221 Si / 1000 Ang^3
#
#
#
# Elastic Constant Matrix: (Units=GPa)
#
#
# Indices 1 2 3 4 5 6 
#
# 1 123.6461 28.9775 -1.7366 0.0061 11.9759 -0.0438
# 2 28.9775 79.8442 -10.0335 -0.0027 7.3799 -0.0178
# 3 -1.7366 -10.0335 53.1531 -0.0497 2.3436 -0.0288
# 4 0.0061 -0.0027 -0.0497 30.0292 0.0042 1.7067
# 5 11.9759 7.3799 2.3436 0.0042 26.8872 -0.0077
# 6 -0.0438 -0.0178 -0.0288 1.7067 -0.0077 26.0093
#
#
#
# Elastic Compliance Matrix: (Units=1/GPa)
#
#
# Indices 1 2 3 4 5 6 
#
# 1 0.009106 -0.003024 -0.000132 -0.000003 -0.003214 0.000012
# 2 -0.003024 0.014220 0.002709 0.000006 -0.002792 0.000006
# 3 -0.000132 0.002709 0.019425 0.000032 -0.002378 0.000020
# 4 -0.000003 0.000006 0.000032 0.033426 -0.000009 -0.002193
# 5 -0.003214 -0.002792 -0.002378 -0.000009 0.039598 0.000002
# 6 0.000012 0.000006 0.000020 -0.002193 0.000002 0.038592
#
#
# Mechanical properties :
#
#
# Convention : Reuss Voigt Hill
#
# Bulk Modulus (GPa) = 23.89064 32.33980 28.11522
# Shear Modulus (GPa) = 29.54843 32.54753 31.04798
#
# Velocity S-wave (km/s) = 3.80242 3.99073 3.89771
# Velocity P-wave (km/s) = 5.56488 6.08759 5.83209
#
# Compressibility (1/GPa) = 0.04185740
#
# Stress axis : x y z
#
# Youngs Moduli (GPa) = 109.81994 70.32146 51.47876
#
# Poissons Ratio (x) = 0.21266 0.00678
# Poissons Ratio (y) = 0.33211 -0.13944
# Poissons Ratio (z) = 0.01446 -0.19048
#
# Static dielectric constant tensor:
#      x y z
#    x 1.711720 -0.000010 0.001360 
#    y -0.000010 1.764560 0.000040 
#    z 0.001360 0.000040 1.742840 
# 
# From -- ./inp_files/316423.got.cif
#   From: 2010.05.17/outbox.cif.g08.bks.cpg/sg15_159_cif.got.tgz:316423.got - 2010.06.03 18:47:42.
