data_PCOD9294409
_publ_section_title
;
Structure prediction by ZEFSAII (Michael W. Deem and Ramdas Pophale) SiO2 
 PCOD9294409
Probable space group: C 2/C
;
_chemical_formula_sum "Si O2"
_cell_formula_units_Z 40
_cell_length_a 10.478312
_cell_length_b 14.415201
_cell_length_c 18.940041
_cell_angle_alpha 90.000000
_cell_angle_beta 136.905318
_cell_angle_gamma 90.000000
_cell_volume 1954.540232
_symmetry_space_group_name_H-M "C 2/C"
_symmetry_group_IT_number 15
_symmetry_cell_setting 'monoclinic'
loop_
_space_group_symop_operation_xyz
x,y,z
-x,y,1/2-z
-x,-y,-z
x,-y,1/2+z
1/2+x,1/2+y,z
1/2-x,1/2+y,1/2-z
1/2-x,1/2-y,-z
1/2+x,1/2-y,1/2+z
loop_
_atom_site_type_symbol
_atom_site_label
_atom_site_fract_x
_atom_site_fract_y
_atom_site_fract_z
Si Si1 0.511918 0.723182 0.541765
Si Si2 0.722627 0.119631 0.350924
Si Si3 0.818676 0.580971 0.627018
Si Si4 0.012214 0.587931 0.556053
Si Si5 0.664436 0.293372 0.259056
O O1 0.309531 0.673679 0.452641
O O2 0.664504 0.660013 0.564305
O O3 0.520769 0.823405 0.508655
O O4 0.574791 0.715873 0.647204
O O5 0.500000 0.112667 0.250000
O O6 0.779797 0.196207 0.315585
O O7 0.774270 0.012461 0.378088
O O8 0.882399 0.568611 0.571728
O O9 0.000000 0.603399 0.750000
O O10 0.000000 0.500000 0.500000
O O11 0.206035 0.618616 0.672551
O O12 0.500000 0.296897 0.250000
#
# Coordination Sequence:
#
# PCOD9294409 Si02
#       5
#     8   8   8   8   8
#     4  11  23  42  67  89 131 169 215 267 322 381
#     4   9  22  38  65  92 121 165 215 261 323 375
#     4  11  22  43  66  93 130 167 213 262 325 386
#     4  11  26  42  65  97 129 170 217 267 319 381
#     4  10  23  40  64  96 126 167 217 266 320 380
#
# _framework density 20.465171999999999
#
# number of rings (size 3 to 8) (size 9 to 14) (size 15 to 20)
#    0.000    1.600    2.000    1.200   11.200    4.000 
#    0.000    1.000    0.000    0.000    0.000    0.000 
#    0.000    0.000    0.000    0.000    0.000    0.000 
#
# Total GULP energy -111335.486713 kJ/mol
# GULP energy per Si atom -5566.774336 kJ/mol
# Density = 2.041859 g / cm^3
# Si number density = 20.465172 Si / 1000 Ang^3
#
#
#
# Elastic Constant Matrix: (Units=GPa)
#
#
# Indices 1 2 3 4 5 6 
#
# 1 76.7220 21.8010 31.0676 0.0000 -20.5636 0.0000
# 2 21.8010 141.6532 61.6538 0.0000 12.2825 0.0000
# 3 31.0676 61.6538 163.0910 0.0000 -20.8137 0.0000
# 4 0.0000 0.0000 0.0000 30.5133 0.0000 4.0974
# 5 -20.5636 12.2825 -20.8137 0.0000 32.2619 0.0000
# 6 0.0000 0.0000 0.0000 4.0974 0.0000 13.6409
#
#
#
# Elastic Compliance Matrix: (Units=1/GPa)
#
#
# Indices 1 2 3 4 5 6 
#
# 1 0.017501 -0.003572 -0.000421 0.000000 0.012243 0.000000
# 2 -0.003572 0.010286 -0.004357 0.000000 -0.009004 0.000000
# 3 -0.000421 -0.004357 0.008757 0.000000 0.007040 0.000000
# 4 0.000000 0.000000 0.000000 0.034150 0.000000 -0.010258
# 5 0.012243 -0.009004 0.007040 0.000000 0.046770 0.000000
# 6 0.000000 0.000000 0.000000 -0.010258 0.000000 0.076390
#
#
# Mechanical properties :
#
#
# Convention : Reuss Voigt Hill
#
# Bulk Modulus (GPa) = 50.39152 67.83455 59.11303
# Shear Modulus (GPa) = 23.02342 33.07948 28.05145
#
# Velocity S-wave (km/s) = 3.35775 4.02478 3.70630
# Velocity P-wave (km/s) = 6.30152 7.40384 6.87481
#
# Compressibility (1/GPa) = 0.01984461
#
# Stress axis : x y z
#
# Youngs Moduli (GPa) = 57.13931 97.21566 114.18864
#
# Poissons Ratio (x) = 0.34724 0.04808
# Poissons Ratio (y) = 0.20409 0.49755
# Poissons Ratio (z) = 0.02406 0.42360
#
# Static dielectric constant tensor:
#      x y z
#    x 1.752180 0.000000 0.019240 
#    y 0.000000 1.788490 0.000000 
#    z 0.019240 0.000000 1.823360 
# 
# From -- ./inp_files/85614.got.cif
#   From: 2010.05.17/outbox.cif.g08.bks.cpg/sg15_43_cif.got.tgz:85614.got - 2010.06.03 18:47:42.
