data_PCOD9294239
_publ_section_title
;
Structure prediction by ZEFSAII (Michael W. Deem and Ramdas Pophale) SiO2 
 PCOD9294239
Probable space group: C 2/C
;
_chemical_formula_sum "Si O2"
_cell_formula_units_Z 60
_cell_length_a 16.814670
_cell_length_b 11.008069
_cell_length_c 15.840880
_cell_angle_alpha 90.000000
_cell_angle_beta 63.160814
_cell_angle_gamma 90.000000
_cell_volume 2616.246212
_symmetry_space_group_name_H-M "C 2/C"
_symmetry_group_IT_number 15
_symmetry_cell_setting 'monoclinic'
loop_
_space_group_symop_operation_xyz
x,y,z
-x,y,1/2-z
-x,-y,-z
x,-y,1/2+z
1/2+x,1/2+y,z
1/2-x,1/2+y,1/2-z
1/2-x,1/2-y,-z
1/2+x,1/2-y,1/2+z
loop_
_atom_site_type_symbol
_atom_site_label
_atom_site_fract_x
_atom_site_fract_y
_atom_site_fract_z
Si Si1 0.000000 0.876293 0.250000
Si Si2 0.574148 0.047225 0.030046
Si Si3 0.747141 0.949850 0.720514
Si Si4 0.427290 0.842548 0.705095
Si Si5 0.684131 0.278954 0.952109
Si Si6 0.143414 0.172666 0.907610
Si Si7 0.084992 0.012827 0.067824
Si Si8 0.241814 0.389433 0.919943
O O1 0.924150 0.774161 0.269832
O O2 0.990430 0.964759 0.333730
O O3 0.624861 0.161708 0.966185
O O4 0.654570 0.951959 0.003784
O O5 0.522163 0.095343 0.138206
O O6 0.500000 0.000000 0.000000
O O7 0.642656 0.949687 0.747084
O O8 0.775246 0.829028 0.654656
O O9 0.752482 0.935575 0.818118
O O10 0.804570 0.063875 0.663302
O O11 0.400289 0.771743 0.632113
O O12 0.750000 0.250000 0.000000
O O13 0.623590 0.390000 0.010877
O O14 0.217547 0.247930 0.923892
O O15 0.068983 0.110225 0.002390
O O16 0.167136 0.070968 0.080097
#
# Coordination Sequence:
#
# PCOD9294239 Si02
#       8
#     4   8   8   8   8   8   8   8
#     4  12  24  42  64  98 132 160 226 282 330 390
#     4  12  23  41  64  97 133 171 213 279 347 386
#     4  10  23  39  65  96 125 171 224 277 333 400
#     4  11  24  40  64  97 130 170 216 280 324 403
#     4  11  22  41  68  96 125 176 232 271 329 411
#     4  10  23  42  62  94 128 173 222 268 336 408
#     4  11  23  42  65  91 130 175 218 277 333 400
#     4  11  23  41  67  92 132 176 220 275 334 411
#
# _framework density 22.933620999999999
#
# number of rings (size 3 to 8) (size 9 to 14) (size 15 to 20)
#    0.000    1.067    5.333    2.000    3.733    0.533 
#    2.400    1.333    0.000    0.000    3.467    0.000 
#    0.000    0.000    0.000    0.000    0.000    0.000 
#
# Total GULP energy -167529.946194 kJ/mol
# GULP energy per Si atom -5584.331540 kJ/mol
# Density = 2.288142 g / cm^3
# Si number density = 22.933621 Si / 1000 Ang^3
#
#
#
# Elastic Constant Matrix: (Units=GPa)
#
#
# Indices 1 2 3 4 5 6 
#
# 1 65.5913 9.6135 -5.1821 0.0000 4.5744 0.0000
# 2 9.6135 83.4511 17.9374 0.0000 -0.4910 0.0000
# 3 -5.1821 17.9374 79.8072 0.0000 -15.1825 0.0000
# 4 0.0000 0.0000 0.0000 42.1151 0.0000 -6.0993
# 5 4.5744 -0.4910 -15.1825 0.0000 25.7046 0.0000
# 6 0.0000 0.0000 0.0000 -6.0993 0.0000 37.7440
#
#
#
# Elastic Compliance Matrix: (Units=1/GPa)
#
#
# Indices 1 2 3 4 5 6 
#
# 1 0.015787 -0.002061 0.001066 0.000000 -0.002219 0.000000
# 2 -0.002061 0.012920 -0.003291 0.000000 -0.001330 0.000000
# 3 0.001066 -0.003291 0.014973 0.000000 0.008592 0.000000
# 4 0.000000 0.000000 0.000000 0.024313 0.000000 0.003929
# 5 -0.002219 -0.001330 0.008592 0.000000 0.044348 0.000000
# 6 0.000000 0.000000 0.000000 0.003929 0.000000 0.027129
#
#
# Mechanical properties :
#
#
# Convention : Reuss Voigt Hill
#
# Bulk Modulus (GPa) = 28.48233 30.39858 29.44046
# Shear Modulus (GPa) = 31.29992 34.87813 33.08903
#
# Velocity S-wave (km/s) = 3.69833 3.90401 3.80256
# Velocity P-wave (km/s) = 5.53925 5.79703 5.66961
#
# Compressibility (1/GPa) = 0.03510949
#
# Stress axis : x y z
#
# Youngs Moduli (GPa) = 63.34342 77.39952 66.78468
#
# Poissons Ratio (x) = 0.15951 -0.07120
# Poissons Ratio (y) = 0.13054 0.21977
# Poissons Ratio (z) = -0.06753 0.25470
#
# Static dielectric constant tensor:
#      x y z
#    x 1.998060 0.000000 0.029240 
#    y 0.000000 1.849690 0.000000 
#    z 0.029240 0.000000 1.942760 
# 
# From -- ./inp_files/210626.got.cif
#   From: 2010.05.17/outbox.cif.g08.bks.cpg/sg15_106_cif.got.tgz:210626.got - 2010.06.03 18:47:42.
