data_PCOD9294253
_publ_section_title
;
Structure prediction by ZEFSAII (Michael W. Deem and Ramdas Pophale) SiO2 
 PCOD9294253
Probable space group: C 2/C
;
_chemical_formula_sum "Si O2"
_cell_formula_units_Z 64
_cell_length_a 14.060795
_cell_length_b 17.241270
_cell_length_c 14.740575
_cell_angle_alpha 90.000000
_cell_angle_beta 127.936029
_cell_angle_gamma 90.000000
_cell_volume 2818.409550
_symmetry_space_group_name_H-M "C 2/C"
_symmetry_group_IT_number 15
_symmetry_cell_setting 'monoclinic'
loop_
_space_group_symop_operation_xyz
x,y,z
-x,y,1/2-z
-x,-y,-z
x,-y,1/2+z
1/2+x,1/2+y,z
1/2-x,1/2+y,1/2-z
1/2-x,1/2-y,-z
1/2+x,1/2-y,1/2+z
loop_
_atom_site_type_symbol
_atom_site_label
_atom_site_fract_x
_atom_site_fract_y
_atom_site_fract_z
Si Si1 0.050329 0.007091 0.156432
Si Si2 0.878025 0.694015 0.452404
Si Si3 0.862415 0.656936 0.138100
Si Si4 0.754604 0.236994 0.713463
Si Si5 0.507347 0.687343 0.145754
Si Si6 0.250687 0.957292 0.913388
Si Si7 0.687466 0.521639 0.058986
Si Si8 0.876281 0.606425 0.938711
O O1 0.002107 0.096251 0.117834
O O2 0.127875 0.011865 0.293753
O O3 0.141576 0.990913 0.127455
O O4 0.935029 0.953416 0.067089
O O5 0.853812 0.739365 0.345131
O O6 0.771247 0.632244 0.403657
O O7 0.902934 0.758983 0.541983
O O8 0.994479 0.638048 0.515777
O O9 0.803847 0.733537 0.145751
O O10 0.000000 0.651009 0.250000
O O11 0.780320 0.589760 0.133511
O O12 0.857283 0.641493 0.028319
O O13 0.631000 0.279551 0.673209
O O14 0.720671 0.147463 0.683404
O O15 0.500000 0.694912 0.250000
O O16 0.250274 0.967266 0.021399
O O17 0.351580 0.015418 0.932500
#
# Coordination Sequence:
#
# PCOD9294253 Si02
#       8
#     8   8   8   8   8   8   8   8
#     4  11  22  44  67  94 140 177 225 293 347 407
#     4  11  23  43  66  97 139 182 225 285 342 416
#     4  11  20  41  69  97 138 179 220 284 351 407
#     4  11  22  43  66 100 132 177 229 282 341 414
#     4  11  24  43  68  96 135 182 231 282 345 411
#     4  11  22  44  67  97 136 181 227 282 353 406
#     4  10  23  39  67 100 129 181 229 280 343 422
#     4  10  24  40  66 100 136 177 232 277 344 412
#
# _framework density 22.707843
#
# number of rings (size 3 to 8) (size 9 to 14) (size 15 to 20)
#    0.000    1.250    3.750    1.875    0.000    2.500 
#    4.500    1.875    0.000    0.000    0.000    0.000 
#    0.000    0.000    0.000    0.000    0.000    0.000 
#
# Total GULP energy -178716.881711 kJ/mol
# GULP energy per Si atom -5584.902553 kJ/mol
# Density = 2.265616 g / cm^3
# Si number density = 22.707843 Si / 1000 Ang^3
#
#
#
# Elastic Constant Matrix: (Units=GPa)
#
#
# Indices 1 2 3 4 5 6 
#
# 1 52.5014 13.1269 1.2227 0.0000 14.5353 0.0000
# 2 13.1269 81.8255 33.6175 0.0000 4.3959 0.0000
# 3 1.2227 33.6175 73.3033 0.0000 5.7715 0.0000
# 4 0.0000 0.0000 0.0000 29.4618 0.0000 0.9705
# 5 14.5353 4.3959 5.7715 0.0000 38.4479 0.0000
# 6 0.0000 0.0000 0.0000 0.9705 0.0000 13.9162
#
#
#
# Elastic Compliance Matrix: (Units=1/GPa)
#
#
# Indices 1 2 3 4 5 6 
#
# 1 0.022293 -0.004000 0.002115 0.000000 -0.008288 0.000000
# 2 -0.004000 0.015794 -0.007239 0.000000 0.000793 0.000000
# 3 0.002115 -0.007239 0.017127 0.000000 -0.002543 0.000000
# 4 0.000000 0.000000 0.000000 0.034020 0.000000 -0.002372
# 5 -0.008288 0.000793 -0.002543 0.000000 0.029434 0.000000
# 6 0.000000 0.000000 0.000000 -0.002372 0.000000 0.072024
#
#
# Mechanical properties :
#
#
# Convention : Reuss Voigt Hill
#
# Bulk Modulus (GPa) = 27.05212 33.72938 30.39075
# Shear Modulus (GPa) = 22.59764 27.00937 24.80350
#
# Velocity S-wave (km/s) = 3.15802 3.45255 3.30856
# Velocity P-wave (km/s) = 5.02359 5.54791 5.29225
#
# Compressibility (1/GPa) = 0.03696568
#
# Stress axis : x y z
#
# Youngs Moduli (GPa) = 44.85803 63.31349 58.38790
#
# Poissons Ratio (x) = 0.25326 -0.12350
# Poissons Ratio (y) = 0.17944 0.42268
# Poissons Ratio (z) = -0.09488 0.45834
#
# Static dielectric constant tensor:
#      x y z
#    x 1.902820 0.000000 0.031910 
#    y 0.000000 1.805400 0.000000 
#    z 0.031910 0.000000 1.841030 
# 
# From -- ./inp_files/155522.got.cif
#   From: 2010.05.17/outbox.cif.g08.bks.cpg/sg15_78_cif.got.tgz:155522.got - 2010.06.03 18:47:42.
