data_PCOD9294835
_publ_section_title
;
Structure prediction by ZEFSAII (Michael W. Deem and Ramdas Pophale) SiO2 
 PCOD9294835
Probable space group: C 2/C
;
_chemical_formula_sum "Si O2"
_cell_formula_units_Z 56
_cell_length_a 5.416895
_cell_length_b 28.312683
_cell_length_c 15.986561
_cell_angle_alpha 90.000000
_cell_angle_beta 89.569693
_cell_angle_gamma 90.000000
_cell_volume 2451.739053
_symmetry_space_group_name_H-M "C 2/C"
_symmetry_group_IT_number 15
_symmetry_cell_setting 'monoclinic'
loop_
_space_group_symop_operation_xyz
x,y,z
-x,y,1/2-z
-x,-y,-z
x,-y,1/2+z
1/2+x,1/2+y,z
1/2-x,1/2+y,1/2-z
1/2-x,1/2-y,-z
1/2+x,1/2-y,1/2+z
loop_
_atom_site_type_symbol
_atom_site_label
_atom_site_fract_x
_atom_site_fract_y
_atom_site_fract_z
Si Si1 0.000000 0.736420 0.250000
Si Si2 0.854429 0.036380 0.114184
Si Si3 0.911678 0.787288 0.653048
Si Si4 0.688014 0.901860 0.066993
Si Si5 0.798158 0.959284 0.423979
Si Si6 0.811942 0.121709 0.386528
Si Si7 0.377497 0.193994 0.836538
Si Si8 0.000000 0.430789 0.750000
O O1 0.873343 0.704760 0.323192
O O2 0.845405 0.773421 0.194292
O O3 0.655311 0.036128 0.186934
O O4 0.942036 0.090105 0.110593
O O5 0.763401 0.024148 0.020941
O O6 0.099162 0.004438 0.126811
O O7 0.000000 0.786985 0.750000
O O8 0.081005 0.825534 0.609453
O O9 0.945892 0.733676 0.621362
O O10 0.455053 0.933042 0.099153
O O11 0.685768 0.850676 0.108985
O O12 0.957650 0.925513 0.079541
O O13 0.656794 0.893089 0.967979
O O14 0.674441 0.103750 0.304249
O O15 0.500000 0.176477 0.750000
#
# Coordination Sequence:
#
# PCOD9294835 Si02
#       8
#     4   8   8   8   8   8   8   4
#     4   8  18  39  64  90 128 182 224 288 335 404
#     4  10  23  41  67  93 132 175 221 277 333 410
#     4   9  19  37  61  92 130 173 219 273 338 392
#     4  11  24  45  68 100 133 178 223 277 337 407
#     4  10  24  44  70  94 132 179 220 272 346 395
#     4  11  24  39  64  99 135 174 221 276 344 402
#     4   9  21  39  66  92 128 172 227 278 334 396
#     4  12  22  41  66 100 138 174 228 288 331 416
#
# _framework density 22.84093
#
# number of rings (size 3 to 8) (size 9 to 14) (size 15 to 20)
#    0.000    2.286    1.429    1.286    6.000    7.429 
#    1.286    0.714    0.000    0.000    0.000    0.000 
#    0.000    0.000    0.000    0.000    0.000    0.000 
#
# Total GULP energy -156133.051230 kJ/mol
# GULP energy per Si atom -5576.180401 kJ/mol
# Density = 2.278894 g / cm^3
# Si number density = 22.840930 Si / 1000 Ang^3
#
#
#
# Elastic Constant Matrix: (Units=GPa)
#
#
# Indices 1 2 3 4 5 6 
#
# 1 93.7220 30.3993 27.4487 0.0000 -25.5337 0.0000
# 2 30.3993 105.8507 37.0750 0.0000 -25.6975 0.0000
# 3 27.4487 37.0750 66.5437 0.0000 -29.6917 0.0000
# 4 0.0000 0.0000 0.0000 28.8483 0.0000 -7.1309
# 5 -25.5337 -25.6975 -29.6917 0.0000 33.0054 0.0000
# 6 0.0000 0.0000 0.0000 -7.1309 0.0000 24.0711
#
#
#
# Elastic Compliance Matrix: (Units=1/GPa)
#
#
# Indices 1 2 3 4 5 6 
#
# 1 0.013798 -0.001525 -0.001017 0.000000 0.008572 0.000000
# 2 -0.001525 0.012522 -0.004216 0.000000 0.004776 0.000000
# 3 -0.001017 -0.004216 0.026696 0.000000 0.019947 0.000000
# 4 0.000000 0.000000 0.000000 0.037403 0.000000 0.011080
# 5 0.008572 0.004776 0.019947 0.000000 0.058592 0.000000
# 6 0.000000 0.000000 0.000000 0.011080 0.000000 0.044826
#
#
# Mechanical properties :
#
#
# Convention : Reuss Voigt Hill
#
# Bulk Modulus (GPa) = 25.31702 50.66250 37.98976
# Shear Modulus (GPa) = 22.67367 28.59786 25.63576
#
# Velocity S-wave (km/s) = 3.15410 3.54226 3.35380
# Velocity P-wave (km/s) = 4.93686 6.24171 5.62723
#
# Compressibility (1/GPa) = 0.03949911
#
# Stress axis : x y z
#
# Youngs Moduli (GPa) = 72.47552 79.86207 37.45820
#
# Poissons Ratio (x) = 0.12183 0.03809
# Poissons Ratio (y) = 0.11056 0.15793
# Poissons Ratio (z) = 0.07369 0.33670
#
# Static dielectric constant tensor:
#      x y z
#    x 2.304610 0.000000 -0.080980 
#    y 0.000000 1.880840 0.000000 
#    z -0.080980 0.000000 1.883050 
# 
# From -- ./inp_files/186503.got.cif
#   From: 2010.05.17/outbox.cif.g08.bks.cpg/sg15_94_cif.got.tgz:186503.got - 2010.06.03 18:47:42.
