data_PCOD9294199
_publ_section_title
;
Structure prediction by ZEFSAII (Michael W. Deem and Ramdas Pophale) SiO2 
 PCOD9294199
Probable space group: C 2/C
;
_chemical_formula_sum "Si O2"
_cell_formula_units_Z 40
_cell_length_a 6.785082
_cell_length_b 18.095392
_cell_length_c 16.403626
_cell_angle_alpha 90.000000
_cell_angle_beta 98.022428
_cell_angle_gamma 90.000000
_cell_volume 1994.306040
_symmetry_space_group_name_H-M "C 2/C"
_symmetry_group_IT_number 15
_symmetry_cell_setting 'monoclinic'
loop_
_space_group_symop_operation_xyz
x,y,z
-x,y,1/2-z
-x,-y,-z
x,-y,1/2+z
1/2+x,1/2+y,z
1/2-x,1/2+y,1/2-z
1/2-x,1/2-y,-z
1/2+x,1/2-y,1/2+z
loop_
_atom_site_type_symbol
_atom_site_label
_atom_site_fract_x
_atom_site_fract_y
_atom_site_fract_z
Si Si1 0.425824 0.591555 0.161308
Si Si2 0.298466 0.476203 0.939772
Si Si3 0.542536 0.286177 0.975803
Si Si4 0.918005 0.471736 0.337220
Si Si5 0.753583 0.351265 0.434735
O O1 0.500000 0.625222 0.250000
O O2 0.608171 0.539665 0.143169
O O3 0.425646 0.651906 0.090659
O O4 0.224161 0.543598 0.157248
O O5 0.107720 0.526478 0.910182
O O6 0.500000 0.500000 0.000000
O O7 0.213708 0.405523 0.984736
O O8 0.390133 0.221305 0.941984
O O9 0.750000 0.250000 0.000000
O O10 0.465318 0.322165 0.055611
O O11 0.788606 0.401368 0.358168
O O12 0.000000 0.468442 0.250000
#
# Coordination Sequence:
#
# PCOD9294199 Si02
#       5
#     8   8   8   8   8
#     4  11  23  42  65  97 132 169 220 276 343 396
#     4  11  22  38  67  95 126 167 218 278 325 393
#     4  10  23  42  67  91 130 176 220 269 326 404
#     4  12  24  39  66  99 133 166 219 279 337 394
#     4  10  23  39  63  98 122 167 227 261 327 398
#
# _framework density 20.057102
#
# number of rings (size 3 to 8) (size 9 to 14) (size 15 to 20)
#    0.000    1.200    4.000    1.800    5.600    0.800 
#    0.000    0.000    4.400    0.000    0.000    0.000 
#    0.000    0.000    0.000    0.000    0.000    0.000 
#
# Total GULP energy -111436.655026 kJ/mol
# GULP energy per Si atom -5571.832751 kJ/mol
# Density = 2.001145 g / cm^3
# Si number density = 20.057102 Si / 1000 Ang^3
#
#
#
# Elastic Constant Matrix: (Units=GPa)
#
#
# Indices 1 2 3 4 5 6 
#
# 1 133.7180 61.2706 63.1472 0.0000 -22.4388 0.0000
# 2 61.2706 99.2392 38.3687 0.0000 -17.3219 0.0000
# 3 63.1472 38.3687 82.9555 0.0000 -29.3835 0.0000
# 4 0.0000 0.0000 0.0000 20.6263 0.0000 -9.4706
# 5 -22.4388 -17.3219 -29.3835 0.0000 39.2984 0.0000
# 6 0.0000 0.0000 0.0000 -9.4706 0.0000 42.9273
#
#
#
# Elastic Compliance Matrix: (Units=1/GPa)
#
#
# Indices 1 2 3 4 5 6 
#
# 1 0.013705 -0.005423 -0.008160 0.000000 -0.000666 0.000000
# 2 -0.005423 0.014490 -0.001916 0.000000 0.001858 0.000000
# 3 -0.008160 -0.001916 0.023401 0.000000 0.011993 0.000000
# 4 0.000000 0.000000 0.000000 0.053946 0.000000 0.011902
# 5 -0.000666 0.001858 0.011993 0.000000 0.034852 0.000000
# 6 0.000000 0.000000 0.000000 0.011902 0.000000 0.025921
#
#
# Mechanical properties :
#
#
# Convention : Reuss Voigt Hill
#
# Bulk Modulus (GPa) = 48.54998 71.27618 59.91308
# Shear Modulus (GPa) = 24.48842 30.77882 27.63362
#
# Velocity S-wave (km/s) = 3.49798 3.92160 3.71583
# Velocity P-wave (km/s) = 6.36969 7.49126 6.95313
#
# Compressibility (1/GPa) = 0.02059733
#
# Stress axis : x y z
#
# Youngs Moduli (GPa) = 72.96577 69.01442 42.73411
#
# Poissons Ratio (x) = 0.37425 0.34873
# Poissons Ratio (y) = 0.39568 0.08187
# Poissons Ratio (z) = 0.59543 0.13221
#
# Static dielectric constant tensor:
#      x y z
#    x 1.738230 0.000000 -0.013020 
#    y 0.000000 1.522610 0.000000 
#    z -0.013020 0.000000 1.734910 
# 
# From -- ./inp_files/184230.got.cif
#   From: 2010.05.17/outbox.cif.g08.bks.cpg/sg15_93_cif.got.tgz:184230.got - 2010.06.03 18:47:42.
