data_PCOD9294687
_publ_section_title
;
Structure prediction by ZEFSAII (Michael W. Deem and Ramdas Pophale) SiO2 
 PCOD9294687
Probable space group: C 2/C
;
_chemical_formula_sum "Si O2"
_cell_formula_units_Z 56
_cell_length_a 21.349189
_cell_length_b 5.463693
_cell_length_c 25.044353
_cell_angle_alpha 90.000000
_cell_angle_beta 122.836402
_cell_angle_gamma 90.000000
_cell_volume 2454.548820
_symmetry_space_group_name_H-M "C 2/C"
_symmetry_group_IT_number 15
_symmetry_cell_setting 'monoclinic'
loop_
_space_group_symop_operation_xyz
x,y,z
-x,y,1/2-z
-x,-y,-z
x,-y,1/2+z
1/2+x,1/2+y,z
1/2-x,1/2+y,1/2-z
1/2-x,1/2-y,-z
1/2+x,1/2-y,1/2+z
loop_
_atom_site_type_symbol
_atom_site_label
_atom_site_fract_x
_atom_site_fract_y
_atom_site_fract_z
Si Si1 0.926455 0.509794 0.209247
Si Si2 0.902272 0.168336 0.366928
Si Si3 0.323333 0.307207 0.721805
Si Si4 0.306716 0.091648 0.489614
Si Si5 0.843293 0.693097 0.385761
Si Si6 0.561162 0.735302 0.387697
Si Si7 0.828587 0.877222 0.113949
O O1 0.881005 0.415970 0.238597
O O2 0.960317 0.318538 0.182266
O O3 0.859368 0.619792 0.144531
O O4 0.000000 0.678704 0.250000
O O5 0.851537 0.102462 0.291641
O O6 0.873719 0.424369 0.380849
O O7 0.986830 0.196528 0.386262
O O8 0.895929 0.924080 0.399167
O O9 0.235595 0.259220 0.680624
O O10 0.332234 0.472819 0.672126
O O11 0.250000 0.250000 0.500000
O O12 0.325271 0.201198 0.440316
O O13 0.384859 0.077026 0.555851
O O14 0.254190 0.866515 0.447607
O O15 0.614396 0.503417 0.400798
#
# Coordination Sequence:
#
# PCOD9294687 Si02
#       7
#     8   8   8   8   8   8   8
#     4  11  22  37  67 105 135 171 232 290 345 404
#     4  12  26  43  68 100 143 185 223 283 346 414
#     4  10  23  41  64  96 140 179 229 285 342 407
#     4   9  21  50  68  97 129 177 239 287 342 405
#     4  11  27  45  68  99 136 184 234 274 343 419
#     4  10  23  41  64 100 136 180 231 283 349 395
#     4   9  22  38  68  98 133 178 233 288 337 404
#
# _framework density 22.814782000000001
#
# number of rings (size 3 to 8) (size 9 to 14) (size 15 to 20)
#    0.000    1.714    1.429    1.714   10.000    1.714 
#    5.143    0.000    0.000    0.000    0.000    0.000 
#    0.000    0.000    0.000    0.000    0.000    0.000 
#
# Total GULP energy -156007.393761 kJ/mol
# GULP energy per Si atom -5571.692634 kJ/mol
# Density = 2.276285 g / cm^3
# Si number density = 22.814782 Si / 1000 Ang^3
#
#
#
# Elastic Constant Matrix: (Units=GPa)
#
#
# Indices 1 2 3 4 5 6 
#
# 1 159.2076 46.5327 34.9407 0.0009 -4.8863 0.0017
# 2 46.5327 62.5743 5.5970 0.0021 -12.7982 0.0014
# 3 34.9407 5.5970 91.5100 -0.0002 -10.7198 0.0002
# 4 0.0009 0.0021 -0.0002 9.5238 -0.0004 -13.7792
# 5 -4.8863 -12.7982 -10.7198 -0.0004 34.8968 0.0001
# 6 0.0017 0.0014 0.0002 -13.7792 0.0001 7.4367
#
#
#
# Elastic Compliance Matrix: (Units=1/GPa)
#
#
# Indices 1 2 3 4 5 6 
#
# 1 0.008911 -0.006795 -0.003250 0.000000 -0.002242 0.000000
# 2 -0.006795 0.022467 0.002151 0.000005 0.007949 0.000006
# 3 -0.003250 0.002151 0.012527 0.000000 0.004182 0.000000
# 4 0.000000 0.000005 0.000000 -0.062471 0.000002 -0.115751
# 5 -0.002242 0.007949 0.004182 0.000002 0.032542 0.000001
# 6 0.000000 0.000006 0.000000 -0.115751 0.000001 -0.080003
#
#
# Mechanical properties :
#
#
# Convention : Reuss Voigt Hill
#
# Bulk Modulus (GPa) = 35.56252 54.15920 44.86086
# Shear Modulus (GPa) = -122.34574 25.45288 -48.44643
#
# Velocity S-wave (km/s) = -7.33090 3.34373 -4.61311
# Velocity P-wave (km/s) = 7.48564 6.22074 2.94425
#
# Compressibility (1/GPa) = 0.02811949
#
# Stress axis : x y z
#
# Youngs Moduli (GPa) = 112.21488 44.50904 79.82820
#
# Poissons Ratio (x) = 0.30243 0.25942
# Poissons Ratio (y) = 0.76249 -0.17175
# Poissons Ratio (z) = 0.36467 -0.09576
#
# Static dielectric constant tensor:
#      x y z
#    x 1.859670 0.000000 0.011080 
#    y 0.000000 1.955950 0.000000 
#    z 0.011080 0.000000 1.941820 
# 
# From -- ./inp_files/299982.got.cif
#   From: 2010.05.17/outbox.cif.g08.bks.cpg/sg15_150_cif.got.tgz:299982.got - 2010.06.03 18:47:42.
