data_PCOD9294771
_publ_section_title
;
Structure prediction by ZEFSAII (Michael W. Deem and Ramdas Pophale) SiO2 
 PCOD9294771
Probable space group: C 2/C
;
_chemical_formula_sum "Si O2"
_cell_formula_units_Z 56
_cell_length_a 19.953061
_cell_length_b 10.566104
_cell_length_c 25.721487
_cell_angle_alpha 90.000000
_cell_angle_beta 28.451510
_cell_angle_gamma 90.000000
_cell_volume 2583.483918
_symmetry_space_group_name_H-M "C 2/C"
_symmetry_group_IT_number 15
_symmetry_cell_setting 'monoclinic'
loop_
_space_group_symop_operation_xyz
x,y,z
-x,y,1/2-z
-x,-y,-z
x,-y,1/2+z
1/2+x,1/2+y,z
1/2-x,1/2+y,1/2-z
1/2-x,1/2-y,-z
1/2+x,1/2-y,1/2+z
loop_
_atom_site_type_symbol
_atom_site_label
_atom_site_fract_x
_atom_site_fract_y
_atom_site_fract_z
Si Si1 0.000000 0.357521 0.250000
Si Si2 0.301126 0.941725 0.749777
Si Si3 0.069031 0.465573 0.102096
Si Si4 0.733740 0.325719 0.600757
Si Si5 0.832276 0.121563 0.958469
Si Si6 0.799609 0.230788 0.669843
Si Si7 0.000000 0.035980 0.750000
Si Si8 0.080062 0.892830 0.981524
O O1 0.970267 0.434012 0.218535
O O2 0.130344 0.272047 0.142971
O O3 0.251970 0.847296 0.738085
O O4 0.227489 0.885169 0.851370
O O5 0.470328 0.939870 0.637524
O O6 0.258077 0.091241 0.773537
O O7 0.122857 0.355583 0.027092
O O8 0.212123 0.518678 0.028309
O O9 0.757624 0.264596 0.640188
O O10 0.635601 0.449983 0.671761
O O11 0.955640 0.110456 0.831759
O O12 0.750000 0.250000 0.000000
O O13 0.887800 0.094382 0.978859
O O14 0.968627 0.219911 0.554784
O O15 0.000000 0.000000 0.000000
#
# Coordination Sequence:
#
# PCOD9294771 Si02
#       8
#     4   8   8   8   8   8   4   8
#     4  11  20  41  66 100 128 175 222 295 350 401
#     4  11  25  47  68 106 138 193 232 296 360 428
#     4  11  23  41  69  99 134 176 239 288 350 423
#     4  10  23  41  66 101 134 177 231 294 349 413
#     4  11  24  44  69 103 139 188 241 298 362 439
#     4  11  25  45  70 101 140 189 236 288 358 436
#     4   9  24  43  68 100 140 183 230 307 360 409
#     4  10  25  44  67 101 147 191 237 291 372 439
#
# _framework density 21.676155000000001
#
# number of rings (size 3 to 8) (size 9 to 14) (size 15 to 20)
#    0.000    1.429    1.429    2.143    8.000    3.429 
#    2.571    0.000    0.000    0.000    0.000    0.000 
#    0.000    0.000    0.000    0.000    0.000    0.000 
#
# Total GULP energy -156033.206299 kJ/mol
# GULP energy per Si atom -5572.614511 kJ/mol
# Density = 2.162682 g / cm^3
# Si number density = 21.676155 Si / 1000 Ang^3
#
#
#
# Elastic Constant Matrix: (Units=GPa)
#
#
# Indices 1 2 3 4 5 6 
#
# 1 117.9836 34.9452 30.2736 -0.0001 15.0273 0.0001
# 2 34.9452 80.4350 30.0565 0.0001 26.2685 -0.0001
# 3 30.2736 30.0565 97.5083 0.0000 13.1487 -0.0003
# 4 -0.0001 0.0001 0.0000 10.5329 0.0000 3.4821
# 5 15.0273 26.2685 13.1487 0.0000 38.9591 0.0001
# 6 0.0001 -0.0001 -0.0003 3.4821 0.0001 6.3423
#
#
#
# Elastic Compliance Matrix: (Units=1/GPa)
#
#
# Indices 1 2 3 4 5 6 
#
# 1 0.010093 -0.003325 -0.001976 0.000000 -0.000984 0.000000
# 2 -0.003325 0.018367 -0.003282 0.000000 -0.009994 0.000001
# 3 -0.001976 -0.003282 0.012027 0.000000 -0.001084 0.000001
# 4 0.000000 0.000000 0.000000 0.115994 0.000000 -0.063684
# 5 -0.000984 -0.009994 -0.001084 0.000000 0.033152 -0.000001
# 6 0.000000 0.000001 0.000001 -0.063684 -0.000001 0.192637
#
#
# Mechanical properties :
#
#
# Convention : Reuss Voigt Hill
#
# Bulk Modulus (GPa) = 42.87870 54.05306 48.46588
# Shear Modulus (GPa) = 12.27871 24.54362 18.41116
#
# Velocity S-wave (km/s) = 2.38263 3.36860 2.91756
# Velocity P-wave (km/s) = 5.23390 6.33409 5.81009
#
# Compressibility (1/GPa) = 0.02332160
#
# Stress axis : x y z
#
# Youngs Moduli (GPa) = 99.07874 54.44509 83.14807
#
# Poissons Ratio (x) = 0.18104 0.16429
# Poissons Ratio (y) = 0.32945 0.27285
# Poissons Ratio (z) = 0.19577 0.17866
#
# Static dielectric constant tensor:
#      x y z
#    x 1.831700 0.000000 -0.016620 
#    y 0.000000 1.858710 0.000000 
#    z -0.016620 0.000000 1.827490 
# 
# From -- ./inp_files/280002.got.cif
#   From: 2010.05.17/outbox.cif.g08.bks.cpg/sg15_141_cif.got.tgz:280002.got - 2010.06.03 18:47:42.
