data_PCOD9294250
_publ_section_title
;
Structure prediction by ZEFSAII (Michael W. Deem and Ramdas Pophale) SiO2 
 PCOD9294250
Probable space group: C 2/C
;
_chemical_formula_sum "Si O2"
_cell_formula_units_Z 52
_cell_length_a 19.146226
_cell_length_b 12.406754
_cell_length_c 13.986551
_cell_angle_alpha 90.000000
_cell_angle_beta 53.876492
_cell_angle_gamma 90.000000
_cell_volume 2683.662615
_symmetry_space_group_name_H-M "C 2/C"
_symmetry_group_IT_number 15
_symmetry_cell_setting 'monoclinic'
loop_
_space_group_symop_operation_xyz
x,y,z
-x,y,1/2-z
-x,-y,-z
x,-y,1/2+z
1/2+x,1/2+y,z
1/2-x,1/2+y,1/2-z
1/2-x,1/2-y,-z
1/2+x,1/2-y,1/2+z
loop_
_atom_site_type_symbol
_atom_site_label
_atom_site_fract_x
_atom_site_fract_y
_atom_site_fract_z
Si Si1 0.187794 0.624134 0.817499
Si Si2 0.500000 0.387641 0.250000
Si Si3 0.441185 0.197804 0.431286
Si Si4 0.179407 0.985734 0.151176
Si Si5 0.708260 0.859901 0.576117
Si Si6 0.872378 0.616500 0.157176
Si Si7 0.750281 0.781847 0.889302
O O1 0.272386 0.589325 0.809661
O O2 0.137070 0.511462 0.848381
O O3 0.213599 0.682052 0.699992
O O4 0.125870 0.703046 0.927563
O O5 0.463717 0.309589 0.362102
O O6 0.580232 0.455562 0.222235
O O7 0.386127 0.130005 0.397440
O O8 0.530754 0.146938 0.392573
O O9 0.193106 0.109625 0.165412
O O10 0.230436 0.954871 0.011875
O O11 0.750000 0.750000 0.500000
O O12 0.691045 0.854711 0.702505
O O13 0.838860 0.680095 0.090595
O O14 0.750000 0.750000 0.000000
#
# Coordination Sequence:
#
# PCOD9294250 Si02
#       7
#     8   4   8   8   8   8   8
#     4  10  23  40  63  88 126 167 211 253 322 376
#     4  12  20  38  64  94 128 146 214 258 320 364
#     4  11  20  36  64 101 121 152 205 272 310 366
#     4  10  23  39  66  95 121 167 210 261 318 380
#     4  11  18  35  65  96 122 157 206 263 326 368
#     4  11  21  38  64  91 125 160 212 262 311 377
#     4  11  24  45  60  85 131 175 210 250 318 377
#
# _framework density 19.376504000000001
#
# number of rings (size 3 to 8) (size 9 to 14) (size 15 to 20)
#    0.000    1.231    3.077    4.154    0.000    0.000 
#    2.769    0.769    0.000    0.000    0.000    0.000 
#    0.000    0.000    0.000    0.000    0.000    0.000 
#
# Total GULP energy -145214.407953 kJ/mol
# GULP energy per Si atom -5585.169537 kJ/mol
# Density = 1.933240 g / cm^3
# Si number density = 19.376504 Si / 1000 Ang^3
#
#
#
# Elastic Constant Matrix: (Units=GPa)
#
#
# Indices 1 2 3 4 5 6 
#
# 1 126.6544 34.1479 49.7190 0.0000 -6.8575 0.0000
# 2 34.1479 60.0830 18.6770 0.0000 4.9071 0.0000
# 3 49.7190 18.6770 99.8770 0.0000 21.3702 0.0000
# 4 0.0000 0.0000 0.0000 17.3330 0.0000 7.0446
# 5 -6.8575 4.9071 21.3702 0.0000 36.3262 0.0000
# 6 0.0000 0.0000 0.0000 7.0446 0.0000 24.7133
#
#
#
# Elastic Compliance Matrix: (Units=1/GPa)
#
#
# Indices 1 2 3 4 5 6 
#
# 1 0.012361 -0.005540 -0.006608 0.000000 0.006969 0.000000
# 2 -0.005540 0.020162 -0.000236 0.000000 -0.003631 0.000000
# 3 -0.006608 -0.000236 0.015565 0.000000 -0.010373 0.000000
# 4 0.000000 0.000000 0.000000 0.065253 0.000000 -0.018601
# 5 0.006969 -0.003631 -0.010373 0.000000 0.035437 0.000000
# 6 0.000000 0.000000 0.000000 -0.018601 0.000000 0.045766
#
#
# Mechanical properties :
#
#
# Convention : Reuss Voigt Hill
#
# Bulk Modulus (GPa) = 42.88148 54.63356 48.75752
# Shear Modulus (GPa) = 22.01812 27.94587 24.98200
#
# Velocity S-wave (km/s) = 3.37461 3.80182 3.59457
# Velocity P-wave (km/s) = 6.11250 6.89411 6.51504
#
# Compressibility (1/GPa) = 0.02332009
#
# Stress axis : x y z
#
# Youngs Moduli (GPa) = 80.90144 49.59802 64.24501
#
# Poissons Ratio (x) = 0.27478 0.42456
# Poissons Ratio (y) = 0.44820 0.01513
# Poissons Ratio (z) = 0.53463 0.01168
#
# Static dielectric constant tensor:
#      x y z
#    x 1.696210 0.000000 0.026030 
#    y 0.000000 1.690190 0.000000 
#    z 0.026030 0.000000 1.691870 
# 
# From -- ./inp_files/167547.got.cif
#   From: 2010.05.17/outbox.cif.g08.bks.cpg/sg15_84_cif.got.tgz:167547.got - 2010.06.03 18:47:42.
