data_PCOD9294069
_publ_section_title
;
Structure prediction by ZEFSAII (Michael W. Deem and Ramdas Pophale) SiO2 
 PCOD9294069
Probable space group: C 2/C
;
_chemical_formula_sum "Si O2"
_cell_formula_units_Z 48
_cell_length_a 19.009970
_cell_length_b 16.854347
_cell_length_c 15.004496
_cell_angle_alpha 90.000000
_cell_angle_beta 28.723814
_cell_angle_gamma 90.000000
_cell_volume 2310.402901
_symmetry_space_group_name_H-M "C 2/C"
_symmetry_group_IT_number 15
_symmetry_cell_setting 'monoclinic'
loop_
_space_group_symop_operation_xyz
x,y,z
-x,y,1/2-z
-x,-y,-z
x,-y,1/2+z
1/2+x,1/2+y,z
1/2-x,1/2+y,1/2-z
1/2-x,1/2-y,-z
1/2+x,1/2-y,1/2+z
loop_
_atom_site_type_symbol
_atom_site_label
_atom_site_fract_x
_atom_site_fract_y
_atom_site_fract_z
Si Si1 0.629875 0.210820 0.856028
Si Si2 0.163091 0.282963 0.725351
Si Si3 0.640887 0.351278 0.702684
Si Si4 0.172696 0.486249 0.044089
Si Si5 0.650938 0.372201 0.125147
Si Si6 0.825499 0.105406 0.522381
O O1 0.717882 0.251370 0.837925
O O2 0.617147 0.277628 0.793014
O O3 0.723554 0.139735 0.711325
O O4 0.473799 0.185392 0.067160
O O5 0.237261 0.344113 0.575842
O O6 0.113307 0.206416 0.723204
O O7 0.778175 0.409631 0.568814
O O8 0.662530 0.331342 0.573644
O O9 0.491579 0.403664 0.870262
O O10 0.250046 0.466624 0.053915
O O11 0.000000 0.493805 0.250000
O O12 0.257844 0.564473 0.918551
O O13 0.500000 0.402726 0.250000
#
# Coordination Sequence:
#
# PCOD9294069 Si02
#       6
#     8   8   8   8   8   8
#     4  12  21  39  62 100 124 151 205 251 306 357
#     4  11  26  38  67  92 118 159 203 260 298 358
#     4   9  20  38  61  90 128 167 190 238 310 364
#     4  10  23  38  65  89 117 168 205 247 295 368
#     4  11  23  47  63  83 121 165 208 246 312 357
#     4   9  20  38  61  90 128 166 193 237 306 369
#
# _framework density 20.775597000000001
#
# number of rings (size 3 to 8) (size 9 to 14) (size 15 to 20)
#    1.000    0.667    3.333    1.500    4.667    0.000 
#    0.000    3.333    0.000    0.000    0.000    0.000 
#    0.000    0.000    0.000    0.000    0.000    0.000 
#
# Total GULP energy -133782.172818 kJ/mol
# GULP energy per Si atom -5574.257201 kJ/mol
# Density = 2.072831 g / cm^3
# Si number density = 20.775597 Si / 1000 Ang^3
#
#
#
# Elastic Constant Matrix: (Units=GPa)
#
#
# Indices 1 2 3 4 5 6 
#
# 1 36.1709 -10.2104 5.7941 0.0001 -4.6758 -0.0002
# 2 -10.2104 22.8364 24.7972 0.0005 2.5772 -0.0002
# 3 5.7941 24.7972 142.9351 0.0002 -9.4975 -0.0004
# 4 0.0001 0.0005 0.0002 40.9271 -0.0004 -2.7469
# 5 -4.6758 2.5772 -9.4975 -0.0004 40.5392 0.0003
# 6 -0.0002 -0.0002 -0.0004 -2.7469 0.0003 13.8562
#
#
#
# Elastic Compliance Matrix: (Units=1/GPa)
#
#
# Indices 1 2 3 4 5 6 
#
# 1 0.034397 0.020466 -0.004843 0.000000 0.001532 0.000001
# 2 0.020466 0.067464 -0.012862 -0.000001 -0.004942 0.000001
# 3 -0.004843 -0.012862 0.009590 0.000000 0.002506 0.000000
# 4 0.000000 -0.000001 0.000000 0.024763 0.000000 0.004909
# 5 0.001532 -0.004942 0.002506 0.000000 0.025745 0.000000
# 6 0.000001 0.000001 0.000000 0.004909 0.000000 0.073143
#
#
# Mechanical properties :
#
#
# Convention : Reuss Voigt Hill
#
# Bulk Modulus (GPa) = 8.54898 26.96713 17.75806
# Shear Modulus (GPa) = 18.61683 31.16859 24.89271
#
# Velocity S-wave (km/s) = 2.99673 3.87751 3.46522
# Velocity P-wave (km/s) = 4.01219 5.74936 4.95746
#
# Compressibility (1/GPa) = 0.11697301
#
# Stress axis : x y z
#
# Youngs Moduli (GPa) = 29.07197 14.82264 104.27094
#
# Poissons Ratio (x) = -0.30335 0.50499
# Poissons Ratio (y) = -0.59497 1.34114
# Poissons Ratio (z) = 0.14080 0.19065
#
# Static dielectric constant tensor:
#      x y z
#    x 1.753860 0.000000 -0.006570 
#    y 0.000000 1.770410 0.000000 
#    z -0.006570 0.000000 1.737350 
# 
# From -- ./inp_files/163199.got.cif
#   From: 2010.05.17/outbox.cif.g08.bks.cpg/sg15_82_cif.got.tgz:163199.got - 2010.06.03 18:47:42.
