data_PCOD9294228
_publ_section_title
;
Structure prediction by ZEFSAII (Michael W. Deem and Ramdas Pophale) SiO2 
 PCOD9294228
Probable space group: C 2/C
;
_chemical_formula_sum "Si O2"
_cell_formula_units_Z 56
_cell_length_a 19.780240
_cell_length_b 15.907185
_cell_length_c 9.896396
_cell_angle_alpha 90.000000
_cell_angle_beta 116.271036
_cell_angle_gamma 90.000000
_cell_volume 2792.248781
_symmetry_space_group_name_H-M "C 2/C"
_symmetry_group_IT_number 15
_symmetry_cell_setting 'monoclinic'
loop_
_space_group_symop_operation_xyz
x,y,z
-x,y,1/2-z
-x,-y,-z
x,-y,1/2+z
1/2+x,1/2+y,z
1/2-x,1/2+y,1/2-z
1/2-x,1/2-y,-z
1/2+x,1/2-y,1/2+z
loop_
_atom_site_type_symbol
_atom_site_label
_atom_site_fract_x
_atom_site_fract_y
_atom_site_fract_z
Si Si1 0.319533 0.697567 0.125764
Si Si2 0.792954 0.101722 0.376782
Si Si3 0.551395 0.006621 0.676239
Si Si4 0.368422 0.839823 0.656210
Si Si5 0.655599 0.152188 0.679533
Si Si6 0.912550 0.846528 0.205412
Si Si7 0.322627 0.405817 0.371117
O O1 0.295400 0.635323 0.225337
O O2 0.366340 0.769781 0.244258
O O3 0.250000 0.750000 0.000000
O O4 0.351290 0.642781 0.030240
O O5 0.716592 0.138182 0.374527
O O6 0.861906 0.134935 0.528698
O O7 0.798688 0.000970 0.383168
O O8 0.500000 0.042104 0.750000
O O9 0.580853 0.915518 0.745117
O O10 0.500000 0.000000 0.500000
O O11 0.620714 0.067634 0.708516
O O12 0.372110 0.836931 0.497266
O O13 0.395998 0.749953 0.732666
O O14 0.746149 0.141726 0.755937
O O15 0.881880 0.902595 0.301766
O O16 0.000000 0.858517 0.250000
#
# Coordination Sequence:
#
# PCOD9294228 Si02
#       7
#     8   8   8   8   8   8   8
#     4  10  23  39  65 105 137 170 233 299 345 405
#     4  12  23  44  76  99 135 185 242 297 349 425
#     4  12  26  40  66 105 146 182 226 289 359 432
#     4  12  23  44  72 100 139 187 236 277 354 444
#     4  11  22  43  67  99 139 184 235 282 350 427
#     4  12  27  45  71 102 141 191 237 293 357 420
#     4  11  24  44  71 105 134 180 246 296 349 410
#
# _framework density 20.055520999999999
#
# number of rings (size 3 to 8) (size 9 to 14) (size 15 to 20)
#    0.000    0.571    5.714    3.429    0.000    4.000 
#    0.000    0.714    0.000    0.000    0.000    0.000 
#    0.000    0.000    0.000    0.000    0.000    0.000 
#
# Total GULP energy -156521.828917 kJ/mol
# GULP energy per Si atom -5590.065318 kJ/mol
# Density = 2.000987 g / cm^3
# Si number density = 20.055521 Si / 1000 Ang^3
#
#
#
# Elastic Constant Matrix: (Units=GPa)
#
#
# Indices 1 2 3 4 5 6 
#
# 1 118.7147 1.2203 35.2431 0.0000 0.8079 0.0000
# 2 1.2203 75.2085 22.4817 0.0000 -1.6233 0.0000
# 3 35.2431 22.4817 130.2879 0.0000 -12.0057 0.0000
# 4 0.0000 0.0000 0.0000 23.2223 0.0000 -18.6405
# 5 0.8079 -1.6233 -12.0057 0.0000 27.7376 0.0000
# 6 0.0000 0.0000 0.0000 -18.6405 0.0000 13.4483
#
#
#
# Elastic Compliance Matrix: (Units=1/GPa)
#
#
# Indices 1 2 3 4 5 6 
#
# 1 0.009240 0.000639 -0.002740 0.000000 -0.001418 0.000000
# 2 0.000639 0.014065 -0.002631 0.000000 -0.000334 0.000000
# 3 -0.002740 -0.002631 0.009232 0.000000 0.003922 0.000000
# 4 0.000000 0.000000 0.000000 -0.382405 0.000000 -0.530045
# 5 -0.001418 -0.000334 0.003922 0.000000 0.037771 0.000000
# 6 0.000000 0.000000 0.000000 -0.530045 0.000000 -0.660327
#
#
# Mechanical properties :
#
#
# Convention : Reuss Voigt Hill
#
# Bulk Modulus (GPa) = 43.34130 49.12238 46.23184
# Shear Modulus (GPa) = -5.23413 30.56604 12.66595
#
# Velocity S-wave (km/s) = -1.61725 3.90817 2.51578
# Velocity P-wave (km/s) = 4.26266 6.70160 5.61612
#
# Compressibility (1/GPa) = 0.02307268
#
# Stress axis : x y z
#
# Youngs Moduli (GPa) = 108.22311 71.09783 108.32056
#
# Poissons Ratio (x) = -0.04540 0.29683
# Poissons Ratio (y) = -0.06911 0.28494
# Poissons Ratio (z) = 0.29657 0.18702
#
# Static dielectric constant tensor:
#      x y z
#    x 1.702880 0.000000 -0.008810 
#    y 0.000000 1.742550 0.000000 
#    z -0.008810 0.000000 1.698470 
# 
# From -- ./inp_files/49180.got.cif
#   From: 2010.05.17/outbox.cif.g08.bks.cpg/sg15_25_cif.got.tgz:49180.got - 2010.06.03 18:47:42.
