data_PCOD9294512
_publ_section_title
;
Structure prediction by ZEFSAII (Michael W. Deem and Ramdas Pophale) SiO2 
 PCOD9294512
Probable space group: C 2/C
;
_chemical_formula_sum "Si O2"
_cell_formula_units_Z 48
_cell_length_a 8.558523
_cell_length_b 16.190814
_cell_length_c 16.507792
_cell_angle_alpha 90.000000
_cell_angle_beta 74.092890
_cell_angle_gamma 90.000000
_cell_volume 2199.882116
_symmetry_space_group_name_H-M "C 2/C"
_symmetry_group_IT_number 15
_symmetry_cell_setting 'monoclinic'
loop_
_space_group_symop_operation_xyz
x,y,z
-x,y,1/2-z
-x,-y,-z
x,-y,1/2+z
1/2+x,1/2+y,z
1/2-x,1/2+y,1/2-z
1/2-x,1/2-y,-z
1/2+x,1/2-y,1/2+z
loop_
_atom_site_type_symbol
_atom_site_label
_atom_site_fract_x
_atom_site_fract_y
_atom_site_fract_z
Si Si1 0.669682 0.166924 0.045349
Si Si2 0.308567 0.187150 0.272876
Si Si3 0.192398 0.994175 0.462929
Si Si4 0.306972 0.986818 0.761610
Si Si5 0.881934 0.649914 0.691895
Si Si6 0.868321 0.671280 0.991213
O O1 0.728879 0.166850 0.128674
O O2 0.727531 0.076397 0.008885
O O3 0.750000 0.250000 0.000000
O O4 0.476475 0.173310 0.057506
O O5 0.500000 0.201886 0.250000
O O6 0.252366 0.103072 0.237030
O O7 0.223570 0.272405 0.266213
O O8 0.266568 0.912155 0.492853
O O9 0.234489 0.990820 0.360299
O O10 0.000000 0.000000 0.500000
O O11 0.500000 0.971880 0.750000
O O12 0.286448 0.062913 0.702937
O O13 0.000000 0.635678 0.750000
O O14 0.990226 0.669437 0.598064
O O15 0.750000 0.750000 0.000000
#
# Coordination Sequence:
#
# PCOD9294512 Si02
#       6
#     8   8   8   8   8   8
#     4  11  23  43  66  98 138 173 226 277 345 408
#     4  10  23  40  67  94 128 176 224 277 334 406
#     4  11  23  41  69  99 134 176 228 286 338 406
#     4   9  19  42  66  87 129 176 221 272 335 402
#     4  11  22  43  69  92 134 180 227 273 348 413
#     4  12  25  42  68 101 138 178 228 287 344 408
#
# _framework density 21.819351999999999
#
# number of rings (size 3 to 8) (size 9 to 14) (size 15 to 20)
#    0.000    1.333    5.000    1.500    4.667    1.333 
#    0.000    0.833    0.000    0.000    0.000    0.000 
#    0.000    0.000    0.000    0.000    0.000    0.000 
#
# Total GULP energy -133882.708588 kJ/mol
# GULP energy per Si atom -5578.446191 kJ/mol
# Density = 2.176969 g / cm^3
# Si number density = 21.819352 Si / 1000 Ang^3
#
#
#
# Elastic Constant Matrix: (Units=GPa)
#
#
# Indices 1 2 3 4 5 6 
#
# 1 77.5171 64.0847 -6.0189 0.0000 -16.1985 0.0000
# 2 64.0847 246.8698 11.9863 0.0000 -22.8234 0.0000
# 3 -6.0189 11.9863 59.7263 0.0000 -18.9002 0.0000
# 4 0.0000 0.0000 0.0000 26.8787 0.0000 -2.8393
# 5 -16.1985 -22.8234 -18.9002 0.0000 29.8469 0.0000
# 6 0.0000 0.0000 0.0000 -2.8393 0.0000 30.0887
#
#
#
# Elastic Compliance Matrix: (Units=1/GPa)
#
#
# Indices 1 2 3 4 5 6 
#
# 1 0.019268 -0.004274 0.006346 0.000000 0.011208 0.000000
# 2 -0.004274 0.005309 -0.001182 0.000000 0.000992 0.000000
# 3 0.006346 -0.001182 0.023041 0.000000 0.017130 0.000000
# 4 0.000000 0.000000 0.000000 0.037579 0.000000 0.003546
# 5 0.011208 0.000992 0.017130 0.000000 0.051193 0.000000
# 6 0.000000 0.000000 0.000000 0.003546 0.000000 0.033570
#
#
# Mechanical properties :
#
#
# Convention : Reuss Voigt Hill
#
# Bulk Modulus (GPa) = 20.24359 58.24640 39.24499
# Shear Modulus (GPa) = 27.07884 38.30026 32.68955
#
# Velocity S-wave (km/s) = 3.52667 4.19422 3.87485
# Velocity P-wave (km/s) = 5.08735 7.08576 6.16803
#
# Compressibility (1/GPa) = 0.04939834
#
# Stress axis : x y z
#
# Youngs Moduli (GPa) = 51.89833 188.35059 43.40146
#
# Poissons Ratio (x) = 0.80498 -0.27543
# Poissons Ratio (y) = 0.22180 0.05132
# Poissons Ratio (z) = -0.32936 0.22270
#
# Static dielectric constant tensor:
#      x y z
#    x 1.770100 0.000000 0.020020 
#    y 0.000000 1.939370 0.000000 
#    z 0.020020 0.000000 1.754960 
# 
# From -- ./inp_files/231054.got.cif
#   From: 2010.05.17/outbox.cif.g08.bks.cpg/sg15_116_cif.got.tgz:231054.got - 2010.06.03 18:47:42.
