data_PCOD9294922
_publ_section_title
;
Structure prediction by ZEFSAII (Michael W. Deem and Ramdas Pophale) SiO2 
 PCOD9294922
Probable space group: C 2/C
;
_chemical_formula_sum "Si O2"
_cell_formula_units_Z 64
_cell_length_a 26.475898
_cell_length_b 9.822547
_cell_length_c 14.106440
_cell_angle_alpha 90.000000
_cell_angle_beta 40.755114
_cell_angle_gamma 90.000000
_cell_volume 2394.917696
_symmetry_space_group_name_H-M "C 2/C"
_symmetry_group_IT_number 15
_symmetry_cell_setting 'monoclinic'
loop_
_space_group_symop_operation_xyz
x,y,z
-x,y,1/2-z
-x,-y,-z
x,-y,1/2+z
1/2+x,1/2+y,z
1/2-x,1/2+y,1/2-z
1/2-x,1/2-y,-z
1/2+x,1/2-y,1/2+z
loop_
_atom_site_type_symbol
_atom_site_label
_atom_site_fract_x
_atom_site_fract_y
_atom_site_fract_z
Si Si1 0.695477 0.056471 0.716615
Si Si2 0.555077 0.972941 0.045266
Si Si3 0.937634 0.889645 0.767354
Si Si4 0.669386 0.019837 0.039373
Si Si5 0.442732 0.776713 0.751649
Si Si6 0.684657 0.647487 0.212903
Si Si7 0.353628 0.488229 0.558132
Si Si8 0.944292 0.817599 0.040743
O O1 0.620577 0.042530 0.887472
O O2 0.672362 0.017579 0.644495
O O3 0.725696 0.210314 0.672258
O O4 0.765198 0.965904 0.654885
O O5 0.531342 0.833547 0.028400
O O6 0.488011 0.082637 0.157516
O O7 0.603785 0.942961 0.071666
O O8 0.863452 0.834477 0.815926
O O9 0.000000 0.817920 0.750000
O O10 0.992868 0.916391 0.598248
O O11 0.900683 0.997971 0.893229
O O12 0.637766 0.175247 0.085705
O O13 0.753435 0.974274 0.883288
O O14 0.500000 0.719987 0.750000
O O15 0.432423 0.692574 0.669990
O O16 0.630111 0.619731 0.381623
O O17 0.368243 0.630596 0.593871
#
# Coordination Sequence:
#
# PCOD9294922 Si02
#       8
#     8   8   8   8   8   8   8   8
#     4  12  24  41  73 104 145 191 237 301 366 418
#     4  11  23  41  71 110 143 179 236 312 361 417
#     4  10  25  43  71 100 133 187 240 289 354 417
#     4  11  23  39  69 105 139 186 237 289 370 420
#     4  10  23  41  69 108 149 181 234 305 371 416
#     4  12  25  44  68 103 146 190 245 291 347 452
#     4  11  26  45  68 105 141 192 242 295 359 427
#     4  11  23  43  70 101 141 186 243 299 353 425
#
# _framework density 26.723257
#
# number of rings (size 3 to 8) (size 9 to 14) (size 15 to 20)
#    0.000    1.000    3.750    2.250    5.250    4.500 
#    0.000    5.000    0.000    1.500    0.000    0.000 
#    0.000    0.000    0.000    0.000    0.000    0.000 
#
# Total GULP energy -178904.651417 kJ/mol
# GULP energy per Si atom -5590.770357 kJ/mol
# Density = 2.666243 g / cm^3
# Si number density = 26.723257 Si / 1000 Ang^3
#
#
#
# Elastic Constant Matrix: (Units=GPa)
#
#
# Indices 1 2 3 4 5 6 
#
# 1 167.9512 26.0602 40.1448 0.0000 30.1544 0.0000
# 2 26.0602 66.2084 12.0720 -0.0001 0.5074 0.0000
# 3 40.1448 12.0720 132.1483 0.0000 15.8893 0.0000
# 4 0.0000 -0.0001 0.0000 35.0324 0.0000 -1.5941
# 5 30.1544 0.5074 15.8893 0.0000 53.9193 0.0000
# 6 0.0000 0.0000 0.0000 -1.5941 0.0000 21.5246
#
#
#
# Elastic Compliance Matrix: (Units=1/GPa)
#
#
# Indices 1 2 3 4 5 6 
#
# 1 0.007386 -0.002593 -0.001569 0.000000 -0.003644 0.000000
# 2 -0.002593 0.016274 -0.000886 0.000000 0.001558 0.000000
# 3 -0.001569 -0.000886 0.008313 0.000000 -0.001564 0.000000
# 4 0.000000 0.000000 0.000000 0.028642 0.000000 0.002121
# 5 -0.003644 0.001558 -0.001564 0.000000 0.021030 0.000000
# 6 0.000000 0.000000 0.000000 0.002121 0.000000 0.046616
#
#
# Mechanical properties :
#
#
# Convention : Reuss Voigt Hill
#
# Bulk Modulus (GPa) = 45.71112 58.09579 51.90346
# Shear Modulus (GPa) = 34.32931 41.29733 37.81332
#
# Velocity S-wave (km/s) = 3.58805 3.93538 3.76573
# Velocity P-wave (km/s) = 5.85730 6.51434 6.19454
#
# Compressibility (1/GPa) = 0.02187652
#
# Stress axis : x y z
#
# Youngs Moduli (GPa) = 135.39807 61.44710 120.29621
#
# Poissons Ratio (x) = 0.15934 0.18870
# Poissons Ratio (y) = 0.35110 0.10662
# Poissons Ratio (z) = 0.21239 0.05446
#
# Static dielectric constant tensor:
#      x y z
#    x 2.059650 0.000000 -0.014140 
#    y 0.000000 2.091090 0.000000 
#    z -0.014140 0.000000 2.114490 
# 
# From -- ./inp_files/177820.got.cif
#   From: 2010.05.17/outbox.cif.g08.bks.cpg/sg15_89_cif.got.tgz:177820.got - 2010.06.03 18:47:42.
