data_PCOD9294263
_publ_section_title
;
Structure prediction by ZEFSAII (Michael W. Deem and Ramdas Pophale) SiO2 
 PCOD9294263
Probable space group: C 2/C
;
_chemical_formula_sum "Si O2"
_cell_formula_units_Z 60
_cell_length_a 15.321887
_cell_length_b 12.491361
_cell_length_c 24.600249
_cell_angle_alpha 90.000000
_cell_angle_beta 28.968852
_cell_angle_gamma 90.000000
_cell_volume 2280.376422
_symmetry_space_group_name_H-M "C 2/C"
_symmetry_group_IT_number 15
_symmetry_cell_setting 'monoclinic'
loop_
_space_group_symop_operation_xyz
x,y,z
-x,y,1/2-z
-x,-y,-z
x,-y,1/2+z
1/2+x,1/2+y,z
1/2-x,1/2+y,1/2-z
1/2-x,1/2-y,-z
1/2+x,1/2-y,1/2+z
loop_
_atom_site_type_symbol
_atom_site_label
_atom_site_fract_x
_atom_site_fract_y
_atom_site_fract_z
Si Si1 0.915695 0.815979 0.386461
Si Si2 0.905138 0.680600 0.045552
Si Si3 0.380088 0.825272 0.239152
Si Si4 0.305524 0.464871 0.237337
Si Si5 0.221532 0.466217 0.409619
Si Si6 0.500000 0.161769 0.250000
Si Si7 0.201960 0.012964 0.918172
Si Si8 0.976852 0.837678 0.910982
O O1 0.750000 0.750000 0.500000
O O2 0.842619 0.907812 0.386750
O O3 0.036749 0.879381 0.363409
O O4 0.029302 0.735796 0.286768
O O5 0.773742 0.740667 0.158254
O O6 0.802230 0.591156 0.066022
O O7 0.992737 0.765512 0.956686
O O8 0.043204 0.607112 0.003934
O O9 0.361937 0.906287 0.198217
O O10 0.533100 0.741620 0.135340
O O11 0.335447 0.911260 0.310381
O O12 0.289692 0.464915 0.310438
O O13 0.354498 0.581563 0.189288
O O14 0.681679 0.094313 0.140606
O O15 0.176956 0.077302 0.988365
O O16 0.000000 0.000000 0.000000
#
# Coordination Sequence:
#
# PCOD9294263 Si02
#       8
#     8   8   8   8   8   4   8   8
#     4  12  27  43  71 102 145 186 229 308 370 430
#     4  10  23  39  67  96 136 182 240 292 357 438
#     4  11  23  39  69 101 137 192 238 296 361 435
#     4  12  22  40  66  99 140 178 243 292 363 433
#     4  11  22  42  62  99 136 179 240 299 351 436
#     4  12  28  50  72 114 146 194 246 306 376 434
#     4  11  26  46  73 105 150 190 247 308 361 453
#     4  11  23  42  69 101 138 191 240 298 362 438
#
# _framework density 26.311444000000002
#
# number of rings (size 3 to 8) (size 9 to 14) (size 15 to 20)
#    0.000    0.800    5.333    1.600    5.600    1.067 
#    0.000    4.000    0.000    0.000    0.000    0.000 
#    0.000    0.000    0.000    0.000    0.000    0.000 
#
# Total GULP energy -167666.035941 kJ/mol
# GULP energy per Si atom -5588.867865 kJ/mol
# Density = 2.625156 g / cm^3
# Si number density = 26.311444 Si / 1000 Ang^3
#
#
#
# Elastic Constant Matrix: (Units=GPa)
#
#
# Indices 1 2 3 4 5 6 
#
# 1 48.0073 40.7454 37.0912 0.0033 -1.6505 0.0019
# 2 40.7454 179.0280 48.5086 0.0016 3.5273 0.0018
# 3 37.0912 48.5086 101.4958 -0.0006 20.7761 0.0045
# 4 0.0033 0.0016 -0.0006 71.4911 -0.0020 11.0193
# 5 -1.6505 3.5273 20.7761 -0.0020 34.1969 -0.0018
# 6 0.0019 0.0018 0.0045 11.0193 -0.0018 33.6931
#
#
#
# Elastic Compliance Matrix: (Units=1/GPa)
#
#
# Indices 1 2 3 4 5 6 
#
# 1 0.034803 -0.004741 -0.012444 -0.000001 0.009729 0.000001
# 2 -0.004741 0.007119 -0.001682 0.000000 0.000059 0.000000
# 3 -0.012444 -0.001682 0.017464 0.000001 -0.011037 -0.000002
# 4 -0.000001 0.000000 0.000001 0.014730 0.000000 -0.004818
# 5 0.009729 0.000059 -0.011037 0.000000 0.036411 0.000003
# 6 0.000001 0.000000 -0.000002 -0.004818 0.000003 0.031255
#
#
# Mechanical properties :
#
#
# Convention : Reuss Voigt Hill
#
# Bulk Modulus (GPa) = 46.18643 64.58016 55.38330
# Shear Modulus (GPa) = 26.77598 41.35527 34.06562
#
# Velocity S-wave (km/s) = 3.19353 3.96884 3.60211
# Velocity P-wave (km/s) = 5.58480 6.75278 6.19638
#
# Compressibility (1/GPa) = 0.02165138
#
# Stress axis : x y z
#
# Youngs Moduli (GPa) = 28.73315 140.46332 57.26200
#
# Poissons Ratio (x) = 0.66590 0.71259
# Poissons Ratio (y) = 0.13622 0.09632
# Poissons Ratio (z) = 0.35757 0.23628
#
# Static dielectric constant tensor:
#      x y z
#    x 2.379930 0.000000 0.042780 
#    y 0.000000 2.032010 0.000010 
#    z 0.042780 0.000010 2.235020 
# 
# From -- ./inp_files/298936.got.cif
#   From: 2010.05.17/outbox.cif.g08.bks.cpg/sg15_150_cif.got.tgz:298936.got - 2010.06.03 18:47:42.
