data_PCOD9294422
_publ_section_title
;
Structure prediction by ZEFSAII (Michael W. Deem and Ramdas Pophale) SiO2 
 PCOD9294422
Probable space group: C 2/C
;
_chemical_formula_sum "Si O2"
_cell_formula_units_Z 56
_cell_length_a 26.352997
_cell_length_b 12.307519
_cell_length_c 9.311925
_cell_angle_alpha 90.000000
_cell_angle_beta 54.624468
_cell_angle_gamma 90.000000
_cell_volume 2462.620229
_symmetry_space_group_name_H-M "C 2/C"
_symmetry_group_IT_number 15
_symmetry_cell_setting 'monoclinic'
loop_
_space_group_symop_operation_xyz
x,y,z
-x,y,1/2-z
-x,-y,-z
x,-y,1/2+z
1/2+x,1/2+y,z
1/2-x,1/2+y,1/2-z
1/2-x,1/2-y,-z
1/2+x,1/2-y,1/2+z
loop_
_atom_site_type_symbol
_atom_site_label
_atom_site_fract_x
_atom_site_fract_y
_atom_site_fract_z
Si Si1 0.777840 0.313611 0.170822
Si Si2 0.533377 0.840581 0.958770
Si Si3 0.203290 0.880668 0.689964
Si Si4 0.000000 0.012659 0.750000
Si Si5 0.766392 0.484230 0.837087
Si Si6 0.336598 0.763018 0.797503
Si Si7 0.940697 0.856262 0.608077
Si Si8 0.500000 0.989164 0.750000
O O1 0.764768 0.233246 0.322524
O O2 0.802930 0.427207 0.183562
O O3 0.712057 0.319729 0.194212
O O4 0.826844 0.258597 0.983589
O O5 0.592789 0.760735 0.864840
O O6 0.534064 0.909619 0.808780
O O7 0.473188 0.762305 0.065778
O O8 0.536064 0.927577 0.084214
O O9 0.239308 0.951436 0.515112
O O10 0.133395 0.853933 0.763384
O O11 0.210228 0.946325 0.827624
O O12 0.962845 0.933577 0.702372
O O13 0.038942 0.089070 0.577031
O O14 0.808615 0.381899 0.804974
#
# Coordination Sequence:
#
# PCOD9294422 Si02
#       8
#     8   8   8   4   8   8   8   4
#     4  10  23  40  65 100 129 169 221 262 340 388
#     4  11  25  43  70  92 140 173 225 278 330 397
#     4  11  24  39  69  95 134 170 218 272 333 398
#     4  10  24  42  62  94 130 174 232 256 338 394
#     4  11  22  44  64 101 131 171 216 277 328 402
#     4  10  24  42  67  97 132 173 213 278 332 390
#     4  11  24  43  65  98 132 180 219 278 328 401
#     4  10  26  44  62 106 120 180 230 264 340 392
#
# _framework density 22.740005
#
# number of rings (size 3 to 8) (size 9 to 14) (size 15 to 20)
#    0.000    1.429    1.429    2.143    6.000    5.714 
#    0.000    0.000    0.000    0.000    0.000    0.000 
#    0.000    0.000    0.000    0.000    0.000    0.000 
#
# Total GULP energy -156424.285746 kJ/mol
# GULP energy per Si atom -5586.581634 kJ/mol
# Density = 2.268825 g / cm^3
# Si number density = 22.740005 Si / 1000 Ang^3
#
#
#
# Elastic Constant Matrix: (Units=GPa)
#
#
# Indices 1 2 3 4 5 6 
#
# 1 37.3630 -10.3346 21.3099 0.0000 9.7094 0.0000
# 2 -10.3346 86.0335 3.3737 0.0000 25.7172 0.0000
# 3 21.3099 3.3737 64.5055 0.0000 25.5766 0.0000
# 4 0.0000 0.0000 0.0000 28.6193 0.0000 6.6812
# 5 9.7094 25.7172 25.5766 0.0000 29.1812 0.0000
# 6 0.0000 0.0000 0.0000 6.6812 0.0000 22.7273
#
#
#
# Elastic Compliance Matrix: (Units=1/GPa)
#
#
# Indices 1 2 3 4 5 6 
#
# 1 0.036877 0.008816 -0.007200 0.000000 -0.013729 0.000000
# 2 0.008816 0.020409 0.006613 0.000000 -0.026716 0.000000
# 3 -0.007200 0.006613 0.028961 0.000000 -0.028816 0.000000
# 4 0.000000 0.000000 0.000000 0.037516 0.000000 -0.011029
# 5 -0.013729 -0.026716 -0.028816 0.000000 0.087637 0.000000
# 6 0.000000 0.000000 0.000000 -0.011029 0.000000 0.047242
#
#
# Mechanical properties :
#
#
# Convention : Reuss Voigt Hill
#
# Bulk Modulus (GPa) = 9.73665 24.06664 16.90164
# Shear Modulus (GPa) = 18.08841 27.67577 22.88209
#
# Velocity S-wave (km/s) = 2.82342 3.49241 3.17558
# Velocity P-wave (km/s) = 3.86264 5.18353 4.57105
#
# Compressibility (1/GPa) = 0.10270477
#
# Stress axis : x y z
#
# Youngs Moduli (GPa) = 27.11701 48.99798 34.52928
#
# Poissons Ratio (x) = -0.43196 0.24862
# Poissons Ratio (y) = -0.23906 -0.22835
# Poissons Ratio (z) = 0.19525 -0.32403
#
# Static dielectric constant tensor:
#      x y z
#    x 1.831230 0.000000 0.052070 
#    y 0.000000 1.870680 0.000000 
#    z 0.052070 0.000000 1.871720 
# 
# From -- ./inp_files/61858.got.cif
#   From: 2010.05.17/outbox.cif.g08.bks.cpg/sg15_31_cif.got.tgz:61858.got - 2010.06.03 18:47:42.
