data_PCOD9294033
_publ_section_title
;
Structure prediction by ZEFSAII (Michael W. Deem and Ramdas Pophale) SiO2 
 PCOD9294033
Probable space group: C 2/C
;
_chemical_formula_sum "Si O2"
_cell_formula_units_Z 40
_cell_length_a 8.320868
_cell_length_b 26.596086
_cell_length_c 8.371851
_cell_angle_alpha 90.000000
_cell_angle_beta 73.906160
_cell_angle_gamma 90.000000
_cell_volume 1780.102038
_symmetry_space_group_name_H-M "C 2/C"
_symmetry_group_IT_number 15
_symmetry_cell_setting 'monoclinic'
loop_
_space_group_symop_operation_xyz
x,y,z
-x,y,1/2-z
-x,-y,-z
x,-y,1/2+z
1/2+x,1/2+y,z
1/2-x,1/2+y,1/2-z
1/2-x,1/2-y,-z
1/2+x,1/2-y,1/2+z
loop_
_atom_site_type_symbol
_atom_site_label
_atom_site_fract_x
_atom_site_fract_y
_atom_site_fract_z
Si Si1 0.294904 0.558709 0.589221
Si Si2 0.500000 0.510711 0.250000
Si Si3 0.000000 0.582671 0.250000
Si Si4 0.386709 0.669952 0.526382
Si Si5 0.753264 0.169442 0.222080
Si Si6 0.000000 0.500000 0.500000
Si Si7 0.000000 0.750126 0.250000
O O1 0.427906 0.544006 0.413060
O O2 0.351036 0.525102 0.725815
O O3 0.309198 0.618136 0.614885
O O4 0.119777 0.539535 0.571099
O O5 0.149157 0.618480 0.261918
O O6 0.937484 0.546252 0.405091
O O7 0.286845 0.686169 0.395076
O O8 0.573574 0.659007 0.412040
O O9 0.412631 0.713650 0.646554
O O10 0.645160 0.211059 0.157734
#
# Coordination Sequence:
#
# PCOD9294033 Si02
#       7
#     8   4   4   8   8   4   4
#     4  11  23  39  63  95 130 178 220 265 325 395
#     4  10  23  38  61  90 133 176 219 264 320 388
#     4  11  24  44  61  98 131 182 214 273 328 396
#     4  11  22  42  67  96 128 173 219 272 326 401
#     4  10  23  43  68  92 134 175 216 268 342 397
#     4  12  24  40  66  92 138 172 226 266 330 378
#     4  11  23  42  70 100 128 162 227 283 330 378
#
# _framework density 22.470621999999999
#
# number of rings (size 3 to 8) (size 9 to 14) (size 15 to 20)
#    0.000    1.200    2.000    4.200    5.600    0.000 
#    3.600    0.000    0.000    0.000    0.000    0.000 
#    0.000    0.000    0.000    0.000    0.000    0.000 
#
# Total GULP energy -111380.833671 kJ/mol
# GULP energy per Si atom -5569.041684 kJ/mol
# Density = 2.241948 g / cm^3
# Si number density = 22.470622 Si / 1000 Ang^3
#
#
#
# Elastic Constant Matrix: (Units=GPa)
#
#
# Indices 1 2 3 4 5 6 
#
# 1 86.1234 46.5112 3.0922 0.0000 27.7944 0.0000
# 2 46.5112 167.0966 30.7001 0.0000 11.3997 0.0000
# 3 3.0922 30.7001 35.6401 0.0000 8.1057 0.0000
# 4 0.0000 0.0000 0.0000 38.6054 0.0000 29.2376
# 5 27.7944 11.3997 8.1057 0.0000 27.9930 0.0000
# 6 0.0000 0.0000 0.0000 29.2376 0.0000 104.3803
#
#
#
# Elastic Compliance Matrix: (Units=1/GPa)
#
#
# Indices 1 2 3 4 5 6 
#
# 1 0.021383 -0.006002 0.008123 0.000000 -0.021139 0.000000
# 2 -0.006002 0.008832 -0.008162 0.000000 0.004726 0.000000
# 3 0.008123 -0.008162 0.037963 0.000000 -0.015734 0.000000
# 4 0.000000 0.000000 0.000000 0.032878 0.000000 -0.009209
# 5 -0.021139 0.004726 -0.015734 0.000000 0.059344 0.000000
# 6 0.000000 0.000000 0.000000 -0.009209 0.000000 0.012160
#
#
# Mechanical properties :
#
#
# Convention : Reuss Voigt Hill
#
# Bulk Modulus (GPa) = 17.82685 49.94080 33.88382
# Shear Modulus (GPa) = 24.58907 48.09951 36.34429
#
# Velocity S-wave (km/s) = 3.31157 4.63163 4.02607
# Velocity P-wave (km/s) = 4.75107 7.13273 6.06005
#
# Compressibility (1/GPa) = 0.05609516
#
# Stress axis : x y z
#
# Youngs Moduli (GPa) = 46.76514 113.21829 26.34155
#
# Poissons Ratio (x) = 0.67957 -0.21397
# Poissons Ratio (y) = 0.28070 0.21501
# Poissons Ratio (z) = -0.37987 0.92413
#
# Static dielectric constant tensor:
#      x y z
#    x 1.687600 0.000000 0.281140 
#    y 0.000000 1.775110 0.000000 
#    z 0.281140 0.000000 1.303620 
# 
# From -- ./inp_files/23568.got.cif
#   From: 2010.05.17/outbox.cif.g08.bks.cpg/sg15_12_cif.got.tgz:23568.got - 2010.06.03 18:47:42.
