data_PCOD9294642
_publ_section_title
;
Structure prediction by ZEFSAII (Michael W. Deem and Ramdas Pophale) SiO2 
 PCOD9294642
Probable space group: C 2/C
;
_chemical_formula_sum "Si O2"
_cell_formula_units_Z 52
_cell_length_a 25.955151
_cell_length_b 9.201498
_cell_length_c 14.069537
_cell_angle_alpha 90.000000
_cell_angle_beta 132.254316
_cell_angle_gamma 90.000000
_cell_volume 2487.092284
_symmetry_space_group_name_H-M "C 2/C"
_symmetry_group_IT_number 15
_symmetry_cell_setting 'monoclinic'
loop_
_space_group_symop_operation_xyz
x,y,z
-x,y,1/2-z
-x,-y,-z
x,-y,1/2+z
1/2+x,1/2+y,z
1/2-x,1/2+y,1/2-z
1/2-x,1/2-y,-z
1/2+x,1/2-y,1/2+z
loop_
_atom_site_type_symbol
_atom_site_label
_atom_site_fract_x
_atom_site_fract_y
_atom_site_fract_z
Si Si1 0.320872 0.065557 0.201767
Si Si2 0.180535 0.145129 0.128632
Si Si3 0.000000 0.191242 0.750000
Si Si4 0.235169 0.734345 0.870112
Si Si5 0.370274 0.896962 0.550364
Si Si6 0.965959 0.981001 0.558729
Si Si7 0.119031 0.296539 0.536828
O O1 0.241794 0.091889 0.136533
O O2 0.334318 0.105376 0.109162
O O3 0.368165 0.148953 0.338339
O O4 0.322900 0.891185 0.209361
O O5 0.204136 0.135206 0.267877
O O6 0.172465 0.312332 0.083904
O O7 0.108377 0.062507 0.027865
O O8 0.061562 0.299209 0.852690
O O9 0.983548 0.074790 0.811544
O O10 0.310174 0.716459 0.911150
O O11 0.250000 0.750000 0.000000
O O12 0.386078 0.059103 0.534059
O O13 0.945639 0.813484 0.553071
O O14 0.000000 0.000000 0.500000
#
# Coordination Sequence:
#
# PCOD9294642 Si02
#       7
#     8   8   4   8   8   8   8
#     4  11  21  39  65  98 128 167 210 262 336 384
#     4  10  23  41  62  93 136 163 210 269 322 393
#     4  10  26  46  62  92 128 166 228 266 318 396
#     4  11  21  37  62 100 132 164 205 268 329 391
#     4  11  22  43  65  92 127 172 213 272 326 383
#     4  11  24  46  65  91 127 177 218 266 324 385
#     4  11  23  39  66  95 130 166 219 266 325 392
#
# _framework density 20.907948000000001
#
# number of rings (size 3 to 8) (size 9 to 14) (size 15 to 20)
#    0.000    1.231    4.615    1.385    0.000    1.846 
#    5.538    2.308    0.000    0.000    0.000    0.000 
#    0.000    0.000    0.000    0.000    0.000    0.000 
#
# Total GULP energy -144893.408589 kJ/mol
# GULP energy per Si atom -5572.823407 kJ/mol
# Density = 2.086036 g / cm^3
# Si number density = 20.907948 Si / 1000 Ang^3
#
#
#
# Elastic Constant Matrix: (Units=GPa)
#
#
# Indices 1 2 3 4 5 6 
#
# 1 56.3442 26.8491 19.6061 0.0000 -29.4709 0.0000
# 2 26.8491 109.0410 21.1513 0.0000 -6.3374 0.0000
# 3 19.6061 21.1513 64.2436 0.0000 -29.1902 0.0000
# 4 0.0000 0.0000 0.0000 19.2929 0.0000 -8.9913
# 5 -29.4709 -6.3374 -29.1902 0.0000 41.9602 0.0000
# 6 0.0000 0.0000 0.0000 -8.9913 0.0000 14.2275
#
#
#
# Elastic Compliance Matrix: (Units=1/GPa)
#
#
# Indices 1 2 3 4 5 6 
#
# 1 0.032741 -0.007320 0.003457 0.000000 0.024295 0.000000
# 2 -0.007320 0.011469 -0.004520 0.000000 -0.006553 0.000000
# 3 0.003457 -0.004520 0.024553 0.000000 0.018826 0.000000
# 4 0.000000 0.000000 0.000000 0.073472 0.000000 0.046432
# 5 0.024295 -0.006553 0.018826 0.000000 0.053002 0.000000
# 6 0.000000 0.000000 0.000000 0.046432 0.000000 0.099630
#
#
# Mechanical properties :
#
#
# Convention : Reuss Voigt Hill
#
# Bulk Modulus (GPa) = 19.23205 40.53798 29.88501
# Shear Modulus (GPa) = 15.19919 25.89760 20.54839
#
# Velocity S-wave (km/s) = 2.69914 3.52326 3.13837
# Velocity P-wave (km/s) = 4.35112 5.99850 5.23996
#
# Compressibility (1/GPa) = 0.05199655
#
# Stress axis : x y z
#
# Youngs Moduli (GPa) = 30.54284 87.19030 40.72888
#
# Poissons Ratio (x) = 0.63826 -0.14080
# Poissons Ratio (y) = 0.22358 0.18408
# Poissons Ratio (z) = -0.10558 0.39407
#
# Static dielectric constant tensor:
#      x y z
#    x 1.676690 0.000000 0.039150 
#    y 0.000000 1.857300 0.000000 
#    z 0.039150 0.000000 1.764170 
# 
# From -- ./inp_files/176699.got.cif
#   From: 2010.05.17/outbox.cif.g08.bks.cpg/sg15_89_cif.got.tgz:176699.got - 2010.06.03 18:47:42.
