data_PCOD9294582
_publ_section_title
;
Structure prediction by ZEFSAII (Michael W. Deem and Ramdas Pophale) SiO2 
 PCOD9294582
Probable space group: C 2/C
;
_chemical_formula_sum "Si O2"
_cell_formula_units_Z 56
_cell_length_a 16.450216
_cell_length_b 8.692290
_cell_length_c 15.457686
_cell_angle_alpha 90.000000
_cell_angle_beta 84.445175
_cell_angle_gamma 90.000000
_cell_volume 2199.915784
_symmetry_space_group_name_H-M "C 2/C"
_symmetry_group_IT_number 15
_symmetry_cell_setting 'monoclinic'
loop_
_space_group_symop_operation_xyz
x,y,z
-x,y,1/2-z
-x,-y,-z
x,-y,1/2+z
1/2+x,1/2+y,z
1/2-x,1/2+y,1/2-z
1/2-x,1/2-y,-z
1/2+x,1/2-y,1/2+z
loop_
_atom_site_type_symbol
_atom_site_label
_atom_site_fract_x
_atom_site_fract_y
_atom_site_fract_z
Si Si1 0.357061 0.643069 0.742579
Si Si2 0.708121 0.960193 0.682934
Si Si3 0.829501 0.345136 0.465489
Si Si4 0.923565 0.160152 0.041480
Si Si5 0.068631 0.636274 0.804238
Si Si6 0.411065 0.451937 0.900060
Si Si7 0.539913 0.160656 0.400215
O O1 0.295646 0.532785 0.697020
O O2 0.395245 0.544582 0.815603
O O3 0.424520 0.721992 0.674438
O O4 0.305701 0.784417 0.789178
O O5 0.689201 0.002637 0.586085
O O6 0.641175 0.054115 0.745900
O O7 0.750000 0.250000 0.500000
O O8 0.885286 0.373360 0.542721
O O9 0.876026 0.219281 0.401600
O O10 0.892137 0.262160 0.123477
O O11 0.873130 0.043485 0.987011
O O12 0.994884 0.065221 0.082919
O O13 0.968681 0.268855 0.966010
O O14 0.017980 0.497801 0.855818
O O15 0.000000 0.714366 0.750000
#
# Coordination Sequence:
#
# PCOD9294582 Si02
#       7
#     8   8   8   8   8   8   8
#     4  11  24  44  69 102 133 177 224 278 334 398
#     4  11  25  43  68 101 135 176 224 278 335 398
#     4  11  22  45  66  94 135 177 219 275 336 391
#     4  10  23  46  64  99 133 176 222 272 332 398
#     4  11  24  41  67 100 133 173 224 274 333 397
#     4  10  24  43  67  98 133 172 230 266 342 390
#     4  10  23  40  71  95 132 177 221 274 331 398
#
# _framework density 25.455518999999999
#
# number of rings (size 3 to 8) (size 9 to 14) (size 15 to 20)
#    0.000    1.429    1.429    3.000    8.000    1.143 
#   20.571    1.429    0.000    0.000    0.000    0.000 
#    0.000    0.000    0.000    0.000    0.000    0.000 
#
# Total GULP energy -156998.016057 kJ/mol
# GULP energy per Si atom -5607.072002 kJ/mol
# Density = 2.539758 g / cm^3
# Si number density = 25.455519 Si / 1000 Ang^3
#
#
#
# Elastic Constant Matrix: (Units=GPa)
#
#
# Indices 1 2 3 4 5 6 
#
# 1 56.8492 14.9563 28.3007 0.0000 2.1550 0.0000
# 2 14.9563 100.5785 45.0058 0.0000 4.9346 0.0000
# 3 28.3007 45.0058 128.5531 0.0000 18.5767 0.0000
# 4 0.0000 0.0000 0.0000 66.3215 0.0000 1.4632
# 5 2.1550 4.9346 18.5767 0.0000 36.3882 0.0000
# 6 0.0000 0.0000 0.0000 1.4632 0.0000 31.0650
#
#
#
# Elastic Compliance Matrix: (Units=1/GPa)
#
#
# Indices 1 2 3 4 5 6 
#
# 1 0.019913 -0.001165 -0.004133 0.000000 0.001089 0.000000
# 2 -0.001165 0.011868 -0.003969 0.000000 0.000486 0.000000
# 3 -0.004133 -0.003969 0.010759 0.000000 -0.004710 0.000000
# 4 0.000000 0.000000 0.000000 0.015094 0.000000 -0.000711
# 5 0.001089 0.000486 -0.004710 0.000000 0.029755 0.000000
# 6 0.000000 0.000000 0.000000 -0.000711 0.000000 0.032224
#
#
# Mechanical properties :
#
#
# Convention : Reuss Voigt Hill
#
# Bulk Modulus (GPa) = 41.65632 51.38959 46.52296
# Shear Modulus (GPa) = 34.21175 39.93615 37.07395
#
# Velocity S-wave (km/s) = 3.67001 3.96518 3.82045
# Velocity P-wave (km/s) = 5.86162 6.41836 6.14630
#
# Compressibility (1/GPa) = 0.02400596
#
# Stress axis : x y z
#
# Youngs Moduli (GPa) = 50.21773 84.26243 92.94775
#
# Poissons Ratio (x) = 0.09817 0.38418
# Poissons Ratio (y) = 0.05851 0.36886
# Poissons Ratio (z) = 0.20757 0.33440
#
# Static dielectric constant tensor:
#      x y z
#    x 2.026630 0.000000 -0.117480 
#    y 0.000000 2.047570 0.000000 
#    z -0.117480 0.000000 2.167610 
# 
# From -- ./inp_files/166666.got.cif
#   From: 2010.05.17/outbox.cif.g08.bks.cpg/sg15_84_cif.got.tgz:166666.got - 2010.06.03 18:47:42.
