data_PCOD9294613
_publ_section_title
;
Structure prediction by ZEFSAII (Michael W. Deem and Ramdas Pophale) SiO2 
 PCOD9294613
Probable space group: C 2/C
;
_chemical_formula_sum "Si O2"
_cell_formula_units_Z 56
_cell_length_a 9.159401
_cell_length_b 11.763426
_cell_length_c 29.488766
_cell_angle_alpha 90.000000
_cell_angle_beta 62.648586
_cell_angle_gamma 90.000000
_cell_volume 2822.090011
_symmetry_space_group_name_H-M "C 2/C"
_symmetry_group_IT_number 15
_symmetry_cell_setting 'monoclinic'
loop_
_space_group_symop_operation_xyz
x,y,z
-x,y,1/2-z
-x,-y,-z
x,-y,1/2+z
1/2+x,1/2+y,z
1/2-x,1/2+y,1/2-z
1/2-x,1/2-y,-z
1/2+x,1/2-y,1/2+z
loop_
_atom_site_type_symbol
_atom_site_label
_atom_site_fract_x
_atom_site_fract_y
_atom_site_fract_z
Si Si1 0.944659 0.697355 0.147961
Si Si2 0.411264 0.749748 0.445942
Si Si3 0.066308 0.507728 0.785544
Si Si4 0.753712 0.787339 0.447237
Si Si5 0.708534 0.146343 0.627972
Si Si6 0.978046 0.001755 0.396595
Si Si7 0.926399 0.082713 0.711162
O O1 0.912509 0.577914 0.175815
O O2 0.802284 0.742931 0.134660
O O3 0.954517 0.792857 0.185952
O O4 0.118326 0.704445 0.097181
O O5 0.250000 0.750000 0.500000
O O6 0.574116 0.783791 0.450491
O O7 0.369833 0.830159 0.409398
O O8 0.442761 0.624334 0.421381
O O9 0.235187 0.562419 0.746127
O O10 0.000000 0.444863 0.750000
O O11 0.935075 0.602199 0.819042
O O12 0.750000 0.750000 0.500000
O O13 0.835776 0.911718 0.429619
O O14 0.852877 0.051697 0.607551
O O15 0.004088 0.999237 0.338384
O O16 0.000000 0.067456 0.750000
#
# Coordination Sequence:
#
# PCOD9294613 Si02
#       7
#     8   8   8   8   8   8   8
#     4  10  23  41  65  92 132 167 217 262 315 386
#     4  12  26  42  70  97 124 169 215 265 324 381
#     4  12  22  41  67  94 130 176 211 260 320 369
#     4  10  23  44  69  94 129 169 210 267 325 381
#     4  10  24  43  62 100 127 160 224 260 308 387
#     4  10  24  46  63  93 137 164 211 266 319 378
#     4  10  23  41  60  96 131 169 214 258 315 378
#
# _framework density 19.843449
#
# number of rings (size 3 to 8) (size 9 to 14) (size 15 to 20)
#    0.000    1.714    2.857    3.000    6.000    5.143 
#    0.000    0.000    0.000    0.000    0.000    0.000 
#    0.000    0.000    0.000    0.000    0.000    0.000 
#
# Total GULP energy -156395.959610 kJ/mol
# GULP energy per Si atom -5585.569986 kJ/mol
# Density = 1.979828 g / cm^3
# Si number density = 19.843449 Si / 1000 Ang^3
#
#
#
# Elastic Constant Matrix: (Units=GPa)
#
#
# Indices 1 2 3 4 5 6 
#
# 1 146.9557 37.5892 93.8340 0.0000 11.6851 0.0000
# 2 37.5892 33.6561 49.5129 0.0000 -2.2642 0.0000
# 3 93.8340 49.5129 160.3136 0.0000 -7.1248 0.0000
# 4 0.0000 0.0000 0.0000 23.1941 0.0000 -0.2954
# 5 11.6851 -2.2642 -7.1248 0.0000 42.4687 0.0000
# 6 0.0000 0.0000 0.0000 -0.2954 0.0000 12.4698
#
#
#
# Elastic Compliance Matrix: (Units=1/GPa)
#
#
# Indices 1 2 3 4 5 6 
#
# 1 0.012193 -0.005732 -0.005571 0.000000 -0.004595 0.000000
# 2 -0.005732 0.057149 -0.014196 0.000000 0.002242 0.000000
# 3 -0.005571 -0.014196 0.014022 0.000000 0.003128 0.000000
# 4 0.000000 0.000000 0.000000 0.043127 0.000000 0.001022
# 5 -0.004595 0.002242 0.003128 0.000000 0.025455 0.000000
# 6 0.000000 0.000000 0.000000 0.001022 0.000000 0.080218
#
#
# Mechanical properties :
#
#
# Convention : Reuss Voigt Hill
#
# Bulk Modulus (GPa) = 30.89564 78.08864 54.49214
# Shear Modulus (GPa) = 17.00959 26.29247 21.65103
#
# Velocity S-wave (km/s) = 2.93096 3.64400 3.30675
# Velocity P-wave (km/s) = 5.20168 7.55928 6.48846
#
# Compressibility (1/GPa) = 0.03236703
#
# Stress axis : x y z
#
# Youngs Moduli (GPa) = 82.01128 17.49811 71.31669
#
# Poissons Ratio (x) = 0.10030 0.39730
# Poissons Ratio (y) = 0.47008 1.01240
# Poissons Ratio (z) = 0.45688 0.24840
#
# Static dielectric constant tensor:
#      x y z
#    x 1.668730 0.000000 -0.005160 
#    y 0.000000 1.691230 0.000000 
#    z -0.005160 0.000000 1.685380 
# 
# From -- ./inp_files/307385.got.cif
#   From: 2010.05.17/outbox.cif.g08.bks.cpg/sg15_154_cif.got.tgz:307385.got - 2010.06.03 18:47:42.
