data_PCOD9294854
_publ_section_title
;
Structure prediction by ZEFSAII (Michael W. Deem and Ramdas Pophale) SiO2 
 PCOD9294854
Probable space group: C 2/C
;
_chemical_formula_sum "Si O2"
_cell_formula_units_Z 60
_cell_length_a 16.271820
_cell_length_b 12.513989
_cell_length_c 14.024433
_cell_angle_alpha 90.000000
_cell_angle_beta 71.848479
_cell_angle_gamma 90.000000
_cell_volume 2713.617833
_symmetry_space_group_name_H-M "C 2/C"
_symmetry_group_IT_number 15
_symmetry_cell_setting 'monoclinic'
loop_
_space_group_symop_operation_xyz
x,y,z
-x,y,1/2-z
-x,-y,-z
x,-y,1/2+z
1/2+x,1/2+y,z
1/2-x,1/2+y,1/2-z
1/2-x,1/2-y,-z
1/2+x,1/2-y,1/2+z
loop_
_atom_site_type_symbol
_atom_site_label
_atom_site_fract_x
_atom_site_fract_y
_atom_site_fract_z
Si Si1 0.437943 0.897969 0.038215
Si Si2 0.721580 0.963920 0.877314
Si Si3 0.784039 0.990918 0.656009
Si Si4 0.500000 0.522627 0.750000
Si Si5 0.139110 0.817212 0.283401
Si Si6 0.399508 0.219906 0.009272
Si Si7 0.318854 0.178186 0.415783
Si Si8 0.377694 0.451568 0.949521
O O1 0.506017 0.816602 0.061356
O O2 0.399419 0.845348 0.955947
O O3 0.500000 0.000000 0.000000
O O4 0.351521 0.946635 0.117656
O O5 0.767970 0.929363 0.761799
O O6 0.670672 0.874123 0.956072
O O7 0.800194 0.000113 0.914670
O O8 0.713931 0.936523 0.612437
O O9 0.785037 0.114400 0.691616
O O10 0.869114 0.991278 0.556041
O O11 0.425400 0.595481 0.734151
O O12 0.461621 0.462066 0.854581
O O13 0.091250 0.751524 0.382741
O O14 0.163319 0.744756 0.186000
O O15 0.365561 0.325211 0.969800
O O16 0.250000 0.250000 0.500000
#
# Coordination Sequence:
#
# PCOD9294854 Si02
#       8
#     8   8   8   4   8   8   8   8
#     4  10  23  43  69 101 140 180 234 296 348 412
#     4  11  20  46  68  98 138 181 233 286 351 420
#     4  11  23  42  71 103 136 183 238 299 349 425
#     4  12  24  42  66  94 142 174 236 282 354 412
#     4  11  23  40  65 102 136 184 230 293 354 418
#     4  10  23  41  67  98 138 179 228 283 352 416
#     4  12  23  42  72 102 138 188 244 290 357 433
#     4  11  24  43  68 100 137 186 224 292 352 420
#
# _framework density 22.110704999999999
#
# number of rings (size 3 to 8) (size 9 to 14) (size 15 to 20)
#    0.000    1.067    4.000    2.800    0.000    3.200 
#    0.000    1.333    0.000    0.000    0.000    0.000 
#    0.000    0.000    0.000    0.000    0.000    0.000 
#
# Total GULP energy -167058.672225 kJ/mol
# GULP energy per Si atom -5568.622408 kJ/mol
# Density = 2.206038 g / cm^3
# Si number density = 22.110705 Si / 1000 Ang^3
#
#
#
# Elastic Constant Matrix: (Units=GPa)
#
#
# Indices 1 2 3 4 5 6 
#
# 1 90.4749 34.0405 32.7372 0.0000 -6.7406 0.0000
# 2 34.0405 53.9413 17.7519 0.0000 -17.9378 0.0000
# 3 32.7372 17.7519 134.4174 0.0000 -25.4867 0.0000
# 4 0.0000 0.0000 0.0000 34.9284 0.0000 7.0472
# 5 -6.7406 -17.9378 -25.4867 0.0000 28.0008 0.0000
# 6 0.0000 0.0000 0.0000 7.0472 0.0000 38.9464
#
#
#
# Elastic Compliance Matrix: (Units=1/GPa)
#
#
# Indices 1 2 3 4 5 6 
#
# 1 0.016092 -0.011142 -0.003706 0.000000 -0.006638 0.000000
# 2 -0.011142 0.031283 0.002264 0.000000 0.019419 0.000000
# 3 -0.003706 0.002264 0.009849 0.000000 0.009523 0.000000
# 4 0.000000 0.000000 0.000000 0.029715 0.000000 -0.005377
# 5 -0.006638 0.019419 0.009523 0.000000 0.055223 0.000000
# 6 0.000000 0.000000 0.000000 -0.005377 0.000000 0.026649
#
#
# Mechanical properties :
#
#
# Convention : Reuss Voigt Hill
#
# Bulk Modulus (GPa) = 31.19679 49.76588 40.48134
# Shear Modulus (GPa) = 24.43035 33.32874 28.87954
#
# Velocity S-wave (km/s) = 3.32763 3.88668 3.61797
# Velocity P-wave (km/s) = 5.37625 6.53439 5.98341
#
# Compressibility (1/GPa) = 0.03205458
#
# Stress axis : x y z
#
# Youngs Moduli (GPa) = 62.14449 31.96654 101.53617
#
# Poissons Ratio (x) = 0.35619 0.37630
# Poissons Ratio (y) = 0.69244 -0.22992
# Poissons Ratio (z) = 0.23031 -0.07238
#
# Static dielectric constant tensor:
#      x y z
#    x 1.835790 0.000000 -0.017600 
#    y 0.000000 1.903470 0.000000 
#    z -0.017600 0.000000 1.866990 
# 
# From -- ./inp_files/161322.got.cif
#   From: 2010.05.17/outbox.cif.g08.bks.cpg/sg15_81_cif.got.tgz:161322.got - 2010.06.03 18:47:42.
