data_PCOD9294968
_publ_section_title
;
Structure prediction by ZEFSAII (Michael W. Deem and Ramdas Pophale) SiO2 
 PCOD9294968
Probable space group: C 2/C
;
_chemical_formula_sum "Si O2"
_cell_formula_units_Z 48
_cell_length_a 11.303387
_cell_length_b 14.769603
_cell_length_c 21.439644
_cell_angle_alpha 90.000000
_cell_angle_beta 144.536496
_cell_angle_gamma 90.000000
_cell_volume 2076.638665
_symmetry_space_group_name_H-M "C 2/C"
_symmetry_group_IT_number 15
_symmetry_cell_setting 'monoclinic'
loop_
_space_group_symop_operation_xyz
x,y,z
-x,y,1/2-z
-x,-y,-z
x,-y,1/2+z
1/2+x,1/2+y,z
1/2-x,1/2+y,1/2-z
1/2-x,1/2-y,-z
1/2+x,1/2-y,1/2+z
loop_
_atom_site_type_symbol
_atom_site_label
_atom_site_fract_x
_atom_site_fract_y
_atom_site_fract_z
Si Si1 0.873163 0.919301 0.416257
Si Si2 0.681454 0.341898 0.739938
Si Si3 0.517851 0.466754 0.166154
Si Si4 0.049565 0.588476 0.480973
Si Si5 0.500000 0.324697 0.250000
Si Si6 0.863449 0.768244 0.921756
Si Si7 0.500000 0.187763 0.750000
O O1 0.664791 0.878496 0.353337
O O2 0.842603 0.952541 0.333691
O O3 0.027919 0.836848 0.486774
O O4 0.000000 0.000000 0.500000
O O5 0.527903 0.427034 0.685206
O O6 0.661491 0.309483 0.658722
O O7 0.615462 0.254646 0.751981
O O8 0.895361 0.383178 0.858549
O O9 0.615703 0.396849 0.257280
O O10 0.283838 0.431710 0.059005
O O11 0.027618 0.672312 0.520424
O O12 0.000000 0.500000 0.500000
O O13 0.360970 0.258025 0.151538
#
# Coordination Sequence:
#
# PCOD9294968 Si02
#       7
#     8   8   8   8   4   8   4
#     4  12  27  48  67 108 146 193 243 307 371 437
#     4  12  24  47  75 108 144 199 243 309 366 442
#     4  11  25  45  71 107 150 186 250 302 368 442
#     4  11  25  47  77 111 147 194 250 308 371 448
#     4  10  23  41  72 100 140 186 240 304 362 442
#     4  11  25  44  71 106 142 191 250 296 382 436
#     4  12  27  47  76  98 146 192 254 298 368 438
#
# _framework density 23.114276
#
# number of rings (size 3 to 8) (size 9 to 14) (size 15 to 20)
#    0.000    0.667    3.333    4.500    2.333    5.333 
#    0.000    0.000    0.000    0.000    0.000    0.000 
#    0.000    0.000    0.000    0.000    0.000    0.000 
#
# Total GULP energy -133716.660362 kJ/mol
# GULP energy per Si atom -5571.527515 kJ/mol
# Density = 2.306167 g / cm^3
# Si number density = 23.114276 Si / 1000 Ang^3
#
#
#
# Elastic Constant Matrix: (Units=GPa)
#
#
# Indices 1 2 3 4 5 6 
#
# 1 31.8245 20.7863 9.1852 0.0000 0.8146 0.0000
# 2 20.7863 167.8864 47.6331 0.0000 20.0602 0.0000
# 3 9.1852 47.6331 90.6757 -0.0001 8.0047 0.0000
# 4 0.0000 0.0000 -0.0001 50.4346 0.0000 1.0936
# 5 0.8146 20.0602 8.0047 0.0000 34.4080 0.0000
# 6 0.0000 0.0000 0.0000 1.0936 0.0000 28.4593
#
#
#
# Elastic Compliance Matrix: (Units=1/GPa)
#
#
# Indices 1 2 3 4 5 6 
#
# 1 0.034467 -0.004062 -0.001526 0.000000 0.001907 0.000000
# 2 -0.004062 0.007864 -0.003393 0.000000 -0.003699 0.000000
# 3 -0.001526 -0.003393 0.013056 0.000000 -0.001023 0.000000
# 4 0.000000 0.000000 0.000000 0.019844 0.000000 -0.000763
# 5 0.001907 -0.003699 -0.001023 0.000000 0.031413 0.000000
# 6 0.000000 0.000000 0.000000 -0.000763 0.000000 0.035167
#
#
# Mechanical properties :
#
#
# Convention : Reuss Voigt Hill
#
# Bulk Modulus (GPa) = 26.72052 49.51063 38.11557
# Shear Modulus (GPa) = 29.02790 36.84585 32.93688
#
# Velocity S-wave (km/s) = 3.54763 3.99692 3.77896
# Velocity P-wave (km/s) = 5.32599 6.53964 5.96377
#
# Compressibility (1/GPa) = 0.03742443
#
# Stress axis : x y z
#
# Youngs Moduli (GPa) = 29.01305 127.16036 76.59571
#
# Poissons Ratio (x) = 0.51659 0.11686
# Poissons Ratio (y) = 0.11787 0.25989
# Poissons Ratio (z) = 0.04427 0.43146
#
# Static dielectric constant tensor:
#      x y z
#    x 1.906700 0.000000 0.046890 
#    y 0.000000 1.916960 0.000000 
#    z 0.046890 0.000000 2.025020 
# 
# From -- ./inp_files/239060.got.cif
#   From: 2010.05.17/outbox.cif.g08.bks.cpg/sg15_120_cif.got.tgz:239060.got - 2010.06.03 18:47:42.
