data_PCOD9294107
_publ_section_title
;
Structure prediction by ZEFSAII (Michael W. Deem and Ramdas Pophale) SiO2 
 PCOD9294107
Probable space group: C 2/C
;
_chemical_formula_sum "Si O2"
_cell_formula_units_Z 44
_cell_length_a 16.665634
_cell_length_b 20.183633
_cell_length_c 17.049375
_cell_angle_alpha 90.000000
_cell_angle_beta 155.838976
_cell_angle_gamma 90.000000
_cell_volume 2347.329190
_symmetry_space_group_name_H-M "C 2/C"
_symmetry_group_IT_number 15
_symmetry_cell_setting 'monoclinic'
loop_
_space_group_symop_operation_xyz
x,y,z
-x,y,1/2-z
-x,-y,-z
x,-y,1/2+z
1/2+x,1/2+y,z
1/2-x,1/2+y,1/2-z
1/2-x,1/2-y,-z
1/2+x,1/2-y,1/2+z
loop_
_atom_site_type_symbol
_atom_site_label
_atom_site_fract_x
_atom_site_fract_y
_atom_site_fract_z
Si Si1 0.500000 0.063442 0.250000
Si Si2 0.310864 0.483704 0.631277
Si Si3 0.966107 0.575945 0.499014
Si Si4 0.829821 0.212501 0.647233
Si Si5 0.151976 0.106362 0.723344
Si Si6 0.290318 0.151134 0.194119
O O1 0.657463 0.020538 0.437750
O O2 0.381171 0.108606 0.204539
O O3 0.500000 0.462884 0.750000
O O4 0.179963 0.428570 0.558246
O O5 0.377632 0.536410 0.758619
O O6 0.862039 0.619488 0.339233
O O7 0.000000 0.500000 0.500000
O O8 0.191866 0.599908 0.707673
O O9 0.750000 0.250000 0.500000
O O10 0.740340 0.153821 0.617018
O O11 0.852946 0.273098 0.729556
O O12 0.000000 0.175289 0.750000
O O13 0.945833 0.140961 0.520573
#
# Coordination Sequence:
#
# PCOD9294107 Si02
#       6
#     4   8   8   8   8   8
#     4  12  20  32  54  84 108 152 192 222 276 340
#     4  11  22  37  56  78 110 148 193 238 283 331
#     4  10  23  39  52  80 118 151 190 242 278 339
#     4  12  21  32  52  83 121 155 188 220 264 346
#     4  11  22  35  53  81 117 152 188 228 277 341
#     4  12  22  34  57  82 120 160 185 222 285 336
#
# _framework density 18.744706999999998
#
# number of rings (size 3 to 8) (size 9 to 14) (size 15 to 20)
#    0.000    0.727    8.182    2.727    0.000    4.364 
#    0.000    0.000    0.000    0.000    0.000    1.273 
#    0.000    0.000    0.000    0.000    0.000    0.000 
#
# Total GULP energy -122554.549210 kJ/mol
# GULP energy per Si atom -5570.661328 kJ/mol
# Density = 1.870204 g / cm^3
# Si number density = 18.744707 Si / 1000 Ang^3
#
#
#
# Elastic Constant Matrix: (Units=GPa)
#
#
# Indices 1 2 3 4 5 6 
#
# 1 149.9986 42.7457 37.4193 -0.0006 41.5723 -0.0009
# 2 42.7457 48.3371 12.9687 -0.0007 8.4388 -0.0010
# 3 37.4193 12.9687 70.4070 -0.0015 23.2678 -0.0027
# 4 -0.0006 -0.0007 -0.0015 22.4750 -0.0004 -1.8765
# 5 41.5723 8.4388 23.2678 -0.0004 34.5529 -0.0006
# 6 -0.0009 -0.0010 -0.0027 -1.8765 -0.0006 31.9826
#
#
#
# Elastic Compliance Matrix: (Units=1/GPa)
#
#
# Indices 1 2 3 4 5 6 
#
# 1 0.013041 -0.009020 -0.001045 0.000000 -0.012784 0.000000
# 2 -0.009020 0.028311 -0.002215 0.000001 0.005430 0.000001
# 3 -0.001045 -0.002215 0.018743 0.000001 -0.010824 0.000001
# 4 0.000000 0.000001 0.000001 0.044713 0.000000 0.002623
# 5 -0.012784 0.005430 -0.010824 0.000000 0.050284 0.000000
# 6 0.000000 0.000001 0.000001 0.002623 0.000000 0.031421
#
#
# Mechanical properties :
#
#
# Convention : Reuss Voigt Hill
#
# Bulk Modulus (GPa) = 28.14124 50.55667 39.34895
# Shear Modulus (GPa) = 22.42961 29.50934 25.96948
#
# Velocity S-wave (km/s) = 3.46292 3.97202 3.72617
# Velocity P-wave (km/s) = 5.57087 6.93294 6.28889
#
# Compressibility (1/GPa) = 0.03553503
#
# Stress axis : x y z
#
# Youngs Moduli (GPa) = 76.68177 35.32162 53.35206
#
# Poissons Ratio (x) = 0.31861 0.05573
# Poissons Ratio (y) = 0.69169 0.11819
# Poissons Ratio (z) = 0.08011 0.07825
#
# Static dielectric constant tensor:
#      x y z
#    x 1.586150 0.000000 -0.088950 
#    y 0.000000 1.637230 0.000000 
#    z -0.088950 0.000000 1.595650 
# 
# From -- ./inp_files/156266.got.cif
#   From: 2010.05.17/outbox.cif.g08.bks.cpg/sg15_79_cif.got.tgz:156266.got - 2010.06.03 18:47:42.
