data_PCOD9294082
_publ_section_title
;
Structure prediction by ZEFSAII (Michael W. Deem and Ramdas Pophale) SiO2 
 PCOD9294082
Probable space group: C 2/C
;
_chemical_formula_sum "Si O2"
_cell_formula_units_Z 52
_cell_length_a 15.923745
_cell_length_b 14.139240
_cell_length_c 11.833521
_cell_angle_alpha 90.000000
_cell_angle_beta 111.568251
_cell_angle_gamma 90.000000
_cell_volume 2477.758811
_symmetry_space_group_name_H-M "C 2/C"
_symmetry_group_IT_number 15
_symmetry_cell_setting 'monoclinic'
loop_
_space_group_symop_operation_xyz
x,y,z
-x,y,1/2-z
-x,-y,-z
x,-y,1/2+z
1/2+x,1/2+y,z
1/2-x,1/2+y,1/2-z
1/2-x,1/2-y,-z
1/2+x,1/2-y,1/2+z
loop_
_atom_site_type_symbol
_atom_site_label
_atom_site_fract_x
_atom_site_fract_y
_atom_site_fract_z
Si Si1 0.569590 0.256430 0.188053
Si Si2 0.067605 0.410330 0.513023
Si Si3 0.016878 0.959717 0.382619
Si Si4 0.180430 0.492763 0.227243
Si Si5 0.500000 0.945917 0.250000
Si Si6 0.773290 0.698594 0.862756
Si Si7 0.202468 0.888826 0.547034
O O1 0.500000 0.224800 0.250000
O O2 0.555928 0.183281 0.080256
O O3 0.540957 0.363462 0.147853
O O4 0.673459 0.263018 0.280013
O O5 0.164078 0.452175 0.600923
O O6 0.000000 0.500000 0.500000
O O7 0.046014 0.387589 0.373219
O O8 0.122075 0.934068 0.437343
O O9 0.000000 0.007145 0.250000
O O10 0.000000 0.000000 0.500000
O O11 0.196029 0.382783 0.207733
O O12 0.255507 0.539689 0.342252
O O13 0.085093 0.505026 0.245496
O O14 0.830840 0.794065 0.904486
O O15 0.770739 0.649363 0.984914
#
# Coordination Sequence:
#
# PCOD9294082 Si02
#       7
#     8   8   8   8   4   8   8
#     4  11  22  43  69  98 128 171 227 272 326 395
#     4  10  23  38  66  94 131 166 214 269 329 395
#     4  11  24  45  69  99 136 181 230 277 333 404
#     4  11  23  41  67  94 134 170 217 270 339 393
#     4  10  24  42  60  98 130 172 206 266 340 412
#     4  11  23  40  66 100 126 170 221 279 320 388
#     4  11  23  40  69  99 129 169 227 276 328 384
#
# _framework density 20.986708
#
# number of rings (size 3 to 8) (size 9 to 14) (size 15 to 20)
#    0.000    1.231    4.615    1.846    8.615    0.000 
#    1.385    0.769    0.000    0.000    0.000    0.000 
#    0.000    0.000    0.000    0.000    0.000    0.000 
#
# Total GULP energy -144944.277405 kJ/mol
# GULP energy per Si atom -5574.779900 kJ/mol
# Density = 2.093894 g / cm^3
# Si number density = 20.986708 Si / 1000 Ang^3
#
#
#
# Elastic Constant Matrix: (Units=GPa)
#
#
# Indices 1 2 3 4 5 6 
#
# 1 32.6837 7.7475 18.0001 0.0000 3.3987 0.0000
# 2 7.7475 59.1485 40.1694 0.0000 -17.0689 0.0000
# 3 18.0001 40.1694 183.3647 0.0000 3.2244 0.0000
# 4 0.0000 0.0000 0.0000 44.5673 0.0000 -7.4653
# 5 3.3987 -17.0689 3.2244 0.0000 33.8662 0.0000
# 6 0.0000 0.0000 0.0000 -7.4653 0.0000 19.8766
#
#
#
# Elastic Compliance Matrix: (Units=1/GPa)
#
#
# Indices 1 2 3 4 5 6 
#
# 1 0.033425 -0.004422 -0.002218 0.000000 -0.005372 0.000000
# 2 -0.004422 0.024973 -0.005275 0.000000 0.013533 0.000000
# 3 -0.002218 -0.005275 0.006881 0.000000 -0.003091 0.000000
# 4 0.000000 0.000000 0.000000 0.023944 0.000000 0.008993
# 5 -0.005372 0.013533 -0.003091 0.000000 0.037182 0.000000
# 6 0.000000 0.000000 0.000000 0.008993 0.000000 0.053688
#
#
# Mechanical properties :
#
#
# Convention : Reuss Voigt Hill
#
# Bulk Modulus (GPa) = 24.12563 45.22565 34.67564
# Shear Modulus (GPa) = 22.96321 33.61401 28.28861
#
# Velocity S-wave (km/s) = 3.31143 4.00644 3.67540
# Velocity P-wave (km/s) = 5.11286 6.55733 5.87962
#
# Compressibility (1/GPa) = 0.04144970
#
# Stress axis : x y z
#
# Youngs Moduli (GPa) = 29.91809 40.04281 145.32309
#
# Poissons Ratio (x) = 0.17707 0.32232
# Poissons Ratio (y) = 0.13230 0.76654
# Poissons Ratio (z) = 0.06636 0.21121
#
# Static dielectric constant tensor:
#      x y z
#    x 1.925920 0.000000 -0.065320 
#    y 0.000000 1.777710 0.000000 
#    z -0.065320 0.000000 1.851790 
# 
# From -- ./inp_files/105473.got.cif
#   From: 2010.05.17/outbox.cif.g08.bks.cpg/sg15_53_cif.got.tgz:105473.got - 2010.06.03 18:47:42.
