data_PCOD9294431
_publ_section_title
;
Structure prediction by ZEFSAII (Michael W. Deem and Ramdas Pophale) SiO2 
 PCOD9294431
Probable space group: C 2/C
;
_chemical_formula_sum "Si O2"
_cell_formula_units_Z 60
_cell_length_a 18.804649
_cell_length_b 11.313221
_cell_length_c 28.579731
_cell_angle_alpha 90.000000
_cell_angle_beta 153.030781
_cell_angle_gamma 90.000000
_cell_volume 2757.389970
_symmetry_space_group_name_H-M "C 2/C"
_symmetry_group_IT_number 15
_symmetry_cell_setting 'monoclinic'
loop_
_space_group_symop_operation_xyz
x,y,z
-x,y,1/2-z
-x,-y,-z
x,-y,1/2+z
1/2+x,1/2+y,z
1/2-x,1/2+y,1/2-z
1/2-x,1/2-y,-z
1/2+x,1/2-y,1/2+z
loop_
_atom_site_type_symbol
_atom_site_label
_atom_site_fract_x
_atom_site_fract_y
_atom_site_fract_z
Si Si1 0.957912 0.556203 0.925785
Si Si2 0.278886 0.263301 0.862899
Si Si3 0.418787 0.381917 0.430691
Si Si4 0.772965 0.953481 0.776870
Si Si5 0.842167 0.367764 0.037784
Si Si6 0.500000 0.351493 0.250000
Si Si7 0.480850 0.447908 0.660148
Si Si8 0.917772 0.693103 0.746831
O O1 0.822762 0.650462 0.857268
O O2 0.881679 0.463010 0.845305
O O3 0.100250 0.619448 0.981886
O O4 0.000000 0.500000 0.000000
O O5 0.248438 0.367104 0.806910
O O6 0.145532 0.232587 0.821931
O O7 0.438415 0.292268 0.984588
O O8 0.500000 0.500000 0.500000
O O9 0.338780 0.423307 0.336003
O O10 0.267213 0.326853 0.367161
O O11 0.912799 0.923235 0.823079
O O12 0.999272 0.371328 0.160590
O O13 0.750000 0.250000 0.000000
O O14 0.700880 0.458437 0.961737
O O15 0.499509 0.440098 0.294394
O O16 0.528072 0.329469 0.716676
O O17 0.000000 0.640048 0.750000
#
# Coordination Sequence:
#
# PCOD9294431 Si02
#       8
#     8   8   8   8   8   4   8   8
#     4  12  25  44  73 105 138 191 249 300 368 440
#     4  11  26  45  75 100 150 194 243 305 372 447
#     4  10  25  47  67 103 145 194 241 297 369 442
#     4  11  25  48  69 101 143 194 244 299 368 450
#     4  10  23  40  65 106 137 174 234 298 360 424
#     4  12  24  50  68 114 150 190 244 308 372 448
#     4  11  24  42  71 103 146 181 239 305 361 435
#     4  11  23  40  73 104 139 181 241 304 369 427
#
# _framework density 21.759706999999999
#
# number of rings (size 3 to 8) (size 9 to 14) (size 15 to 20)
#    0.000    1.067    3.333    2.400    9.333    0.000 
#    7.200    0.667    0.000    0.000    0.000    0.000 
#    0.000    0.000    0.000    0.000    0.000    0.000 
#
# Total GULP energy -167200.343151 kJ/mol
# GULP energy per Si atom -5573.344772 kJ/mol
# Density = 2.171018 g / cm^3
# Si number density = 21.759707 Si / 1000 Ang^3
#
#
#
# Elastic Constant Matrix: (Units=GPa)
#
#
# Indices 1 2 3 4 5 6 
#
# 1 117.4074 40.3828 47.8135 -0.0008 17.1154 0.0007
# 2 40.3828 51.8317 51.0413 0.0007 1.2771 -0.0001
# 3 47.8135 51.0413 146.5478 0.0116 14.2584 -0.0074
# 4 -0.0008 0.0007 0.0116 51.5539 -0.0016 -24.5479
# 5 17.1154 1.2771 14.2584 -0.0016 48.0434 0.0014
# 6 0.0007 -0.0001 -0.0074 -24.5479 0.0014 58.8274
#
#
#
# Elastic Compliance Matrix: (Units=1/GPa)
#
#
# Indices 1 2 3 4 5 6 
#
# 1 0.012440 -0.009106 -0.000494 0.000000 -0.004043 0.000000
# 2 -0.009106 0.036285 -0.010182 0.000002 0.005302 -0.000001
# 3 -0.000494 -0.010182 0.010800 -0.000002 -0.002759 0.000001
# 4 0.000000 0.000002 -0.000002 0.024207 0.000001 0.010101
# 5 -0.004043 0.005302 -0.002759 0.000001 0.022933 0.000000
# 6 0.000000 -0.000001 0.000001 0.010101 0.000000 0.021214
#
#
# Mechanical properties :
#
#
# Convention : Reuss Voigt Hill
#
# Bulk Modulus (GPa) = 50.10178 66.02912 58.06545
# Shear Modulus (GPa) = 28.71987 43.45491 36.08739
#
# Velocity S-wave (km/s) = 3.63694 4.47367 4.07683
# Velocity P-wave (km/s) = 6.38055 7.55616 6.99310
#
# Compressibility (1/GPa) = 0.01995937
#
# Stress axis : x y z
#
# Youngs Moduli (GPa) = 80.38595 27.55996 92.59619
#
# Poissons Ratio (x) = 0.25097 0.04571
# Poissons Ratio (y) = 0.73203 0.94284
# Poissons Ratio (z) = 0.03969 0.28062
#
# Static dielectric constant tensor:
#      x y z
#    x 1.891860 0.000000 0.000300 
#    y 0.000000 1.913570 0.000000 
#    z 0.000300 0.000000 1.877370 
# 
# From -- ./inp_files/298966.got.cif
#   From: 2010.05.17/outbox.cif.g08.bks.cpg/sg15_150_cif.got.tgz:298966.got - 2010.06.03 18:47:42.
