data_PCOD9294433
_publ_section_title
;
Structure prediction by ZEFSAII (Michael W. Deem and Ramdas Pophale) SiO2 
 PCOD9294433
Probable space group: C 2/C
;
_chemical_formula_sum "Si O2"
_cell_formula_units_Z 56
_cell_length_a 25.590322
_cell_length_b 12.217982
_cell_length_c 24.438235
_cell_angle_alpha 90.000000
_cell_angle_beta 21.369765
_cell_angle_gamma 90.000000
_cell_volume 2784.236060
_symmetry_space_group_name_H-M "C 2/C"
_symmetry_group_IT_number 15
_symmetry_cell_setting 'monoclinic'
loop_
_space_group_symop_operation_xyz
x,y,z
-x,y,1/2-z
-x,-y,-z
x,-y,1/2+z
1/2+x,1/2+y,z
1/2-x,1/2+y,1/2-z
1/2-x,1/2-y,-z
1/2+x,1/2-y,1/2+z
loop_
_atom_site_type_symbol
_atom_site_label
_atom_site_fract_x
_atom_site_fract_y
_atom_site_fract_z
Si Si1 0.745948 0.246783 0.205679
Si Si2 0.915038 0.033123 0.027359
Si Si3 0.883196 0.314164 0.305097
Si Si4 0.679353 0.148513 0.752992
Si Si5 0.301162 0.520605 0.804070
Si Si6 0.293000 0.110173 0.000011
Si Si7 0.405353 0.896829 0.575710
O O1 0.870130 0.160392 0.070239
O O2 0.761265 0.286125 0.253534
O O3 0.731751 0.353034 0.181641
O O4 0.611521 0.168402 0.350787
O O5 0.768796 0.964129 0.167972
O O6 0.027861 0.007329 0.869447
O O7 0.000000 0.000000 0.000000
O O8 0.804151 0.313490 0.324395
O O9 0.838475 0.195771 0.371229
O O10 0.822529 0.406533 0.406234
O O11 0.052776 0.335638 0.134377
O O12 0.509937 0.158360 0.930018
O O13 0.229125 0.443451 0.827313
O O14 0.242597 0.482775 0.920327
O O15 0.500000 0.000000 0.500000
#
# Coordination Sequence:
#
# PCOD9294433 Si02
#       7
#     8   8   8   8   8   8   8
#     4  12  23  36  62  88 132 167 208 254 320 379
#     4  12  24  40  54  95 130 167 208 253 311 389
#     4  10  23  40  65  93 123 168 206 268 321 383
#     4  12  24  35  62  89 126 161 206 256 313 385
#     4  12  24  39  62  88 127 165 210 260 314 379
#     4  10  23  43  62  93 126 162 216 260 330 376
#     4  12  21  39  55  89 125 163 204 249 316 387
#
# _framework density 20.113237999999999
#
# number of rings (size 3 to 8) (size 9 to 14) (size 15 to 20)
#    0.000    0.571    7.143    1.714    2.000    0.000 
#    0.000    0.000    0.000    0.857    0.000    0.000 
#    0.000    0.000    0.000    0.000    0.000    0.000 
#
# Total GULP energy -155883.133051 kJ/mol
# GULP energy per Si atom -5567.254752 kJ/mol
# Density = 2.006746 g / cm^3
# Si number density = 20.113238 Si / 1000 Ang^3
#
#
#
# Elastic Constant Matrix: (Units=GPa)
#
#
# Indices 1 2 3 4 5 6 
#
# 1 47.3149 -2.5459 15.5154 -0.0016 17.7331 0.0009
# 2 -2.5459 63.8039 32.2997 -0.0041 -1.3414 0.0019
# 3 15.5154 32.2997 126.6672 -0.0029 5.2275 0.0008
# 4 -0.0016 -0.0041 -0.0029 40.6164 0.0014 4.0745
# 5 17.7331 -1.3414 5.2275 0.0014 27.0517 0.0003
# 6 0.0009 0.0019 0.0008 4.0745 0.0003 20.4508
#
#
#
# Elastic Compliance Matrix: (Units=1/GPa)
#
#
# Indices 1 2 3 4 5 6 
#
# 1 0.029316 0.002544 -0.003479 0.000002 -0.018419 -0.000002
# 2 0.002544 0.018304 -0.004987 0.000002 0.000204 -0.000002
# 3 -0.003479 -0.004987 0.009585 0.000000 0.000181 0.000000
# 4 0.000002 0.000002 0.000000 0.025123 -0.000002 -0.005005
# 5 -0.018419 0.000204 0.000181 -0.000002 0.049015 0.000001
# 6 -0.000002 -0.000002 0.000000 -0.005005 0.000001 0.049895
#
#
# Mechanical properties :
#
#
# Convention : Reuss Voigt Hill
#
# Bulk Modulus (GPa) = 22.04631 36.48049 29.26340
# Shear Modulus (GPa) = 24.01496 30.45821 27.23658
#
# Velocity S-wave (km/s) = 3.45916 3.89567 3.68389
# Velocity P-wave (km/s) = 5.19031 6.19773 5.71626
#
# Compressibility (1/GPa) = 0.04535906
#
# Stress axis : x y z
#
# Youngs Moduli (GPa) = 34.11103 54.63412 104.32765
#
# Poissons Ratio (x) = -0.13899 0.36301
# Poissons Ratio (y) = -0.08678 0.52032
# Poissons Ratio (z) = 0.11869 0.27248
#
# Static dielectric constant tensor:
#      x y z
#    x 1.830820 0.000010 -0.051860 
#    y 0.000010 1.635280 0.000000 
#    z -0.051860 0.000000 2.129460 
# 
# From -- ./inp_files/304262.got.cif
#   From: 2010.05.17/outbox.cif.g08.bks.cpg/sg15_153_cif.got.tgz:304262.got - 2010.06.03 18:47:42.
