data_PCOD9294304
_publ_section_title
;
Structure prediction by ZEFSAII (Michael W. Deem and Ramdas Pophale) SiO2 
 PCOD9294304
Probable space group: C 2/C
;
_chemical_formula_sum "Si O2"
_cell_formula_units_Z 36
_cell_length_a 17.907209
_cell_length_b 17.704187
_cell_length_c 5.734070
_cell_angle_alpha 90.000000
_cell_angle_beta 48.132922
_cell_angle_gamma 90.000000
_cell_volume 1353.771638
_symmetry_space_group_name_H-M "C 2/C"
_symmetry_group_IT_number 15
_symmetry_cell_setting 'monoclinic'
loop_
_space_group_symop_operation_xyz
x,y,z
-x,y,1/2-z
-x,-y,-z
x,-y,1/2+z
1/2+x,1/2+y,z
1/2-x,1/2+y,1/2-z
1/2-x,1/2-y,-z
1/2+x,1/2-y,1/2+z
loop_
_atom_site_type_symbol
_atom_site_label
_atom_site_fract_x
_atom_site_fract_y
_atom_site_fract_z
Si Si1 0.615075 0.822184 0.917785
Si Si2 0.350997 0.020706 0.956926
Si Si3 0.628717 0.521706 0.341951
Si Si4 0.000000 0.292732 0.750000
Si Si5 0.598834 0.320381 0.684162
O O1 0.500000 0.823538 0.250000
O O2 0.663660 0.890893 0.949974
O O3 0.655764 0.738055 0.890800
O O4 0.587924 0.836159 0.704902
O O5 0.398073 0.010222 0.601211
O O6 0.239711 0.986659 0.153119
O O7 0.586474 0.521164 0.697414
O O8 0.640493 0.606431 0.220846
O O9 0.061754 0.235851 0.459924
O O10 0.500000 0.347206 0.750000
#
# Coordination Sequence:
#
# PCOD9294304 Si02
#       5
#     8   8   8   4   8
#     4   9  20  36  58  84 112 146 188 233 278 332
#     4  10  23  40  57  82 117 150 186 231 279 331
#     4  10  23  40  57  82 117 150 186 231 279 331
#     4   8  18  36  54  82 112 140 188 242 274 328
#     4   9  20  36  58  84 112 146 188 233 278 332
#
# _framework density 26.592374
#
# number of rings (size 3 to 8) (size 9 to 14) (size 15 to 20)
#    0.000    3.111    0.000    0.000   12.444    2.667 
#    0.000    1.111    0.000    0.000    0.000    0.000 
#    0.000    0.000    0.000    0.000    0.000    0.000 
#
# Total GULP energy -100259.294580 kJ/mol
# GULP energy per Si atom -5569.960810 kJ/mol
# Density = 2.653185 g / cm^3
# Si number density = 26.592374 Si / 1000 Ang^3
#
#
#
# Elastic Constant Matrix: (Units=GPa)
#
#
# Indices 1 2 3 4 5 6 
#
# 1 142.2031 49.5849 54.9089 0.0000 61.9650 0.0000
# 2 49.5849 138.3300 42.9999 0.0000 42.6302 0.0000
# 3 54.9089 42.9999 135.5245 0.0000 51.6933 0.0000
# 4 0.0000 0.0000 0.0000 39.9506 0.0000 23.8657
# 5 61.9650 42.6302 51.6933 0.0000 50.6045 0.0000
# 6 0.0000 0.0000 0.0000 23.8657 0.0000 46.4300
#
#
#
# Elastic Compliance Matrix: (Units=1/GPa)
#
#
# Indices 1 2 3 4 5 6 
#
# 1 0.015289 0.000399 0.001553 0.000000 -0.020644 0.000000
# 2 0.000399 0.009775 0.000105 0.000000 -0.008830 0.000000
# 3 0.001553 0.000105 0.012247 0.000000 -0.014501 0.000000
# 4 0.000000 0.000000 0.000000 0.036123 0.000000 -0.018568
# 5 -0.020644 -0.008830 -0.014501 0.000000 0.067292 0.000000
# 6 0.000000 0.000000 0.000000 -0.018568 0.000000 0.031082
#
#
# Mechanical properties :
#
#
# Convention : Reuss Voigt Hill
#
# Bulk Modulus (GPa) = 24.13976 79.00500 51.57238
# Shear Modulus (GPa) = 27.54796 45.30128 36.42462
#
# Velocity S-wave (km/s) = 3.22209 4.13188 3.70501
# Velocity P-wave (km/s) = 4.78956 7.24827 6.14318
#
# Compressibility (1/GPa) = 0.04142542
#
# Stress axis : x y z
#
# Youngs Moduli (GPa) = 65.40654 102.30492 81.65022
#
# Poissons Ratio (x) = -0.04080 -0.12682
# Poissons Ratio (y) = -0.02608 -0.00859
# Poissons Ratio (z) = -0.10159 -0.01076
#
# Static dielectric constant tensor:
#      x y z
#    x 2.249240 0.000000 0.169820 
#    y 0.000000 2.139210 0.000000 
#    z 0.169820 0.000000 2.366890 
# 
# From -- ./inp_files/9689.got.cif
#   From: 2010.05.17/outbox.cif.g08.bks.cpg/sg15_5_cif.got.tgz:9689.got - 2010.06.03 18:47:42.
