data_PCOD9294706
_publ_section_title
;
Structure prediction by ZEFSAII (Michael W. Deem and Ramdas Pophale) SiO2 
 PCOD9294706
Probable space group: C 2/C
;
_chemical_formula_sum "Si O2"
_cell_formula_units_Z 48
_cell_length_a 12.574613
_cell_length_b 7.504805
_cell_length_c 25.077059
_cell_angle_alpha 90.000000
_cell_angle_beta 68.929685
_cell_angle_gamma 90.000000
_cell_volume 2208.296647
_symmetry_space_group_name_H-M "C 2/C"
_symmetry_group_IT_number 15
_symmetry_cell_setting 'monoclinic'
loop_
_space_group_symop_operation_xyz
x,y,z
-x,y,1/2-z
-x,-y,-z
x,-y,1/2+z
1/2+x,1/2+y,z
1/2-x,1/2+y,1/2-z
1/2-x,1/2-y,-z
1/2+x,1/2-y,1/2+z
loop_
_atom_site_type_symbol
_atom_site_label
_atom_site_fract_x
_atom_site_fract_y
_atom_site_fract_z
Si Si1 0.715751 0.611326 0.322031
Si Si2 0.364060 0.781289 0.056907
Si Si3 0.084217 0.351963 0.068682
Si Si4 0.627720 0.553703 0.732248
Si Si5 0.193402 0.977697 0.020427
Si Si6 0.097800 0.313300 0.188527
O O1 0.655119 0.657484 0.388248
O O2 0.638351 0.539829 0.288046
O O3 0.804390 0.454020 0.316816
O O4 0.781175 0.790650 0.291830
O O5 0.472786 0.896966 0.054402
O O6 0.379033 0.660610 0.001476
O O7 0.250447 0.891963 0.062653
O O8 0.194623 0.470204 0.034857
O O9 0.057300 0.352319 0.136006
O O10 0.122866 0.152822 0.045753
O O11 0.500000 0.628259 0.750000
O O12 0.640738 0.389862 0.688494
O O13 0.000000 0.336936 0.250000
#
# Coordination Sequence:
#
# PCOD9294706 Si02
#       6
#     8   8   8   8   8   8
#     4  12  23  42  66  94 131 169 214 267 323 382
#     4  11  22  40  65  93 125 165 209 267 315 376
#     4  11  22  42  65  92 128 169 207 264 323 373
#     4  11  24  42  63  92 129 170 216 262 320 390
#     4  10  23  41  64  95 126 162 219 258 318 381
#     4  11  23  43  67  96 131 172 215 265 325 389
#
# _framework density 21.736208999999999
#
# number of rings (size 3 to 8) (size 9 to 14) (size 15 to 20)
#    0.000    1.000    3.333    4.500    0.000    0.000 
#    0.000    0.000    0.000    0.000    0.000    0.000 
#    0.000    0.000    0.000    0.000    0.000    0.000 
#
# Total GULP energy -134215.025710 kJ/mol
# GULP energy per Si atom -5592.292738 kJ/mol
# Density = 2.168674 g / cm^3
# Si number density = 21.736209 Si / 1000 Ang^3
#
#
#
# Elastic Constant Matrix: (Units=GPa)
#
#
# Indices 1 2 3 4 5 6 
#
# 1 98.1599 -2.9030 41.0865 0.0000 30.1304 0.0000
# 2 -2.9030 35.2366 3.9306 0.0000 1.6903 0.0000
# 3 41.0865 3.9306 107.1445 0.0000 17.6080 0.0000
# 4 0.0000 0.0000 0.0000 27.6019 0.0000 3.5653
# 5 30.1304 1.6903 17.6080 0.0000 39.4954 0.0000
# 6 0.0000 0.0000 0.0000 3.5653 0.0000 36.2505
#
#
#
# Elastic Compliance Matrix: (Units=1/GPa)
#
#
# Indices 1 2 3 4 5 6 
#
# 1 0.014984 0.002170 -0.004243 0.000000 -0.009633 0.000000
# 2 0.002170 0.028835 -0.001527 0.000000 -0.002209 0.000000
# 3 -0.004243 -0.001527 0.011301 0.000000 -0.001737 0.000000
# 4 0.000000 0.000000 0.000000 0.036696 0.000000 -0.003609
# 5 -0.009633 -0.002209 -0.001737 0.000000 0.033537 0.000000
# 6 0.000000 0.000000 0.000000 -0.003609 0.000000 0.027941
#
#
# Mechanical properties :
#
#
# Convention : Reuss Voigt Hill
#
# Bulk Modulus (GPa) = 20.86768 36.08546 28.47657
# Shear Modulus (GPa) = 28.33403 33.89802 31.11602
#
# Velocity S-wave (km/s) = 3.61437 3.95336 3.78766
# Velocity P-wave (km/s) = 5.19996 6.12179 5.67961
#
# Compressibility (1/GPa) = 0.04792099
#
# Stress axis : x y z
#
# Youngs Moduli (GPa) = 66.73705 34.68054 88.48417
#
# Poissons Ratio (x) = -0.07525 0.37540
# Poissons Ratio (y) = -0.14480 0.13510
# Poissons Ratio (z) = 0.28313 0.05295
#
# Static dielectric constant tensor:
#      x y z
#    x 2.031150 0.000000 0.074900 
#    y 0.000000 1.781340 0.000000 
#    z 0.074900 0.000000 1.798370 
# 
# From -- ./inp_files/267661.got.cif
#   From: 2010.05.17/outbox.cif.g08.bks.cpg/sg15_134_cif.got.tgz:267661.got - 2010.06.03 18:47:42.
