data_PCOD9294147
_publ_section_title
;
Structure prediction by ZEFSAII (Michael W. Deem and Ramdas Pophale) SiO2 
 PCOD9294147
Probable space group: C 2/C
;
_chemical_formula_sum "Si O2"
_cell_formula_units_Z 56
_cell_length_a 12.500823
_cell_length_b 26.597570
_cell_length_c 9.875942
_cell_angle_alpha 90.000000
_cell_angle_beta 114.838752
_cell_angle_gamma 90.000000
_cell_volume 2979.906627
_symmetry_space_group_name_H-M "C 2/C"
_symmetry_group_IT_number 15
_symmetry_cell_setting 'monoclinic'
loop_
_space_group_symop_operation_xyz
x,y,z
-x,y,1/2-z
-x,-y,-z
x,-y,1/2+z
1/2+x,1/2+y,z
1/2-x,1/2+y,1/2-z
1/2-x,1/2-y,-z
1/2+x,1/2-y,1/2+z
loop_
_atom_site_type_symbol
_atom_site_label
_atom_site_fract_x
_atom_site_fract_y
_atom_site_fract_z
Si Si1 0.386671 0.846946 0.288608
Si Si2 0.752137 0.583483 0.518126
Si Si3 0.206462 0.133452 0.224344
Si Si4 0.609242 0.876255 0.899804
Si Si5 0.081523 0.494482 0.913148
Si Si6 0.504508 0.548167 0.100079
Si Si7 0.352142 0.741237 0.177349
O O1 0.500000 0.846849 0.250000
O O2 0.407518 0.859297 0.455572
O O3 0.330270 0.791728 0.250772
O O4 0.306850 0.888739 0.174993
O O5 0.780441 0.611541 0.391777
O O6 0.802794 0.527984 0.523888
O O7 0.614119 0.580656 0.472129
O O8 0.276488 0.140735 0.122532
O O9 0.168610 0.187655 0.262296
O O10 0.110073 0.089049 0.147370
O O11 0.500000 0.859679 0.750000
O O12 0.611273 0.936859 0.902639
O O13 0.000000 0.514712 0.750000
O O14 0.000000 0.500000 0.000000
O O15 0.500000 0.527133 0.250000
O O16 0.500000 0.500000 0.000000
O O17 0.500000 0.741313 0.250000
O O18 0.250000 0.750000 0.000000
#
# Coordination Sequence:
#
# PCOD9294147 Si02
#       7
#     8   8   8   8   8   8   8
#     4  11  23  40  66  96 121 168 224 273 336 416
#     4  11  20  37  63  86 124 169 226 267 328 411
#     4  11  23  42  63  92 132 171 223 286 343 408
#     4  11  24  39  61  94 136 168 211 278 349 404
#     4  11  21  34  55  88 127 166 209 268 330 396
#     4  10  23  39  61  90 128 179 224 275 339 414
#     4  11  24  44  76 102 130 178 235 288 350 417
#
# _framework density 18.792534
#
# number of rings (size 3 to 8) (size 9 to 14) (size 15 to 20)
#    0.000    1.143    1.429    6.857    2.000    5.143 
#    0.000    0.000    0.000    0.000    0.000    0.000 
#    0.000    0.000    0.000    0.000    0.000    0.000 
#
# Total GULP energy -155888.933612 kJ/mol
# GULP energy per Si atom -5567.461915 kJ/mol
# Density = 1.874976 g / cm^3
# Si number density = 18.792534 Si / 1000 Ang^3
#
#
#
# Elastic Constant Matrix: (Units=GPa)
#
#
# Indices 1 2 3 4 5 6 
#
# 1 83.2928 24.6969 59.4689 0.0000 -8.8672 0.0000
# 2 24.6969 92.8844 44.8095 0.0000 -2.1293 0.0000
# 3 59.4689 44.8095 152.7787 0.0000 -11.8226 0.0000
# 4 0.0000 0.0000 0.0000 27.8920 0.0000 -2.3563
# 5 -8.8672 -2.1293 -11.8226 0.0000 27.1304 0.0000
# 6 0.0000 0.0000 0.0000 -2.3563 0.0000 16.0628
#
#
#
# Elastic Compliance Matrix: (Units=1/GPa)
#
#
# Indices 1 2 3 4 5 6 
#
# 1 0.017021 -0.001596 -0.005937 0.000000 0.002851 0.000000
# 2 -0.001596 0.012701 -0.003174 0.000000 -0.000908 0.000000
# 3 -0.005937 -0.003174 0.009953 0.000000 0.002148 0.000000
# 4 0.000000 0.000000 0.000000 0.036303 0.000000 0.005325
# 5 0.002851 -0.000908 0.002148 0.000000 0.038656 0.000000
# 6 0.000000 0.000000 0.000000 0.005325 0.000000 0.063037
#
#
# Mechanical properties :
#
#
# Convention : Reuss Voigt Hill
#
# Bulk Modulus (GPa) = 54.76028 65.21185 59.98606
# Shear Modulus (GPa) = 24.36981 27.54907 25.95944
#
# Velocity S-wave (km/s) = 3.60499 3.83294 3.72071
# Velocity P-wave (km/s) = 6.82133 7.37325 7.10265
#
# Compressibility (1/GPa) = 0.01826141
#
# Stress axis : x y z
#
# Youngs Moduli (GPa) = 58.74978 78.73430 100.46804
#
# Poissons Ratio (x) = 0.12569 0.59645
# Poissons Ratio (y) = 0.09379 0.31889
# Poissons Ratio (z) = 0.34878 0.24990
#
# Static dielectric constant tensor:
#      x y z
#    x 1.718610 0.000000 0.055950 
#    y 0.000000 1.647610 0.000000 
#    z 0.055950 0.000000 1.689860 
# 
# From -- ./inp_files/34344.got.cif
#   From: 2010.05.17/outbox.cif.g08.bks.cpg/sg15_18_cif.got.tgz:34344.got - 2010.06.03 18:47:42.
