data_PCOD9294277
_publ_section_title
;
Structure prediction by ZEFSAII (Michael W. Deem and Ramdas Pophale) SiO2 
 PCOD9294277
Probable space group: C 2/C
;
_chemical_formula_sum "Si O2"
_cell_formula_units_Z 56
_cell_length_a 9.464664
_cell_length_b 15.144373
_cell_length_c 23.470267
_cell_angle_alpha 90.000000
_cell_angle_beta 128.349622
_cell_angle_gamma 90.000000
_cell_volume 2638.293661
_symmetry_space_group_name_H-M "C 2/C"
_symmetry_group_IT_number 15
_symmetry_cell_setting 'monoclinic'
loop_
_space_group_symop_operation_xyz
x,y,z
-x,y,1/2-z
-x,-y,-z
x,-y,1/2+z
1/2+x,1/2+y,z
1/2-x,1/2+y,1/2-z
1/2-x,1/2-y,-z
1/2+x,1/2-y,1/2+z
loop_
_atom_site_type_symbol
_atom_site_label
_atom_site_fract_x
_atom_site_fract_y
_atom_site_fract_z
Si Si1 0.815419 0.924955 0.986001
Si Si2 0.821702 0.453640 0.432260
Si Si3 0.690160 0.694180 0.819181
Si Si4 0.470428 0.124402 0.176485
Si Si5 0.309543 0.613905 0.175718
Si Si6 0.863959 0.869526 0.496138
Si Si7 0.057668 0.253749 0.375880
O O1 0.677397 0.925735 0.898718
O O2 0.866917 0.026899 0.010598
O O3 0.739683 0.899013 0.027696
O O4 0.979861 0.862350 0.011297
O O5 0.805972 0.378879 0.380689
O O6 0.726230 0.538089 0.379926
O O7 0.000000 0.500000 0.500000
O O8 0.500000 0.654327 0.750000
O O9 0.614442 0.777490 0.836295
O O10 0.843344 0.731126 0.814070
O O11 0.500000 0.093782 0.250000
O O12 0.651386 0.119690 0.183442
O O13 0.500000 0.590236 0.250000
O O14 0.343922 0.706210 0.151866
O O15 0.917912 0.811854 0.563996
O O16 0.674444 0.838573 0.423382
#
# Coordination Sequence:
#
# PCOD9294277 Si02
#       7
#     8   8   8   8   8   8   8
#     4  11  22  42  68 102 137 178 229 283 347 404
#     4  12  25  43  70 106 135 177 235 286 343 409
#     4  11  25  46  70  98 146 182 225 283 349 412
#     4  11  25  44  70  97 139 186 230 280 351 416
#     4  12  26  43  70 100 140 181 231 281 344 412
#     4  10  23  39  69 100 140 173 223 291 337 404
#     4  11  23  44  68  99 134 181 229 279 342 407
#
# _framework density 21.225840999999999
#
# number of rings (size 3 to 8) (size 9 to 14) (size 15 to 20)
#    0.000    0.857    4.286    3.000    4.000    0.571 
#    0.000    0.714    0.000    0.000    0.000    0.000 
#    0.000    0.000    0.000    0.000    0.000    0.000 
#
# Total GULP energy -156062.572367 kJ/mol
# GULP energy per Si atom -5573.663299 kJ/mol
# Density = 2.117753 g / cm^3
# Si number density = 21.225841 Si / 1000 Ang^3
#
#
#
# Elastic Constant Matrix: (Units=GPa)
#
#
# Indices 1 2 3 4 5 6 
#
# 1 161.2442 10.1285 51.9645 0.0000 7.1657 0.0000
# 2 10.1285 36.5611 12.9097 0.0000 -0.9857 0.0000
# 3 51.9645 12.9097 101.1604 0.0000 12.0325 0.0000
# 4 0.0000 0.0000 0.0000 33.0235 0.0000 -1.9409
# 5 7.1657 -0.9857 12.0325 0.0000 37.6245 0.0000
# 6 0.0000 0.0000 0.0000 -1.9409 0.0000 16.6037
#
#
#
# Elastic Compliance Matrix: (Units=1/GPa)
#
#
# Indices 1 2 3 4 5 6 
#
# 1 0.007454 -0.000765 -0.003701 0.000000 -0.000256 0.000000
# 2 -0.000765 0.028865 -0.003532 0.000000 0.002032 0.000000
# 3 -0.003701 -0.003532 0.012645 0.000000 -0.003432 0.000000
# 4 0.000000 0.000000 0.000000 0.030491 0.000000 0.003564
# 5 -0.000256 0.002032 -0.003432 0.000000 0.027778 0.000000
# 6 0.000000 0.000000 0.000000 0.003564 0.000000 0.060644
#
#
# Mechanical properties :
#
#
# Convention : Reuss Voigt Hill
#
# Bulk Modulus (GPa) = 30.33231 49.88567 40.10899
# Shear Modulus (GPa) = 25.65895 32.38119 29.02007
#
# Velocity S-wave (km/s) = 3.48063 3.91007 3.70158
# Velocity P-wave (km/s) = 5.52036 6.62859 6.09970
#
# Compressibility (1/GPa) = 0.03296814
#
# Stress axis : x y z
#
# Youngs Moduli (GPa) = 134.15805 34.64348 79.08050
#
# Poissons Ratio (x) = 0.02650 0.29267
# Poissons Ratio (y) = 0.10264 0.27934
# Poissons Ratio (z) = 0.49650 0.12237
#
# Static dielectric constant tensor:
#      x y z
#    x 2.566790 0.000000 0.016800 
#    y 0.000000 1.823800 0.000000 
#    z 0.016800 0.000000 1.669880 
# 
# From -- ./inp_files/264829.got.cif
#   From: 2010.05.17/outbox.cif.g08.bks.cpg/sg15_133_cif.got.tgz:264829.got - 2010.06.03 18:47:42.
