data_PCOD9294906
_publ_section_title
;
Structure prediction by ZEFSAII (Michael W. Deem and Ramdas Pophale) SiO2 
 PCOD9294906
Probable space group: C 2/C
;
_chemical_formula_sum "Si O2"
_cell_formula_units_Z 56
_cell_length_a 21.466153
_cell_length_b 9.139602
_cell_length_c 16.357324
_cell_angle_alpha 90.000000
_cell_angle_beta 137.594722
_cell_angle_gamma 90.000000
_cell_volume 2164.174456
_symmetry_space_group_name_H-M "C 2/C"
_symmetry_group_IT_number 15
_symmetry_cell_setting 'monoclinic'
loop_
_space_group_symop_operation_xyz
x,y,z
-x,y,1/2-z
-x,-y,-z
x,-y,1/2+z
1/2+x,1/2+y,z
1/2-x,1/2+y,1/2-z
1/2-x,1/2-y,-z
1/2+x,1/2-y,1/2+z
loop_
_atom_site_type_symbol
_atom_site_label
_atom_site_fract_x
_atom_site_fract_y
_atom_site_fract_z
Si Si1 0.486256 0.657483 0.910203
Si Si2 0.500000 0.189344 0.750000
Si Si3 0.309535 0.645585 0.499998
Si Si4 0.500000 0.685028 0.750000
Si Si5 0.206355 0.417677 0.632444
Si Si6 0.703110 0.907722 0.452657
Si Si7 0.849676 0.719981 0.861624
Si Si8 0.047560 0.178901 0.469309
O O1 0.483463 0.750774 0.825264
O O2 0.530155 0.499090 0.942425
O O3 0.539191 0.737588 0.043068
O O4 0.396810 0.643032 0.877022
O O5 0.406312 0.094590 0.663193
O O6 0.502363 0.282644 0.669145
O O7 0.250000 0.750000 0.500000
O O8 0.402834 0.608276 0.639927
O O9 0.251108 0.500916 0.428644
O O10 0.336530 0.721677 0.441281
O O11 0.229959 0.479477 0.565564
O O12 0.170461 0.548937 0.655447
O O13 0.289936 0.320618 0.746378
O O14 0.122736 0.309241 0.530736
O O15 0.750000 0.750000 0.500000
#
# Coordination Sequence:
#
# PCOD9294906 Si02
#       8
#     8   4   8   4   8   8   8   8
#     4  10  23  41  68  99 137 191 235 296 365 427
#     4  10  25  45  68 110 149 183 246 302 357 451
#     4  11  25  47  69 106 139 191 240 299 368 425
#     4  10  25  41  72 102 145 183 248 290 351 447
#     4  11  25  44  65 102 139 183 239 300 359 441
#     4  11  27  44  75 103 143 190 240 298 369 433
#     4  11  25  43  68  99 142 180 242 297 359 441
#     4  10  23  42  67  99 139 187 238 294 368 428
#
# _framework density 25.875917999999999
#
# number of rings (size 3 to 8) (size 9 to 14) (size 15 to 20)
#    0.000    1.429    1.429    1.286   16.000    2.286 
#    2.571    0.000    0.000    0.000    0.000    0.000 
#    0.000    0.000    0.000    0.000    0.000    0.000 
#
# Total GULP energy -155883.452823 kJ/mol
# GULP energy per Si atom -5567.266172 kJ/mol
# Density = 2.581702 g / cm^3
# Si number density = 25.875918 Si / 1000 Ang^3
#
#
#
# Elastic Constant Matrix: (Units=GPa)
#
#
# Indices 1 2 3 4 5 6 
#
# 1 128.4913 13.6471 50.0426 0.0000 -11.0929 0.0000
# 2 13.6471 73.2071 17.2982 0.0000 8.5552 0.0000
# 3 50.0426 17.2982 142.0520 0.0000 -14.5537 0.0000
# 4 0.0000 0.0000 0.0000 19.2501 0.0000 -5.4344
# 5 -11.0929 8.5552 -14.5537 0.0000 66.0839 0.0000
# 6 0.0000 0.0000 0.0000 -5.4344 0.0000 40.1553
#
#
#
# Elastic Compliance Matrix: (Units=1/GPa)
#
#
# Indices 1 2 3 4 5 6 
#
# 1 0.009152 -0.001121 -0.002983 0.000000 0.001024 0.000000
# 2 -0.001121 0.014536 -0.001624 0.000000 -0.002428 0.000000
# 3 -0.002983 -0.001624 0.008449 0.000000 0.001570 0.000000
# 4 0.000000 0.000000 0.000000 0.054011 0.000000 0.007310
# 5 0.001024 -0.002428 0.001570 0.000000 0.015964 0.000000
# 6 0.000000 0.000000 0.000000 0.007310 0.000000 0.025893
#
#
# Mechanical properties :
#
#
# Convention : Reuss Voigt Hill
#
# Bulk Modulus (GPa) = 48.35117 56.19180 52.27149
# Shear Modulus (GPa) = 34.16369 42.61537 38.38953
#
# Velocity S-wave (km/s) = 3.63752 4.06262 3.85593
# Velocity P-wave (km/s) = 6.03062 6.61585 6.33001
#
# Compressibility (1/GPa) = 0.02068202
#
# Stress axis : x y z
#
# Youngs Moduli (GPa) = 109.26909 68.79341 118.35709
#
# Poissons Ratio (x) = 0.07712 0.35300
# Poissons Ratio (y) = 0.12249 0.19221
# Poissons Ratio (z) = 0.32590 0.11172
#
# Static dielectric constant tensor:
#      x y z
#    x 2.339570 0.000000 0.039830 
#    y 0.000000 1.902400 0.000000 
#    z 0.039830 0.000000 2.470110 
# 
# From -- ./inp_files/222121.got.cif
#   From: 2010.05.17/outbox.cif.g08.bks.cpg/sg15_112_cif.got.tgz:222121.got - 2010.06.03 18:47:42.
