data_PCOD9294857
_publ_section_title
;
Structure prediction by ZEFSAII (Michael W. Deem and Ramdas Pophale) SiO2 
 PCOD9294857
Probable space group: C 2/C
;
_chemical_formula_sum "Si O2"
_cell_formula_units_Z 48
_cell_length_a 11.817742
_cell_length_b 12.487423
_cell_length_c 30.247196
_cell_angle_alpha 90.000000
_cell_angle_beta 152.188124
_cell_angle_gamma 90.000000
_cell_volume 2082.616200
_symmetry_space_group_name_H-M "C 2/C"
_symmetry_group_IT_number 15
_symmetry_cell_setting 'monoclinic'
loop_
_space_group_symop_operation_xyz
x,y,z
-x,y,1/2-z
-x,-y,-z
x,-y,1/2+z
1/2+x,1/2+y,z
1/2-x,1/2+y,1/2-z
1/2-x,1/2-y,-z
1/2+x,1/2-y,1/2+z
loop_
_atom_site_type_symbol
_atom_site_label
_atom_site_fract_x
_atom_site_fract_y
_atom_site_fract_z
Si Si1 0.809437 0.450151 0.967467
Si Si2 0.270925 0.504643 0.789442
Si Si3 0.841958 0.532277 0.580266
Si Si4 0.978042 0.228839 0.002071
Si Si5 0.973584 0.683740 0.162823
Si Si6 0.778638 0.213359 0.837978
O O1 0.540556 0.492086 0.865154
O O2 0.816988 0.322519 0.967314
O O3 0.877033 0.478485 0.040676
O O4 0.000000 0.500000 0.000000
O O5 0.277232 0.583589 0.833172
O O6 0.089628 0.561219 0.691902
O O7 0.159852 0.385415 0.756758
O O8 0.637443 0.618102 0.520708
O O9 0.804146 0.412252 0.584646
O O10 0.935709 0.243095 0.934770
O O11 0.260460 0.251283 0.111300
O O12 0.110480 0.739210 0.169109
O O13 0.500000 0.247758 0.750000
#
# Coordination Sequence:
#
# PCOD9294857 Si02
#       6
#     8   8   8   8   8   8
#     4  12  25  45  70 100 139 183 230 295 352 411
#     4  10  25  41  67  99 136 177 231 283 350 413
#     4  10  24  43  66  96 140 176 228 287 344 416
#     4  12  23  43  69 101 134 184 230 285 354 417
#     4  10  23  41  67  99 133 175 232 283 337 417
#     4  12  21  41  69  98 133 179 234 285 344 417
#
# _framework density 23.047933
#
# number of rings (size 3 to 8) (size 9 to 14) (size 15 to 20)
#    1.000    0.000    1.667    5.500    0.000    2.000 
#    0.000    0.000    0.000    0.000    0.000    0.000 
#    0.000    0.000    0.000    0.000    0.000    0.000 
#
# Total GULP energy -134059.137595 kJ/mol
# GULP energy per Si atom -5585.797400 kJ/mol
# Density = 2.299547 g / cm^3
# Si number density = 23.047933 Si / 1000 Ang^3
#
#
#
# Elastic Constant Matrix: (Units=GPa)
#
#
# Indices 1 2 3 4 5 6 
#
# 1 82.8700 1.9148 26.6387 0.0002 26.3867 -0.0001
# 2 1.9148 48.2385 -10.8985 0.0001 11.5827 -0.0001
# 3 26.6387 -10.8985 84.8759 0.0008 28.8291 -0.0003
# 4 0.0002 0.0001 0.0008 18.2366 0.0001 7.5052
# 5 26.3867 11.5827 28.8291 0.0001 44.1944 0.0000
# 6 -0.0001 -0.0001 -0.0003 7.5052 0.0000 38.1972
#
#
#
# Elastic Compliance Matrix: (Units=1/GPa)
#
#
# Indices 1 2 3 4 5 6 
#
# 1 0.015237 0.000901 -0.001922 0.000000 -0.008079 0.000000
# 2 0.000901 0.025023 0.006861 0.000000 -0.011572 0.000000
# 3 -0.001922 0.006861 0.017326 -0.000001 -0.011953 0.000000
# 4 0.000000 0.000000 -0.000001 0.059659 0.000001 -0.011722
# 5 -0.008079 -0.011572 -0.011953 0.000001 0.038281 0.000000
# 6 0.000000 0.000000 0.000000 -0.011722 0.000000 0.028483
#
#
# Mechanical properties :
#
#
# Convention : Reuss Voigt Hill
#
# Bulk Modulus (GPa) = 14.43733 27.92160 21.17947
# Shear Modulus (GPa) = 25.58615 33.34761 29.46688
#
# Velocity S-wave (km/s) = 3.33547 3.80792 3.57950
# Velocity P-wave (km/s) = 4.59472 5.61021 5.12767
#
# Compressibility (1/GPa) = 0.06926489
#
# Stress axis : x y z
#
# Youngs Moduli (GPa) = 65.63077 39.96304 57.71665
#
# Poissons Ratio (x) = -0.03600 0.11094
# Poissons Ratio (y) = -0.05913 -0.39598
# Poissons Ratio (z) = 0.12615 -0.27418
#
# Static dielectric constant tensor:
#      x y z
#    x 1.832150 0.000000 0.031760 
#    y 0.000000 1.941820 0.000000 
#    z 0.031760 0.000000 1.925430 
# 
# From -- ./inp_files/311254.got.cif
#   From: 2010.05.17/outbox.cif.g08.bks.cpg/sg15_156_cif.got.tgz:311254.got - 2010.06.03 18:47:42.
