data_PCOD9294240
_publ_section_title
;
Structure prediction by ZEFSAII (Michael W. Deem and Ramdas Pophale) SiO2 
 PCOD9294240
Probable space group: C 2/C
;
_chemical_formula_sum "Si O2"
_cell_formula_units_Z 48
_cell_length_a 13.911577
_cell_length_b 6.904836
_cell_length_c 23.538010
_cell_angle_alpha 90.000000
_cell_angle_beta 94.183807
_cell_angle_gamma 90.000000
_cell_volume 2254.969096
_symmetry_space_group_name_H-M "C 2/C"
_symmetry_group_IT_number 15
_symmetry_cell_setting 'monoclinic'
loop_
_space_group_symop_operation_xyz
x,y,z
-x,y,1/2-z
-x,-y,-z
x,-y,1/2+z
1/2+x,1/2+y,z
1/2-x,1/2+y,1/2-z
1/2-x,1/2-y,-z
1/2+x,1/2-y,1/2+z
loop_
_atom_site_type_symbol
_atom_site_label
_atom_site_fract_x
_atom_site_fract_y
_atom_site_fract_z
Si Si1 0.139775 0.156263 0.231598
Si Si2 0.356686 0.730706 0.706575
Si Si3 0.949768 0.620661 0.678363
Si Si4 0.819506 0.897990 0.079730
Si Si5 0.876060 0.363437 0.476990
Si Si6 0.072098 0.721447 0.949377
O O1 0.246422 0.194126 0.212087
O O2 0.130698 0.249495 0.293884
O O3 0.052316 0.270322 0.195388
O O4 0.122194 0.928361 0.243463
O O5 0.359141 0.635989 0.643997
O O6 0.429268 0.910555 0.704143
O O7 0.930778 0.611484 0.610871
O O8 0.704408 0.888809 0.074045
O O9 0.859162 0.097421 0.055665
O O10 0.844547 0.734995 0.034432
O O11 0.902619 0.580222 0.497727
O O12 0.961143 0.230470 0.456829
#
# Coordination Sequence:
#
# PCOD9294240 Si02
#       6
#     8   8   8   8   8   8
#     4  11  25  43  69  97 131 177 225 275 332 395
#     4  12  23  46  70  96 139 175 223 283 332 398
#     4  11  24  43  68  99 132 176 223 270 339 395
#     4  11  22  40  67  94 128 173 214 267 332 389
#     4  10  23  39  65  96 130 166 218 268 320 399
#     4  11  21  42  65  94 132 168 215 269 326 390
#
# _framework density 21.286322999999999
#
# number of rings (size 3 to 8) (size 9 to 14) (size 15 to 20)
#    0.000    1.000    5.000    2.000    0.000    2.667 
#    0.000    0.000    0.000    0.000    0.000    0.000 
#    0.000    0.000    0.000    0.000    0.000    0.000 
#
# Total GULP energy -133810.740805 kJ/mol
# GULP energy per Si atom -5575.447534 kJ/mol
# Density = 2.123787 g / cm^3
# Si number density = 21.286323 Si / 1000 Ang^3
#
#
#
# Elastic Constant Matrix: (Units=GPa)
#
#
# Indices 1 2 3 4 5 6 
#
# 1 85.2716 27.5102 -2.2196 0.0000 14.1385 0.0000
# 2 27.5102 105.5644 -2.4725 0.0000 23.1797 0.0000
# 3 -2.2196 -2.4725 40.8021 0.0000 -1.9405 0.0000
# 4 0.0000 0.0000 0.0000 93.0490 0.0000 -27.7791
# 5 14.1385 23.1797 -1.9405 0.0000 24.2008 0.0000
# 6 0.0000 0.0000 0.0000 -27.7791 0.0000 35.7631
#
#
#
# Elastic Compliance Matrix: (Units=1/GPa)
#
#
# Indices 1 2 3 4 5 6 
#
# 1 0.013396 -0.002242 0.000324 0.000000 -0.005653 0.000000
# 2 -0.002242 0.012372 0.000127 0.000000 -0.010530 0.000000
# 3 0.000324 0.000127 0.024613 0.000000 0.001663 0.000000
# 4 0.000000 0.000000 0.000000 0.013992 0.000000 0.010868
# 5 -0.005653 -0.010530 0.001663 0.000000 0.054843 0.000000
# 6 0.000000 0.000000 0.000000 0.010868 0.000000 0.036404
#
#
# Mechanical properties :
#
#
# Convention : Reuss Voigt Hill
#
# Bulk Modulus (GPa) = 21.36796 30.80826 26.08811
# Shear Modulus (GPa) = 28.60384 44.52391 36.56388
#
# Velocity S-wave (km/s) = 3.66972 4.57844 4.14903
# Velocity P-wave (km/s) = 5.29301 6.51568 5.93591
#
# Compressibility (1/GPa) = 0.04679903
#
# Stress axis : x y z
#
# Youngs Moduli (GPa) = 74.64739 80.82487 40.62904
#
# Poissons Ratio (x) = 0.18123 -0.01317
# Poissons Ratio (y) = 0.16738 -0.00516
# Poissons Ratio (z) = -0.02419 -0.01026
#
# Static dielectric constant tensor:
#      x y z
#    x 1.820800 0.000000 0.008710 
#    y 0.000000 1.808330 0.000000 
#    z 0.008710 0.000000 1.752450 
# 
# From -- ./inp_files/294409.got.cif
#   From: 2010.05.17/outbox.cif.g08.bks.cpg/sg15_148_cif.got.tgz:294409.got - 2010.06.03 18:47:42.
