data_PCOD9294349
_publ_section_title
;
Structure prediction by ZEFSAII (Michael W. Deem and Ramdas Pophale) SiO2 
 PCOD9294349
Probable space group: C 2/C
;
_chemical_formula_sum "Si O2"
_cell_formula_units_Z 56
_cell_length_a 25.312102
_cell_length_b 18.160559
_cell_length_c 16.797991
_cell_angle_alpha 90.000000
_cell_angle_beta 158.281635
_cell_angle_gamma 90.000000
_cell_volume 2857.385156
_symmetry_space_group_name_H-M "C 2/C"
_symmetry_group_IT_number 15
_symmetry_cell_setting 'monoclinic'
loop_
_space_group_symop_operation_xyz
x,y,z
-x,y,1/2-z
-x,-y,-z
x,-y,1/2+z
1/2+x,1/2+y,z
1/2-x,1/2+y,1/2-z
1/2-x,1/2-y,-z
1/2+x,1/2-y,1/2+z
loop_
_atom_site_type_symbol
_atom_site_label
_atom_site_fract_x
_atom_site_fract_y
_atom_site_fract_z
Si Si1 0.158373 0.322201 0.343382
Si Si2 0.204202 0.945505 0.860073
Si Si3 0.372096 0.978821 0.876703
Si Si4 0.764610 0.681485 0.729432
Si Si5 0.570590 0.559626 0.432326
Si Si6 0.167616 0.341349 0.597968
Si Si7 0.871609 0.573871 0.018446
O O1 0.250000 0.250000 0.500000
O O2 0.231675 0.398311 0.475970
O O3 0.152208 0.324051 0.238339
O O4 0.997749 0.322754 0.153135
O O5 0.248303 0.890460 0.849748
O O6 0.037803 0.954740 0.647564
O O7 0.263878 0.027018 0.923500
O O8 0.342884 0.892988 0.839924
O O9 0.221410 0.018121 0.650426
O O10 0.500000 0.000000 0.000000
O O11 0.425929 0.007548 0.037902
O O12 0.611537 0.645547 0.493627
O O13 0.749060 0.766384 0.726614
O O14 0.817170 0.635048 0.879663
O O15 0.500000 0.540380 0.250000
O O16 0.000000 0.604266 0.250000
#
# Coordination Sequence:
#
# PCOD9294349 Si02
#       7
#     8   8   8   8   8   8   8
#     4  12  22  38  63  99 137 166 213 283 348 406
#     4  11  22  38  64  94 130 170 216 269 337 407
#     4  10  23  44  67  92 129 171 224 272 326 402
#     4  11  24  39  61  96 133 169 215 279 337 398
#     4  11  23  39  64  98 132 167 213 276 339 389
#     4  11  23  38  62  96 130 171 219 267 343 398
#     4  10  23  40  62  89 126 178 227 265 323 397
#
# _framework density 19.598337000000001
#
# number of rings (size 3 to 8) (size 9 to 14) (size 15 to 20)
#    0.000    1.143    2.857    4.714    2.000    5.143 
#    0.000    0.714    0.000    3.429    0.000    0.000 
#    0.000    0.000    0.000    0.000    0.000    0.000 
#
# Total GULP energy -156096.575147 kJ/mol
# GULP energy per Si atom -5574.877684 kJ/mol
# Density = 1.955373 g / cm^3
# Si number density = 19.598337 Si / 1000 Ang^3
#
#
#
# Elastic Constant Matrix: (Units=GPa)
#
#
# Indices 1 2 3 4 5 6 
#
# 1 115.9273 56.3707 58.6530 0.0000 23.2362 0.0000
# 2 56.3707 137.0927 45.3033 0.0000 1.1276 0.0000
# 3 58.6530 45.3033 102.9513 0.0000 8.0034 0.0000
# 4 0.0000 0.0000 0.0000 25.1138 0.0000 0.1799
# 5 23.2362 1.1276 8.0034 0.0000 40.7035 0.0000
# 6 0.0000 0.0000 0.0000 0.1799 0.0000 29.0862
#
#
#
# Elastic Compliance Matrix: (Units=1/GPa)
#
#
# Indices 1 2 3 4 5 6 
#
# 1 0.015329 -0.004150 -0.006333 0.000000 -0.007391 0.000000
# 2 -0.004150 0.009669 -0.002086 0.000000 0.002511 0.000000
# 3 -0.006333 -0.002086 0.014170 0.000000 0.000887 0.000000
# 4 0.000000 0.000000 0.000000 0.039821 0.000000 -0.000246
# 5 -0.007391 0.002511 0.000887 0.000000 0.028543 0.000000
# 6 0.000000 0.000000 0.000000 -0.000246 0.000000 0.034382
#
#
# Mechanical properties :
#
#
# Convention : Reuss Voigt Hill
#
# Bulk Modulus (GPa) = 71.26601 75.18058 73.22329
# Shear Modulus (GPa) = 29.11565 32.02365 30.56965
#
# Velocity S-wave (km/s) = 3.85855 4.04666 3.95373
# Velocity P-wave (km/s) = 7.50290 7.76389 7.63451
#
# Compressibility (1/GPa) = 0.01403194
#
# Stress axis : x y z
#
# Youngs Moduli (GPa) = 65.23429 103.41981 70.57067
#
# Poissons Ratio (x) = 0.42916 0.44691
# Poissons Ratio (y) = 0.27070 0.14721
# Poissons Ratio (z) = 0.41311 0.21573
#
# Static dielectric constant tensor:
#      x y z
#    x 1.764330 0.000000 0.000690 
#    y 0.000000 1.718940 0.000000 
#    z 0.000690 0.000000 1.734330 
# 
# From -- ./inp_files/222977.got.cif
#   From: 2010.05.17/outbox.cif.g08.bks.cpg/sg15_112_cif.got.tgz:222977.got - 2010.06.03 18:47:42.
