data_PCOD9294559
_publ_section_title
;
Structure prediction by ZEFSAII (Michael W. Deem and Ramdas Pophale) SiO2 
 PCOD9294559
Probable space group: C 2/C
;
_chemical_formula_sum "Si O2"
_cell_formula_units_Z 40
_cell_length_a 17.771608
_cell_length_b 11.893301
_cell_length_c 21.245436
_cell_angle_alpha 90.000000
_cell_angle_beta 156.502562
_cell_angle_gamma 90.000000
_cell_volume 1790.398893
_symmetry_space_group_name_H-M "C 2/C"
_symmetry_group_IT_number 15
_symmetry_cell_setting 'monoclinic'
loop_
_space_group_symop_operation_xyz
x,y,z
-x,y,1/2-z
-x,-y,-z
x,-y,1/2+z
1/2+x,1/2+y,z
1/2-x,1/2+y,1/2-z
1/2-x,1/2-y,-z
1/2+x,1/2-y,1/2+z
loop_
_atom_site_type_symbol
_atom_site_label
_atom_site_fract_x
_atom_site_fract_y
_atom_site_fract_z
Si Si1 0.712783 0.296554 0.886540
Si Si2 0.250837 0.284288 0.828999
Si Si3 0.407472 0.121144 0.418670
Si Si4 0.625612 0.656515 0.940629
Si Si5 0.192188 0.432504 0.427305
O O1 0.500000 0.308244 0.750000
O O2 0.743769 0.348831 0.842419
O O3 0.759669 0.164383 0.930685
O O4 0.843844 0.364664 0.035928
O O5 0.168185 0.032763 0.948841
O O6 0.088526 0.197009 0.725656
O O7 0.429659 0.213096 0.943601
O O8 0.313695 0.348245 0.939724
O O9 0.500000 0.000000 0.500000
O O10 0.334588 0.139705 0.291762
O O11 0.750000 0.750000 0.000000
O O12 0.000000 0.480323 0.250000
#
# Coordination Sequence:
#
# PCOD9294559 Si02
#       5
#     8   8   8   8   8
#     4  10  25  43  67  97 127 178 232 276 340 414
#     4  10  26  44  63 107 133 185 227 283 352 411
#     4  11  27  45  71  97 148 180 232 291 360 421
#     4  11  23  42  71 100 140 180 236 280 340 417
#     4  10  23  40  69  95 129 170 231 280 334 392
#
# _framework density 22.341390000000001
#
# number of rings (size 3 to 8) (size 9 to 14) (size 15 to 20)
#    0.000    1.600    0.000    1.800   19.600    0.000 
#    0.000    4.000    0.000    0.000    0.000    0.000 
#    0.000    0.000    0.000    0.000    0.000    0.000 
#
# Total GULP energy -111858.489183 kJ/mol
# GULP energy per Si atom -5592.924459 kJ/mol
# Density = 2.229054 g / cm^3
# Si number density = 22.341390 Si / 1000 Ang^3
#
#
#
# Elastic Constant Matrix: (Units=GPa)
#
#
# Indices 1 2 3 4 5 6 
#
# 1 67.4063 24.5548 -3.6722 0.0022 19.5712 0.0010
# 2 24.5548 104.8983 -11.2187 -0.0018 2.5594 0.0029
# 3 -3.6722 -11.2187 59.7281 -0.0022 5.8677 0.0026
# 4 0.0022 -0.0018 -0.0022 18.3094 0.0000 3.0977
# 5 19.5712 2.5594 5.8677 0.0000 36.9995 0.0008
# 6 0.0010 0.0029 0.0026 3.0977 0.0008 15.4155
#
#
#
# Elastic Compliance Matrix: (Units=1/GPa)
#
#
# Indices 1 2 3 4 5 6 
#
# 1 0.019377 -0.004136 0.001415 -0.000003 -0.010188 0.000000
# 2 -0.004136 0.010646 0.001628 0.000002 0.001193 -0.000003
# 3 0.001415 0.001628 0.017493 0.000003 -0.003635 -0.000004
# 4 -0.000003 0.000002 0.000003 0.056539 0.000001 -0.011361
# 5 -0.010188 0.001193 -0.003635 0.000001 0.032910 -0.000001
# 6 0.000000 -0.000003 -0.000004 -0.011361 -0.000001 0.067153
#
#
# Mechanical properties :
#
#
# Convention : Reuss Voigt Hill
#
# Bulk Modulus (GPa) = 22.05982 27.92894 24.99438
# Shear Modulus (GPa) = 22.58221 28.96946 25.77584
#
# Velocity S-wave (km/s) = 3.18272 3.60484 3.40034
# Velocity P-wave (km/s) = 4.83753 5.46394 5.16025
#
# Compressibility (1/GPa) = 0.04533128
#
# Stress axis : x y z
#
# Youngs Moduli (GPa) = 51.60696 93.93015 57.16725
#
# Poissons Ratio (x) = 0.38849 -0.08091
# Poissons Ratio (y) = 0.21344 -0.09308
# Poissons Ratio (z) = -0.07304 -0.15294
#
# Static dielectric constant tensor:
#      x y z
#    x 1.854640 0.000000 -0.000870 
#    y 0.000000 1.833170 0.000000 
#    z -0.000870 0.000000 1.859850 
# 
# From -- ./inp_files/205836.got.cif
#   From: 2010.05.17/outbox.cif.g08.bks.cpg/sg15_103_cif.got.tgz:205836.got - 2010.06.03 18:47:42.
