data_PCOD9294714
_publ_section_title
;
Structure prediction by ZEFSAII (Michael W. Deem and Ramdas Pophale) SiO2 
 PCOD9294714
Probable space group: C 2/C
;
_chemical_formula_sum "Si O2"
_cell_formula_units_Z 52
_cell_length_a 7.018819
_cell_length_b 13.627915
_cell_length_c 26.785474
_cell_angle_alpha 90.000000
_cell_angle_beta 70.199778
_cell_angle_gamma 90.000000
_cell_volume 2410.609043
_symmetry_space_group_name_H-M "C 2/C"
_symmetry_group_IT_number 15
_symmetry_cell_setting 'monoclinic'
loop_
_space_group_symop_operation_xyz
x,y,z
-x,y,1/2-z
-x,-y,-z
x,-y,1/2+z
1/2+x,1/2+y,z
1/2-x,1/2+y,1/2-z
1/2-x,1/2-y,-z
1/2+x,1/2-y,1/2+z
loop_
_atom_site_type_symbol
_atom_site_label
_atom_site_fract_x
_atom_site_fract_y
_atom_site_fract_z
Si Si1 0.085742 0.769970 0.971796
Si Si2 0.637993 0.880274 0.784858
Si Si3 0.869896 0.565285 0.401891
Si Si4 0.830264 0.575001 0.586316
Si Si5 0.055940 0.923109 0.451406
Si Si6 0.224768 0.905766 0.212445
Si Si7 0.500000 0.234505 0.750000
O O1 0.204751 0.852307 0.929246
O O2 0.052083 0.672032 0.943294
O O3 0.250000 0.750000 0.000000
O O4 0.914467 0.822502 0.020452
O O5 0.500000 0.852090 0.750000
O O6 0.492411 0.895361 0.844576
O O7 0.814670 0.804294 0.782312
O O8 0.737222 0.986918 0.767050
O O9 0.745869 0.464766 0.404395
O O10 0.033724 0.524565 0.427935
O O11 0.634088 0.574582 0.568638
O O12 0.753565 0.585687 0.650213
O O13 0.000000 0.000000 0.500000
O O14 0.398416 0.833774 0.217259
O O15 0.000000 0.874847 0.250000
#
# Coordination Sequence:
#
# PCOD9294714 Si02
#       7
#     8   8   8   8   8   8   4
#     4   9  20  40  61  93 126 163 218 272 323 398
#     4  11  25  45  69 100 140 181 229 287 344 415
#     4  10  23  41  64  96 128 176 216 272 342 399
#     4  10  23  41  64  97 132 175 222 279 345 400
#     4   9  20  40  66  93 130 172 217 278 331 400
#     4  11  25  45  69  99 142 182 232 292 341 426
#     4  12  26  44  68 100 136 186 230 280 360 394
#
# _framework density 21.571311999999999
#
# number of rings (size 3 to 8) (size 9 to 14) (size 15 to 20)
#    0.000    1.846    1.538    0.462    6.462    6.154 
#   11.077    0.000    0.000    0.000    0.000    0.000 
#    0.000    0.000    0.000    0.000    0.000    0.000 
#
# Total GULP energy -144982.736676 kJ/mol
# GULP energy per Si atom -5576.259103 kJ/mol
# Density = 2.152222 g / cm^3
# Si number density = 21.571312 Si / 1000 Ang^3
#
#
#
# Elastic Constant Matrix: (Units=GPa)
#
#
# Indices 1 2 3 4 5 6 
#
# 1 120.0117 25.1488 39.6154 0.0000 -0.0717 0.0000
# 2 25.1488 70.0810 11.5525 0.0000 7.4939 0.0000
# 3 39.6154 11.5525 48.1989 0.0000 2.3906 0.0000
# 4 0.0000 0.0000 0.0000 -11.7157 0.0000 -43.9029
# 5 -0.0717 7.4939 2.3906 0.0000 27.6438 0.0000
# 6 0.0000 0.0000 0.0000 -43.9029 0.0000 -69.5035
#
#
#
# Elastic Compliance Matrix: (Units=1/GPa)
#
#
# Indices 1 2 3 4 5 6 
#
# 1 0.012003 -0.002959 -0.009237 0.000000 0.001632 0.000000
# 2 -0.002959 0.015980 -0.001188 0.000000 -0.004237 0.000000
# 3 -0.009237 -0.001188 0.028732 0.000000 -0.002187 0.000000
# 4 0.000000 0.000000 0.000000 0.062437 0.000000 -0.039439
# 5 0.001632 -0.004237 -0.002187 0.000000 0.037516 0.000000
# 6 0.000000 0.000000 0.000000 -0.039439 0.000000 0.010525
#
#
# Mechanical properties :
#
#
# Convention : Reuss Voigt Hill
#
# Bulk Modulus (GPa) = 33.39188 43.43611 38.41400
# Shear Modulus (GPa) = 24.51667 0.08322 12.29994
#
# Velocity S-wave (km/s) = 3.37492 0.19662 2.39047
# Velocity P-wave (km/s) = 5.54077 4.49792 5.04636
#
# Compressibility (1/GPa) = 0.02994740
#
# Stress axis : x y z
#
# Youngs Moduli (GPa) = 83.31506 62.57839 34.80382
#
# Poissons Ratio (x) = 0.18517 0.32148
# Poissons Ratio (y) = 0.24653 0.04134
# Poissons Ratio (z) = 0.76957 0.07434
#
# Static dielectric constant tensor:
#      x y z
#    x 1.688700 0.000000 0.007460 
#    y 0.000000 1.858330 0.000000 
#    z 0.007460 0.000000 1.744180 
# 
# From -- ./inp_files/305334.got.cif
#   From: 2010.05.17/outbox.cif.g08.bks.cpg/sg15_153_cif.got.tgz:305334.got - 2010.06.03 18:47:42.
