data_PCOD9294413
_publ_section_title
;
Structure prediction by ZEFSAII (Michael W. Deem and Ramdas Pophale) SiO2 
 PCOD9294413
Probable space group: C 2/C
;
_chemical_formula_sum "Si O2"
_cell_formula_units_Z 32
_cell_length_a 7.444439
_cell_length_b 13.877024
_cell_length_c 10.993517
_cell_angle_alpha 90.000000
_cell_angle_beta 94.095276
_cell_angle_gamma 90.000000
_cell_volume 1132.803688
_symmetry_space_group_name_H-M "C 2/C"
_symmetry_group_IT_number 15
_symmetry_cell_setting 'monoclinic'
loop_
_space_group_symop_operation_xyz
x,y,z
-x,y,1/2-z
-x,-y,-z
x,-y,1/2+z
1/2+x,1/2+y,z
1/2-x,1/2+y,1/2-z
1/2-x,1/2-y,-z
1/2+x,1/2-y,1/2+z
loop_
_atom_site_type_symbol
_atom_site_label
_atom_site_fract_x
_atom_site_fract_y
_atom_site_fract_z
Si Si1 0.396289 0.813962 0.573482
Si Si2 0.245941 0.569399 0.034911
Si Si3 0.245167 0.270750 0.698694
Si Si4 0.796418 0.445589 0.240555
O O1 0.250000 0.750000 0.500000
O O2 0.552423 0.744723 0.631976
O O3 0.292658 0.843714 0.692288
O O4 0.531197 0.894266 0.522721
O O5 0.338336 0.665577 0.098788
O O6 0.282439 0.488202 0.138046
O O7 0.287211 0.541111 0.898943
O O8 0.314649 0.170672 0.749985
O O9 0.000000 0.483402 0.250000
#
# Coordination Sequence:
#
# PCOD9294413 Si02
#       4
#     8   8   8   8
#     4   9  18  39  65  90 124 167 221 260 321 384
#     4  10  23  40  64  97 126 170 220 263 325 391
#     4   9  21  38  63  95 124 168 218 261 326 383
#     4  12  22  38  66  95 131 167 217 270 322 392
#
# _framework density 28.248495999999999
#
# number of rings (size 3 to 8) (size 9 to 14) (size 15 to 20)
#    1.500    0.500    0.000    4.500    0.000    2.000 
#    0.000    0.000    5.500   21.000    0.000    0.000 
#    0.000    0.000    0.000    0.000    0.000    0.000 
#
# Total GULP energy -89204.419622 kJ/mol
# GULP energy per Si atom -5575.276226 kJ/mol
# Density = 2.818420 g / cm^3
# Si number density = 28.248496 Si / 1000 Ang^3
#
#
#
# Elastic Constant Matrix: (Units=GPa)
#
#
# Indices 1 2 3 4 5 6 
#
# 1 82.4534 15.1356 19.8217 0.0000 14.2745 0.0000
# 2 15.1356 181.9269 86.0507 0.0000 0.5762 0.0000
# 3 19.8217 86.0507 178.8200 0.0000 -26.9390 0.0000
# 4 0.0000 0.0000 0.0000 69.6610 0.0000 1.9297
# 5 14.2745 0.5762 -26.9390 0.0000 34.0394 0.0000
# 6 0.0000 0.0000 0.0000 1.9297 0.0000 35.8284
#
#
#
# Elastic Compliance Matrix: (Units=1/GPa)
#
#
# Indices 1 2 3 4 5 6 
#
# 1 0.014228 0.000233 -0.002939 0.000000 -0.008296 0.000000
# 2 0.000233 0.007444 -0.004135 0.000000 -0.003496 0.000000
# 3 -0.002939 -0.004135 0.009201 0.000000 0.008584 0.000000
# 4 0.000000 0.000000 0.000000 0.014377 0.000000 -0.000774
# 5 -0.008296 -0.003496 0.008584 0.000000 0.039710 0.000000
# 6 0.000000 0.000000 0.000000 -0.000774 0.000000 0.027953
#
#
# Mechanical properties :
#
#
# Convention : Reuss Voigt Hill
#
# Bulk Modulus (GPa) = 58.16922 76.13516 67.15219
# Shear Modulus (GPa) = 37.78603 49.38525 43.58564
#
# Velocity S-wave (km/s) = 3.66133 4.18574 3.93228
# Velocity P-wave (km/s) = 6.20568 7.09725 6.66639
#
# Compressibility (1/GPa) = 0.01719122
#
# Stress axis : x y z
#
# Youngs Moduli (GPa) = 70.28305 134.33483 108.68614
#
# Poissons Ratio (x) = -0.03126 0.31943
# Poissons Ratio (y) = -0.01635 0.44938
# Poissons Ratio (z) = 0.20656 0.55542
#
# Static dielectric constant tensor:
#      x y z
#    x 2.208240 0.000000 -0.059750 
#    y 0.000000 2.238200 0.000000 
#    z -0.059750 0.000000 2.286980 
# 
# From -- ./inp_files/83974.got.cif
#   From: 2010.05.17/outbox.cif.g08.bks.cpg/sg15_42_cif.got.tgz:83974.got - 2010.06.03 18:47:42.
