data_PCOD9294405
_publ_section_title
;
Structure prediction by ZEFSAII (Michael W. Deem and Ramdas Pophale) SiO2 
 PCOD9294405
Probable space group: C 2/C
;
_chemical_formula_sum "Si O2"
_cell_formula_units_Z 48
_cell_length_a 13.472553
_cell_length_b 17.830375
_cell_length_c 17.892737
_cell_angle_alpha 90.000000
_cell_angle_beta 145.494727
_cell_angle_gamma 90.000000
_cell_volume 2434.856283
_symmetry_space_group_name_H-M "C 2/C"
_symmetry_group_IT_number 15
_symmetry_cell_setting 'monoclinic'
loop_
_space_group_symop_operation_xyz
x,y,z
-x,y,1/2-z
-x,-y,-z
x,-y,1/2+z
1/2+x,1/2+y,z
1/2-x,1/2+y,1/2-z
1/2-x,1/2-y,-z
1/2+x,1/2-y,1/2+z
loop_
_atom_site_type_symbol
_atom_site_label
_atom_site_fract_x
_atom_site_fract_y
_atom_site_fract_z
Si Si1 0.135111 0.463769 0.979056
Si Si2 0.789607 0.417184 0.842912
Si Si3 0.299603 0.695580 0.599819
Si Si4 0.580677 0.893061 0.376621
Si Si5 0.463292 0.670439 0.139781
Si Si6 0.468623 0.195409 0.932166
O O1 0.200497 0.518577 0.087131
O O2 0.252300 0.390000 0.047258
O O3 0.128059 0.519472 0.905241
O O4 0.935442 0.440002 0.873471
O O5 0.590356 0.399750 0.699512
O O6 0.864917 0.336553 0.918699
O O7 0.500000 0.703314 0.750000
O O8 0.250000 0.750000 0.500000
O O9 0.180166 0.709610 0.599326
O O10 0.500000 0.867484 0.250000
O O11 0.444547 0.874078 0.359160
O O12 0.760814 0.850546 0.505185
O O13 0.500000 0.688423 0.250000
O O14 0.503514 0.735083 0.105141
#
# Coordination Sequence:
#
# PCOD9294405 Si02
#       6
#     8   8   8   8   8   8
#     4   9  20  43  63  86 129 168 217 260 309 389
#     4   9  20  39  64  91 121 181 206 255 321 377
#     4  11  27  43  70  92 125 177 225 266 323 379
#     4  11  24  40  64 101 132 168 206 273 335 371
#     4  12  22  36  68 100 129 167 218 254 326 402
#     4  10  23  40  64  94 137 163 213 273 319 381
#
# _framework density 19.713688999999999
#
# number of rings (size 3 to 8) (size 9 to 14) (size 15 to 20)
#    0.000    1.667    3.333    2.000    9.333    0.667 
#    0.000    0.833    0.000    0.000    0.000    0.000 
#    0.000    0.000    0.000    0.000    0.000    0.000 
#
# Total GULP energy -133770.487278 kJ/mol
# GULP energy per Si atom -5573.770303 kJ/mol
# Density = 1.966882 g / cm^3
# Si number density = 19.713689 Si / 1000 Ang^3
#
#
#
# Elastic Constant Matrix: (Units=GPa)
#
#
# Indices 1 2 3 4 5 6 
#
# 1 112.9399 51.8348 70.2995 0.0015 7.2256 0.0009
# 2 51.8348 123.3836 48.8813 0.0006 1.3829 0.0007
# 3 70.2995 48.8813 121.4711 0.0007 4.1585 0.0010
# 4 0.0015 0.0006 0.0007 20.7771 0.0001 -3.3165
# 5 7.2256 1.3829 4.1585 0.0001 24.6288 0.0002
# 6 0.0009 0.0007 0.0010 -3.3165 0.0002 30.7559
#
#
#
# Elastic Compliance Matrix: (Units=1/GPa)
#
#
# Indices 1 2 3 4 5 6 
#
# 1 0.015166 -0.003452 -0.007285 -0.000001 -0.003026 0.000000
# 2 -0.003452 0.010428 -0.002226 0.000000 0.000803 0.000000
# 3 -0.007285 -0.002226 0.013344 0.000000 0.000009 0.000000
# 4 -0.000001 0.000000 0.000000 0.048973 0.000000 0.005281
# 5 -0.003026 0.000803 0.000009 0.000000 0.041444 0.000000
# 6 0.000000 0.000000 0.000000 0.005281 0.000000 0.033084
#
#
# Mechanical properties :
#
#
# Convention : Reuss Voigt Hill
#
# Bulk Modulus (GPa) = 76.84648 77.75843 77.30246
# Shear Modulus (GPa) = 25.94691 27.68429 26.81560
#
# Velocity S-wave (km/s) = 3.63187 3.75149 3.69216
# Velocity P-wave (km/s) = 7.52683 7.63508 7.58115
#
# Compressibility (1/GPa) = 0.01301296
#
# Stress axis : x y z
#
# Youngs Moduli (GPa) = 65.93521 95.89722 74.94068
#
# Poissons Ratio (x) = 0.33100 0.54592
# Poissons Ratio (y) = 0.22758 0.16683
# Poissons Ratio (z) = 0.48032 0.21349
#
# Static dielectric constant tensor:
#      x y z
#    x 1.726840 0.000000 -0.000540 
#    y 0.000000 1.731080 0.000000 
#    z -0.000540 0.000000 1.705020 
# 
# From -- ./inp_files/206511.got.cif
#   From: 2010.05.17/outbox.cif.g08.bks.cpg/sg15_104_cif.got.tgz:206511.got - 2010.06.03 18:47:42.
