data_PCOD9294238
_publ_section_title
;
Structure prediction by ZEFSAII (Michael W. Deem and Ramdas Pophale) SiO2 
 PCOD9294238
Probable space group: C 2/C
;
_chemical_formula_sum "Si O2"
_cell_formula_units_Z 40
_cell_length_a 13.775117
_cell_length_b 23.021877
_cell_length_c 9.312065
_cell_angle_alpha 90.000000
_cell_angle_beta 38.712373
_cell_angle_gamma 90.000000
_cell_volume 1846.918203
_symmetry_space_group_name_H-M "C 2/C"
_symmetry_group_IT_number 15
_symmetry_cell_setting 'monoclinic'
loop_
_space_group_symop_operation_xyz
x,y,z
-x,y,1/2-z
-x,-y,-z
x,-y,1/2+z
1/2+x,1/2+y,z
1/2-x,1/2+y,1/2-z
1/2-x,1/2-y,-z
1/2+x,1/2-y,1/2+z
loop_
_atom_site_type_symbol
_atom_site_label
_atom_site_fract_x
_atom_site_fract_y
_atom_site_fract_z
Si Si1 0.293326 0.112159 0.946574
Si Si2 0.291877 0.288193 0.745712
Si Si3 0.859410 0.168358 0.613286
Si Si4 0.422591 0.939311 0.550875
Si Si5 0.829946 0.650141 0.388785
O O1 0.153685 0.120625 0.996330
O O2 0.439022 0.100399 0.674229
O O3 0.297310 0.169921 0.040434
O O4 0.299995 0.061697 0.060250
O O5 0.250498 0.221347 0.811710
O O6 0.471029 0.305034 0.559815
O O7 0.236459 0.304626 0.649832
O O8 0.787335 0.145094 0.843971
O O9 0.353608 0.908852 0.770793
O O10 0.500000 0.000000 0.500000
O O11 0.000000 0.667866 0.250000
#
# Coordination Sequence:
#
# PCOD9294238 Si02
#       5
#     8   8   8   8   8
#     4  10  23  39  65  95 132 162 223 273 338 379
#     4  11  25  40  63  96 139 183 220 265 335 400
#     4  12  23  40  66  93 139 181 221 265 332 406
#     4  10  23  42  70  99 126 168 230 289 332 387
#     4  11  22  41  64  98 132 171 224 278 330 394
#
# _framework density 21.657698
#
# number of rings (size 3 to 8) (size 9 to 14) (size 15 to 20)
#    0.000    1.200    2.000    3.600    8.400    0.000 
#    0.000    0.000    0.000   21.600    0.000    0.000 
#    0.000    0.000    0.000    0.000    0.000    0.000 
#
# Total GULP energy -111729.066505 kJ/mol
# GULP energy per Si atom -5586.453325 kJ/mol
# Density = 2.160840 g / cm^3
# Si number density = 21.657698 Si / 1000 Ang^3
#
#
#
# Elastic Constant Matrix: (Units=GPa)
#
#
# Indices 1 2 3 4 5 6 
#
# 1 173.1722 39.5287 51.2640 0.0000 4.5360 0.0000
# 2 39.5287 80.3700 63.1883 0.0000 13.2938 0.0000
# 3 51.2640 63.1883 135.6863 0.0000 3.6620 0.0000
# 4 0.0000 0.0000 0.0000 17.4867 0.0000 -4.6710
# 5 4.5360 13.2938 3.6620 0.0000 42.2465 0.0000
# 6 0.0000 0.0000 0.0000 -4.6710 0.0000 31.1644
#
#
#
# Elastic Compliance Matrix: (Units=1/GPa)
#
#
# Indices 1 2 3 4 5 6 
#
# 1 0.006712 -0.002078 -0.001570 0.000000 0.000069 0.000000
# 2 -0.002078 0.021583 -0.009110 0.000000 -0.005779 0.000000
# 3 -0.001570 -0.009110 0.012152 0.000000 0.001982 0.000000
# 4 0.000000 0.000000 0.000000 0.059571 0.000000 0.008929
# 5 0.000069 -0.005779 0.001982 0.000000 0.025310 0.000000
# 6 0.000000 0.000000 0.000000 0.008929 0.000000 0.033426
#
#
# Mechanical properties :
#
#
# Convention : Reuss Voigt Hill
#
# Bulk Modulus (GPa) = 66.97645 77.46562 72.22103
# Shear Modulus (GPa) = 26.42057 33.86270 30.14164
#
# Velocity S-wave (km/s) = 3.49652 3.95845 3.73463
# Velocity P-wave (km/s) = 6.87699 7.53248 7.21219
#
# Compressibility (1/GPa) = 0.01493062
#
# Stress axis : x y z
#
# Youngs Moduli (GPa) = 148.98879 46.33327 82.29162
#
# Poissons Ratio (x) = 0.09630 0.12918
# Poissons Ratio (y) = 0.30966 0.74966
# Poissons Ratio (z) = 0.23388 0.42208
#
# Static dielectric constant tensor:
#      x y z
#    x 1.868960 0.000000 0.004490 
#    y 0.000000 1.781240 0.000000 
#    z 0.004490 0.000000 1.785890 
# 
# From -- ./inp_files/41921.got.cif
#   From: 2010.05.17/outbox.cif.g08.bks.cpg/sg15_21_cif.got.tgz:41921.got - 2010.06.03 18:47:42.
