data_PCOD9294544
_publ_section_title
;
Structure prediction by ZEFSAII (Michael W. Deem and Ramdas Pophale) SiO2 
 PCOD9294544
Probable space group: C 2/C
;
_chemical_formula_sum "Si O2"
_cell_formula_units_Z 56
_cell_length_a 14.445220
_cell_length_b 20.777637
_cell_length_c 17.777079
_cell_angle_alpha 90.000000
_cell_angle_beta 147.628194
_cell_angle_gamma 90.000000
_cell_volume 2856.723541
_symmetry_space_group_name_H-M "C 2/C"
_symmetry_group_IT_number 15
_symmetry_cell_setting 'monoclinic'
loop_
_space_group_symop_operation_xyz
x,y,z
-x,y,1/2-z
-x,-y,-z
x,-y,1/2+z
1/2+x,1/2+y,z
1/2-x,1/2+y,1/2-z
1/2-x,1/2-y,-z
1/2+x,1/2-y,1/2+z
loop_
_atom_site_type_symbol
_atom_site_label
_atom_site_fract_x
_atom_site_fract_y
_atom_site_fract_z
Si Si1 0.189968 0.009454 0.092782
Si Si2 0.462858 0.557561 0.813106
Si Si3 0.688201 0.689230 0.411760
Si Si4 0.348942 0.960051 0.854799
Si Si5 0.049830 0.687195 0.045822
Si Si6 0.810378 0.187866 0.786489
Si Si7 0.196834 0.629930 0.867410
O O1 0.284890 0.942993 0.143554
O O2 0.308178 0.039662 0.237947
O O3 0.000000 0.000000 0.000000
O O4 0.139568 0.042202 0.979805
O O5 0.500000 0.564988 0.750000
O O6 0.324478 0.497903 0.731022
O O7 0.395925 0.624494 0.806039
O O8 0.500000 0.693472 0.250000
O O9 0.750000 0.750000 0.500000
O O10 0.817048 0.688560 0.431688
O O11 0.699259 0.635182 0.483207
O O12 0.413907 0.886462 0.906820
O O13 0.500000 0.000000 0.000000
O O14 0.089988 0.744018 0.133530
O O15 0.862208 0.698442 0.880635
O O16 0.765010 0.168872 0.842045
O O17 0.000000 0.648354 0.750000
#
# Coordination Sequence:
#
# PCOD9294544 Si02
#       7
#     8   8   8   8   8   8   8
#     4  10  23  40  68  95 130 179 228 281 337 406
#     4  11  26  46  71 100 140 183 233 293 344 407
#     4  12  25  36  58  97 136 172 216 263 343 419
#     4  11  23  45  71 100 135 176 233 285 352 405
#     4  12  26  40  71  97 137 184 221 287 344 411
#     4  12  25  46  67  98 139 182 229 280 346 416
#     4  12  23  41  63  98 143 175 213 273 344 420
#
# _framework density 19.602876999999999
#
# number of rings (size 3 to 8) (size 9 to 14) (size 15 to 20)
#    0.000    0.571    7.143    1.286    8.000    0.000 
#    0.000    0.714    0.000    0.000    0.000    0.000 
#    0.000    0.000    0.000    0.000    0.000    0.000 
#
# Total GULP energy -155904.188894 kJ/mol
# GULP energy per Si atom -5568.006746 kJ/mol
# Density = 1.955826 g / cm^3
# Si number density = 19.602877 Si / 1000 Ang^3
#
#
#
# Elastic Constant Matrix: (Units=GPa)
#
#
# Indices 1 2 3 4 5 6 
#
# 1 51.4093 10.1111 18.8742 0.0012 -22.7410 -0.0001
# 2 10.1111 101.5687 52.7843 0.0029 -9.1180 0.0010
# 3 18.8742 52.7843 163.7773 0.0019 -29.9326 0.0014
# 4 0.0012 0.0029 0.0019 41.7687 0.0009 -14.6523
# 5 -22.7410 -9.1180 -29.9326 0.0009 26.9194 0.0002
# 6 -0.0001 0.0010 0.0014 -14.6523 0.0002 13.3871
#
#
#
# Elastic Compliance Matrix: (Units=1/GPa)
#
#
# Indices 1 2 3 4 5 6 
#
# 1 0.031602 -0.001684 0.002103 -0.000003 0.028465 -0.000003
# 2 -0.001684 0.011918 -0.003978 -0.000001 -0.001808 -0.000002
# 3 0.002103 -0.003978 0.009066 -0.000001 0.010511 -0.000002
# 4 -0.000003 -0.000001 -0.000001 0.038863 -0.000005 0.042535
# 5 0.028465 -0.001808 0.010511 -0.000005 0.072269 -0.000008
# 6 -0.000003 -0.000002 -0.000002 0.042535 -0.000008 0.121254
#
#
# Mechanical properties :
#
#
# Convention : Reuss Voigt Hill
#
# Bulk Modulus (GPa) = 21.99221 53.36606 37.67914
# Shear Modulus (GPa) = 16.27363 32.08077 24.17720
#
# Velocity S-wave (km/s) = 2.88439 4.04980 3.51572
# Velocity P-wave (km/s) = 4.72611 7.01074 5.97857
#
# Compressibility (1/GPa) = 0.04547064
#
# Stress axis : x y z
#
# Youngs Moduli (GPa) = 31.64316 83.90741 110.29783
#
# Poissons Ratio (x) = 0.14126 -0.23196
# Poissons Ratio (y) = 0.05327 0.43871
# Poissons Ratio (z) = -0.06655 0.33374
#
# Static dielectric constant tensor:
#      x y z
#    x 1.669400 0.000040 0.006560 
#    y 0.000040 1.148760 0.000010 
#    z 0.006560 0.000010 1.659360 
# 
# From -- ./inp_files/206965.got.cif
#   From: 2010.05.17/outbox.cif.g08.bks.cpg/sg15_104_cif.got.tgz:206965.got - 2010.06.03 18:47:42.
