data_PCOD9294198
_publ_section_title
;
Structure prediction by ZEFSAII (Michael W. Deem and Ramdas Pophale) SiO2 
 PCOD9294198
Probable space group: C 2/C
;
_chemical_formula_sum "Si O2"
_cell_formula_units_Z 44
_cell_length_a 12.892294
_cell_length_b 28.007098
_cell_length_c 5.276834
_cell_angle_alpha 90.000000
_cell_angle_beta 84.668242
_cell_angle_gamma 90.000000
_cell_volume 1897.093016
_symmetry_space_group_name_H-M "C 2/C"
_symmetry_group_IT_number 15
_symmetry_cell_setting 'monoclinic'
loop_
_space_group_symop_operation_xyz
x,y,z
-x,y,1/2-z
-x,-y,-z
x,-y,1/2+z
1/2+x,1/2+y,z
1/2-x,1/2+y,1/2-z
1/2-x,1/2-y,-z
1/2+x,1/2-y,1/2+z
loop_
_atom_site_type_symbol
_atom_site_label
_atom_site_fract_x
_atom_site_fract_y
_atom_site_fract_z
Si Si1 0.297695 0.304159 0.237529
Si Si2 0.418637 0.770240 0.458146
Si Si3 0.000000 0.355181 0.750000
Si Si4 0.280522 0.888437 0.946286
Si Si5 0.206716 0.032452 0.781365
Si Si6 0.892224 0.893265 0.917796
O O1 0.188836 0.284192 0.155839
O O2 0.263062 0.335015 0.486608
O O3 0.379730 0.260909 0.208077
O O4 0.353538 0.344236 0.052026
O O5 0.500000 0.744982 0.250000
O O6 0.473711 0.818741 0.530620
O O7 0.103369 0.384916 0.679609
O O8 0.281406 0.922361 0.193951
O O9 0.196990 0.907222 0.764248
O O10 0.217350 0.000452 0.527040
O O11 0.104954 0.064286 0.875091
O O12 0.000000 0.887900 0.750000
#
# Coordination Sequence:
#
# PCOD9294198 Si02
#       6
#     8   8   4   8   8   8
#     4  10  23  39  63  97 142 182 238 293 352 412
#     4  11  22  39  63  97 135 188 241 293 346 416
#     4  12  24  42  72  98 134 192 242 296 350 416
#     4  11  24  45  70 103 140 185 238 296 358 425
#     4  11  24  48  76 108 145 184 236 297 364 438
#     4  11  24  43  70 103 146 186 229 294 359 430
#
# _framework density 23.193382
#
# number of rings (size 3 to 8) (size 9 to 14) (size 15 to 20)
#    0.000    1.091    5.455    0.545    0.000    7.273 
#    0.000    0.909    0.000    0.000    0.000    0.000 
#    0.000    0.000    0.000    0.000    0.000    0.000 
#
# Total GULP energy -122762.087706 kJ/mol
# GULP energy per Si atom -5580.094896 kJ/mol
# Density = 2.314059 g / cm^3
# Si number density = 23.193382 Si / 1000 Ang^3
#
#
#
# Elastic Constant Matrix: (Units=GPa)
#
#
# Indices 1 2 3 4 5 6 
#
# 1 144.8827 20.7376 46.5811 0.0000 -27.9632 0.0000
# 2 20.7376 80.4521 31.0577 0.0000 -7.9194 0.0000
# 3 46.5811 31.0577 110.7380 0.0000 -16.6619 0.0000
# 4 0.0000 0.0000 0.0000 219.1931 0.0000 -63.0900
# 5 -27.9632 -7.9194 -16.6619 0.0000 36.2430 0.0000
# 6 0.0000 0.0000 0.0000 -63.0900 0.0000 20.3541
#
#
#
# Elastic Compliance Matrix: (Units=1/GPa)
#
#
# Indices 1 2 3 4 5 6 
#
# 1 0.008943 -0.000708 -0.002737 0.000000 0.005486 0.000000
# 2 -0.000708 0.014056 -0.003507 0.000000 0.000913 0.000000
# 3 -0.002737 -0.003507 0.011530 0.000000 0.002422 0.000000
# 4 0.000000 0.000000 0.000000 0.042305 0.000000 0.131128
# 5 0.005486 0.000913 0.002422 0.000000 0.033137 0.000000
# 6 0.000000 0.000000 0.000000 0.131128 0.000000 0.455578
#
#
# Mechanical properties :
#
#
# Convention : Reuss Voigt Hill
#
# Bulk Modulus (GPa) = 48.48942 59.20284 53.84613
# Shear Modulus (GPa) = 8.52765 71.00447 39.76606
#
# Velocity S-wave (km/s) = 1.91957 5.53900 4.14520
# Velocity P-wave (km/s) = 5.08576 8.15405 6.79535
#
# Compressibility (1/GPa) = 0.02062305
#
# Stress axis : x y z
#
# Youngs Moduli (GPa) = 111.82513 71.14425 86.73163
#
# Poissons Ratio (x) = 0.05039 0.23743
# Poissons Ratio (y) = 0.07920 0.30416
# Poissons Ratio (z) = 0.30612 0.24950
#
# Static dielectric constant tensor:
#      x y z
#    x 1.816180 0.000000 0.038260 
#    y 0.000000 1.915470 0.000000 
#    z 0.038260 0.000000 1.991140 
# 
# From -- ./inp_files/5761.got.cif
#   From: 2010.05.17/outbox.cif.g08.bks.cpg/sg15_3_cif.got.tgz:5761.got - 2010.06.03 18:47:42.
