data_PCOD9294030
_publ_section_title
;
Structure prediction by ZEFSAII (Michael W. Deem and Ramdas Pophale) SiO2 
 PCOD9294030
Probable space group: C 2/C
;
_chemical_formula_sum "Si O2"
_cell_formula_units_Z 60
_cell_length_a 15.206702
_cell_length_b 8.152610
_cell_length_c 25.952508
_cell_angle_alpha 90.000000
_cell_angle_beta 114.726157
_cell_angle_gamma 90.000000
_cell_volume 2922.460364
_symmetry_space_group_name_H-M "C 2/C"
_symmetry_group_IT_number 15
_symmetry_cell_setting 'monoclinic'
loop_
_space_group_symop_operation_xyz
x,y,z
-x,y,1/2-z
-x,-y,-z
x,-y,1/2+z
1/2+x,1/2+y,z
1/2-x,1/2+y,1/2-z
1/2-x,1/2-y,-z
1/2+x,1/2-y,1/2+z
loop_
_atom_site_type_symbol
_atom_site_label
_atom_site_fract_x
_atom_site_fract_y
_atom_site_fract_z
Si Si1 0.874096 0.177327 0.460584
Si Si2 0.500000 0.579918 0.250000
Si Si3 0.701053 0.979927 0.861284
Si Si4 0.631641 0.056992 0.618974
Si Si5 0.025640 0.980916 0.424105
Si Si6 0.957669 0.275758 0.138033
Si Si7 0.647507 0.700880 0.662346
Si Si8 0.832457 0.812096 0.213995
O O1 0.876547 0.362655 0.439797
O O2 0.907031 0.138712 0.526334
O O3 0.769652 0.104595 0.420588
O O4 0.950420 0.074673 0.443877
O O5 0.370337 0.891010 0.131753
O O6 0.406420 0.462108 0.225712
O O7 0.501765 0.306073 0.700122
O O8 0.772792 0.074425 0.839475
O O9 0.642411 0.841816 0.815805
O O10 0.539125 0.120888 0.628071
O O11 0.726237 0.134285 0.669165
O O12 0.643349 0.862809 0.626202
O O13 0.957377 0.882845 0.368232
O O14 0.077848 0.125337 0.406304
O O15 0.668991 0.740448 0.726776
#
# Coordination Sequence:
#
# PCOD9294030 Si02
#       8
#     8   4   8   8   8   8   8   8
#     4   8  18  39  61  85 115 165 194 256 284 358
#     4  12  26  38  60  86 124 154 196 246 306 346
#     4  10  23  38  61  87 123 152 205 241 306 343
#     4  10  23  38  61  87 123 154 207 234 305 352
#     4   9  18  38  62  84 121 153 211 237 302 342
#     4  11  24  38  58  94 118 159 192 254 289 361
#     4  11  21  38  60  87 116 166 195 247 291 367
#     4  11  24  40  57  85 119 164 193 247 294 370
#
# _framework density 20.530646999999998
#
# number of rings (size 3 to 8) (size 9 to 14) (size 15 to 20)
#    0.000    1.867    1.333    2.400    7.467    1.067 
#    0.000    0.000    0.000   11.200    0.000    0.000 
#    0.000    0.000    0.000    0.000    0.000    0.000 
#
# Total GULP energy -167663.915934 kJ/mol
# GULP energy per Si atom -5588.797198 kJ/mol
# Density = 2.048392 g / cm^3
# Si number density = 20.530647 Si / 1000 Ang^3
#
#
#
# Elastic Constant Matrix: (Units=GPa)
#
#
# Indices 1 2 3 4 5 6 
#
# 1 53.7773 7.7531 15.8052 0.0000 7.9002 0.0000
# 2 7.7531 57.1330 -19.3939 0.0000 4.2755 0.0000
# 3 15.8052 -19.3939 33.9405 0.0000 5.4892 0.0000
# 4 0.0000 0.0000 0.0000 -5.5117 0.0000 4.2770
# 5 7.9002 4.2755 5.4892 0.0000 14.3215 0.0000
# 6 0.0000 0.0000 0.0000 4.2770 0.0000 38.1149
#
#
#
# Elastic Compliance Matrix: (Units=1/GPa)
#
#
# Indices 1 2 3 4 5 6 
#
# 1 0.025170 -0.008299 -0.015585 0.000000 -0.005434 0.000000
# 2 -0.008299 0.026568 0.020883 0.000000 -0.011357 0.000000
# 3 -0.015585 0.020883 0.051461 0.000000 -0.017362 0.000000
# 4 0.000000 0.000000 0.000000 -0.166898 0.000000 0.018728
# 5 -0.005434 -0.011357 -0.017362 0.000000 0.082868 0.000000
# 6 0.000000 0.000000 0.000000 0.018728 0.000000 0.024135
#
#
# Mechanical properties :
#
#
# Convention : Reuss Voigt Hill
#
# Bulk Modulus (GPa) = 10.28839 17.01995 13.65417
# Shear Modulus (GPa) = 61.19536 18.76403 39.97970
#
# Velocity S-wave (km/s) = 5.46549 3.02644 4.41763
# Velocity P-wave (km/s) = 6.69708 4.52996 5.71714
#
# Compressibility (1/GPa) = 0.09719693
#
# Stress axis : x y z
#
# Youngs Moduli (GPa) = 39.72932 37.63949 19.43211
#
# Poissons Ratio (x) = 0.31238 0.30284
# Poissons Ratio (y) = 0.32973 -0.40580
# Poissons Ratio (z) = 0.61917 -0.78602
#
# Static dielectric constant tensor:
#      x y z
#    x 1.712990 0.000000 -0.011810 
#    y 0.000000 1.733010 0.000000 
#    z -0.011810 0.000000 1.716620 
# 
# From -- ./inp_files/298405.got.cif
#   From: 2010.05.17/outbox.cif.g08.bks.cpg/sg15_150_cif.got.tgz:298405.got - 2010.06.03 18:47:42.
