data_PCOD9294273
_publ_section_title
;
Structure prediction by ZEFSAII (Michael W. Deem and Ramdas Pophale) SiO2 
 PCOD9294273
Probable space group: C 2/C
;
_chemical_formula_sum "Si O2"
_cell_formula_units_Z 48
_cell_length_a 15.187008
_cell_length_b 9.182518
_cell_length_c 22.599620
_cell_angle_alpha 90.000000
_cell_angle_beta 139.851318
_cell_angle_gamma 90.000000
_cell_volume 2032.086573
_symmetry_space_group_name_H-M "C 2/C"
_symmetry_group_IT_number 15
_symmetry_cell_setting 'monoclinic'
loop_
_space_group_symop_operation_xyz
x,y,z
-x,y,1/2-z
-x,-y,-z
x,-y,1/2+z
1/2+x,1/2+y,z
1/2-x,1/2+y,1/2-z
1/2-x,1/2-y,-z
1/2+x,1/2-y,1/2+z
loop_
_atom_site_type_symbol
_atom_site_label
_atom_site_fract_x
_atom_site_fract_y
_atom_site_fract_z
Si Si1 0.609824 0.697217 0.120172
Si Si2 0.873199 0.784203 0.416946
Si Si3 0.943267 0.967941 0.331442
Si Si4 0.106333 0.675977 0.256270
Si Si5 0.514591 0.984867 0.591062
Si Si6 0.223609 0.128674 0.436415
O O1 0.634589 0.618556 0.195713
O O2 0.737230 0.653349 0.145565
O O3 0.598288 0.867123 0.126035
O O4 0.467430 0.650156 0.017818
O O5 0.949146 0.635009 0.438370
O O6 0.736985 0.722591 0.381078
O O7 0.899256 0.883332 0.371444
O O8 0.905170 0.847361 0.264403
O O9 0.091344 0.031706 0.386046
O O10 0.061583 0.586064 0.176333
O O11 0.000000 0.633179 0.250000
O O12 0.355142 0.023360 0.507027
O O13 0.250000 0.250000 0.500000
#
# Coordination Sequence:
#
# PCOD9294273 Si02
#       6
#     8   8   8   8   8   8
#     4  11  21  43  63  90 128 165 205 259 322 380
#     4  10  23  39  68  96 126 163 207 274 321 376
#     4  11  24  42  66  94 126 170 211 268 323 384
#     4  11  27  40  61  91 126 171 210 253 319 388
#     4  10  23  42  63  91 127 163 204 266 316 377
#     4  11  21  38  68 100 121 155 220 264 319 376
#
# _framework density 23.621041999999999
#
# number of rings (size 3 to 8) (size 9 to 14) (size 15 to 20)
#    0.000    1.333    3.333    3.500    7.000    1.333 
#    0.000    0.833    0.000    0.000    0.000    0.000 
#    0.000    0.000    0.000    0.000    0.000    0.000 
#
# Total GULP energy -133738.636496 kJ/mol
# GULP energy per Si atom -5572.443187 kJ/mol
# Density = 2.356728 g / cm^3
# Si number density = 23.621042 Si / 1000 Ang^3
#
#
#
# Elastic Constant Matrix: (Units=GPa)
#
#
# Indices 1 2 3 4 5 6 
#
# 1 156.2969 22.2993 36.5801 0.0000 21.6513 0.0000
# 2 22.2993 90.1820 -1.0147 0.0000 2.2839 0.0000
# 3 36.5801 -1.0147 39.6999 0.0000 14.2236 0.0000
# 4 0.0000 0.0000 0.0000 13.5360 0.0000 5.5680
# 5 21.6513 2.2839 14.2236 0.0000 45.9064 0.0000
# 6 0.0000 0.0000 0.0000 5.5680 0.0000 36.4008
#
#
#
# Elastic Compliance Matrix: (Units=1/GPa)
#
#
# Indices 1 2 3 4 5 6 
#
# 1 0.008689 -0.002190 -0.007461 0.000000 -0.001677 0.000000
# 2 -0.002190 0.011665 0.002423 0.000000 -0.000298 0.000000
# 3 -0.007461 0.002423 0.034768 0.000000 -0.007374 0.000000
# 4 0.000000 0.000000 0.000000 0.078837 0.000000 -0.012059
# 5 -0.001677 -0.000298 -0.007374 0.000000 0.024874 0.000000
# 6 0.000000 0.000000 0.000000 -0.012059 0.000000 0.029317
#
#
# Mechanical properties :
#
#
# Convention : Reuss Voigt Hill
#
# Bulk Modulus (GPa) = 24.59116 44.65648 34.62382
# Shear Modulus (GPa) = 23.13080 34.38960 28.76020
#
# Velocity S-wave (km/s) = 3.13268 3.81975 3.49315
# Velocity P-wave (km/s) = 4.84956 6.19681 5.56411
#
# Compressibility (1/GPa) = 0.04066502
#
# Stress axis : x y z
#
# Youngs Moduli (GPa) = 115.08583 85.72637 28.76227
#
# Poissons Ratio (x) = 0.18774 0.21460
# Poissons Ratio (y) = 0.25204 -0.06969
# Poissons Ratio (z) = 0.85869 -0.20771
#
# Static dielectric constant tensor:
#      x y z
#    x 2.007730 0.000000 -0.070430 
#    y 0.000000 1.912500 0.000000 
#    z -0.070430 0.000000 2.024980 
# 
# From -- ./inp_files/295469.got.cif
#   From: 2010.05.17/outbox.cif.g08.bks.cpg/sg15_148_cif.got.tgz:295469.got - 2010.06.03 18:47:42.
