data_PCOD9294797
_publ_section_title
;
Structure prediction by ZEFSAII (Michael W. Deem and Ramdas Pophale) SiO2 
 PCOD9294797
Probable space group: C 2/C
;
_chemical_formula_sum "Si O2"
_cell_formula_units_Z 56
_cell_length_a 21.002555
_cell_length_b 11.661326
_cell_length_c 11.017317
_cell_angle_alpha 90.000000
_cell_angle_beta 62.387050
_cell_angle_gamma 90.000000
_cell_volume 2390.991774
_symmetry_space_group_name_H-M "C 2/C"
_symmetry_group_IT_number 15
_symmetry_cell_setting 'monoclinic'
loop_
_space_group_symop_operation_xyz
x,y,z
-x,y,1/2-z
-x,-y,-z
x,-y,1/2+z
1/2+x,1/2+y,z
1/2-x,1/2+y,1/2-z
1/2-x,1/2-y,-z
1/2+x,1/2-y,1/2+z
loop_
_atom_site_type_symbol
_atom_site_label
_atom_site_fract_x
_atom_site_fract_y
_atom_site_fract_z
Si Si1 0.360045 0.726407 0.688204
Si Si2 0.019386 0.128291 0.526585
Si Si3 0.743504 0.433442 0.354530
Si Si4 0.077933 0.846832 0.726944
Si Si5 0.145594 0.078460 0.585022
Si Si6 0.625065 0.009832 0.378033
Si Si7 0.886776 0.594084 0.856605
O O1 0.443777 0.690600 0.606835
O O2 0.313968 0.663147 0.625480
O O3 0.331446 0.672238 0.838553
O O4 0.357206 0.861241 0.679084
O O5 0.068025 0.180814 0.376963
O O6 0.070086 0.120064 0.597200
O O7 0.000000 0.000000 0.500000
O O8 0.700173 0.547352 0.429360
O O9 0.797736 0.447028 0.193450
O O10 0.800372 0.408915 0.411735
O O11 0.092597 0.726653 0.648261
O O12 0.000000 0.886622 0.750000
O O13 0.130866 0.953754 0.660613
O O14 0.594646 0.020698 0.540423
O O15 0.583975 0.953826 0.298823
#
# Coordination Sequence:
#
# PCOD9294797 Si02
#       7
#     8   8   8   8   8   8   8
#     4  12  23  41  68  97 136 176 216 287 334 394
#     4  12  22  39  62 104 134 168 222 279 341 396
#     4  10  23  41  66  94 134 173 220 270 335 396
#     4  12  22  40  69  95 133 173 225 278 337 401
#     4  12  22  38  66 101 134 172 219 281 344 398
#     4  10  25  47  64  96 139 173 233 274 332 402
#     4  10  25  45  67  94 133 184 224 275 332 401
#
# _framework density 23.421241999999999
#
# number of rings (size 3 to 8) (size 9 to 14) (size 15 to 20)
#    0.857    0.000    4.286    3.000    0.000    6.286 
#    0.000    4.286    0.000    0.000    0.000    0.000 
#    0.000    0.000    0.000    0.000    0.000    0.000 
#
# Total GULP energy -156406.007299 kJ/mol
# GULP energy per Si atom -5585.928832 kJ/mol
# Density = 2.336793 g / cm^3
# Si number density = 23.421242 Si / 1000 Ang^3
#
#
#
# Elastic Constant Matrix: (Units=GPa)
#
#
# Indices 1 2 3 4 5 6 
#
# 1 59.6032 8.3091 20.0918 0.0000 -0.9896 0.0000
# 2 8.3091 42.7702 2.1565 0.0000 13.4708 0.0000
# 3 20.0918 2.1565 82.5543 0.0000 20.6264 0.0000
# 4 0.0000 0.0000 0.0000 36.5507 0.0000 8.1140
# 5 -0.9896 13.4708 20.6264 0.0000 39.9723 0.0000
# 6 0.0000 0.0000 0.0000 8.1140 0.0000 11.8440
#
#
#
# Elastic Compliance Matrix: (Units=1/GPa)
#
#
# Indices 1 2 3 4 5 6 
#
# 1 0.019596 -0.005178 -0.005960 0.000000 0.005305 0.000000
# 2 -0.005178 0.027746 0.003333 0.000000 -0.011199 0.000000
# 3 -0.005960 0.003333 0.015836 0.000000 -0.009442 0.000000
# 4 0.000000 0.000000 0.000000 0.032266 0.000000 -0.022105
# 5 0.005305 -0.011199 -0.009442 0.000000 0.033795 0.000000
# 6 0.000000 0.000000 0.000000 -0.022105 0.000000 0.099575
#
#
# Mechanical properties :
#
#
# Convention : Reuss Voigt Hill
#
# Bulk Modulus (GPa) = 21.02155 27.33807 24.17981
# Shear Modulus (GPa) = 19.21020 27.96475 23.58747
#
# Velocity S-wave (km/s) = 2.86703 3.45917 3.17692
# Velocity P-wave (km/s) = 4.46707 5.25853 4.87887
#
# Compressibility (1/GPa) = 0.04757023
#
# Stress axis : x y z
#
# Youngs Moduli (GPa) = 51.02967 36.04174 63.14796
#
# Poissons Ratio (x) = 0.18661 0.37634
# Poissons Ratio (y) = 0.26421 -0.21049
# Poissons Ratio (z) = 0.30412 -0.12014
#
# Static dielectric constant tensor:
#      x y z
#    x 1.870570 0.000000 0.027350 
#    y 0.000000 1.840650 0.000000 
#    z 0.027350 0.000000 2.023830 
# 
# From -- ./inp_files/117474.got.cif
#   From: 2010.05.17/outbox.cif.g08.bks.cpg/sg15_59_cif.got.tgz:117474.got - 2010.06.03 18:47:42.
