data_PCOD9294410
_publ_section_title
;
Structure prediction by ZEFSAII (Michael W. Deem and Ramdas Pophale) SiO2 
 PCOD9294410
Probable space group: C 2/C
;
_chemical_formula_sum "Si O2"
_cell_formula_units_Z 44
_cell_length_a 11.286007
_cell_length_b 32.941391
_cell_length_c 6.148999
_cell_angle_alpha 90.000000
_cell_angle_beta 108.922438
_cell_angle_gamma 90.000000
_cell_volume 2162.512994
_symmetry_space_group_name_H-M "C 2/C"
_symmetry_group_IT_number 15
_symmetry_cell_setting 'monoclinic'
loop_
_space_group_symop_operation_xyz
x,y,z
-x,y,1/2-z
-x,-y,-z
x,-y,1/2+z
1/2+x,1/2+y,z
1/2-x,1/2+y,1/2-z
1/2-x,1/2-y,-z
1/2+x,1/2-y,1/2+z
loop_
_atom_site_type_symbol
_atom_site_label
_atom_site_fract_x
_atom_site_fract_y
_atom_site_fract_z
Si Si1 0.145261 0.012025 0.311627
Si Si2 0.645389 0.391470 0.809145
Si Si3 0.141878 0.274626 0.556662
Si Si4 0.000000 0.219165 0.750000
Si Si5 0.741474 0.672866 0.021376
Si Si6 0.630294 0.858697 0.292780
O O1 0.149703 0.060424 0.279182
O O2 0.000000 0.997854 0.250000
O O3 0.193141 0.004399 0.596921
O O4 0.500000 0.380112 0.750000
O O5 0.694585 0.363359 0.645139
O O6 0.742498 0.380814 0.059256
O O7 0.250000 0.250000 0.500000
O O8 0.022635 0.247327 0.550448
O O9 0.201691 0.289458 0.816807
O O10 0.119247 0.316733 0.420451
O O11 0.878145 0.190925 0.673071
O O12 0.849716 0.654457 0.940013
O O13 0.500000 0.881870 0.250000
#
# Coordination Sequence:
#
# PCOD9294410 Si02
#       6
#     8   8   8   4   8   8
#     4   9  19  37  65 102 136 171 208 261 328 393
#     4  10  23  40  64  96 131 161 207 259 315 392
#     4  11  24  37  54  82 115 159 209 268 320 377
#     4  12  22  38  62  80 116 156 214 276 316 368
#     4  11  24  39  57  88 114 167 207 262 325 373
#     4  11  24  42  61  86 122 168 213 261 326 385
#
# _framework density 20.346699000000001
#
# number of rings (size 3 to 8) (size 9 to 14) (size 15 to 20)
#    0.000    1.455    1.818    2.727    7.636    2.182 
#    1.636    0.000    0.000    1.091    0.000    0.000 
#    0.000    0.000    0.000    0.000    0.000    0.000 
#
# Total GULP energy -122578.646517 kJ/mol
# GULP energy per Si atom -5571.756660 kJ/mol
# Density = 2.030039 g / cm^3
# Si number density = 20.346699 Si / 1000 Ang^3
#
#
#
# Elastic Constant Matrix: (Units=GPa)
#
#
# Indices 1 2 3 4 5 6 
#
# 1 109.1293 18.3873 29.2805 0.0000 -9.3652 0.0000
# 2 18.3873 59.1331 17.0127 0.0000 -11.6497 0.0000
# 3 29.2805 17.0127 74.6891 0.0000 -15.2447 0.0000
# 4 0.0000 0.0000 0.0000 10.5779 0.0000 4.5541
# 5 -9.3652 -11.6497 -15.2447 0.0000 37.8038 0.0000
# 6 0.0000 0.0000 0.0000 4.5541 0.0000 5.7269
#
#
#
# Elastic Compliance Matrix: (Units=1/GPa)
#
#
# Indices 1 2 3 4 5 6 
#
# 1 0.010517 -0.002153 -0.003526 0.000000 0.000520 0.000000
# 2 -0.002153 0.019192 -0.002647 0.000000 0.004313 0.000000
# 3 -0.003526 -0.002647 0.016377 0.000000 0.004915 0.000000
# 4 0.000000 0.000000 0.000000 0.143753 0.000000 -0.114315
# 5 0.000520 0.004313 0.004915 0.000000 0.029892 0.000000
# 6 0.000000 0.000000 0.000000 -0.114315 0.000000 0.265520
#
#
# Mechanical properties :
#
#
# Convention : Reuss Voigt Hill
#
# Bulk Modulus (GPa) = 33.97552 41.36806 37.67179
# Shear Modulus (GPa) = 9.77103 22.70645 16.23874
#
# Velocity S-wave (km/s) = 2.19379 3.34425 2.82813
# Velocity P-wave (km/s) = 4.81160 5.94035 5.40552
#
# Compressibility (1/GPa) = 0.02943296
#
# Stress axis : x y z
#
# Youngs Moduli (GPa) = 95.08385 52.10536 61.05958
#
# Poissons Ratio (x) = 0.11220 0.21532
# Poissons Ratio (y) = 0.20474 0.16162
# Poissons Ratio (z) = 0.33531 0.13792
#
# Static dielectric constant tensor:
#      x y z
#    x 1.775450 0.000000 0.014350 
#    y 0.000000 1.680280 0.000000 
#    z 0.014350 0.000000 1.885350 
# 
# From -- ./inp_files/5873.got.cif
#   From: 2010.05.17/outbox.cif.g08.bks.cpg/sg15_3_cif.got.tgz:5873.got - 2010.06.03 18:47:42.
