data_PCOD9294460
_publ_section_title
;
Structure prediction by ZEFSAII (Michael W. Deem and Ramdas Pophale) SiO2 
 PCOD9294460
Probable space group: C 2/C
;
_chemical_formula_sum "Si O2"
_cell_formula_units_Z 56
_cell_length_a 30.722162
_cell_length_b 18.636225
_cell_length_c 5.383092
_cell_angle_alpha 90.000000
_cell_angle_beta 47.932437
_cell_angle_gamma 90.000000
_cell_volume 2287.985773
_symmetry_space_group_name_H-M "C 2/C"
_symmetry_group_IT_number 15
_symmetry_cell_setting 'monoclinic'
loop_
_space_group_symop_operation_xyz
x,y,z
-x,y,1/2-z
-x,-y,-z
x,-y,1/2+z
1/2+x,1/2+y,z
1/2-x,1/2+y,1/2-z
1/2-x,1/2-y,-z
1/2+x,1/2-y,1/2+z
loop_
_atom_site_type_symbol
_atom_site_label
_atom_site_fract_x
_atom_site_fract_y
_atom_site_fract_z
Si Si1 0.763891 0.811774 0.761765
Si Si2 0.097500 0.203568 0.856641
Si Si3 0.943493 0.662686 0.294415
Si Si4 0.352935 0.175101 0.047632
Si Si5 0.608369 0.048810 0.291176
Si Si6 0.725214 0.532260 0.245936
Si Si7 0.416658 0.461073 0.161840
O O1 0.833122 0.808130 0.453412
O O2 0.755489 0.889882 0.910308
O O3 0.750000 0.750000 0.000000
O O4 0.714365 0.806266 0.741547
O O5 0.065829 0.258642 0.791021
O O6 0.071924 0.123080 0.943195
O O7 0.105564 0.254770 0.064935
O O8 0.885341 0.645359 0.680430
O O9 0.946529 0.598966 0.081323
O O10 0.000000 0.660749 0.250000
O O11 0.352803 0.118175 0.271557
O O12 0.612698 0.001438 0.528146
O O13 0.746131 0.518882 0.445983
O O14 0.654456 0.529829 0.542005
O O15 0.437174 0.490314 0.351302
#
# Coordination Sequence:
#
# PCOD9294460 Si02
#       7
#     8   8   8   8   8   8   8
#     4  11  22  39  67  96 137 179 224 276 344 415
#     4  10  23  40  66 100 136 179 225 285 345 421
#     4  11  25  46  71 101 136 185 240 294 351 413
#     4  11  24  42  67 100 139 179 230 281 357 415
#     4  11  24  47  71 100 139 182 239 297 348 408
#     4   9  20  37  54  86 124 170 213 255 316 389
#     4   9  19  35  62  91 127 166 212 262 323 402
#
# _framework density 24.475676
#
# number of rings (size 3 to 8) (size 9 to 14) (size 15 to 20)
#    0.000    1.714    2.857    0.429    2.000    8.571 
#    0.000    0.000    0.000    0.857    0.000    0.000 
#    0.000    0.000    0.000    0.000    0.000    0.000 
#
# Total GULP energy -156055.985559 kJ/mol
# GULP energy per Si atom -5573.428056 kJ/mol
# Density = 2.441997 g / cm^3
# Si number density = 24.475676 Si / 1000 Ang^3
#
#
#
# Elastic Constant Matrix: (Units=GPa)
#
#
# Indices 1 2 3 4 5 6 
#
# 1 151.0802 38.8064 40.1401 0.0000 5.6259 0.0000
# 2 38.8064 156.4075 43.4939 0.0000 22.1142 0.0000
# 3 40.1401 43.4939 100.8584 0.0000 13.5244 0.0000
# 4 0.0000 0.0000 0.0000 18.5741 0.0000 32.6227
# 5 5.6259 22.1142 13.5244 0.0000 40.6747 0.0000
# 6 0.0000 0.0000 0.0000 32.6227 0.0000 8.7076
#
#
#
# Elastic Compliance Matrix: (Units=1/GPa)
#
#
# Indices 1 2 3 4 5 6 
#
# 1 0.007599 -0.001243 -0.002552 0.000000 0.000473 0.000000
# 2 -0.001243 0.007847 -0.002449 0.000000 -0.003280 0.000000
# 3 -0.002552 -0.002449 0.012310 0.000000 -0.002408 0.000000
# 4 0.000000 0.000000 0.000000 -0.009648 0.000000 0.036147
# 5 0.000473 -0.003280 -0.002408 0.000000 0.027104 0.000000
# 6 0.000000 0.000000 0.000000 0.036147 0.000000 -0.020581
#
#
# Mechanical properties :
#
#
# Convention : Reuss Voigt Hill
#
# Bulk Modulus (GPa) = 65.49884 72.58077 69.03980
# Shear Modulus (GPa) = 118.46520 32.65166 75.55843
#
# Velocity S-wave (km/s) = 6.96464 3.65642 5.56218
# Velocity P-wave (km/s) = 9.56524 6.89525 8.33782
#
# Compressibility (1/GPa) = 0.01526745
#
# Stress axis : x y z
#
# Youngs Moduli (GPa) = 131.60490 127.44165 81.23708
#
# Poissons Ratio (x) = 0.15836 0.20729
# Poissons Ratio (y) = 0.16353 0.19899
# Poissons Ratio (z) = 0.33581 0.31216
#
# Static dielectric constant tensor:
#      x y z
#    x 2.057920 0.000000 -0.003760 
#    y 0.000000 1.994810 0.000000 
#    z -0.003760 0.000000 1.982250 
# 
# From -- ./inp_files/17210.got.cif
#   From: 2010.05.17/outbox.cif.g08.bks.cpg/sg15_9_cif.got.tgz:17210.got - 2010.06.03 18:47:42.
