data_PCOD9294426
_publ_section_title
;
Structure prediction by ZEFSAII (Michael W. Deem and Ramdas Pophale) SiO2 
 PCOD9294426
Probable space group: C 2/C
;
_chemical_formula_sum "Si O2"
_cell_formula_units_Z 48
_cell_length_a 27.413571
_cell_length_b 5.599399
_cell_length_c 14.546754
_cell_angle_alpha 90.000000
_cell_angle_beta 61.675311
_cell_angle_gamma 90.000000
_cell_volume 1965.578966
_symmetry_space_group_name_H-M "C 2/C"
_symmetry_group_IT_number 15
_symmetry_cell_setting 'monoclinic'
loop_
_space_group_symop_operation_xyz
x,y,z
-x,y,1/2-z
-x,-y,-z
x,-y,1/2+z
1/2+x,1/2+y,z
1/2-x,1/2+y,1/2-z
1/2-x,1/2-y,-z
1/2+x,1/2-y,1/2+z
loop_
_atom_site_type_symbol
_atom_site_label
_atom_site_fract_x
_atom_site_fract_y
_atom_site_fract_z
Si Si1 0.723422 0.418813 0.375259
Si Si2 0.733115 0.588264 0.653505
Si Si3 0.401758 0.524457 0.473792
Si Si4 0.551904 0.908494 0.174202
Si Si5 0.607979 0.292584 0.221758
Si Si6 0.503017 0.220221 0.425331
O O1 0.747069 0.408597 0.250323
O O2 0.745373 0.658356 0.404314
O O3 0.658116 0.472789 0.428255
O O4 0.740572 0.162807 0.403159
O O5 0.667228 0.614040 0.700762
O O6 0.399449 0.413557 0.372141
O O7 0.452980 0.407572 0.481924
O O8 0.414755 0.796406 0.439240
O O9 0.500000 0.736419 0.250000
O O10 0.596311 0.011728 0.206469
O O11 0.514462 0.100174 0.155099
O O12 0.562347 0.329488 0.342377
O O13 0.500000 0.000000 0.500000
#
# Coordination Sequence:
#
# PCOD9294426 Si02
#       6
#     8   8   8   8   8   8
#     4  10  25  44  70  95 139 183 239 300 360 419
#     4  10  24  46  66 100 135 184 238 301 358 418
#     4  11  23  41  67  96 137 183 230 292 354 429
#     4   9  20  40  60  93 136 175 217 280 351 419
#     4  10  23  41  67  96 139 180 232 290 356 428
#     4  10  23  40  65 102 137 179 230 285 355 425
#
# _framework density 24.420286000000001
#
# number of rings (size 3 to 8) (size 9 to 14) (size 15 to 20)
#    0.000    2.000    0.000    2.500    9.333    4.667 
#    3.000    0.000    0.000    0.000    0.000    0.000 
#    0.000    0.000    0.000    0.000    0.000    0.000 
#
# Total GULP energy -133635.605149 kJ/mol
# GULP energy per Si atom -5568.150215 kJ/mol
# Density = 2.436470 g / cm^3
# Si number density = 24.420286 Si / 1000 Ang^3
#
#
#
# Elastic Constant Matrix: (Units=GPa)
#
#
# Indices 1 2 3 4 5 6 
#
# 1 117.3266 59.3755 15.8373 0.0000 -22.3424 0.0000
# 2 59.3755 110.5963 15.6864 0.0004 -7.2131 0.0004
# 3 15.8373 15.6864 49.6461 0.0000 2.2340 0.0000
# 4 0.0000 0.0004 0.0000 30.0326 0.0000 3.5318
# 5 -22.3424 -7.2131 2.2340 0.0000 50.6138 0.0000
# 6 0.0000 0.0004 0.0000 3.5318 0.0000 38.8438
#
#
#
# Elastic Compliance Matrix: (Units=1/GPa)
#
#
# Indices 1 2 3 4 5 6 
#
# 1 0.012974 -0.006308 -0.002368 0.000000 0.004933 0.000000
# 2 -0.006308 0.012646 -0.001943 0.000000 -0.000897 0.000000
# 3 -0.002368 -0.001943 0.021614 0.000000 -0.002276 0.000000
# 4 0.000000 0.000000 0.000000 0.033657 0.000000 -0.003060
# 5 0.004933 -0.000897 -0.002276 0.000000 0.021908 0.000000
# 6 0.000000 0.000000 0.000000 -0.003060 0.000000 0.026022
#
#
# Mechanical properties :
#
#
# Convention : Reuss Voigt Hill
#
# Bulk Modulus (GPa) = 38.46623 51.04082 44.75352
# Shear Modulus (GPa) = 31.50115 36.34270 33.92193
#
# Velocity S-wave (km/s) = 3.59550 3.86193 3.73109
# Velocity P-wave (km/s) = 5.74654 6.39002 6.07680
#
# Compressibility (1/GPa) = 0.02599683
#
# Stress axis : x y z
#
# Youngs Moduli (GPa) = 77.07427 79.07914 46.26591
#
# Poissons Ratio (x) = 0.49883 0.10955
# Poissons Ratio (y) = 0.48619 0.08989
# Poissons Ratio (z) = 0.18249 0.15364
#
# Static dielectric constant tensor:
#      x y z
#    x 1.986510 0.000000 -0.067930 
#    y 0.000000 2.258320 0.000000 
#    z -0.067930 0.000000 2.184080 
# 
# From -- ./inp_files/180008.got.cif
#   From: 2010.05.17/outbox.cif.g08.bks.cpg/sg15_91_cif.got.tgz:180008.got - 2010.06.03 18:47:42.
