data_PCOD9294583
_publ_section_title
;
Structure prediction by ZEFSAII (Michael W. Deem and Ramdas Pophale) SiO2 
 PCOD9294583
Probable space group: C 2/C
;
_chemical_formula_sum "Si O2"
_cell_formula_units_Z 40
_cell_length_a 9.924130
_cell_length_b 14.816830
_cell_length_c 12.450287
_cell_angle_alpha 90.000000
_cell_angle_beta 71.329051
_cell_angle_gamma 90.000000
_cell_volume 1734.394867
_symmetry_space_group_name_H-M "C 2/C"
_symmetry_group_IT_number 15
_symmetry_cell_setting 'monoclinic'
loop_
_space_group_symop_operation_xyz
x,y,z
-x,y,1/2-z
-x,-y,-z
x,-y,1/2+z
1/2+x,1/2+y,z
1/2-x,1/2+y,1/2-z
1/2-x,1/2-y,-z
1/2+x,1/2-y,1/2+z
loop_
_atom_site_type_symbol
_atom_site_label
_atom_site_fract_x
_atom_site_fract_y
_atom_site_fract_z
Si Si1 0.471246 0.257003 0.380814
Si Si2 0.339584 0.528070 0.318294
Si Si3 0.836691 0.514963 0.324467
Si Si4 0.689267 0.127664 0.956189
Si Si5 0.701971 0.346889 0.464019
O O1 0.500000 0.228359 0.250000
O O2 0.454276 0.181053 0.479003
O O3 0.318400 0.303902 0.410242
O O4 0.580913 0.326224 0.406059
O O5 0.500000 0.497040 0.250000
O O6 0.268733 0.567891 0.230698
O O7 0.222902 0.447209 0.359301
O O8 0.344084 0.593069 0.420226
O O9 0.799027 0.568847 0.440968
O O10 0.808672 0.411165 0.369415
O O11 0.000000 0.524025 0.250000
O O12 0.750000 0.250000 0.500000
#
# Coordination Sequence:
#
# PCOD9294583 Si02
#       5
#     8   8   8   8   8
#     4  11  23  43  69  99 138 181 225 287 350 409
#     4  11  24  46  72  98 139 184 234 285 346 413
#     4  11  25  43  70  99 139 187 231 281 348 415
#     4  10  23  40  71  98 130 179 236 277 340 419
#     4  11  27  43  67 104 142 177 233 288 345 410
#
# _framework density 23.062798999999998
#
# number of rings (size 3 to 8) (size 9 to 14) (size 15 to 20)
#    0.000    1.200    0.000    4.800    8.400    5.600 
#    0.000    0.000    0.000    0.000    0.000    0.000 
#    0.000    0.000    0.000    0.000    0.000    0.000 
#
# Total GULP energy -111372.366529 kJ/mol
# GULP energy per Si atom -5568.618326 kJ/mol
# Density = 2.301031 g / cm^3
# Si number density = 23.062799 Si / 1000 Ang^3
#
#
#
# Elastic Constant Matrix: (Units=GPa)
#
#
# Indices 1 2 3 4 5 6 
#
# 1 76.7561 11.7217 39.8645 0.0000 -1.2651 0.0000
# 2 11.7217 89.2687 46.5797 0.0000 -14.2646 0.0000
# 3 39.8645 46.5797 93.8273 0.0000 -23.2891 0.0000
# 4 0.0000 0.0000 0.0000 17.6774 0.0000 7.2879
# 5 -1.2651 -14.2646 -23.2891 0.0000 28.6759 0.0000
# 6 0.0000 0.0000 0.0000 7.2879 0.0000 22.1204
#
#
#
# Elastic Compliance Matrix: (Units=1/GPa)
#
#
# Indices 1 2 3 4 5 6 
#
# 1 0.017918 0.001919 -0.010185 0.000000 -0.006527 0.000000
# 2 0.001919 0.015397 -0.008187 0.000000 0.001094 0.000000
# 3 -0.010185 -0.008187 0.022454 0.000000 0.013714 0.000000
# 4 0.000000 0.000000 0.000000 0.065461 0.000000 -0.021567
# 5 -0.006527 0.001094 0.013714 0.000000 0.046267 0.000000
# 6 0.000000 0.000000 0.000000 -0.021567 0.000000 0.052313
#
#
# Mechanical properties :
#
#
# Convention : Reuss Voigt Hill
#
# Bulk Modulus (GPa) = 43.74288 50.68710 47.21499
# Shear Modulus (GPa) = 19.20587 24.47383 21.83985
#
# Velocity S-wave (km/s) = 2.88890 3.26111 3.08063
# Velocity P-wave (km/s) = 5.48960 6.01709 5.75939
#
# Compressibility (1/GPa) = 0.02286086
#
# Stress axis : x y z
#
# Youngs Moduli (GPa) = 55.81101 64.94701 44.53578
#
# Poissons Ratio (x) = -0.12463 0.45362
# Poissons Ratio (y) = -0.10710 0.36463
# Poissons Ratio (z) = 0.56846 0.53175
#
# Static dielectric constant tensor:
#      x y z
#    x 1.872030 0.000000 -0.310780 
#    y 0.000000 2.200170 0.000000 
#    z -0.310780 0.000000 5.099800 
# 
# From -- ./inp_files/85989.got.cif
#   From: 2010.05.17/outbox.cif.g08.bks.cpg/sg15_43_cif.got.tgz:85989.got - 2010.06.03 18:47:42.
