data_PCOD9294029
_publ_section_title
;
Structure prediction by ZEFSAII (Michael W. Deem and Ramdas Pophale) SiO2 
 PCOD9294029
Probable space group: C 2/C
;
_chemical_formula_sum "Si O2"
_cell_formula_units_Z 60
_cell_length_a 12.243662
_cell_length_b 8.030927
_cell_length_c 32.353580
_cell_angle_alpha 90.000000
_cell_angle_beta 118.593497
_cell_angle_gamma 90.000000
_cell_volume 2793.266157
_symmetry_space_group_name_H-M "C 2/C"
_symmetry_group_IT_number 15
_symmetry_cell_setting 'monoclinic'
loop_
_space_group_symop_operation_xyz
x,y,z
-x,y,1/2-z
-x,-y,-z
x,-y,1/2+z
1/2+x,1/2+y,z
1/2-x,1/2+y,1/2-z
1/2-x,1/2-y,-z
1/2+x,1/2-y,1/2+z
loop_
_atom_site_type_symbol
_atom_site_label
_atom_site_fract_x
_atom_site_fract_y
_atom_site_fract_z
Si Si1 0.225267 0.453977 0.909872
Si Si2 0.755261 0.793674 0.831006
Si Si3 0.524161 0.540115 0.174940
Si Si4 0.499418 0.246312 0.396325
Si Si5 0.439629 0.678875 0.499532
Si Si6 0.807217 0.294829 0.966555
Si Si7 0.000000 0.179201 0.750000
Si Si8 0.752545 0.558838 0.377593
O O1 0.258605 0.427590 0.868394
O O2 0.084726 0.398516 0.892398
O O3 0.309640 0.330405 0.953154
O O4 0.261279 0.636946 0.931159
O O5 0.767300 0.617282 0.857102
O O6 0.865924 0.837782 0.819489
O O7 0.618794 0.785537 0.785975
O O8 0.506136 0.400552 0.135921
O O9 0.547124 0.438513 0.221189
O O10 0.387855 0.621395 0.155743
O O11 0.559049 0.297240 0.451196
O O12 0.363325 0.173504 0.380936
O O13 0.500000 0.500000 0.500000
O O14 0.544210 0.803459 0.501308
O O15 0.766929 0.446882 0.930236
O O16 0.750000 0.250000 0.000000
#
# Coordination Sequence:
#
# PCOD9294029 Si02
#       8
#     8   8   8   8   8   8   4   8
#     4  11  22  39  67  98 134 192 227 269 349 395
#     4  11  24  46  76  97 134 183 222 290 353 406
#     4  11  24  46  73  95 142 174 221 290 346 409
#     4  11  22  42  64  99 143 179 228 283 321 418
#     4   9  20  35  57  90 133 183 228 260 328 387
#     4  10  23  38  60  99 147 181 233 283 317 402
#     4  10  24  48  66 110 124 166 232 286 358 418
#     4  10  24  41  65 101 135 179 233 267 338 404
#
# _framework density 21.480229999999999
#
# number of rings (size 3 to 8) (size 9 to 14) (size 15 to 20)
#    0.000    1.600    2.667    2.800    7.467    3.200 
#    0.000    2.667    0.000    0.800    0.000    0.000 
#    0.000    0.000    0.000    0.000    0.000    0.000 
#
# Total GULP energy -167548.167006 kJ/mol
# GULP energy per Si atom -5584.938900 kJ/mol
# Density = 2.143134 g / cm^3
# Si number density = 21.480230 Si / 1000 Ang^3
#
#
#
# Elastic Constant Matrix: (Units=GPa)
#
#
# Indices 1 2 3 4 5 6 
#
# 1 139.8842 51.4565 53.8990 0.0000 -0.3658 0.0000
# 2 51.4565 62.9113 20.3991 0.0000 10.8508 0.0000
# 3 53.8990 20.3991 105.5070 0.0000 -3.2654 0.0000
# 4 0.0000 0.0000 0.0000 28.9124 0.0000 -8.6864
# 5 -0.3658 10.8508 -3.2654 0.0000 36.8054 0.0000
# 6 0.0000 0.0000 0.0000 -8.6864 0.0000 30.2765
#
#
#
# Elastic Compliance Matrix: (Units=1/GPa)
#
#
# Indices 1 2 3 4 5 6 
#
# 1 0.012122 -0.008894 -0.004400 0.000000 0.002352 0.000000
# 2 -0.008894 0.024584 -0.000438 0.000000 -0.007375 0.000000
# 3 -0.004400 -0.000438 0.011846 0.000000 0.001136 0.000000
# 4 0.000000 0.000000 0.000000 0.037850 0.000000 0.010859
# 5 0.002352 -0.007375 0.001136 0.000000 0.029468 0.000000
# 6 0.000000 0.000000 0.000000 0.010859 0.000000 0.036144
#
#
# Mechanical properties :
#
#
# Convention : Reuss Voigt Hill
#
# Bulk Modulus (GPa) = 47.42099 62.20128 54.81114
# Shear Modulus (GPa) = 26.80865 31.36872 29.08869
#
# Velocity S-wave (km/s) = 3.53662 3.82560 3.68395
# Velocity P-wave (km/s) = 6.22908 6.96663 6.60815
#
# Compressibility (1/GPa) = 0.02108771
#
# Stress axis : x y z
#
# Youngs Moduli (GPa) = 82.49507 40.67727 84.41819
#
# Poissons Ratio (x) = 0.36177 0.37146
# Poissons Ratio (y) = 0.73369 0.03697
# Poissons Ratio (z) = 0.36300 0.01781
#
# Static dielectric constant tensor:
#      x y z
#    x 1.840360 0.000000 -0.000330 
#    y 0.000000 1.836340 0.000000 
#    z -0.000330 0.000000 1.795980 
# 
# From -- ./inp_files/310023.got.cif
#   From: 2010.05.17/outbox.cif.g08.bks.cpg/sg15_156_cif.got.tgz:310023.got - 2010.06.03 18:47:42.
