data_PCOD9294508
_publ_section_title
;
Structure prediction by ZEFSAII (Michael W. Deem and Ramdas Pophale) SiO2 
 PCOD9294508
Probable space group: C 2/C
;
_chemical_formula_sum "Si O2"
_cell_formula_units_Z 56
_cell_length_a 18.035006
_cell_length_b 16.305625
_cell_length_c 19.582168
_cell_angle_alpha 90.000000
_cell_angle_beta 149.333527
_cell_angle_gamma 90.000000
_cell_volume 2937.098287
_symmetry_space_group_name_H-M "C 2/C"
_symmetry_group_IT_number 15
_symmetry_cell_setting 'monoclinic'
loop_
_space_group_symop_operation_xyz
x,y,z
-x,y,1/2-z
-x,-y,-z
x,-y,1/2+z
1/2+x,1/2+y,z
1/2-x,1/2+y,1/2-z
1/2-x,1/2-y,-z
1/2+x,1/2-y,1/2+z
loop_
_atom_site_type_symbol
_atom_site_label
_atom_site_fract_x
_atom_site_fract_y
_atom_site_fract_z
Si Si1 0.818692 0.278006 0.798182
Si Si2 0.155970 0.857142 0.398066
Si Si3 0.265256 0.463689 0.553992
Si Si4 0.413040 0.076870 0.461915
Si Si5 0.093849 0.309525 0.213028
Si Si6 0.000000 0.429448 0.250000
Si Si7 0.500000 0.676623 0.250000
Si Si8 0.146506 0.758707 0.524415
O O1 0.740105 0.222820 0.793623
O O2 0.715653 0.279238 0.651379
O O3 0.845743 0.367903 0.849468
O O4 0.974687 0.245387 0.898121
O O5 0.186557 0.823190 0.497464
O O6 0.281764 0.825371 0.446986
O O7 0.000000 0.822834 0.250000
O O8 0.148638 0.954361 0.393064
O O9 0.211002 0.460047 0.588487
O O10 0.118800 0.470836 0.392447
O O11 0.362855 0.382081 0.623890
O O12 0.501551 0.142947 0.580436
O O13 0.500000 0.000000 0.500000
O O14 0.100175 0.375942 0.278314
O O15 0.026633 0.233037 0.203464
#
# Coordination Sequence:
#
# PCOD9294508 Si02
#       8
#     8   8   8   8   8   4   4   8
#     4  12  22  41  64  97 130 170 212 270 328 392
#     4  11  23  44  65  93 129 170 222 274 322 388
#     4  11  23  40  66  94 129 173 215 275 320 386
#     4  11  24  41  65  98 134 172 215 271 334 385
#     4  10  23  40  67  93 132 170 220 266 320 398
#     4   9  24  40  62  97 128 166 220 263 318 380
#     4  11  22  40  68  95 126 174 228 261 326 390
#     4  11  25  39  67  94 126 172 223 266 329 390
#
# _framework density 19.066437000000001
#
# number of rings (size 3 to 8) (size 9 to 14) (size 15 to 20)
#    0.000    1.143    5.000    0.857    2.000    5.143 
#    0.000    0.000    0.000    3.429    0.000    0.000 
#    0.000    0.000    0.000    0.000    0.000    0.000 
#
# Total GULP energy -156115.287281 kJ/mol
# GULP energy per Si atom -5575.545974 kJ/mol
# Density = 1.902304 g / cm^3
# Si number density = 19.066437 Si / 1000 Ang^3
#
#
#
# Elastic Constant Matrix: (Units=GPa)
#
#
# Indices 1 2 3 4 5 6 
#
# 1 91.5832 22.0237 9.5188 0.0023 2.7741 0.0006
# 2 22.0237 72.9851 17.3470 0.0090 -8.8690 0.0022
# 3 9.5188 17.3470 45.7298 0.0060 6.5136 0.0023
# 4 0.0023 0.0090 0.0060 -8.7788 0.0036 -3.0774
# 5 2.7741 -8.8690 6.5136 0.0036 30.6435 0.0007
# 6 0.0006 0.0022 0.0023 -3.0774 0.0007 17.6815
#
#
#
# Elastic Compliance Matrix: (Units=1/GPa)
#
#
# Indices 1 2 3 4 5 6 
#
# 1 0.011941 -0.003646 -0.000823 -0.000002 -0.001961 0.000000
# 2 -0.003646 0.017222 -0.006735 0.000014 0.006746 0.000001
# 3 -0.000823 -0.006735 0.025637 0.000008 -0.007324 -0.000001
# 4 -0.000002 0.000014 0.000008 -0.107360 0.000016 -0.018686
# 5 -0.001961 0.006746 -0.007324 0.000016 0.036320 0.000001
# 6 0.000000 0.000001 -0.000001 -0.018686 0.000001 0.053304
#
#
# Mechanical properties :
#
#
# Convention : Reuss Voigt Hill
#
# Bulk Modulus (GPa) = 30.87198 34.23081 32.55139
# Shear Modulus (GPa) = 71.15468 18.66979 44.91224
#
# Velocity S-wave (km/s) = 6.11558 3.13261 4.85868
# Velocity P-wave (km/s) = 8.12983 5.57465 6.97032
#
# Compressibility (1/GPa) = 0.03239184
#
# Stress axis : x y z
#
# Youngs Moduli (GPa) = 83.74692 58.06480 39.00608
#
# Poissons Ratio (x) = 0.21170 0.03211
# Poissons Ratio (y) = 0.30533 0.26271
# Poissons Ratio (z) = 0.06894 0.39107
#
# Static dielectric constant tensor:
#      x y z
#    x 1.665690 0.000000 0.010240 
#    y 0.000000 1.677070 0.000000 
#    z 0.010240 0.000000 1.688400 
# 
# From -- ./inp_files/249311.got.cif
#   From: 2010.05.17/outbox.cif.g08.bks.cpg/sg15_125_cif.got.tgz:249311.got - 2010.06.03 18:47:42.
