data_PCOD9294826
_publ_section_title
;
Structure prediction by ZEFSAII (Michael W. Deem and Ramdas Pophale) SiO2 
 PCOD9294826
Probable space group: C 2/C
;
_chemical_formula_sum "Si O2"
_cell_formula_units_Z 40
_cell_length_a 15.060378
_cell_length_b 11.953234
_cell_length_c 17.902638
_cell_angle_alpha 90.000000
_cell_angle_beta 149.278987
_cell_angle_gamma 90.000000
_cell_volume 1646.412744
_symmetry_space_group_name_H-M "C 2/C"
_symmetry_group_IT_number 15
_symmetry_cell_setting 'monoclinic'
loop_
_space_group_symop_operation_xyz
x,y,z
-x,y,1/2-z
-x,-y,-z
x,-y,1/2+z
1/2+x,1/2+y,z
1/2-x,1/2+y,1/2-z
1/2-x,1/2-y,-z
1/2+x,1/2-y,1/2+z
loop_
_atom_site_type_symbol
_atom_site_label
_atom_site_fract_x
_atom_site_fract_y
_atom_site_fract_z
Si Si1 0.618232 0.519687 0.232448
Si Si2 0.855730 0.683376 0.484125
Si Si3 0.701641 0.900925 0.786873
Si Si4 0.880576 0.671409 0.953647
Si Si5 0.745748 0.924654 0.440443
O O1 0.685756 0.629862 0.323643
O O2 0.680789 0.540357 0.192322
O O3 0.724652 0.416378 0.342611
O O4 0.413593 0.509243 0.092842
O O5 0.831980 0.815695 0.464520
O O6 0.863314 0.632356 0.572174
O O7 0.018589 0.650274 0.551693
O O8 0.807047 0.796466 0.897529
O O9 0.526121 0.854238 0.621166
O O10 0.663366 0.991705 0.822185
#
# Coordination Sequence:
#
# PCOD9294826 Si02
#       5
#     8   8   8   8   8
#     4  11  23  41  68  98 142 186 244 298 347 444
#     4  10  23  41  67 106 145 177 236 300 371 418
#     4  11  23  40  71 102 143 189 247 293 353 435
#     4  11  24  44  69 106 141 193 248 293 350 438
#     4  11  23  42  71 105 142 188 231 308 369 417
#
# _framework density 24.295245999999999
#
# number of rings (size 3 to 8) (size 9 to 14) (size 15 to 20)
#    0.000    1.200    2.000    4.800    5.600    1.600 
#    0.000    7.000    0.000    2.400    0.000    0.000 
#    0.000    0.000    0.000    0.000    0.000    0.000 
#
# Total GULP energy -112117.637063 kJ/mol
# GULP energy per Si atom -5605.881853 kJ/mol
# Density = 2.423995 g / cm^3
# Si number density = 24.295246 Si / 1000 Ang^3
#
#
#
# Elastic Constant Matrix: (Units=GPa)
#
#
# Indices 1 2 3 4 5 6 
#
# 1 82.0999 63.8157 40.1471 0.0002 -14.5495 0.0000
# 2 63.8157 115.7047 64.3314 0.0010 -11.7143 0.0004
# 3 40.1471 64.3314 57.3164 0.0021 1.8015 0.0009
# 4 0.0002 0.0010 0.0021 46.7190 0.0005 -5.7055
# 5 -14.5495 -11.7143 1.8015 0.0005 30.6321 0.0001
# 6 0.0000 0.0004 0.0009 -5.7055 0.0001 34.0025
#
#
#
# Elastic Compliance Matrix: (Units=1/GPa)
#
#
# Indices 1 2 3 4 5 6 
#
# 1 0.023716 -0.007403 -0.008584 0.000000 0.008939 0.000000
# 2 -0.007403 0.029100 -0.027767 0.000001 0.009245 0.000000
# 3 -0.008584 -0.027767 0.055189 -0.000002 -0.017942 -0.000001
# 4 0.000000 0.000001 -0.000002 0.021852 0.000000 0.003667
# 5 0.008939 0.009245 -0.017942 0.000000 0.041482 0.000000
# 6 0.000000 0.000000 -0.000001 0.003667 0.000000 0.030025
#
#
# Mechanical properties :
#
#
# Convention : Reuss Voigt Hill
#
# Bulk Modulus (GPa) = 48.78624 65.74551 57.26587
# Shear Modulus (GPa) = 16.90883 28.05916 22.48400
#
# Velocity S-wave (km/s) = 2.64099 3.40210 3.04542
# Velocity P-wave (km/s) = 5.42438 6.52321 5.99901
#
# Compressibility (1/GPa) = 0.02049758
#
# Stress axis : x y z
#
# Youngs Moduli (GPa) = 42.16563 34.36454 18.11958
#
# Poissons Ratio (x) = 0.25439 0.15554
# Poissons Ratio (y) = 0.31213 0.50312
# Poissons Ratio (z) = 0.36196 0.95419
#
# Static dielectric constant tensor:
#      x y z
#    x 1.947710 0.000000 -0.009430 
#    y 0.000000 1.894900 0.000000 
#    z -0.009430 0.000000 1.957560 
# 
# From -- ./inp_files/248706.got.cif
#   From: 2010.05.17/outbox.cif.g08.bks.cpg/sg15_125_cif.got.tgz:248706.got - 2010.06.03 18:47:42.
