data_PCOD9294765
_publ_section_title
;
Structure prediction by ZEFSAII (Michael W. Deem and Ramdas Pophale) SiO2 
 PCOD9294765
Probable space group: C 2/C
;
_chemical_formula_sum "Si O2"
_cell_formula_units_Z 52
_cell_length_a 19.982930
_cell_length_b 19.709462
_cell_length_c 7.794931
_cell_angle_alpha 90.000000
_cell_angle_beta 52.469586
_cell_angle_gamma 90.000000
_cell_volume 2434.646286
_symmetry_space_group_name_H-M "C 2/C"
_symmetry_group_IT_number 15
_symmetry_cell_setting 'monoclinic'
loop_
_space_group_symop_operation_xyz
x,y,z
-x,y,1/2-z
-x,-y,-z
x,-y,1/2+z
1/2+x,1/2+y,z
1/2-x,1/2+y,1/2-z
1/2-x,1/2-y,-z
1/2+x,1/2-y,1/2+z
loop_
_atom_site_type_symbol
_atom_site_label
_atom_site_fract_x
_atom_site_fract_y
_atom_site_fract_z
Si Si1 0.622361 0.719581 0.133247
Si Si2 0.286267 0.865529 0.893588
Si Si3 0.711220 0.759275 0.312543
Si Si4 0.500000 0.827711 0.250000
Si Si5 0.472323 0.924009 0.595622
Si Si6 0.115064 0.058982 0.676613
Si Si7 0.446442 0.585993 0.112465
O O1 0.634832 0.751175 0.302388
O O2 0.575211 0.775317 0.094096
O O3 0.576905 0.650440 0.242012
O O4 0.712813 0.706680 0.910621
O O5 0.244839 0.815590 0.814541
O O6 0.371830 0.907976 0.727396
O O7 0.308550 0.808843 0.001124
O O8 0.209928 0.916359 0.065494
O O9 0.515871 0.874379 0.389395
O O10 0.500000 0.912400 0.750000
O O11 0.500000 0.000000 0.500000
O O12 0.093411 0.082104 0.516699
O O13 0.091236 0.979654 0.731878
O O14 0.046202 0.088485 0.916334
#
# Coordination Sequence:
#
# PCOD9294765 Si02
#       7
#     8   8   8   4   8   8   8
#     4  11  23  43  69 101 143 177 235 286 353 428
#     4  11  23  45  69 100 135 184 230 297 357 419
#     4  10  23  42  68 102 137 176 236 292 353 420
#     4  12  26  46  76 108 138 196 228 298 366 418
#     4  12  27  51  73 104 143 188 246 299 352 427
#     4  10  23  42  65  97 137 177 227 278 352 422
#     4  10  23  41  65  99 137 178 222 281 344 426
#
# _framework density 21.358339999999998
#
# number of rings (size 3 to 8) (size 9 to 14) (size 15 to 20)
#    0.000    1.231    3.846    0.923    4.308    2.462 
#    8.308    0.000    0.000    0.000    0.000    0.000 
#    0.000    0.000    0.000    0.000    0.000    0.000 
#
# Total GULP energy -145125.514432 kJ/mol
# GULP energy per Si atom -5581.750555 kJ/mol
# Density = 2.130973 g / cm^3
# Si number density = 21.358340 Si / 1000 Ang^3
#
#
#
# Elastic Constant Matrix: (Units=GPa)
#
#
# Indices 1 2 3 4 5 6 
#
# 1 54.9057 28.5696 15.9536 0.0000 3.0670 0.0000
# 2 28.5696 138.2831 66.0204 0.0000 -6.9111 0.0000
# 3 15.9536 66.0204 65.9609 0.0000 -7.2075 0.0000
# 4 0.0000 0.0000 0.0000 -3.1205 0.0000 24.5586
# 5 3.0670 -6.9111 -7.2075 0.0000 47.3407 0.0000
# 6 0.0000 0.0000 0.0000 24.5586 0.0000 -11.0037
#
#
#
# Elastic Compliance Matrix: (Units=1/GPa)
#
#
# Indices 1 2 3 4 5 6 
#
# 1 0.020678 -0.003600 -0.001629 0.000000 -0.002113 0.000000
# 2 -0.003600 0.014477 -0.013589 0.000000 0.000278 0.000000
# 3 -0.001629 -0.013589 0.029440 0.000000 0.002604 0.000000
# 4 0.000000 0.000000 0.000000 0.019346 0.000000 0.043177
# 5 -0.002113 0.000278 0.002604 0.000000 0.021697 0.000000
# 6 0.000000 0.000000 0.000000 0.043177 0.000000 0.005486
#
#
# Mechanical properties :
#
#
# Convention : Reuss Voigt Hill
#
# Bulk Modulus (GPa) = 37.09309 53.35963 45.22636
# Shear Modulus (GPa) = 31.69646 16.55036 24.12341
#
# Velocity S-wave (km/s) = 3.85649 2.78670 3.36439
# Velocity P-wave (km/s) = 6.10203 5.94908 6.02604
#
# Compressibility (1/GPa) = 0.02695920
#
# Stress axis : x y z
#
# Youngs Moduli (GPa) = 48.36150 69.07529 33.96719
#
# Poissons Ratio (x) = 0.24867 0.05533
# Poissons Ratio (y) = 0.17410 0.46158
# Poissons Ratio (z) = 0.07877 0.93866
#
# Static dielectric constant tensor:
#      x y z
#    x 1.839790 0.000000 0.017160 
#    y 0.000000 1.763810 0.000000 
#    z 0.017160 0.000000 1.777960 
# 
# From -- ./inp_files/56970.got.cif
#   From: 2010.05.17/outbox.cif.g08.bks.cpg/sg15_29_cif.got.tgz:56970.got - 2010.06.03 18:47:42.
