data_PCOD9294932
_publ_section_title
;
Structure prediction by ZEFSAII (Michael W. Deem and Ramdas Pophale) SiO2 
 PCOD9294932
Probable space group: C 2/C
;
_chemical_formula_sum "Si O2"
_cell_formula_units_Z 36
_cell_length_a 18.798011
_cell_length_b 14.739226
_cell_length_c 13.082252
_cell_angle_alpha 90.000000
_cell_angle_beta 151.807868
_cell_angle_gamma 90.000000
_cell_volume 1712.404321
_symmetry_space_group_name_H-M "C 2/C"
_symmetry_group_IT_number 15
_symmetry_cell_setting 'monoclinic'
loop_
_space_group_symop_operation_xyz
x,y,z
-x,y,1/2-z
-x,-y,-z
x,-y,1/2+z
1/2+x,1/2+y,z
1/2-x,1/2+y,1/2-z
1/2-x,1/2-y,-z
1/2+x,1/2-y,1/2+z
loop_
_atom_site_type_symbol
_atom_site_label
_atom_site_fract_x
_atom_site_fract_y
_atom_site_fract_z
Si Si1 0.044078 0.222447 0.697745
Si Si2 0.255901 0.945196 0.199634
Si Si3 0.500000 0.548006 0.750000
Si Si4 0.453702 0.081286 0.576350
Si Si5 0.715310 0.245326 0.223165
O O1 0.889758 0.219087 0.438543
O O2 0.000000 0.269712 0.750000
O O3 0.083213 0.119842 0.779914
O O4 0.163627 0.268667 0.775724
O O5 0.396877 0.926143 0.303341
O O6 0.202265 0.850650 0.179679
O O7 0.326796 0.012700 0.373289
O O8 0.120594 0.991030 0.965720
O O9 0.500000 0.062006 0.750000
O O10 0.384331 0.181272 0.473603
#
# Coordination Sequence:
#
# PCOD9294932 Si02
#       5
#     8   8   4   8   8
#     4  10  23  41  69  97 137 173 226 279 328 396
#     4  11  26  45  68 102 135 179 223 281 337 397
#     4  10  24  44  66  98 138 172 234 270 336 390
#     4  11  26  46  67 100 140 176 224 276 343 401
#     4  12  23  45  68 101 135 177 229 273 336 404
#
# _framework density 21.023071999999999
#
# number of rings (size 3 to 8) (size 9 to 14) (size 15 to 20)
#    0.667    0.444    4.444    0.667    4.667    4.444 
#    0.000    0.000    0.000    0.000    0.000    0.000 
#    0.000    0.000    0.000    0.000    0.000    0.000 
#
# Total GULP energy -100569.639868 kJ/mol
# GULP energy per Si atom -5587.202215 kJ/mol
# Density = 2.097522 g / cm^3
# Si number density = 21.023072 Si / 1000 Ang^3
#
#
#
# Elastic Constant Matrix: (Units=GPa)
#
#
# Indices 1 2 3 4 5 6 
#
# 1 49.2151 20.8337 30.3664 0.0000 -1.3307 0.0000
# 2 20.8337 104.7275 62.8546 0.0000 -4.5339 0.0000
# 3 30.3664 62.8546 158.6052 0.0000 -3.4175 0.0000
# 4 0.0000 0.0000 0.0000 12.8854 0.0000 -2.1669
# 5 -1.3307 -4.5339 -3.4175 0.0000 29.4097 0.0000
# 6 0.0000 0.0000 0.0000 -2.1669 0.0000 25.4470
#
#
#
# Elastic Compliance Matrix: (Units=1/GPa)
#
#
# Indices 1 2 3 4 5 6 
#
# 1 0.023570 -0.002588 -0.003481 0.000000 0.000263 0.000000
# 2 -0.002588 0.012867 -0.004575 0.000000 0.001335 0.000000
# 3 -0.003481 -0.004575 0.008788 0.000000 0.000158 0.000000
# 4 0.000000 0.000000 0.000000 0.078735 0.000000 0.006705
# 5 0.000263 0.001335 0.000158 0.000000 0.034239 0.000000
# 6 0.000000 0.000000 0.000000 0.006705 0.000000 0.039868
#
#
# Mechanical properties :
#
#
# Convention : Reuss Voigt Hill
#
# Bulk Modulus (GPa) = 41.77789 60.07303 50.92546
# Shear Modulus (GPa) = 21.99417 26.78130 24.38773
#
# Velocity S-wave (km/s) = 3.23800 3.57305 3.40964
# Velocity P-wave (km/s) = 5.82195 6.75715 6.30691
#
# Compressibility (1/GPa) = 0.02393610
#
# Stress axis : x y z
#
# Youngs Moduli (GPa) = 42.42748 77.71875 113.79281
#
# Poissons Ratio (x) = 0.20113 0.39615
# Poissons Ratio (y) = 0.10980 0.52058
# Poissons Ratio (z) = 0.14770 0.35555
#
# Static dielectric constant tensor:
#      x y z
#    x 1.777310 0.000000 -0.006520 
#    y 0.000000 1.738690 0.000000 
#    z -0.006520 0.000000 1.749250 
# 
# From -- ./inp_files/85835.got.cif
#   From: 2010.05.17/outbox.cif.g08.bks.cpg/sg15_43_cif.got.tgz:85835.got - 2010.06.03 18:47:42.
