data_PCOD9294969
_publ_section_title
;
Structure prediction by ZEFSAII (Michael W. Deem and Ramdas Pophale) SiO2 
 PCOD9294969
Probable space group: C 2/C
;
_chemical_formula_sum "Si O2"
_cell_formula_units_Z 44
_cell_length_a 9.636085
_cell_length_b 15.439457
_cell_length_c 11.424118
_cell_angle_alpha 90.000000
_cell_angle_beta 84.111424
_cell_angle_gamma 90.000000
_cell_volume 1690.665196
_symmetry_space_group_name_H-M "C 2/C"
_symmetry_group_IT_number 15
_symmetry_cell_setting 'monoclinic'
loop_
_space_group_symop_operation_xyz
x,y,z
-x,y,1/2-z
-x,-y,-z
x,-y,1/2+z
1/2+x,1/2+y,z
1/2-x,1/2+y,1/2-z
1/2-x,1/2-y,-z
1/2+x,1/2-y,1/2+z
loop_
_atom_site_type_symbol
_atom_site_label
_atom_site_fract_x
_atom_site_fract_y
_atom_site_fract_z
Si Si1 0.359839 0.701087 0.372305
Si Si2 0.882939 0.810506 0.500564
Si Si3 0.097160 0.594226 0.351060
Si Si4 0.744336 0.117031 0.630273
Si Si5 0.663247 0.050205 0.005449
Si Si6 0.500000 0.652076 0.750000
O O1 0.523950 0.691486 0.389648
O O2 0.234700 0.651307 0.315447
O O3 0.346576 0.799767 0.328919
O O4 0.307665 0.661033 0.504638
O O5 0.750000 0.750000 0.500000
O O6 0.811153 0.904193 0.500207
O O7 0.975177 0.609034 0.462164
O O8 0.147770 0.499342 0.384598
O O9 0.962516 0.795291 0.370241
O O10 0.000000 0.598389 0.250000
O O11 0.865805 0.101213 0.713858
O O12 0.672386 0.028326 0.598843
#
# Coordination Sequence:
#
# PCOD9294969 Si02
#       6
#     8   8   8   8   8   4
#     4   9  21  41  69  95 141 180 227 293 354 405
#     4  11  26  46  73 105 143 187 238 299 358 421
#     4  10  23  41  72 100 142 188 234 290 357 424
#     4   9  20  40  68  97 134 188 226 284 353 414
#     4  10  24  43  67 102 141 183 239 292 351 421
#     4  10  24  42  74 100 142 186 236 292 358 430
#
# _framework density 26.025258999999998
#
# number of rings (size 3 to 8) (size 9 to 14) (size 15 to 20)
#    0.000    2.182    0.000    0.000   16.545    6.545 
#    0.000    2.727    0.000    0.000    0.000    0.000 
#    0.000    0.000    0.000    0.000    0.000    0.000 
#
# Total GULP energy -122507.924226 kJ/mol
# GULP energy per Si atom -5568.542010 kJ/mol
# Density = 2.596602 g / cm^3
# Si number density = 26.025259 Si / 1000 Ang^3
#
#
#
# Elastic Constant Matrix: (Units=GPa)
#
#
# Indices 1 2 3 4 5 6 
#
# 1 132.3162 56.6369 47.5229 0.0000 37.0232 0.0000
# 2 56.6369 105.0667 43.5408 0.0000 22.7045 0.0000
# 3 47.5229 43.5408 146.0738 0.0000 72.6797 0.0000
# 4 0.0000 0.0000 0.0000 9.0071 0.0000 -2.0182
# 5 37.0232 22.7045 72.6797 0.0000 67.0382 0.0000
# 6 0.0000 0.0000 0.0000 -2.0182 0.0000 18.2807
#
#
#
# Elastic Compliance Matrix: (Units=1/GPa)
#
#
# Indices 1 2 3 4 5 6 
#
# 1 0.010884 -0.004968 0.000203 0.000000 -0.004548 0.000000
# 2 -0.004968 0.013131 -0.003149 0.000000 0.001710 0.000000
# 3 0.000203 -0.003149 0.015727 0.000000 -0.016096 0.000000
# 4 0.000000 0.000000 0.000000 0.113839 0.000000 0.012568
# 5 -0.004548 0.001710 -0.016096 0.000000 0.034301 0.000000
# 6 0.000000 0.000000 0.000000 0.012568 0.000000 0.056090
#
#
# Mechanical properties :
#
#
# Convention : Reuss Voigt Hill
#
# Bulk Modulus (GPa) = 41.81533 75.42866 58.62200
# Shear Modulus (GPa) = 18.67261 34.58227 26.62744
#
# Velocity S-wave (km/s) = 2.68149 3.64922 3.20212
# Velocity P-wave (km/s) = 5.06846 6.84116 6.02042
#
# Compressibility (1/GPa) = 0.02391467
#
# Stress axis : x y z
#
# Youngs Moduli (GPa) = 91.87717 76.15412 63.58419
#
# Poissons Ratio (x) = 0.37836 -0.01291
# Poissons Ratio (y) = 0.45648 0.20020
# Poissons Ratio (z) = -0.01866 0.23978
#
# Static dielectric constant tensor:
#      x y z
#    x 2.337810 0.000000 -0.096510 
#    y 0.000000 2.172980 0.000000 
#    z -0.096510 0.000000 2.137980 
# 
# From -- ./inp_files/244101.got.cif
#   From: 2010.05.17/outbox.cif.g08.bks.cpg/sg15_123_cif.got.tgz:244101.got - 2010.06.03 18:47:42.
