data_PCOD9294345
_publ_section_title
;
Structure prediction by ZEFSAII (Michael W. Deem and Ramdas Pophale) SiO2 
 PCOD9294345
Probable space group: C 2/C
;
_chemical_formula_sum "Si O2"
_cell_formula_units_Z 56
_cell_length_a 9.903330
_cell_length_b 11.506552
_cell_length_c 26.845481
_cell_angle_alpha 90.000000
_cell_angle_beta 123.850148
_cell_angle_gamma 90.000000
_cell_volume 2540.597382
_symmetry_space_group_name_H-M "C 2/C"
_symmetry_group_IT_number 15
_symmetry_cell_setting 'monoclinic'
loop_
_space_group_symop_operation_xyz
x,y,z
-x,y,1/2-z
-x,-y,-z
x,-y,1/2+z
1/2+x,1/2+y,z
1/2-x,1/2+y,1/2-z
1/2-x,1/2-y,-z
1/2+x,1/2-y,1/2+z
loop_
_atom_site_type_symbol
_atom_site_label
_atom_site_fract_x
_atom_site_fract_y
_atom_site_fract_z
Si Si1 0.657225 0.836996 0.814981
Si Si2 0.920688 0.700663 0.682333
Si Si3 0.833937 0.658608 0.069092
Si Si4 0.858447 0.961982 0.328936
Si Si5 0.813311 0.602115 0.393693
Si Si6 0.793287 0.076939 0.550792
Si Si7 0.760674 0.406214 0.301774
O O1 0.500000 0.867451 0.750000
O O2 0.642299 0.874651 0.868869
O O3 0.687899 0.700424 0.817772
O O4 0.807773 0.904109 0.821889
O O5 0.783782 0.610270 0.673005
O O6 0.000000 0.748591 0.750000
O O7 0.062489 0.635307 0.681580
O O8 0.826182 0.800710 0.633320
O O9 0.754556 0.787054 0.053114
O O10 0.012258 0.660151 0.080564
O O11 0.729452 0.571492 0.013448
O O12 0.849990 0.925968 0.269612
O O13 0.026368 0.940269 0.390887
O O14 0.811297 0.517809 0.441047
O O15 0.776288 0.518914 0.338980
#
# Coordination Sequence:
#
# PCOD9294345 Si02
#       7
#     8   8   8   8   8   8   8
#     4  12  24  42  68  97 134 172 219 278 339 399
#     4  10  23  40  61  98 136 171 217 279 339 392
#     4  11  24  45  65  95 134 174 226 276 329 402
#     4  11  23  42  65  96 137 173 218 278 335 400
#     4  12  23  42  71  95 134 180 218 285 330 398
#     4  11  24  42  67  95 129 180 226 272 334 399
#     4  11  25  39  65 103 132 169 226 270 340 401
#
# _framework density 22.042059999999999
#
# number of rings (size 3 to 8) (size 9 to 14) (size 15 to 20)
#    0.000    0.857    2.857    5.143    8.000    0.571 
#    0.000    0.000    0.000    4.286    0.000    0.000 
#    0.000    0.000    0.000    0.000    0.000    0.000 
#
# Total GULP energy -156700.007477 kJ/mol
# GULP energy per Si atom -5596.428838 kJ/mol
# Density = 2.199189 g / cm^3
# Si number density = 22.042060 Si / 1000 Ang^3
#
#
#
# Elastic Constant Matrix: (Units=GPa)
#
#
# Indices 1 2 3 4 5 6 
#
# 1 56.9904 7.9494 33.5159 0.0000 -3.4534 0.0000
# 2 7.9494 73.4635 11.2736 0.0000 -3.2567 0.0000
# 3 33.5159 11.2736 139.2301 0.0000 -6.0123 0.0000
# 4 0.0000 0.0000 0.0000 -0.4936 0.0000 13.8967
# 5 -3.4534 -3.2567 -6.0123 0.0000 35.1888 0.0000
# 6 0.0000 0.0000 0.0000 13.8967 0.0000 23.0748
#
#
#
# Elastic Compliance Matrix: (Units=1/GPa)
#
#
# Indices 1 2 3 4 5 6 
#
# 1 0.020639 -0.001449 -0.004805 0.000000 0.001071 0.000000
# 2 -0.001449 0.013927 -0.000735 0.000000 0.001021 0.000000
# 3 -0.004805 -0.000735 0.008437 0.000000 0.000902 0.000000
# 4 0.000000 0.000000 0.000000 -0.112831 0.000000 0.067952
# 5 0.001071 0.001021 0.000902 0.000000 0.028772 0.000000
# 6 0.000000 0.000000 0.000000 0.067952 0.000000 0.002414
#
#
# Mechanical properties :
#
#
# Convention : Reuss Voigt Hill
#
# Bulk Modulus (GPa) = 34.45033 41.68462 38.06748
# Shear Modulus (GPa) = -333.56828 26.01702 -153.77563
#
# Velocity S-wave (km/s) = -12.31508 3.43933 -8.36158
# Velocity P-wave (km/s) = 13.65839 5.89274 8.71284
#
# Compressibility (1/GPa) = 0.02902729
#
# Stress axis : x y z
#
# Youngs Moduli (GPa) = 48.45092 71.80298 118.51921
#
# Poissons Ratio (x) = 0.10401 0.56947
# Poissons Ratio (y) = 0.07018 0.08710
# Poissons Ratio (z) = 0.23280 0.05277
#
# Static dielectric constant tensor:
#      x y z
#    x 1.809050 0.000000 -0.008280 
#    y 0.000000 1.807850 0.000000 
#    z -0.008280 0.000000 1.818030 
# 
# From -- ./inp_files/307539.got.cif
#   From: 2010.05.17/outbox.cif.g08.bks.cpg/sg15_154_cif.got.tgz:307539.got - 2010.06.03 18:47:42.
