data_PCOD9294441
_publ_section_title
;
Structure prediction by ZEFSAII (Michael W. Deem and Ramdas Pophale) SiO2 
 PCOD9294441
Probable space group: C 2/C
;
_chemical_formula_sum "Si O2"
_cell_formula_units_Z 40
_cell_length_a 18.902820
_cell_length_b 9.042028
_cell_length_c 10.407704
_cell_angle_alpha 90.000000
_cell_angle_beta 78.182634
_cell_angle_gamma 90.000000
_cell_volume 1741.180194
_symmetry_space_group_name_H-M "C 2/C"
_symmetry_group_IT_number 15
_symmetry_cell_setting 'monoclinic'
loop_
_space_group_symop_operation_xyz
x,y,z
-x,y,1/2-z
-x,-y,-z
x,-y,1/2+z
1/2+x,1/2+y,z
1/2-x,1/2+y,1/2-z
1/2-x,1/2-y,-z
1/2+x,1/2-y,1/2+z
loop_
_atom_site_type_symbol
_atom_site_label
_atom_site_fract_x
_atom_site_fract_y
_atom_site_fract_z
Si Si1 0.559627 0.852714 0.337016
Si Si2 0.663551 0.266914 0.465006
Si Si3 0.781273 0.754397 0.696957
Si Si4 0.472024 0.808487 0.625801
Si Si5 0.757835 0.492920 0.991124
O O1 0.500000 0.809839 0.250000
O O2 0.634824 0.766079 0.296726
O O3 0.532215 0.829949 0.493850
O O4 0.564181 0.031971 0.325539
O O5 0.724801 0.266274 0.332044
O O6 0.588419 0.284704 0.423949
O O7 0.687480 0.405256 0.541047
O O8 0.674334 0.106870 0.528309
O O9 0.768863 0.625535 0.597330
O O10 0.758188 0.904892 0.633378
O O11 0.500000 0.746510 0.750000
#
# Coordination Sequence:
#
# PCOD9294441 Si02
#       5
#     8   8   8   8   8
#     4  10  23  40  65  95 130 170 218 270 327 388
#     4  11  23  41  67  95 130 172 219 272 321 393
#     4  11  23  41  67  95 130 172 219 272 321 393
#     4  10  23  40  65  95 130 170 218 270 327 388
#     4  10  24  38  66  94 132 164 226 264 334 374
#
# _framework density 22.972923000000002
#
# number of rings (size 3 to 8) (size 9 to 14) (size 15 to 20)
#    0.000    1.600    2.000    1.200   11.200    0.000 
#    0.000    2.000    0.000    0.000    0.000    0.000 
#    0.000    0.000    0.000    0.000    0.000    0.000 
#
# Total GULP energy -111769.881034 kJ/mol
# GULP energy per Si atom -5588.494052 kJ/mol
# Density = 2.292064 g / cm^3
# Si number density = 22.972923 Si / 1000 Ang^3
#
#
#
# Elastic Constant Matrix: (Units=GPa)
#
#
# Indices 1 2 3 4 5 6 
#
# 1 111.4630 17.5710 19.0745 0.0000 23.4448 0.0000
# 2 17.5710 73.8405 14.8049 0.0000 14.4214 0.0000
# 3 19.0745 14.8049 73.6753 0.0000 7.4084 0.0000
# 4 0.0000 0.0000 0.0000 24.7272 0.0000 4.5386
# 5 23.4448 14.4214 7.4084 0.0000 42.7965 0.0000
# 6 0.0000 0.0000 0.0000 4.5386 0.0000 21.0958
#
#
#
# Elastic Compliance Matrix: (Units=1/GPa)
#
#
# Indices 1 2 3 4 5 6 
#
# 1 0.010554 -0.001123 -0.001998 0.000000 -0.005058 0.000000
# 2 -0.001123 0.015070 -0.002329 0.000000 -0.004060 0.000000
# 3 -0.001998 -0.002329 0.014624 0.000000 -0.000652 0.000000
# 4 0.000000 0.000000 0.000000 0.042104 0.000000 -0.009058
# 5 -0.005058 -0.004060 -0.000652 0.000000 0.027618 0.000000
# 6 0.000000 0.000000 0.000000 -0.009058 0.000000 0.049352
#
#
# Mechanical properties :
#
#
# Convention : Reuss Voigt Hill
#
# Bulk Modulus (GPa) = 34.07508 40.20886 37.14197
# Shear Modulus (GPa) = 27.77696 31.55914 29.66805
#
# Velocity S-wave (km/s) = 3.48101 3.71044 3.59755
# Velocity P-wave (km/s) = 5.56969 5.99143 5.78440
#
# Compressibility (1/GPa) = 0.02934696
#
# Stress axis : x y z
#
# Youngs Moduli (GPa) = 94.74739 66.35770 68.38060
#
# Poissons Ratio (x) = 0.07453 0.13664
# Poissons Ratio (y) = 0.10641 0.15928
# Poissons Ratio (z) = 0.18933 0.15456
#
# Static dielectric constant tensor:
#      x y z
#    x 1.881500 0.000000 0.044690 
#    y 0.000000 1.892740 0.000000 
#    z 0.044690 0.000000 1.904840 
# 
# From -- ./inp_files/102687.got.cif
#   From: 2010.05.17/outbox.cif.g08.bks.cpg/sg15_52_cif.got.tgz:102687.got - 2010.06.03 18:47:42.
