data_PCOD9294266
_publ_section_title
;
Structure prediction by ZEFSAII (Michael W. Deem and Ramdas Pophale) SiO2 
 PCOD9294266
Probable space group: C 2/C
;
_chemical_formula_sum "Si O2"
_cell_formula_units_Z 32
_cell_length_a 15.389998
_cell_length_b 15.530401
_cell_length_c 9.541358
_cell_angle_alpha 90.000000
_cell_angle_beta 142.945618
_cell_angle_gamma 90.000000
_cell_volume 1374.171472
_symmetry_space_group_name_H-M "C 2/C"
_symmetry_group_IT_number 15
_symmetry_cell_setting 'monoclinic'
loop_
_space_group_symop_operation_xyz
x,y,z
-x,y,1/2-z
-x,-y,-z
x,-y,1/2+z
1/2+x,1/2+y,z
1/2-x,1/2+y,1/2-z
1/2-x,1/2-y,-z
1/2+x,1/2-y,1/2+z
loop_
_atom_site_type_symbol
_atom_site_label
_atom_site_fract_x
_atom_site_fract_y
_atom_site_fract_z
Si Si1 0.249306 0.724930 0.834657
Si Si2 0.848276 0.534691 0.852158
Si Si3 0.332347 0.512684 0.626721
Si Si4 0.518682 0.354052 0.531488
O O1 0.168372 0.634748 0.706424
O O2 0.150893 0.799282 0.640984
O O3 0.250000 0.750000 0.000000
O O4 0.406816 0.708549 0.970573
O O5 0.812605 0.516991 0.967064
O O6 0.718140 0.490596 0.597182
O O7 0.000000 0.500000 0.000000
O O8 0.415635 0.425831 0.778632
O O9 0.425472 0.593175 0.798768
#
# Coordination Sequence:
#
# PCOD9294266 Si02
#       4
#     8   8   8   8
#     4  11  22  38  69 100 132 170 241 278 326 397
#     4  11  24  41  70 100 134 179 230 282 338 407
#     4  10  23  43  68  96 141 181 223 275 353 412
#     4  10  23  39  67  99 133 173 226 284 336 390
#
# _framework density 23.286760000000001
#
# number of rings (size 3 to 8) (size 9 to 14) (size 15 to 20)
#    0.000    1.500    2.500    1.500    7.000    5.000 
#    0.000    1.250   11.000    0.000    0.000    0.000 
#    0.000    0.000    0.000    0.000    0.000    0.000 
#
# Total GULP energy -89594.206392 kJ/mol
# GULP energy per Si atom -5599.637899 kJ/mol
# Density = 2.323376 g / cm^3
# Si number density = 23.286760 Si / 1000 Ang^3
#
#
#
# Elastic Constant Matrix: (Units=GPa)
#
#
# Indices 1 2 3 4 5 6 
#
# 1 88.2766 32.5143 4.7889 0.0000 24.8372 0.0000
# 2 32.5143 111.6407 37.7360 0.0000 17.8085 0.0000
# 3 4.7889 37.7360 77.5182 0.0000 17.8918 0.0000
# 4 0.0000 0.0000 0.0000 33.9787 0.0000 16.5505
# 5 24.8372 17.8085 17.8918 0.0000 47.5047 0.0000
# 6 0.0000 0.0000 0.0000 16.5505 0.0000 36.2506
#
#
#
# Elastic Compliance Matrix: (Units=1/GPa)
#
#
# Indices 1 2 3 4 5 6 
#
# 1 0.014697 -0.004054 0.002725 0.000000 -0.007191 0.000000
# 2 -0.004054 0.012064 -0.005550 0.000000 -0.000312 0.000000
# 3 0.002725 -0.005550 0.016737 0.000000 -0.005648 0.000000
# 4 0.000000 0.000000 0.000000 0.037847 0.000000 -0.017279
# 5 -0.007191 -0.000312 -0.005648 0.000000 0.027054 0.000000
# 6 0.000000 0.000000 0.000000 -0.017279 0.000000 0.035475
#
#
# Mechanical properties :
#
#
# Convention : Reuss Voigt Hill
#
# Bulk Modulus (GPa) = 33.62542 47.50154 40.56348
# Shear Modulus (GPa) = 29.84268 37.03988 33.44128
#
# Velocity S-wave (km/s) = 3.58373 3.99256 3.79365
# Velocity P-wave (km/s) = 5.62096 6.45731 6.05360
#
# Compressibility (1/GPa) = 0.02973941
#
# Stress axis : x y z
#
# Youngs Moduli (GPa) = 68.04277 82.89125 59.74672
#
# Poissons Ratio (x) = 0.33608 -0.16284
# Poissons Ratio (y) = 0.27588 0.33161
# Poissons Ratio (z) = -0.18545 0.46006
#
# Static dielectric constant tensor:
#      x y z
#    x 1.894560 0.000000 0.015610 
#    y 0.000000 1.882310 0.000000 
#    z 0.015610 0.000000 1.884740 
# 
# From -- ./inp_files/47822.got.cif
#   From: 2010.05.17/outbox.cif.g08.bks.cpg/sg15_24_cif.got.tgz:47822.got - 2010.06.03 18:47:42.
