data_PCOD9294390
_publ_section_title
;
Structure prediction by ZEFSAII (Michael W. Deem and Ramdas Pophale) SiO2 
 PCOD9294390
Probable space group: C 2/C
;
_chemical_formula_sum "Si O2"
_cell_formula_units_Z 48
_cell_length_a 12.487508
_cell_length_b 19.007634
_cell_length_c 13.134516
_cell_angle_alpha 90.000000
_cell_angle_beta 132.567116
_cell_angle_gamma 90.000000
_cell_volume 2296.053929
_symmetry_space_group_name_H-M "C 2/C"
_symmetry_group_IT_number 15
_symmetry_cell_setting 'monoclinic'
loop_
_space_group_symop_operation_xyz
x,y,z
-x,y,1/2-z
-x,-y,-z
x,-y,1/2+z
1/2+x,1/2+y,z
1/2-x,1/2+y,1/2-z
1/2-x,1/2-y,-z
1/2+x,1/2-y,1/2+z
loop_
_atom_site_type_symbol
_atom_site_label
_atom_site_fract_x
_atom_site_fract_y
_atom_site_fract_z
Si Si1 0.161557 0.606448 0.398527
Si Si2 0.353063 0.756155 0.711893
Si Si3 0.106860 0.718272 0.030063
Si Si4 0.152595 0.622981 0.625955
Si Si5 0.126820 0.151653 0.406214
Si Si6 0.176085 0.457102 0.341270
O O1 0.225009 0.682176 0.404725
O O2 0.144627 0.592164 0.507491
O O3 0.227417 0.537238 0.390630
O O4 0.000000 0.613341 0.250000
O O5 0.500000 0.734035 0.750000
O O6 0.255236 0.689790 0.674228
O O7 0.398091 0.783781 0.851776
O O8 0.069435 0.793413 0.955307
O O9 0.994978 0.657782 0.926141
O O10 0.267205 0.698388 0.096423
O O11 0.201416 0.568560 0.742434
O O12 0.228166 0.093592 0.525092
O O13 0.000000 0.124763 0.250000
O O14 0.000000 0.454953 0.250000
#
# Coordination Sequence:
#
# PCOD9294390 Si02
#       6
#     8   8   8   8   8   8
#     4  10  23  40  64 100 130 172 225 272 329 394
#     4  11  22  40  65 101 134 173 222 275 335 395
#     4  11  22  38  67  99 130 174 223 278 326 395
#     4  12  22  42  70  96 132 171 227 279 329 393
#     4  11  24  41  65 100 139 173 222 278 335 394
#     4  11  24  42  69  99 131 176 225 273 335 398
#
# _framework density 20.905431
#
# number of rings (size 3 to 8) (size 9 to 14) (size 15 to 20)
#    0.000    1.000    6.667    1.500    2.333    4.000 
#    0.000    0.833    0.000    4.000    0.000    0.000 
#    0.000    0.000    0.000    0.000    0.000    0.000 
#
# Total GULP energy -133971.624270 kJ/mol
# GULP energy per Si atom -5582.151011 kJ/mol
# Density = 2.085785 g / cm^3
# Si number density = 20.905431 Si / 1000 Ang^3
#
#
#
# Elastic Constant Matrix: (Units=GPa)
#
#
# Indices 1 2 3 4 5 6 
#
# 1 75.8720 28.5898 28.2272 0.0000 -22.0376 0.0000
# 2 28.5898 99.6650 34.8428 0.0000 -13.0378 0.0000
# 3 28.2272 34.8428 92.5361 0.0000 -8.7199 0.0000
# 4 0.0000 0.0000 0.0000 -846.1447 0.0000 145.1880
# 5 -22.0376 -13.0378 -8.7199 0.0000 26.4958 0.0000
# 6 0.0000 0.0000 0.0000 145.1880 0.0000 4.9289
#
#
#
# Elastic Compliance Matrix: (Units=1/GPa)
#
#
# Indices 1 2 3 4 5 6 
#
# 1 0.019501 -0.002495 -0.003711 0.000000 0.013770 0.000000
# 2 -0.002495 0.012391 -0.003638 0.000000 0.002824 0.000000
# 3 -0.003711 -0.003638 0.013260 0.000000 -0.000513 0.000000
# 4 0.000000 0.000000 0.000000 -0.000195 0.000000 0.005750
# 5 0.013770 0.002824 -0.000513 0.000000 0.050416 0.000000
# 6 0.000000 0.000000 0.000000 0.005750 0.000000 0.033510
#
#
# Mechanical properties :
#
#
# Convention : Reuss Voigt Hill
#
# Bulk Modulus (GPa) = 39.27373 50.15474 44.71423
# Shear Modulus (GPa) = 31.83491 -151.18311 -59.67410
#
# Velocity S-wave (km/s) = 3.90655 -8.51320 -5.34853
# Velocity P-wave (km/s) = 6.25902 8.51995 4.08743
#
# Compressibility (1/GPa) = 0.02546231
#
# Stress axis : x y z
#
# Youngs Moduli (GPa) = 51.28000 80.70526 75.41311
#
# Poissons Ratio (x) = 0.20137 0.27989
# Poissons Ratio (y) = 0.12795 0.27437
# Poissons Ratio (z) = 0.19032 0.29363
#
# Static dielectric constant tensor:
#      x y z
#    x 1.761860 0.000000 0.014200 
#    y 0.000000 1.818150 0.000000 
#    z 0.014200 0.000000 1.807420 
# 
# From -- ./inp_files/89768.got.cif
#   From: 2010.05.17/outbox.cif.g08.bks.cpg/sg15_45_cif.got.tgz:89768.got - 2010.06.03 18:47:42.
