data_PCOD9294918
_publ_section_title
;
Structure prediction by ZEFSAII (Michael W. Deem and Ramdas Pophale) SiO2 
 PCOD9294918
Probable space group: C 2/C
;
_chemical_formula_sum "Si O2"
_cell_formula_units_Z 56
_cell_length_a 5.054818
_cell_length_b 17.746551
_cell_length_c 25.961923
_cell_angle_alpha 90.000000
_cell_angle_beta 69.296989
_cell_angle_gamma 90.000000
_cell_volume 2178.539936
_symmetry_space_group_name_H-M "C 2/C"
_symmetry_group_IT_number 15
_symmetry_cell_setting 'monoclinic'
loop_
_space_group_symop_operation_xyz
x,y,z
-x,y,1/2-z
-x,-y,-z
x,-y,1/2+z
1/2+x,1/2+y,z
1/2-x,1/2+y,1/2-z
1/2-x,1/2-y,-z
1/2+x,1/2-y,1/2+z
loop_
_atom_site_type_symbol
_atom_site_label
_atom_site_fract_x
_atom_site_fract_y
_atom_site_fract_z
Si Si1 0.023429 0.048834 0.095098
Si Si2 0.408464 0.000759 0.659491
Si Si3 0.078471 0.215838 0.304390
Si Si4 0.257689 0.645833 0.658857
Si Si5 0.500000 0.660069 0.750000
Si Si6 0.500000 0.090535 0.250000
Si Si7 0.819367 0.162999 0.489201
Si Si8 0.719297 0.599419 0.544234
O O1 0.152317 0.020158 0.139951
O O2 0.689904 0.036892 0.115912
O O3 0.165439 0.989783 0.045549
O O4 0.120587 0.131983 0.072382
O O5 0.355131 0.961921 0.717738
O O6 0.506880 0.087275 0.660001
O O7 0.302100 0.282402 0.294199
O O8 0.271149 0.141301 0.297703
O O9 0.000000 0.206614 0.250000
O O10 0.812461 0.264765 0.343684
O O11 0.328130 0.625181 0.714014
O O12 0.522094 0.627646 0.604441
O O13 0.750000 0.250000 0.500000
O O14 0.543345 0.120299 0.529744
O O15 0.094646 0.139852 0.502597
#
# Coordination Sequence:
#
# PCOD9294918 Si02
#       8
#     8   8   8   8   4   4   8   8
#     4  11  25  50  70 103 138 183 231 285 352 411
#     4  11  27  42  73 101 143 180 236 288 341 407
#     4   9  21  42  61  93 137 183 234 273 339 412
#     4  10  23  41  69 104 133 185 240 284 334 405
#     4   9  20  38  66  94 141 174 234 283 324 400
#     4  11  26  44  66 100 145 192 226 281 360 392
#     4  12  26  48  72 108 139 177 225 292 355 419
#     4  11  24  44  77 102 137 182 233 285 346 418
#
# _framework density 25.705287999999999
#
# number of rings (size 3 to 8) (size 9 to 14) (size 15 to 20)
#    0.000    1.429    0.000    3.857   11.000    1.143 
#   10.286    0.000    0.000    0.000    0.000    0.000 
#    0.000    0.000    0.000    0.000    0.000    0.000 
#
# Total GULP energy -156497.326956 kJ/mol
# GULP energy per Si atom -5589.190248 kJ/mol
# Density = 2.564678 g / cm^3
# Si number density = 25.705288 Si / 1000 Ang^3
#
#
#
# Elastic Constant Matrix: (Units=GPa)
#
#
# Indices 1 2 3 4 5 6 
#
# 1 72.0780 2.7287 5.4773 0.0000 7.2807 0.0000
# 2 2.7287 108.5076 17.6868 0.0000 6.2195 0.0000
# 3 5.4773 17.6868 51.9849 0.0000 9.8695 0.0000
# 4 0.0000 0.0000 0.0000 28.7952 0.0000 -4.5872
# 5 7.2807 6.2195 9.8695 0.0000 53.5259 0.0000
# 6 0.0000 0.0000 0.0000 -4.5872 0.0000 26.1282
#
#
#
# Elastic Compliance Matrix: (Units=1/GPa)
#
#
# Indices 1 2 3 4 5 6 
#
# 1 0.014135 -0.000072 -0.001141 0.000000 -0.001704 0.000000
# 2 -0.000072 0.009773 -0.003216 0.000000 -0.000533 0.000000
# 3 -0.001141 -0.003216 0.021089 0.000000 -0.003360 0.000000
# 4 0.000000 0.000000 0.000000 0.035727 0.000000 0.006272
# 5 -0.001704 -0.000533 -0.003360 0.000000 0.019596 0.000000
# 6 0.000000 0.000000 0.000000 0.006272 0.000000 0.039374
#
#
# Mechanical properties :
#
#
# Convention : Reuss Voigt Hill
#
# Bulk Modulus (GPa) = 27.67185 31.59514 29.63349
# Shear Modulus (GPa) = 31.13358 35.46839 33.30098
#
# Velocity S-wave (km/s) = 3.48397 3.71861 3.60320
# Velocity P-wave (km/s) = 5.19350 5.54575 5.37251
#
# Compressibility (1/GPa) = 0.03613781
#
# Stress axis : x y z
#
# Youngs Moduli (GPa) = 70.74427 102.32761 47.41880
#
# Poissons Ratio (x) = 0.00734 0.05413
# Poissons Ratio (y) = 0.00508 0.15251
# Poissons Ratio (z) = 0.08075 0.32911
#
# Static dielectric constant tensor:
#      x y z
#    x 2.414670 0.000000 0.006170 
#    y 0.000000 2.056490 0.000000 
#    z 0.006170 0.000000 2.104780 
# 
# From -- ./inp_files/286038.got.cif
#   From: 2010.05.17/outbox.cif.g08.bks.cpg/sg15_144_cif.got.tgz:286038.got - 2010.06.03 18:47:42.
