data_PCOD9294201
_publ_section_title
;
Structure prediction by ZEFSAII (Michael W. Deem and Ramdas Pophale) SiO2 
 PCOD9294201
Probable space group: C 2/C
;
_chemical_formula_sum "Si O2"
_cell_formula_units_Z 60
_cell_length_a 18.727983
_cell_length_b 8.792505
_cell_length_c 16.853371
_cell_angle_alpha 90.000000
_cell_angle_beta 106.724716
_cell_angle_gamma 90.000000
_cell_volume 2657.781010
_symmetry_space_group_name_H-M "C 2/C"
_symmetry_group_IT_number 15
_symmetry_cell_setting 'monoclinic'
loop_
_space_group_symop_operation_xyz
x,y,z
-x,y,1/2-z
-x,-y,-z
x,-y,1/2+z
1/2+x,1/2+y,z
1/2-x,1/2+y,1/2-z
1/2-x,1/2-y,-z
1/2+x,1/2-y,1/2+z
loop_
_atom_site_type_symbol
_atom_site_label
_atom_site_fract_x
_atom_site_fract_y
_atom_site_fract_z
Si Si1 0.212631 0.583416 0.574625
Si Si2 0.217965 0.891503 0.672590
Si Si3 0.226808 0.392145 0.434392
Si Si4 0.569034 0.251031 0.884292
Si Si5 0.866438 0.986002 0.704245
Si Si6 0.934696 0.384570 0.954023
Si Si7 0.612700 0.815947 0.731591
Si Si8 0.000000 0.454718 0.250000
O O1 0.202870 0.750291 0.608507
O O2 0.221735 0.547829 0.484163
O O3 0.286835 0.512601 0.636329
O O4 0.140600 0.483035 0.569515
O O5 0.299136 0.858596 0.738956
O O6 0.225442 0.052078 0.626303
O O7 0.155595 0.901032 0.721027
O O8 0.250000 0.250000 0.500000
O O9 0.145212 0.336524 0.384177
O O10 0.578426 0.405521 0.839597
O O11 0.501806 0.153929 0.826769
O O12 0.567315 0.244460 0.978431
O O13 0.895136 0.150662 0.735229
O O14 0.932177 0.319220 0.865466
O O15 0.000000 0.500000 0.000000
O O16 0.570870 0.938026 0.771631
#
# Coordination Sequence:
#
# PCOD9294201 Si02
#       8
#     8   8   8   8   8   8   8   4
#     4  10  23  39  63  99 138 172 229 285 346 404
#     4  11  24  40  67  99 138 179 231 290 346 410
#     4  11  22  39  65  99 135 171 225 282 351 405
#     4  11  25  41  69 100 135 181 228 284 351 414
#     4  11  25  40  66 103 138 177 227 299 345 401
#     4  11  23  44  72 103 135 187 238 280 346 430
#     4  11  25  43  67 101 139 184 236 285 342 417
#     4  12  24  46  72  92 136 180 238 282 346 428
#
# _framework density 22.575223999999999
#
# number of rings (size 3 to 8) (size 9 to 14) (size 15 to 20)
#    0.000    1.067    5.333    0.400    9.333    0.533 
#    0.000    0.000    2.933    2.400    0.000    0.000 
#    0.000    0.000    0.000    0.000    0.000    0.000 
#
# Total GULP energy -167512.780874 kJ/mol
# GULP energy per Si atom -5583.759362 kJ/mol
# Density = 2.252384 g / cm^3
# Si number density = 22.575224 Si / 1000 Ang^3
#
#
#
# Elastic Constant Matrix: (Units=GPa)
#
#
# Indices 1 2 3 4 5 6 
#
# 1 29.4567 24.6885 2.9910 0.0000 3.8163 0.0000
# 2 24.6885 109.4612 57.5794 0.0000 0.5758 0.0000
# 3 2.9910 57.5794 87.8118 0.0000 1.2828 0.0000
# 4 0.0000 0.0000 0.0000 36.1331 0.0000 2.8792
# 5 3.8163 0.5758 1.2828 0.0000 28.5594 0.0000
# 6 0.0000 0.0000 0.0000 2.8792 0.0000 23.4440
#
#
#
# Elastic Compliance Matrix: (Units=1/GPa)
#
#
# Indices 1 2 3 4 5 6 
#
# 1 0.046232 -0.014676 0.008140 0.000000 -0.006248 0.000000
# 2 -0.014676 0.018605 -0.011731 0.000000 0.002113 0.000000
# 3 0.008140 -0.011731 0.018828 0.000000 -0.001697 0.000000
# 4 0.000000 0.000000 0.000000 0.027949 0.000000 -0.003433
# 5 -0.006248 0.002113 -0.001697 0.000000 0.035883 0.000000
# 6 0.000000 0.000000 0.000000 -0.003433 0.000000 0.043076
#
#
# Mechanical properties :
#
#
# Convention : Reuss Voigt Hill
#
# Bulk Modulus (GPa) = 21.21773 44.13864 32.67818
# Shear Modulus (GPa) = 20.59158 27.05868 23.82513
#
# Velocity S-wave (km/s) = 3.02343 3.46584 3.25216
# Velocity P-wave (km/s) = 4.64836 5.96744 5.34872
#
# Compressibility (1/GPa) = 0.04713039
#
# Stress axis : x y z
#
# Youngs Moduli (GPa) = 21.63019 53.74772 53.11361
#
# Poissons Ratio (x) = 0.78882 -0.43235
# Poissons Ratio (y) = 0.31745 0.62307
# Poissons Ratio (z) = -0.17607 0.63050
#
# Static dielectric constant tensor:
#      x y z
#    x 1.878270 0.000000 -0.059660 
#    y 0.000000 1.951570 0.000000 
#    z -0.059660 0.000000 1.957680 
# 
# From -- ./inp_files/213974.got.cif
#   From: 2010.05.17/outbox.cif.g08.bks.cpg/sg15_107_cif.got.tgz:213974.got - 2010.06.03 18:47:42.
