data_PCOD9294327
_publ_section_title
;
Structure prediction by ZEFSAII (Michael W. Deem and Ramdas Pophale) SiO2 
 PCOD9294327
Probable space group: C 2/C
;
_chemical_formula_sum "Si O2"
_cell_formula_units_Z 48
_cell_length_a 20.682382
_cell_length_b 24.917290
_cell_length_c 15.198472
_cell_angle_alpha 90.000000
_cell_angle_beta 162.735097
_cell_angle_gamma 90.000000
_cell_volume 2324.612197
_symmetry_space_group_name_H-M "C 2/C"
_symmetry_group_IT_number 15
_symmetry_cell_setting 'monoclinic'
loop_
_space_group_symop_operation_xyz
x,y,z
-x,y,1/2-z
-x,-y,-z
x,-y,1/2+z
1/2+x,1/2+y,z
1/2-x,1/2+y,1/2-z
1/2-x,1/2-y,-z
1/2+x,1/2-y,1/2+z
loop_
_atom_site_type_symbol
_atom_site_label
_atom_site_fract_x
_atom_site_fract_y
_atom_site_fract_z
Si Si1 0.084151 0.178498 0.458066
Si Si2 0.524700 0.447287 0.416727
Si Si3 0.402349 0.722465 0.396529
Si Si4 0.357828 0.089351 0.208132
Si Si5 0.154287 0.065944 0.630123
Si Si6 0.761295 0.798131 0.898026
O O1 0.277368 0.221444 0.719543
O O2 0.146041 0.117029 0.556120
O O3 0.923404 0.193930 0.330087
O O4 0.000000 0.184568 0.250000
O O5 0.730382 0.424064 0.632404
O O6 0.565793 0.511111 0.473678
O O7 0.489618 0.425910 0.469355
O O8 0.307047 0.431483 0.080632
O O9 0.637478 0.741387 0.739060
O O10 0.287619 0.691526 0.327149
O O11 0.593337 0.062417 0.512105
O O12 0.367430 0.154127 0.220544
O O13 0.000000 0.796398 0.250000
#
# Coordination Sequence:
#
# PCOD9294327 Si02
#       6
#     8   8   8   8   8   8
#     4  11  23  40  65  87 124 168 215 257 313 371
#     4  10  23  40  64  90 129 162 206 267 315 379
#     4  10  23  40  60  93 129 164 207 261 309 378
#     4  11  21  40  67  91 127 165 203 260 330 375
#     4  11  23  42  64  94 123 167 214 259 319 379
#     4  11  20  38  62  94 129 164 202 254 325 380
#
# _framework density 20.648605
#
# number of rings (size 3 to 8) (size 9 to 14) (size 15 to 20)
#    0.000    1.333    3.333    3.000    2.333    0.000 
#    0.000    0.000    0.000    0.000    0.000    0.000 
#    0.000    0.000    0.000    0.000    0.000    0.000 
#
# Total GULP energy -134012.947196 kJ/mol
# GULP energy per Si atom -5583.872800 kJ/mol
# Density = 2.060161 g / cm^3
# Si number density = 20.648605 Si / 1000 Ang^3
#
#
#
# Elastic Constant Matrix: (Units=GPa)
#
#
# Indices 1 2 3 4 5 6 
#
# 1 68.4496 21.3236 11.3547 -0.0001 -9.3070 0.0001
# 2 21.3236 74.7571 16.1787 -0.0003 -13.1802 0.0002
# 3 11.3547 16.1787 35.8838 -0.0006 -0.9519 0.0008
# 4 -0.0001 -0.0003 -0.0006 10.6936 -0.0004 12.5467
# 5 -9.3070 -13.1802 -0.9519 -0.0004 17.1357 0.0001
# 6 0.0001 0.0002 0.0008 12.5467 0.0001 11.3853
#
#
#
# Elastic Compliance Matrix: (Units=1/GPa)
#
#
# Indices 1 2 3 4 5 6 
#
# 1 0.017076 -0.002797 -0.003959 0.000000 0.006904 0.000000
# 2 -0.002797 0.017711 -0.006789 -0.000001 0.011727 0.000002
# 3 -0.003959 -0.006789 0.032033 -0.000013 -0.005593 0.000012
# 4 0.000000 -0.000001 -0.000013 -0.319181 -0.000012 0.351741
# 5 0.006904 0.011727 -0.005593 -0.000012 0.070816 0.000013
# 6 0.000000 0.000002 0.000012 0.351741 0.000013 -0.299789
#
#
# Mechanical properties :
#
#
# Convention : Reuss Voigt Hill
#
# Bulk Modulus (GPa) = 25.17003 30.75607 27.96305
# Shear Modulus (GPa) = -11.33788 16.52515 2.59363
#
# Velocity S-wave (km/s) = -2.34580 2.83203 1.12197
# Velocity P-wave (km/s) = 2.20887 5.06174 3.90514
#
# Compressibility (1/GPa) = 0.03972979
#
# Stress axis : x y z
#
# Youngs Moduli (GPa) = 58.56181 56.46132 31.21756
#
# Poissons Ratio (x) = 0.15791 0.12360
# Poissons Ratio (y) = 0.16378 0.21195
# Poissons Ratio (z) = 0.23186 0.38333
#
# Static dielectric constant tensor:
#      x y z
#    x 1.749460 0.000000 0.018980 
#    y 0.000000 1.765030 0.000000 
#    z 0.018980 0.000000 1.739680 
# 
# From -- ./inp_files/169707.got.cif
#   From: 2010.05.17/outbox.cif.g08.bks.cpg/sg15_85_cif.got.tgz:169707.got - 2010.06.03 18:47:42.
