data_PCOD9294384
_publ_section_title
;
Structure prediction by ZEFSAII (Michael W. Deem and Ramdas Pophale) SiO2 
 PCOD9294384
Probable space group: C 2/C
;
_chemical_formula_sum "Si O2"
_cell_formula_units_Z 40
_cell_length_a 8.419238
_cell_length_b 10.119010
_cell_length_c 21.908805
_cell_angle_alpha 90.000000
_cell_angle_beta 113.057093
_cell_angle_gamma 90.000000
_cell_volume 1717.400698
_symmetry_space_group_name_H-M "C 2/C"
_symmetry_group_IT_number 15
_symmetry_cell_setting 'monoclinic'
loop_
_space_group_symop_operation_xyz
x,y,z
-x,y,1/2-z
-x,-y,-z
x,-y,1/2+z
1/2+x,1/2+y,z
1/2-x,1/2+y,1/2-z
1/2-x,1/2-y,-z
1/2+x,1/2-y,1/2+z
loop_
_atom_site_type_symbol
_atom_site_label
_atom_site_fract_x
_atom_site_fract_y
_atom_site_fract_z
Si Si1 0.581721 0.784450 0.696513
Si Si2 0.099967 0.038772 0.640166
Si Si3 0.601626 0.258237 0.029624
Si Si4 0.786708 0.520240 0.373621
Si Si5 0.206208 0.770886 0.605475
O O1 0.500000 0.801982 0.750000
O O2 0.666234 0.640163 0.701854
O O3 0.699753 0.898283 0.687045
O O4 0.411678 0.770370 0.626987
O O5 0.131918 0.122466 0.582431
O O6 0.182913 0.896613 0.644858
O O7 0.904074 0.999359 0.628038
O O8 0.614043 0.115107 0.063963
O O9 0.750000 0.250000 0.000000
O O10 0.416647 0.286245 0.971163
O O11 0.851699 0.370616 0.376312
#
# Coordination Sequence:
#
# PCOD9294384 Si02
#       5
#     8   8   8   8   8
#     4  10  25  45  62  86 125 164 214 267 310 369
#     4  10  23  42  64  94 128 164 208 255 320 377
#     4  11  22  38  65  94 136 165 199 256 318 388
#     4  10  23  40  63  94 126 162 209 260 316 376
#     4  11  23  38  65  95 122 168 206 247 319 380
#
# _framework density 23.291011999999998
#
# number of rings (size 3 to 8) (size 9 to 14) (size 15 to 20)
#    0.000    1.600    2.000    1.200    2.800   10.400 
#    0.000    1.000    0.000    0.000    0.000    0.000 
#    0.000    0.000    0.000    0.000    0.000    0.000 
#
# Total GULP energy -111600.039235 kJ/mol
# GULP energy per Si atom -5580.001962 kJ/mol
# Density = 2.323800 g / cm^3
# Si number density = 23.291012 Si / 1000 Ang^3
#
#
#
# Elastic Constant Matrix: (Units=GPa)
#
#
# Indices 1 2 3 4 5 6 
#
# 1 68.9999 57.8022 32.4236 0.0000 -26.9142 0.0000
# 2 57.8022 193.8931 45.2303 0.0000 -22.9377 0.0000
# 3 32.4236 45.2303 76.8070 0.0000 -27.5984 0.0000
# 4 0.0000 0.0000 0.0000 18.8598 0.0000 -4.0810
# 5 -26.9142 -22.9377 -27.5984 0.0000 36.2480 0.0000
# 6 0.0000 0.0000 0.0000 -4.0810 0.0000 37.0526
#
#
#
# Elastic Compliance Matrix: (Units=1/GPa)
#
#
# Indices 1 2 3 4 5 6 
#
# 1 0.025552 -0.005376 -0.002789 0.000000 0.013447 0.000000
# 2 -0.005376 0.007171 -0.002419 0.000000 -0.001296 0.000000
# 3 -0.002789 -0.002419 0.019723 0.000000 0.011415 0.000000
# 4 0.000000 0.000000 0.000000 0.054317 0.000000 0.005983
# 5 0.013447 -0.001296 0.011415 0.000000 0.045444 0.000000
# 6 0.000000 0.000000 0.000000 0.005983 0.000000 0.027648
#
#
# Mechanical properties :
#
#
# Convention : Reuss Voigt Hill
#
# Bulk Modulus (GPa) = 31.97084 67.84580 49.90832
# Shear Modulus (GPa) = 23.64627 32.04833 27.84730
#
# Velocity S-wave (km/s) = 3.18976 3.71347 3.46153
# Velocity P-wave (km/s) = 5.22710 6.89777 6.11972
#
# Compressibility (1/GPa) = 0.03127850
#
# Stress axis : x y z
#
# Youngs Moduli (GPa) = 39.13561 139.44681 50.70137
#
# Poissons Ratio (x) = 0.74967 0.14140
# Poissons Ratio (y) = 0.21040 0.12265
# Poissons Ratio (z) = 0.10915 0.33733
#
# Static dielectric constant tensor:
#      x y z
#    x 1.877560 0.000000 0.007390 
#    y 0.000000 1.952580 0.000000 
#    z 0.007390 0.000000 1.977590 
# 
# From -- ./inp_files/262425.got.cif
#   From: 2010.05.17/outbox.cif.g08.bks.cpg/sg15_132_cif.got.tgz:262425.got - 2010.06.03 18:47:42.
