data_PCOD9294010
_publ_section_title
;
Structure prediction by ZEFSAII (Michael W. Deem and Ramdas Pophale) SiO2 
 PCOD9294010
Probable space group: C 2/C
;
_chemical_formula_sum "Si O2"
_cell_formula_units_Z 40
_cell_length_a 13.183566
_cell_length_b 25.631139
_cell_length_c 5.651444
_cell_angle_alpha 90.000000
_cell_angle_beta 68.518022
_cell_angle_gamma 90.000000
_cell_volume 1777.018378
_symmetry_space_group_name_H-M "C 2/C"
_symmetry_group_IT_number 15
_symmetry_cell_setting 'monoclinic'
loop_
_space_group_symop_operation_xyz
x,y,z
-x,y,1/2-z
-x,-y,-z
x,-y,1/2+z
1/2+x,1/2+y,z
1/2-x,1/2+y,1/2-z
1/2-x,1/2-y,-z
1/2+x,1/2-y,1/2+z
loop_
_atom_site_type_symbol
_atom_site_label
_atom_site_fract_x
_atom_site_fract_y
_atom_site_fract_z
Si Si1 0.374789 0.530495 0.868094
Si Si2 0.876535 0.520902 0.109855
Si Si3 0.302039 0.788073 0.147524
Si Si4 0.622871 0.688930 0.185497
Si Si5 0.278779 0.119517 0.382308
O O1 0.500000 0.548920 0.750000
O O2 0.363893 0.491651 0.649726
O O3 0.295046 0.579639 0.904368
O O4 0.832007 0.494589 0.390455
O O5 0.857779 0.582178 0.164039
O O6 0.000000 0.500000 0.000000
O O7 0.381364 0.749094 0.218012
O O8 0.201025 0.806985 0.392710
O O9 0.250000 0.750000 0.000000
O O10 0.345433 0.839452 0.982345
O O11 0.500000 0.670166 0.250000
O O12 0.691869 0.652023 0.301723
#
# Coordination Sequence:
#
# PCOD9294010 Si02
#       5
#     8   8   8   8   8
#     4  10  23  38  57  95 139 175 221 276 336 409
#     4  10  23  44  68  98 142 186 235 294 349 413
#     4   9  22  43  64  97 134 175 227 292 355 424
#     4  10  23  42  69  98 138 175 230 297 360 425
#     4  11  23  37  70  95 133 182 231 285 352 427
#
# _framework density 22.509616000000001
#
# number of rings (size 3 to 8) (size 9 to 14) (size 15 to 20)
#    0.000    2.000    0.000    1.200    8.400    3.200 
#    0.000   12.000    0.000    0.000    0.000    0.000 
#    0.000    0.000    0.000    0.000    0.000    0.000 
#
# Total GULP energy -111524.925157 kJ/mol
# GULP energy per Si atom -5576.246258 kJ/mol
# Density = 2.245838 g / cm^3
# Si number density = 22.509616 Si / 1000 Ang^3
#
#
#
# Elastic Constant Matrix: (Units=GPa)
#
#
# Indices 1 2 3 4 5 6 
#
# 1 79.3222 22.5081 10.0764 0.0000 -2.7716 0.0000
# 2 22.5081 142.1894 48.4784 0.0000 -7.2338 0.0000
# 3 10.0764 48.4784 123.0562 0.0000 8.8393 0.0000
# 4 0.0000 0.0000 0.0000 32.7919 0.0000 11.2027
# 5 -2.7716 -7.2338 8.8393 0.0000 15.3887 0.0000
# 6 0.0000 0.0000 0.0000 11.2027 0.0000 25.7682
#
#
#
# Elastic Compliance Matrix: (Units=1/GPa)
#
#
# Indices 1 2 3 4 5 6 
#
# 1 0.013254 -0.001839 -0.000490 0.000000 0.001804 0.000000
# 2 -0.001839 0.008928 -0.003801 0.000000 0.006049 0.000000
# 3 -0.000490 -0.003801 0.010220 0.000000 -0.007746 0.000000
# 4 0.000000 0.000000 0.000000 0.035815 0.000000 -0.015570
# 5 0.001804 0.006049 -0.007746 0.000000 0.072600 0.000000
# 6 0.000000 0.000000 0.000000 -0.015570 0.000000 0.045577
#
#
# Mechanical properties :
#
#
# Convention : Reuss Voigt Hill
#
# Bulk Modulus (GPa) = 49.64980 56.29929 52.97454
# Shear Modulus (GPa) = 24.34655 32.35676 28.35166
#
# Velocity S-wave (km/s) = 3.29235 3.79550 3.55284
# Velocity P-wave (km/s) = 6.04630 6.65382 6.35732
#
# Compressibility (1/GPa) = 0.02014107
#
# Stress axis : x y z
#
# Youngs Moduli (GPa) = 75.44893 112.01193 97.84453
#
# Poissons Ratio (x) = 0.20600 0.04798
# Poissons Ratio (y) = 0.13876 0.37190
# Poissons Ratio (z) = 0.03700 0.42575
#
# Static dielectric constant tensor:
#      x y z
#    x 1.645900 0.000000 -0.006350 
#    y 0.000000 1.901960 0.000000 
#    z -0.006350 0.000000 1.907190 
# 
# From -- ./inp_files/7498.got.cif
#   From: 2010.05.17/outbox.cif.g08.bks.cpg/sg15_4_cif.got.tgz:7498.got - 2010.06.03 18:47:42.
