data_PCOD9294436
_publ_section_title
;
Structure prediction by ZEFSAII (Michael W. Deem and Ramdas Pophale) SiO2 
 PCOD9294436
Probable space group: C 2/C
;
_chemical_formula_sum "Si O2"
_cell_formula_units_Z 56
_cell_length_a 11.039739
_cell_length_b 8.987674
_cell_length_c 24.031123
_cell_angle_alpha 90.000000
_cell_angle_beta 77.495993
_cell_angle_gamma 90.000000
_cell_volume 2327.849839
_symmetry_space_group_name_H-M "C 2/C"
_symmetry_group_IT_number 15
_symmetry_cell_setting 'monoclinic'
loop_
_space_group_symop_operation_xyz
x,y,z
-x,y,1/2-z
-x,-y,-z
x,-y,1/2+z
1/2+x,1/2+y,z
1/2-x,1/2+y,1/2-z
1/2-x,1/2-y,-z
1/2+x,1/2-y,1/2+z
loop_
_atom_site_type_symbol
_atom_site_label
_atom_site_fract_x
_atom_site_fract_y
_atom_site_fract_z
Si Si1 0.036438 0.630061 0.595908
Si Si2 0.642557 0.243582 0.170007
Si Si3 0.750667 0.930832 0.000210
Si Si4 0.371205 0.069020 0.789957
Si Si5 0.374944 0.594213 0.086315
Si Si6 0.864324 0.191241 0.664865
Si Si7 0.228255 0.513641 0.376078
O O1 0.992701 0.795153 0.580527
O O2 0.906074 0.555079 0.619766
O O3 0.115152 0.544708 0.541365
O O4 0.109952 0.609365 0.646446
O O5 0.748960 0.185375 0.115747
O O6 0.497679 0.247540 0.168719
O O7 0.677713 0.417669 0.170269
O O8 0.647280 0.108846 0.213846
O O9 0.848351 0.014017 0.030334
O O10 0.750000 0.750000 0.000000
O O11 0.761883 0.993475 0.937529
O O12 0.500000 0.116060 0.750000
O O13 0.245669 0.146168 0.781521
O O14 0.388803 0.460181 0.128513
O O15 0.795622 0.316541 0.635963
#
# Coordination Sequence:
#
# PCOD9294436 Si02
#       7
#     8   8   8   8   8   8   8
#     4  11  23  44  63  93 137 172 223 282 327 393
#     4  10  23  44  66  94 128 173 220 275 332 390
#     4  12  22  38  60 101 139 182 226 259 324 402
#     4  11  24  49  69  94 132 168 219 286 346 398
#     4  10  23  40  65  93 135 180 217 271 323 381
#     4  11  21  43  67  95 133 172 215 275 325 393
#     4  11  23  40  69  95 135 179 222 265 326 400
#
# _framework density 24.056533999999999
#
# number of rings (size 3 to 8) (size 9 to 14) (size 15 to 20)
#    0.000    1.143    5.714    0.429    4.000    4.000 
#    7.714    0.714    0.000    0.000    0.000    0.000 
#    0.000    0.000    0.000    0.000    0.000    0.000 
#
# Total GULP energy -156325.924105 kJ/mol
# GULP energy per Si atom -5583.068718 kJ/mol
# Density = 2.400178 g / cm^3
# Si number density = 24.056534 Si / 1000 Ang^3
#
#
#
# Elastic Constant Matrix: (Units=GPa)
#
#
# Indices 1 2 3 4 5 6 
#
# 1 103.0748 33.6111 33.9707 0.0000 -16.8475 0.0000
# 2 33.6111 111.1898 9.8574 0.0000 4.0456 0.0000
# 3 33.9707 9.8574 64.4333 0.0000 0.9292 0.0000
# 4 0.0000 0.0000 0.0000 17.9100 0.0000 -9.3776
# 5 -16.8475 4.0456 0.9292 0.0000 29.6679 0.0000
# 6 0.0000 0.0000 0.0000 -9.3776 0.0000 34.9182
#
#
#
# Elastic Compliance Matrix: (Units=1/GPa)
#
#
# Indices 1 2 3 4 5 6 
#
# 1 0.015061 -0.004235 -0.007428 0.000000 0.009363 0.000000
# 2 -0.004235 0.010351 0.000705 0.000000 -0.003838 0.000000
# 3 -0.007428 0.000705 0.019399 0.000000 -0.004922 0.000000
# 4 0.000000 0.000000 0.000000 0.064970 0.000000 0.017448
# 5 0.009363 -0.003838 -0.004922 0.000000 0.039701 0.000000
# 6 0.000000 0.000000 0.000000 0.017448 0.000000 0.033324
#
#
# Mechanical properties :
#
#
# Convention : Reuss Voigt Hill
#
# Bulk Modulus (GPa) = 43.67747 48.17515 45.92631
# Shear Modulus (GPa) = 23.54559 29.91647 26.73103
#
# Velocity S-wave (km/s) = 3.13191 3.53028 3.33705
# Velocity P-wave (km/s) = 5.59232 6.05694 5.82926
#
# Compressibility (1/GPa) = 0.02289510
#
# Stress axis : x y z
#
# Youngs Moduli (GPa) = 66.39720 96.60927 51.54875
#
# Poissons Ratio (x) = 0.40913 0.38288
# Poissons Ratio (y) = 0.28118 -0.03632
# Poissons Ratio (z) = 0.49317 -0.06806
#
# Static dielectric constant tensor:
#      x y z
#    x 1.898130 0.000000 -0.007070 
#    y 0.000000 1.980970 0.000000 
#    z -0.007070 0.000000 1.967710 
# 
# From -- ./inp_files/309930.got.cif
#   From: 2010.05.17/outbox.cif.g08.bks.cpg/sg15_155_cif.got.tgz:309930.got - 2010.06.03 18:47:42.
