data_PCOD9294258
_publ_section_title
;
Structure prediction by ZEFSAII (Michael W. Deem and Ramdas Pophale) SiO2 
 PCOD9294258
Probable space group: C 2/C
;
_chemical_formula_sum "Si O2"
_cell_formula_units_Z 40
_cell_length_a 34.074197
_cell_length_b 10.290551
_cell_length_c 9.686803
_cell_angle_alpha 90.000000
_cell_angle_beta 27.418531
_cell_angle_gamma 90.000000
_cell_volume 1564.090977
_symmetry_space_group_name_H-M "C 2/C"
_symmetry_group_IT_number 15
_symmetry_cell_setting 'monoclinic'
loop_
_space_group_symop_operation_xyz
x,y,z
-x,y,1/2-z
-x,-y,-z
x,-y,1/2+z
1/2+x,1/2+y,z
1/2-x,1/2+y,1/2-z
1/2-x,1/2-y,-z
1/2+x,1/2-y,1/2+z
loop_
_atom_site_type_symbol
_atom_site_label
_atom_site_fract_x
_atom_site_fract_y
_atom_site_fract_z
Si Si1 0.126566 0.403866 0.803600
Si Si2 0.947209 0.075014 0.053132
Si Si3 0.717260 0.457650 0.570296
Si Si4 0.196180 0.232098 0.372105
Si Si5 0.112176 0.647838 0.657494
O O1 0.226310 0.436338 0.528860
O O2 0.130252 0.279892 0.692535
O O3 0.095392 0.528101 0.813475
O O4 0.087079 0.381536 0.077652
O O5 0.856843 0.005809 0.302743
O O6 0.929483 0.221006 0.158132
O O7 0.000000 0.076054 0.750000
O O8 0.000000 0.000000 0.000000
O O9 0.781139 0.364250 0.285486
O O10 0.672852 0.368633 0.825449
O O11 0.285826 0.178528 0.152709
#
# Coordination Sequence:
#
# PCOD9294258 Si02
#       5
#     8   8   8   8   8
#     4  11  19  38  70 109 141 171 223 311 377 405
#     4  11  27  49  67  94 143 197 245 277 326 430
#     4   9  20  37  65 102 137 175 226 285 360 408
#     4   9  18  35  63 103 143 168 210 300 369 417
#     4  10  23  39  67 106 139 181 234 290 365 413
#
# _framework density 25.573961000000001
#
# number of rings (size 3 to 8) (size 9 to 14) (size 15 to 20)
#    0.000    2.000    2.000    1.800    5.600    0.000 
#    3.600    1.000    0.000    0.000    0.000    0.000 
#    0.000    0.000    0.000    0.000    0.000    0.000 
#
# Total GULP energy -112160.420365 kJ/mol
# GULP energy per Si atom -5608.021018 kJ/mol
# Density = 2.551575 g / cm^3
# Si number density = 25.573961 Si / 1000 Ang^3
#
#
#
# Elastic Constant Matrix: (Units=GPa)
#
#
# Indices 1 2 3 4 5 6 
#
# 1 149.2640 46.8458 46.6500 0.0000 33.7996 0.0000
# 2 46.8458 113.2250 25.0096 0.0000 20.1997 0.0000
# 3 46.6500 25.0096 79.3401 0.0000 28.4778 0.0000
# 4 0.0000 0.0000 0.0000 36.5028 0.0000 6.8734
# 5 33.7996 20.1997 28.4778 0.0000 54.4383 0.0000
# 6 0.0000 0.0000 0.0000 6.8734 0.0000 43.1899
#
#
#
# Elastic Compliance Matrix: (Units=1/GPa)
#
#
# Indices 1 2 3 4 5 6 
#
# 1 0.009284 -0.002519 -0.003609 0.000000 -0.002942 0.000000
# 2 -0.002519 0.010440 -0.001207 0.000000 -0.001678 0.000000
# 3 -0.003609 -0.001207 0.017411 0.000000 -0.006419 0.000000
# 4 0.000000 0.000000 0.000000 0.028241 0.000000 -0.004494
# 5 -0.002942 -0.001678 -0.006419 0.000000 0.024177 0.000000
# 6 0.000000 0.000000 0.000000 -0.004494 0.000000 0.023869
#
#
# Mechanical properties :
#
#
# Convention : Reuss Voigt Hill
#
# Bulk Modulus (GPa) = 44.51560 64.31553 54.41557
# Shear Modulus (GPa) = 36.87828 41.71444 39.29636
#
# Velocity S-wave (km/s) = 3.80152 4.04311 3.92417
# Velocity P-wave (km/s) = 6.05914 6.85558 6.46963
#
# Compressibility (1/GPa) = 0.02246403
#
# Stress axis : x y z
#
# Youngs Moduli (GPa) = 107.70949 95.78179 57.43650
#
# Poissons Ratio (x) = 0.24130 0.20728
# Poissons Ratio (y) = 0.27135 0.06935
# Poissons Ratio (z) = 0.38871 0.11564
#
# Static dielectric constant tensor:
#      x y z
#    x 2.023600 0.000000 -0.020260 
#    y 0.000000 2.020470 0.000000 
#    z -0.020260 0.000000 2.021630 
# 
# From -- ./inp_files/68950.got.cif
#   From: 2010.05.17/outbox.cif.g08.bks.cpg/sg15_35_cif.got.tgz:68950.got - 2010.06.03 18:47:42.
