data_PCOD9294651
_publ_section_title
;
Structure prediction by ZEFSAII (Michael W. Deem and Ramdas Pophale) SiO2 
 PCOD9294651
Probable space group: C 2/C
;
_chemical_formula_sum "Si O2"
_cell_formula_units_Z 52
_cell_length_a 26.645421
_cell_length_b 10.769115
_cell_length_c 9.172924
_cell_angle_alpha 90.000000
_cell_angle_beta 46.149426
_cell_angle_gamma 90.000000
_cell_volume 1898.171308
_symmetry_space_group_name_H-M "C 2/C"
_symmetry_group_IT_number 15
_symmetry_cell_setting 'monoclinic'
loop_
_space_group_symop_operation_xyz
x,y,z
-x,y,1/2-z
-x,-y,-z
x,-y,1/2+z
1/2+x,1/2+y,z
1/2-x,1/2+y,1/2-z
1/2-x,1/2-y,-z
1/2+x,1/2-y,1/2+z
loop_
_atom_site_type_symbol
_atom_site_label
_atom_site_fract_x
_atom_site_fract_y
_atom_site_fract_z
Si Si1 0.651236 0.617392 0.909539
Si Si2 0.886556 0.485020 0.171683
Si Si3 0.250000 0.250000 0.500000
Si Si4 0.766802 0.895247 0.980689
Si Si5 0.914505 0.894885 0.528963
Si Si6 0.052530 0.733502 0.775384
Si Si7 0.120461 0.323982 0.597727
O O1 0.687510 0.662158 0.690566
O O2 0.580865 0.535496 0.033390
O O3 0.703442 0.560546 0.923575
O O4 0.625869 0.739652 0.047435
O O5 0.806197 0.466830 0.387278
O O6 0.936348 0.389539 0.153224
O O7 0.886689 0.436969 0.005286
O O8 0.903772 0.621423 0.197757
O O9 0.200420 0.284477 0.458062
O O10 0.832674 0.907291 0.741232
O O11 0.750000 0.750000 0.000000
O O12 0.954028 0.843207 0.590399
O O13 0.918852 0.793101 0.393089
O O14 0.000000 0.719379 0.750000
#
# Coordination Sequence:
#
# PCOD9294651 Si02
#       7
#     8   8   4   8   8   8   8
#     4  11  23  39  66 103 137 177 227 283 355 421
#     4  11  23  43  63  96 137 178 231 288 340 416
#     4  12  24  36  64 106 142 178 218 278 356 440
#     4  11  18  37  57  93 137 171 211 281 346 414
#     4  10  23  41  63 100 140 174 230 290 350 424
#     4  10  24  47  70  90 132 192 243 294 342 398
#     4  11  25  37  66 100 140 179 222 278 356 423
#
# _framework density 27.394788999999999
#
# number of rings (size 3 to 8) (size 9 to 14) (size 15 to 20)
#    0.000    1.231    6.154    0.923    8.615    0.615 
#    0.000    3.077    0.000    0.000    0.000    0.000 
#    0.000    0.000    0.000    0.000    0.000    0.000 
#
# Total GULP energy -144991.161129 kJ/mol
# GULP energy per Si atom -5576.583120 kJ/mol
# Density = 2.733244 g / cm^3
# Si number density = 27.394789 Si / 1000 Ang^3
#
#
#
# Elastic Constant Matrix: (Units=GPa)
#
#
# Indices 1 2 3 4 5 6 
#
# 1 199.6574 32.2254 36.4349 0.0000 42.3279 0.0000
# 2 32.2254 82.3841 45.4381 0.0000 33.3700 0.0000
# 3 36.4349 45.4381 103.3134 0.0000 18.9082 0.0000
# 4 0.0000 0.0000 0.0000 31.9090 0.0000 23.3636
# 5 42.3279 33.3700 18.9082 0.0000 56.8764 0.0000
# 6 0.0000 0.0000 0.0000 23.3636 0.0000 26.5098
#
#
#
# Elastic Compliance Matrix: (Units=1/GPa)
#
#
# Indices 1 2 3 4 5 6 
#
# 1 0.006135 0.000064 -0.001437 0.000000 -0.004126 0.000000
# 2 0.000064 0.019744 -0.007004 0.000000 -0.009303 0.000000
# 3 -0.001437 -0.007004 0.013116 0.000000 0.000818 0.000000
# 4 0.000000 0.000000 0.000000 0.088352 0.000000 -0.077867
# 5 -0.004126 -0.009303 0.000818 0.000000 0.025839 0.000000
# 6 0.000000 0.000000 0.000000 -0.077867 0.000000 0.106347
#
#
# Mechanical properties :
#
#
# Convention : Reuss Voigt Hill
#
# Bulk Modulus (GPa) = 44.95795 68.17244 56.56519
# Shear Modulus (GPa) = 17.62414 41.14282 29.38348
#
# Velocity S-wave (km/s) = 2.53917 3.87957 3.27860
# Velocity P-wave (km/s) = 5.00432 6.70875 5.91822
#
# Compressibility (1/GPa) = 0.02224301
#
# Stress axis : x y z
#
# Youngs Moduli (GPa) = 162.99674 50.64711 76.24006
#
# Poissons Ratio (x) = -0.00322 0.10952
# Poissons Ratio (y) = -0.01036 0.53395
# Poissons Ratio (z) = 0.23415 0.35471
#
# Static dielectric constant tensor:
#      x y z
#    x 2.161360 0.000000 0.044770 
#    y 0.000000 2.492330 0.000000 
#    z 0.044770 0.000000 2.281450 
# 
# From -- ./inp_files/65063.got.cif
#   From: 2010.05.17/outbox.cif.g08.bks.cpg/sg15_33_cif.got.tgz:65063.got - 2010.06.03 18:47:42.
