data_PCOD9294153
_publ_section_title
;
Structure prediction by ZEFSAII (Michael W. Deem and Ramdas Pophale) SiO2 
 PCOD9294153
Probable space group: C 2/C
;
_chemical_formula_sum "Si O2"
_cell_formula_units_Z 44
_cell_length_a 13.147048
_cell_length_b 11.384695
_cell_length_c 22.257294
_cell_angle_alpha 90.000000
_cell_angle_beta 144.421990
_cell_angle_gamma 90.000000
_cell_volume 1938.223413
_symmetry_space_group_name_H-M "C 2/C"
_symmetry_group_IT_number 15
_symmetry_cell_setting 'monoclinic'
loop_
_space_group_symop_operation_xyz
x,y,z
-x,y,1/2-z
-x,-y,-z
x,-y,1/2+z
1/2+x,1/2+y,z
1/2-x,1/2+y,1/2-z
1/2-x,1/2-y,-z
1/2+x,1/2-y,1/2+z
loop_
_atom_site_type_symbol
_atom_site_label
_atom_site_fract_x
_atom_site_fract_y
_atom_site_fract_z
Si Si1 0.395409 0.121135 0.519794
Si Si2 0.738130 0.464307 0.061394
Si Si3 0.719640 0.740548 0.202164
Si Si4 0.918311 0.136317 0.892978
Si Si5 0.000000 0.632558 0.250000
Si Si6 0.864515 0.390760 0.874494
O O1 0.530215 0.229406 0.586944
O O2 0.290850 0.114491 0.406940
O O3 0.289253 0.115211 0.529994
O O4 0.518589 0.004789 0.576904
O O5 0.692216 0.397909 0.101192
O O6 0.899232 0.549997 0.154590
O O7 0.574118 0.545087 0.964791
O O8 0.793004 0.852027 0.275037
O O9 0.854076 0.707209 0.214573
O O10 0.983224 0.728300 0.428025
O O11 0.728075 0.363711 0.755734
#
# Coordination Sequence:
#
# PCOD9294153 Si02
#       6
#     8   8   8   8   4   8
#     4  11  21  41  69  89 133 169 213 261 332 373
#     4  11  21  38  68  93 122 170 213 259 323 389
#     4  10  23  39  61  97 125 166 219 271 307 387
#     4   9  22  39  59  96 127 155 216 264 313 388
#     4  12  22  38  68  88 118 180 214 262 316 382
#     4   9  22  41  60  95 129 167 207 273 315 378
#
# _framework density 22.701201999999999
#
# number of rings (size 3 to 8) (size 9 to 14) (size 15 to 20)
#    1.091    0.727    1.818    2.182    0.000    6.545 
#    0.000    0.000    8.000    0.000    0.000    0.000 
#    0.000    0.000    0.000    0.000    0.000    0.000 
#
# Total GULP energy -122857.641317 kJ/mol
# GULP energy per Si atom -5584.438242 kJ/mol
# Density = 2.264953 g / cm^3
# Si number density = 22.701202 Si / 1000 Ang^3
#
#
#
# Elastic Constant Matrix: (Units=GPa)
#
#
# Indices 1 2 3 4 5 6 
#
# 1 144.9286 18.5145 44.2387 0.0000 -7.8452 0.0000
# 2 18.5145 77.9709 11.2853 0.0000 5.6149 0.0000
# 3 44.2387 11.2853 52.1069 0.0000 -13.8421 0.0000
# 4 0.0000 0.0000 0.0000 36.4784 0.0000 -6.5471
# 5 -7.8452 5.6149 -13.8421 0.0000 28.6044 0.0000
# 6 0.0000 0.0000 0.0000 -6.5471 0.0000 22.8125
#
#
#
# Elastic Compliance Matrix: (Units=1/GPa)
#
#
# Indices 1 2 3 4 5 6 
#
# 1 0.009437 -0.000986 -0.008101 0.000000 -0.001138 0.000000
# 2 -0.000986 0.013887 -0.003404 0.000000 -0.004643 0.000000
# 3 -0.008101 -0.003404 0.030287 0.000000 0.013103 0.000000
# 4 0.000000 0.000000 0.000000 0.028902 0.000000 0.008295
# 5 -0.001138 -0.004643 0.013103 0.000000 0.041900 0.000000
# 6 0.000000 0.000000 0.000000 0.008295 0.000000 0.046216
#
#
# Mechanical properties :
#
#
# Convention : Reuss Voigt Hill
#
# Bulk Modulus (GPa) = 34.93002 47.00928 40.96965
# Shear Modulus (GPa) = 24.37207 30.97692 27.67449
#
# Velocity S-wave (km/s) = 3.28014 3.69799 3.49531
# Velocity P-wave (km/s) = 5.45583 6.24390 5.86312
#
# Compressibility (1/GPa) = 0.02862867
#
# Stress axis : x y z
#
# Youngs Moduli (GPa) = 105.96506 72.01218 33.01781
#
# Poissons Ratio (x) = 0.07103 0.26747
# Poissons Ratio (y) = 0.10453 0.11238
# Poissons Ratio (z) = 0.85840 0.24510
#
# Static dielectric constant tensor:
#      x y z
#    x 1.816750 0.000000 -0.049930 
#    y 0.000000 1.883870 0.000000 
#    z -0.049930 0.000000 1.854650 
# 
# From -- ./inp_files/238859.got.cif
#   From: 2010.05.17/outbox.cif.g08.bks.cpg/sg15_120_cif.got.tgz:238859.got - 2010.06.03 18:47:42.
