data_PCOD9294285
_publ_section_title
;
Structure prediction by ZEFSAII (Michael W. Deem and Ramdas Pophale) SiO2 
 PCOD9294285
Probable space group: C 2/C
;
_chemical_formula_sum "Si O2"
_cell_formula_units_Z 60
_cell_length_a 14.576597
_cell_length_b 14.033484
_cell_length_c 14.015194
_cell_angle_alpha 90.000000
_cell_angle_beta 122.230486
_cell_angle_gamma 90.000000
_cell_volume 2425.183884
_symmetry_space_group_name_H-M "C 2/C"
_symmetry_group_IT_number 15
_symmetry_cell_setting 'monoclinic'
loop_
_space_group_symop_operation_xyz
x,y,z
-x,y,1/2-z
-x,-y,-z
x,-y,1/2+z
1/2+x,1/2+y,z
1/2-x,1/2+y,1/2-z
1/2-x,1/2-y,-z
1/2+x,1/2-y,1/2+z
loop_
_atom_site_type_symbol
_atom_site_label
_atom_site_fract_x
_atom_site_fract_y
_atom_site_fract_z
Si Si1 0.008369 0.142955 0.583055
Si Si2 0.187559 0.279571 0.724802
Si Si3 0.914491 0.651977 0.514046
Si Si4 0.603638 0.451888 0.963811
Si Si5 0.500000 0.875389 0.250000
Si Si6 0.639128 0.200908 0.549992
Si Si7 0.235492 0.487793 0.089245
Si Si8 0.804809 0.491124 0.712151
O O1 0.099005 0.197495 0.692950
O O2 0.984130 0.035375 0.595797
O O3 0.901280 0.207340 0.529890
O O4 0.048182 0.132799 0.493543
O O5 0.174404 0.300336 0.604603
O O6 0.301252 0.240697 0.823328
O O7 0.165716 0.378954 0.766985
O O8 0.870549 0.545522 0.502465
O O9 0.942442 0.685666 0.635346
O O10 0.025096 0.653349 0.515517
O O11 0.703944 0.486715 0.087040
O O12 0.664054 0.452334 0.896345
O O13 0.592949 0.942850 0.256078
O O14 0.715442 0.121101 0.546294
O O15 0.234257 0.486079 0.202496
#
# Coordination Sequence:
#
# PCOD9294285 Si02
#       8
#     8   8   8   8   4   8   8   8
#     4  10  24  42  69  96 142 177 237 289 356 416
#     4  10  23  43  68 101 139 184 229 299 343 421
#     4  10  23  39  70 102 133 182 235 286 350 422
#     4  11  23  47  69  97 138 193 226 289 356 435
#     4  12  22  40  70 104 134 186 234 288 346 418
#     4  11  21  43  68  99 141 178 229 301 345 418
#     4  11  23  41  75 101 134 184 241 280 354 424
#     4  11  23  42  72  99 140 181 234 283 356 423
#
# _framework density 24.740390999999999
#
# number of rings (size 3 to 8) (size 9 to 14) (size 15 to 20)
#    0.000    1.333    4.000    1.200    3.733    0.533 
#    2.400   17.333    0.000    0.000    0.000    0.000 
#    0.000    0.000    0.000    0.000    0.000    0.000 
#
# Total GULP energy -167632.404139 kJ/mol
# GULP energy per Si atom -5587.746805 kJ/mol
# Density = 2.468408 g / cm^3
# Si number density = 24.740391 Si / 1000 Ang^3
#
#
#
# Elastic Constant Matrix: (Units=GPa)
#
#
# Indices 1 2 3 4 5 6 
#
# 1 102.9492 3.9777 5.0223 0.0000 1.3667 0.0000
# 2 3.9777 57.7681 -11.8674 0.0000 24.1031 0.0000
# 3 5.0223 -11.8674 89.5188 0.0000 15.4232 0.0000
# 4 0.0000 0.0000 0.0000 32.8975 0.0000 15.5109
# 5 1.3667 24.1031 15.4232 0.0000 33.0509 0.0000
# 6 0.0000 0.0000 0.0000 15.5109 0.0000 14.7910
#
#
#
# Elastic Compliance Matrix: (Units=1/GPa)
#
#
# Indices 1 2 3 4 5 6 
#
# 1 0.009791 -0.001224 -0.000865 0.000000 0.000891 0.000000
# 2 -0.001224 0.029827 0.008440 0.000000 -0.025640 0.000000
# 3 -0.000865 0.008440 0.014564 0.000000 -0.012916 0.000000
# 4 0.000000 0.000000 0.000000 0.060126 0.000000 -0.063053
# 5 0.000891 -0.025640 -0.012916 0.000000 0.054945 0.000000
# 6 0.000000 0.000000 0.000000 -0.063053 0.000000 0.133730
#
#
# Mechanical properties :
#
#
# Convention : Reuss Voigt Hill
#
# Bulk Modulus (GPa) = 14.95127 27.16682 21.05904
# Shear Modulus (GPa) = 15.99618 33.02145 24.50881
#
# Velocity S-wave (km/s) = 2.54552 3.65734 3.15086
# Velocity P-wave (km/s) = 3.83353 5.37024 4.66559
#
# Compressibility (1/GPa) = 0.06688394
#
# Stress axis : x y z
#
# Youngs Moduli (GPa) = 102.13269 33.52709 68.66479
#
# Poissons Ratio (x) = 0.04103 0.05940
# Poissons Ratio (y) = 0.12499 -0.57955
# Poissons Ratio (z) = 0.08836 -0.28298
#
# Static dielectric constant tensor:
#      x y z
#    x 1.977570 0.000000 -0.057600 
#    y 0.000000 1.990630 0.000000 
#    z -0.057600 0.000000 1.990720 
# 
# From -- ./inp_files/154290.got.cif
#   From: 2010.05.17/outbox.cif.g08.bks.cpg/sg15_78_cif.got.tgz:154290.got - 2010.06.03 18:47:42.
