data_PCOD9294017
_publ_section_title
;
Structure prediction by ZEFSAII (Michael W. Deem and Ramdas Pophale) SiO2 
 PCOD9294017
Probable space group: C 2/C
;
_chemical_formula_sum "Si O2"
_cell_formula_units_Z 52
_cell_length_a 8.607493
_cell_length_b 20.191789
_cell_length_c 14.272840
_cell_angle_alpha 90.000000
_cell_angle_beta 89.702339
_cell_angle_gamma 90.000000
_cell_volume 2480.595857
_symmetry_space_group_name_H-M "C 2/C"
_symmetry_group_IT_number 15
_symmetry_cell_setting 'monoclinic'
loop_
_space_group_symop_operation_xyz
x,y,z
-x,y,1/2-z
-x,-y,-z
x,-y,1/2+z
1/2+x,1/2+y,z
1/2-x,1/2+y,1/2-z
1/2-x,1/2-y,-z
1/2+x,1/2-y,1/2+z
loop_
_atom_site_type_symbol
_atom_site_label
_atom_site_fract_x
_atom_site_fract_y
_atom_site_fract_z
Si Si1 0.706095 0.939438 0.650984
Si Si2 0.258064 0.155771 0.494992
Si Si3 0.691783 0.718297 0.859048
Si Si4 0.000000 0.452592 0.250000
Si Si5 0.988460 0.241250 0.457043
Si Si6 0.201200 0.115716 0.692364
Si Si7 0.000000 0.997631 0.750000
Si Si8 0.500000 0.828027 0.750000
O O1 0.719898 0.918130 0.543036
O O2 0.619659 0.876323 0.696660
O O3 0.598391 0.001489 0.678807
O O4 0.874337 0.955136 0.693963
O O5 0.129238 0.192000 0.431032
O O6 0.417791 0.196257 0.500483
O O7 0.186324 0.158283 0.599259
O O8 0.671353 0.657589 0.786923
O O9 0.601504 0.780262 0.815076
O O10 0.872576 0.735650 0.876017
O O11 0.619065 0.707890 0.962469
O O12 0.878425 0.407961 0.195882
O O13 0.098535 0.049516 0.687325
#
# Coordination Sequence:
#
# PCOD9294017 Si02
#       8
#     8   8   8   4   8   8   4   4
#     4  10  23  40  63  86 128 160 210 262 301 366
#     4  11  22  40  59  97 130 158 202 266 306 379
#     4  11  22  40  64  91 123 168 197 261 310 379
#     4   9  22  44  60  90 116 175 214 246 306 371
#     4  10  23  38  58  97 131 154 210 246 322 380
#     4  11  22  40  67  88 126 164 213 252 315 364
#     4  10  23  42  62  90 115 174 220 250 302 370
#     4  11  21  40  62  88 121 169 198 252 322 373
#
# _framework density 20.962703999999999
#
# number of rings (size 3 to 8) (size 9 to 14) (size 15 to 20)
#    0.000    1.538    1.538    3.231    4.308    1.231 
#    0.000    0.000    0.000    0.000    0.000    0.000 
#    0.000    0.000    0.000    0.000    0.000    0.000 
#
# Total GULP energy -145147.636109 kJ/mol
# GULP energy per Si atom -5582.601389 kJ/mol
# Density = 2.091499 g / cm^3
# Si number density = 20.962704 Si / 1000 Ang^3
#
#
#
# Elastic Constant Matrix: (Units=GPa)
#
#
# Indices 1 2 3 4 5 6 
#
# 1 141.0529 34.9657 20.1354 0.0000 30.5077 0.0000
# 2 34.9657 72.8102 20.6091 0.0000 14.7981 0.0000
# 3 20.1354 20.6091 59.0793 0.0000 -1.1221 0.0000
# 4 0.0000 0.0000 0.0000 22.0084 0.0000 10.2201
# 5 30.5077 14.7981 -1.1221 0.0000 25.1979 0.0000
# 6 0.0000 0.0000 0.0000 10.2201 0.0000 24.4574
#
#
#
# Elastic Compliance Matrix: (Units=1/GPa)
#
#
# Indices 1 2 3 4 5 6 
#
# 1 0.010553 -0.001739 -0.003216 0.000000 -0.011899 0.000000
# 2 -0.001739 0.017999 -0.005852 0.000000 -0.008725 0.000000
# 3 -0.003216 -0.005852 0.020220 0.000000 0.008231 0.000000
# 4 0.000000 0.000000 0.000000 0.056377 0.000000 -0.023559
# 5 -0.011899 -0.008725 0.008231 0.000000 0.059583 0.000000
# 6 0.000000 0.000000 0.000000 -0.023559 0.000000 0.050732
#
#
# Mechanical properties :
#
#
# Convention : Reuss Voigt Hill
#
# Bulk Modulus (GPa) = 36.82089 47.15140 41.98615
# Shear Modulus (GPa) = 20.31431 27.48156 23.89793
#
# Velocity S-wave (km/s) = 3.11636 3.62467 3.38008
# Velocity P-wave (km/s) = 5.52739 6.32925 5.94186
#
# Compressibility (1/GPa) = 0.02715850
#
# Stress axis : x y z
#
# Youngs Moduli (GPa) = 94.75644 55.55757 49.45565
#
# Poissons Ratio (x) = 0.09664 0.15905
# Poissons Ratio (y) = 0.16482 0.28940
# Poissons Ratio (z) = 0.30474 0.32511
#
# Static dielectric constant tensor:
#      x y z
#    x 1.775590 0.000000 -0.040270 
#    y 0.000000 1.726220 0.000000 
#    z -0.040270 0.000000 1.808220 
# 
# From -- ./inp_files/136021.got.cif
#   From: 2010.05.17/outbox.cif.g08.bks.cpg/sg15_69_cif.got.tgz:136021.got - 2010.06.03 18:47:42.
