data_PCOD9294194
_publ_section_title
;
Structure prediction by ZEFSAII (Michael W. Deem and Ramdas Pophale) SiO2 
 PCOD9294194
Probable space group: C 2/C
;
_chemical_formula_sum "Si O2"
_cell_formula_units_Z 48
_cell_length_a 7.637853
_cell_length_b 25.923172
_cell_length_c 13.117195
_cell_angle_alpha 90.000000
_cell_angle_beta 70.015977
_cell_angle_gamma 90.000000
_cell_volume 2440.789280
_symmetry_space_group_name_H-M "C 2/C"
_symmetry_group_IT_number 15
_symmetry_cell_setting 'monoclinic'
loop_
_space_group_symop_operation_xyz
x,y,z
-x,y,1/2-z
-x,-y,-z
x,-y,1/2+z
1/2+x,1/2+y,z
1/2-x,1/2+y,1/2-z
1/2-x,1/2-y,-z
1/2+x,1/2-y,1/2+z
loop_
_atom_site_type_symbol
_atom_site_label
_atom_site_fract_x
_atom_site_fract_y
_atom_site_fract_z
Si Si1 0.500000 0.924793 0.750000
Si Si2 0.500000 0.109293 0.750000
Si Si3 0.217148 0.519525 0.793151
Si Si4 0.968662 0.200260 0.377439
Si Si5 0.736805 0.139118 0.041821
Si Si6 0.075748 0.680194 0.552934
Si Si7 0.446711 0.539495 0.924112
O O1 0.402938 0.890260 0.854077
O O2 0.647830 0.965001 0.767073
O O3 0.579881 0.067523 0.813788
O O4 0.604524 0.147077 0.650783
O O5 0.279281 0.513717 0.895596
O O6 0.381001 0.539770 0.687249
O O7 0.957123 0.261055 0.404873
O O8 0.766767 0.177458 0.450054
O O9 0.000000 0.191866 0.250000
O O10 0.134182 0.176875 0.415127
O O11 0.604885 0.163142 0.979073
O O12 0.877671 0.095649 0.970208
O O13 0.500000 0.500000 0.000000
#
# Coordination Sequence:
#
# PCOD9294194 Si02
#       7
#     4   4   8   8   8   8   8
#     4  11  24  40  64  94 130 168 218 265 324 388
#     4  11  20  42  68  92 130 168 224 273 322 390
#     4  10  23  39  63  96 123 173 221 264 319 391
#     4  11  25  45  70  98 135 172 219 276 340 403
#     4  12  24  43  67 101 131 176 219 273 332 395
#     4  11  24  45  70 100 131 173 222 277 337 397
#     4  11  22  40  61  90 132 170 217 267 321 383
#
# _framework density 19.665769000000001
#
# number of rings (size 3 to 8) (size 9 to 14) (size 15 to 20)
#    0.000    1.000    4.167    2.500    0.000    4.667 
#    0.000    0.000    0.000    0.000    0.000    0.000 
#    0.000    0.000    0.000    0.000    0.000    0.000 
#
# Total GULP energy -133794.901945 kJ/mol
# GULP energy per Si atom -5574.787581 kJ/mol
# Density = 1.962101 g / cm^3
# Si number density = 19.665769 Si / 1000 Ang^3
#
#
#
# Elastic Constant Matrix: (Units=GPa)
#
#
# Indices 1 2 3 4 5 6 
#
# 1 70.5335 18.3861 25.0978 0.0000 12.6088 0.0000
# 2 18.3861 56.8163 22.6542 0.0000 -1.8368 0.0000
# 3 25.0978 22.6542 90.1781 0.0000 7.9394 0.0000
# 4 0.0000 0.0000 0.0000 36.5146 0.0000 4.8726
# 5 12.6088 -1.8368 7.9394 0.0000 38.4797 0.0000
# 6 0.0000 0.0000 0.0000 4.8726 0.0000 36.1024
#
#
#
# Elastic Compliance Matrix: (Units=1/GPa)
#
#
# Indices 1 2 3 4 5 6 
#
# 1 0.017456 -0.004519 -0.003260 0.000000 -0.005263 0.000000
# 2 -0.004519 0.020880 -0.004283 0.000000 0.003361 0.000000
# 3 -0.003260 -0.004283 0.013237 0.000000 -0.001867 0.000000
# 4 0.000000 0.000000 0.000000 0.027889 0.000000 -0.003764
# 5 -0.005263 0.003361 -0.001867 0.000000 0.028258 0.000000
# 6 0.000000 0.000000 0.000000 -0.003764 0.000000 0.028207
#
#
# Mechanical properties :
#
#
# Convention : Reuss Voigt Hill
#
# Bulk Modulus (GPa) = 36.43256 38.86712 37.64984
# Shear Modulus (GPa) = 29.55063 32.31200 30.93131
#
# Velocity S-wave (km/s) = 3.88060 4.05786 3.97022
# Velocity P-wave (km/s) = 6.21650 6.46233 6.34061
#
# Compressibility (1/GPa) = 0.02744798
#
# Stress axis : x y z
#
# Youngs Moduli (GPa) = 57.28529 47.89337 75.54664
#
# Poissons Ratio (x) = 0.21645 0.24625
# Poissons Ratio (y) = 0.25890 0.32360
# Poissons Ratio (z) = 0.18673 0.20515
#
# Static dielectric constant tensor:
#      x y z
#    x 1.778580 0.000000 0.022590 
#    y 0.000000 1.711720 0.000000 
#    z 0.022590 0.000000 1.748810 
# 
# From -- ./inp_files/79816.got.cif
#   From: 2010.05.17/outbox.cif.g08.bks.cpg/sg15_40_cif.got.tgz:79816.got - 2010.06.03 18:47:42.
