data_PCOD9294787
_publ_section_title
;
Structure prediction by ZEFSAII (Michael W. Deem and Ramdas Pophale) SiO2 
 PCOD9294787
Probable space group: C 2/C
;
_chemical_formula_sum "Si O2"
_cell_formula_units_Z 40
_cell_length_a 16.189409
_cell_length_b 8.638082
_cell_length_c 28.629713
_cell_angle_alpha 90.000000
_cell_angle_beta 24.046458
_cell_angle_gamma 90.000000
_cell_volume 1631.430892
_symmetry_space_group_name_H-M "C 2/C"
_symmetry_group_IT_number 15
_symmetry_cell_setting 'monoclinic'
loop_
_space_group_symop_operation_xyz
x,y,z
-x,y,1/2-z
-x,-y,-z
x,-y,1/2+z
1/2+x,1/2+y,z
1/2-x,1/2+y,1/2-z
1/2-x,1/2-y,-z
1/2+x,1/2-y,1/2+z
loop_
_atom_site_type_symbol
_atom_site_label
_atom_site_fract_x
_atom_site_fract_y
_atom_site_fract_z
Si Si1 0.296382 0.251794 0.231303
Si Si2 0.504777 0.982303 0.342982
Si Si3 0.819839 0.241774 0.375400
Si Si4 0.003267 0.667007 0.024812
Si Si5 0.330327 0.421789 0.419441
O O1 0.088763 0.342678 0.331736
O O2 0.368761 0.195860 0.141669
O O3 0.451993 0.370478 0.175596
O O4 0.305470 0.098735 0.258611
O O5 0.406118 0.900217 0.350555
O O6 0.331353 0.088014 0.455157
O O7 0.612720 0.267306 0.453970
O O8 0.810837 0.103687 0.417356
O O9 0.000000 0.177926 0.250000
O O10 0.000000 0.500000 0.000000
O O11 0.232148 0.672329 0.926608
#
# Coordination Sequence:
#
# PCOD9294787 Si02
#       5
#     8   8   8   8   8
#     4  11  22  41  67  93 127 170 219 264 313 390
#     4  11  22  39  66  92 126 167 219 262 319 382
#     4  11  21  39  64  90 128 169 209 265 328 378
#     4   9  19  37  62  88 124 161 204 256 317 379
#     4  10  23  41  66  93 123 172 223 260 318 393
#
# _framework density 24.518352
#
# number of rings (size 3 to 8) (size 9 to 14) (size 15 to 20)
#    0.000    1.600    2.000    4.200    2.800    0.000 
#    0.000    5.000   13.200    0.000    0.000    0.000 
#    0.000    0.000    0.000    0.000    0.000    0.000 
#
# Total GULP energy -111516.015912 kJ/mol
# GULP energy per Si atom -5575.800796 kJ/mol
# Density = 2.446255 g / cm^3
# Si number density = 24.518352 Si / 1000 Ang^3
#
#
#
# Elastic Constant Matrix: (Units=GPa)
#
#
# Indices 1 2 3 4 5 6 
#
# 1 158.2637 57.1900 39.3211 0.0002 -50.9911 0.0000
# 2 57.1900 86.8367 23.2086 0.0001 -16.1404 0.0001
# 3 39.3211 23.2086 53.3870 -0.0004 -19.7483 -0.0029
# 4 0.0002 0.0001 -0.0004 42.1570 -0.0009 -17.4354
# 5 -50.9911 -16.1404 -19.7483 -0.0009 37.1507 0.0002
# 6 0.0000 0.0001 -0.0029 -17.4354 0.0002 34.9514
#
#
#
# Elastic Compliance Matrix: (Units=1/GPa)
#
#
# Indices 1 2 3 4 5 6 
#
# 1 0.013877 -0.005724 -0.002000 0.000000 0.015497 0.000000
# 2 -0.005724 0.015724 -0.003733 0.000000 -0.003010 -0.000001
# 3 -0.002000 -0.003733 0.025159 0.000002 0.009007 0.000003
# 4 0.000000 0.000000 0.000002 0.029887 0.000002 0.014909
# 5 0.015497 -0.003010 0.009007 0.000002 0.051667 0.000001
# 6 0.000000 -0.000001 0.000003 0.014909 0.000001 0.036049
#
#
# Mechanical properties :
#
#
# Convention : Reuss Voigt Hill
#
# Bulk Modulus (GPa) = 31.40169 59.76965 45.58567
# Shear Modulus (GPa) = 24.28462 34.76967 29.52715
#
# Velocity S-wave (km/s) = 3.15058 3.76986 3.47405
# Velocity P-wave (km/s) = 5.10589 6.58632 5.89278
#
# Compressibility (1/GPa) = 0.03184542
#
# Stress axis : x y z
#
# Youngs Moduli (GPa) = 72.06272 63.59660 39.74783
#
# Poissons Ratio (x) = 0.36405 0.07949
# Poissons Ratio (y) = 0.41251 0.14837
# Poissons Ratio (z) = 0.14412 0.23740
#
# Static dielectric constant tensor:
#      x y z
#    x 2.002380 0.000000 0.030620 
#    y 0.000000 2.043500 0.000000 
#    z 0.030620 0.000000 1.968650 
# 
# From -- ./inp_files/150766.got.cif
#   From: 2010.05.17/outbox.cif.g08.bks.cpg/sg15_76_cif.got.tgz:150766.got - 2010.06.03 18:47:42.
