data_PCOD9294099
_publ_section_title
;
Structure prediction by ZEFSAII (Michael W. Deem and Ramdas Pophale) SiO2 
 PCOD9294099
Probable space group: C 2/C
;
_chemical_formula_sum "Si O2"
_cell_formula_units_Z 40
_cell_length_a 12.835338
_cell_length_b 11.214050
_cell_length_c 12.564989
_cell_angle_alpha 90.000000
_cell_angle_beta 61.299650
_cell_angle_gamma 90.000000
_cell_volume 1586.362468
_symmetry_space_group_name_H-M "C 2/C"
_symmetry_group_IT_number 15
_symmetry_cell_setting 'monoclinic'
loop_
_space_group_symop_operation_xyz
x,y,z
-x,y,1/2-z
-x,-y,-z
x,-y,1/2+z
1/2+x,1/2+y,z
1/2-x,1/2+y,1/2-z
1/2-x,1/2-y,-z
1/2+x,1/2-y,1/2+z
loop_
_atom_site_type_symbol
_atom_site_label
_atom_site_fract_x
_atom_site_fract_y
_atom_site_fract_z
Si Si1 0.076923 0.779782 0.518673
Si Si2 0.856803 0.286254 0.025019
Si Si3 0.241768 0.584492 0.720948
Si Si4 0.132883 0.517925 0.572117
Si Si5 0.125427 0.964945 0.670244
O O1 0.179804 0.832153 0.393859
O O2 0.091882 0.639773 0.536814
O O3 0.085872 0.845378 0.628035
O O4 0.956569 0.806352 0.513033
O O5 0.805863 0.334566 0.161070
O O6 0.926545 0.395879 0.934459
O O7 0.750000 0.250000 0.000000
O O8 0.140281 0.534455 0.694269
O O9 0.311792 0.477665 0.745952
O O10 0.269035 0.496020 0.461763
O O11 0.000000 0.033243 0.750000
#
# Coordination Sequence:
#
# PCOD9294099 Si02
#       5
#     8   8   8   8   8
#     4  11  25  43  71  98 139 181 229 277 355 406
#     4  11  27  43  69 103 136 181 235 279 344 414
#     4  10  24  44  68  98 140 170 228 291 333 410
#     4  10  24  45  65 100 136 179 232 277 347 415
#     4  10  23  38  71  98 131 174 229 275 350 402
#
# _framework density 25.214917
#
# number of rings (size 3 to 8) (size 9 to 14) (size 15 to 20)
#    0.000    1.600    0.000    3.000   14.000    3.200 
#    0.000    2.000    0.000    0.000    0.000    0.000 
#    0.000    0.000    0.000    0.000    0.000    0.000 
#
# Total GULP energy -111700.575733 kJ/mol
# GULP energy per Si atom -5585.028787 kJ/mol
# Density = 2.515753 g / cm^3
# Si number density = 25.214917 Si / 1000 Ang^3
#
#
#
# Elastic Constant Matrix: (Units=GPa)
#
#
# Indices 1 2 3 4 5 6 
#
# 1 141.5883 25.2317 35.4949 0.0000 40.9721 0.0000
# 2 25.2317 82.5123 25.0500 0.0000 29.4734 0.0000
# 3 35.4949 25.0500 131.9194 0.0000 30.0643 0.0000
# 4 0.0000 0.0000 0.0000 29.9541 0.0000 18.6382
# 5 40.9721 29.4734 30.0643 0.0000 49.0604 0.0000
# 6 0.0000 0.0000 0.0000 18.6382 0.0000 32.2151
#
#
#
# Elastic Compliance Matrix: (Units=1/GPa)
#
#
# Indices 1 2 3 4 5 6 
#
# 1 0.009397 0.000003 -0.000860 0.000000 -0.007322 0.000000
# 2 0.000003 0.015534 -0.000957 0.000000 -0.008748 0.000000
# 3 -0.000860 -0.000957 0.008949 0.000000 -0.004190 0.000000
# 4 0.000000 0.000000 0.000000 0.052163 0.000000 -0.030179
# 5 -0.007322 -0.008748 -0.004190 0.000000 0.034322 0.000000
# 6 0.000000 0.000000 0.000000 -0.030179 0.000000 0.048502
#
#
# Mechanical properties :
#
#
# Convention : Reuss Voigt Hill
#
# Bulk Modulus (GPa) = 33.05615 58.61923 45.83769
# Shear Modulus (GPa) = 27.38580 40.26215 33.82398
#
# Velocity S-wave (km/s) = 3.29917 4.00028 3.66652
# Velocity P-wave (km/s) = 5.25842 6.68092 6.01189
#
# Compressibility (1/GPa) = 0.03025155
#
# Stress axis : x y z
#
# Youngs Moduli (GPa) = 106.42032 64.37561 111.75019
#
# Poissons Ratio (x) = -0.00021 0.09613
# Poissons Ratio (y) = -0.00035 0.10692
# Poissons Ratio (z) = 0.09154 0.06160
#
# Static dielectric constant tensor:
#      x y z
#    x 2.078470 0.000000 -0.057030 
#    y 0.000000 2.088250 0.000000 
#    z -0.057030 0.000000 1.971280 
# 
# From -- ./inp_files/94856.got.cif
#   From: 2010.05.17/outbox.cif.g08.bks.cpg/sg15_48_cif.got.tgz:94856.got - 2010.06.03 18:47:42.
