data_PCOD9294038
_publ_section_title
;
Structure prediction by ZEFSAII (Michael W. Deem and Ramdas Pophale) SiO2 
 PCOD9294038
Probable space group: C 2/C
;
_chemical_formula_sum "Si O2"
_cell_formula_units_Z 60
_cell_length_a 17.276100
_cell_length_b 18.543991
_cell_length_c 15.301580
_cell_angle_alpha 90.000000
_cell_angle_beta 142.332486
_cell_angle_gamma 90.000000
_cell_volume 2995.587957
_symmetry_space_group_name_H-M "C 2/C"
_symmetry_group_IT_number 15
_symmetry_cell_setting 'monoclinic'
loop_
_space_group_symop_operation_xyz
x,y,z
-x,y,1/2-z
-x,-y,-z
x,-y,1/2+z
1/2+x,1/2+y,z
1/2-x,1/2+y,1/2-z
1/2-x,1/2-y,-z
1/2+x,1/2-y,1/2+z
loop_
_atom_site_type_symbol
_atom_site_label
_atom_site_fract_x
_atom_site_fract_y
_atom_site_fract_z
Si Si1 0.000000 0.599036 0.750000
Si Si2 0.512253 0.394120 0.165872
Si Si3 0.263795 0.474613 0.885654
Si Si4 0.490090 0.019468 0.091730
Si Si5 0.806484 0.717409 0.638930
Si Si6 0.369000 0.382199 0.404863
Si Si7 0.770602 0.997025 0.592226
Si Si8 0.919094 0.132784 0.268093
O O1 0.982181 0.548999 0.649602
O O2 0.109889 0.652227 0.820204
O O3 0.500000 0.355896 0.250000
O O4 0.591280 0.360642 0.157069
O O5 0.597809 0.463347 0.268358
O O6 0.378407 0.418615 0.003608
O O7 0.124049 0.444032 0.737652
O O8 0.297984 0.539956 0.849813
O O9 0.255100 0.509373 0.974378
O O10 0.346150 0.046215 0.978326
O O11 0.500000 0.000000 0.000000
O O12 0.750000 0.750000 0.500000
O O13 0.708522 0.681298 0.617703
O O14 0.884128 0.783655 0.749015
O O15 0.493597 0.393128 0.575164
O O16 0.794360 0.917247 0.651343
O O17 0.000000 0.125889 0.250000
#
# Coordination Sequence:
#
# PCOD9294038 Si02
#       8
#     4   8   8   8   8   8   8   8
#     4  12  22  40  54  80 132 162 198 244 304 366
#     4  10  23  38  62  87 118 158 206 255 296 351
#     4  11  19  37  56  84 116 159 195 246 301 352
#     4  12  24  34  52  81 120 166 203 239 299 361
#     4  12  22  37  58  88 124 160 194 246 311 368
#     4  12  21  36  60  86 121 156 204 245 302 365
#     4  11  20  37  57  86 126 159 194 249 302 358
#     4  12  21  35  58  90 120 155 198 245 297 374
#
# _framework density 20.029457000000001
#
# number of rings (size 3 to 8) (size 9 to 14) (size 15 to 20)
#    0.000    0.533    7.333    2.400    1.867    0.000 
#    0.000    0.000    0.000    0.800    0.000    0.000 
#   10.000    0.000    0.000    0.000    0.000    0.000 
#
# Total GULP energy -167308.224864 kJ/mol
# GULP energy per Si atom -5576.940829 kJ/mol
# Density = 1.998387 g / cm^3
# Si number density = 20.029457 Si / 1000 Ang^3
#
#
#
# Elastic Constant Matrix: (Units=GPa)
#
#
# Indices 1 2 3 4 5 6 
#
# 1 148.2927 14.8944 40.7387 0.0000 -11.4430 0.0000
# 2 14.8944 20.6647 5.6433 0.0000 0.5522 0.0000
# 3 40.7387 5.6433 95.6375 0.0000 11.5916 0.0000
# 4 0.0000 0.0000 0.0000 9.3643 0.0000 3.2586
# 5 -11.4430 0.5522 11.5916 0.0000 44.8837 0.0000
# 6 0.0000 0.0000 0.0000 3.2586 0.0000 15.4776
#
#
#
# Elastic Compliance Matrix: (Units=1/GPa)
#
#
# Indices 1 2 3 4 5 6 
#
# 1 0.008536 -0.005223 -0.003716 0.000000 0.003200 0.000000
# 2 -0.005223 0.052381 -0.000647 0.000000 -0.001809 0.000000
# 3 -0.003716 -0.000647 0.012585 0.000000 -0.004189 0.000000
# 4 0.000000 0.000000 0.000000 0.115231 0.000000 -0.024260
# 5 0.003200 -0.001809 -0.004189 0.000000 0.024200 0.000000
# 6 0.000000 0.000000 0.000000 -0.024260 0.000000 0.069717
#
#
# Mechanical properties :
#
#
# Convention : Reuss Voigt Hill
#
# Bulk Modulus (GPa) = 18.40574 43.01642 30.71108
# Shear Modulus (GPa) = 15.62840 27.49969 21.56405
#
# Velocity S-wave (km/s) = 2.79636 3.70937 3.28474
# Velocity P-wave (km/s) = 4.43119 6.31420 5.45457
#
# Compressibility (1/GPa) = 0.05433086
#
# Stress axis : x y z
#
# Youngs Moduli (GPa) = 117.15519 19.09084 79.46078
#
# Poissons Ratio (x) = 0.09971 0.29524
# Poissons Ratio (y) = 0.61191 0.05139
# Poissons Ratio (z) = 0.43530 0.01235
#
# Static dielectric constant tensor:
#      x y z
#    x 1.819370 0.000000 0.082780 
#    y 0.000000 1.809350 0.000000 
#    z 0.082780 0.000000 1.812720 
# 
# From -- ./inp_files/163548.got.cif
#   From: 2010.05.17/outbox.cif.g08.bks.cpg/sg15_82_cif.got.tgz:163548.got - 2010.06.03 18:47:42.
