data_PCOD9294566
_publ_section_title
;
Structure prediction by ZEFSAII (Michael W. Deem and Ramdas Pophale) SiO2 
 PCOD9294566
Probable space group: C 2/C
;
_chemical_formula_sum "Si O2"
_cell_formula_units_Z 52
_cell_length_a 18.683283
_cell_length_b 6.352591
_cell_length_c 19.688629
_cell_angle_alpha 90.000000
_cell_angle_beta 99.522456
_cell_angle_gamma 90.000000
_cell_volume 2304.590342
_symmetry_space_group_name_H-M "C 2/C"
_symmetry_group_IT_number 15
_symmetry_cell_setting 'monoclinic'
loop_
_space_group_symop_operation_xyz
x,y,z
-x,y,1/2-z
-x,-y,-z
x,-y,1/2+z
1/2+x,1/2+y,z
1/2-x,1/2+y,1/2-z
1/2-x,1/2-y,-z
1/2+x,1/2-y,1/2+z
loop_
_atom_site_type_symbol
_atom_site_label
_atom_site_fract_x
_atom_site_fract_y
_atom_site_fract_z
Si Si1 0.148269 0.675627 0.603092
Si Si2 0.584643 0.514318 0.994756
Si Si3 0.397549 0.451465 0.160817
Si Si4 0.616272 0.160462 0.735525
Si Si5 0.000000 0.319254 0.750000
Si Si6 0.214759 0.247193 0.567678
Si Si7 0.718388 0.918266 0.827792
O O1 0.089186 0.659105 0.653169
O O2 0.196365 0.473048 0.595129
O O3 0.200366 0.834023 0.653279
O O4 0.116188 0.763920 0.528273
O O5 0.600635 0.480605 0.917565
O O6 0.500000 0.500000 0.000000
O O7 0.635238 0.356682 0.045864
O O8 0.388340 0.631953 0.217830
O O9 0.475408 0.338749 0.186608
O O10 0.334379 0.274566 0.160435
O O11 0.565610 0.980673 0.758372
O O12 0.693483 0.036338 0.755833
O O13 0.250000 0.250000 0.500000
O O14 0.273410 0.112352 0.618763
#
# Coordination Sequence:
#
# PCOD9294566 Si02
#       7
#     8   8   8   8   4   8   8
#     4  11  26  42  69 104 141 175 237 290 344 428
#     4  11  27  43  69 101 139 187 235 288 354 419
#     4  11  24  46  69  96 142 183 234 289 351 425
#     4  11  25  42  70 100 136 184 228 295 351 414
#     4  10  26  42  70  96 132 180 242 276 360 414
#     4  11  23  45  70 101 140 181 227 288 356 430
#     4  10  23  40  70 101 131 179 226 281 356 410
#
# _framework density 22.563661
#
# number of rings (size 3 to 8) (size 9 to 14) (size 15 to 20)
#    0.000    1.231    0.000    4.154   10.769    6.769 
#    0.000    0.000    0.000    0.000    0.000    0.000 
#    0.000    0.000    0.000    0.000    0.000    0.000 
#
# Total GULP energy -144756.391639 kJ/mol
# GULP energy per Si atom -5567.553525 kJ/mol
# Density = 2.251231 g / cm^3
# Si number density = 22.563661 Si / 1000 Ang^3
#
#
#
# Elastic Constant Matrix: (Units=GPa)
#
#
# Indices 1 2 3 4 5 6 
#
# 1 56.0273 20.6320 2.7961 0.0000 11.7787 0.0000
# 2 20.6320 101.7634 39.1143 0.0000 0.7832 0.0000
# 3 2.7961 39.1143 98.7941 0.0000 -5.2373 0.0000
# 4 0.0000 0.0000 0.0000 35.3952 0.0000 10.1602
# 5 11.7787 0.7832 -5.2373 0.0000 37.8713 0.0000
# 6 0.0000 0.0000 0.0000 10.1602 0.0000 25.8799
#
#
#
# Elastic Compliance Matrix: (Units=1/GPa)
#
#
# Indices 1 2 3 4 5 6 
#
# 1 0.020774 -0.004494 0.000860 0.000000 -0.006249 0.000000
# 2 -0.004494 0.012592 -0.004833 0.000000 0.000469 0.000000
# 3 0.000860 -0.004833 0.012091 0.000000 0.001505 0.000000
# 4 0.000000 0.000000 0.000000 0.031841 0.000000 -0.012500
# 5 -0.006249 0.000469 0.001505 0.000000 0.028547 0.000000
# 6 0.000000 0.000000 0.000000 -0.012500 0.000000 0.043548
#
#
# Mechanical properties :
#
#
# Convention : Reuss Voigt Hill
#
# Bulk Modulus (GPa) = 35.06023 42.40772 38.73398
# Shear Modulus (GPa) = 28.43561 32.76544 30.60052
#
# Velocity S-wave (km/s) = 3.55384 3.81482 3.68664
# Velocity P-wave (km/s) = 5.69313 6.18379 5.94353
#
# Compressibility (1/GPa) = 0.02852234
#
# Stress axis : x y z
#
# Youngs Moduli (GPa) = 48.13624 79.41485 82.70553
#
# Poissons Ratio (x) = 0.35692 -0.07114
# Poissons Ratio (y) = 0.21634 0.39975
# Poissons Ratio (z) = -0.04141 0.38384
#
# Static dielectric constant tensor:
#      x y z
#    x 2.033650 0.000000 0.092120 
#    y 0.000000 1.896900 0.000000 
#    z 0.092120 0.000000 2.632180 
# 
# From -- ./inp_files/251112.got.cif
#   From: 2010.05.17/outbox.cif.g08.bks.cpg/sg15_126_cif.got.tgz:251112.got - 2010.06.03 18:47:42.
