data_PCOD9294315
_publ_section_title
;
Structure prediction by ZEFSAII (Michael W. Deem and Ramdas Pophale) SiO2 
 PCOD9294315
Probable space group: C 2/C
;
_chemical_formula_sum "Si O2"
_cell_formula_units_Z 56
_cell_length_a 17.017962
_cell_length_b 18.357140
_cell_length_c 10.658147
_cell_angle_alpha 90.000000
_cell_angle_beta 125.256032
_cell_angle_gamma 90.000000
_cell_volume 2718.901250
_symmetry_space_group_name_H-M "C 2/C"
_symmetry_group_IT_number 15
_symmetry_cell_setting 'monoclinic'
loop_
_space_group_symop_operation_xyz
x,y,z
-x,y,1/2-z
-x,-y,-z
x,-y,1/2+z
1/2+x,1/2+y,z
1/2-x,1/2+y,1/2-z
1/2-x,1/2-y,-z
1/2+x,1/2-y,1/2+z
loop_
_atom_site_type_symbol
_atom_site_label
_atom_site_fract_x
_atom_site_fract_y
_atom_site_fract_z
Si Si1 0.278308 0.186201 0.426520
Si Si2 0.104420 0.179691 0.083250
Si Si3 0.392723 0.413414 0.165741
Si Si4 0.052802 0.076532 0.519040
Si Si5 0.759236 0.962655 0.463292
Si Si6 0.503177 0.198413 0.896319
Si Si7 0.945937 0.530991 0.828146
O O1 0.250000 0.250000 0.500000
O O2 0.204638 0.185590 0.244874
O O3 0.274662 0.106465 0.487355
O O4 0.384584 0.197309 0.472842
O O5 0.053491 0.256868 0.051509
O O6 0.113478 0.143524 0.954399
O O7 0.034684 0.127417 0.102126
O O8 0.500000 0.449731 0.250000
O O9 0.403877 0.384644 0.316361
O O10 0.303500 0.468624 0.078586
O O11 0.145209 0.063023 0.521059
O O12 0.000000 0.000000 0.500000
O O13 0.667916 0.985223 0.293545
O O14 0.500000 0.229173 0.750000
O O15 0.458644 0.118171 0.846683
O O16 0.000000 0.506582 0.750000
O O17 0.000000 0.500000 0.000000
#
# Coordination Sequence:
#
# PCOD9294315 Si02
#       7
#     8   8   8   8   8   8   8
#     4  12  23  38  67  99 126 172 228 278 341 396
#     4  11  23  39  67  93 137 175 215 282 341 400
#     4  10  23  40  60 101 140 173 219 275 345 416
#     4  11  22  39  61  98 140 176 218 273 343 413
#     4  12  23  37  69  93 136 175 222 284 340 404
#     4  11  22  45  61  97 131 171 236 286 325 410
#     4  11  26  46  68  96 133 180 235 294 344 412
#
# _framework density 20.596554999999999
#
# number of rings (size 3 to 8) (size 9 to 14) (size 15 to 20)
#    0.000    0.857    7.143    1.714    4.000    0.000 
#    0.000    2.143    0.000   16.286    0.000    0.000 
#    0.000    0.000    0.000    0.000    0.000    0.000 
#
# Total GULP energy -156217.069965 kJ/mol
# GULP energy per Si atom -5579.181070 kJ/mol
# Density = 2.054968 g / cm^3
# Si number density = 20.596555 Si / 1000 Ang^3
#
#
#
# Elastic Constant Matrix: (Units=GPa)
#
#
# Indices 1 2 3 4 5 6 
#
# 1 54.9490 9.1435 49.1690 0.0000 17.1684 0.0000
# 2 9.1435 65.6073 37.2590 0.0000 -1.2126 0.0000
# 3 49.1690 37.2590 144.0070 0.0000 29.3022 0.0000
# 4 0.0000 0.0000 0.0000 28.6820 0.0000 2.5520
# 5 17.1684 -1.2126 29.3022 0.0000 48.6327 0.0000
# 6 0.0000 0.0000 0.0000 2.5520 0.0000 24.6039
#
#
#
# Elastic Compliance Matrix: (Units=1/GPa)
#
#
# Indices 1 2 3 4 5 6 
#
# 1 0.027117 0.001052 -0.008649 0.000000 -0.004336 0.000000
# 2 0.001052 0.018506 -0.005888 0.000000 0.003637 0.000000
# 3 -0.008649 -0.005888 0.012342 0.000000 -0.004530 0.000000
# 4 0.000000 0.000000 0.000000 0.035190 0.000000 -0.003650
# 5 -0.004336 0.003637 -0.004530 0.000000 0.024913 0.000000
# 6 0.000000 0.000000 0.000000 -0.003650 0.000000 0.041023
#
#
# Mechanical properties :
#
#
# Convention : Reuss Voigt Hill
#
# Bulk Modulus (GPa) = 32.26046 50.63403 41.44725
# Shear Modulus (GPa) = 25.45928 31.64983 28.55456
#
# Velocity S-wave (km/s) = 3.51963 3.92427 3.72745
# Velocity P-wave (km/s) = 5.67574 6.72089 6.22031
#
# Compressibility (1/GPa) = 0.03099769
#
# Stress axis : x y z
#
# Youngs Moduli (GPa) = 36.87682 54.03535 81.02292
#
# Poissons Ratio (x) = -0.05687 0.70076
# Poissons Ratio (y) = -0.03881 0.47703
# Poissons Ratio (z) = 0.31894 0.31814
#
# Static dielectric constant tensor:
#      x y z
#    x 5.502730 0.000000 3.836570 
#    y 0.000000 1.807770 0.000000 
#    z 3.836570 0.000000 5.794620 
# 
# From -- ./inp_files/106732.got.cif
#   From: 2010.05.17/outbox.cif.g08.bks.cpg/sg15_54_cif.got.tgz:106732.got - 2010.06.03 18:47:42.
