data_PCOD9294870
_publ_section_title
;
Structure prediction by ZEFSAII (Michael W. Deem and Ramdas Pophale) SiO2 
 PCOD9294870
Probable space group: C 2/C
;
_chemical_formula_sum "Si O2"
_cell_formula_units_Z 64
_cell_length_a 9.220638
_cell_length_b 20.678785
_cell_length_c 19.866187
_cell_angle_alpha 90.000000
_cell_angle_beta 139.241277
_cell_angle_gamma 90.000000
_cell_volume 2473.036928
_symmetry_space_group_name_H-M "C 2/C"
_symmetry_group_IT_number 15
_symmetry_cell_setting 'monoclinic'
loop_
_space_group_symop_operation_xyz
x,y,z
-x,y,1/2-z
-x,-y,-z
x,-y,1/2+z
1/2+x,1/2+y,z
1/2-x,1/2+y,1/2-z
1/2-x,1/2-y,-z
1/2+x,1/2-y,1/2+z
loop_
_atom_site_type_symbol
_atom_site_label
_atom_site_fract_x
_atom_site_fract_y
_atom_site_fract_z
Si Si1 0.289231 0.257702 0.198353
Si Si2 0.240152 0.953467 0.368546
Si Si3 0.668330 0.644304 0.252988
Si Si4 0.831816 0.930113 0.562412
Si Si5 0.844307 0.112353 0.922412
Si Si6 0.784797 0.775652 0.952878
Si Si7 0.852785 0.612533 0.784258
Si Si8 0.509701 0.841203 0.984325
O O1 0.189081 0.198598 0.203703
O O2 0.424504 0.237788 0.173447
O O3 0.279808 0.326406 0.231847
O O4 0.904494 0.359629 0.150192
O O5 0.387178 0.942573 0.352631
O O6 0.282853 0.887988 0.424879
O O7 0.000000 0.955681 0.250000
O O8 0.267789 0.010506 0.431172
O O9 0.500000 0.671270 0.250000
O O10 0.567388 0.582613 0.181526
O O11 0.881716 0.627785 0.371628
O O12 0.876495 0.933177 0.498419
O O13 0.686875 0.866794 0.532087
O O14 0.628111 0.786116 0.968837
O O15 0.790676 0.085963 0.828972
O O16 0.047890 0.163586 0.990723
O O17 0.912422 0.727261 0.935545
#
# Coordination Sequence:
#
# PCOD9294870 Si02
#       8
#     8   8   8   8   8   8   8   8
#     4  12  23  41  65 104 151 190 226 294 369 451
#     4  12  25  44  72 100 135 187 250 299 360 430
#     4  10  23  41  68 105 140 183 241 296 367 436
#     4  11  23  45  72 101 133 186 246 307 351 431
#     4  11  24  43  69 103 149 184 241 302 367 428
#     4  12  25  41  70 105 148 189 228 291 370 448
#     4  11  25  41  69 103 145 190 241 297 364 439
#     4  11  23  41  69 102 137 182 234 291 361 435
#
# _framework density 25.879111000000002
#
# number of rings (size 3 to 8) (size 9 to 14) (size 15 to 20)
#    0.000    0.750    3.750    4.125    7.000    1.000 
#    0.000    0.625    0.000    4.500    0.000    0.000 
#    0.000    0.000    0.000    0.000    0.000    0.000 
#
# Total GULP energy -178285.540371 kJ/mol
# GULP energy per Si atom -5571.423137 kJ/mol
# Density = 2.582021 g / cm^3
# Si number density = 25.879111 Si / 1000 Ang^3
#
#
#
# Elastic Constant Matrix: (Units=GPa)
#
#
# Indices 1 2 3 4 5 6 
#
# 1 103.1415 31.7170 59.5638 -0.0003 -27.7075 0.0001
# 2 31.7170 94.0098 44.6684 0.0000 -26.4426 0.0000
# 3 59.5638 44.6684 218.8998 -0.0002 -47.0732 0.0003
# 4 -0.0003 0.0000 -0.0002 31.3882 -0.0003 -7.3614
# 5 -27.7075 -26.4426 -47.0732 -0.0003 68.4670 0.0002
# 6 0.0001 0.0000 0.0003 -7.3614 0.0002 46.2129
#
#
#
# Elastic Compliance Matrix: (Units=1/GPa)
#
#
# Indices 1 2 3 4 5 6 
#
# 1 0.012466 -0.002377 -0.002370 0.000000 0.002497 0.000000
# 2 -0.002377 0.012948 -0.001322 0.000000 0.003129 0.000000
# 3 -0.002370 -0.001322 0.006063 0.000000 0.002699 0.000000
# 4 0.000000 0.000000 0.000000 0.033096 0.000000 0.005272
# 5 0.002497 0.003129 0.002699 0.000000 0.018680 0.000000
# 6 0.000000 0.000000 0.000000 0.005272 0.000000 0.022479
#
#
# Mechanical properties :
#
#
# Convention : Reuss Voigt Hill
#
# Bulk Modulus (GPa) = 51.71135 76.43883 64.07509
# Shear Modulus (GPa) = 40.21986 47.88709 44.05347
#
# Velocity S-wave (km/s) = 3.94654 4.30631 4.13034
# Velocity P-wave (km/s) = 6.38687 7.37067 6.89634
#
# Compressibility (1/GPa) = 0.01933811
#
# Stress axis : x y z
#
# Youngs Moduli (GPa) = 80.21864 77.23365 164.92395
#
# Poissons Ratio (x) = 0.18361 0.39086
# Poissons Ratio (y) = 0.19070 0.21807
# Poissons Ratio (z) = 0.19011 0.10212
#
# Static dielectric constant tensor:
#      x y z
#    x 2.115080 0.000000 0.055250 
#    y 0.000000 1.967380 0.000000 
#    z 0.055250 0.000000 2.262110 
# 
# From -- ./inp_files/240449.got.cif
#   From: 2010.05.17/outbox.cif.g08.bks.cpg/sg15_121_cif.got.tgz:240449.got - 2010.06.03 18:47:42.
