data_PCOD9294053
_publ_section_title
;
Structure prediction by ZEFSAII (Michael W. Deem and Ramdas Pophale) SiO2 
 PCOD9294053
Probable space group: C 2/C
;
_chemical_formula_sum "Si O2"
_cell_formula_units_Z 48
_cell_length_a 16.092000
_cell_length_b 16.264639
_cell_length_c 9.306487
_cell_angle_alpha 90.000000
_cell_angle_beta 126.140310
_cell_angle_gamma 90.000000
_cell_volume 1967.085238
_symmetry_space_group_name_H-M "C 2/C"
_symmetry_group_IT_number 15
_symmetry_cell_setting 'monoclinic'
loop_
_space_group_symop_operation_xyz
x,y,z
-x,y,1/2-z
-x,-y,-z
x,-y,1/2+z
1/2+x,1/2+y,z
1/2-x,1/2+y,1/2-z
1/2-x,1/2-y,-z
1/2+x,1/2-y,1/2+z
loop_
_atom_site_type_symbol
_atom_site_label
_atom_site_fract_x
_atom_site_fract_y
_atom_site_fract_z
Si Si1 0.000000 0.904757 0.750000
Si Si2 0.135964 0.956044 0.287893
Si Si3 0.500000 0.317828 0.250000
Si Si4 0.143714 0.446234 0.897486
Si Si5 0.195753 0.161065 0.589096
Si Si6 0.915058 0.399991 0.335235
Si Si7 0.593707 0.195635 0.128481
O O1 0.901751 0.848514 0.615023
O O2 0.946696 0.970918 0.804866
O O3 0.094232 0.881504 0.344739
O O4 0.242655 0.983820 0.465400
O O5 0.165878 0.912449 0.170177
O O6 0.516846 0.259478 0.131127
O O7 0.084692 0.514798 0.747836
O O8 0.139752 0.365410 0.794335
O O9 0.105411 0.419676 0.015940
O O10 0.315324 0.149490 0.676409
O O11 0.181544 0.248812 0.649878
O O12 0.023757 0.354034 0.445464
#
# Coordination Sequence:
#
# PCOD9294053 Si02
#       7
#     4   8   4   8   8   8   8
#     4  11  18  42  56  87 128 160 214 259 324 376
#     4   9  20  34  63  89 120 163 209 261 312 376
#     4   9  18  34  58  91 114 162 204 263 302 360
#     4  11  22  41  66  95 128 167 215 263 320 384
#     4  10  23  38  63  91 128 165 216 264 321 380
#     4  11  23  43  66  97 128 171 216 264 319 388
#     4  11  22  39  62  93 129 168 211 265 314 381
#
# _framework density 24.401586999999999
#
# number of rings (size 3 to 8) (size 9 to 14) (size 15 to 20)
#    0.000    1.667    3.333    1.000    2.333    2.000 
#    3.000    0.833    0.000    0.000    0.000    0.000 
#    0.000    0.000    0.000    0.000    0.000    0.000 
#
# Total GULP energy -134164.639829 kJ/mol
# GULP energy per Si atom -5590.193326 kJ/mol
# Density = 2.434605 g / cm^3
# Si number density = 24.401587 Si / 1000 Ang^3
#
#
#
# Elastic Constant Matrix: (Units=GPa)
#
#
# Indices 1 2 3 4 5 6 
#
# 1 59.1054 20.0787 15.1644 0.0000 12.7638 0.0000
# 2 20.0787 76.5302 17.3957 0.0000 -12.5415 0.0000
# 3 15.1644 17.3957 93.2591 0.0000 12.8242 0.0000
# 4 0.0000 0.0000 0.0000 21.7131 0.0000 5.6833
# 5 12.7638 -12.5415 12.8242 0.0000 29.9377 0.0000
# 6 0.0000 0.0000 0.0000 5.6833 0.0000 20.2267
#
#
#
# Elastic Compliance Matrix: (Units=1/GPa)
#
#
# Indices 1 2 3 4 5 6 
#
# 1 0.022440 -0.007865 -0.000439 0.000000 -0.012674 0.000000
# 2 -0.007865 0.018054 -0.003815 0.000000 0.012550 0.000000
# 3 -0.000439 -0.003815 0.012432 0.000000 -0.006736 0.000000
# 4 0.000000 0.000000 0.000000 0.049711 0.000000 -0.013968
# 5 -0.012674 0.012550 -0.006736 0.000000 0.046949 0.000000
# 6 0.000000 0.000000 0.000000 -0.013968 0.000000 0.053364
#
#
# Mechanical properties :
#
#
# Convention : Reuss Voigt Hill
#
# Bulk Modulus (GPa) = 34.85591 37.13026 35.99308
# Shear Modulus (GPa) = 21.11927 26.12588 23.62257
#
# Velocity S-wave (km/s) = 2.94511 3.27565 3.11477
# Velocity P-wave (km/s) = 5.08726 5.43653 5.26479
#
# Compressibility (1/GPa) = 0.02868954
#
# Stress axis : x y z
#
# Youngs Moduli (GPa) = 44.56297 55.38987 80.43724
#
# Poissons Ratio (x) = 0.43562 0.03532
# Poissons Ratio (y) = 0.35047 0.30683
# Poissons Ratio (z) = 0.01957 0.21129
#
# Static dielectric constant tensor:
#      x y z
#    x 1.962580 0.000000 -0.018220 
#    y 0.000000 1.920040 0.000000 
#    z -0.018220 0.000000 1.991150 
# 
# From -- ./inp_files/96896.got.cif
#   From: 2010.05.17/outbox.cif.g08.bks.cpg/sg15_49_cif.got.tgz:96896.got - 2010.06.03 18:47:42.
