data_PCOD9294195
_publ_section_title
;
Structure prediction by ZEFSAII (Michael W. Deem and Ramdas Pophale) SiO2 
 PCOD9294195
Probable space group: C 2/C
;
_chemical_formula_sum "Si O2"
_cell_formula_units_Z 52
_cell_length_a 21.206679
_cell_length_b 15.375979
_cell_length_c 15.675500
_cell_angle_alpha 90.000000
_cell_angle_beta 30.886970
_cell_angle_gamma 90.000000
_cell_volume 2623.898974
_symmetry_space_group_name_H-M "C 2/C"
_symmetry_group_IT_number 15
_symmetry_cell_setting 'monoclinic'
loop_
_space_group_symop_operation_xyz
x,y,z
-x,y,1/2-z
-x,-y,-z
x,-y,1/2+z
1/2+x,1/2+y,z
1/2-x,1/2+y,1/2-z
1/2-x,1/2-y,-z
1/2+x,1/2-y,1/2+z
loop_
_atom_site_type_symbol
_atom_site_label
_atom_site_fract_x
_atom_site_fract_y
_atom_site_fract_z
Si Si1 0.204561 0.573664 0.949793
Si Si2 0.424439 0.555104 0.158521
Si Si3 0.767418 0.440651 0.901957
Si Si4 0.500000 0.500878 0.750000
Si Si5 0.387697 0.065317 0.631723
Si Si6 0.182017 0.749508 0.226020
Si Si7 0.099460 0.243725 0.389802
O O1 0.301380 0.499676 0.812784
O O2 0.156143 0.546115 0.098915
O O3 0.129777 0.581734 0.949285
O O4 0.268496 0.668431 0.885225
O O5 0.396762 0.653502 0.165142
O O6 0.500000 0.500000 0.000000
O O7 0.488560 0.553052 0.176276
O O8 0.789518 0.512498 0.802854
O O9 0.801322 0.345696 0.830888
O O10 0.624229 0.444281 0.094381
O O11 0.405055 0.161702 0.650085
O O12 0.500000 0.000000 0.500000
O O13 0.275214 0.747611 0.199359
O O14 0.036133 0.762742 0.409155
#
# Coordination Sequence:
#
# PCOD9294195 Si02
#       7
#     8   8   8   4   8   8   8
#     4  10  23  39  63  96 125 168 215 268 324 383
#     4  11  20  40  66  91 128 169 218 271 319 382
#     4  11  23  42  65  96 132 170 215 270 330 392
#     4  10  24  38  66  98 126 172 228 270 316 384
#     4  11  23  43  63  91 135 172 213 268 329 394
#     4  11  22  41  65 100 131 166 218 273 333 392
#     4  11  24  39  69  96 126 176 222 267 327 387
#
# _framework density 19.817836
#
# number of rings (size 3 to 8) (size 9 to 14) (size 15 to 20)
#    0.000    1.231    3.077    3.231    4.308    0.615 
#    0.000    4.615    0.000    0.000    0.000    0.000 
#    0.000    0.000    0.000    0.000    0.000    0.000 
#
# Total GULP energy -144793.225969 kJ/mol
# GULP energy per Si atom -5568.970230 kJ/mol
# Density = 1.977273 g / cm^3
# Si number density = 19.817836 Si / 1000 Ang^3
#
#
#
# Elastic Constant Matrix: (Units=GPa)
#
#
# Indices 1 2 3 4 5 6 
#
# 1 63.9739 17.8309 -4.2219 0.0000 5.9550 0.0000
# 2 17.8309 136.1175 -2.5359 0.0000 5.5848 0.0000
# 3 -4.2219 -2.5359 41.2979 0.0000 -2.1966 0.0000
# 4 0.0000 0.0000 0.0000 13.3507 0.0000 -1.8707
# 5 5.9550 5.5848 -2.1966 0.0000 23.5581 0.0000
# 6 0.0000 0.0000 0.0000 -1.8707 0.0000 34.4737
#
#
#
# Elastic Compliance Matrix: (Units=1/GPa)
#
#
# Indices 1 2 3 4 5 6 
#
# 1 0.016616 -0.002003 0.001384 0.000000 -0.003596 0.000000
# 2 -0.002003 0.007666 0.000197 0.000000 -0.001293 0.000000
# 3 0.001384 0.000197 0.024468 0.000000 0.001885 0.000000
# 4 0.000000 0.000000 0.000000 0.075476 0.000000 0.004096
# 5 -0.003596 -0.001293 0.001885 0.000000 0.043839 0.000000
# 6 0.000000 0.000000 0.000000 0.004096 0.000000 0.029230
#
#
# Mechanical properties :
#
#
# Convention : Reuss Voigt Hill
#
# Bulk Modulus (GPa) = 20.87412 29.28175 25.07793
# Shear Modulus (GPa) = 23.35276 29.63092 26.49184
#
# Velocity S-wave (km/s) = 3.43647 3.87093 3.66015
# Velocity P-wave (km/s) = 5.12851 5.89799 5.52666
#
# Compressibility (1/GPa) = 0.04790620
#
# Stress axis : x y z
#
# Youngs Moduli (GPa) = 60.18354 130.45090 40.86941
#
# Poissons Ratio (x) = 0.26133 -0.05658
# Poissons Ratio (y) = 0.12056 -0.00806
# Poissons Ratio (z) = -0.08331 -0.02572
#
# Static dielectric constant tensor:
#      x y z
#    x 1.803300 0.000000 -0.065890 
#    y 0.000000 1.689390 0.000000 
#    z -0.065890 0.000000 1.629350 
# 
# From -- ./inp_files/215565.got.cif
#   From: 2010.05.17/outbox.cif.g08.bks.cpg/sg15_108_cif.got.tgz:215565.got - 2010.06.03 18:47:42.
