data_PCOD9294269
_publ_section_title
;
Structure prediction by ZEFSAII (Michael W. Deem and Ramdas Pophale) SiO2 
 PCOD9294269
Probable space group: C 2/C
;
_chemical_formula_sum "Si O2"
_cell_formula_units_Z 60
_cell_length_a 7.768936
_cell_length_b 16.666250
_cell_length_c 22.495887
_cell_angle_alpha 90.000000
_cell_angle_beta 67.481665
_cell_angle_gamma 90.000000
_cell_volume 2690.669225
_symmetry_space_group_name_H-M "C 2/C"
_symmetry_group_IT_number 15
_symmetry_cell_setting 'monoclinic'
loop_
_space_group_symop_operation_xyz
x,y,z
-x,y,1/2-z
-x,-y,-z
x,-y,1/2+z
1/2+x,1/2+y,z
1/2-x,1/2+y,1/2-z
1/2-x,1/2-y,-z
1/2+x,1/2-y,1/2+z
loop_
_atom_site_type_symbol
_atom_site_label
_atom_site_fract_x
_atom_site_fract_y
_atom_site_fract_z
Si Si1 0.892097 0.294316 0.024703
Si Si2 0.276290 0.467495 0.074953
Si Si3 0.573848 0.641454 0.412141
Si Si4 0.300688 0.917230 0.551054
Si Si5 0.976935 0.308148 0.821181
Si Si6 0.112611 0.482458 0.840236
Si Si7 0.500000 0.446275 0.250000
Si Si8 0.474650 0.645524 0.876364
O O1 0.993002 0.218576 0.041437
O O2 0.747777 0.345705 0.083410
O O3 0.750000 0.250000 0.000000
O O4 0.036916 0.352291 0.974676
O O5 0.355909 0.558782 0.066198
O O6 0.419848 0.405398 0.086900
O O7 0.083061 0.469241 0.138582
O O8 0.238525 0.445188 0.011273
O O9 0.395340 0.616193 0.398561
O O10 0.757092 0.675266 0.357259
O O11 0.358014 0.981092 0.592383
O O12 0.073430 0.391940 0.823717
O O13 0.000000 0.283809 0.750000
O O14 0.038029 0.237559 0.857703
O O15 0.300865 0.509383 0.783147
O O16 0.488493 0.396990 0.190768
#
# Coordination Sequence:
#
# PCOD9294269 Si02
#       8
#     8   8   8   8   8   8   4   8
#     4  11  23  43  70  99 141 181 231 288 345 412
#     4  11  24  44  71 103 140 180 231 290 351 410
#     4  10  23  39  68 103 133 182 225 274 348 404
#     4  12  23  42  68 108 141 179 231 286 344 416
#     4  10  23  46  69  95 137 183 230 280 340 414
#     4  11  27  42  69 100 138 186 232 283 345 408
#     4  12  26  46  68 102 142 182 236 290 340 422
#     4  11  24  45  71 102 137 187 229 290 355 407
#
# _framework density 22.299282999999999
#
# number of rings (size 3 to 8) (size 9 to 14) (size 15 to 20)
#    0.000    1.067    0.667    6.000    5.600    3.200 
#    0.000    1.333    2.933    0.000    0.000    0.000 
#    0.000    0.000    0.000    0.000    0.000    0.000 
#
# Total GULP energy -167629.029041 kJ/mol
# GULP energy per Si atom -5587.634301 kJ/mol
# Density = 2.224853 g / cm^3
# Si number density = 22.299283 Si / 1000 Ang^3
#
#
#
# Elastic Constant Matrix: (Units=GPa)
#
#
# Indices 1 2 3 4 5 6 
#
# 1 94.1320 47.1434 32.7732 0.0000 -21.4321 0.0000
# 2 47.1434 118.3870 52.4503 0.0000 -16.0147 0.0000
# 3 32.7732 52.4503 103.3095 0.0000 -11.7394 0.0000
# 4 0.0000 0.0000 0.0000 39.0540 0.0000 -3.6407
# 5 -21.4321 -16.0147 -11.7394 0.0000 46.8086 0.0000
# 6 0.0000 0.0000 0.0000 -3.6407 0.0000 39.8864
#
#
#
# Elastic Compliance Matrix: (Units=1/GPa)
#
#
# Indices 1 2 3 4 5 6 
#
# 1 0.014505 -0.004307 -0.001881 0.000000 0.004696 0.000000
# 2 -0.004307 0.012448 -0.004831 0.000000 0.001075 0.000000
# 3 -0.001881 -0.004831 0.012808 0.000000 0.000698 0.000000
# 4 0.000000 0.000000 0.000000 0.025825 0.000000 0.002357
# 5 0.004696 0.001075 0.000698 0.000000 0.024056 0.000000
# 6 0.000000 0.000000 0.000000 0.002357 0.000000 0.025286
#
#
# Mechanical properties :
#
#
# Convention : Reuss Voigt Hill
#
# Bulk Modulus (GPa) = 56.42697 64.50693 60.46695
# Shear Modulus (GPa) = 34.99544 37.38057 36.18800
#
# Velocity S-wave (km/s) = 3.96580 4.09872 4.03281
# Velocity P-wave (km/s) = 6.80657 7.16868 6.98997
#
# Compressibility (1/GPa) = 0.01772202
#
# Stress axis : x y z
#
# Youngs Moduli (GPa) = 68.94353 80.33409 78.07321
#
# Poissons Ratio (x) = 0.34603 0.14685
# Poissons Ratio (y) = 0.29697 0.37719
# Poissons Ratio (z) = 0.12967 0.38811
#
# Static dielectric constant tensor:
#      x y z
#    x 2.211750 0.000000 -0.021280 
#    y 0.000000 2.058810 0.000000 
#    z -0.021280 0.000000 1.858280 
# 
# From -- ./inp_files/265528.got.cif
#   From: 2010.05.17/outbox.cif.g08.bks.cpg/sg15_133_cif.got.tgz:265528.got - 2010.06.03 18:47:42.
