data_PCOD9294768
_publ_section_title
;
Structure prediction by ZEFSAII (Michael W. Deem and Ramdas Pophale) SiO2 
 PCOD9294768
Probable space group: C 2/C
;
_chemical_formula_sum "Si O2"
_cell_formula_units_Z 64
_cell_length_a 26.455283
_cell_length_b 10.278708
_cell_length_c 20.015934
_cell_angle_alpha 90.000000
_cell_angle_beta 29.486424
_cell_angle_gamma 90.000000
_cell_volume 2679.067718
_symmetry_space_group_name_H-M "C 2/C"
_symmetry_group_IT_number 15
_symmetry_cell_setting 'monoclinic'
loop_
_space_group_symop_operation_xyz
x,y,z
-x,y,1/2-z
-x,-y,-z
x,-y,1/2+z
1/2+x,1/2+y,z
1/2-x,1/2+y,1/2-z
1/2-x,1/2-y,-z
1/2+x,1/2-y,1/2+z
loop_
_atom_site_type_symbol
_atom_site_label
_atom_site_fract_x
_atom_site_fract_y
_atom_site_fract_z
Si Si1 0.762904 0.623495 0.306810
Si Si2 0.390510 0.482612 0.343225
Si Si3 0.334995 0.134464 0.082202
Si Si4 0.040348 0.173265 0.505646
Si Si5 0.041418 0.421416 0.273146
Si Si6 0.105041 0.703968 0.229621
Si Si7 0.261080 0.875864 0.382373
Si Si8 0.623424 0.444104 0.788899
O O1 0.825814 0.672837 0.170265
O O2 0.642780 0.631812 0.427949
O O3 0.796403 0.697054 0.335245
O O4 0.791332 0.473026 0.287440
O O5 0.500000 0.504915 0.250000
O O6 0.386133 0.329863 0.327390
O O7 0.308872 0.535990 0.489179
O O8 0.378440 0.560181 0.288156
O O9 0.301467 0.255479 0.074410
O O10 0.240277 0.034796 0.178682
O O11 0.445018 0.084519 0.933782
O O12 0.079661 0.175826 0.383851
O O13 0.988571 0.284810 0.609027
O O14 0.951803 0.063851 0.608976
O O15 0.084739 0.568954 0.215403
O O16 0.137584 0.344412 0.192290
O O17 0.000000 0.373197 0.250000
#
# Coordination Sequence:
#
# PCOD9294768 Si02
#       8
#     8   8   8   8   8   8   8   8
#     4  10  24  42  65  97 131 172 221 277 340 396
#     4  11  23  41  67  98 135 177 222 273 330 400
#     4  11  26  45  68  96 133 176 222 282 335 394
#     4   9  19  38  65  95 127 168 219 271 326 395
#     4  11  26  45  67  97 134 175 220 274 340 399
#     4  10  23  41  66 100 134 170 219 279 336 397
#     4  11  26  44  65  99 134 174 228 273 333 409
#     4   9  20  38  62  92 125 169 221 262 321 393
#
# _framework density 23.888908000000001
#
# number of rings (size 3 to 8) (size 9 to 14) (size 15 to 20)
#    0.000    1.750    0.000    2.625    0.000   21.500 
#    0.000    0.000    0.000    0.000    0.000    0.000 
#    0.000    0.000    0.000    0.000    0.000    0.000 
#
# Total GULP energy -178949.450212 kJ/mol
# GULP energy per Si atom -5592.170319 kJ/mol
# Density = 2.383454 g / cm^3
# Si number density = 23.888908 Si / 1000 Ang^3
#
#
#
# Elastic Constant Matrix: (Units=GPa)
#
#
# Indices 1 2 3 4 5 6 
#
# 1 121.1864 13.3644 33.9189 0.0000 -7.7327 0.0000
# 2 13.3644 73.5199 19.4710 0.0007 -5.4728 -0.0002
# 3 33.9189 19.4710 118.6686 0.0003 -11.1052 -0.0001
# 4 0.0000 0.0007 0.0003 44.0973 0.0000 -0.7161
# 5 -7.7327 -5.4728 -11.1052 0.0000 37.6815 0.0000
# 6 0.0000 -0.0002 -0.0001 -0.7161 0.0000 35.6257
#
#
#
# Elastic Compliance Matrix: (Units=1/GPa)
#
#
# Indices 1 2 3 4 5 6 
#
# 1 0.009078 -0.000953 -0.002342 0.000000 0.001034 0.000000
# 2 -0.000953 0.014394 -0.001966 0.000000 0.001315 0.000000
# 3 -0.002342 -0.001966 0.009612 0.000000 0.002067 0.000000
# 4 0.000000 0.000000 0.000000 0.022685 0.000000 0.000456
# 5 0.001034 0.001315 0.002067 0.000000 0.027551 0.000000
# 6 0.000000 0.000000 0.000000 0.000456 0.000000 0.028079
#
#
# Mechanical properties :
#
#
# Convention : Reuss Voigt Hill
#
# Bulk Modulus (GPa) = 44.32178 49.65373 46.98776
# Shear Modulus (GPa) = 38.62777 39.92229 39.27503
#
# Velocity S-wave (km/s) = 4.02553 4.09242 4.05911
# Velocity P-wave (km/s) = 6.34035 6.56970 6.45604
#
# Compressibility (1/GPa) = 0.02256227
#
# Stress axis : x y z
#
# Youngs Moduli (GPa) = 110.15323 69.47507 104.03491
#
# Poissons Ratio (x) = 0.06622 0.24361
# Poissons Ratio (y) = 0.10499 0.20455
# Poissons Ratio (z) = 0.25794 0.13660
#
# Static dielectric constant tensor:
#      x y z
#    x 1.863800 0.000000 0.025040 
#    y 0.000000 1.969070 0.000000 
#    z 0.025040 0.000000 1.932270 
# 
# From -- ./inp_files/257511.got.cif
#   From: 2010.05.17/outbox.cif.g08.bks.cpg/sg15_129_cif.got.tgz:257511.got - 2010.06.03 18:47:42.
