data_PCOD9294114
_publ_section_title
;
Structure prediction by ZEFSAII (Michael W. Deem and Ramdas Pophale) SiO2 
 PCOD9294114
Probable space group: C 2/C
;
_chemical_formula_sum "Si O2"
_cell_formula_units_Z 64
_cell_length_a 17.320554
_cell_length_b 5.711848
_cell_length_c 26.922916
_cell_angle_alpha 90.000000
_cell_angle_beta 103.261731
_cell_angle_gamma 90.000000
_cell_volume 2592.517264
_symmetry_space_group_name_H-M "C 2/C"
_symmetry_group_IT_number 15
_symmetry_cell_setting 'monoclinic'
loop_
_space_group_symop_operation_xyz
x,y,z
-x,y,1/2-z
-x,-y,-z
x,-y,1/2+z
1/2+x,1/2+y,z
1/2-x,1/2+y,1/2-z
1/2-x,1/2-y,-z
1/2+x,1/2-y,1/2+z
loop_
_atom_site_type_symbol
_atom_site_label
_atom_site_fract_x
_atom_site_fract_y
_atom_site_fract_z
Si Si1 0.363599 0.522466 0.796295
Si Si2 0.138244 0.658584 0.067594
Si Si3 0.575259 0.994527 0.866065
Si Si4 0.876184 0.819707 0.543321
Si Si5 0.235089 0.440237 0.352913
Si Si6 0.430405 0.036330 0.780010
Si Si7 0.492383 0.611071 0.896290
Si Si8 0.248146 0.681904 0.557249
O O1 0.275585 0.501641 0.806467
O O2 0.383799 0.284267 0.769180
O O3 0.422558 0.511642 0.852454
O O4 0.383001 0.785630 0.777404
O O5 0.205892 0.742185 0.116465
O O6 0.158860 0.397040 0.056251
O O7 0.052545 0.698286 0.077077
O O8 0.148239 0.793874 0.017062
O O9 0.607488 0.082012 0.924063
O O10 0.640386 0.093006 0.837329
O O11 0.486946 0.069552 0.837287
O O12 0.558701 0.718922 0.869202
O O13 0.960009 0.946159 0.560480
O O14 0.809383 0.963800 0.563290
O O15 0.235658 0.643075 0.395241
O O16 0.500000 0.003748 0.750000
O O17 0.250000 0.750000 0.500000
#
# Coordination Sequence:
#
# PCOD9294114 Si02
#       8
#     8   8   8   8   8   8   8   8
#     4  10  24  43  70 102 130 172 215 268 336 401
#     4  11  24  36  57  84 126 175 224 273 321 370
#     4  11  23  40  62  90 124 170 213 273 328 400
#     4  12  21  37  57  88 125 172 233 268 320 380
#     4  11  23  40  62  88 130 174 220 272 319 386
#     4  11  24  48  74 101 133 166 209 271 347 417
#     4  10  23  39  56  89 128 170 223 269 325 381
#     4  12  23  37  57  86 126 183 228 271 323 376
#
# _framework density 24.686430000000001
#
# number of rings (size 3 to 8) (size 9 to 14) (size 15 to 20)
#    0.000    1.000    5.000    1.875    5.250    0.500 
#    0.000    1.250    0.000    0.000    0.000    0.000 
#    0.000    0.000    0.000    0.000    0.000    0.000 
#
# Total GULP energy -178412.522270 kJ/mol
# GULP energy per Si atom -5575.391321 kJ/mol
# Density = 2.463024 g / cm^3
# Si number density = 24.686430 Si / 1000 Ang^3
#
#
#
# Elastic Constant Matrix: (Units=GPa)
#
#
# Indices 1 2 3 4 5 6 
#
# 1 112.0692 44.4403 18.9368 0.0000 -23.2186 0.0000
# 2 44.4403 80.0499 22.4407 0.0000 -16.5918 0.0000
# 3 18.9368 22.4407 59.9713 0.0000 -19.8155 0.0000
# 4 0.0000 0.0000 0.0000 30.8555 0.0000 -6.1379
# 5 -23.2186 -16.5918 -19.8155 0.0000 45.4244 0.0000
# 6 0.0000 0.0000 0.0000 -6.1379 0.0000 38.7156
#
#
#
# Elastic Compliance Matrix: (Units=1/GPa)
#
#
# Indices 1 2 3 4 5 6 
#
# 1 0.012094 -0.005805 -0.000356 0.000000 0.003906 0.000000
# 2 -0.005805 0.017177 -0.004092 0.000000 0.001522 0.000000
# 3 -0.000356 -0.004092 0.020756 0.000000 0.007378 0.000000
# 4 0.000000 0.000000 0.000000 0.033465 0.000000 0.005305
# 5 0.003906 0.001522 0.007378 0.000000 0.027786 0.000000
# 6 0.000000 0.000000 0.000000 0.005305 0.000000 0.026671
#
#
# Mechanical properties :
#
#
# Convention : Reuss Voigt Hill
#
# Bulk Modulus (GPa) = 33.87262 47.08068 40.47665
# Shear Modulus (GPa) = 29.70982 34.08393 31.89688
#
# Velocity S-wave (km/s) = 3.47290 3.71977 3.59845
# Velocity P-wave (km/s) = 5.46189 6.12877 5.80492
#
# Compressibility (1/GPa) = 0.02952237
#
# Stress axis : x y z
#
# Youngs Moduli (GPa) = 82.68269 58.21628 48.17908
#
# Poissons Ratio (x) = 0.33793 0.01716
# Poissons Ratio (y) = 0.47996 0.19713
# Poissons Ratio (z) = 0.02945 0.23820
#
# Static dielectric constant tensor:
#      x y z
#    x 2.009800 0.000000 0.022560 
#    y 0.000000 2.108650 0.000000 
#    z 0.022560 0.000000 2.016650 
# 
# From -- ./inp_files/315094.got.cif
#   From: 2010.05.17/outbox.cif.g08.bks.cpg/sg15_158_cif.got.tgz:315094.got - 2010.06.03 18:47:42.
