data_PCOD9294558
_publ_section_title
;
Structure prediction by ZEFSAII (Michael W. Deem and Ramdas Pophale) SiO2 
 PCOD9294558
Probable space group: C 2/C
;
_chemical_formula_sum "Si O2"
_cell_formula_units_Z 32
_cell_length_a 17.751569
_cell_length_b 9.989399
_cell_length_c 9.586262
_cell_angle_alpha 90.000000
_cell_angle_beta 49.762785
_cell_angle_gamma 90.000000
_cell_volume 1297.669981
_symmetry_space_group_name_H-M "C 2/C"
_symmetry_group_IT_number 15
_symmetry_cell_setting 'monoclinic'
loop_
_space_group_symop_operation_xyz
x,y,z
-x,y,1/2-z
-x,-y,-z
x,-y,1/2+z
1/2+x,1/2+y,z
1/2-x,1/2+y,1/2-z
1/2-x,1/2-y,-z
1/2+x,1/2-y,1/2+z
loop_
_atom_site_type_symbol
_atom_site_label
_atom_site_fract_x
_atom_site_fract_y
_atom_site_fract_z
Si Si1 0.877941 0.286204 0.260740
Si Si2 0.712879 0.023617 0.967112
Si Si3 0.500000 0.011527 0.750000
Si Si4 0.000000 0.050706 0.250000
Si Si5 0.168918 0.101396 0.416580
O O1 0.804406 0.373940 0.443750
O O2 0.919583 0.149382 0.277940
O O3 0.836347 0.238066 0.163676
O O4 0.972555 0.387544 0.154597
O O5 0.598835 0.068505 0.102766
O O6 0.778672 0.105139 0.996598
O O7 0.765812 0.997430 0.758176
O O8 0.939564 0.958494 0.428649
#
# Coordination Sequence:
#
# PCOD9294558 Si02
#       5
#     8   8   4   4   8
#     4   9  20  42  65  88 132 180 205 257 337 390
#     4  10  23  40  69  93 129 177 216 261 327 393
#     4   7  20  42  64  85 124 189 204 242 332 411
#     4  11  22  38  68  97 132 167 224 270 308 391
#     4  12  22  37  69 103 125 169 226 266 317 386
#
# _framework density 24.659583999999999
#
# number of rings (size 3 to 8) (size 9 to 14) (size 15 to 20)
#    1.500    0.500    2.500    1.500    0.000    1.000 
#    0.000    1.250    5.500    0.000    0.000    0.000 
#    0.000    0.000    0.000    0.000    0.000    0.000 
#
# Total GULP energy -89341.250527 kJ/mol
# GULP energy per Si atom -5583.828158 kJ/mol
# Density = 2.460346 g / cm^3
# Si number density = 24.659584 Si / 1000 Ang^3
#
#
#
# Elastic Constant Matrix: (Units=GPa)
#
#
# Indices 1 2 3 4 5 6 
#
# 1 72.3331 1.2574 19.7776 0.0000 -19.0960 0.0000
# 2 1.2574 75.1152 36.4820 0.0000 -1.3968 0.0000
# 3 19.7776 36.4820 138.5409 0.0000 -18.6345 0.0000
# 4 0.0000 0.0000 0.0000 42.2984 0.0000 15.1604
# 5 -19.0960 -1.3968 -18.6345 0.0000 36.2661 0.0000
# 6 0.0000 0.0000 0.0000 15.1604 0.0000 -7.6736
#
#
#
# Elastic Compliance Matrix: (Units=1/GPa)
#
#
# Indices 1 2 3 4 5 6 
#
# 1 0.016278 0.000560 -0.001413 0.000000 0.007867 0.000000
# 2 0.000560 0.015370 -0.004306 0.000000 -0.001325 0.000000
# 3 -0.001413 -0.004306 0.009057 0.000000 0.003744 0.000000
# 4 0.000000 0.000000 0.000000 0.013841 0.000000 0.027345
# 5 0.007867 -0.001325 0.003744 0.000000 0.033589 0.000000
# 6 0.000000 0.000000 0.000000 0.027345 0.000000 -0.076294
#
#
# Mechanical properties :
#
#
# Convention : Reuss Voigt Hill
#
# Bulk Modulus (GPa) = 32.90743 44.55815 38.73279
# Shear Modulus (GPa) = 154.85362 29.40968 92.13165
#
# Velocity S-wave (km/s) = 7.93302 3.45719 6.11903
# Velocity P-wave (km/s) = 9.86327 5.83479 8.10336
#
# Compressibility (1/GPa) = 0.03038828
#
# Stress axis : x y z
#
# Youngs Moduli (GPa) = 61.43089 65.06178 110.40939
#
# Poissons Ratio (x) = -0.03645 0.15603
# Poissons Ratio (y) = -0.03441 0.47538
# Poissons Ratio (z) = 0.08682 0.28013
#
# Static dielectric constant tensor:
#      x y z
#    x 2.028160 0.000000 0.025730 
#    y 0.000000 1.988810 0.000000 
#    z 0.025730 0.000000 1.949540 
# 
# From -- ./inp_files/55138.got.cif
#   From: 2010.05.17/outbox.cif.g08.bks.cpg/sg15_28_cif.got.tgz:55138.got - 2010.06.03 18:47:42.
