data_PCOD9294927
_publ_section_title
;
Structure prediction by ZEFSAII (Michael W. Deem and Ramdas Pophale) SiO2 
 PCOD9294927
Probable space group: C 2/C
;
_chemical_formula_sum "Si O2"
_cell_formula_units_Z 48
_cell_length_a 16.470552
_cell_length_b 10.037626
_cell_length_c 13.908015
_cell_angle_alpha 90.000000
_cell_angle_beta 96.957749
_cell_angle_gamma 90.000000
_cell_volume 2282.412975
_symmetry_space_group_name_H-M "C 2/C"
_symmetry_group_IT_number 15
_symmetry_cell_setting 'monoclinic'
loop_
_space_group_symop_operation_xyz
x,y,z
-x,y,1/2-z
-x,-y,-z
x,-y,1/2+z
1/2+x,1/2+y,z
1/2-x,1/2+y,1/2-z
1/2-x,1/2-y,-z
1/2+x,1/2-y,1/2+z
loop_
_atom_site_type_symbol
_atom_site_label
_atom_site_fract_x
_atom_site_fract_y
_atom_site_fract_z
Si Si1 0.779371 0.736217 0.671085
Si Si2 0.795558 0.677151 0.146468
Si Si3 0.419690 0.947907 0.195216
Si Si4 0.491913 0.156414 0.522801
Si Si5 0.854343 0.853807 0.487083
Si Si6 0.364007 0.353247 0.008694
O O1 0.732359 0.814913 0.747225
O O2 0.851024 0.648419 0.731773
O O3 0.815427 0.821079 0.586556
O O4 0.715546 0.643350 0.604167
O O5 0.862874 0.561950 0.142052
O O6 0.716474 0.654664 0.069163
O O7 0.836006 0.813132 0.112199
O O8 0.500000 0.018086 0.250000
O O9 0.466076 0.848038 0.129994
O O10 0.415540 0.234935 0.465752
O O11 0.571546 0.242561 0.515079
O O12 0.500000 0.000000 0.500000
O O13 0.896027 0.996985 0.503163
#
# Coordination Sequence:
#
# PCOD9294927 Si02
#       6
#     8   8   8   8   8   8
#     4  10  23  42  64  98 133 176 218 279 331 396
#     4  11  24  38  66  95 133 174 220 274 335 394
#     4  11  23  42  63  95 130 175 225 267 333 396
#     4  11  23  42  64  94 132 173 219 276 330 396
#     4  10  23  41  69  94 134 173 225 273 336 393
#     4  11  23  42  64  99 133 174 223 274 332 399
#
# _framework density 21.030376
#
# number of rings (size 3 to 8) (size 9 to 14) (size 15 to 20)
#    0.000    1.333    3.333    1.500    4.667    0.000 
#    0.000    0.000    0.000    5.000    0.000    0.000 
#    0.000    0.000    0.000    0.000    0.000    0.000 
#
# Total GULP energy -133682.264307 kJ/mol
# GULP energy per Si atom -5570.094346 kJ/mol
# Density = 2.098251 g / cm^3
# Si number density = 21.030376 Si / 1000 Ang^3
#
#
#
# Elastic Constant Matrix: (Units=GPa)
#
#
# Indices 1 2 3 4 5 6 
#
# 1 138.0061 51.8269 33.7790 0.0000 6.5529 0.0000
# 2 51.8269 118.1840 2.0152 0.0000 -3.8981 0.0000
# 3 33.7790 2.0152 58.0731 0.0000 -4.6683 0.0000
# 4 0.0000 0.0000 0.0000 10.1364 0.0000 -3.6837
# 5 6.5529 -3.8981 -4.6683 0.0000 23.2094 0.0000
# 6 0.0000 0.0000 0.0000 -3.6837 0.0000 43.7594
#
#
#
# Elastic Compliance Matrix: (Units=1/GPa)
#
#
# Indices 1 2 3 4 5 6 
#
# 1 0.010937 -0.004856 -0.006614 0.000000 -0.005234 0.000000
# 2 -0.004856 0.010667 0.002753 0.000000 0.003716 0.000000
# 3 -0.006614 0.002753 0.021506 0.000000 0.006655 0.000000
# 4 0.000000 0.000000 0.000000 0.101768 0.000000 0.008567
# 5 -0.005234 0.003716 0.006655 0.000000 0.046527 0.000000
# 6 0.000000 0.000000 0.000000 0.008567 0.000000 0.023573
#
#
# Mechanical properties :
#
#
# Convention : Reuss Voigt Hill
#
# Bulk Modulus (GPa) = 38.94648 54.38949 46.66799
# Shear Modulus (GPa) = 20.74945 30.53050 25.63997
#
# Velocity S-wave (km/s) = 3.14449 3.81430 3.49547
# Velocity P-wave (km/s) = 5.63411 6.73179 6.20726
#
# Compressibility (1/GPa) = 0.02567626
#
# Stress axis : x y z
#
# Youngs Moduli (GPa) = 91.43207 93.75122 46.49815
#
# Poissons Ratio (x) = 0.45526 0.30754
# Poissons Ratio (y) = 0.44400 -0.12802
# Poissons Ratio (z) = 0.60472 -0.25812
#
# Static dielectric constant tensor:
#      x y z
#    x 1.830310 0.000000 0.050420 
#    y 0.000000 1.802090 0.000000 
#    z 0.050420 0.000000 1.813150 
# 
# From -- ./inp_files/159733.got.cif
#   From: 2010.05.17/outbox.cif.g08.bks.cpg/sg15_80_cif.got.tgz:159733.got - 2010.06.03 18:47:42.
