data_PCOD9294096
_publ_section_title
;
Structure prediction by ZEFSAII (Michael W. Deem and Ramdas Pophale) SiO2 
 PCOD9294096
Probable space group: C 2/C
;
_chemical_formula_sum "Si O2"
_cell_formula_units_Z 56
_cell_length_a 26.198975
_cell_length_b 9.345575
_cell_length_c 13.921262
_cell_angle_alpha 90.000000
_cell_angle_beta 47.245972
_cell_angle_gamma 90.000000
_cell_volume 2502.808092
_symmetry_space_group_name_H-M "C 2/C"
_symmetry_group_IT_number 15
_symmetry_cell_setting 'monoclinic'
loop_
_space_group_symop_operation_xyz
x,y,z
-x,y,1/2-z
-x,-y,-z
x,-y,1/2+z
1/2+x,1/2+y,z
1/2-x,1/2+y,1/2-z
1/2-x,1/2-y,-z
1/2+x,1/2-y,1/2+z
loop_
_atom_site_type_symbol
_atom_site_label
_atom_site_fract_x
_atom_site_fract_y
_atom_site_fract_z
Si Si1 0.813295 0.612772 0.577444
Si Si2 0.965486 0.826547 0.946040
Si Si3 0.666817 0.538464 0.786636
Si Si4 0.393452 0.771567 0.136207
Si Si5 0.355951 0.303085 0.367495
Si Si6 0.132292 0.504307 0.673658
Si Si7 0.500000 0.099491 0.750000
Si Si8 0.500000 0.429463 0.250000
O O1 0.743191 0.582245 0.723766
O O2 0.880100 0.632174 0.559629
O O3 0.808852 0.757302 0.518123
O O4 0.825770 0.492824 0.480055
O O5 0.028129 0.773987 0.935522
O O6 0.957972 0.704248 0.875169
O O7 0.104693 0.131472 0.910862
O O8 0.988732 0.967473 0.856603
O O9 0.648376 0.374232 0.826482
O O10 0.666933 0.570391 0.671996
O O11 0.360664 0.864115 0.264588
O O12 0.431365 0.339239 0.314463
O O13 0.355620 0.156639 0.305267
O O14 0.051942 0.507936 0.745726
#
# Coordination Sequence:
#
# PCOD9294096 Si02
#       8
#     8   8   8   8   8   8   4   4
#     4  10  26  44  67  96 142 183 226 282 354 409
#     4  10  23  38  70 105 132 172 234 291 333 405
#     4  12  24  43  70 102 135 181 234 285 343 418
#     4  11  23  46  70 100 138 180 238 288 340 413
#     4  10  23  40  68  96 139 177 225 279 349 403
#     4   9  23  42  65  97 135 180 225 280 348 407
#     4   9  19  42  62  98 136 172 226 282 344 398
#     4  11  19  42  70 102 136 176 228 288 344 396
#
# _framework density 22.374869
#
# number of rings (size 3 to 8) (size 9 to 14) (size 15 to 20)
#    0.857    0.857    1.429    2.143    2.000    4.000 
#    2.571    2.857    0.000    0.000    0.000    0.000 
#    0.000    0.000    0.000    0.000    0.000    0.000 
#
# Total GULP energy -156237.736600 kJ/mol
# GULP energy per Si atom -5579.919164 kJ/mol
# Density = 2.232394 g / cm^3
# Si number density = 22.374869 Si / 1000 Ang^3
#
#
#
# Elastic Constant Matrix: (Units=GPa)
#
#
# Indices 1 2 3 4 5 6 
#
# 1 60.9131 9.8415 24.6547 0.0000 -1.2375 0.0000
# 2 9.8415 61.7826 31.1474 0.0000 -5.4241 0.0000
# 3 24.6547 31.1474 100.0739 0.0000 -5.6885 0.0000
# 4 0.0000 0.0000 0.0000 17.4821 0.0000 1.1325
# 5 -1.2375 -5.4241 -5.6885 0.0000 31.4548 0.0000
# 6 0.0000 0.0000 0.0000 1.1325 0.0000 -9.5669
#
#
#
# Elastic Compliance Matrix: (Units=1/GPa)
#
#
# Indices 1 2 3 4 5 6 
#
# 1 0.018266 -0.000773 -0.004270 0.000000 -0.000187 0.000000
# 2 -0.000773 0.019390 -0.005715 0.000000 0.002280 0.000000
# 3 -0.004270 -0.005715 0.012890 0.000000 0.001178 0.000000
# 4 0.000000 0.000000 0.000000 0.056766 0.000000 0.006720
# 5 -0.000187 0.002280 0.001178 0.000000 0.032390 0.000000
# 6 0.000000 0.000000 0.000000 0.006720 0.000000 -0.103732
#
#
# Mechanical properties :
#
#
# Convention : Reuss Voigt Hill
#
# Bulk Modulus (GPa) = 34.44709 39.33965 36.89337
# Shear Modulus (GPa) = 74.44358 18.34908 46.39633
#
# Velocity S-wave (km/s) = 5.77437 2.86680 4.55861
# Velocity P-wave (km/s) = 7.73864 5.34587 6.65075
#
# Compressibility (1/GPa) = 0.02903003
#
# Stress axis : x y z
#
# Youngs Moduli (GPa) = 54.74556 51.57215 77.57755
#
# Poissons Ratio (x) = 0.03988 0.33126
# Poissons Ratio (y) = 0.04234 0.44336
# Poissons Ratio (z) = 0.23377 0.29474
#
# Static dielectric constant tensor:
#      x y z
#    x 1.842830 0.000000 0.020220 
#    y 0.000000 1.793780 0.000000 
#    z 0.020220 0.000000 1.858730 
# 
# From -- ./inp_files/221665.got.cif
#   From: 2010.05.17/outbox.cif.g08.bks.cpg/sg15_111_cif.got.tgz:221665.got - 2010.06.03 18:47:42.
