data_PCOD9294062
_publ_section_title
;
Structure prediction by ZEFSAII (Michael W. Deem and Ramdas Pophale) SiO2 
 PCOD9294062
Probable space group: C 2/C
;
_chemical_formula_sum "Si O2"
_cell_formula_units_Z 32
_cell_length_a 11.680536
_cell_length_b 26.124064
_cell_length_c 5.233338
_cell_angle_alpha 90.000000
_cell_angle_beta 113.470580
_cell_angle_gamma 90.000000
_cell_volume 1464.795434
_symmetry_space_group_name_H-M "C 2/C"
_symmetry_group_IT_number 15
_symmetry_cell_setting 'monoclinic'
loop_
_space_group_symop_operation_xyz
x,y,z
-x,y,1/2-z
-x,-y,-z
x,-y,1/2+z
1/2+x,1/2+y,z
1/2-x,1/2+y,1/2-z
1/2-x,1/2-y,-z
1/2+x,1/2-y,1/2+z
loop_
_atom_site_type_symbol
_atom_site_label
_atom_site_fract_x
_atom_site_fract_y
_atom_site_fract_z
Si Si1 0.231727 0.870537 0.378183
Si Si2 0.862283 0.818771 0.695512
Si Si3 0.500000 0.850834 0.750000
Si Si4 0.500000 0.218094 0.750000
Si Si5 0.358492 0.520368 0.835247
O O1 0.176728 0.836718 0.559392
O O2 0.374813 0.881749 0.577356
O O3 0.153773 0.922258 0.274090
O O4 0.225086 0.840035 0.105686
O O5 0.887554 0.758174 0.703950
O O6 0.000000 0.841209 0.750000
O O7 0.522971 0.815062 0.522590
O O8 0.299726 0.485132 0.562774
O O9 0.500000 0.500000 0.000000
#
# Coordination Sequence:
#
# PCOD9294062 Si02
#       5
#     8   8   4   4   8
#     4  12  24  42  65  94 134 170 208 269 320 390
#     4  10  24  40  66  96 129 165 222 275 311 360
#     4  12  26  42  62  91 134 181 216 244 324 392
#     4  10  24  42  62 101 122 179 222 262 314 356
#     4  10  23  38  64  94 124 154 206 272 330 379
#
# _framework density 21.846053000000001
#
# number of rings (size 3 to 8) (size 9 to 14) (size 15 to 20)
#    0.750    0.500    0.000    5.250   10.500    6.000 
#    0.000    1.250    0.000    0.000    0.000    0.000 
#    0.000    0.000    0.000    0.000    0.000    0.000 
#
# Total GULP energy -89379.502615 kJ/mol
# GULP energy per Si atom -5586.218913 kJ/mol
# Density = 2.179633 g / cm^3
# Si number density = 21.846053 Si / 1000 Ang^3
#
#
#
# Elastic Constant Matrix: (Units=GPa)
#
#
# Indices 1 2 3 4 5 6 
#
# 1 54.7377 36.2748 38.7218 0.0000 -7.1491 0.0000
# 2 36.2748 92.6553 46.7678 0.0000 2.5014 0.0000
# 3 38.7218 46.7678 147.9241 0.0000 -22.4070 0.0000
# 4 0.0000 0.0000 0.0000 -0.2727 0.0000 -12.5648
# 5 -7.1491 2.5014 -22.4070 0.0000 62.3444 0.0000
# 6 0.0000 0.0000 0.0000 -12.5648 0.0000 18.0919
#
#
#
# Elastic Compliance Matrix: (Units=1/GPa)
#
#
# Indices 1 2 3 4 5 6 
#
# 1 0.027120 -0.008615 -0.004074 0.000000 0.001991 0.000000
# 2 -0.008615 0.015841 -0.003172 0.000000 -0.002763 0.000000
# 3 -0.004074 -0.003172 0.009283 0.000000 0.002997 0.000000
# 4 0.000000 0.000000 0.000000 -0.111124 0.000000 -0.077176
# 5 0.001991 -0.002763 0.002997 0.000000 0.017456 0.000000
# 6 0.000000 0.000000 0.000000 -0.077176 0.000000 0.001675
#
#
# Mechanical properties :
#
#
# Convention : Reuss Voigt Hill
#
# Bulk Modulus (GPa) = 48.72533 59.87175 54.29854
# Shear Modulus (GPa) = -4214.91705 27.60289 -2093.65708
#
# Velocity S-wave (km/s) = -43.97227 3.55846 -30.99111
# Velocity P-wave (km/s) = 50.55422 6.65952 35.43571
#
# Compressibility (1/GPa) = 0.02052321
#
# Stress axis : x y z
#
# Youngs Moduli (GPa) = 36.87298 63.12691 107.72031
#
# Poissons Ratio (x) = 0.54385 0.43883
# Poissons Ratio (y) = 0.31767 0.34166
# Poissons Ratio (z) = 0.15021 0.20022
#
# Static dielectric constant tensor:
#      x y z
#    x 1.663100 0.000000 0.101230 
#    y 0.000000 1.786770 0.000000 
#    z 0.101230 0.000000 1.785400 
# 
# From -- ./inp_files/5265.got.cif
#   From: 2010.05.17/outbox.cif.g08.bks.cpg/sg15_3_cif.got.tgz:5265.got - 2010.06.03 18:47:42.
