data_PCOD9294118
_publ_section_title
;
Structure prediction by ZEFSAII (Michael W. Deem and Ramdas Pophale) SiO2 
 PCOD9294118
Probable space group: C 2/C
;
_chemical_formula_sum "Si O2"
_cell_formula_units_Z 56
_cell_length_a 25.972884
_cell_length_b 15.911076
_cell_length_c 8.947229
_cell_angle_alpha 90.000000
_cell_angle_beta 141.299932
_cell_angle_gamma 90.000000
_cell_volume 2311.838660
_symmetry_space_group_name_H-M "C 2/C"
_symmetry_group_IT_number 15
_symmetry_cell_setting 'monoclinic'
loop_
_space_group_symop_operation_xyz
x,y,z
-x,y,1/2-z
-x,-y,-z
x,-y,1/2+z
1/2+x,1/2+y,z
1/2-x,1/2+y,1/2-z
1/2-x,1/2-y,-z
1/2+x,1/2-y,1/2+z
loop_
_atom_site_type_symbol
_atom_site_label
_atom_site_fract_x
_atom_site_fract_y
_atom_site_fract_z
Si Si1 0.188724 0.100338 0.126141
Si Si2 0.239609 0.838742 0.208432
Si Si3 0.670760 0.137648 0.289552
Si Si4 0.059785 0.828079 0.522884
Si Si5 0.326336 0.948380 0.151322
Si Si6 0.421973 0.449272 0.680082
Si Si7 0.609654 0.795879 0.369564
O O1 0.246428 0.128373 0.122631
O O2 0.147758 0.169979 0.138874
O O3 0.246745 0.044080 0.364201
O O4 0.115226 0.042202 0.901021
O O5 0.297572 0.825212 0.483202
O O6 0.292994 0.895578 0.216632
O O7 0.154824 0.890953 0.048551
O O8 0.197180 0.753925 0.050315
O O9 0.641503 0.041213 0.243439
O O10 0.607025 0.189665 0.042080
O O11 0.056955 0.915662 0.606693
O O12 0.050892 0.760213 0.634275
O O13 0.000000 0.815327 0.250000
O O14 0.386161 0.887257 0.195594
O O15 0.500000 0.440451 0.750000
#
# Coordination Sequence:
#
# PCOD9294118 Si02
#       7
#     8   8   8   8   8   8   8
#     4  11  20  36  57  84 124 163 194 228 271 343
#     4  11  20  36  52  87 118 154 193 237 280 339
#     4  11  21  34  60  89 119 148 191 247 290 342
#     4  11  25  41  57  82 118 165 206 234 282 347
#     4  11  19  37  61  85 117 151 191 240 291 352
#     4  11  23  36  54  83 126 166 203 227 265 336
#     4  10  23  39  58  82 116 153 191 243 302 343
#
# _framework density 24.223141999999999
#
# number of rings (size 3 to 8) (size 9 to 14) (size 15 to 20)
#    0.000    1.143    5.714    2.143    4.000    1.143 
#    0.000    0.000    0.000    0.857    0.000    1.000 
#    0.000    0.000    0.000    0.000    0.000    0.000 
#
# Total GULP energy -156510.497117 kJ/mol
# GULP energy per Si atom -5589.660611 kJ/mol
# Density = 2.416801 g / cm^3
# Si number density = 24.223142 Si / 1000 Ang^3
#
#
#
# Elastic Constant Matrix: (Units=GPa)
#
#
# Indices 1 2 3 4 5 6 
#
# 1 63.8882 -10.1167 7.1779 0.0000 -17.1191 0.0000
# 2 -10.1167 81.4643 29.5449 0.0000 -14.9914 0.0000
# 3 7.1779 29.5449 149.7953 0.0000 -50.4883 0.0000
# 4 0.0000 0.0000 0.0000 32.0063 0.0000 -18.6118
# 5 -17.1191 -14.9914 -50.4883 0.0000 36.0853 0.0000
# 6 0.0000 0.0000 0.0000 -18.6118 0.0000 26.6755
#
#
#
# Elastic Compliance Matrix: (Units=1/GPa)
#
#
# Indices 1 2 3 4 5 6 
#
# 1 0.020402 0.004232 0.003865 0.000000 0.016845 0.000000
# 2 0.004232 0.014335 -0.000655 0.000000 0.007046 0.000000
# 3 0.003865 -0.000655 0.013523 0.000000 0.020483 0.000000
# 4 0.000000 0.000000 0.000000 0.052575 0.000000 0.036682
# 5 0.016845 0.007046 0.020483 0.000000 0.067289 0.000000
# 6 0.000000 0.000000 0.000000 0.036682 0.000000 0.063081
#
#
# Mechanical properties :
#
#
# Convention : Reuss Voigt Hill
#
# Bulk Modulus (GPa) = 15.83694 38.70668 27.27181
# Shear Modulus (GPa) = 21.06419 36.85620 28.96019
#
# Velocity S-wave (km/s) = 2.95208 3.90491 3.46144
# Velocity P-wave (km/s) = 4.26284 6.02868 5.22096
#
# Compressibility (1/GPa) = 0.06314350
#
# Stress axis : x y z
#
# Youngs Moduli (GPa) = 49.01538 69.75880 73.94560
#
# Poissons Ratio (x) = -0.29519 -0.28582
# Poissons Ratio (y) = -0.20741 0.04846
# Poissons Ratio (z) = -0.18946 0.04571
#
# Static dielectric constant tensor:
#      x y z
#    x 1.924420 0.000000 -0.002230 
#    y 0.000000 2.025530 0.000000 
#    z -0.002230 0.000000 1.983660 
# 
# From -- ./inp_files/70521.got.cif
#   From: 2010.05.17/outbox.cif.g08.bks.cpg/sg15_36_cif.got.tgz:70521.got - 2010.06.03 18:47:42.
