data_PCOD9294265
_publ_section_title
;
Structure prediction by ZEFSAII (Michael W. Deem and Ramdas Pophale) SiO2 
 PCOD9294265
Probable space group: C 2/C
;
_chemical_formula_sum "Si O2"
_cell_formula_units_Z 56
_cell_length_a 11.873303
_cell_length_b 15.842228
_cell_length_c 12.620585
_cell_angle_alpha 90.000000
_cell_angle_beta 114.255639
_cell_angle_gamma 90.000000
_cell_volume 2164.360245
_symmetry_space_group_name_H-M "C 2/C"
_symmetry_group_IT_number 15
_symmetry_cell_setting 'monoclinic'
loop_
_space_group_symop_operation_xyz
x,y,z
-x,y,1/2-z
-x,-y,-z
x,-y,1/2+z
1/2+x,1/2+y,z
1/2-x,1/2+y,1/2-z
1/2-x,1/2-y,-z
1/2+x,1/2-y,1/2+z
loop_
_atom_site_type_symbol
_atom_site_label
_atom_site_fract_x
_atom_site_fract_y
_atom_site_fract_z
Si Si1 0.416129 0.466321 0.126243
Si Si2 0.167200 0.662301 0.170374
Si Si3 0.788674 0.332833 0.447450
Si Si4 0.074524 0.234514 0.172264
Si Si5 0.212661 0.595569 0.955995
Si Si6 0.972937 0.464530 0.607536
Si Si7 0.584113 0.331690 0.080686
O O1 0.500000 0.507300 0.250000
O O2 0.326803 0.390395 0.131435
O O3 0.322852 0.531649 0.035641
O O4 0.514001 0.413955 0.094633
O O5 0.306269 0.675308 0.261773
O O6 0.174177 0.646084 0.046257
O O7 0.087264 0.747818 0.154275
O O8 0.097082 0.581902 0.192032
O O9 0.750000 0.250000 0.500000
O O10 0.868898 0.309505 0.376366
O O11 0.873383 0.390324 0.554459
O O12 0.000000 0.254411 0.250000
O O13 0.981523 0.190017 0.055117
O O14 0.098646 0.542120 0.869064
O O15 0.273120 0.652581 0.890565
O O16 0.000000 0.500000 0.500000
#
# Coordination Sequence:
#
# PCOD9294265 Si02
#       7
#     8   8   8   8   8   8   8
#     4  11  24  42  67  95 138 183 228 280 353 419
#     4  11  22  42  69  95 135 180 227 283 347 411
#     4  11  21  42  66  94 133 176 226 286 335 406
#     4  12  25  38  71 105 136 174 243 292 347 405
#     4  10  23  39  67  97 137 177 220 288 352 406
#     4   9  20  40  64  92 132 179 217 273 348 411
#     4  12  23  44  69 102 136 178 238 289 341 410
#
# _framework density 25.873697
#
# number of rings (size 3 to 8) (size 9 to 14) (size 15 to 20)
#    0.000    1.143    4.286    1.714    2.000    0.000 
#    0.000    0.000    0.000    5.143    0.000    0.000 
#    0.000    0.000    0.000    0.000    0.000    0.000 
#
# Total GULP energy -156882.937822 kJ/mol
# GULP energy per Si atom -5602.962065 kJ/mol
# Density = 2.581481 g / cm^3
# Si number density = 25.873697 Si / 1000 Ang^3
#
#
#
# Elastic Constant Matrix: (Units=GPa)
#
#
# Indices 1 2 3 4 5 6 
#
# 1 109.1075 22.3990 37.9908 0.0000 26.6095 0.0000
# 2 22.3990 86.5909 25.6859 0.0000 20.5766 0.0000
# 3 37.9908 25.6859 103.6963 0.0000 10.2648 0.0000
# 4 0.0000 0.0000 0.0000 33.1071 0.0000 5.7093
# 5 26.6095 20.5766 10.2648 0.0000 30.1918 0.0000
# 6 0.0000 0.0000 0.0000 5.7093 0.0000 68.6038
#
#
#
# Elastic Compliance Matrix: (Units=1/GPa)
#
#
# Indices 1 2 3 4 5 6 
#
# 1 0.012941 0.000213 -0.003777 0.000000 -0.010266 0.000000
# 2 0.000213 0.014479 -0.002762 0.000000 -0.009116 0.000000
# 3 -0.003777 -0.002762 0.011586 0.000000 0.001273 0.000000
# 4 0.000000 0.000000 0.000000 0.030645 0.000000 -0.002550
# 5 -0.010266 -0.009116 0.001273 0.000000 0.047950 0.000000
# 6 0.000000 0.000000 0.000000 -0.002550 0.000000 0.014789
#
#
# Mechanical properties :
#
#
# Convention : Reuss Voigt Hill
#
# Bulk Modulus (GPa) = 37.94834 52.39403 45.17119
# Shear Modulus (GPa) = 32.50421 40.60179 36.55300
#
# Velocity S-wave (km/s) = 3.54823 3.96565 3.76273
# Velocity P-wave (km/s) = 5.61116 6.42358 6.03107
#
# Compressibility (1/GPa) = 0.02635162
#
# Stress axis : x y z
#
# Youngs Moduli (GPa) = 77.27634 69.06461 86.31371
#
# Poissons Ratio (x) = -0.01468 0.32604
# Poissons Ratio (y) = -0.01643 0.23840
# Poissons Ratio (z) = 0.29191 0.19076
#
# Static dielectric constant tensor:
#      x y z
#    x 1.998410 0.000000 0.117760 
#    y 0.000000 2.021650 0.000000 
#    z 0.117760 0.000000 1.194110 
# 
# From -- ./inp_files/145760.got.cif
#   From: 2010.05.17/outbox.cif.g08.bks.cpg/sg15_73_cif.got.tgz:145760.got - 2010.06.03 18:47:42.
