data_PCOD9294470
_publ_section_title
;
Structure prediction by ZEFSAII (Michael W. Deem and Ramdas Pophale) SiO2 
 PCOD9294470
Probable space group: C 2/C
;
_chemical_formula_sum "Si O2"
_cell_formula_units_Z 60
_cell_length_a 19.277384
_cell_length_b 22.768653
_cell_length_c 14.849178
_cell_angle_alpha 90.000000
_cell_angle_beta 150.280397
_cell_angle_gamma 90.000000
_cell_volume 3231.139292
_symmetry_space_group_name_H-M "C 2/C"
_symmetry_group_IT_number 15
_symmetry_cell_setting 'monoclinic'
loop_
_space_group_symop_operation_xyz
x,y,z
-x,y,1/2-z
-x,-y,-z
x,-y,1/2+z
1/2+x,1/2+y,z
1/2-x,1/2+y,1/2-z
1/2-x,1/2-y,-z
1/2+x,1/2-y,1/2+z
loop_
_atom_site_type_symbol
_atom_site_label
_atom_site_fract_x
_atom_site_fract_y
_atom_site_fract_z
Si Si1 0.803685 0.791782 0.481139
Si Si2 0.698580 0.770724 0.800019
Si Si3 0.361295 0.635477 0.372797
Si Si4 0.401991 0.471252 0.811786
Si Si5 0.500000 0.397044 0.750000
Si Si6 0.851155 0.321984 0.569469
Si Si7 0.036778 0.753524 0.609094
Si Si8 0.401714 0.410124 0.226509
O O1 0.750000 0.750000 0.500000
O O2 0.866715 0.853929 0.583276
O O3 0.663226 0.792687 0.261487
O O4 0.932569 0.760134 0.575805
O O5 0.764042 0.830177 0.833420
O O6 0.643645 0.779447 0.838463
O O7 0.569472 0.755875 0.591915
O O8 0.813587 0.718920 0.941077
O O9 0.311978 0.576749 0.265647
O O10 0.393159 0.683641 0.332362
O O11 0.500272 0.617818 0.585048
O O12 0.478146 0.435708 0.816063
O O13 0.340316 0.528257 0.692940
O O14 0.500000 0.500000 0.000000
O O15 0.722605 0.365875 0.434279
O O16 0.000000 0.353393 0.750000
O O17 0.500000 0.419214 0.250000
#
# Coordination Sequence:
#
# PCOD9294470 Si02
#       8
#     8   8   8   8   4   8   8   8
#     4  12  23  38  59  90 130 165 203 249 315 385
#     4  11  23  36  61  93 133 167 206 253 323 395
#     4  11  20  37  60  94 120 157 215 266 307 375
#     4  10  23  40  66  92 117 163 226 273 306 361
#     4  12  22  42  66  96 124 166 222 270 310 382
#     4  11  24  37  60  95 132 167 207 258 330 385
#     4  12  22  36  60  91 133 167 199 253 319 386
#     4  11  21  39  64  87 120 167 215 264 312 362
#
# _framework density 18.569300999999999
#
# number of rings (size 3 to 8) (size 9 to 14) (size 15 to 20)
#    0.000    0.800    7.333    0.800    1.867    0.000 
#    0.000    0.000    2.933    0.800    0.000    0.000 
#    0.000    0.000    0.000    0.000    0.000    0.000 
#
# Total GULP energy -167124.750816 kJ/mol
# GULP energy per Si atom -5570.825027 kJ/mol
# Density = 1.852704 g / cm^3
# Si number density = 18.569301 Si / 1000 Ang^3
#
#
#
# Elastic Constant Matrix: (Units=GPa)
#
#
# Indices 1 2 3 4 5 6 
#
# 1 62.1786 8.0936 22.0694 0.0000 -13.1665 0.0000
# 2 8.0936 86.0874 35.8732 0.0000 -8.3421 0.0000
# 3 22.0694 35.8732 104.8282 0.0000 -6.5301 0.0000
# 4 0.0000 0.0000 0.0000 19.2035 0.0000 -14.3327
# 5 -13.1665 -8.3421 -6.5301 0.0000 28.7657 0.0000
# 6 0.0000 0.0000 0.0000 -14.3327 0.0000 33.2971
#
#
#
# Elastic Compliance Matrix: (Units=1/GPa)
#
#
# Indices 1 2 3 4 5 6 
#
# 1 0.019021 0.000524 -0.003684 0.000000 0.008022 0.000000
# 2 0.000524 0.013808 -0.004637 0.000000 0.003192 0.000000
# 3 -0.003684 -0.004637 0.011881 0.000000 -0.000334 0.000000
# 4 0.000000 0.000000 0.000000 0.076723 0.000000 0.033025
# 5 0.008022 0.003192 -0.000334 0.000000 0.039285 0.000000
# 6 0.000000 0.000000 0.000000 0.033025 0.000000 0.044248
#
#
# Mechanical properties :
#
#
# Convention : Reuss Voigt Hill
#
# Bulk Modulus (GPa) = 34.34466 42.79627 38.57047
# Shear Modulus (GPa) = 21.71409 28.72380 25.21894
#
# Velocity S-wave (km/s) = 3.42329 3.93726 3.68924
# Velocity P-wave (km/s) = 5.84472 6.61560 6.24207
#
# Compressibility (1/GPa) = 0.02911661
#
# Stress axis : x y z
#
# Youngs Moduli (GPa) = 52.57420 72.42007 84.16790
#
# Poissons Ratio (x) = -0.03797 0.31008
# Poissons Ratio (y) = -0.02756 0.39028
# Poissons Ratio (z) = 0.19369 0.33580
#
# Static dielectric constant tensor:
#      x y z
#    x 1.713390 0.000000 -0.026830 
#    y 0.000000 1.659830 0.000000 
#    z -0.026830 0.000000 1.700950 
# 
# From -- ./inp_files/169493.got.cif
#   From: 2010.05.17/outbox.cif.g08.bks.cpg/sg15_85_cif.got.tgz:169493.got - 2010.06.03 18:47:42.
