data_PCOD9294684
_publ_section_title
;
Structure prediction by ZEFSAII (Michael W. Deem and Ramdas Pophale) SiO2 
 PCOD9294684
Probable space group: C 2/C
;
_chemical_formula_sum "Si O2"
_cell_formula_units_Z 32
_cell_length_a 13.633602
_cell_length_b 8.189777
_cell_length_c 14.128251
_cell_angle_alpha 90.000000
_cell_angle_beta 67.265452
_cell_angle_gamma 90.000000
_cell_volume 1454.942269
_symmetry_space_group_name_H-M "C 2/C"
_symmetry_group_IT_number 15
_symmetry_cell_setting 'monoclinic'
loop_
_space_group_symop_operation_xyz
x,y,z
-x,y,1/2-z
-x,-y,-z
x,-y,1/2+z
1/2+x,1/2+y,z
1/2-x,1/2+y,1/2-z
1/2-x,1/2-y,-z
1/2+x,1/2-y,1/2+z
loop_
_atom_site_type_symbol
_atom_site_label
_atom_site_fract_x
_atom_site_fract_y
_atom_site_fract_z
Si Si1 0.027591 0.764168 0.524321
Si Si2 0.097360 0.039845 0.282061
Si Si3 0.982465 0.565528 0.146366
Si Si4 0.210387 0.254585 0.833419
O O1 0.023962 0.606750 0.594096
O O2 0.151207 0.797472 0.452747
O O3 0.958368 0.900298 0.600508
O O4 0.976763 0.704228 0.442732
O O5 0.168763 0.188920 0.214656
O O6 0.000000 0.000150 0.250000
O O7 0.171305 0.884751 0.275705
O O8 0.000000 0.590343 0.250000
O O9 0.857216 0.585280 0.172334
#
# Coordination Sequence:
#
# PCOD9294684 Si02
#       4
#     8   8   8   8
#     4   9  21  39  65  96 137 170 221 279 320 399
#     4  12  24  42  70  96 137 179 216 274 332 387
#     4   9  18  39  67  95 133 172 217 276 331 385
#     4  10  23  41  63  99 135 170 228 268 321 405
#
# _framework density 21.993998999999999
#
# number of rings (size 3 to 8) (size 9 to 14) (size 15 to 20)
#    1.500    0.500    0.000    3.750    0.000    1.000 
#    0.000    5.000    0.000    0.000    0.000    0.000 
#    0.000    0.000    0.000    0.000    0.000    0.000 
#
# Total GULP energy -89105.964527 kJ/mol
# GULP energy per Si atom -5569.122783 kJ/mol
# Density = 2.194394 g / cm^3
# Si number density = 21.993999 Si / 1000 Ang^3
#
#
#
# Elastic Constant Matrix: (Units=GPa)
#
#
# Indices 1 2 3 4 5 6 
#
# 1 54.0885 35.5412 34.5221 0.0000 -23.1230 0.0000
# 2 35.5412 83.5044 33.1414 0.0000 -11.1864 0.0000
# 3 34.5221 33.1414 125.8999 0.0000 -0.8932 0.0000
# 4 0.0000 0.0000 0.0000 37.8306 0.0000 -8.1243
# 5 -23.1230 -11.1864 -0.8932 0.0000 38.8462 0.0000
# 6 0.0000 0.0000 0.0000 -8.1243 0.0000 4.5054
#
#
#
# Elastic Compliance Matrix: (Units=1/GPa)
#
#
# Indices 1 2 3 4 5 6 
#
# 1 0.039115 -0.010914 -0.007711 0.000000 0.019963 0.000000
# 2 -0.010914 0.016993 -0.001492 0.000000 -0.001637 0.000000
# 3 -0.007711 -0.001492 0.010416 0.000000 -0.004780 0.000000
# 4 0.000000 0.000000 0.000000 0.043139 0.000000 0.077790
# 5 0.019963 -0.001637 -0.004780 0.000000 0.037044 0.000000
# 6 0.000000 0.000000 0.000000 0.077790 0.000000 0.362228
#
#
# Mechanical properties :
#
#
# Convention : Reuss Voigt Hill
#
# Bulk Modulus (GPa) = 38.03596 52.21134 45.12365
# Shear Modulus (GPa) = 8.96162 26.92232 17.94197
#
# Velocity S-wave (km/s) = 2.02075 3.50248 2.85926
# Velocity P-wave (km/s) = 4.77241 6.33616 5.60905
#
# Compressibility (1/GPa) = 0.02629091
#
# Stress axis : x y z
#
# Youngs Moduli (GPa) = 25.56542 58.84619 96.00481
#
# Poissons Ratio (x) = 0.64222 0.74030
# Poissons Ratio (y) = 0.27901 0.14328
# Poissons Ratio (z) = 0.19714 0.08782
#
# Static dielectric constant tensor:
#      x y z
#    x 1.800790 0.000000 -0.032820 
#    y 0.000000 1.886940 0.000000 
#    z -0.032820 0.000000 1.880730 
# 
# From -- ./inp_files/140702.got.cif
#   From: 2010.05.17/outbox.cif.g08.bks.cpg/sg15_71_cif.got.tgz:140702.got - 2010.06.03 18:47:42.
