data_PCOD9294472
_publ_section_title
;
Structure prediction by ZEFSAII (Michael W. Deem and Ramdas Pophale) SiO2 
 PCOD9294472
Probable space group: C 2/C
;
_chemical_formula_sum "Si O2"
_cell_formula_units_Z 48
_cell_length_a 25.541102
_cell_length_b 5.092935
_cell_length_c 18.525839
_cell_angle_alpha 90.000000
_cell_angle_beta 113.319217
_cell_angle_gamma 90.000000
_cell_volume 2212.975963
_symmetry_space_group_name_H-M "C 2/C"
_symmetry_group_IT_number 15
_symmetry_cell_setting 'monoclinic'
loop_
_space_group_symop_operation_xyz
x,y,z
-x,y,1/2-z
-x,-y,-z
x,-y,1/2+z
1/2+x,1/2+y,z
1/2-x,1/2+y,1/2-z
1/2-x,1/2-y,-z
1/2+x,1/2-y,1/2+z
loop_
_atom_site_type_symbol
_atom_site_label
_atom_site_fract_x
_atom_site_fract_y
_atom_site_fract_z
Si Si1 0.433559 0.920994 0.977690
Si Si2 0.526761 0.571760 0.194286
Si Si3 0.361008 0.697426 0.681887
Si Si4 0.915970 0.096687 0.562843
Si Si5 0.615643 0.077990 0.683756
Si Si6 0.216245 0.939047 0.750804
O O1 0.421325 0.685994 0.027157
O O2 0.408544 0.183365 0.999291
O O3 0.500000 0.000000 0.000000
O O4 0.398685 0.864999 0.884932
O O5 0.500000 0.709464 0.250000
O O6 0.581006 0.418789 0.253062
O O7 0.478987 0.387802 0.133944
O O8 0.554727 0.781829 0.157992
O O9 0.370849 0.655034 0.602366
O O10 0.307105 0.542782 0.684943
O O11 0.362532 0.975060 0.725904
O O12 0.662895 0.288206 0.685912
O O13 0.262863 0.705529 0.777031
#
# Coordination Sequence:
#
# PCOD9294472 Si02
#       6
#     8   8   8   8   8   8
#     4  12  25  39  62  93 142 180 211 247 316 385
#     4   9  20  34  56  93 127 172 212 259 300 373
#     4  10  23  40  66  93 125 166 223 266 323 371
#     4  11  25  40  60  92 138 179 207 255 311 389
#     4  11  23  38  68  94 129 163 222 263 317 379
#     4  11  23  42  69  98 117 155 216 289 331 372
#
# _framework density 21.690252000000001
#
# number of rings (size 3 to 8) (size 9 to 14) (size 15 to 20)
#    0.000    1.333    3.333    1.500   11.667    0.667 
#    0.000    0.000    0.000    6.000    0.000    0.000 
#    0.000    0.000    0.000    0.000    0.000    0.000 
#
# Total GULP energy -133737.814917 kJ/mol
# GULP energy per Si atom -5572.408955 kJ/mol
# Density = 2.164088 g / cm^3
# Si number density = 21.690252 Si / 1000 Ang^3
#
#
#
# Elastic Constant Matrix: (Units=GPa)
#
#
# Indices 1 2 3 4 5 6 
#
# 1 112.0301 38.3236 26.6095 -0.0002 -27.2123 -0.0004
# 2 38.3236 103.1674 15.6342 -0.0001 -11.6468 -0.0003
# 3 26.6095 15.6342 66.0728 0.0000 -18.7900 -0.0004
# 4 -0.0002 -0.0001 0.0000 35.4989 -0.0002 -4.2233
# 5 -27.2123 -11.6468 -18.7900 -0.0002 19.1983 0.0001
# 6 -0.0004 -0.0003 -0.0004 -4.2233 0.0001 19.7913
#
#
#
# Elastic Compliance Matrix: (Units=1/GPa)
#
#
# Indices 1 2 3 4 5 6 
#
# 1 0.014601 -0.003328 0.000303 0.000000 0.018974 0.000000
# 2 -0.003328 0.011205 -0.000997 0.000000 0.001105 0.000000
# 3 0.000303 -0.000997 0.021061 0.000000 0.020437 0.000000
# 4 0.000000 0.000000 0.000000 0.028904 0.000001 0.006168
# 5 0.018974 0.001105 0.020437 0.000001 0.099655 0.000001
# 6 0.000000 0.000000 0.000000 0.006168 0.000001 0.051843
#
#
# Mechanical properties :
#
#
# Convention : Reuss Voigt Hill
#
# Bulk Modulus (GPa) = 25.75758 49.15608 37.45683
# Shear Modulus (GPa) = 20.14063 28.27791 24.20927
#
# Velocity S-wave (km/s) = 3.05053 3.61462 3.34449
# Velocity P-wave (km/s) = 4.93038 6.33503 5.67632
#
# Compressibility (1/GPa) = 0.03882352
#
# Stress axis : x y z
#
# Youngs Moduli (GPa) = 68.48617 89.24590 47.48173
#
# Poissons Ratio (x) = 0.29700 -0.01438
# Poissons Ratio (y) = 0.22791 0.04733
# Poissons Ratio (z) = -0.02075 0.08897
#
# Static dielectric constant tensor:
#      x y z
#    x 1.848170 0.000000 -0.060840 
#    y 0.000000 1.887950 0.000000 
#    z -0.060840 0.000000 1.845850 
# 
# From -- ./inp_files/217587.got.cif
#   From: 2010.05.17/outbox.cif.g08.bks.cpg/sg15_109_cif.got.tgz:217587.got - 2010.06.03 18:47:42.
