data_PCOD9294319
_publ_section_title
;
Structure prediction by ZEFSAII (Michael W. Deem and Ramdas Pophale) SiO2 
 PCOD9294319
Probable space group: C 2/C
;
_chemical_formula_sum "Si O2"
_cell_formula_units_Z 32
_cell_length_a 17.091457
_cell_length_b 9.152374
_cell_length_c 15.764170
_cell_angle_alpha 90.000000
_cell_angle_beta 30.681253
_cell_angle_gamma 90.000000
_cell_volume 1258.278566
_symmetry_space_group_name_H-M "C 2/C"
_symmetry_group_IT_number 15
_symmetry_cell_setting 'monoclinic'
loop_
_space_group_symop_operation_xyz
x,y,z
-x,y,1/2-z
-x,-y,-z
x,-y,1/2+z
1/2+x,1/2+y,z
1/2-x,1/2+y,1/2-z
1/2-x,1/2-y,-z
1/2+x,1/2-y,1/2+z
loop_
_atom_site_type_symbol
_atom_site_label
_atom_site_fract_x
_atom_site_fract_y
_atom_site_fract_z
Si Si1 0.727273 0.572919 0.102532
Si Si2 0.500000 0.325910 0.250000
Si Si3 0.000000 0.681287 0.750000
Si Si4 0.915140 0.205351 0.016092
Si Si5 0.224149 0.948025 0.282460
O O1 0.639673 0.432874 0.146628
O O2 0.623842 0.713324 0.178152
O O3 0.728538 0.560321 0.201017
O O4 0.897397 0.589540 0.909159
O O5 0.453533 0.251034 0.382699
O O6 0.855127 0.335676 0.131448
O O7 0.800047 0.062211 0.117884
O O8 0.068620 0.144555 0.916849
#
# Coordination Sequence:
#
# PCOD9294319 Si02
#       5
#     8   4   4   8   8
#     4   9  19  34  56  85 118 156 196 240 292 350
#     4   9  20  39  58  84 118 152 196 246 288 344
#     4   9  18  33  56  86 122 156 194 242 294 348
#     4  10  23  41  61  87 121 156 196 243 293 349
#     4  10  23  40  60  87 119 155 197 244 294 349
#
# _framework density 25.431571999999999
#
# number of rings (size 3 to 8) (size 9 to 14) (size 15 to 20)
#    0.000    2.500    0.000    0.000    0.000   18.000 
#    0.000    0.000    0.000    1.500    0.000    0.000 
#    0.000    0.000    0.000    0.000    0.000    0.000 
#
# Total GULP energy -89430.815780 kJ/mol
# GULP energy per Si atom -5589.425986 kJ/mol
# Density = 2.537369 g / cm^3
# Si number density = 25.431572 Si / 1000 Ang^3
#
#
#
# Elastic Constant Matrix: (Units=GPa)
#
#
# Indices 1 2 3 4 5 6 
#
# 1 30.0178 22.1214 35.6622 0.0000 15.9103 0.0000
# 2 22.1214 98.0885 54.2045 0.0000 5.1170 0.0000
# 3 35.6622 54.2045 183.8159 0.0000 -4.5491 0.0000
# 4 0.0000 0.0000 0.0000 62.3989 0.0000 8.5871
# 5 15.9103 5.1170 -4.5491 0.0000 29.2427 0.0000
# 6 0.0000 0.0000 0.0000 8.5871 0.0000 29.4497
#
#
#
# Elastic Compliance Matrix: (Units=1/GPa)
#
#
# Indices 1 2 3 4 5 6 
#
# 1 0.079063 -0.007725 -0.014147 0.000000 -0.043865 0.000000
# 2 -0.007725 0.013151 -0.002341 0.000000 0.001538 0.000000
# 3 -0.014147 -0.002341 0.009111 0.000000 0.009524 0.000000
# 4 0.000000 0.000000 0.000000 0.016696 0.000000 -0.004868
# 5 -0.043865 0.001538 0.009524 0.000000 0.059275 0.000000
# 6 0.000000 0.000000 0.000000 -0.004868 0.000000 0.035376
#
#
# Mechanical properties :
#
#
# Convention : Reuss Voigt Hill
#
# Bulk Modulus (GPa) = 18.90394 59.54428 39.22411
# Shear Modulus (GPa) = 17.93856 37.54718 27.74287
#
# Velocity S-wave (km/s) = 2.65875 3.84656 3.30643
# Velocity P-wave (km/s) = 4.10788 6.57209 5.48029
#
# Compressibility (1/GPa) = 0.05289901
#
# Stress axis : x y z
#
# Youngs Moduli (GPa) = 12.64817 76.04249 109.75856
#
# Poissons Ratio (x) = 0.58741 1.55272
# Poissons Ratio (y) = 0.09770 0.25696
# Poissons Ratio (z) = 0.17893 0.17803
#
# Static dielectric constant tensor:
#      x y z
#    x 2.016860 0.000000 0.010060 
#    y 0.000000 2.074320 0.000000 
#    z 0.010060 0.000000 2.055940 
# 
# From -- ./inp_files/45703.got.cif
#   From: 2010.05.17/outbox.cif.g08.bks.cpg/sg15_23_cif.got.tgz:45703.got - 2010.06.03 18:47:42.
