data_PCOD9294452
_publ_section_title
;
Structure prediction by ZEFSAII (Michael W. Deem and Ramdas Pophale) SiO2 
 PCOD9294452
Probable space group: C 2/C
;
_chemical_formula_sum "Si O2"
_cell_formula_units_Z 64
_cell_length_a 11.620596
_cell_length_b 19.217854
_cell_length_c 28.191158
_cell_angle_alpha 90.000000
_cell_angle_beta 150.855820
_cell_angle_gamma 90.000000
_cell_volume 3066.077909
_symmetry_space_group_name_H-M "C 2/C"
_symmetry_group_IT_number 15
_symmetry_cell_setting 'monoclinic'
loop_
_space_group_symop_operation_xyz
x,y,z
-x,y,1/2-z
-x,-y,-z
x,-y,1/2+z
1/2+x,1/2+y,z
1/2-x,1/2+y,1/2-z
1/2-x,1/2-y,-z
1/2+x,1/2-y,1/2+z
loop_
_atom_site_type_symbol
_atom_site_label
_atom_site_fract_x
_atom_site_fract_y
_atom_site_fract_z
Si Si1 0.012960 0.453879 0.895261
Si Si2 0.671968 0.319453 0.856529
Si Si3 0.728779 0.469159 0.366009
Si Si4 0.351546 0.283466 0.487867
Si Si5 0.790122 0.816767 0.137235
Si Si6 0.545738 0.555679 0.163595
Si Si7 0.912061 0.051678 0.010325
Si Si8 0.798690 0.324044 0.494715
O O1 0.900311 0.473814 0.905663
O O2 0.797087 0.441669 0.781194
O O3 0.189444 0.388535 0.964885
O O4 0.156465 0.520769 0.930789
O O5 0.500000 0.325861 0.750000
O O6 0.592421 0.375932 0.867102
O O7 0.936172 0.326398 0.931312
O O8 0.677303 0.245513 0.884522
O O9 0.500000 0.469532 0.250000
O O10 0.831258 0.392085 0.398012
O O11 0.618281 0.492908 0.375803
O O12 0.250000 0.250000 0.500000
O O13 0.606384 0.245876 0.574203
O O14 0.385494 0.365559 0.493436
O O15 0.000000 0.807665 0.250000
O O16 0.872870 0.826769 0.112609
O O17 0.563943 0.548047 0.113855
O O18 0.000000 0.000000 0.000000
O O19 0.750000 0.250000 0.500000
#
# Coordination Sequence:
#
# PCOD9294452 Si02
#       8
#     8   8   8   8   8   8   8   8
#     4  11  23  42  73  99 138 175 228 296 356 422
#     4  11  21  43  72 103 134 174 239 301 356 430
#     4   9  18  37  67 108 125 150 220 296 362 401
#     4  11  24  45  67  96 135 188 235 278 350 428
#     4  10  23  40  65  97 136 172 220 285 344 417
#     4  11  21  44  76 102 130 181 233 293 367 430
#     4  12  29  46  63  97 146 192 243 284 348 441
#     4  11  24  38  65 104 139 169 224 291 362 409
#
# _framework density 20.873571999999999
#
# number of rings (size 3 to 8) (size 9 to 14) (size 15 to 20)
#    0.000    1.250    3.750    1.875    5.250    3.500 
#    2.250    0.000    0.000    0.000    0.000    0.000 
#    0.000    0.000    0.000    0.000    0.000    0.000 
#
# Total GULP energy -178499.745630 kJ/mol
# GULP energy per Si atom -5578.117051 kJ/mol
# Density = 2.082606 g / cm^3
# Si number density = 20.873572 Si / 1000 Ang^3
#
#
#
# Elastic Constant Matrix: (Units=GPa)
#
#
# Indices 1 2 3 4 5 6 
#
# 1 77.9300 54.8857 24.8125 0.0008 -22.7540 -0.0002
# 2 54.8857 203.7623 46.3657 0.0000 -4.2561 0.0000
# 3 24.8125 46.3657 112.5983 0.0028 -22.5419 0.0006
# 4 0.0008 0.0000 0.0028 25.7184 0.0015 1.1789
# 5 -22.7540 -4.2561 -22.5419 0.0015 32.0439 -0.0001
# 6 -0.0002 0.0000 0.0006 1.1789 -0.0001 37.7676
#
#
#
# Elastic Compliance Matrix: (Units=1/GPa)
#
#
# Indices 1 2 3 4 5 6 
#
# 1 0.020629 -0.005379 0.000534 -0.000002 0.014309 0.000000
# 2 -0.005379 0.006845 -0.002579 0.000001 -0.004725 0.000000
# 3 0.000534 -0.002579 0.011445 -0.000002 0.008088 0.000000
# 4 -0.000002 0.000001 -0.000002 0.038938 -0.000004 -0.001215
# 5 0.014309 -0.004725 0.008088 -0.000004 0.046430 0.000000
# 6 0.000000 0.000000 0.000000 -0.001215 0.000000 0.026516
#
#
# Mechanical properties :
#
#
# Convention : Reuss Voigt Hill
#
# Bulk Modulus (GPa) = 41.54666 71.82425 56.68545
# Shear Modulus (GPa) = 28.78967 36.98777 32.88872
#
# Velocity S-wave (km/s) = 3.71784 4.21407 3.97371
# Velocity P-wave (km/s) = 6.19491 7.62638 6.94761
#
# Compressibility (1/GPa) = 0.02406933
#
# Stress axis : x y z
#
# Youngs Moduli (GPa) = 48.47652 146.09660 87.37755
#
# Poissons Ratio (x) = 0.78587 -0.04665
# Poissons Ratio (y) = 0.26076 0.22535
# Poissons Ratio (z) = -0.02588 0.37680
#
# Static dielectric constant tensor:
#      x y z
#    x 1.821860 0.000000 -0.039860 
#    y 0.000000 1.794980 0.000000 
#    z -0.039860 0.000000 1.772970 
# 
# From -- ./inp_files/311657.got.cif
#   From: 2010.05.17/outbox.cif.g08.bks.cpg/sg15_156_cif.got.tgz:311657.got - 2010.06.03 18:47:42.
