data_PCOD9294724
_publ_section_title
;
Structure prediction by ZEFSAII (Michael W. Deem and Ramdas Pophale) SiO2 
 PCOD9294724
Probable space group: C 2/C
;
_chemical_formula_sum "Si O2"
_cell_formula_units_Z 40
_cell_length_a 22.305382
_cell_length_b 17.108919
_cell_length_c 13.557827
_cell_angle_alpha 90.000000
_cell_angle_beta 22.241913
_cell_angle_gamma 90.000000
_cell_volume 1958.433527
_symmetry_space_group_name_H-M "C 2/C"
_symmetry_group_IT_number 15
_symmetry_cell_setting 'monoclinic'
loop_
_space_group_symop_operation_xyz
x,y,z
-x,y,1/2-z
-x,-y,-z
x,-y,1/2+z
1/2+x,1/2+y,z
1/2-x,1/2+y,1/2-z
1/2-x,1/2-y,-z
1/2+x,1/2-y,1/2+z
loop_
_atom_site_type_symbol
_atom_site_label
_atom_site_fract_x
_atom_site_fract_y
_atom_site_fract_z
Si Si1 0.355390 0.057515 0.745427
Si Si2 0.846034 0.687022 0.920531
Si Si3 0.100798 0.163694 0.462118
Si Si4 0.460198 0.846474 0.920780
Si Si5 0.791264 0.902980 0.494250
O O1 0.396475 0.119126 0.767913
O O2 0.331523 0.105341 0.680214
O O3 0.500000 0.000000 0.500000
O O4 0.224114 0.996724 0.982641
O O5 0.000000 0.714337 0.750000
O O6 0.750000 0.750000 0.000000
O O7 0.718777 0.654500 0.192119
O O8 0.085417 0.255919 0.508509
O O9 0.165116 0.121825 0.461552
O O10 0.925274 0.128944 0.716709
O O11 0.500000 0.874107 0.750000
O O12 0.626797 0.860227 0.721458
#
# Coordination Sequence:
#
# PCOD9294724 Si02
#       5
#     8   8   8   8   8
#     4  10  23  44  66  98 141 179 226 286 346 415
#     4  12  26  46  74 105 139 186 235 289 352 419
#     4  11  23  41  70  95 139 177 227 291 339 412
#     4  11  21  38  70  96 128 184 228 273 343 418
#     4  10  23  41  65 102 137 175 233 287 341 408
#
# _framework density 20.424486999999999
#
# number of rings (size 3 to 8) (size 9 to 14) (size 15 to 20)
#    0.000    1.200    4.000    3.000    0.000    7.200 
#    3.600    0.000    0.000    0.000    0.000    0.000 
#    0.000    0.000    0.000    0.000    0.000    0.000 
#
# Total GULP energy -111585.280687 kJ/mol
# GULP energy per Si atom -5579.264034 kJ/mol
# Density = 2.037800 g / cm^3
# Si number density = 20.424487 Si / 1000 Ang^3
#
#
#
# Elastic Constant Matrix: (Units=GPa)
#
#
# Indices 1 2 3 4 5 6 
#
# 1 87.3091 34.6686 25.2179 -0.0006 10.2965 0.0001
# 2 34.6686 91.7449 16.6174 0.0010 -9.4634 0.0005
# 3 25.2179 16.6174 87.4707 -0.0073 23.5955 -0.0015
# 4 -0.0006 0.0010 -0.0073 797.5853 -0.0022 181.1845
# 5 10.2965 -9.4634 23.5955 -0.0022 37.8547 -0.0007
# 6 0.0001 0.0005 -0.0015 181.1845 -0.0007 68.3731
#
#
#
# Elastic Compliance Matrix: (Units=1/GPa)
#
#
# Indices 1 2 3 4 5 6 
#
# 1 0.014778 -0.005635 -0.002074 0.000000 -0.004135 0.000000
# 2 -0.005635 0.014283 -0.002964 0.000000 0.006951 0.000000
# 3 -0.002074 -0.002964 0.015196 0.000000 -0.009649 0.000000
# 4 0.000000 0.000000 0.000000 0.003150 0.000000 -0.008347
# 5 -0.004135 0.006951 -0.009649 0.000000 0.035294 0.000000
# 6 0.000000 0.000000 0.000000 -0.008347 0.000000 0.036746
#
#
# Mechanical properties :
#
#
# Convention : Reuss Voigt Hill
#
# Bulk Modulus (GPa) = 43.64812 46.61473 45.13143
# Shear Modulus (GPa) = 33.68589 193.43068 113.55829
#
# Velocity S-wave (km/s) = 4.06555 9.74222 7.46457
# Velocity P-wave (km/s) = 6.59205 12.22376 9.82027
#
# Compressibility (1/GPa) = 0.02291049
#
# Stress axis : x y z
#
# Youngs Moduli (GPa) = 67.66808 70.01338 65.80545
#
# Poissons Ratio (x) = 0.39454 0.13651
# Poissons Ratio (y) = 0.38132 0.19503
# Poissons Ratio (z) = 0.14038 0.20751
#
# Static dielectric constant tensor:
#      x y z
#    x 1.711000 0.000000 0.003470 
#    y 0.000000 1.749950 0.000000 
#    z 0.003470 0.000000 1.789390 
# 
# From -- ./inp_files/174042.got.cif
#   From: 2010.05.17/outbox.cif.g08.bks.cpg/sg15_88_cif.got.tgz:174042.got - 2010.06.03 18:47:42.
