data_PCOD9294435
_publ_section_title
;
Structure prediction by ZEFSAII (Michael W. Deem and Ramdas Pophale) SiO2 
 PCOD9294435
Probable space group: C 2/C
;
_chemical_formula_sum "Si O2"
_cell_formula_units_Z 44
_cell_length_a 13.328338
_cell_length_b 14.803288
_cell_length_c 19.426824
_cell_angle_alpha 90.000000
_cell_angle_beta 37.170980
_cell_angle_gamma 90.000000
_cell_volume 2315.866655
_symmetry_space_group_name_H-M "C 2/C"
_symmetry_group_IT_number 15
_symmetry_cell_setting 'monoclinic'
loop_
_space_group_symop_operation_xyz
x,y,z
-x,y,1/2-z
-x,-y,-z
x,-y,1/2+z
1/2+x,1/2+y,z
1/2-x,1/2+y,1/2-z
1/2-x,1/2-y,-z
1/2+x,1/2-y,1/2+z
loop_
_atom_site_type_symbol
_atom_site_label
_atom_site_fract_x
_atom_site_fract_y
_atom_site_fract_z
Si Si1 0.093648 0.907849 0.468564
Si Si2 0.332191 0.127745 0.714182
Si Si3 0.172059 0.538429 0.545196
Si Si4 0.801558 0.915147 0.352619
Si Si5 0.000000 0.406469 0.750000
Si Si6 0.790855 0.224565 0.135491
O O1 0.245068 0.893851 0.333097
O O2 0.171247 0.917933 0.501785
O O3 0.961823 0.827854 0.531959
O O4 0.000000 0.000000 0.500000
O O5 0.527586 0.110032 0.608993
O O6 0.254135 0.065975 0.695650
O O7 0.291195 0.228175 0.710102
O O8 0.226134 0.484269 0.448026
O O9 0.089730 0.467904 0.643974
O O10 0.734801 0.812201 0.399708
O O11 0.000000 0.913938 0.250000
O O12 0.140096 0.343585 0.707240
#
# Coordination Sequence:
#
# PCOD9294435 Si02
#       6
#     8   8   8   8   4   8
#     4  12  22  41  66  96 130 173 217 269 325 390
#     4  10  23  43  60  96 132 168 216 265 327 386
#     4  12  23  41  68  92 130 170 220 263 329 385
#     4  10  23  40  65  93 129 167 216 268 322 383
#     4  12  22  38  64  98 116 172 216 276 318 374
#     4  10  24  38  63  94 129 168 212 270 325 377
#
# _framework density 18.999365999999998
#
# number of rings (size 3 to 8) (size 9 to 14) (size 15 to 20)
#    1.091    0.000    4.545    1.636    2.545    1.455 
#    0.000    1.818    0.000    0.000    0.000    0.000 
#    0.000    0.000    0.000    0.000    0.000    0.000 
#
# Total GULP energy -122744.922103 kJ/mol
# GULP energy per Si atom -5579.314641 kJ/mol
# Density = 1.895612 g / cm^3
# Si number density = 18.999366 Si / 1000 Ang^3
#
#
#
# Elastic Constant Matrix: (Units=GPa)
#
#
# Indices 1 2 3 4 5 6 
#
# 1 74.2745 4.7931 -6.7245 -0.0001 -20.7545 0.0000
# 2 4.7931 35.6085 12.1826 -0.0002 -4.0135 0.0001
# 3 -6.7245 12.1826 42.5622 -0.0008 -7.4895 0.0003
# 4 -0.0001 -0.0002 -0.0008 20.9516 0.0003 -28.0140
# 5 -20.7545 -4.0135 -7.4895 0.0003 38.8606 0.0000
# 6 0.0000 0.0001 0.0003 -28.0140 0.0000 -3.9635
#
#
#
# Elastic Compliance Matrix: (Units=1/GPa)
#
#
# Indices 1 2 3 4 5 6 
#
# 1 0.016834 -0.002957 0.005211 0.000000 0.009689 0.000000
# 2 -0.002957 0.031742 -0.009578 0.000000 -0.000147 0.000000
# 3 0.005211 -0.009578 0.028337 0.000000 0.007255 0.000000
# 4 0.000000 0.000000 0.000000 0.004567 0.000000 -0.032281
# 5 0.009689 -0.000147 0.007255 0.000000 0.032291 0.000000
# 6 0.000000 0.000000 0.000000 -0.032281 0.000000 -0.024143
#
#
# Mechanical properties :
#
#
# Convention : Reuss Voigt Hill
#
# Bulk Modulus (GPa) = 16.06073 19.21640 17.63856
# Shear Modulus (GPa) = 39.99041 20.64933 30.31987
#
# Velocity S-wave (km/s) = 4.59282 3.30031 3.99913
# Velocity P-wave (km/s) = 6.04954 4.96577 5.53425
#
# Compressibility (1/GPa) = 0.06226367
#
# Stress axis : x y z
#
# Youngs Moduli (GPa) = 59.40491 31.50436 35.29011
#
# Poissons Ratio (x) = 0.09314 -0.18389
# Poissons Ratio (y) = 0.17563 0.33802
# Poissons Ratio (z) = -0.30955 0.30176
#
# Static dielectric constant tensor:
#      x y z
#    x 1.674310 0.000000 0.004480 
#    y 0.000000 1.661600 0.000000 
#    z 0.004480 0.000000 1.624970 
# 
# From -- ./inp_files/199406.got.cif
#   From: 2010.05.17/outbox.cif.g08.bks.cpg/sg15_100_cif.got.tgz:199406.got - 2010.06.03 18:47:42.
