data_PCOD9294650
_publ_section_title
;
Structure prediction by ZEFSAII (Michael W. Deem and Ramdas Pophale) SiO2 
 PCOD9294650
Probable space group: C 2/C
;
_chemical_formula_sum "Si O2"
_cell_formula_units_Z 64
_cell_length_a 22.039794
_cell_length_b 11.782752
_cell_length_c 12.150212
_cell_angle_alpha 90.000000
_cell_angle_beta 78.840588
_cell_angle_gamma 90.000000
_cell_volume 3095.623115
_symmetry_space_group_name_H-M "C 2/C"
_symmetry_group_IT_number 15
_symmetry_cell_setting 'monoclinic'
loop_
_space_group_symop_operation_xyz
x,y,z
-x,y,1/2-z
-x,-y,-z
x,-y,1/2+z
1/2+x,1/2+y,z
1/2-x,1/2+y,1/2-z
1/2-x,1/2-y,-z
1/2+x,1/2-y,1/2+z
loop_
_atom_site_type_symbol
_atom_site_label
_atom_site_fract_x
_atom_site_fract_y
_atom_site_fract_z
Si Si1 0.511663 0.605508 0.575788
Si Si2 0.793148 0.853115 0.448262
Si Si3 0.709287 0.976331 0.838489
Si Si4 0.879180 0.651136 0.747132
Si Si5 0.101769 0.100045 0.740107
Si Si6 0.037696 0.650472 0.984031
Si Si7 0.674042 0.611322 0.317202
Si Si8 0.095216 0.569949 0.520762
O O1 0.500000 0.500000 0.500000
O O2 0.557537 0.563589 0.655144
O O3 0.446972 0.646110 0.653945
O O4 0.541203 0.717361 0.511419
O O5 0.750000 0.750000 0.500000
O O6 0.750142 0.950203 0.410099
O O7 0.844845 0.825786 0.337322
O O8 0.824678 0.891689 0.551134
O O9 0.673733 0.062630 0.770321
O O10 0.756228 0.900241 0.752956
O O11 0.655748 0.914511 0.925553
O O12 0.938203 0.630645 0.648262
O O13 0.854603 0.774494 0.722019
O O14 0.895833 0.632336 0.867240
O O15 0.135777 0.994447 0.784036
O O16 0.966672 0.613671 0.016441
O O17 0.081264 0.565792 0.039425
#
# Coordination Sequence:
#
# PCOD9294650 Si02
#       8
#     8   8   8   8   8   8   8   8
#     4  11  23  43  67  96 133 166 213 271 323 390
#     4  11  21  40  65  89 127 172 208 261 318 384
#     4  10  23  41  62  98 123 165 217 257 323 378
#     4  11  21  41  66  90 125 174 210 261 325 378
#     4  10  24  40  60 101 124 166 218 258 327 388
#     4  10  23  43  64  95 127 170 214 261 328 380
#     4  11  23  41  66  91 131 169 213 266 314 393
#     4  10  23  42  63  94 129 163 217 266 313 381
#
# _framework density 20.674351999999999
#
# number of rings (size 3 to 8) (size 9 to 14) (size 15 to 20)
#    0.000    1.500    1.250    3.375    3.500    1.500 
#   13.500    0.000    0.000    0.000    0.000    0.000 
#    0.000    0.000    0.000    0.000    0.000    0.000 
#
# Total GULP energy -178746.888828 kJ/mol
# GULP energy per Si atom -5585.840276 kJ/mol
# Density = 2.062730 g / cm^3
# Si number density = 20.674352 Si / 1000 Ang^3
#
#
#
# Elastic Constant Matrix: (Units=GPa)
#
#
# Indices 1 2 3 4 5 6 
#
# 1 94.5367 4.3273 30.7462 0.0000 -29.8734 0.0000
# 2 4.3273 38.7472 8.4178 0.0000 -5.9023 0.0000
# 3 30.7462 8.4178 75.9914 0.0000 -20.8883 0.0000
# 4 0.0000 0.0000 0.0000 22.9020 0.0000 -0.1582
# 5 -29.8734 -5.9023 -20.8883 0.0000 45.0575 0.0000
# 6 0.0000 0.0000 0.0000 -0.1582 0.0000 28.9711
#
#
#
# Elastic Compliance Matrix: (Units=1/GPa)
#
#
# Indices 1 2 3 4 5 6 
#
# 1 0.014205 0.000392 -0.003654 0.000000 0.007776 0.000000
# 2 0.000392 0.026687 -0.002386 0.000000 0.002649 0.000000
# 3 -0.003654 -0.002386 0.016217 0.000000 0.004783 0.000000
# 4 0.000000 0.000000 0.000000 0.043666 0.000000 0.000238
# 5 0.007776 0.002649 0.004783 0.000000 0.029914 0.000000
# 6 0.000000 0.000000 0.000000 0.000238 0.000000 0.034518
#
#
# Mechanical properties :
#
#
# Convention : Reuss Voigt Hill
#
# Bulk Modulus (GPa) = 21.82826 32.91755 27.37291
# Shear Modulus (GPa) = 26.07238 30.43839 28.25539
#
# Velocity S-wave (km/s) = 3.55505 3.84119 3.70088
# Velocity P-wave (km/s) = 5.23758 5.96904 5.61523
#
# Compressibility (1/GPa) = 0.04581217
#
# Stress axis : x y z
#
# Youngs Moduli (GPa) = 70.39604 37.47201 61.66486
#
# Poissons Ratio (x) = -0.01468 0.22529
# Poissons Ratio (y) = -0.02758 0.14716
# Poissons Ratio (z) = 0.25719 0.08943
#
# Static dielectric constant tensor:
#      x y z
#    x 1.752290 0.000000 -0.038420 
#    y 0.000000 1.730110 0.000000 
#    z -0.038420 0.000000 1.713700 
# 
# From -- ./inp_files/117564.got.cif
#   From: 2010.05.17/outbox.cif.g08.bks.cpg/sg15_59_cif.got.tgz:117564.got - 2010.06.03 18:47:42.
