data_PCOD9294774
_publ_section_title
;
Structure prediction by ZEFSAII (Michael W. Deem and Ramdas Pophale) SiO2 
 PCOD9294774
Probable space group: C 2/C
;
_chemical_formula_sum "Si O2"
_cell_formula_units_Z 40
_cell_length_a 9.637710
_cell_length_b 9.618342
_cell_length_c 18.650446
_cell_angle_alpha 90.000000
_cell_angle_beta 57.120522
_cell_angle_gamma 90.000000
_cell_volume 1451.933044
_symmetry_space_group_name_H-M "C 2/C"
_symmetry_group_IT_number 15
_symmetry_cell_setting 'monoclinic'
loop_
_space_group_symop_operation_xyz
x,y,z
-x,y,1/2-z
-x,-y,-z
x,-y,1/2+z
1/2+x,1/2+y,z
1/2-x,1/2+y,1/2-z
1/2-x,1/2-y,-z
1/2+x,1/2-y,1/2+z
loop_
_atom_site_type_symbol
_atom_site_label
_atom_site_fract_x
_atom_site_fract_y
_atom_site_fract_z
Si Si1 0.324263 0.063478 0.595715
Si Si2 0.833285 0.929623 0.502177
Si Si3 0.000000 0.203982 0.750000
Si Si4 0.532235 0.328637 0.899624
Si Si5 0.136126 0.256174 0.860138
Si Si6 0.000000 0.228450 0.250000
O O1 0.306112 0.101240 0.516598
O O2 0.460781 0.163555 0.592130
O O3 0.651252 0.097570 0.396379
O O4 0.152427 0.111169 0.679479
O O5 0.821722 0.884811 0.588095
O O6 0.998329 0.849375 0.427830
O O7 0.875993 0.090408 0.475358
O O8 0.923179 0.285292 0.704462
O O9 0.535581 0.354478 0.814102
O O10 0.323492 0.195495 0.809674
#
# Coordination Sequence:
#
# PCOD9294774 Si02
#       6
#     8   8   4   8   8   4
#     4  11  22  43  69  97 134 175 224 275 327 395
#     4  10  25  47  65  97 137 180 215 273 341 393
#     4  10  23  41  66 102 137 177 218 276 341 387
#     4  11  24  44  70  95 137 177 218 275 336 395
#     4  11  24  42  71  98 138 175 223 280 329 394
#     4  12  23  43  72 102 129 181 222 278 331 395
#
# _framework density 27.549479999999999
#
# number of rings (size 3 to 8) (size 9 to 14) (size 15 to 20)
#    0.000    1.200    4.000    1.200    2.800    2.400 
#    7.200    0.000    0.000    0.000    0.000    0.000 
#    0.000    0.000    0.000    0.000    0.000    0.000 
#
# Total GULP energy -111960.206902 kJ/mol
# GULP energy per Si atom -5598.010345 kJ/mol
# Density = 2.748678 g / cm^3
# Si number density = 27.549480 Si / 1000 Ang^3
#
#
#
# Elastic Constant Matrix: (Units=GPa)
#
#
# Indices 1 2 3 4 5 6 
#
# 1 186.0778 40.0069 79.9500 0.0000 22.5652 0.0000
# 2 40.0069 89.2502 11.6393 0.0000 -8.9115 0.0000
# 3 79.9500 11.6393 129.0151 0.0000 32.1088 0.0000
# 4 0.0000 0.0000 0.0000 25.2463 0.0000 1.9653
# 5 22.5652 -8.9115 32.1088 0.0000 95.2234 0.0000
# 6 0.0000 0.0000 0.0000 1.9653 0.0000 51.0934
#
#
#
# Elastic Compliance Matrix: (Units=1/GPa)
#
#
# Indices 1 2 3 4 5 6 
#
# 1 0.008080 -0.003094 -0.004563 0.000000 -0.000666 0.000000
# 2 -0.003094 0.012731 0.000316 0.000000 0.001818 0.000000
# 3 -0.004563 0.000316 0.011215 0.000000 -0.002671 0.000000
# 4 0.000000 0.000000 0.000000 0.039729 0.000000 -0.001528
# 5 -0.000666 0.001818 -0.002671 0.000000 0.011730 0.000000
# 6 0.000000 0.000000 0.000000 -0.001528 0.000000 0.019631
#
#
# Mechanical properties :
#
#
# Convention : Reuss Voigt Hill
#
# Bulk Modulus (GPa) = 57.64934 74.17058 65.90996
# Shear Modulus (GPa) = 40.46027 52.49576 46.47802
#
# Velocity S-wave (km/s) = 3.83644 4.36995 4.11186
# Velocity P-wave (km/s) = 6.37146 7.24176 6.82051
#
# Compressibility (1/GPa) = 0.01734625
#
# Stress axis : x y z
#
# Youngs Moduli (GPa) = 123.75830 78.54560 89.16976
#
# Poissons Ratio (x) = 0.24298 0.40684
# Poissons Ratio (y) = 0.38285 -0.02818
# Poissons Ratio (z) = 0.56465 -0.02482
#
# Static dielectric constant tensor:
#      x y z
#    x 2.159200 0.000000 -0.011330 
#    y 0.000000 2.170640 0.000000 
#    z -0.011330 0.000000 2.215150 
# 
# From -- ./inp_files/188719.got.cif
#   From: 2010.05.17/outbox.cif.g08.bks.cpg/sg15_95_cif.got.tgz:188719.got - 2010.06.03 18:47:42.
