data_PCOD9294584
_publ_section_title
;
Structure prediction by ZEFSAII (Michael W. Deem and Ramdas Pophale) SiO2 
 PCOD9294584
Probable space group: C 2/C
;
_chemical_formula_sum "Si O2"
_cell_formula_units_Z 60
_cell_length_a 25.960803
_cell_length_b 13.632577
_cell_length_c 20.588676
_cell_angle_alpha 90.000000
_cell_angle_beta 19.916184
_cell_angle_gamma 90.000000
_cell_volume 2482.142382
_symmetry_space_group_name_H-M "C 2/C"
_symmetry_group_IT_number 15
_symmetry_cell_setting 'monoclinic'
loop_
_space_group_symop_operation_xyz
x,y,z
-x,y,1/2-z
-x,-y,-z
x,-y,1/2+z
1/2+x,1/2+y,z
1/2-x,1/2+y,1/2-z
1/2-x,1/2-y,-z
1/2+x,1/2-y,1/2+z
loop_
_atom_site_type_symbol
_atom_site_label
_atom_site_fract_x
_atom_site_fract_y
_atom_site_fract_z
Si Si1 0.073514 0.841879 0.930177
Si Si2 0.808086 0.511790 0.107851
Si Si3 0.925996 0.096516 0.922886
Si Si4 0.000000 0.268886 0.750000
Si Si5 0.279277 0.346814 0.198985
Si Si6 0.220242 0.569611 0.996699
Si Si7 0.353598 0.611219 0.468918
Si Si8 0.070872 0.625624 0.731165
O O1 0.160883 0.739845 0.830444
O O2 0.158683 0.920782 0.783856
O O3 0.085779 0.888573 0.986855
O O4 0.905074 0.826963 0.104483
O O5 0.804710 0.446059 0.176836
O O6 0.805555 0.437788 0.050172
O O7 0.944793 0.587150 0.931204
O O8 0.907956 0.199608 0.908127
O O9 0.102800 0.073233 0.700796
O O10 0.828035 0.006225 0.012392
O O11 0.122939 0.339496 0.637578
O O12 0.369194 0.352911 0.024237
O O13 0.149601 0.470354 0.107069
O O14 0.500000 0.617896 0.250000
O O15 0.211191 0.667518 0.605547
O O16 0.000000 0.674551 0.750000
#
# Coordination Sequence:
#
# PCOD9294584 Si02
#       8
#     8   8   8   4   8   8   8   8
#     4  12  28  46  75 105 146 196 242 301 355 429
#     4  11  22  46  74  99 146 193 240 286 363 432
#     4  12  23  40  68 102 145 184 236 283 361 426
#     4  12  22  36  60 112 142 178 228 300 356 430
#     4  12  28  49  72 107 145 192 249 296 362 434
#     4  11  20  40  64 102 141 184 228 286 360 429
#     4  12  25  47  73 105 137 189 242 295 356 433
#     4  10  23  40  72 104 138 181 235 292 359 428
#
# _framework density 24.172666
#
# number of rings (size 3 to 8) (size 9 to 14) (size 15 to 20)
#    0.000    0.533    6.667    2.400    3.733    1.600 
#    0.000    2.667    0.000    0.000    0.000    0.000 
#    0.000    0.000    0.000    0.000    0.000    0.000 
#
# Total GULP energy -167830.170589 kJ/mol
# GULP energy per Si atom -5594.339020 kJ/mol
# Density = 2.411765 g / cm^3
# Si number density = 24.172666 Si / 1000 Ang^3
#
#
#
# Elastic Constant Matrix: (Units=GPa)
#
#
# Indices 1 2 3 4 5 6 
#
# 1 114.0753 4.4445 23.3260 -0.0013 11.2713 0.0008
# 2 4.4445 78.1172 1.4987 -0.0022 -0.8532 0.0015
# 3 23.3260 1.4987 75.8300 -0.0016 9.2826 0.0015
# 4 -0.0013 -0.0022 -0.0016 21.5440 0.0011 -5.3029
# 5 11.2713 -0.8532 9.2826 0.0011 39.0427 -0.0009
# 6 0.0008 0.0015 0.0015 -5.3029 -0.0009 23.0514
#
#
#
# Elastic Compliance Matrix: (Units=1/GPa)
#
#
# Indices 1 2 3 4 5 6 
#
# 1 0.009542 -0.000515 -0.002664 0.000000 -0.002133 0.000000
# 2 -0.000515 0.012839 -0.000152 0.000001 0.000465 -0.000001
# 3 -0.002664 -0.000152 0.014333 0.000001 -0.002642 -0.000001
# 4 0.000000 0.000001 0.000001 0.049203 -0.000001 0.011319
# 5 -0.002133 0.000465 -0.002642 -0.000001 0.026867 0.000001
# 6 0.000000 -0.000001 -0.000001 0.011319 0.000001 0.045985
#
#
# Mechanical properties :
#
#
# Convention : Reuss Voigt Hill
#
# Bulk Modulus (GPa) = 33.27669 36.28454 34.78062
# Shear Modulus (GPa) = 28.49849 32.64450 30.57150
#
# Velocity S-wave (km/s) = 3.43732 3.67886 3.56014
# Velocity P-wave (km/s) = 5.43596 5.75226 5.59635
#
# Compressibility (1/GPa) = 0.03005107
#
# Stress axis : x y z
#
# Youngs Moduli (GPa) = 104.80407 77.89014 69.76777
#
# Poissons Ratio (x) = 0.04012 0.18585
# Poissons Ratio (y) = 0.05398 0.01062
# Poissons Ratio (z) = 0.27918 0.01186
#
# Static dielectric constant tensor:
#      x y z
#    x 2.001040 0.000000 -0.002130 
#    y 0.000000 1.941570 0.000000 
#    z -0.002130 0.000000 1.900640 
# 
# From -- ./inp_files/257864.got.cif
#   From: 2010.05.17/outbox.cif.g08.bks.cpg/sg15_129_cif.got.tgz:257864.got - 2010.06.03 18:47:42.
