data_PCOD9294191
_publ_section_title
;
Structure prediction by ZEFSAII (Michael W. Deem and Ramdas Pophale) SiO2 
 PCOD9294191
Probable space group: C 2/C
;
_chemical_formula_sum "Si O2"
_cell_formula_units_Z 60
_cell_length_a 9.198147
_cell_length_b 20.636049
_cell_length_c 19.786185
_cell_angle_alpha 90.000000
_cell_angle_beta 128.065620
_cell_angle_gamma 90.000000
_cell_volume 2956.868717
_symmetry_space_group_name_H-M "C 2/C"
_symmetry_group_IT_number 15
_symmetry_cell_setting 'monoclinic'
loop_
_space_group_symop_operation_xyz
x,y,z
-x,y,1/2-z
-x,-y,-z
x,-y,1/2+z
1/2+x,1/2+y,z
1/2-x,1/2+y,1/2-z
1/2-x,1/2-y,-z
1/2+x,1/2-y,1/2+z
loop_
_atom_site_type_symbol
_atom_site_label
_atom_site_fract_x
_atom_site_fract_y
_atom_site_fract_z
Si Si1 0.078582 0.645846 0.664727
Si Si2 0.428881 0.068297 0.505056
Si Si3 0.801662 0.721366 0.216631
Si Si4 0.796150 0.785626 0.440746
Si Si5 0.500000 0.047856 0.750000
Si Si6 0.219290 0.005697 0.057539
Si Si7 0.296844 0.342202 0.951333
Si Si8 0.596160 0.170968 0.115474
O O1 0.183813 0.714127 0.697128
O O2 0.075000 0.611593 0.590020
O O3 0.866276 0.664474 0.616640
O O4 0.120867 0.593036 0.733956
O O5 0.372620 0.109671 0.423703
O O6 0.500000 0.000000 0.500000
O O7 0.276768 0.045153 0.515585
O O8 0.729524 0.679806 0.133585
O O9 0.833173 0.672461 0.287823
O O10 0.000000 0.747155 0.250000
O O11 0.750000 0.750000 0.500000
O O12 0.790704 0.727816 0.386719
O O13 0.991338 0.820265 0.479847
O O14 0.644290 0.009383 0.839675
O O15 0.242167 0.081895 0.048311
O O16 0.000000 0.000000 0.000000
O O17 0.123982 0.312291 0.943854
#
# Coordination Sequence:
#
# PCOD9294191 Si02
#       8
#     8   8   8   8   4   8   8   8
#     4  11  22  43  64  94 133 169 221 277 342 399
#     4  11  22  42  65  96 131 178 217 274 334 402
#     4  10  23  39  63  95 130 171 217 280 345 402
#     4  12  22  39  68  96 128 167 223 284 343 400
#     4  10  24  42  68  90 136 178 218 278 334 396
#     4  11  25  42  69  97 131 181 232 269 331 412
#     4  11  22  41  65  94 131 171 224 272 338 412
#     4  11  23  39  66  97 133 169 221 276 345 398
#
# _framework density 20.291734999999999
#
# number of rings (size 3 to 8) (size 9 to 14) (size 15 to 20)
#    0.000    1.067    4.000    2.800    2.800    1.067 
#    2.400    0.000    0.000    1.600    0.000    0.000 
#    0.000    0.000    0.000    0.000    0.000    0.000 
#
# Total GULP energy -167159.004434 kJ/mol
# GULP energy per Si atom -5571.966814 kJ/mol
# Density = 2.024555 g / cm^3
# Si number density = 20.291735 Si / 1000 Ang^3
#
#
#
# Elastic Constant Matrix: (Units=GPa)
#
#
# Indices 1 2 3 4 5 6 
#
# 1 72.0396 16.7937 33.2538 0.0000 -3.0637 0.0000
# 2 16.7937 99.5224 25.9479 0.0000 -4.4168 0.0000
# 3 33.2538 25.9479 62.1128 0.0000 -2.1853 0.0000
# 4 0.0000 0.0000 0.0000 132.9448 0.0000 12.3314
# 5 -3.0637 -4.4168 -2.1853 0.0000 26.3848 0.0000
# 6 0.0000 0.0000 0.0000 12.3314 0.0000 46.5269
#
#
#
# Elastic Compliance Matrix: (Units=1/GPa)
#
#
# Indices 1 2 3 4 5 6 
#
# 1 0.018512 -0.000556 -0.009634 0.000000 0.001259 0.000000
# 2 -0.000556 0.011353 -0.004393 0.000000 0.001472 0.000000
# 3 -0.009634 -0.004393 0.023095 0.000000 0.000059 0.000000
# 4 0.000000 0.000000 0.000000 0.007711 0.000000 -0.002044
# 5 0.001259 0.001472 0.000059 0.000000 0.038298 0.000000
# 6 0.000000 0.000000 0.000000 -0.002044 0.000000 0.022035
#
#
# Mechanical properties :
#
#
# Convention : Reuss Voigt Hill
#
# Bulk Modulus (GPa) = 42.02995 42.85174 42.44084
# Shear Modulus (GPa) = 31.62547 51.68326 41.65436
#
# Velocity S-wave (km/s) = 3.95212 5.05227 4.53567
# Velocity P-wave (km/s) = 6.44852 7.42950 6.95633
#
# Compressibility (1/GPa) = 0.02379256
#
# Stress axis : x y z
#
# Youngs Moduli (GPa) = 54.02036 88.08614 43.29957
#
# Poissons Ratio (x) = 0.04898 0.41715
# Poissons Ratio (y) = 0.03004 0.19022
# Poissons Ratio (z) = 0.52044 0.38697
#
# Static dielectric constant tensor:
#      x y z
#    x 1.841310 0.000000 -0.082750 
#    y 0.000000 1.764630 0.000000 
#    z -0.082750 0.000000 1.822630 
# 
# From -- ./inp_files/192558.got.cif
#   From: 2010.05.17/outbox.cif.g08.bks.cpg/sg15_97_cif.got.tgz:192558.got - 2010.06.03 18:47:42.
