data_PCOD9294323
_publ_section_title
;
Structure prediction by ZEFSAII (Michael W. Deem and Ramdas Pophale) SiO2 
 PCOD9294323
Probable space group: C 2/C
;
_chemical_formula_sum "Si O2"
_cell_formula_units_Z 40
_cell_length_a 7.700641
_cell_length_b 7.225365
_cell_length_c 27.420061
_cell_angle_alpha 90.000000
_cell_angle_beta 91.588139
_cell_angle_gamma 90.000000
_cell_volume 1525.064560
_symmetry_space_group_name_H-M "C 2/C"
_symmetry_group_IT_number 15
_symmetry_cell_setting 'monoclinic'
loop_
_space_group_symop_operation_xyz
x,y,z
-x,y,1/2-z
-x,-y,-z
x,-y,1/2+z
1/2+x,1/2+y,z
1/2-x,1/2+y,1/2-z
1/2-x,1/2-y,-z
1/2+x,1/2-y,1/2+z
loop_
_atom_site_type_symbol
_atom_site_label
_atom_site_fract_x
_atom_site_fract_y
_atom_site_fract_z
Si Si1 0.758257 0.884094 0.599683
Si Si2 0.706183 0.120330 0.812536
Si Si3 0.136883 0.228561 0.215161
Si Si4 0.362114 0.702595 0.428932
Si Si5 0.019527 0.683893 0.469436
O O1 0.728833 0.772957 0.649394
O O2 0.661485 0.765178 0.556969
O O3 0.967017 0.885806 0.594093
O O4 0.672821 0.086291 0.591113
O O5 0.772912 0.913218 0.819724
O O6 0.495869 0.128671 0.810516
O O7 0.753808 0.175687 0.756978
O O8 0.000000 0.124663 0.250000
O O9 0.161801 0.639594 0.428936
O O10 0.410976 0.684017 0.487373
O O11 0.000000 0.500000 0.500000
#
# Coordination Sequence:
#
# PCOD9294323 Si02
#       5
#     8   8   8   8   8
#     4  11  23  39  62  94 122 169 215 269 315 391
#     4   9  21  43  65  96 127 172 217 270 331 397
#     4   8  21  42  62  92 125 168 207 270 333 391
#     4  10  23  40  60  91 132 164 214 264 326 377
#     4   9  21  40  62  90 127 173 209 263 324 385
#
# _framework density 26.228397999999999
#
# number of rings (size 3 to 8) (size 9 to 14) (size 15 to 20)
#    1.200    1.200    0.000    0.600    2.800   13.600 
#    7.200    0.000    0.000    0.000    0.000    0.000 
#    0.000    0.000    0.000    0.000    0.000    0.000 
#
# Total GULP energy -111477.230955 kJ/mol
# GULP energy per Si atom -5573.861548 kJ/mol
# Density = 2.616870 g / cm^3
# Si number density = 26.228398 Si / 1000 Ang^3
#
#
#
# Elastic Constant Matrix: (Units=GPa)
#
#
# Indices 1 2 3 4 5 6 
#
# 1 102.5713 48.1736 38.1201 0.0000 -1.0658 0.0000
# 2 48.1736 63.9925 -1.6543 0.0000 -16.7476 0.0000
# 3 38.1201 -1.6543 67.3063 0.0000 3.8847 0.0000
# 4 0.0000 0.0000 0.0000 25.4020 0.0000 -12.4007
# 5 -1.0658 -16.7476 3.8847 0.0000 41.7815 0.0000
# 6 0.0000 0.0000 0.0000 -12.4007 0.0000 41.1665
#
#
#
# Elastic Compliance Matrix: (Units=1/GPa)
#
#
# Indices 1 2 3 4 5 6 
#
# 1 0.024491 -0.020438 -0.014011 0.000000 -0.006265 0.000000
# 2 -0.020438 0.034515 0.011718 0.000000 0.012224 0.000000
# 3 -0.014011 0.011718 0.022954 0.000000 0.002206 0.000000
# 4 0.000000 0.000000 0.000000 0.046154 0.000000 0.013903
# 5 -0.006265 0.012224 0.002206 0.000000 0.028469 0.000000
# 6 0.000000 0.000000 0.000000 0.013903 0.000000 0.028480
#
#
# Mechanical properties :
#
#
# Convention : Reuss Voigt Hill
#
# Bulk Modulus (GPa) = 27.39984 44.79430 36.09707
# Shear Modulus (GPa) = 20.60242 31.61873 26.11057
#
# Velocity S-wave (km/s) = 2.80572 3.47582 3.15859
# Velocity P-wave (km/s) = 4.57880 5.76403 5.20526
#
# Compressibility (1/GPa) = 0.03649657
#
# Stress axis : x y z
#
# Youngs Moduli (GPa) = 40.83215 28.97303 43.56585
#
# Poissons Ratio (x) = 0.59216 0.61042
# Poissons Ratio (y) = 0.83454 -0.51052
# Poissons Ratio (z) = 0.57211 -0.33952
#
# Static dielectric constant tensor:
#      x y z
#    x 2.179150 0.000000 0.333990 
#    y 0.000000 2.128530 0.000000 
#    z 0.333990 0.000000 3.044850 
# 
# From -- ./inp_files/287027.got.cif
#   From: 2010.05.17/outbox.cif.g08.bks.cpg/sg15_144_cif.got.tgz:287027.got - 2010.06.03 18:47:42.
