data_PCOD9294530
_publ_section_title
;
Structure prediction by ZEFSAII (Michael W. Deem and Ramdas Pophale) SiO2 
 PCOD9294530
Probable space group: C 2/C
;
_chemical_formula_sum "Si O2"
_cell_formula_units_Z 24
_cell_length_a 9.455460
_cell_length_b 25.769545
_cell_length_c 7.982145
_cell_angle_alpha 90.000000
_cell_angle_beta 33.766264
_cell_angle_gamma 90.000000
_cell_volume 1081.016784
_symmetry_space_group_name_H-M "C 2/C"
_symmetry_group_IT_number 15
_symmetry_cell_setting 'monoclinic'
loop_
_space_group_symop_operation_xyz
x,y,z
-x,y,1/2-z
-x,-y,-z
x,-y,1/2+z
1/2+x,1/2+y,z
1/2-x,1/2+y,1/2-z
1/2-x,1/2-y,-z
1/2+x,1/2-y,1/2+z
loop_
_atom_site_type_symbol
_atom_site_label
_atom_site_fract_x
_atom_site_fract_y
_atom_site_fract_z
Si Si1 0.987811 0.621759 0.568862
Si Si2 0.183964 0.269812 0.377283
Si Si3 0.491109 0.560236 0.958985
O O1 0.931981 0.673034 0.515855
O O2 0.743661 0.585537 0.785621
O O3 0.000000 0.638148 0.750000
O O4 0.240683 0.590519 0.268871
O O5 0.250000 0.250000 0.500000
O O6 0.962373 0.233519 0.519718
O O7 0.500000 0.564896 0.750000
O O8 0.500000 0.500000 0.000000
#
# Coordination Sequence:
#
# PCOD9294530 Si02
#       3
#     8   8   8
#     4  12  26  45  73 107 146 189 239 298 365 421
#     4  10  23  40  67  99 144 182 245 282 350 426
#     4  12  27  47  75 104 143 187 242 299 361 433
#
# _framework density 22.201322000000001
#
# number of rings (size 3 to 8) (size 9 to 14) (size 15 to 20)
#    0.000    0.667    0.000    7.000   14.000    1.333 
#    0.000    0.000    0.000    0.000    0.000    0.000 
#    0.000    0.000    0.000    0.000    0.000    0.000 
#
# Total GULP energy -67128.486473 kJ/mol
# GULP energy per Si atom -5594.040539 kJ/mol
# Density = 2.215079 g / cm^3
# Si number density = 22.201322 Si / 1000 Ang^3
#
#
#
# Elastic Constant Matrix: (Units=GPa)
#
#
# Indices 1 2 3 4 5 6 
#
# 1 209.8999 180.9040 58.4120 0.0000 -102.5172 0.0000
# 2 180.9040 339.8169 36.4350 0.0000 -138.2560 0.0000
# 3 58.4120 36.4350 146.5907 0.0000 -22.9269 0.0000
# 4 0.0000 0.0000 0.0000 -6.4398 0.0000 -60.8345
# 5 -102.5172 -138.2560 -22.9269 0.0000 153.1860 0.0000
# 6 0.0000 0.0000 0.0000 -60.8345 0.0000 -34.1535
#
#
#
# Elastic Compliance Matrix: (Units=1/GPa)
#
#
# Indices 1 2 3 4 5 6 
#
# 1 0.010467 -0.004104 -0.002698 0.000000 0.002897 0.000000
# 2 -0.004104 0.006298 0.000542 0.000000 0.003018 0.000000
# 3 -0.002698 0.000542 0.007737 0.000000 -0.000158 0.000000
# 4 0.000000 0.000000 0.000000 0.009812 0.000000 -0.017477
# 5 0.002897 0.003018 -0.000158 0.000000 0.011167 0.000000
# 6 0.000000 0.000000 0.000000 -0.017477 0.000000 0.001850
#
#
# Mechanical properties :
#
#
# Convention : Reuss Voigt Hill
#
# Bulk Modulus (GPa) = 83.45637 138.64552 111.05094
# Shear Modulus (GPa) = 78.31539 50.55564 64.43552
#
# Velocity S-wave (km/s) = 5.94573 4.77712 5.39317
# Velocity P-wave (km/s) = 9.20912 9.64431 9.42922
#
# Compressibility (1/GPa) = 0.01198231
#
# Stress axis : x y z
#
# Youngs Moduli (GPa) = 95.53661 158.79069 129.24640
#
# Poissons Ratio (x) = 0.65175 0.34866
# Poissons Ratio (y) = 0.39213 -0.07009
# Poissons Ratio (z) = 0.25772 -0.08611
#
# Static dielectric constant tensor:
#      x y z
#    x 1.804140 0.000000 0.019820 
#    y 0.000000 1.800670 0.000000 
#    z 0.019820 0.000000 2.000390 
# 
# From -- ./inp_files/1479.got.cif
#   From: 2010.05.17/outbox.cif.g08.bks.cpg/sg15_1_cif.got.tgz:1479.got - 2010.06.03 18:47:42.
