data_PCOD9294539
_publ_section_title
;
Structure prediction by ZEFSAII (Michael W. Deem and Ramdas Pophale) SiO2 
 PCOD9294539
Probable space group: C 2/C
;
_chemical_formula_sum "Si O2"
_cell_formula_units_Z 24
_cell_length_a 8.124995
_cell_length_b 25.703789
_cell_length_c 8.526406
_cell_angle_alpha 90.000000
_cell_angle_beta 144.865882
_cell_angle_gamma 90.000000
_cell_volume 1024.768582
_symmetry_space_group_name_H-M "C 2/C"
_symmetry_group_IT_number 15
_symmetry_cell_setting 'monoclinic'
loop_
_space_group_symop_operation_xyz
x,y,z
-x,y,1/2-z
-x,-y,-z
x,-y,1/2+z
1/2+x,1/2+y,z
1/2-x,1/2+y,1/2-z
1/2-x,1/2-y,-z
1/2+x,1/2-y,1/2+z
loop_
_atom_site_type_symbol
_atom_site_label
_atom_site_fract_x
_atom_site_fract_y
_atom_site_fract_z
Si Si1 0.500000 0.787601 0.250000
Si Si2 0.291896 0.929235 0.786340
Si Si3 0.500000 0.021074 0.750000
Si Si4 0.681459 0.360302 0.248810
O O1 0.750000 0.750000 0.500000
O O2 0.370441 0.822576 0.288703
O O3 0.039618 0.892070 0.532733
O O4 0.302994 0.982841 0.698638
O O5 0.316839 0.944553 0.988278
O O6 0.596766 0.900350 0.999358
O O7 0.500000 0.335383 0.250000
#
# Coordination Sequence:
#
# PCOD9294539 Si02
#       4
#     4   8   4   8
#     4  12  29  50  78 108 134 178 238 306 383 454
#     4  11  24  42  68 107 149 202 242 291 342 408
#     4  10  23  40  68 106 152 202 254 282 327 414
#     4  12  25  48  74 105 148 188 237 298 368 426
#
# _framework density 23.419923000000001
#
# number of rings (size 3 to 8) (size 9 to 14) (size 15 to 20)
#    0.000    0.667    3.333    3.000    0.000   13.333 
#    0.000    0.000    0.000    0.000    0.000    0.000 
#    0.000    0.000    0.000    0.000    0.000    0.000 
#
# Total GULP energy -67258.367540 kJ/mol
# GULP energy per Si atom -5604.863962 kJ/mol
# Density = 2.336662 g / cm^3
# Si number density = 23.419923 Si / 1000 Ang^3
#
#
#
# Elastic Constant Matrix: (Units=GPa)
#
#
# Indices 1 2 3 4 5 6 
#
# 1 197.4888 71.4539 63.2541 0.0000 -9.5737 0.0000
# 2 71.4539 84.6078 59.1693 0.0000 -0.2138 0.0000
# 3 63.2541 59.1693 187.7075 0.0000 8.8479 0.0000
# 4 0.0000 0.0000 0.0000-1656.5176 0.0000 -621.8819
# 5 -9.5737 -0.2138 8.8479 0.0000 46.1643 0.0000
# 6 0.0000 0.0000 0.0000 -621.8819 0.0000 -200.8878
#
#
#
# Elastic Compliance Matrix: (Units=1/GPa)
#
#
# Indices 1 2 3 4 5 6 
#
# 1 0.007482 -0.005768 -0.000782 0.000000 0.001675 0.000000
# 2 -0.005768 0.019653 -0.004238 0.000000 -0.000293 0.000000
# 3 -0.000782 -0.004238 0.006999 0.000000 -0.001523 0.000000
# 4 0.000000 0.000000 0.000000 0.003723 0.000000 -0.011524
# 5 0.001675 -0.000293 -0.001523 0.000000 0.022300 0.000000
# 6 0.000000 0.000000 0.000000 -0.011524 0.000000 0.030697
#
#
# Mechanical properties :
#
#
# Convention : Reuss Voigt Hill
#
# Bulk Modulus (GPa) = 79.62561 95.28430 87.45496
# Shear Modulus (GPa) = 42.87630 -343.85310 -150.48840
#
# Velocity S-wave (km/s) = 4.28338 -12.13011 -8.02472
# Velocity P-wave (km/s) = 7.65089 12.46646 6.95976
#
# Compressibility (1/GPa) = 0.01255877
#
# Stress axis : x y z
#
# Youngs Moduli (GPa) = 133.65227 50.88291 142.88532
#
# Poissons Ratio (x) = 0.29347 0.11177
# Poissons Ratio (y) = 0.77085 0.60550
# Poissons Ratio (z) = 0.10454 0.21562
#
# Static dielectric constant tensor:
#      x y z
#    x 2.046280 0.000000 0.000820 
#    y 0.000000 1.872710 0.000000 
#    z 0.000820 0.000000 1.853090 
# 
# From -- ./inp_files/25242.got.cif
#   From: 2010.05.17/outbox.cif.g08.bks.cpg/sg15_13_cif.got.tgz:25242.got - 2010.06.03 18:47:42.
