data_PCOD9294638
_publ_section_title
;
Structure prediction by ZEFSAII (Michael W. Deem and Ramdas Pophale) SiO2 
 PCOD9294638
Probable space group: C 2/C
;
_chemical_formula_sum "Si O2"
_cell_formula_units_Z 60
_cell_length_a 15.755116
_cell_length_b 12.143216
_cell_length_c 24.973372
_cell_angle_alpha 90.000000
_cell_angle_beta 138.229207
_cell_angle_gamma 90.000000
_cell_volume 3182.776111
_symmetry_space_group_name_H-M "C 2/C"
_symmetry_group_IT_number 15
_symmetry_cell_setting 'monoclinic'
loop_
_space_group_symop_operation_xyz
x,y,z
-x,y,1/2-z
-x,-y,-z
x,-y,1/2+z
1/2+x,1/2+y,z
1/2-x,1/2+y,1/2-z
1/2-x,1/2-y,-z
1/2+x,1/2-y,1/2+z
loop_
_atom_site_type_symbol
_atom_site_label
_atom_site_fract_x
_atom_site_fract_y
_atom_site_fract_z
Si Si1 0.973144 0.408813 0.395772
Si Si2 0.162871 0.365979 0.669178
Si Si3 0.500000 0.358887 0.250000
Si Si4 0.143183 0.273281 0.545210
Si Si5 0.440913 0.540160 0.306171
Si Si6 0.259807 0.245693 0.183364
Si Si7 0.951738 0.080420 0.432013
Si Si8 0.436559 0.226205 0.663664
O O1 0.939812 0.536759 0.374455
O O2 0.846120 0.340504 0.354485
O O3 0.086436 0.383320 0.491112
O O4 0.018406 0.356754 0.361028
O O5 0.134741 0.289506 0.604987
O O6 0.296435 0.430171 0.721521
O O7 0.183905 0.295905 0.733115
O O8 0.499247 0.440388 0.300575
O O9 0.372810 0.287858 0.198902
O O10 0.285797 0.239558 0.597935
O O11 0.053655 0.178695 0.479392
O O12 0.443506 0.521793 0.370803
O O13 0.514390 0.652522 0.328443
O O14 0.182722 0.142086 0.122845
O O15 0.000000 0.000000 0.500000
O O16 0.500000 0.195219 0.750000
#
# Coordination Sequence:
#
# PCOD9294638 Si02
#       8
#     8   8   4   8   8   8   8   8
#     4  11  22  39  60  93 129 159 207 272 313 375
#     4  11  21  41  64  90 123 171 209 253 328 374
#     4  12  22  40  68  90 126 166 220 266 296 378
#     4  11  22  38  65  92 124 158 211 270 313 381
#     4  11  21  39  67  91 117 172 214 252 313 387
#     4  10  23  41  62  92 123 165 222 254 305 384
#     4  10  24  44  64  88 131 170 207 257 334 384
#     4  12  21  39  62  96 120 160 217 264 315 376
#
# _framework density 18.851468000000001
#
# number of rings (size 3 to 8) (size 9 to 14) (size 15 to 20)
#    0.000    1.067    7.333    0.800    1.867    2.133 
#    3.600    0.667    0.000    0.000    0.000    0.000 
#    0.000    0.000    0.000    0.000    0.000    0.000 
#
# Total GULP energy -167516.369457 kJ/mol
# GULP energy per Si atom -5583.878982 kJ/mol
# Density = 1.880856 g / cm^3
# Si number density = 18.851468 Si / 1000 Ang^3
#
#
#
# Elastic Constant Matrix: (Units=GPa)
#
#
# Indices 1 2 3 4 5 6 
#
# 1 99.4810 35.7981 31.3632 0.0000 13.5099 0.0000
# 2 35.7981 45.3019 6.0179 0.0000 2.6496 0.0000
# 3 31.3632 6.0179 79.8995 0.0000 1.0979 0.0000
# 4 0.0000 0.0000 0.0000 10.0974 0.0000 -7.3799
# 5 13.5099 2.6496 1.0979 0.0000 30.4906 0.0000
# 6 0.0000 0.0000 0.0000 -7.3799 0.0000 27.7346
#
#
#
# Elastic Compliance Matrix: (Units=1/GPa)
#
#
# Indices 1 2 3 4 5 6 
#
# 1 0.017202 -0.012462 -0.005727 0.000000 -0.006333 0.000000
# 2 -0.012462 0.031434 0.002487 0.000000 0.002701 0.000000
# 3 -0.005727 0.002487 0.014552 0.000000 0.001797 0.000000
# 4 0.000000 0.000000 0.000000 0.122946 0.000000 0.032715
# 5 -0.006333 0.002701 0.001797 0.000000 0.035304 0.000000
# 6 0.000000 0.000000 0.000000 0.032715 0.000000 0.044761
#
#
# Mechanical properties :
#
#
# Convention : Reuss Voigt Hill
#
# Bulk Modulus (GPa) = 31.46257 41.22675 36.34466
# Shear Modulus (GPa) = 16.22345 23.76473 19.99409
#
# Velocity S-wave (km/s) = 2.93677 3.55439 3.26024
# Velocity P-wave (km/s) = 5.31276 6.22588 5.78736
#
# Compressibility (1/GPa) = 0.03178380
#
# Stress axis : x y z
#
# Youngs Moduli (GPa) = 58.13220 31.81313 68.72080
#
# Poissons Ratio (x) = 0.39646 0.39355
# Poissons Ratio (y) = 0.72446 -0.17092
# Poissons Ratio (z) = 0.33291 -0.07913
#
# Static dielectric constant tensor:
#      x y z
#    x 1.654230 0.000000 0.000000 
#    y 0.000000 1.703990 0.000000 
#    z 0.000000 0.000000 1.667350 
# 
# From -- ./inp_files/298779.got.cif
#   From: 2010.05.17/outbox.cif.g08.bks.cpg/sg15_150_cif.got.tgz:298779.got - 2010.06.03 18:47:42.
