data_PCOD9294015
_publ_section_title
;
Structure prediction by ZEFSAII (Michael W. Deem and Ramdas Pophale) SiO2 
 PCOD9294015
Probable space group: C 2/C
;
_chemical_formula_sum "Si O2"
_cell_formula_units_Z 40
_cell_length_a 9.690444
_cell_length_b 21.451518
_cell_length_c 9.075756
_cell_angle_alpha 90.000000
_cell_angle_beta 102.026798
_cell_angle_gamma 90.000000
_cell_volume 1845.209519
_symmetry_space_group_name_H-M "C 2/C"
_symmetry_group_IT_number 15
_symmetry_cell_setting 'monoclinic'
loop_
_space_group_symop_operation_xyz
x,y,z
-x,y,1/2-z
-x,-y,-z
x,-y,1/2+z
1/2+x,1/2+y,z
1/2-x,1/2+y,1/2-z
1/2-x,1/2-y,-z
1/2+x,1/2-y,1/2+z
loop_
_atom_site_type_symbol
_atom_site_label
_atom_site_fract_x
_atom_site_fract_y
_atom_site_fract_z
Si Si1 0.970193 0.191006 0.978753
Si Si2 0.000000 0.721210 0.750000
Si Si3 0.185688 0.541721 0.547964
Si Si4 0.422977 0.448076 0.577836
Si Si5 0.220727 0.827112 0.340599
Si Si6 0.000000 0.483346 0.750000
O O1 0.873193 0.198903 0.814314
O O2 0.134793 0.198576 0.965061
O O3 0.934459 0.234583 0.108566
O O4 0.938541 0.119964 0.015990
O O5 0.120147 0.685066 0.682810
O O6 0.266967 0.476028 0.553039
O O7 0.282071 0.598387 0.626069
O O8 0.111561 0.555316 0.374120
O O9 0.073249 0.528073 0.648746
O O10 0.500000 0.447090 0.750000
O O11 0.500000 0.500000 0.500000
#
# Coordination Sequence:
#
# PCOD9294015 Si02
#       6
#     8   4   8   8   8   4
#     4  11  24  44  66 101 131 171 231 281 337 396
#     4  12  25  46  66  94 134 185 226 272 336 404
#     4  11  22  40  63  98 132 178 215 267 344 388
#     4  12  22  38  67  99 129 164 214 283 330 389
#     4  11  24  43  69  94 135 175 227 279 333 407
#     4  10  23  38  58  94 144 171 216 260 332 430
#
# _framework density 21.677754
#
# number of rings (size 3 to 8) (size 9 to 14) (size 15 to 20)
#    0.000    0.800    3.000    5.400    0.000    1.600 
#    0.000    4.000    0.000    0.000    0.000    0.000 
#    0.000    0.000    0.000    0.000    0.000    0.000 
#
# Total GULP energy -111542.150377 kJ/mol
# GULP energy per Si atom -5577.107519 kJ/mol
# Density = 2.162841 g / cm^3
# Si number density = 21.677754 Si / 1000 Ang^3
#
#
#
# Elastic Constant Matrix: (Units=GPa)
#
#
# Indices 1 2 3 4 5 6 
#
# 1 103.2575 23.1849 11.4913 0.0000 -12.8324 0.0000
# 2 23.1849 62.5752 1.0514 0.0000 -13.5052 0.0000
# 3 11.4913 1.0514 95.0991 0.0000 -10.3442 0.0000
# 4 0.0000 0.0000 0.0000 25.7068 0.0000 -12.3106
# 5 -12.8324 -13.5052 -10.3442 0.0000 32.7169 0.0000
# 6 0.0000 0.0000 0.0000 -12.3106 0.0000 35.7046
#
#
#
# Elastic Compliance Matrix: (Units=1/GPa)
#
#
# Indices 1 2 3 4 5 6 
#
# 1 0.010889 -0.003474 -0.001003 0.000000 0.002520 0.000000
# 2 -0.003474 0.018687 0.000936 0.000000 0.006647 0.000000
# 3 -0.001003 0.000936 0.011004 0.000000 0.003472 0.000000
# 4 0.000000 0.000000 0.000000 0.046593 0.000000 0.016065
# 5 0.002520 0.006647 0.003472 0.000000 0.035395 0.000000
# 6 0.000000 0.000000 0.000000 0.016065 0.000000 0.033547
#
#
# Mechanical properties :
#
#
# Convention : Reuss Voigt Hill
#
# Bulk Modulus (GPa) = 29.85256 36.93189 33.39222
# Shear Modulus (GPa) = 28.67573 33.83928 31.25751
#
# Velocity S-wave (km/s) = 3.64100 3.95525 3.80138
# Velocity P-wave (km/s) = 5.61042 6.15893 5.89106
#
# Compressibility (1/GPa) = 0.03349797
#
# Stress axis : x y z
#
# Youngs Moduli (GPa) = 91.83271 53.51375 90.87686
#
# Poissons Ratio (x) = 0.18590 0.09118
# Poissons Ratio (y) = 0.31902 -0.08508
# Poissons Ratio (z) = 0.09214 -0.05010
#
# Static dielectric constant tensor:
#      x y z
#    x 2.111590 0.000000 -0.046640 
#    y 0.000000 1.724720 0.000000 
#    z -0.046640 0.000000 1.807360 
# 
# From -- ./inp_files/30535.got.cif
#   From: 2010.05.17/outbox.cif.g08.bks.cpg/sg15_16_cif.got.tgz:30535.got - 2010.06.03 18:47:42.
