data_PCOD9294792
_publ_section_title
;
Structure prediction by ZEFSAII (Michael W. Deem and Ramdas Pophale) SiO2 
 PCOD9294792
Probable space group: C 2/C
;
_chemical_formula_sum "Si O2"
_cell_formula_units_Z 60
_cell_length_a 21.474995
_cell_length_b 23.766518
_cell_length_c 8.281326
_cell_angle_alpha 90.000000
_cell_angle_beta 138.048213
_cell_angle_gamma 90.000000
_cell_volume 2825.551266
_symmetry_space_group_name_H-M "C 2/C"
_symmetry_group_IT_number 15
_symmetry_cell_setting 'monoclinic'
loop_
_space_group_symop_operation_xyz
x,y,z
-x,y,1/2-z
-x,-y,-z
x,-y,1/2+z
1/2+x,1/2+y,z
1/2-x,1/2+y,1/2-z
1/2-x,1/2-y,-z
1/2+x,1/2-y,1/2+z
loop_
_atom_site_type_symbol
_atom_site_label
_atom_site_fract_x
_atom_site_fract_y
_atom_site_fract_z
Si Si1 0.830243 0.929848 0.057600
Si Si2 0.776904 0.223646 0.803826
Si Si3 0.399865 0.729175 0.342922
Si Si4 0.000000 0.134510 0.750000
Si Si5 0.794567 0.335480 0.646918
Si Si6 0.002621 0.342886 0.560313
Si Si7 0.910700 0.544155 0.833442
Si Si8 0.770019 0.479546 0.337068
O O1 0.789996 0.940864 0.159145
O O2 0.932505 0.905761 0.224600
O O3 0.764579 0.879706 0.867563
O O4 0.804146 0.986026 0.911871
O O5 0.679212 0.239783 0.701086
O O6 0.810100 0.280355 0.781928
O O7 0.758903 0.181850 0.620865
O O8 0.849542 0.208118 0.083160
O O9 0.444356 0.677417 0.525617
O O10 0.473298 0.779709 0.453887
O O11 0.893614 0.358468 0.789569
O O12 0.941941 0.392149 0.364627
O O13 0.000000 0.344969 0.750000
O O14 0.832889 0.522119 0.562031
O O15 0.851478 0.547318 0.885446
O O16 0.000000 0.500000 0.000000
#
# Coordination Sequence:
#
# PCOD9294792 Si02
#       8
#     8   8   8   4   8   8   8   8
#     4  11  25  46  73  92 133 181 225 299 350 408
#     4  10  23  41  66  93 139 177 230 269 337 415
#     4  11  23  43  64 101 133 180 230 281 334 417
#     4  12  24  48  74  94 136 178 242 288 352 408
#     4  11  22  42  64  97 136 181 215 276 348 406
#     4  12  22  36  63  96 136 175 216 275 332 399
#     4  11  22  40  68  99 140 179 222 274 335 421
#     4  10  24  45  66 101 133 172 235 281 349 404
#
# _framework density 21.234793
#
# number of rings (size 3 to 8) (size 9 to 14) (size 15 to 20)
#    0.000    1.067    3.333    3.600    3.733    1.067 
#    2.400    0.000    0.000    0.000    0.000    0.000 
#    0.000    0.000    0.000    0.000    0.000    0.000 
#
# Total GULP energy -167524.046921 kJ/mol
# GULP energy per Si atom -5584.134897 kJ/mol
# Density = 2.118646 g / cm^3
# Si number density = 21.234793 Si / 1000 Ang^3
#
#
#
# Elastic Constant Matrix: (Units=GPa)
#
#
# Indices 1 2 3 4 5 6 
#
# 1 79.2367 20.9401 14.4146 0.0000 18.6393 0.0000
# 2 20.9401 72.9300 3.8898 0.0000 9.4921 0.0000
# 3 14.4146 3.8898 51.3871 0.0000 -0.6573 0.0000
# 4 0.0000 0.0000 0.0000 8.9001 0.0000 10.6712
# 5 18.6393 9.4921 -0.6573 0.0000 30.7394 0.0000
# 6 0.0000 0.0000 0.0000 10.6712 0.0000 31.0004
#
#
#
# Elastic Compliance Matrix: (Units=1/GPa)
#
#
# Indices 1 2 3 4 5 6 
#
# 1 0.016434 -0.003303 -0.004476 0.000000 -0.009041 0.000000
# 2 -0.003303 0.015017 -0.000244 0.000000 -0.002639 0.000000
# 3 -0.004476 -0.000244 0.020775 0.000000 0.003233 0.000000
# 4 0.000000 0.000000 0.000000 0.191322 0.000000 -0.065858
# 5 -0.009041 -0.002639 0.003233 0.000000 0.038898 0.000000
# 6 0.000000 0.000000 0.000000 -0.065858 0.000000 0.054928
#
#
# Mechanical properties :
#
#
# Convention : Reuss Voigt Hill
#
# Bulk Modulus (GPa) = 27.63884 31.33809 29.48847
# Shear Modulus (GPa) = 13.68063 25.08193 19.38128
#
# Velocity S-wave (km/s) = 2.54097 3.44055 3.02439
# Velocity P-wave (km/s) = 4.65326 5.52929 5.11008
#
# Compressibility (1/GPa) = 0.03618097
#
# Stress axis : x y z
#
# Youngs Moduli (GPa) = 60.84833 66.59223 48.13387
#
# Poissons Ratio (x) = 0.21998 0.21543
# Poissons Ratio (y) = 0.20100 0.01174
# Poissons Ratio (z) = 0.27233 0.01624
#
# Static dielectric constant tensor:
#      x y z
#    x 1.823370 0.000000 -0.013720 
#    y 0.000000 1.768920 0.000000 
#    z -0.013720 0.000000 1.770540 
# 
# From -- ./inp_files/58798.got.cif
#   From: 2010.05.17/outbox.cif.g08.bks.cpg/sg15_30_cif.got.tgz:58798.got - 2010.06.03 18:47:42.
