data_PCOD9294564
_publ_section_title
;
Structure prediction by ZEFSAII (Michael W. Deem and Ramdas Pophale) SiO2 
 PCOD9294564
Probable space group: C 2/C
;
_chemical_formula_sum "Si O2"
_cell_formula_units_Z 56
_cell_length_a 5.658773
_cell_length_b 28.070594
_cell_length_c 16.468606
_cell_angle_alpha 90.000000
_cell_angle_beta 64.995436
_cell_angle_gamma 90.000000
_cell_volume 2370.774750
_symmetry_space_group_name_H-M "C 2/C"
_symmetry_group_IT_number 15
_symmetry_cell_setting 'monoclinic'
loop_
_space_group_symop_operation_xyz
x,y,z
-x,y,1/2-z
-x,-y,-z
x,-y,1/2+z
1/2+x,1/2+y,z
1/2-x,1/2+y,1/2-z
1/2-x,1/2-y,-z
1/2+x,1/2-y,1/2+z
loop_
_atom_site_type_symbol
_atom_site_label
_atom_site_fract_x
_atom_site_fract_y
_atom_site_fract_z
Si Si1 0.513218 0.697279 0.453865
Si Si2 0.140352 0.883852 0.148898
Si Si3 0.372585 0.113445 0.357842
Si Si4 0.553754 0.279603 0.128729
Si Si5 0.687213 0.988865 0.552229
Si Si6 0.245503 0.197016 0.163730
Si Si7 0.364141 0.917813 0.354242
O O1 0.610326 0.645857 0.404318
O O2 0.462072 0.697964 0.556077
O O3 0.727774 0.739061 0.412844
O O4 0.288828 0.710862 0.424533
O O5 0.146172 0.827034 0.157815
O O6 0.444133 0.897788 0.103327
O O7 0.000000 0.904758 0.250000
O O8 0.938521 0.901986 0.109094
O O9 0.500000 0.104873 0.250000
O O10 0.352371 0.064700 0.410047
O O11 0.563981 0.152830 0.366753
O O12 0.328790 0.245945 0.196773
O O13 0.500000 0.000000 0.500000
O O14 0.610973 0.026071 0.634103
O O15 0.000000 0.000000 0.500000
O O16 0.000000 0.180500 0.250000
O O17 0.500000 0.902356 0.250000
#
# Coordination Sequence:
#
# PCOD9294564 Si02
#       7
#     8   8   8   8   8   8   8
#     4  10  23  43  62  99 138 180 236 281 359 408
#     4  10  23  40  69  99 134 186 231 279 345 416
#     4  11  25  46  71 102 138 186 236 295 358 430
#     4  10  24  38  64  97 142 184 228 295 346 412
#     4  12  29  47  74 108 136 181 233 299 363 422
#     4  11  23  40  70 102 139 189 241 293 348 429
#     4  10  23  46  66  97 137 178 229 283 347 423
#
# _framework density 23.620971999999998
#
# number of rings (size 3 to 8) (size 9 to 14) (size 15 to 20)
#    0.000    1.429    1.429    1.714   10.000    0.571 
#    0.000    2.143    0.000    0.000    0.000    0.000 
#    0.000    0.000    0.000    0.000    0.000    0.000 
#
# Total GULP energy -156037.252921 kJ/mol
# GULP energy per Si atom -5572.759033 kJ/mol
# Density = 2.356721 g / cm^3
# Si number density = 23.620972 Si / 1000 Ang^3
#
#
#
# Elastic Constant Matrix: (Units=GPa)
#
#
# Indices 1 2 3 4 5 6 
#
# 1 133.0071 51.7285 17.9979 0.0000 11.4672 0.0000
# 2 51.7285 186.5175 24.1093 0.0000 8.8534 0.0000
# 3 17.9979 24.1093 62.8637 0.0000 17.9243 0.0000
# 4 0.0000 0.0000 0.0000 64.8364 0.0000 -35.9539
# 5 11.4672 8.8534 17.9243 0.0000 20.3453 0.0000
# 6 0.0000 0.0000 0.0000 -35.9539 0.0000 85.4363
#
#
#
# Elastic Compliance Matrix: (Units=1/GPa)
#
#
# Indices 1 2 3 4 5 6 
#
# 1 0.008750 -0.002175 -0.000714 0.000000 -0.003356 0.000000
# 2 -0.002175 0.006190 -0.001780 0.000000 0.000100 0.000000
# 3 -0.000714 -0.001780 0.021980 0.000000 -0.018188 0.000000
# 4 0.000000 0.000000 0.000000 0.020118 0.000000 0.008466
# 5 -0.003356 0.000100 -0.018188 0.000000 0.067023 0.000000
# 6 0.000000 0.000000 0.000000 0.008466 0.000000 0.015267
#
#
# Mechanical properties :
#
#
# Convention : Reuss Voigt Hill
#
# Bulk Modulus (GPa) = 36.25475 63.33997 49.79736
# Shear Modulus (GPa) = 31.67325 53.36043 42.51684
#
# Velocity S-wave (km/s) = 3.66580 4.75808 4.24720
# Velocity P-wave (km/s) = 5.77055 7.55375 6.72155
#
# Compressibility (1/GPa) = 0.02758259
#
# Stress axis : x y z
#
# Youngs Moduli (GPa) = 114.28120 161.55112 45.49518
#
# Poissons Ratio (x) = 0.35141 0.03248
# Poissons Ratio (y) = 0.24858 0.08097
# Poissons Ratio (z) = 0.08160 0.28754
#
# Static dielectric constant tensor:
#      x y z
#    x 2.031220 0.000000 0.004000 
#    y 0.000000 1.850500 0.000000 
#    z 0.004000 0.000000 1.863160 
# 
# From -- ./inp_files/186115.got.cif
#   From: 2010.05.17/outbox.cif.g08.bks.cpg/sg15_94_cif.got.tgz:186115.got - 2010.06.03 18:47:42.
