data_PCOD9294362
_publ_section_title
;
Structure prediction by ZEFSAII (Michael W. Deem and Ramdas Pophale) SiO2 
 PCOD9294362
Probable space group: C 2/C
;
_chemical_formula_sum "Si O2"
_cell_formula_units_Z 48
_cell_length_a 11.330433
_cell_length_b 11.113787
_cell_length_c 19.791957
_cell_angle_alpha 90.000000
_cell_angle_beta 106.375161
_cell_angle_gamma 90.000000
_cell_volume 2391.186523
_symmetry_space_group_name_H-M "C 2/C"
_symmetry_group_IT_number 15
_symmetry_cell_setting 'monoclinic'
loop_
_space_group_symop_operation_xyz
x,y,z
-x,y,1/2-z
-x,-y,-z
x,-y,1/2+z
1/2+x,1/2+y,z
1/2-x,1/2+y,1/2-z
1/2-x,1/2-y,-z
1/2+x,1/2-y,1/2+z
loop_
_atom_site_type_symbol
_atom_site_label
_atom_site_fract_x
_atom_site_fract_y
_atom_site_fract_z
Si Si1 0.512359 0.867608 0.676345
Si Si2 0.193636 0.216759 0.919195
Si Si3 0.996098 0.012167 0.918909
Si Si4 0.058820 0.797633 0.828949
Si Si5 0.704409 0.339348 0.184126
Si Si6 0.635616 0.098347 0.663921
O O1 0.500000 0.918318 0.750000
O O2 0.381028 0.827261 0.626209
O O3 0.599510 0.750758 0.694707
O O4 0.581486 0.966553 0.642511
O O5 0.093210 0.113916 0.914479
O O6 0.295937 0.162609 0.886429
O O7 0.250000 0.250000 0.000000
O O8 0.863387 0.062009 0.873057
O O9 0.037898 0.893448 0.884979
O O10 0.000000 0.000000 0.000000
O O11 0.194946 0.745761 0.836749
O O12 0.000000 0.850215 0.750000
O O13 0.976946 0.682038 0.832663
O O14 0.770464 0.402838 0.257890
#
# Coordination Sequence:
#
# PCOD9294362 Si02
#       6
#     8   8   8   8   8   8
#     4  11  22  40  66  95 127 170 220 273 331 392
#     4  11  25  43  64  94 133 172 219 275 337 398
#     4  11  25  41  66  93 129 177 214 273 341 391
#     4  10  23  40  62  97 126 166 220 269 327 396
#     4  10  23  40  64  96 127 167 221 273 325 396
#     4  11  23  39  66  95 127 170 218 272 331 394
#
# _framework density 20.073716999999998
#
# number of rings (size 3 to 8) (size 9 to 14) (size 15 to 20)
#    0.000    1.333    1.667    3.500    7.000    5.333 
#    0.000    0.000    0.000    0.000    0.000    0.000 
#    0.000    0.000    0.000    0.000    0.000    0.000 
#
# Total GULP energy -134146.049437 kJ/mol
# GULP energy per Si atom -5589.418727 kJ/mol
# Density = 2.002803 g / cm^3
# Si number density = 20.073717 Si / 1000 Ang^3
#
#
#
# Elastic Constant Matrix: (Units=GPa)
#
#
# Indices 1 2 3 4 5 6 
#
# 1 94.9314 10.7031 37.0944 0.0000 -5.6269 0.0000
# 2 10.7031 57.7547 23.0737 0.0000 4.8040 0.0000
# 3 37.0944 23.0737 106.6310 0.0000 -6.9615 0.0000
# 4 0.0000 0.0000 0.0000 29.8801 0.0000 -3.7913
# 5 -5.6269 4.8040 -6.9615 0.0000 29.9658 0.0000
# 6 0.0000 0.0000 0.0000 -3.7913 0.0000 32.7493
#
#
#
# Elastic Compliance Matrix: (Units=1/GPa)
#
#
# Indices 1 2 3 4 5 6 
#
# 1 0.012276 -0.000803 -0.003999 0.000000 0.001505 0.000000
# 2 -0.000803 0.019503 -0.004219 0.000000 -0.004257 0.000000
# 3 -0.003999 -0.004219 0.011857 0.000000 0.002680 0.000000
# 4 0.000000 0.000000 0.000000 0.033966 0.000000 0.003932
# 5 0.001505 -0.004257 0.002680 0.000000 0.034959 0.000000
# 6 0.000000 0.000000 0.000000 0.003932 0.000000 0.030990
#
#
# Mechanical properties :
#
#
# Convention : Reuss Voigt Hill
#
# Bulk Modulus (GPa) = 39.06909 44.56215 41.81562
# Shear Modulus (GPa) = 29.39035 31.08210 30.23622
#
# Velocity S-wave (km/s) = 3.83053 3.93924 3.88527
# Velocity P-wave (km/s) = 6.25052 6.55268 6.40338
#
# Compressibility (1/GPa) = 0.02559568
#
# Stress axis : x y z
#
# Youngs Moduli (GPa) = 81.45930 51.27411 84.33800
#
# Poissons Ratio (x) = 0.04116 0.33723
# Poissons Ratio (y) = 0.06539 0.35582
# Poissons Ratio (z) = 0.32572 0.21632
#
# Static dielectric constant tensor:
#      x y z
#    x 1.714980 0.000000 0.020800 
#    y 0.000000 1.725250 0.000000 
#    z 0.020800 0.000000 1.641060 
# 
# From -- ./inp_files/196209.got.cif
#   From: 2010.05.17/outbox.cif.g08.bks.cpg/sg15_99_cif.got.tgz:196209.got - 2010.06.03 18:47:42.
