data_PCOD9294361
_publ_section_title
;
Structure prediction by ZEFSAII (Michael W. Deem and Ramdas Pophale) SiO2 
 PCOD9294361
Probable space group: C 2/C
;
_chemical_formula_sum "Si O2"
_cell_formula_units_Z 52
_cell_length_a 15.457375
_cell_length_b 21.181231
_cell_length_c 11.273973
_cell_angle_alpha 90.000000
_cell_angle_beta 42.993521
_cell_angle_gamma 90.000000
_cell_volume 2517.065926
_symmetry_space_group_name_H-M "C 2/C"
_symmetry_group_IT_number 15
_symmetry_cell_setting 'monoclinic'
loop_
_space_group_symop_operation_xyz
x,y,z
-x,y,1/2-z
-x,-y,-z
x,-y,1/2+z
1/2+x,1/2+y,z
1/2-x,1/2+y,1/2-z
1/2-x,1/2-y,-z
1/2+x,1/2-y,1/2+z
loop_
_atom_site_type_symbol
_atom_site_label
_atom_site_fract_x
_atom_site_fract_y
_atom_site_fract_z
Si Si1 0.718547 0.628854 0.943341
Si Si2 0.603539 0.550086 0.855194
Si Si3 0.753338 0.570270 0.168867
Si Si4 0.000023 0.382777 0.120877
Si Si5 0.000000 0.138410 0.750000
Si Si6 0.857689 0.191968 0.096076
Si Si7 0.612102 0.749483 0.962030
O O1 0.628309 0.592375 0.944597
O O2 0.664630 0.699433 0.004301
O O3 0.854312 0.628150 0.740356
O O4 0.729547 0.594722 0.058170
O O5 0.718631 0.502693 0.711666
O O6 0.564643 0.593388 0.783679
O O7 0.500000 0.500000 0.000000
O O8 0.673402 0.621020 0.325270
O O9 0.900832 0.579212 0.057053
O O10 0.000000 0.414552 0.250000
O O11 0.068217 0.314850 0.063651
O O12 0.104011 0.181432 0.579029
O O13 0.732066 0.232721 0.255952
O O14 0.985753 0.221081 0.026568
#
# Coordination Sequence:
#
# PCOD9294361 Si02
#       7
#     8   8   8   8   4   8   8
#     4  11  22  39  67  92 123 161 205 251 318 368
#     4  12  23  41  64  88 119 165 208 259 304 364
#     4  10  23  40  62  96 122 157 207 259 311 360
#     4   9  21  37  61  94 128 155 196 257 311 372
#     4  12  24  42  60  92 126 162 214 250 308 362
#     4  11  24  40  64  93 127 165 204 259 305 372
#     4  11  21  39  63  96 124 163 202 248 318 366
#
# _framework density 20.658975000000002
#
# number of rings (size 3 to 8) (size 9 to 14) (size 15 to 20)
#    0.000    1.231    4.615    0.923    2.154    4.308 
#    0.000    0.000    0.000    0.000    0.000    0.000 
#    0.000    0.000    0.000    0.000    0.000    0.000 
#
# Total GULP energy -145002.159604 kJ/mol
# GULP energy per Si atom -5577.006139 kJ/mol
# Density = 2.061195 g / cm^3
# Si number density = 20.658975 Si / 1000 Ang^3
#
#
#
# Elastic Constant Matrix: (Units=GPa)
#
#
# Indices 1 2 3 4 5 6 
#
# 1 30.1278 -20.1479 3.9045 0.0002 -3.5255 -0.0001
# 2 -20.1479 32.3305 -5.2725 0.0000 -1.1271 0.0000
# 3 3.9045 -5.2725 101.3796 0.0002 -8.3941 -0.0001
# 4 0.0002 0.0000 0.0002 30.0917 -0.0002 -2.2996
# 5 -3.5255 -1.1271 -8.3941 -0.0002 38.9277 0.0001
# 6 -0.0001 0.0000 -0.0001 -2.2996 0.0001 24.8848
#
#
#
# Elastic Compliance Matrix: (Units=1/GPa)
#
#
# Indices 1 2 3 4 5 6 
#
# 1 0.058441 0.036673 0.000186 0.000000 0.006395 0.000000
# 2 0.036673 0.054270 0.001848 0.000000 0.005291 0.000000
# 3 0.000186 0.001848 0.010140 0.000000 0.002257 0.000000
# 4 0.000000 0.000000 0.000000 0.033468 0.000000 0.003093
# 5 0.006395 0.005291 0.002257 0.000000 0.026908 0.000000
# 6 0.000000 0.000000 0.000000 0.003093 0.000000 0.040471
#
#
# Mechanical properties :
#
#
# Convention : Reuss Voigt Hill
#
# Bulk Modulus (GPa) = 4.99339 13.42291 9.20815
# Shear Modulus (GPa) = 23.46988 31.13775 27.30381
#
# Velocity S-wave (km/s) = 3.37421 3.88651 3.63939
# Velocity P-wave (km/s) = 4.19556 5.16251 4.70394
#
# Compressibility (1/GPa) = 0.20026481
#
# Stress axis : x y z
#
# Youngs Moduli (GPa) = 17.11128 18.42627 98.62193
#
# Poissons Ratio (x) = -0.67574 -0.01834
# Poissons Ratio (y) = -0.62752 -0.18227
# Poissons Ratio (z) = -0.00318 -0.03405
#
# Static dielectric constant tensor:
#      x y z
#    x 1.745580 0.000000 -0.049940 
#    y 0.000000 1.763370 0.000000 
#    z -0.049940 0.000000 1.831310 
# 
# From -- ./inp_files/99863.got.cif
#   From: 2010.05.17/outbox.cif.g08.bks.cpg/sg15_50_cif.got.tgz:99863.got - 2010.06.03 18:47:42.
