data_PCOD9294886
_publ_section_title
;
Structure prediction by ZEFSAII (Michael W. Deem and Ramdas Pophale) SiO2 
 PCOD9294886
Probable space group: C 2/C
;
_chemical_formula_sum "Si O2"
_cell_formula_units_Z 48
_cell_length_a 18.229016
_cell_length_b 9.297491
_cell_length_c 15.988035
_cell_angle_alpha 90.000000
_cell_angle_beta 45.524840
_cell_angle_gamma 90.000000
_cell_volume 1933.530748
_symmetry_space_group_name_H-M "C 2/C"
_symmetry_group_IT_number 15
_symmetry_cell_setting 'monoclinic'
loop_
_space_group_symop_operation_xyz
x,y,z
-x,y,1/2-z
-x,-y,-z
x,-y,1/2+z
1/2+x,1/2+y,z
1/2-x,1/2+y,1/2-z
1/2-x,1/2-y,-z
1/2+x,1/2-y,1/2+z
loop_
_atom_site_type_symbol
_atom_site_label
_atom_site_fract_x
_atom_site_fract_y
_atom_site_fract_z
Si Si1 0.435175 0.396652 0.153051
Si Si2 0.851869 0.113283 0.084623
Si Si3 0.268552 0.908377 0.102594
Si Si4 0.714195 0.965916 0.079071
Si Si5 0.414162 0.281352 0.873065
Si Si6 0.577514 0.870184 0.960557
O O1 0.397828 0.532948 0.127440
O O2 0.353659 0.392808 0.292467
O O3 0.417276 0.249975 0.114648
O O4 0.558350 0.405064 0.057669
O O5 0.822649 0.279514 0.109701
O O6 0.748990 0.032722 0.137739
O O7 0.302769 0.914315 0.978585
O O8 0.313062 0.056238 0.105429
O O9 0.812851 0.874219 0.969668
O O10 0.620910 0.856267 0.154040
O O11 0.500000 0.359069 0.750000
O O12 0.450798 0.217067 0.932319
O O13 0.500000 0.000000 0.000000
#
# Coordination Sequence:
#
# PCOD9294886 Si02
#       6
#     8   8   8   8   8   8
#     4  11  24  40  66  94 127 173 208 265 326 376
#     4  11  23  43  61  93 131 162 213 268 316 381
#     4  11  24  40  66  94 126 170 210 265 323 376
#     4  10  23  43  61  95 129 162 219 265 309 390
#     4  10  23  41  68  93 126 175 211 262 322 379
#     4  11  22  45  64  95 134 162 218 263 310 388
#
# _framework density 24.825051999999999
#
# number of rings (size 3 to 8) (size 9 to 14) (size 15 to 20)
#    0.000    1.333    3.333    1.500    2.333    2.667 
#    0.000    0.000    0.000    0.000    0.000    0.000 
#    0.000    0.000    0.000    0.000    0.000    0.000 
#
# Total GULP energy -134274.024221 kJ/mol
# GULP energy per Si atom -5594.751009 kJ/mol
# Density = 2.476855 g / cm^3
# Si number density = 24.825052 Si / 1000 Ang^3
#
#
#
# Elastic Constant Matrix: (Units=GPa)
#
#
# Indices 1 2 3 4 5 6 
#
# 1 62.2860 26.4500 -10.0239 0.0000 -8.0356 0.0000
# 2 26.4500 109.2542 -2.1938 0.0000 -2.0185 0.0000
# 3 -10.0239 -2.1938 79.2537 0.0000 -12.2594 0.0000
# 4 0.0000 0.0000 0.0000 25.5555 0.0000 -7.3140
# 5 -8.0356 -2.0185 -12.2594 0.0000 21.4717 0.0000
# 6 0.0000 0.0000 0.0000 -7.3140 0.0000 49.1843
#
#
#
# Elastic Compliance Matrix: (Units=1/GPa)
#
#
# Indices 1 2 3 4 5 6 
#
# 1 0.019772 -0.004542 0.003788 0.000000 0.009135 0.000000
# 2 -0.004542 0.010225 -0.000445 0.000000 -0.000993 0.000000
# 3 0.003788 -0.000445 0.014585 0.000000 0.009703 0.000000
# 4 0.000000 0.000000 0.000000 0.040870 0.000000 0.006078
# 5 0.009135 -0.000993 0.009703 0.000000 0.055439 0.000000
# 6 0.000000 0.000000 0.000000 0.006078 0.000000 0.021235
#
#
# Mechanical properties :
#
#
# Convention : Reuss Voigt Hill
#
# Bulk Modulus (GPa) = 23.70497 31.02873 27.36685
# Shear Modulus (GPa) = 27.99773 35.01307 31.50540
#
# Velocity S-wave (km/s) = 3.36192 3.75959 3.56630
# Velocity P-wave (km/s) = 4.96382 5.60108 5.29205
#
# Compressibility (1/GPa) = 0.04218524
#
# Stress axis : x y z
#
# Youngs Moduli (GPa) = 50.57690 97.79705 68.56130
#
# Poissons Ratio (x) = 0.44418 -0.25972
# Poissons Ratio (y) = 0.22971 0.03050
# Poissons Ratio (z) = -0.19159 0.04351
#
# Static dielectric constant tensor:
#      x y z
#    x 1.991030 0.000000 0.017820 
#    y 0.000000 1.963520 0.000000 
#    z 0.017820 0.000000 1.999030 
# 
# From -- ./inp_files/251792.got.cif
#   From: 2010.05.17/outbox.cif.g08.bks.cpg/sg15_126_cif.got.tgz:251792.got - 2010.06.03 18:47:42.
