data_PCOD9294125
_publ_section_title
;
Structure prediction by ZEFSAII (Michael W. Deem and Ramdas Pophale) SiO2 
 PCOD9294125
Probable space group: C 2/C
;
_chemical_formula_sum "Si O2"
_cell_formula_units_Z 40
_cell_length_a 14.485136
_cell_length_b 15.877633
_cell_length_c 8.963131
_cell_angle_alpha 90.000000
_cell_angle_beta 88.438954
_cell_angle_gamma 90.000000
_cell_volume 2060.662508
_symmetry_space_group_name_H-M "C 2/C"
_symmetry_group_IT_number 15
_symmetry_cell_setting 'monoclinic'
loop_
_space_group_symop_operation_xyz
x,y,z
-x,y,1/2-z
-x,-y,-z
x,-y,1/2+z
1/2+x,1/2+y,z
1/2-x,1/2+y,1/2-z
1/2-x,1/2-y,-z
1/2+x,1/2-y,1/2+z
loop_
_atom_site_type_symbol
_atom_site_label
_atom_site_fract_x
_atom_site_fract_y
_atom_site_fract_z
Si Si1 0.895969 0.026698 0.047677
Si Si2 0.649876 0.391205 0.648646
Si Si3 0.976617 0.273144 0.411181
Si Si4 0.156764 0.791827 0.071214
Si Si5 0.682158 0.790513 0.878961
O O1 0.889484 0.049826 0.220478
O O2 0.858237 0.109556 0.964010
O O3 0.838755 0.945220 0.000970
O O4 0.000000 0.000000 0.000000
O O5 0.579165 0.313877 0.625532
O O6 0.750107 0.359298 0.694750
O O7 0.907169 0.320149 0.526046
O O8 0.000000 0.313016 0.250000
O O9 0.070216 0.251566 0.492419
O O10 0.154415 0.772294 0.247662
O O11 0.250000 0.750000 0.000000
O O12 0.750000 0.750000 0.000000
#
# Coordination Sequence:
#
# PCOD9294125 Si02
#       5
#     8   8   8   8   8
#     4  12  23  37  64  93 136 169 208 267 337 382
#     4  11  23  41  57  97 136 164 213 273 326 396
#     4  11  20  40  62  90 129 162 216 275 317 390
#     4  12  22  39  64  93 128 177 213 261 330 394
#     4  10  23  39  59  88 129 170 222 266 319 394
#
# _framework density 19.411231000000001
#
# number of rings (size 3 to 8) (size 9 to 14) (size 15 to 20)
#    0.000    0.800    6.000    2.400    5.600    1.600 
#    0.000    0.000    0.000    1.200    0.000    0.000 
#    0.000    0.000    0.000    0.000    0.000    0.000 
#
# Total GULP energy -111603.022819 kJ/mol
# GULP energy per Si atom -5580.151141 kJ/mol
# Density = 1.936705 g / cm^3
# Si number density = 19.411231 Si / 1000 Ang^3
#
#
#
# Elastic Constant Matrix: (Units=GPa)
#
#
# Indices 1 2 3 4 5 6 
#
# 1 130.6708 25.1952 36.7610 0.0000 -13.0178 0.0000
# 2 25.1952 42.8258 12.5123 0.0000 -6.1214 0.0000
# 3 36.7610 12.5123 119.5117 0.0000 -1.2254 0.0000
# 4 0.0000 0.0000 0.0000 36.4067 0.0000 4.2691
# 5 -13.0178 -6.1214 -1.2254 0.0000 40.1114 0.0000
# 6 0.0000 0.0000 0.0000 4.2691 0.0000 30.0646
#
#
#
# Elastic Compliance Matrix: (Units=1/GPa)
#
#
# Indices 1 2 3 4 5 6 
#
# 1 0.009429 -0.004516 -0.002404 0.000000 0.002297 0.000000
# 2 -0.004516 0.026782 -0.001388 0.000000 0.002579 0.000000
# 3 -0.002404 -0.001388 0.009245 0.000000 -0.000710 0.000000
# 4 0.000000 0.000000 0.000000 0.027933 0.000000 -0.003966
# 5 0.002297 0.002579 -0.000710 0.000000 0.026048 0.000000
# 6 0.000000 0.000000 0.000000 -0.003966 0.000000 0.033825
#
#
# Mechanical properties :
#
#
# Convention : Reuss Voigt Hill
#
# Bulk Modulus (GPa) = 34.67605 49.10503 41.89054
# Shear Modulus (GPa) = 31.34979 35.88586 33.61783
#
# Velocity S-wave (km/s) = 4.02311 4.30433 4.16609
# Velocity P-wave (km/s) = 6.28357 7.07497 6.69098
#
# Compressibility (1/GPa) = 0.02883835
#
# Stress axis : x y z
#
# Youngs Moduli (GPa) = 106.05828 37.33892 108.16828
#
# Poissons Ratio (x) = 0.16864 0.26002
# Poissons Ratio (y) = 0.47900 0.15016
# Poissons Ratio (z) = 0.25495 0.05184
#
# Static dielectric constant tensor:
#      x y z
#    x 1.723180 0.000000 -0.019930 
#    y 0.000000 1.742070 0.000000 
#    z -0.019930 0.000000 1.756190 
# 
# From -- ./inp_files/38595.got.cif
#   From: 2010.05.17/outbox.cif.g08.bks.cpg/sg15_20_cif.got.tgz:38595.got - 2010.06.03 18:47:42.
