data_PCOD9294726
_publ_section_title
;
Structure prediction by ZEFSAII (Michael W. Deem and Ramdas Pophale) SiO2 
 PCOD9294726
Probable space group: C 2/C
;
_chemical_formula_sum "Si O2"
_cell_formula_units_Z 56
_cell_length_a 17.436036
_cell_length_b 23.825327
_cell_length_c 13.882809
_cell_angle_alpha 90.000000
_cell_angle_beta 150.022645
_cell_angle_gamma 90.000000
_cell_volume 2881.618904
_symmetry_space_group_name_H-M "C 2/C"
_symmetry_group_IT_number 15
_symmetry_cell_setting 'monoclinic'
loop_
_space_group_symop_operation_xyz
x,y,z
-x,y,1/2-z
-x,-y,-z
x,-y,1/2+z
1/2+x,1/2+y,z
1/2-x,1/2+y,1/2-z
1/2-x,1/2-y,-z
1/2+x,1/2-y,1/2+z
loop_
_atom_site_type_symbol
_atom_site_label
_atom_site_fract_x
_atom_site_fract_y
_atom_site_fract_z
Si Si1 0.679337 0.156327 0.635467
Si Si2 0.933641 0.042609 0.568532
Si Si3 0.173186 0.189949 0.898202
Si Si4 0.332657 0.869390 0.738191
Si Si5 0.584563 0.577535 0.536026
Si Si6 0.548726 0.683762 0.193545
Si Si7 0.217877 0.264898 0.670004
O O1 0.800346 0.169256 0.681074
O O2 0.516725 0.128681 0.433932
O O3 0.760396 0.113831 0.796521
O O4 0.661517 0.219285 0.656522
O O5 0.776857 0.076173 0.368625
O O6 0.000000 0.053763 0.750000
O O7 0.051000 0.059263 0.609908
O O8 0.909487 0.976366 0.525659
O O9 0.000000 0.190247 0.750000
O O10 0.250000 0.250000 0.000000
O O11 0.275324 0.149418 0.072257
O O12 0.298713 0.817405 0.774986
O O13 0.460248 0.622888 0.365903
O O14 0.500000 0.678261 0.250000
O O15 0.714681 0.709568 0.354469
O O16 0.427972 0.726262 0.011792
#
# Coordination Sequence:
#
# PCOD9294726 Si02
#       7
#     8   8   8   8   8   8   8
#     4  11  23  39  59  93 130 167 206 254 321 372
#     4  11  23  42  66  91 119 166 217 262 314 370
#     4  12  24  34  57  93 130 170 207 249 310 382
#     4  12  22  37  61  88 129 165 205 261 310 378
#     4  10  23  41  65  90 122 161 215 264 308 374
#     4  11  22  40  62  89 123 161 209 256 315 374
#     4  11  22  36  58  90 124 161 201 256 311 376
#
# _framework density 19.433520999999999
#
# number of rings (size 3 to 8) (size 9 to 14) (size 15 to 20)
#    0.000    0.857    4.286    4.286    2.000    0.571 
#    0.000    0.000    0.000    0.000    0.000    0.000 
#    0.000    0.000    0.000    0.000    0.000    0.000 
#
# Total GULP energy -156021.679296 kJ/mol
# GULP energy per Si atom -5572.202832 kJ/mol
# Density = 1.938929 g / cm^3
# Si number density = 19.433521 Si / 1000 Ang^3
#
#
#
# Elastic Constant Matrix: (Units=GPa)
#
#
# Indices 1 2 3 4 5 6 
#
# 1 76.0255 29.0365 13.3798 0.0000 -15.9083 0.0000
# 2 29.0365 130.1273 29.0754 0.0000 6.1683 0.0000
# 3 13.3798 29.0754 64.9908 0.0000 11.3651 0.0000
# 4 0.0000 0.0000 0.0000 20.9489 0.0000 -10.6779
# 5 -15.9083 6.1683 11.3651 0.0000 30.8607 0.0000
# 6 0.0000 0.0000 0.0000 -10.6779 0.0000 24.9317
#
#
#
# Elastic Compliance Matrix: (Units=1/GPa)
#
#
# Indices 1 2 3 4 5 6 
#
# 1 0.017567 -0.003561 -0.003988 0.000000 0.011236 0.000000
# 2 -0.003561 0.009263 -0.002957 0.000000 -0.002598 0.000000
# 3 -0.003988 -0.002957 0.019011 0.000000 -0.008466 0.000000
# 4 0.000000 0.000000 0.000000 0.061066 0.000000 0.026154
# 5 0.011236 -0.002598 -0.008466 0.000000 0.041833 0.000000
# 6 0.000000 0.000000 0.000000 0.026154 0.000000 0.051311
#
#
# Mechanical properties :
#
#
# Convention : Reuss Voigt Hill
#
# Bulk Modulus (GPa) = 40.27560 46.01412 43.14486
# Shear Modulus (GPa) = 21.80176 28.65837 25.23007
#
# Velocity S-wave (km/s) = 3.35306 3.84433 3.60707
# Velocity P-wave (km/s) = 5.98000 6.59047 6.29264
#
# Compressibility (1/GPa) = 0.02482893
#
# Stress axis : x y z
#
# Youngs Moduli (GPa) = 56.92604 107.95362 52.60104
#
# Poissons Ratio (x) = 0.38446 0.20978
# Poissons Ratio (y) = 0.20273 0.15552
# Poissons Ratio (z) = 0.22703 0.31917
#
# Static dielectric constant tensor:
#      x y z
#    x 1.753800 0.000000 0.073260 
#    y 0.000000 1.636350 0.000000 
#    z 0.073260 0.000000 1.755800 
# 
# From -- ./inp_files/51473.got.cif
#   From: 2010.05.17/outbox.cif.g08.bks.cpg/sg15_26_cif.got.tgz:51473.got - 2010.06.03 18:47:42.
