data_PCOD9294283
_publ_section_title
;
Structure prediction by ZEFSAII (Michael W. Deem and Ramdas Pophale) SiO2 
 PCOD9294283
Probable space group: C 2/C
;
_chemical_formula_sum "Si O2"
_cell_formula_units_Z 52
_cell_length_a 17.301882
_cell_length_b 9.257287
_cell_length_c 18.267708
_cell_angle_alpha 90.000000
_cell_angle_beta 128.217100
_cell_angle_gamma 90.000000
_cell_volume 2298.807329
_symmetry_space_group_name_H-M "C 2/C"
_symmetry_group_IT_number 15
_symmetry_cell_setting 'monoclinic'
loop_
_space_group_symop_operation_xyz
x,y,z
-x,y,1/2-z
-x,-y,-z
x,-y,1/2+z
1/2+x,1/2+y,z
1/2-x,1/2+y,1/2-z
1/2-x,1/2-y,-z
1/2+x,1/2-y,1/2+z
loop_
_atom_site_type_symbol
_atom_site_label
_atom_site_fract_x
_atom_site_fract_y
_atom_site_fract_z
Si Si1 0.776223 0.261959 0.601280
Si Si2 0.500000 0.682935 0.750000
Si Si3 0.718340 0.971450 0.295743
Si Si4 0.494505 0.501524 0.599757
Si Si5 0.596081 0.294058 0.755613
Si Si6 0.791163 0.539628 0.376875
Si Si7 0.899259 0.806482 0.447492
O O1 0.750000 0.250000 0.500000
O O2 0.749437 0.408803 0.627035
O O3 0.894060 0.258985 0.686823
O O4 0.721682 0.123749 0.604418
O O5 0.492327 0.587025 0.673217
O O6 0.702251 0.037200 0.206979
O O7 0.625997 0.872263 0.263504
O O8 0.806927 0.856049 0.344787
O O9 0.575239 0.376738 0.666152
O O10 0.403919 0.401453 0.523555
O O11 0.512579 0.624916 0.548811
O O12 0.500000 0.303521 0.750000
O O13 0.690641 0.379261 0.842778
O O14 0.883246 0.639007 0.455259
#
# Coordination Sequence:
#
# PCOD9294283 Si02
#       7
#     8   4   8   8   8   8   8
#     4  12  26  43  69 103 143 185 236 304 364 429
#     4  12  22  44  64  94 136 186 220 280 376 428
#     4  11  23  42  68  97 135 191 234 286 361 438
#     4  11  20  41  68  97 132 175 231 289 359 419
#     4  11  22  39  67  97 133 180 232 290 350 426
#     4  11  22  45  69  97 135 190 239 285 365 439
#     4  10  23  39  69  99 126 175 237 291 340 432
#
# _framework density 22.620425000000001
#
# number of rings (size 3 to 8) (size 9 to 14) (size 15 to 20)
#    0.000    0.923    3.846    3.692    1.077    1.231 
#    0.000    4.615    0.000    0.000    0.000    0.000 
#    0.000    0.000    0.000    0.000    0.000    0.000 
#
# Total GULP energy -145009.956318 kJ/mol
# GULP energy per Si atom -5577.306012 kJ/mol
# Density = 2.256894 g / cm^3
# Si number density = 22.620425 Si / 1000 Ang^3
#
#
#
# Elastic Constant Matrix: (Units=GPa)
#
#
# Indices 1 2 3 4 5 6 
#
# 1 40.2989 31.9748 -8.7733 0.0000 -14.9552 0.0000
# 2 31.9748 141.9038 15.3212 0.0000 -9.1709 0.0000
# 3 -8.7733 15.3212 57.7404 0.0000 -20.1866 0.0000
# 4 0.0000 0.0000 0.0000 33.9253 0.0000 4.7207
# 5 -14.9552 -9.1709 -20.1866 0.0000 30.6072 0.0000
# 6 0.0000 0.0000 0.0000 4.7207 0.0000 26.9680
#
#
#
# Elastic Compliance Matrix: (Units=1/GPa)
#
#
# Indices 1 2 3 4 5 6 
#
# 1 0.055569 -0.012709 0.025963 0.000000 0.040468 0.000000
# 2 -0.012709 0.010194 -0.007459 0.000000 -0.008075 0.000000
# 3 0.025963 -0.007459 0.034958 0.000000 0.033507 0.000000
# 4 0.000000 0.000000 0.000000 0.030212 0.000000 -0.005289
# 5 0.040468 -0.008075 0.033507 0.000000 0.072125 0.000000
# 6 0.000000 0.000000 0.000000 -0.005289 0.000000 0.038007
#
#
# Mechanical properties :
#
#
# Convention : Reuss Voigt Hill
#
# Bulk Modulus (GPa) = 8.90385 35.22093 22.06239
# Shear Modulus (GPa) = 18.73286 31.72813 25.23049
#
# Velocity S-wave (km/s) = 2.88086 3.74924 3.34336
# Velocity P-wave (km/s) = 3.87435 5.86059 4.96775
#
# Compressibility (1/GPa) = 0.11231095
#
# Stress axis : x y z
#
# Youngs Moduli (GPa) = 17.99576 98.09487 28.60616
#
# Poissons Ratio (x) = 1.24669 -0.74272
# Poissons Ratio (y) = 0.22871 0.21338
# Poissons Ratio (z) = -0.46723 0.73170
#
# Static dielectric constant tensor:
#      x y z
#    x 1.943700 0.000000 0.021850 
#    y 0.000000 1.952090 0.000000 
#    z 0.021850 0.000000 1.886580 
# 
# From -- ./inp_files/209703.got.cif
#   From: 2010.05.17/outbox.cif.g08.bks.cpg/sg15_105_cif.got.tgz:209703.got - 2010.06.03 18:47:42.
