data_PCOD9294588
_publ_section_title
;
Structure prediction by ZEFSAII (Michael W. Deem and Ramdas Pophale) SiO2 
 PCOD9294588
Probable space group: C 2/C
;
_chemical_formula_sum "Si O2"
_cell_formula_units_Z 56
_cell_length_a 21.592199
_cell_length_b 15.304761
_cell_length_c 8.791162
_cell_angle_alpha 90.000000
_cell_angle_beta 121.068950
_cell_angle_gamma 90.000000
_cell_volume 2488.403751
_symmetry_space_group_name_H-M "C 2/C"
_symmetry_group_IT_number 15
_symmetry_cell_setting 'monoclinic'
loop_
_space_group_symop_operation_xyz
x,y,z
-x,y,1/2-z
-x,-y,-z
x,-y,1/2+z
1/2+x,1/2+y,z
1/2-x,1/2+y,1/2-z
1/2-x,1/2-y,-z
1/2+x,1/2-y,1/2+z
loop_
_atom_site_type_symbol
_atom_site_label
_atom_site_fract_x
_atom_site_fract_y
_atom_site_fract_z
Si Si1 0.296543 0.406438 0.191936
Si Si2 0.096601 0.053546 0.123342
Si Si3 0.000000 0.278470 0.750000
Si Si4 0.000000 0.039585 0.250000
Si Si5 0.726588 0.175447 0.854953
Si Si6 0.342761 0.968860 0.021164
Si Si7 0.441072 0.069334 0.368580
Si Si8 0.345039 0.702447 0.478688
O O1 0.365027 0.468753 0.259348
O O2 0.294873 0.370370 0.361380
O O3 0.226176 0.468442 0.090792
O O4 0.303248 0.330280 0.075458
O O5 0.049576 0.094432 0.198660
O O6 0.155402 0.119512 0.134201
O O7 0.046383 0.020699 0.922486
O O8 0.978286 0.340723 0.864848
O O9 0.928276 0.223516 0.623338
O O10 0.679592 0.104831 0.885782
O O11 0.686061 0.217446 0.657903
O O12 0.750000 0.250000 0.000000
O O13 0.403770 0.029838 0.171857
O O14 0.377392 0.926087 0.914211
O O15 0.500000 0.000000 0.500000
#
# Coordination Sequence:
#
# PCOD9294588 Si02
#       8
#     8   8   4   4   8   8   8   8
#     4  12  26  47  75  99 139 194 236 288 351 434
#     4  11  23  46  71 101 134 191 241 281 341 432
#     4  12  27  46  72 107 144 190 232 298 365 414
#     4  10  23  40  72  97 132 176 250 278 319 408
#     4  12  28  44  67 109 144 176 229 301 365 411
#     4  12  25  47  75 103 136 189 243 289 343 436
#     4  12  24  47  77 100 136 184 245 288 343 429
#     4  12  27  47  69 106 148 182 230 295 368 414
#
# _framework density 22.504386
#
# number of rings (size 3 to 8) (size 9 to 14) (size 15 to 20)
#    0.000    0.286    4.286    4.286    8.000    0.000 
#    2.571    0.000    0.000    0.000    0.000    0.000 
#    0.000    0.000    0.000    0.000    0.000    0.000 
#
# Total GULP energy -156681.043005 kJ/mol
# GULP energy per Si atom -5595.751536 kJ/mol
# Density = 2.245316 g / cm^3
# Si number density = 22.504386 Si / 1000 Ang^3
#
#
#
# Elastic Constant Matrix: (Units=GPa)
#
#
# Indices 1 2 3 4 5 6 
#
# 1 135.3589 32.6015 40.7160 0.0000 -35.5674 0.0000
# 2 32.6015 83.6164 22.7669 0.0000 -6.7573 0.0000
# 3 40.7160 22.7669 79.1554 0.0000 -2.7750 0.0000
# 4 0.0000 0.0000 0.0000 42.3964 0.0000 -3.0882
# 5 -35.5674 -6.7573 -2.7750 0.0000 52.7649 0.0000
# 6 0.0000 0.0000 0.0000 -3.0882 0.0000 30.4985
#
#
#
# Elastic Compliance Matrix: (Units=1/GPa)
#
#
# Indices 1 2 3 4 5 6 
#
# 1 0.011301 -0.002519 -0.004842 0.000000 0.007040 0.000000
# 2 -0.002519 0.013652 -0.002634 0.000000 -0.000088 0.000000
# 3 -0.004842 -0.002634 0.015784 0.000000 -0.002771 0.000000
# 4 0.000000 0.000000 0.000000 0.023762 0.000000 0.002406
# 5 0.007040 -0.000088 -0.002771 0.000000 0.023541 0.000000
# 6 0.000000 0.000000 0.000000 0.002406 0.000000 0.033032
#
#
# Mechanical properties :
#
#
# Convention : Reuss Voigt Hill
#
# Bulk Modulus (GPa) = 48.19806 54.47774 51.33790
# Shear Modulus (GPa) = 33.78924 38.60171 36.19547
#
# Velocity S-wave (km/s) = 3.87906 4.14611 4.01480
# Velocity P-wave (km/s) = 6.44411 6.86880 6.65984
#
# Compressibility (1/GPa) = 0.02074772
#
# Stress axis : x y z
#
# Youngs Moduli (GPa) = 88.48984 73.25198 63.35441
#
# Poissons Ratio (x) = 0.18451 0.30674
# Poissons Ratio (y) = 0.22290 0.16687
# Poissons Ratio (z) = 0.42843 0.19294
#
# Static dielectric constant tensor:
#      x y z
#    x 1.862780 0.000000 -0.000960 
#    y 0.000000 1.822560 0.000000 
#    z -0.000960 0.000000 1.819830 
# 
# From -- ./inp_files/62020.got.cif
#   From: 2010.05.17/outbox.cif.g08.bks.cpg/sg15_32_cif.got.tgz:62020.got - 2010.06.03 18:47:42.
