data_PCOD9294677
_publ_section_title
;
Structure prediction by ZEFSAII (Michael W. Deem and Ramdas Pophale) SiO2 
 PCOD9294677
Probable space group: C 2/C
;
_chemical_formula_sum "Si O2"
_cell_formula_units_Z 36
_cell_length_a 16.325022
_cell_length_b 8.745729
_cell_length_c 14.162823
_cell_angle_alpha 90.000000
_cell_angle_beta 46.110715
_cell_angle_gamma 90.000000
_cell_volume 1457.278491
_symmetry_space_group_name_H-M "C 2/C"
_symmetry_group_IT_number 15
_symmetry_cell_setting 'monoclinic'
loop_
_space_group_symop_operation_xyz
x,y,z
-x,y,1/2-z
-x,-y,-z
x,-y,1/2+z
1/2+x,1/2+y,z
1/2-x,1/2+y,1/2-z
1/2-x,1/2-y,-z
1/2+x,1/2-y,1/2+z
loop_
_atom_site_type_symbol
_atom_site_label
_atom_site_fract_x
_atom_site_fract_y
_atom_site_fract_z
Si Si1 0.324821 0.415896 0.393905
Si Si2 0.862812 0.530956 0.676284
Si Si3 0.500000 0.645746 0.250000
Si Si4 0.092787 0.414051 0.060213
Si Si5 0.190659 0.825301 0.894883
O O1 0.406729 0.535754 0.279006
O O2 0.202156 0.496283 0.510918
O O3 0.297004 0.273786 0.350204
O O4 0.374067 0.363935 0.455999
O O5 0.885537 0.419755 0.569459
O O6 0.864223 0.704517 0.633895
O O7 0.741536 0.479793 0.811999
O O8 0.965915 0.514562 0.667454
O O9 0.574616 0.750999 0.121702
#
# Coordination Sequence:
#
# PCOD9294677 Si02
#       5
#     8   8   4   8   8
#     4  10  24  43  63  97 136 177 219 272 333 401
#     4  10  23  41  69  97 133 173 219 279 333 389
#     4  12  24  38  72  96 128 176 228 266 314 422
#     4  10  23  41  63  97 134 173 217 273 339 382
#     4  10  23  42  69  96 135 171 222 273 336 391
#
# _framework density 24.703581
#
# number of rings (size 3 to 8) (size 9 to 14) (size 15 to 20)
#    0.000    1.778    0.000    2.000    9.333    7.111 
#    0.000    2.222    0.000    0.000    0.000    0.000 
#    0.000    0.000    0.000    0.000    0.000    0.000 
#
# Total GULP energy -100483.798804 kJ/mol
# GULP energy per Si atom -5582.433267 kJ/mol
# Density = 2.464735 g / cm^3
# Si number density = 24.703581 Si / 1000 Ang^3
#
#
#
# Elastic Constant Matrix: (Units=GPa)
#
#
# Indices 1 2 3 4 5 6 
#
# 1 84.1315 36.3278 22.5171 0.0000 -7.7640 0.0000
# 2 36.3278 82.0428 11.8520 0.0000 -4.1235 0.0000
# 3 22.5171 11.8520 14.9310 0.0000 -1.2753 0.0000
# 4 0.0000 0.0000 0.0000 40.8352 0.0000 -6.5674
# 5 -7.7640 -4.1235 -1.2753 0.0000 25.3748 0.0000
# 6 0.0000 0.0000 0.0000 -6.5674 0.0000 36.5818
#
#
#
# Elastic Compliance Matrix: (Units=1/GPa)
#
#
# Indices 1 2 3 4 5 6 
#
# 1 0.022487 -0.005520 -0.029145 0.000000 0.004519 0.000000
# 2 -0.005520 0.015195 -0.003687 0.000000 0.000595 0.000000
# 3 -0.029145 -0.003687 0.113529 0.000000 -0.003811 0.000000
# 4 0.000000 0.000000 0.000000 0.025217 0.000000 0.004527
# 5 0.004519 0.000595 -0.003811 0.000000 0.040697 0.000000
# 6 0.000000 0.000000 0.000000 0.004527 0.000000 0.028149
#
#
# Mechanical properties :
#
#
# Convention : Reuss Voigt Hill
#
# Bulk Modulus (GPa) = 13.42133 35.83325 24.62729
# Shear Modulus (GPa) = 14.41703 27.91890 21.16797
#
# Velocity S-wave (km/s) = 2.41840 3.36543 2.93042
# Velocity P-wave (km/s) = 3.63909 5.44410 4.63040
#
# Compressibility (1/GPa) = 0.07450829
#
# Stress axis : x y z
#
# Youngs Moduli (GPa) = 44.47050 65.80971 8.80834
#
# Poissons Ratio (x) = 0.36324 0.25672
# Poissons Ratio (y) = 0.24546 0.03248
# Poissons Ratio (z) = 1.29608 0.24265
#
# Static dielectric constant tensor:
#      x y z
#    x 2.017490 0.000000 0.018970 
#    y 0.000000 1.960650 0.000000 
#    z 0.018970 0.000000 1.968640 
# 
# From -- ./inp_files/102627.got.cif
#   From: 2010.05.17/outbox.cif.g08.bks.cpg/sg15_52_cif.got.tgz:102627.got - 2010.06.03 18:47:42.
