data_PCOD9294351
_publ_section_title
;
Structure prediction by ZEFSAII (Michael W. Deem and Ramdas Pophale) SiO2 
 PCOD9294351
Probable space group: C 2/C
;
_chemical_formula_sum "Si O2"
_cell_formula_units_Z 48
_cell_length_a 20.239269
_cell_length_b 23.631349
_cell_length_c 9.116694
_cell_angle_alpha 90.000000
_cell_angle_beta 149.882320
_cell_angle_gamma 90.000000
_cell_volume 2187.923088
_symmetry_space_group_name_H-M "C 2/C"
_symmetry_group_IT_number 15
_symmetry_cell_setting 'monoclinic'
loop_
_space_group_symop_operation_xyz
x,y,z
-x,y,1/2-z
-x,-y,-z
x,-y,1/2+z
1/2+x,1/2+y,z
1/2-x,1/2+y,1/2-z
1/2-x,1/2-y,-z
1/2+x,1/2-y,1/2+z
loop_
_atom_site_type_symbol
_atom_site_label
_atom_site_fract_x
_atom_site_fract_y
_atom_site_fract_z
Si Si1 0.723101 0.881305 0.190157
Si Si2 0.671338 0.539876 0.827940
Si Si3 0.500000 0.857383 0.250000
Si Si4 0.396591 0.242610 0.344045
Si Si5 0.000000 0.839692 0.750000
Si Si6 0.000000 0.709786 0.250000
Si Si7 0.500000 0.509254 0.750000
Si Si8 0.892414 0.450435 0.274377
O O1 0.747328 0.907064 0.075480
O O2 0.638653 0.923508 0.127789
O O3 0.866257 0.871954 0.539258
O O4 0.632601 0.826947 0.006218
O O5 0.609790 0.544214 0.871013
O O6 0.560187 0.529738 0.492377
O O7 0.760844 0.484573 0.983275
O O8 0.583162 0.813038 0.512673
O O9 0.429054 0.901075 0.228299
O O10 0.440088 0.298145 0.514006
O O11 0.493408 0.240795 0.390912
O O12 0.250000 0.250000 0.000000
O O13 0.000000 0.500000 0.500000
#
# Coordination Sequence:
#
# PCOD9294351 Si02
#       8
#     8   8   4   8   4   4   4   8
#     4  12  24  43  71 105 142 188 240 299 361 431
#     4  11  23  43  64  97 145 183 237 280 350 428
#     4  11  26  45  71 106 146 187 253 301 372 444
#     4  11  25  49  73 106 142 186 247 318 377 445
#     4  11  27  46  74 105 143 184 250 318 374 434
#     4  12  24  45  77  97 139 186 236 296 380 434
#     4  10  23  40  62  90 134 195 223 285 340 416
#     4  12  25  43  68 109 146 195 237 301 356 446
#
# _framework density 21.938614999999999
#
# number of rings (size 3 to 8) (size 9 to 14) (size 15 to 20)
#    0.000    0.667    5.000    2.500    2.333    2.000 
#    0.000    0.833    0.000    0.000    0.000    0.000 
#    0.000    0.000    0.000    0.000    0.000    0.000 
#
# Total GULP energy -134011.195229 kJ/mol
# GULP energy per Si atom -5583.799801 kJ/mol
# Density = 2.188868 g / cm^3
# Si number density = 21.938615 Si / 1000 Ang^3
#
#
#
# Elastic Constant Matrix: (Units=GPa)
#
#
# Indices 1 2 3 4 5 6 
#
# 1 175.9104 57.8484 34.8874 0.0000 4.9203 0.0000
# 2 57.8484 81.0769 28.6686 0.0000 4.0482 0.0000
# 3 34.8874 28.6686 97.0785 0.0000 -0.8872 0.0000
# 4 0.0000 0.0000 0.0000 31.3942 0.0000 6.2234
# 5 4.9203 4.0482 -0.8872 0.0000 29.9111 0.0000
# 6 0.0000 0.0000 0.0000 6.2234 0.0000 27.9211
#
#
#
# Elastic Compliance Matrix: (Units=1/GPa)
#
#
# Indices 1 2 3 4 5 6 
#
# 1 0.007573 -0.004922 -0.001274 0.000000 -0.000617 0.000000
# 2 -0.004922 0.017090 -0.003293 0.000000 -0.001601 0.000000
# 3 -0.001274 -0.003293 0.011740 0.000000 0.001003 0.000000
# 4 0.000000 0.000000 0.000000 0.033326 0.000000 -0.007428
# 5 -0.000617 -0.001601 0.001003 0.000000 0.033780 0.000000
# 6 0.000000 0.000000 0.000000 -0.007428 0.000000 0.037471
#
#
# Mechanical properties :
#
#
# Convention : Reuss Voigt Hill
#
# Bulk Modulus (GPa) = 57.38405 66.31941 61.85173
# Shear Modulus (GPa) = 30.16283 33.35602 31.75942
#
# Velocity S-wave (km/s) = 3.71195 3.90349 3.80893
# Velocity P-wave (km/s) = 6.67719 7.11418 6.89914
#
# Compressibility (1/GPa) = 0.01742644
#
# Stress axis : x y z
#
# Youngs Moduli (GPa) = 132.04269 58.51264 85.17746
#
# Poissons Ratio (x) = 0.28802 0.10848
# Poissons Ratio (y) = 0.64996 0.28046
# Poissons Ratio (z) = 0.16817 0.19266
#
# Static dielectric constant tensor:
#      x y z
#    x 1.781270 0.000000 0.051730 
#    y 0.000000 1.858880 0.000000 
#    z 0.051730 0.000000 1.861480 
# 
# From -- ./inp_files/59105.got.cif
#   From: 2010.05.17/outbox.cif.g08.bks.cpg/sg15_30_cif.got.tgz:59105.got - 2010.06.03 18:47:42.
