data_PCOD9294752
_publ_section_title
;
Structure prediction by ZEFSAII (Michael W. Deem and Ramdas Pophale) SiO2 
 PCOD9294752
Probable space group: C 2/C
;
_chemical_formula_sum "Si O2"
_cell_formula_units_Z 64
_cell_length_a 10.532951
_cell_length_b 14.415484
_cell_length_c 19.670272
_cell_angle_alpha 90.000000
_cell_angle_beta 90.491611
_cell_angle_gamma 90.000000
_cell_volume 2986.576689
_symmetry_space_group_name_H-M "C 2/C"
_symmetry_group_IT_number 15
_symmetry_cell_setting 'monoclinic'
loop_
_space_group_symop_operation_xyz
x,y,z
-x,y,1/2-z
-x,-y,-z
x,-y,1/2+z
1/2+x,1/2+y,z
1/2-x,1/2+y,1/2-z
1/2-x,1/2-y,-z
1/2+x,1/2-y,1/2+z
loop_
_atom_site_type_symbol
_atom_site_label
_atom_site_fract_x
_atom_site_fract_y
_atom_site_fract_z
Si Si1 0.022495 0.602072 0.823700
Si Si2 0.808094 0.506611 0.899575
Si Si3 0.677553 0.462671 0.541595
Si Si4 0.444599 0.811099 0.883583
Si Si5 0.332622 0.089418 0.175552
Si Si6 0.167596 0.764533 0.876883
Si Si7 0.059503 0.846403 0.009577
Si Si8 0.122558 0.925224 0.788650
O O1 0.090267 0.504526 0.809206
O O2 0.112583 0.663179 0.870882
O O3 0.000000 0.646403 0.750000
O O4 0.893829 0.582693 0.863302
O O5 0.895833 0.413812 0.906313
O O6 0.690607 0.484484 0.848389
O O7 0.758422 0.535042 0.972643
O O8 0.759296 0.427480 0.604710
O O9 0.559064 0.394635 0.528148
O O10 0.625602 0.568180 0.549778
O O11 0.562736 0.830531 0.834877
O O12 0.313423 0.769223 0.854102
O O13 0.479928 0.739182 0.943067
O O14 0.230263 0.099119 0.234221
O O15 0.086363 0.831287 0.827703
O O16 0.153013 0.806223 0.952189
O O17 0.000000 0.965649 0.750000
#
# Coordination Sequence:
#
# PCOD9294752 Si02
#       8
#     8   8   8   8   8   8   8   8
#     4  11  23  42  68  99 132 173 229 277 325 409
#     4  10  23  43  68  96 131 175 222 275 333 399
#     4  11  24  42  66  97 135 176 221 280 336 402
#     4  10  23  41  65  96 130 173 215 280 331 397
#     4  11  25  41  71  98 134 177 225 276 340 401
#     4  11  23  41  68  95 132 177 223 274 339 403
#     4  11  23  42  65  98 135 171 224 278 337 402
#     4  11  22  44  69  93 134 180 220 271 341 402
#
# _framework density 21.429217999999999
#
# number of rings (size 3 to 8) (size 9 to 14) (size 15 to 20)
#    0.000    1.250    3.750    2.250    5.250    1.500 
#    4.500    0.000    0.000    0.000    0.000    0.000 
#    0.000    0.000    0.000    0.000    0.000    0.000 
#
# Total GULP energy -178835.717311 kJ/mol
# GULP energy per Si atom -5588.616166 kJ/mol
# Density = 2.138044 g / cm^3
# Si number density = 21.429218 Si / 1000 Ang^3
#
#
#
# Elastic Constant Matrix: (Units=GPa)
#
#
# Indices 1 2 3 4 5 6 
#
# 1 58.4129 19.9949 4.2806 0.0000 3.0255 0.0000
# 2 19.9949 62.8083 17.8708 0.0000 6.1262 0.0000
# 3 4.2806 17.8708 74.4764 0.0000 0.5573 0.0000
# 4 0.0000 0.0000 0.0000 19.6710 0.0000 6.2096
# 5 3.0255 6.1262 0.5573 0.0000 43.1614 0.0000
# 6 0.0000 0.0000 0.0000 6.2096 0.0000 20.5331
#
#
#
# Elastic Compliance Matrix: (Units=1/GPa)
#
#
# Indices 1 2 3 4 5 6 
#
# 1 0.019233 -0.006185 0.000382 0.000000 -0.000475 0.000000
# 2 -0.006185 0.019324 -0.004264 0.000000 -0.002254 0.000000
# 3 0.000382 -0.004264 0.014425 0.000000 0.000392 0.000000
# 4 0.000000 0.000000 0.000000 0.056202 0.000000 -0.016996
# 5 -0.000475 -0.002254 0.000392 0.000000 0.023517 0.000000
# 6 0.000000 0.000000 0.000000 -0.016996 0.000000 0.053842
#
#
# Mechanical properties :
#
#
# Convention : Reuss Voigt Hill
#
# Bulk Modulus (GPa) = 30.44359 31.11002 30.77681
# Shear Modulus (GPa) = 22.97508 26.90986 24.94247
#
# Velocity S-wave (km/s) = 3.27790 3.54751 3.41537
# Velocity P-wave (km/s) = 5.34449 5.59722 5.47232
#
# Compressibility (1/GPa) = 0.03284764
#
# Stress axis : x y z
#
# Youngs Moduli (GPa) = 51.99298 51.74971 69.32207
#
# Poissons Ratio (x) = 0.32009 -0.02650
# Poissons Ratio (y) = 0.32159 0.29562
# Poissons Ratio (z) = -0.01988 0.22068
#
# Static dielectric constant tensor:
#      x y z
#    x 1.795860 0.000000 0.023870 
#    y 0.000000 1.782480 0.000000 
#    z 0.023870 0.000000 1.773690 
# 
# From -- ./inp_files/198326.got.cif
#   From: 2010.05.17/outbox.cif.g08.bks.cpg/sg15_100_cif.got.tgz:198326.got - 2010.06.03 18:47:42.
