data_PCOD9294560
_publ_section_title
;
Structure prediction by ZEFSAII (Michael W. Deem and Ramdas Pophale) SiO2 
 PCOD9294560
Probable space group: C 2/C
;
_chemical_formula_sum "Si O2"
_cell_formula_units_Z 56
_cell_length_a 16.139151
_cell_length_b 14.319628
_cell_length_c 10.848585
_cell_angle_alpha 90.000000
_cell_angle_beta 71.896375
_cell_angle_gamma 90.000000
_cell_volume 2383.064758
_symmetry_space_group_name_H-M "C 2/C"
_symmetry_group_IT_number 15
_symmetry_cell_setting 'monoclinic'
loop_
_space_group_symop_operation_xyz
x,y,z
-x,y,1/2-z
-x,-y,-z
x,-y,1/2+z
1/2+x,1/2+y,z
1/2-x,1/2+y,1/2-z
1/2-x,1/2-y,-z
1/2+x,1/2-y,1/2+z
loop_
_atom_site_type_symbol
_atom_site_label
_atom_site_fract_x
_atom_site_fract_y
_atom_site_fract_z
Si Si1 0.924470 0.749435 0.028228
Si Si2 0.760682 0.868318 0.147452
Si Si3 0.157065 0.442002 0.966975
Si Si4 0.500000 0.350676 0.750000
Si Si5 0.852640 0.845438 0.472543
Si Si6 0.000000 0.826451 0.250000
Si Si7 0.167281 0.951774 0.766779
Si Si8 0.666559 0.149655 0.929199
O O1 0.826523 0.792920 0.060850
O O2 0.913583 0.638406 0.019699
O O3 0.951827 0.773333 0.157768
O O4 0.980645 0.791441 0.886487
O O5 0.691177 0.827165 0.276970
O O6 0.822585 0.942211 0.190009
O O7 0.703208 0.925151 0.076793
O O8 0.239105 0.430518 0.836826
O O9 0.124919 0.548166 0.964080
O O10 0.585937 0.414957 0.725680
O O11 0.929084 0.886038 0.355615
O O12 0.843584 0.893617 0.604875
O O13 0.761206 0.855736 0.448733
O O14 0.876014 0.736634 0.483084
#
# Coordination Sequence:
#
# PCOD9294560 Si02
#       8
#     8   8   8   4   8   4   8   8
#     4  12  26  44  67  95 143 177 227 271 340 402
#     4  11  22  40  67  99 127 173 218 278 338 396
#     4  11  24  43  67 100 129 175 228 281 329 400
#     4  12  26  43  65 102 140 188 212 281 345 412
#     4  11  22  43  65  95 135 172 222 272 336 400
#     4  12  26  43  69 100 136 188 220 273 347 402
#     4  11  24  41  66  99 136 169 227 274 342 402
#     4  10  23  40  69  96 125 172 225 281 326 392
#
# _framework density 23.499151000000001
#
# number of rings (size 3 to 8) (size 9 to 14) (size 15 to 20)
#    0.000    0.857    5.714    1.286    4.000    1.143 
#    0.000    1.429    0.000    0.000    0.000    0.000 
#    0.000    0.000    0.000    0.000    0.000    0.000 
#
# Total GULP energy -156474.101217 kJ/mol
# GULP energy per Si atom -5588.360758 kJ/mol
# Density = 2.344567 g / cm^3
# Si number density = 23.499151 Si / 1000 Ang^3
#
#
#
# Elastic Constant Matrix: (Units=GPa)
#
#
# Indices 1 2 3 4 5 6 
#
# 1 39.1357 4.7698 26.7029 0.0000 5.0286 0.0000
# 2 4.7698 120.2666 41.2943 0.0000 -7.4242 0.0000
# 3 26.7029 41.2943 108.0664 0.0000 20.0731 0.0000
# 4 0.0000 0.0000 0.0000 10.4963 0.0000 -0.2862
# 5 5.0286 -7.4242 20.0731 0.0000 27.3130 0.0000
# 6 0.0000 0.0000 0.0000 -0.2862 0.0000 15.9010
#
#
#
# Elastic Compliance Matrix: (Units=1/GPa)
#
#
# Indices 1 2 3 4 5 6 
#
# 1 0.031026 0.001764 -0.008533 0.000000 0.001038 0.000000
# 2 0.001764 0.010646 -0.005768 0.000000 0.006808 0.000000
# 3 -0.008533 -0.005768 0.015710 0.000000 -0.011543 0.000000
# 4 0.000000 0.000000 0.000000 0.095318 0.000000 0.001716
# 5 0.001038 0.006808 -0.011543 0.000000 0.046755 0.000000
# 6 0.000000 0.000000 0.000000 0.001716 0.000000 0.062920
#
#
# Mechanical properties :
#
#
# Convention : Reuss Voigt Hill
#
# Bulk Modulus (GPa) = 30.95383 45.88918 38.42151
# Shear Modulus (GPa) = 16.76611 23.72218 20.24415
#
# Velocity S-wave (km/s) = 2.67400 3.18070 2.93829
# Velocity P-wave (km/s) = 4.76808 5.74974 5.28177
#
# Compressibility (1/GPa) = 0.03230617
#
# Stress axis : x y z
#
# Youngs Moduli (GPa) = 32.23090 93.93354 63.65213
#
# Poissons Ratio (x) = -0.16566 0.54316
# Poissons Ratio (y) = -0.05684 0.36717
# Poissons Ratio (z) = 0.27503 0.54185
#
# Static dielectric constant tensor:
#      x y z
#    x 1.894370 0.000000 0.015550 
#    y 0.000000 1.951580 0.000000 
#    z 0.015550 0.000000 1.894270 
# 
# From -- ./inp_files/105320.got.cif
#   From: 2010.05.17/outbox.cif.g08.bks.cpg/sg15_53_cif.got.tgz:105320.got - 2010.06.03 18:47:42.
