data_PCOD9294299
_publ_section_title
;
Structure prediction by ZEFSAII (Michael W. Deem and Ramdas Pophale) SiO2 
 PCOD9294299
Probable space group: C 2/C
;
_chemical_formula_sum "Si O2"
_cell_formula_units_Z 64
_cell_length_a 20.459857
_cell_length_b 14.885812
_cell_length_c 11.503436
_cell_angle_alpha 90.000000
_cell_angle_beta 68.328203
_cell_angle_gamma 90.000000
_cell_volume 3255.857582
_symmetry_space_group_name_H-M "C 2/C"
_symmetry_group_IT_number 15
_symmetry_cell_setting 'monoclinic'
loop_
_space_group_symop_operation_xyz
x,y,z
-x,y,1/2-z
-x,-y,-z
x,-y,1/2+z
1/2+x,1/2+y,z
1/2-x,1/2+y,1/2-z
1/2-x,1/2-y,-z
1/2+x,1/2-y,1/2+z
loop_
_atom_site_type_symbol
_atom_site_label
_atom_site_fract_x
_atom_site_fract_y
_atom_site_fract_z
Si Si1 0.225540 0.536454 0.554102
Si Si2 0.424962 0.990641 0.824294
Si Si3 0.424575 0.302199 0.332566
Si Si4 0.453080 0.157973 0.504639
Si Si5 0.604334 0.153110 0.348459
Si Si6 0.270345 0.353038 0.460025
Si Si7 0.749621 0.313213 0.616035
Si Si8 0.685621 0.157496 0.785135
O O1 0.142036 0.541554 0.581883
O O2 0.248197 0.434040 0.558548
O O3 0.266533 0.587839 0.424372
O O4 0.227168 0.595900 0.667541
O O5 0.500000 0.035485 0.750000
O O6 0.442503 0.916631 0.911236
O O7 0.398052 0.939205 0.724729
O O8 0.500000 0.344625 0.250000
O O9 0.433272 0.249854 0.449370
O O10 0.410187 0.227899 0.241788
O O11 0.353464 0.358778 0.384474
O O12 0.535761 0.155546 0.476228
O O13 0.397480 0.143058 0.643532
O O14 0.675714 0.177174 0.367249
O O15 0.250000 0.250000 0.500000
O O16 0.221253 0.368814 0.381901
O O17 0.750000 0.250000 0.500000
O O18 0.699544 0.260434 0.738131
#
# Coordination Sequence:
#
# PCOD9294299 Si02
#       8
#     8   8   8   8   8   8   8   8
#     4  11  25  36  53  86 121 149 187 236 286 338
#     4   9  18  32  52  85 120 146 181 225 281 355
#     4   9  17  32  58  88 110 139 190 245 286 324
#     4   9  17  33  54  90 113 142 191 224 281 355
#     4   9  17  32  60  79 115 154 179 232 286 335
#     4  12  21  37  62  86 112 149 197 239 281 337
#     4  10  23  40  53  78 117 157 194 230 283 344
#     4  11  22  37  58  84 116 155 189 233 286 340
#
# _framework density 19.656880000000001
#
# number of rings (size 3 to 8) (size 9 to 14) (size 15 to 20)
#    0.000    2.000    3.750    2.250    1.750    1.000 
#    0.000    4.375    0.000    3.750    0.000    0.000 
#    0.000    0.000    0.000    0.000    0.000    0.000 
#
# Total GULP energy -178359.738023 kJ/mol
# GULP energy per Si atom -5573.741813 kJ/mol
# Density = 1.961214 g / cm^3
# Si number density = 19.656880 Si / 1000 Ang^3
#
#
#
# Elastic Constant Matrix: (Units=GPa)
#
#
# Indices 1 2 3 4 5 6 
#
# 1 74.4776 13.1900 20.0604 0.0000 -9.8275 0.0000
# 2 13.1900 67.6230 24.1993 0.0000 -7.9243 0.0000
# 3 20.0604 24.1993 60.8184 0.0000 -20.6538 0.0000
# 4 0.0000 0.0000 0.0000 22.2130 0.0000 -6.8632
# 5 -9.8275 -7.9243 -20.6538 0.0000 31.2141 0.0000
# 6 0.0000 0.0000 0.0000 -6.8632 0.0000 19.0575
#
#
#
# Elastic Compliance Matrix: (Units=1/GPa)
#
#
# Indices 1 2 3 4 5 6 
#
# 1 0.014923 -0.001350 -0.003748 0.000000 0.001876 0.000000
# 2 -0.001350 0.017366 -0.006593 0.000000 -0.000379 0.000000
# 3 -0.003748 -0.006593 0.024936 0.000000 0.013646 0.000000
# 4 0.000000 0.000000 0.000000 0.050655 0.000000 0.018243
# 5 0.001876 -0.000379 0.013646 0.000000 0.041560 0.000000
# 6 0.000000 0.000000 0.000000 0.018243 0.000000 0.059043
#
#
# Mechanical properties :
#
#
# Convention : Reuss Voigt Hill
#
# Bulk Modulus (GPa) = 29.54831 35.31315 32.43073
# Shear Modulus (GPa) = 20.56366 24.19485 22.37926
#
# Velocity S-wave (km/s) = 3.23790 3.51217 3.37782
# Velocity P-wave (km/s) = 5.38919 5.86949 5.63446
#
# Compressibility (1/GPa) = 0.03384288
#
# Stress axis : x y z
#
# Youngs Moduli (GPa) = 67.01090 57.58310 40.10209
#
# Poissons Ratio (x) = 0.07772 0.15031
# Poissons Ratio (y) = 0.09044 0.26441
# Poissons Ratio (z) = 0.25117 0.37967
#
# Static dielectric constant tensor:
#      x y z
#    x 1.725390 0.000000 0.010300 
#    y 0.000000 1.732860 0.000000 
#    z 0.010300 0.000000 1.775010 
# 
# From -- ./inp_files/112728.got.cif
#   From: 2010.05.17/outbox.cif.g08.bks.cpg/sg15_57_cif.got.tgz:112728.got - 2010.06.03 18:47:42.
