data_PCOD9294526
_publ_section_title
;
Structure prediction by ZEFSAII (Michael W. Deem and Ramdas Pophale) SiO2 
 PCOD9294526
Probable space group: C 2/C
;
_chemical_formula_sum "Si O2"
_cell_formula_units_Z 60
_cell_length_a 27.111199
_cell_length_b 17.788329
_cell_length_c 5.438704
_cell_angle_alpha 90.000000
_cell_angle_beta 74.602908
_cell_angle_gamma 90.000000
_cell_volume 2528.747024
_symmetry_space_group_name_H-M "C 2/C"
_symmetry_group_IT_number 15
_symmetry_cell_setting 'monoclinic'
loop_
_space_group_symop_operation_xyz
x,y,z
-x,y,1/2-z
-x,-y,-z
x,-y,1/2+z
1/2+x,1/2+y,z
1/2-x,1/2+y,1/2-z
1/2-x,1/2-y,-z
1/2+x,1/2-y,1/2+z
loop_
_atom_site_type_symbol
_atom_site_label
_atom_site_fract_x
_atom_site_fract_y
_atom_site_fract_z
Si Si1 0.256901 0.184150 0.687816
Si Si2 0.059740 0.528819 0.601896
Si Si3 0.081238 0.693649 0.379996
Si Si4 0.419765 0.681849 0.000152
Si Si5 0.833977 0.748637 0.911713
Si Si6 0.265422 0.479638 0.227797
Si Si7 0.000000 0.201224 0.250000
Si Si8 0.617035 0.469256 0.049022
O O1 0.250000 0.250000 0.500000
O O2 0.312513 0.192098 0.735196
O O3 0.242122 0.100920 0.628769
O O4 0.213961 0.202699 0.945154
O O5 0.081532 0.474663 0.354330
O O6 0.065246 0.608942 0.458103
O O7 0.000000 0.513717 0.750000
O O8 0.138694 0.705974 0.401698
O O9 0.043870 0.744707 0.592240
O O10 0.074642 0.735430 0.128888
O O11 0.374453 0.693166 0.252753
O O12 0.472771 0.659847 0.060394
O O13 0.396647 0.616520 0.859567
O O14 0.243007 0.530236 0.480012
O O15 0.323425 0.506734 0.081380
O O16 0.595565 0.482584 0.803389
#
# Coordination Sequence:
#
# PCOD9294526 Si02
#       8
#     8   8   8   8   8   8   4   8
#     4  11  24  42  69 100 139 181 240 293 352 426
#     4  10  23  41  69 101 140 185 233 284 349 422
#     4  11  23  42  70 102 140 185 236 292 349 424
#     4  11  24  42  71 101 140 189 236 295 352 427
#     4  10  24  39  67  99 136 177 242 286 351 415
#     4  10  23  40  68  97 136 180 230 290 347 418
#     4  10  24  40  68 100 142 176 248 282 356 408
#     4  10  23  40  67  98 135 178 237 289 349 416
#
# _framework density 23.727167000000001
#
# number of rings (size 3 to 8) (size 9 to 14) (size 15 to 20)
#    0.000    1.600    0.667    2.800   18.667    1.067 
#    0.000    2.000    0.000    0.000    0.000    0.000 
#    0.000    0.000    0.000    0.000    0.000    0.000 
#
# Total GULP energy -167068.702560 kJ/mol
# GULP energy per Si atom -5568.956752 kJ/mol
# Density = 2.367316 g / cm^3
# Si number density = 23.727167 Si / 1000 Ang^3
#
#
#
# Elastic Constant Matrix: (Units=GPa)
#
#
# Indices 1 2 3 4 5 6 
#
# 1 77.5377 9.9373 0.2406 0.0000 19.2272 0.0000
# 2 9.9373 82.1001 9.7497 0.0000 -0.4315 0.0000
# 3 0.2406 9.7497 127.1383 0.0000 17.1949 0.0000
# 4 0.0000 0.0000 0.0000 31.0472 0.0000 -7.2251
# 5 19.2272 -0.4315 17.1949 0.0000 22.8344 0.0000
# 6 0.0000 0.0000 0.0000 -7.2251 0.0000 15.7134
#
#
#
# Elastic Compliance Matrix: (Units=1/GPa)
#
#
# Indices 1 2 3 4 5 6 
#
# 1 0.017263 -0.002457 0.002369 0.000000 -0.016366 0.000000
# 2 -0.002457 0.012664 -0.001424 0.000000 0.003380 0.000000
# 3 0.002369 -0.001424 0.009178 0.000000 -0.008933 0.000000
# 4 0.000000 0.000000 0.000000 0.036069 0.000000 0.016585
# 5 -0.016366 0.003380 -0.008933 0.000000 0.064365 0.000000
# 6 0.000000 0.000000 0.000000 0.016585 0.000000 0.071266
#
#
# Mechanical properties :
#
#
# Convention : Reuss Voigt Hill
#
# Bulk Modulus (GPa) = 27.71388 36.29237 32.00313
# Shear Modulus (GPa) = 22.13802 31.70889 26.92346
#
# Velocity S-wave (km/s) = 3.05786 3.65964 3.37220
# Velocity P-wave (km/s) = 4.91660 5.76075 5.35533
#
# Compressibility (1/GPa) = 0.03608300
#
# Stress axis : x y z
#
# Youngs Moduli (GPa) = 57.92790 78.96110 108.95207
#
# Poissons Ratio (x) = 0.19400 -0.25813
# Poissons Ratio (y) = 0.14232 0.15511
# Poissons Ratio (z) = -0.13724 0.11242
#
# Static dielectric constant tensor:
#      x y z
#    x 2.026710 0.000000 0.171540 
#    y 0.000000 2.041140 0.000000 
#    z 0.171540 0.000000 2.168100 
# 
# From -- ./inp_files/18359.got.cif
#   From: 2010.05.17/outbox.cif.g08.bks.cpg/sg15_10_cif.got.tgz:18359.got - 2010.06.03 18:47:42.
