data_PCOD9294059
_publ_section_title
;
Structure prediction by ZEFSAII (Michael W. Deem and Ramdas Pophale) SiO2 
 PCOD9294059
Probable space group: C 2/C
;
_chemical_formula_sum "Si O2"
_cell_formula_units_Z 48
_cell_length_a 23.511564
_cell_length_b 16.463864
_cell_length_c 19.016467
_cell_angle_alpha 90.000000
_cell_angle_beta 160.157356
_cell_angle_gamma 90.000000
_cell_volume 2498.640159
_symmetry_space_group_name_H-M "C 2/C"
_symmetry_group_IT_number 15
_symmetry_cell_setting 'monoclinic'
loop_
_space_group_symop_operation_xyz
x,y,z
-x,y,1/2-z
-x,-y,-z
x,-y,1/2+z
1/2+x,1/2+y,z
1/2-x,1/2+y,1/2-z
1/2-x,1/2-y,-z
1/2+x,1/2-y,1/2+z
loop_
_atom_site_type_symbol
_atom_site_label
_atom_site_fract_x
_atom_site_fract_y
_atom_site_fract_z
Si Si1 0.189121 0.984468 0.450751
Si Si2 0.806844 0.676781 0.018840
Si Si3 0.699257 0.517716 0.311483
Si Si4 0.523308 0.960422 0.603737
Si Si5 0.350151 0.793757 0.406697
Si Si6 0.511920 0.364436 0.026071
O O1 0.202096 0.896210 0.429452
O O2 0.233011 0.036393 0.432474
O O3 0.308299 0.982373 0.657637
O O4 0.000000 0.003254 0.250000
O O5 0.000000 0.651229 0.250000
O O6 0.750000 0.750000 0.000000
O O7 0.799799 0.705562 0.930428
O O8 0.615097 0.593046 0.174882
O O9 0.872356 0.492654 0.476546
O O10 0.579107 0.439073 0.153574
O O11 0.491402 0.863352 0.560529
O O12 0.500000 0.000000 0.500000
O O13 0.418161 0.707946 0.458798
O O14 0.172883 0.827661 0.171346
#
# Coordination Sequence:
#
# PCOD9294059 Si02
#       6
#     8   8   8   8   8   8
#     4  12  25  39  63  94 129 175 217 267 329 391
#     4  12  22  35  54  87 130 167 202 255 323 402
#     4  10  23  44  62  89 136 171 222 259 324 388
#     4  11  25  41  67  94 128 170 221 271 332 394
#     4  11  23  39  60  93 133 165 219 259 331 385
#     4  10  23  38  64  92 128 173 209 266 316 388
#
# _framework density 19.210450000000002
#
# number of rings (size 3 to 8) (size 9 to 14) (size 15 to 20)
#    0.000    1.000    5.000    2.000   11.667    0.000 
#    0.000    0.000    0.000    1.000    0.000    0.000 
#    0.000    0.000    0.000    0.000    0.000    0.000 
#
# Total GULP energy -133850.555310 kJ/mol
# GULP energy per Si atom -5577.106471 kJ/mol
# Density = 1.916673 g / cm^3
# Si number density = 19.210450 Si / 1000 Ang^3
#
#
#
# Elastic Constant Matrix: (Units=GPa)
#
#
# Indices 1 2 3 4 5 6 
#
# 1 119.1609 46.0268 40.0833 0.0019 -18.1687 0.0018
# 2 46.0268 79.1314 39.5777 0.0014 -11.5947 0.0005
# 3 40.0833 39.5777 97.2984 0.0069 -17.0297 0.0040
# 4 0.0019 0.0014 0.0069 24.7673 0.0021 3.8183
# 5 -18.1687 -11.5947 -17.0297 0.0021 31.5235 0.0014
# 6 0.0018 0.0005 0.0040 3.8183 0.0014 27.5264
#
#
#
# Elastic Compliance Matrix: (Units=1/GPa)
#
#
# Indices 1 2 3 4 5 6 
#
# 1 0.011656 -0.005222 -0.002030 0.000000 0.003701 -0.000001
# 2 -0.005222 0.018399 -0.005163 0.000001 0.000968 0.000001
# 3 -0.002030 -0.005163 0.014001 -0.000004 0.004494 -0.000002
# 4 0.000000 0.000001 -0.000004 0.041258 -0.000004 -0.005723
# 5 0.003701 0.000968 0.004494 -0.000004 0.036639 -0.000002
# 6 -0.000001 0.000001 -0.000002 -0.005723 -0.000002 0.037123
#
#
# Mechanical properties :
#
#
# Convention : Reuss Voigt Hill
#
# Bulk Modulus (GPa) = 52.01550 60.77401 56.39476
# Shear Modulus (GPa) = 26.27213 28.09030 27.18121
#
# Velocity S-wave (km/s) = 3.70211 3.82807 3.76562
# Velocity P-wave (km/s) = 6.73867 7.15845 6.95173
#
# Compressibility (1/GPa) = 0.01922504
#
# Stress axis : x y z
#
# Youngs Moduli (GPa) = 85.79079 54.35063 71.42440
#
# Poissons Ratio (x) = 0.28384 0.14499
# Poissons Ratio (y) = 0.44803 0.36878
# Poissons Ratio (z) = 0.17415 0.28063
#
# Static dielectric constant tensor:
#      x y z
#    x 1.658440 -0.000010 -0.048970 
#    y -0.000010 1.713110 0.000000 
#    z -0.048970 0.000000 1.769510 
# 
# From -- ./inp_files/56777.got.cif
#   From: 2010.05.17/outbox.cif.g08.bks.cpg/sg15_29_cif.got.tgz:56777.got - 2010.06.03 18:47:42.
