data_PCOD9294600
_publ_section_title
;
Structure prediction by ZEFSAII (Michael W. Deem and Ramdas Pophale) SiO2 
 PCOD9294600
Probable space group: C 2/C
;
_chemical_formula_sum "Si O2"
_cell_formula_units_Z 32
_cell_length_a 13.259496
_cell_length_b 6.841376
_cell_length_c 17.437309
_cell_angle_alpha 90.000000
_cell_angle_beta 67.873905
_cell_angle_gamma 90.000000
_cell_volume 1465.306293
_symmetry_space_group_name_H-M "C 2/C"
_symmetry_group_IT_number 15
_symmetry_cell_setting 'monoclinic'
loop_
_space_group_symop_operation_xyz
x,y,z
-x,y,1/2-z
-x,-y,-z
x,-y,1/2+z
1/2+x,1/2+y,z
1/2-x,1/2+y,1/2-z
1/2-x,1/2-y,-z
1/2+x,1/2-y,1/2+z
loop_
_atom_site_type_symbol
_atom_site_label
_atom_site_fract_x
_atom_site_fract_y
_atom_site_fract_z
Si Si1 0.802935 0.512959 0.037672
Si Si2 0.558251 0.345641 0.427337
Si Si3 0.909494 0.897262 0.330781
Si Si4 0.256296 0.604142 0.113408
O O1 0.817205 0.957118 0.889597
O O2 0.785851 0.505538 0.951263
O O3 0.892728 0.660997 0.042065
O O4 0.823526 0.291196 0.060684
O O5 0.500000 0.500000 0.500000
O O6 0.475162 0.306636 0.383284
O O7 0.664362 0.461893 0.364829
O O8 0.000000 0.984890 0.250000
O O9 0.841753 0.713786 0.315542
#
# Coordination Sequence:
#
# PCOD9294600 Si02
#       4
#     8   8   8   8
#     4   9  20  41  58  91 123 140 213 254 279 382
#     4  12  21  36  69  86 113 166 199 247 315 348
#     4  10  23  41  56  87 127 155 199 253 302 359
#     4   9  20  40  59  89 118 151 203 250 291 365
#
# _framework density 21.838436999999999
#
# number of rings (size 3 to 8) (size 9 to 14) (size 15 to 20)
#    1.500    0.500    2.500    0.750    0.000    6.000 
#    0.000    1.250    0.000    0.000    0.000    0.000 
#    0.000    0.000    0.000    0.000    0.000    0.000 
#
# Total GULP energy -89124.221096 kJ/mol
# GULP energy per Si atom -5570.263818 kJ/mol
# Density = 2.178873 g / cm^3
# Si number density = 21.838437 Si / 1000 Ang^3
#
#
#
# Elastic Constant Matrix: (Units=GPa)
#
#
# Indices 1 2 3 4 5 6 
#
# 1 100.7589 50.2765 6.8344 0.0000 -13.4176 0.0000
# 2 50.2765 87.8971 4.2060 0.0000 -5.1261 0.0000
# 3 6.8344 4.2060 55.8344 0.0000 -21.1349 0.0000
# 4 0.0000 0.0000 0.0000 8.6255 0.0000 -9.8013
# 5 -13.4176 -5.1261 -21.1349 0.0000 18.2427 0.0000
# 6 0.0000 0.0000 0.0000 -9.8013 0.0000 57.7293
#
#
#
# Elastic Compliance Matrix: (Units=1/GPa)
#
#
# Indices 1 2 3 4 5 6 
#
# 1 0.015639 -0.008335 0.003885 0.000000 0.013661 0.000000
# 2 -0.008335 0.016021 -0.001430 0.000000 -0.003285 0.000000
# 3 0.003885 -0.001430 0.032899 0.000000 0.040571 0.000000
# 4 0.000000 0.000000 0.000000 0.143649 0.000000 0.024389
# 5 0.013661 -0.003285 0.040571 0.000000 0.110944 0.000000
# 6 0.000000 0.000000 0.000000 0.024389 0.000000 0.021463
#
#
# Mechanical properties :
#
#
# Convention : Reuss Voigt Hill
#
# Bulk Modulus (GPa) = 18.93961 40.79159 29.86560
# Shear Modulus (GPa) = 13.51440 29.13107 21.32274
#
# Velocity S-wave (km/s) = 2.49034 3.65627 3.12811
# Velocity P-wave (km/s) = 4.11831 6.04514 5.17225
#
# Compressibility (1/GPa) = 0.05279939
#
# Stress axis : x y z
#
# Youngs Moduli (GPa) = 63.94172 62.41745 30.39560
#
# Poissons Ratio (x) = 0.52023 -0.11808
# Poissons Ratio (y) = 0.53294 0.04347
# Poissons Ratio (z) = -0.24840 0.08927
#
# Static dielectric constant tensor:
#      x y z
#    x 1.827250 0.000000 -0.075040 
#    y 0.000000 1.828290 0.000000 
#    z -0.075040 0.000000 1.856300 
# 
# From -- ./inp_files/241381.got.cif
#   From: 2010.05.17/outbox.cif.g08.bks.cpg/sg15_121_cif.got.tgz:241381.got - 2010.06.03 18:47:42.
