data_PCOD9294369
_publ_section_title
;
Structure prediction by ZEFSAII (Michael W. Deem and Ramdas Pophale) SiO2 
 PCOD9294369
Probable space group: C 2/C
;
_chemical_formula_sum "Si O2"
_cell_formula_units_Z 48
_cell_length_a 15.372862
_cell_length_b 6.666351
_cell_length_c 20.191190
_cell_angle_alpha 90.000000
_cell_angle_beta 66.133528
_cell_angle_gamma 90.000000
_cell_volume 1892.274766
_symmetry_space_group_name_H-M "C 2/C"
_symmetry_group_IT_number 15
_symmetry_cell_setting 'monoclinic'
loop_
_space_group_symop_operation_xyz
x,y,z
-x,y,1/2-z
-x,-y,-z
x,-y,1/2+z
1/2+x,1/2+y,z
1/2-x,1/2+y,1/2-z
1/2-x,1/2-y,-z
1/2+x,1/2-y,1/2+z
loop_
_atom_site_type_symbol
_atom_site_label
_atom_site_fract_x
_atom_site_fract_y
_atom_site_fract_z
Si Si1 0.569042 0.056989 0.869361
Si Si2 0.369186 0.549078 0.224178
Si Si3 0.458404 0.720307 0.007247
Si Si4 0.541065 0.255381 0.151710
Si Si5 0.746982 0.846705 0.574882
Si Si6 0.770718 0.234388 0.648028
O O1 0.515628 0.950847 0.824018
O O2 0.640127 0.889084 0.879381
O O3 0.613178 0.248187 0.820728
O O4 0.497659 0.138511 0.949321
O O5 0.468702 0.428493 0.195767
O O6 0.318936 0.627450 0.306214
O O7 0.297959 0.412319 0.201493
O O8 0.349753 0.726847 0.065654
O O9 0.500000 0.500000 0.000000
O O10 0.455544 0.744602 0.929688
O O11 0.650506 0.232858 0.139039
O O12 0.750000 0.750000 0.500000
O O13 0.753299 0.086673 0.590526
#
# Coordination Sequence:
#
# PCOD9294369 Si02
#       6
#     8   8   8   8   8   8
#     4  11  21  39  69 100 132 183 244 291 349 428
#     4  11  21  40  73  96 135 184 247 304 350 436
#     4  11  19  40  70  99 137 184 234 293 346 425
#     4  10  23  40  63 101 142 180 229 291 375 435
#     4  10  23  44  68 100 149 187 227 304 376 437
#     4  11  22  42  73 101 130 189 253 301 360 432
#
# _framework density 25.366295000000001
#
# number of rings (size 3 to 8) (size 9 to 14) (size 15 to 20)
#    0.000    1.333    5.000    1.500    0.000    0.000 
#    3.000    3.333    3.667    0.000    0.000    0.000 
#    0.000    0.000    0.000    0.000    0.000    0.000 
#
# Total GULP energy -133756.792089 kJ/mol
# GULP energy per Si atom -5573.199670 kJ/mol
# Density = 2.530856 g / cm^3
# Si number density = 25.366295 Si / 1000 Ang^3
#
#
#
# Elastic Constant Matrix: (Units=GPa)
#
#
# Indices 1 2 3 4 5 6 
#
# 1 108.4451 48.6901 42.5035 -0.0002 -24.2216 -0.0001
# 2 48.6901 166.3759 50.1948 -0.0005 6.0386 -0.0002
# 3 42.5035 50.1948 97.8223 0.0001 -8.8086 0.0001
# 4 -0.0002 -0.0005 0.0001 -140.7000 -0.0001 -152.8637
# 5 -24.2216 6.0386 -8.8086 -0.0001 44.4398 -0.0001
# 6 -0.0001 -0.0002 0.0001 -152.8637 -0.0001 -85.1657
#
#
#
# Elastic Compliance Matrix: (Units=1/GPa)
#
#
# Indices 1 2 3 4 5 6 
#
# 1 0.013677 -0.003151 -0.003681 0.000000 0.007153 0.000000
# 2 -0.003151 0.007969 -0.003026 0.000000 -0.003400 0.000000
# 3 -0.003681 -0.003026 0.013472 0.000000 0.001075 0.000000
# 4 0.000000 0.000000 0.000000 0.007481 0.000000 -0.013427
# 5 0.007153 -0.003400 0.001075 0.000000 0.027076 0.000000
# 6 0.000000 0.000000 0.000000 -0.013427 0.000000 0.012359
#
#
# Mechanical properties :
#
#
# Convention : Reuss Voigt Hill
#
# Bulk Modulus (GPa) = 64.93559 72.82445 68.88002
# Shear Modulus (GPa) = 46.77957 -20.86819 12.95569
#
# Velocity S-wave (km/s) = 4.29903 -2.87134 2.26242
# Velocity P-wave (km/s) = 7.09203 4.21648 5.83419
#
# Compressibility (1/GPa) = 0.01539988
#
# Stress axis : x y z
#
# Youngs Moduli (GPa) = 73.11712 125.48431 74.22996
#
# Poissons Ratio (x) = 0.39546 0.27326
# Poissons Ratio (y) = 0.23043 0.22462
# Poissons Ratio (z) = 0.26917 0.37972
#
# Static dielectric constant tensor:
#      x y z
#    x 2.498510 0.000000 -0.179190 
#    y 0.000000 2.204700 0.000000 
#    z -0.179190 0.000000 2.251650 
# 
# From -- ./inp_files/297420.got.cif
#   From: 2010.05.17/outbox.cif.g08.bks.cpg/sg15_149_cif.got.tgz:297420.got - 2010.06.03 18:47:42.
