data_PCOD9294666
_publ_section_title
;
Structure prediction by ZEFSAII (Michael W. Deem and Ramdas Pophale) SiO2 
 PCOD9294666
Probable space group: C 2/C
;
_chemical_formula_sum "Si O2"
_cell_formula_units_Z 64
_cell_length_a 15.809408
_cell_length_b 16.888816
_cell_length_c 19.340834
_cell_angle_alpha 90.000000
_cell_angle_beta 139.979913
_cell_angle_gamma 90.000000
_cell_volume 3320.770742
_symmetry_space_group_name_H-M "C 2/C"
_symmetry_group_IT_number 15
_symmetry_cell_setting 'monoclinic'
loop_
_space_group_symop_operation_xyz
x,y,z
-x,y,1/2-z
-x,-y,-z
x,-y,1/2+z
1/2+x,1/2+y,z
1/2-x,1/2+y,1/2-z
1/2-x,1/2-y,-z
1/2+x,1/2-y,1/2+z
loop_
_atom_site_type_symbol
_atom_site_label
_atom_site_fract_x
_atom_site_fract_y
_atom_site_fract_z
Si Si1 0.628722 0.720857 0.105983
Si Si2 0.086631 0.932099 0.666890
Si Si3 0.186123 0.023411 0.987376
Si Si4 0.686160 0.991876 0.783588
Si Si5 0.426212 0.101677 0.891854
Si Si6 0.616446 0.292251 0.444674
Si Si7 0.702231 0.029255 0.089029
Si Si8 0.576780 0.834557 0.731662
O O1 0.580090 0.655084 0.129215
O O2 0.617770 0.808390 0.128235
O O3 0.775176 0.696159 0.173672
O O4 0.564359 0.719085 0.990512
O O5 0.173469 0.982685 0.666625
O O6 0.173536 0.935156 0.791307
O O7 0.944268 0.970272 0.586053
O O8 0.140013 0.114633 0.950721
O O9 0.257774 0.998748 0.962020
O O10 0.278389 0.014128 0.113200
O O11 0.598305 0.916132 0.702707
O O12 0.612294 0.067644 0.707591
O O13 0.348900 0.045853 0.898257
O O14 0.579859 0.089080 0.004705
O O15 0.750000 0.250000 0.500000
O O16 0.505386 0.243226 0.336375
O O17 0.500000 0.865808 0.750000
#
# Coordination Sequence:
#
# PCOD9294666 Si02
#       8
#     8   8   8   8   8   8   8   8
#     4  11  24  41  62  93 128 174 211 266 327 384
#     4  10  23  44  62  94 128 174 215 268 322 384
#     4  12  23  42  70  95 129 171 222 268 325 392
#     4  10  23  41  63  92 131 171 212 260 324 389
#     4  10  24  41  65  92 128 172 217 260 335 396
#     4  12  24  37  63 101 135 160 208 263 340 397
#     4  10  24  42  66  94 128 169 218 276 324 386
#     4  11  23  37  60  94 135 161 198 269 324 391
#
# _framework density 19.272635000000001
#
# number of rings (size 3 to 8) (size 9 to 14) (size 15 to 20)
#    0.000    1.250    3.750    1.500   14.000    0.000 
#    0.000    0.625    2.750    0.000    0.000    0.000 
#    0.000    0.000    0.000    0.000    0.000    0.000 
#
# Total GULP energy -178402.320263 kJ/mol
# GULP energy per Si atom -5575.072508 kJ/mol
# Density = 1.922877 g / cm^3
# Si number density = 19.272635 Si / 1000 Ang^3
#
#
#
# Elastic Constant Matrix: (Units=GPa)
#
#
# Indices 1 2 3 4 5 6 
#
# 1 80.0609 40.0785 40.7730 0.0000 -9.6993 0.0000
# 2 40.0785 104.6243 30.9771 0.0000 10.2615 0.0000
# 3 40.7730 30.9771 78.5533 -0.0001 -8.5221 0.0000
# 4 0.0000 0.0000 -0.0001 16.1417 -0.0001 7.3828
# 5 -9.6993 10.2615 -8.5221 -0.0001 28.2494 0.0000
# 6 0.0000 0.0000 0.0000 7.3828 0.0000 50.2826
#
#
#
# Elastic Compliance Matrix: (Units=1/GPa)
#
#
# Indices 1 2 3 4 5 6 
#
# 1 0.020163 -0.006271 -0.007231 0.000000 0.007019 0.000000
# 2 -0.006271 0.013630 -0.002989 0.000000 -0.008006 0.000000
# 3 -0.007231 -0.002989 0.018103 0.000000 0.004064 0.000000
# 4 0.000000 0.000000 0.000000 0.066411 0.000000 -0.009751
# 5 0.007019 -0.008006 0.004064 0.000000 0.041943 0.000000
# 6 0.000000 0.000000 0.000000 -0.009751 0.000000 0.021319
#
#
# Mechanical properties :
#
#
# Convention : Reuss Voigt Hill
#
# Bulk Modulus (GPa) = 52.86929 54.09951 53.48440
# Shear Modulus (GPa) = 22.63915 29.02871 25.83393
#
# Velocity S-wave (km/s) = 3.43108 3.88521 3.66518
# Velocity P-wave (km/s) = 6.57178 6.94680 6.76189
#
# Compressibility (1/GPa) = 0.01891457
#
# Stress axis : x y z
#
# Youngs Moduli (GPa) = 49.59611 73.36519 55.24005
#
# Poissons Ratio (x) = 0.46010 0.39944
# Poissons Ratio (y) = 0.31103 0.16508
# Poissons Ratio (z) = 0.35863 0.21925
#
# Static dielectric constant tensor:
#      x y z
#    x 1.656610 0.000000 -0.040490 
#    y 0.000000 1.649020 0.000000 
#    z -0.040490 0.000000 1.736970 
# 
# From -- ./inp_files/206488.got.cif
#   From: 2010.05.17/outbox.cif.g08.bks.cpg/sg15_104_cif.got.tgz:206488.got - 2010.06.03 18:47:42.
