data_PCOD9294439
_publ_section_title
;
Structure prediction by ZEFSAII (Michael W. Deem and Ramdas Pophale) SiO2 
 PCOD9294439
Probable space group: C 2/C
;
_chemical_formula_sum "Si O2"
_cell_formula_units_Z 48
_cell_length_a 14.250834
_cell_length_b 13.422256
_cell_length_c 12.009820
_cell_angle_alpha 90.000000
_cell_angle_beta 113.467620
_cell_angle_gamma 90.000000
_cell_volume 2107.204668
_symmetry_space_group_name_H-M "C 2/C"
_symmetry_group_IT_number 15
_symmetry_cell_setting 'monoclinic'
loop_
_space_group_symop_operation_xyz
x,y,z
-x,y,1/2-z
-x,-y,-z
x,-y,1/2+z
1/2+x,1/2+y,z
1/2-x,1/2+y,1/2-z
1/2-x,1/2-y,-z
1/2+x,1/2-y,1/2+z
loop_
_atom_site_type_symbol
_atom_site_label
_atom_site_fract_x
_atom_site_fract_y
_atom_site_fract_z
Si Si1 0.426416 0.035242 0.306133
Si Si2 0.265020 0.395394 0.311668
Si Si3 0.029494 0.351277 0.474198
Si Si4 0.384787 0.343373 0.581256
Si Si5 0.105930 0.926024 0.673289
Si Si6 0.315267 0.750858 0.418485
O O1 0.500000 0.084418 0.250000
O O2 0.328106 0.973785 0.221535
O O3 0.498408 0.949122 0.392327
O O4 0.400173 0.113196 0.390765
O O5 0.297969 0.358142 0.448593
O O6 0.359011 0.460893 0.309920
O O7 0.237563 0.310968 0.208682
O O8 0.075970 0.269288 0.414837
O O9 0.925879 0.305058 0.478141
O O10 0.484732 0.410983 0.601877
O O11 0.361424 0.372876 0.695850
O O12 0.161387 0.862476 0.604357
O O13 0.250000 0.750000 0.500000
#
# Coordination Sequence:
#
# PCOD9294439 Si02
#       6
#     8   8   8   8   8   8
#     4  10  23  40  65  94 135 167 217 267 327 389
#     4  11  25  40  68 103 128 178 220 273 337 393
#     4   9  22  42  63  94 129 178 212 268 326 389
#     4  10  23  44  69  94 133 171 227 267 332 398
#     4  10  24  44  67  95 135 174 217 279 330 392
#     4  10  24  43  65  99 135 172 224 273 328 398
#
# _framework density 22.778993
#
# number of rings (size 3 to 8) (size 9 to 14) (size 15 to 20)
#    0.000    2.000    0.000    0.500   14.000    3.333 
#    3.000    0.000    0.000    0.000    0.000    0.000 
#    0.000    0.000    0.000    0.000    0.000    0.000 
#
# Total GULP energy -134235.430533 kJ/mol
# GULP energy per Si atom -5593.142939 kJ/mol
# Density = 2.272715 g / cm^3
# Si number density = 22.778993 Si / 1000 Ang^3
#
#
#
# Elastic Constant Matrix: (Units=GPa)
#
#
# Indices 1 2 3 4 5 6 
#
# 1 69.7917 -7.1398 24.4799 0.0000 -6.4785 0.0000
# 2 -7.1398 30.5087 -10.0154 0.0000 11.8847 0.0000
# 3 24.4799 -10.0154 108.5755 0.0000 10.6576 0.0000
# 4 0.0000 0.0000 0.0000 30.0993 0.0000 4.5505
# 5 -6.4785 11.8847 10.6576 0.0000 35.1368 0.0000
# 6 0.0000 0.0000 0.0000 4.5505 0.0000 30.5748
#
#
#
# Elastic Compliance Matrix: (Units=1/GPa)
#
#
# Indices 1 2 3 4 5 6 
#
# 1 0.016165 0.001000 -0.003929 0.000000 0.003834 0.000000
# 2 0.001000 0.040502 0.004986 0.000000 -0.015027 0.000000
# 3 -0.003929 0.004986 0.011124 0.000000 -0.005785 0.000000
# 4 0.000000 0.000000 0.000000 0.033988 0.000000 -0.005059
# 5 0.003834 -0.015027 -0.005785 0.000000 0.036005 0.000000
# 6 0.000000 0.000000 0.000000 -0.005059 0.000000 0.033460
#
#
# Mechanical properties :
#
#
# Convention : Reuss Voigt Hill
#
# Bulk Modulus (GPa) = 13.90742 24.83613 19.37178
# Shear Modulus (GPa) = 26.16470 32.59890 29.38180
#
# Velocity S-wave (km/s) = 3.39283 3.78709 3.59536
# Velocity P-wave (km/s) = 4.63325 5.48174 5.07526
#
# Compressibility (1/GPa) = 0.07190404
#
# Stress axis : x y z
#
# Youngs Moduli (GPa) = 61.86392 24.69001 89.89828
#
# Poissons Ratio (x) = -0.02468 0.35318
# Poissons Ratio (y) = -0.06185 -0.44821
# Poissons Ratio (z) = 0.24304 -0.12310
#
# Static dielectric constant tensor:
#      x y z
#    x 1.869900 0.000000 0.021650 
#    y 0.000000 1.828550 0.000000 
#    z 0.021650 0.000000 1.862970 
# 
# From -- ./inp_files/96556.got.cif
#   From: 2010.05.17/outbox.cif.g08.bks.cpg/sg15_49_cif.got.tgz:96556.got - 2010.06.03 18:47:42.
