data_PCOD9294097
_publ_section_title
;
Structure prediction by ZEFSAII (Michael W. Deem and Ramdas Pophale) SiO2 
 PCOD9294097
Probable space group: C 2/C
;
_chemical_formula_sum "Si O2"
_cell_formula_units_Z 48
_cell_length_a 25.240961
_cell_length_b 8.998569
_cell_length_c 13.086263
_cell_angle_alpha 90.000000
_cell_angle_beta 42.509193
_cell_angle_gamma 90.000000
_cell_volume 2008.419176
_symmetry_space_group_name_H-M "C 2/C"
_symmetry_group_IT_number 15
_symmetry_cell_setting 'monoclinic'
loop_
_space_group_symop_operation_xyz
x,y,z
-x,y,1/2-z
-x,-y,-z
x,-y,1/2+z
1/2+x,1/2+y,z
1/2-x,1/2+y,1/2-z
1/2-x,1/2-y,-z
1/2+x,1/2-y,1/2+z
loop_
_atom_site_type_symbol
_atom_site_label
_atom_site_fract_x
_atom_site_fract_y
_atom_site_fract_z
Si Si1 0.779562 0.812689 0.242262
Si Si2 0.874616 0.178786 0.934792
Si Si3 0.319133 0.880502 0.317384
Si Si4 0.321366 0.451794 0.849735
Si Si5 0.917525 0.402351 0.552414
Si Si6 0.503348 0.806553 0.607893
O O1 0.710563 0.737771 0.409330
O O2 0.737686 0.872769 0.201028
O O3 0.845521 0.694216 0.115215
O O4 0.818821 0.940212 0.255813
O O5 0.925673 0.279901 0.784921
O O6 0.932141 0.184658 0.950431
O O7 0.863799 0.030188 0.884679
O O8 0.349722 0.714348 0.289887
O O9 0.268718 0.930122 0.485672
O O10 0.382429 0.999559 0.195519
O O11 0.979044 0.299621 0.524093
O O12 0.956659 0.531465 0.429975
#
# Coordination Sequence:
#
# PCOD9294097 Si02
#       6
#     8   8   8   8   8   8
#     4  12  22  42  75 100 136 191 249 287 357 434
#     4  11  21  41  67  99 131 196 234 289 357 441
#     4  11  24  40  68 108 143 174 242 309 355 416
#     4  11  24  41  66 103 140 178 235 305 354 418
#     4  11  21  43  67 103 133 187 243 300 357 435
#     4  10  23  38  70  96 139 178 245 291 361 425
#
# _framework density 23.899394999999998
#
# number of rings (size 3 to 8) (size 9 to 14) (size 15 to 20)
#    0.000    1.000    5.000    2.500    0.000    0.000 
#    3.000    0.833   14.667    0.000    0.000    0.000 
#    0.000    0.000    0.000    0.000    0.000    0.000 
#
# Total GULP energy -134161.018678 kJ/mol
# GULP energy per Si atom -5590.042445 kJ/mol
# Density = 2.384500 g / cm^3
# Si number density = 23.899395 Si / 1000 Ang^3
#
#
#
# Elastic Constant Matrix: (Units=GPa)
#
#
# Indices 1 2 3 4 5 6 
#
# 1 102.5834 47.4061 -2.2577 0.0000 -9.7803 0.0000
# 2 47.4061 97.5468 19.7116 0.0000 0.2722 0.0000
# 3 -2.2577 19.7116 88.7756 0.0000 -10.0614 0.0000
# 4 0.0000 0.0000 0.0000 46.0410 0.0000 -3.6737
# 5 -9.7803 0.2722 -10.0614 0.0000 29.8154 0.0000
# 6 0.0000 0.0000 0.0000 -3.6737 0.0000 24.1410
#
#
#
# Elastic Compliance Matrix: (Units=1/GPa)
#
#
# Indices 1 2 3 4 5 6 
#
# 1 0.013622 -0.007150 0.002545 0.000000 0.005393 0.000000
# 2 -0.007150 0.014511 -0.003831 0.000000 -0.003771 0.000000
# 3 0.002545 -0.003831 0.012767 0.000000 0.005178 0.000000
# 4 0.000000 0.000000 0.000000 0.021987 0.000000 0.003346
# 5 0.005393 -0.003771 0.005178 0.000000 0.037090 0.000000
# 6 0.000000 0.000000 0.000000 0.003346 0.000000 0.041933
#
#
# Mechanical properties :
#
#
# Convention : Reuss Voigt Hill
#
# Bulk Modulus (GPa) = 41.61728 46.51397 44.06563
# Shear Modulus (GPa) = 29.97784 34.93586 32.45685
#
# Velocity S-wave (km/s) = 3.54550 3.82748 3.68919
# Velocity P-wave (km/s) = 5.84911 6.24800 6.05184
#
# Compressibility (1/GPa) = 0.02402848
#
# Stress axis : x y z
#
# Youngs Moduli (GPa) = 73.40921 68.91459 78.32950
#
# Poissons Ratio (x) = 0.49271 -0.19935
# Poissons Ratio (y) = 0.52484 0.30009
# Poissons Ratio (z) = -0.18683 0.26402
#
# Static dielectric constant tensor:
#      x y z
#    x 1.969520 0.000000 -0.023150 
#    y 0.000000 1.888440 0.000000 
#    z -0.023150 0.000000 1.965010 
# 
# From -- ./inp_files/176881.got.cif
#   From: 2010.05.17/outbox.cif.g08.bks.cpg/sg15_89_cif.got.tgz:176881.got - 2010.06.03 18:47:42.
