data_PCOD9294623
_publ_section_title
;
Structure prediction by ZEFSAII (Michael W. Deem and Ramdas Pophale) SiO2 
 PCOD9294623
Probable space group: C 2/C
;
_chemical_formula_sum "Si O2"
_cell_formula_units_Z 48
_cell_length_a 26.347576
_cell_length_b 9.336665
_cell_length_c 9.991536
_cell_angle_alpha 90.000000
_cell_angle_beta 86.789294
_cell_angle_gamma 90.000000
_cell_volume 2454.044645
_symmetry_space_group_name_H-M "C 2/C"
_symmetry_group_IT_number 15
_symmetry_cell_setting 'monoclinic'
loop_
_space_group_symop_operation_xyz
x,y,z
-x,y,1/2-z
-x,-y,-z
x,-y,1/2+z
1/2+x,1/2+y,z
1/2-x,1/2+y,1/2-z
1/2-x,1/2-y,-z
1/2+x,1/2-y,1/2+z
loop_
_atom_site_type_symbol
_atom_site_label
_atom_site_fract_x
_atom_site_fract_y
_atom_site_fract_z
Si Si1 0.466518 0.434174 0.122462
Si Si2 0.106452 0.727397 0.487876
Si Si3 0.163494 0.527741 0.066382
Si Si4 0.628580 0.595291 0.247847
Si Si5 0.175907 0.794583 0.235697
Si Si6 0.206178 0.663793 0.800673
O O1 0.500000 0.423753 0.250000
O O2 0.418290 0.537665 0.158010
O O3 0.500000 0.500000 0.000000
O O4 0.442562 0.281331 0.084744
O O5 0.114800 0.562115 0.523646
O O6 0.108167 0.820265 0.622275
O O7 0.154810 0.767283 0.387758
O O8 0.151450 0.674397 0.144757
O O9 0.192012 0.427124 0.170322
O O10 0.197357 0.566989 0.932861
O O11 0.658967 0.453700 0.198920
O O12 0.667257 0.703193 0.314609
O O13 0.236368 0.782639 0.216824
#
# Coordination Sequence:
#
# PCOD9294623 Si02
#       6
#     8   8   8   8   8   8
#     4  11  22  43  73 101 126 166 222 283 337 390
#     4  10  23  41  62 100 128 173 218 280 331 400
#     4  11  23  41  59  92 134 181 216 275 329 387
#     4  10  24  38  67 100 132 168 230 270 327 399
#     4  11  23  38  64  95 132 184 223 266 325 398
#     4  11  24  40  63  93 140 182 222 265 331 398
#
# _framework density 19.559546999999998
#
# number of rings (size 3 to 8) (size 9 to 14) (size 15 to 20)
#    0.000    1.333    3.333    1.500    7.000    1.333 
#    0.000    0.000    0.000   10.000    0.000    0.000 
#    0.000    0.000    0.000    0.000    0.000    0.000 
#
# Total GULP energy -134086.174192 kJ/mol
# GULP energy per Si atom -5586.923925 kJ/mol
# Density = 1.951503 g / cm^3
# Si number density = 19.559547 Si / 1000 Ang^3
#
#
#
# Elastic Constant Matrix: (Units=GPa)
#
#
# Indices 1 2 3 4 5 6 
#
# 1 99.5470 45.8928 44.3632 0.0000 -13.8132 0.0000
# 2 45.8928 117.3891 37.0495 0.0000 3.4246 0.0000
# 3 44.3632 37.0495 100.8854 0.0000 -5.7432 0.0000
# 4 0.0000 0.0000 0.0000 21.9177 0.0000 9.2905
# 5 -13.8132 3.4246 -5.7432 0.0000 18.0254 0.0000
# 6 0.0000 0.0000 0.0000 9.2905 0.0000 -13.3778
#
#
#
# Elastic Compliance Matrix: (Units=1/GPa)
#
#
# Indices 1 2 3 4 5 6 
#
# 1 0.016107 -0.005229 -0.004485 0.000000 0.011908 0.000000
# 2 -0.005229 0.011496 -0.002317 0.000000 -0.006929 0.000000
# 3 -0.004485 -0.002317 0.012797 0.000000 0.001081 0.000000
# 4 0.000000 0.000000 0.000000 0.035249 0.000000 0.024479
# 5 0.011908 -0.006929 0.001081 0.000000 0.066263 0.000000
# 6 0.000000 0.000000 0.000000 0.024479 0.000000 -0.057750
#
#
# Mechanical properties :
#
#
# Convention : Reuss Voigt Hill
#
# Bulk Modulus (GPa) = 61.20420 63.60360 62.40390
# Shear Modulus (GPa) = 43.98719 18.01413 31.00066
#
# Velocity S-wave (km/s) = 4.74739 3.03807 3.98545
# Velocity P-wave (km/s) = 7.83641 6.70038 7.29056
#
# Compressibility (1/GPa) = 0.01633875
#
# Stress axis : x y z
#
# Youngs Moduli (GPa) = 62.08463 86.98410 78.14455
#
# Poissons Ratio (x) = 0.45483 0.35046
# Poissons Ratio (y) = 0.32464 0.18107
# Poissons Ratio (z) = 0.27843 0.20155
#
# Static dielectric constant tensor:
#      x y z
#    x 1.663470 0.000000 0.019510 
#    y 0.000000 1.695750 0.000000 
#    z 0.019510 0.000000 1.694770 
# 
# From -- ./inp_files/116259.got.cif
#   From: 2010.05.17/outbox.cif.g08.bks.cpg/sg15_59_cif.got.tgz:116259.got - 2010.06.03 18:47:42.
