data_PCOD9294247
_publ_section_title
;
Structure prediction by ZEFSAII (Michael W. Deem and Ramdas Pophale) SiO2 
 PCOD9294247
Probable space group: C 2/C
;
_chemical_formula_sum "Si O2"
_cell_formula_units_Z 48
_cell_length_a 32.228114
_cell_length_b 7.280050
_cell_length_c 14.599700
_cell_angle_alpha 90.000000
_cell_angle_beta 31.818874
_cell_angle_gamma 90.000000
_cell_volume 1806.001146
_symmetry_space_group_name_H-M "C 2/C"
_symmetry_group_IT_number 15
_symmetry_cell_setting 'monoclinic'
loop_
_space_group_symop_operation_xyz
x,y,z
-x,y,1/2-z
-x,-y,-z
x,-y,1/2+z
1/2+x,1/2+y,z
1/2-x,1/2+y,1/2-z
1/2-x,1/2-y,-z
1/2+x,1/2-y,1/2+z
loop_
_atom_site_type_symbol
_atom_site_label
_atom_site_fract_x
_atom_site_fract_y
_atom_site_fract_z
Si Si1 0.308896 0.425724 0.549847
Si Si2 0.998435 0.096989 0.405481
Si Si3 0.584305 0.904283 0.331473
Si Si4 0.252086 0.533215 0.470481
Si Si5 0.330903 0.310898 0.161944
Si Si6 0.936963 0.735888 0.427333
O O1 0.307258 0.439952 0.444066
O O2 0.330232 0.612165 0.561062
O O3 0.219991 0.370098 0.739207
O O4 0.365573 0.281334 0.493301
O O5 0.918719 0.207446 0.533503
O O6 0.067831 0.243931 0.287361
O O7 0.987728 0.919412 0.360759
O O8 0.000000 0.000000 0.500000
O O9 0.660103 0.017684 0.156511
O O10 0.596528 0.828899 0.412151
O O11 0.500000 0.000000 0.500000
O O12 0.250000 0.750000 0.500000
O O13 0.287188 0.462682 0.309031
O O14 0.000000 0.618597 0.250000
#
# Coordination Sequence:
#
# PCOD9294247 Si02
#       6
#     8   8   8   8   8   8
#     4  11  24  42  66  98 133 165 231 271 322 400
#     4   9  20  40  63  88 127 166 216 255 320 400
#     4  11  24  42  64  99 135 165 216 279 332 386
#     4  12  25  41  69  97 132 177 218 273 336 385
#     4  11  23  42  68  95 128 176 217 278 328 391
#     4  10  23  39  66  89 126 178 216 266 325 394
#
# _framework density 26.578056
#
# number of rings (size 3 to 8) (size 9 to 14) (size 15 to 20)
#    0.000    1.333    0.000    6.500    9.333    0.000 
#    0.000    0.833    0.000    0.000    0.000    0.000 
#    0.000    0.000    0.000    0.000    0.000    0.000 
#
# Total GULP energy -134278.308353 kJ/mol
# GULP energy per Si atom -5594.929515 kJ/mol
# Density = 2.651756 g / cm^3
# Si number density = 26.578056 Si / 1000 Ang^3
#
#
#
# Elastic Constant Matrix: (Units=GPa)
#
#
# Indices 1 2 3 4 5 6 
#
# 1 182.8276 40.8278 58.0575 0.0007 -8.1800 0.0007
# 2 40.8278 64.8253 17.1089 -0.0001 -2.5862 -0.0014
# 3 58.0575 17.1089 119.4348 -0.0018 1.4280 -0.0011
# 4 0.0007 -0.0001 -0.0018 38.1152 -0.0006 -12.4967
# 5 -8.1800 -2.5862 1.4280 -0.0006 46.3470 -0.0006
# 6 0.0007 -0.0014 -0.0011 -12.4967 -0.0006 28.3074
#
#
#
# Elastic Compliance Matrix: (Units=1/GPa)
#
#
# Indices 1 2 3 4 5 6 
#
# 1 0.007328 -0.003767 -0.003036 0.000000 0.001177 -0.000001
# 2 -0.003767 0.018012 -0.000753 0.000000 0.000363 0.000001
# 3 -0.003036 -0.000753 0.009967 0.000001 -0.000885 0.000001
# 4 0.000000 0.000000 0.000001 0.030676 0.000000 0.013543
# 5 0.001177 0.000363 -0.000885 0.000000 0.021832 0.000001
# 6 -0.000001 0.000001 0.000001 0.013543 0.000001 0.041305
#
#
# Mechanical properties :
#
#
# Convention : Reuss Voigt Hill
#
# Bulk Modulus (GPa) = 49.52119 66.56399 58.04259
# Shear Modulus (GPa) = 33.12041 39.29349 36.20695
#
# Velocity S-wave (km/s) = 3.53392 3.84919 3.69492
# Velocity P-wave (km/s) = 5.94342 6.69732 6.33160
#
# Compressibility (1/GPa) = 0.02019337
#
# Stress axis : x y z
#
# Youngs Moduli (GPa) = 136.46874 55.51922 100.32774
#
# Poissons Ratio (x) = 0.20913 0.30464
# Poissons Ratio (y) = 0.51404 0.07560
# Poissons Ratio (z) = 0.41439 0.04183
#
# Static dielectric constant tensor:
#      x y z
#    x 1.973310 0.000000 -0.014720 
#    y 0.000000 2.209400 0.000000 
#    z -0.014720 0.000000 2.114870 
# 
# From -- ./inp_files/180710.got.cif
#   From: 2010.05.17/outbox.cif.g08.bks.cpg/sg15_91_cif.got.tgz:180710.got - 2010.06.03 18:47:42.
