data_PCOD9294165
_publ_section_title
;
Structure prediction by ZEFSAII (Michael W. Deem and Ramdas Pophale) SiO2 
 PCOD9294165
Probable space group: C 2/C
;
_chemical_formula_sum "Si O2"
_cell_formula_units_Z 44
_cell_length_a 18.948707
_cell_length_b 12.494482
_cell_length_c 9.105068
_cell_angle_alpha 90.000000
_cell_angle_beta 80.673848
_cell_angle_gamma 90.000000
_cell_volume 2127.169921
_symmetry_space_group_name_H-M "C 2/C"
_symmetry_group_IT_number 15
_symmetry_cell_setting 'monoclinic'
loop_
_space_group_symop_operation_xyz
x,y,z
-x,y,1/2-z
-x,-y,-z
x,-y,1/2+z
1/2+x,1/2+y,z
1/2-x,1/2+y,1/2-z
1/2-x,1/2-y,-z
1/2+x,1/2-y,1/2+z
loop_
_atom_site_type_symbol
_atom_site_label
_atom_site_fract_x
_atom_site_fract_y
_atom_site_fract_z
Si Si1 0.500000 0.769226 0.750000
Si Si2 0.327801 0.099339 0.828232
Si Si3 0.768298 0.788589 0.660462
Si Si4 0.424278 0.432756 0.298436
Si Si5 0.671164 0.518371 0.924142
Si Si6 0.628628 0.884494 0.858014
O O1 0.550614 0.682595 0.647651
O O2 0.553297 0.839283 0.827237
O O3 0.315499 0.201197 0.728852
O O4 0.247621 0.072107 0.911468
O O5 0.356677 0.001195 0.719618
O O6 0.370193 0.113592 0.965626
O O7 0.750000 0.750000 0.500000
O O8 0.810863 0.899757 0.640353
O O9 0.694291 0.812874 0.771890
O O10 0.500000 0.490995 0.250000
O O11 0.370461 0.498453 0.413478
O O12 0.382276 0.417366 0.161947
#
# Coordination Sequence:
#
# PCOD9294165 Si02
#       6
#     4   8   8   8   8   8
#     4  10  24  40  62  80 130 164 210 252 318 380
#     4  11  23  39  66  95 125 160 215 264 315 381
#     4  11  22  39  66  96 127 160 209 264 319 373
#     4  10  23  39  62  90 124 162 202 255 314 374
#     4  11  20  40  64  91 122 160 205 260 312 360
#     4  11  23  41  61  92 122 167 209 260 318 378
#
# _framework density 20.684760000000001
#
# number of rings (size 3 to 8) (size 9 to 14) (size 15 to 20)
#    0.545    0.727    0.000    8.727    0.000    2.182 
#    0.000    0.000    0.000    0.000    0.000    0.000 
#    0.000    0.000    0.000    0.000    0.000    0.000 
#
# Total GULP energy -122819.508873 kJ/mol
# GULP energy per Si atom -5582.704949 kJ/mol
# Density = 2.063768 g / cm^3
# Si number density = 20.684760 Si / 1000 Ang^3
#
#
#
# Elastic Constant Matrix: (Units=GPa)
#
#
# Indices 1 2 3 4 5 6 
#
# 1 311.1764 67.7477 124.4190 0.0000 -109.5689 0.0000
# 2 67.7477 68.7551 41.5599 0.0000 -21.1991 0.0000
# 3 124.4190 41.5599 142.3067 0.0000 -32.8119 0.0000
# 4 0.0000 0.0000 0.0000 7.6632 0.0000 18.3771
# 5 -109.5689 -21.1991 -32.8119 0.0000 109.2908 0.0000
# 6 0.0000 0.0000 0.0000 18.3771 0.0000 56.9570
#
#
#
# Elastic Compliance Matrix: (Units=1/GPa)
#
#
# Indices 1 2 3 4 5 6 
#
# 1 0.007740 -0.003104 -0.004523 0.000000 0.005800 0.000000
# 2 -0.003104 0.019331 -0.002992 0.000000 -0.000261 0.000000
# 3 -0.004523 -0.002992 0.011470 0.000000 -0.001672 0.000000
# 4 0.000000 0.000000 0.000000 0.576759 0.000000 -0.186091
# 5 0.005800 -0.000261 -0.001672 0.000000 0.014412 0.000000
# 6 0.000000 0.000000 0.000000 -0.186091 0.000000 0.077599
#
#
# Mechanical properties :
#
#
# Convention : Reuss Voigt Hill
#
# Bulk Modulus (GPa) = 57.79382 109.96570 83.87976
# Shear Modulus (GPa) = 6.80904 54.01631 30.41268
#
# Velocity S-wave (km/s) = 1.81630 5.11574 3.83860
# Velocity P-wave (km/s) = 5.69206 9.39002 7.76441
#
# Compressibility (1/GPa) = 0.01730289
#
# Stress axis : x y z
#
# Youngs Moduli (GPa) = 129.19423 51.73002 87.18260
#
# Poissons Ratio (x) = 0.16059 0.39437
# Poissons Ratio (y) = 0.40107 0.26081
# Poissons Ratio (z) = 0.58441 0.15475
#
# Static dielectric constant tensor:
#      x y z
#    x 1.724880 0.000000 -0.017790 
#    y 0.000000 1.758910 0.000000 
#    z -0.017790 0.000000 1.753030 
# 
# From -- ./inp_files/47100.got.cif
#   From: 2010.05.17/outbox.cif.g08.bks.cpg/sg15_24_cif.got.tgz:47100.got - 2010.06.03 18:47:42.
