data_PCOD9294742
_publ_section_title
;
Structure prediction by ZEFSAII (Michael W. Deem and Ramdas Pophale) SiO2 
 PCOD9294742
Probable space group: C 2/C
;
_chemical_formula_sum "Si O2"
_cell_formula_units_Z 32
_cell_length_a 16.421222
_cell_length_b 6.850163
_cell_length_c 14.492283
_cell_angle_alpha 90.000000
_cell_angle_beta 102.166463
_cell_angle_gamma 90.000000
_cell_volume 1593.593188
_symmetry_space_group_name_H-M "C 2/C"
_symmetry_group_IT_number 15
_symmetry_cell_setting 'monoclinic'
loop_
_space_group_symop_operation_xyz
x,y,z
-x,y,1/2-z
-x,-y,-z
x,-y,1/2+z
1/2+x,1/2+y,z
1/2-x,1/2+y,1/2-z
1/2-x,1/2-y,-z
1/2+x,1/2-y,1/2+z
loop_
_atom_site_type_symbol
_atom_site_label
_atom_site_fract_x
_atom_site_fract_y
_atom_site_fract_z
Si Si1 0.145679 0.948660 0.289213
Si Si2 0.172442 0.274412 0.142778
Si Si3 0.568974 0.383130 0.459125
Si Si4 0.043471 0.401972 0.670031
O O1 0.234130 0.853489 0.336185
O O2 0.097250 0.991778 0.372626
O O3 0.092839 0.787606 0.220270
O O4 0.160855 0.132274 0.227471
O O5 0.107676 0.451240 0.139663
O O6 0.146033 0.159719 0.044532
O O7 0.500000 0.500000 0.500000
O O8 0.526759 0.181817 0.414560
O O9 0.000000 0.493783 0.750000
#
# Coordination Sequence:
#
# PCOD9294742 Si02
#       4
#     8   8   8   8
#     4  11  24  43  64  97 130 168 215 262 319 386
#     4  12  23  44  67  91 133 172 212 266 325 375
#     4  11  24  42  67  97 131 166 216 270 315 383
#     4  10  23  41  65  95 127 166 213 261 319 380
#
# _framework density 20.080407000000001
#
# number of rings (size 3 to 8) (size 9 to 14) (size 15 to 20)
#    0.000    1.000    5.000    1.500    3.500    0.000 
#    0.000    2.500    0.000    0.000    0.000    0.000 
#    0.000    0.000    0.000    0.000    0.000    0.000 
#
# Total GULP energy -89472.892008 kJ/mol
# GULP energy per Si atom -5592.055750 kJ/mol
# Density = 2.003470 g / cm^3
# Si number density = 20.080407 Si / 1000 Ang^3
#
#
#
# Elastic Constant Matrix: (Units=GPa)
#
#
# Indices 1 2 3 4 5 6 
#
# 1 67.2719 5.5709 31.1708 0.0000 3.1557 0.0000
# 2 5.5709 29.1918 26.1116 0.0000 -9.0643 0.0000
# 3 31.1708 26.1116 124.3892 0.0000 1.1996 0.0000
# 4 0.0000 0.0000 0.0000 24.8488 0.0000 0.0193
# 5 3.1557 -9.0643 1.1996 0.0000 41.8907 0.0000
# 6 0.0000 0.0000 0.0000 0.0193 0.0000 31.5705
#
#
#
# Elastic Compliance Matrix: (Units=1/GPa)
#
#
# Indices 1 2 3 4 5 6 
#
# 1 0.016875 0.000263 -0.004273 0.000000 -0.001092 0.000000
# 2 0.000263 0.046219 -0.009867 0.000000 0.010264 0.000000
# 3 -0.004273 -0.009867 0.011202 0.000000 -0.002134 0.000000
# 4 0.000000 0.000000 0.000000 0.040243 0.000000 -0.000025
# 5 -0.001092 0.010264 -0.002134 0.000000 0.026236 0.000000
# 6 0.000000 0.000000 0.000000 -0.000025 0.000000 0.031675
#
#
# Mechanical properties :
#
#
# Convention : Reuss Voigt Hill
#
# Bulk Modulus (GPa) = 21.48655 38.50662 29.99659
# Shear Modulus (GPa) = 23.17841 30.19530 26.68686
#
# Velocity S-wave (km/s) = 3.40116 3.88199 3.64950
# Velocity P-wave (km/s) = 5.11344 6.26985 5.72094
#
# Compressibility (1/GPa) = 0.04654074
#
# Stress axis : x y z
#
# Youngs Moduli (GPa) = 59.26091 21.63619 89.26981
#
# Poissons Ratio (x) = -0.00569 0.38148
# Poissons Ratio (y) = -0.01559 0.88083
# Poissons Ratio (z) = 0.25324 0.21349
#
# Static dielectric constant tensor:
#      x y z
#    x 1.690740 0.000000 -0.003900 
#    y 0.000000 1.679310 0.000000 
#    z -0.003900 0.000000 1.709700 
# 
# From -- ./inp_files/93219.got.cif
#   From: 2010.05.17/outbox.cif.g08.bks.cpg/sg15_47_cif.got.tgz:93219.got - 2010.06.03 18:47:42.
