data_PCOD9294660
_publ_section_title
;
Structure prediction by ZEFSAII (Michael W. Deem and Ramdas Pophale) SiO2 
 PCOD9294660
Probable space group: C 2/C
;
_chemical_formula_sum "Si O2"
_cell_formula_units_Z 40
_cell_length_a 14.511229
_cell_length_b 22.767917
_cell_length_c 8.113744
_cell_angle_alpha 90.000000
_cell_angle_beta 139.652908
_cell_angle_gamma 90.000000
_cell_volume 1735.531485
_symmetry_space_group_name_H-M "C 2/C"
_symmetry_group_IT_number 15
_symmetry_cell_setting 'monoclinic'
loop_
_space_group_symop_operation_xyz
x,y,z
-x,y,1/2-z
-x,-y,-z
x,-y,1/2+z
1/2+x,1/2+y,z
1/2-x,1/2+y,1/2-z
1/2-x,1/2-y,-z
1/2+x,1/2-y,1/2+z
loop_
_atom_site_type_symbol
_atom_site_label
_atom_site_fract_x
_atom_site_fract_y
_atom_site_fract_z
Si Si1 0.433651 0.878733 0.978618
Si Si2 0.691746 0.066779 0.660422
Si Si3 0.941611 0.874531 0.355894
Si Si4 0.090876 0.254596 0.711600
Si Si5 0.197038 0.057643 0.317346
O O1 0.500000 0.888473 0.250000
O O2 0.528160 0.916256 0.977558
O O3 0.432475 0.810629 0.933697
O O4 0.274179 0.899714 0.791927
O O5 0.775226 0.112354 0.658679
O O6 0.733017 0.004533 0.636923
O O7 0.762825 0.069035 0.938934
O O8 0.958629 0.807109 0.436363
O O9 0.000000 0.876018 0.250000
O O10 0.031528 0.925964 0.568922
O O11 0.000000 0.264443 0.750000
O O12 0.250000 0.250000 0.000000
#
# Coordination Sequence:
#
# PCOD9294660 Si02
#       5
#     8   8   8   8   8
#     4  10  23  41  63  91 124 161 204 252 308 366
#     4  11  23  40  62  89 122 162 204 252 305 364
#     4  11  23  40  61  88 122 161 202 252 304 362
#     4  11  23  41  64  92 123 162 208 255 305 363
#     4  11  23  40  61  90 122 160 204 251 306 363
#
# _framework density 23.047695000000001
#
# number of rings (size 3 to 8) (size 9 to 14) (size 15 to 20)
#    0.000    1.200    0.000    6.600    0.000    3.200 
#    0.000    5.000    0.000    0.000    0.000    0.000 
#    0.000    0.000    0.000    0.000    0.000    0.000 
#
# Total GULP energy -111748.503169 kJ/mol
# GULP energy per Si atom -5587.425158 kJ/mol
# Density = 2.299524 g / cm^3
# Si number density = 23.047695 Si / 1000 Ang^3
#
#
#
# Elastic Constant Matrix: (Units=GPa)
#
#
# Indices 1 2 3 4 5 6 
#
# 1 156.4382 30.9134 19.0685 0.0000 18.0260 0.0000
# 2 30.9134 114.7698 -15.0261 0.0000 -9.6564 0.0000
# 3 19.0685 -15.0261 49.9098 0.0000 13.3550 0.0000
# 4 0.0000 0.0000 0.0000 0.1921 0.0000 -6.5862
# 5 18.0260 -9.6564 13.3550 0.0000 38.9306 0.0000
# 6 0.0000 0.0000 0.0000 -6.5862 0.0000 41.0770
#
#
#
# Elastic Compliance Matrix: (Units=1/GPa)
#
#
# Indices 1 2 3 4 5 6 
#
# 1 0.007650 -0.002708 -0.002874 0.000000 -0.003228 0.000000
# 2 -0.002708 0.010104 0.003381 0.000000 0.002600 0.000000
# 3 -0.002874 0.003381 0.023752 0.000000 -0.005979 0.000000
# 4 0.000000 0.000000 0.000000 -1.157604 0.000000 -0.185607
# 5 -0.003228 0.002600 -0.005979 0.000000 0.029877 0.000000
# 6 0.000000 0.000000 0.000000 -0.185607 0.000000 -0.005415
#
#
# Mechanical properties :
#
#
# Convention : Reuss Voigt Hill
#
# Bulk Modulus (GPa) = 26.95268 43.44770 35.20019
# Shear Modulus (GPa) = -4.65175 35.11741 15.23283
#
# Velocity S-wave (km/s) = -1.42222 3.90767 2.57364
# Velocity P-wave (km/s) = 3.00379 6.26514 4.91298
#
# Compressibility (1/GPa) = 0.03710206
#
# Stress axis : x y z
#
# Youngs Moduli (GPa) = 130.72252 98.97034 42.10184
#
# Poissons Ratio (x) = 0.26805 0.12102
# Poissons Ratio (y) = 0.35405 -0.14234
# Poissons Ratio (z) = 0.37574 -0.33461
#
# Static dielectric constant tensor:
#      x y z
#    x 1.815030 0.000000 0.021840 
#    y 0.000000 1.892650 0.000000 
#    z 0.021840 0.000000 1.864100 
# 
# From -- ./inp_files/32265.got.cif
#   From: 2010.05.17/outbox.cif.g08.bks.cpg/sg15_17_cif.got.tgz:32265.got - 2010.06.03 18:47:42.
