data_PCOD9294430
_publ_section_title
;
Structure prediction by ZEFSAII (Michael W. Deem and Ramdas Pophale) SiO2 
 PCOD9294430
Probable space group: C 2/C
;
_chemical_formula_sum "Si O2"
_cell_formula_units_Z 48
_cell_length_a 19.296644
_cell_length_b 13.300570
_cell_length_c 11.070185
_cell_angle_alpha 90.000000
_cell_angle_beta 130.864841
_cell_angle_gamma 90.000000
_cell_volume 2148.697281
_symmetry_space_group_name_H-M "C 2/C"
_symmetry_group_IT_number 15
_symmetry_cell_setting 'monoclinic'
loop_
_space_group_symop_operation_xyz
x,y,z
-x,y,1/2-z
-x,-y,-z
x,-y,1/2+z
1/2+x,1/2+y,z
1/2-x,1/2+y,1/2-z
1/2-x,1/2-y,-z
1/2+x,1/2-y,1/2+z
loop_
_atom_site_type_symbol
_atom_site_label
_atom_site_fract_x
_atom_site_fract_y
_atom_site_fract_z
Si Si1 0.765612 0.035347 0.237357
Si Si2 0.560377 0.551355 0.440351
Si Si3 0.188997 0.332739 0.061370
Si Si4 0.835610 0.820304 0.614440
Si Si5 0.961175 0.215525 0.463917
Si Si6 0.146428 0.686029 0.251658
O O1 0.803749 0.081297 0.154788
O O2 0.697746 0.116373 0.215622
O O3 0.855371 0.018722 0.423084
O O4 0.709411 0.932232 0.160835
O O5 0.500000 0.520293 0.250000
O O6 0.616948 0.647054 0.453585
O O7 0.503647 0.602665 0.487463
O O8 0.120438 0.248468 0.037849
O O9 0.289367 0.284043 0.160638
O O10 0.148827 0.363600 0.886241
O O11 0.750000 0.750000 0.500000
O O12 0.912305 0.765104 0.781070
O O13 0.046046 0.283115 0.597828
#
# Coordination Sequence:
#
# PCOD9294430 Si02
#       6
#     8   8   8   8   8   8
#     4  12  23  46  73 103 144 192 231 302 355 424
#     4  10  23  40  65 105 138 177 245 287 354 423
#     4  11  24  44  70 103 146 184 236 289 358 422
#     4  11  23  43  69 103 139 191 230 293 356 415
#     4  11  22  45  71  97 142 188 231 296 351 416
#     4  11  24  45  67 104 142 187 232 298 352 420
#
# _framework density 22.339117000000002
#
# number of rings (size 3 to 8) (size 9 to 14) (size 15 to 20)
#    0.000    1.000    3.333    3.500    0.000    3.333 
#    6.000    1.667    0.000    0.000    0.000    0.000 
#    0.000    0.000    0.000    0.000    0.000    0.000 
#
# Total GULP energy -133999.864681 kJ/mol
# GULP energy per Si atom -5583.327695 kJ/mol
# Density = 2.228827 g / cm^3
# Si number density = 22.339117 Si / 1000 Ang^3
#
#
#
# Elastic Constant Matrix: (Units=GPa)
#
#
# Indices 1 2 3 4 5 6 
#
# 1 68.0228 -3.8829 8.6306 0.0000 19.3609 0.0000
# 2 -3.8829 56.3722 34.8454 0.0000 16.5821 0.0000
# 3 8.6306 34.8454 112.9937 0.0000 45.6553 0.0000
# 4 0.0000 0.0000 0.0000 36.8926 0.0000 3.5782
# 5 19.3609 16.5821 45.6553 0.0000 39.5967 0.0000
# 6 0.0000 0.0000 0.0000 3.5782 0.0000 21.4753
#
#
#
# Elastic Compliance Matrix: (Units=1/GPa)
#
#
# Indices 1 2 3 4 5 6 
#
# 1 0.018558 0.003448 0.003312 0.000000 -0.014337 0.000000
# 2 0.003448 0.022701 -0.005133 0.000000 -0.005274 0.000000
# 3 0.003312 -0.005133 0.018658 0.000000 -0.020983 0.000000
# 4 0.000000 0.000000 0.000000 0.027551 0.000000 -0.004590
# 5 -0.014337 -0.005274 -0.020983 0.000000 0.058667 0.000000
# 6 0.000000 0.000000 0.000000 -0.004590 0.000000 0.047330
#
#
# Mechanical properties :
#
#
# Convention : Reuss Voigt Hill
#
# Bulk Modulus (GPa) = 15.82979 35.17500 25.50240
# Shear Modulus (GPa) = 23.66670 32.77932 28.22301
#
# Velocity S-wave (km/s) = 3.25842 3.83476 3.55828
# Velocity P-wave (km/s) = 4.61063 5.94872 5.32190
#
# Compressibility (1/GPa) = 0.06317203
#
# Stress axis : x y z
#
# Youngs Moduli (GPa) = 53.88458 44.05087 53.59609
#
# Poissons Ratio (x) = -0.15190 -0.17751
# Poissons Ratio (y) = -0.18581 0.27510
# Poissons Ratio (z) = -0.17846 0.22611
#
# Static dielectric constant tensor:
#      x y z
#    x 1.847620 0.000000 -0.037600 
#    y 0.000000 1.860310 0.000000 
#    z -0.037600 0.000000 1.819710 
# 
# From -- ./inp_files/112989.got.cif
#   From: 2010.05.17/outbox.cif.g08.bks.cpg/sg15_57_cif.got.tgz:112989.got - 2010.06.03 18:47:42.
