data_PCOD9294145
_publ_section_title
;
Structure prediction by ZEFSAII (Michael W. Deem and Ramdas Pophale) SiO2 
 PCOD9294145
Probable space group: C 2/C
;
_chemical_formula_sum "Si O2"
_cell_formula_units_Z 56
_cell_length_a 13.833246
_cell_length_b 10.033363
_cell_length_c 19.013536
_cell_angle_alpha 90.000000
_cell_angle_beta 122.023277
_cell_angle_gamma 90.000000
_cell_volume 2237.400343
_symmetry_space_group_name_H-M "C 2/C"
_symmetry_group_IT_number 15
_symmetry_cell_setting 'monoclinic'
loop_
_space_group_symop_operation_xyz
x,y,z
-x,y,1/2-z
-x,-y,-z
x,-y,1/2+z
1/2+x,1/2+y,z
1/2-x,1/2+y,1/2-z
1/2-x,1/2-y,-z
1/2+x,1/2-y,1/2+z
loop_
_atom_site_type_symbol
_atom_site_label
_atom_site_fract_x
_atom_site_fract_y
_atom_site_fract_z
Si Si1 0.298360 0.049576 0.143452
Si Si2 0.007874 0.951493 0.830612
Si Si3 0.867296 0.488014 0.525529
Si Si4 0.403858 0.852566 0.905307
Si Si5 0.960456 0.139416 0.454511
Si Si6 0.798438 0.828794 0.119561
Si Si7 0.283471 0.630659 0.771041
O O1 0.317300 0.966032 0.080250
O O2 0.174604 0.120048 0.096711
O O3 0.366372 0.188313 0.157292
O O4 0.300588 0.952374 0.210752
O O5 0.109105 0.058404 0.864786
O O6 0.000000 0.889794 0.750000
O O7 0.896732 0.040397 0.806094
O O8 0.010313 0.847371 0.895126
O O9 0.843974 0.582144 0.449866
O O10 0.797827 0.354964 0.476215
O O11 0.002469 0.459084 0.585808
O O12 0.321387 0.772684 0.820040
O O13 0.484762 0.743556 0.972492
O O14 0.000000 0.000000 0.500000
O O15 0.744159 0.857319 0.175840
#
# Coordination Sequence:
#
# PCOD9294145 Si02
#       7
#     8   8   8   8   8   8   8
#     4  11  22  38  65  91 113 157 214 246 291 360
#     4   9  19  36  57  89 115 155 201 246 302 350
#     4  11  25  39  63  90 120 163 205 246 304 359
#     4  11  23  42  60  85 129 159 198 249 309 360
#     4  11  19  37  62  83 115 157 200 248 296 353
#     4  11  22  38  64  90 123 157 208 249 293 365
#     4  10  23  39  61  90 125 158 196 252 312 344
#
# _framework density 25.029046999999998
#
# number of rings (size 3 to 8) (size 9 to 14) (size 15 to 20)
#    0.000    1.429    4.286    2.143    2.000    0.571 
#    0.000    0.000    0.000    0.000    0.000    0.000 
#    0.000    0.000    0.000    0.000    0.000    0.000 
#
# Total GULP energy -156401.588693 kJ/mol
# GULP energy per Si atom -5585.771025 kJ/mol
# Density = 2.497208 g / cm^3
# Si number density = 25.029047 Si / 1000 Ang^3
#
#
#
# Elastic Constant Matrix: (Units=GPa)
#
#
# Indices 1 2 3 4 5 6 
#
# 1 71.1891 3.4649 34.9893 0.0000 -27.7394 0.0000
# 2 3.4649 17.0689 -9.5593 0.0000 5.6887 0.0000
# 3 34.9893 -9.5593 80.8530 0.0000 -28.6050 0.0000
# 4 0.0000 0.0000 0.0000 41.0311 0.0000 -7.6295
# 5 -27.7394 5.6887 -28.6050 0.0000 45.0052 0.0000
# 6 0.0000 0.0000 0.0000 -7.6295 0.0000 24.2761
#
#
#
# Elastic Compliance Matrix: (Units=1/GPa)
#
#
# Indices 1 2 3 4 5 6 
#
# 1 0.022432 -0.012245 -0.007374 0.000000 0.010687 0.000000
# 2 -0.012245 0.070031 0.010033 0.000000 -0.010022 0.000000
# 3 -0.007374 0.010033 0.018950 0.000000 0.006231 0.000000
# 4 0.000000 0.000000 0.000000 0.025884 0.000000 0.008135
# 5 0.010687 -0.010022 0.006231 0.000000 0.034034 0.000000
# 6 0.000000 0.000000 0.000000 0.008135 0.000000 0.043749
#
#
# Mechanical properties :
#
#
# Convention : Reuss Voigt Hill
#
# Bulk Modulus (GPa) = 10.84123 25.21121 18.02622
# Shear Modulus (GPa) = 18.86790 31.41019 25.13905
#
# Velocity S-wave (km/s) = 2.74859 3.54637 3.17266
# Velocity P-wave (km/s) = 3.79656 5.18301 4.54299
#
# Compressibility (1/GPa) = 0.09224042
#
# Stress axis : x y z
#
# Youngs Moduli (GPa) = 44.57974 14.27934 52.77018
#
# Poissons Ratio (x) = 0.17485 0.38914
# Poissons Ratio (y) = 0.54589 -0.52945
# Poissons Ratio (z) = 0.32874 -0.14327
#
# Static dielectric constant tensor:
#      x y z
#    x 1.308140 0.000000 0.043720 
#    y 0.000000 2.392310 0.000000 
#    z 0.043720 0.000000 1.981700 
# 
# From -- ./inp_files/204097.got.cif
#   From: 2010.05.17/outbox.cif.g08.bks.cpg/sg15_103_cif.got.tgz:204097.got - 2010.06.03 18:47:42.
