data_PCOD9294459
_publ_section_title
;
Structure prediction by ZEFSAII (Michael W. Deem and Ramdas Pophale) SiO2 
 PCOD9294459
Probable space group: C 2/C
;
_chemical_formula_sum "Si O2"
_cell_formula_units_Z 48
_cell_length_a 18.598386
_cell_length_b 7.545208
_cell_length_c 14.788516
_cell_angle_alpha 90.000000
_cell_angle_beta 65.554428
_cell_angle_gamma 90.000000
_cell_volume 1889.216606
_symmetry_space_group_name_H-M "C 2/C"
_symmetry_group_IT_number 15
_symmetry_cell_setting 'monoclinic'
loop_
_space_group_symop_operation_xyz
x,y,z
-x,y,1/2-z
-x,-y,-z
x,-y,1/2+z
1/2+x,1/2+y,z
1/2-x,1/2+y,1/2-z
1/2-x,1/2-y,-z
1/2+x,1/2-y,1/2+z
loop_
_atom_site_type_symbol
_atom_site_label
_atom_site_fract_x
_atom_site_fract_y
_atom_site_fract_z
Si Si1 0.436457 0.340772 0.138920
Si Si2 0.382459 0.241470 0.974911
Si Si3 0.643746 0.302960 0.843476
Si Si4 0.697472 0.780369 0.666234
Si Si5 0.908124 0.356748 0.944874
Si Si6 0.790517 0.869389 0.865355
O O1 0.415855 0.546786 0.161739
O O2 0.373039 0.215516 0.223660
O O3 0.522180 0.273466 0.120981
O O4 0.426229 0.322399 0.036735
O O5 0.359921 0.364283 0.903314
O O6 0.427901 0.063148 0.923707
O O7 0.294907 0.184848 0.054271
O O8 0.722220 0.382834 0.852016
O O9 0.681938 0.238635 0.729584
O O10 0.607837 0.182140 0.940654
O O11 0.665158 0.825507 0.584064
O O12 0.719384 0.572134 0.658853
#
# Coordination Sequence:
#
# PCOD9294459 Si02
#       6
#     8   8   8   8   8   8
#     4  11  25  44  65  96 141 173 222 286 348 405
#     4  11  23  40  66  96 137 169 223 276 342 397
#     4  11  23  42  69  99 130 180 234 279 335 407
#     4  11  23  43  67  97 129 180 233 276 335 411
#     4  12  25  41  67  99 136 179 220 284 347 408
#     4  10  23  40  66 100 130 174 226 286 324 402
#
# _framework density 25.407357000000001
#
# number of rings (size 3 to 8) (size 9 to 14) (size 15 to 20)
#    0.000    1.000    3.333    3.000    4.667    1.333 
#    0.000    4.167    0.000    0.000    0.000    0.000 
#    0.000    0.000    0.000    0.000    0.000    0.000 
#
# Total GULP energy -134293.302063 kJ/mol
# GULP energy per Si atom -5595.554253 kJ/mol
# Density = 2.534953 g / cm^3
# Si number density = 25.407357 Si / 1000 Ang^3
#
#
#
# Elastic Constant Matrix: (Units=GPa)
#
#
# Indices 1 2 3 4 5 6 
#
# 1 82.4848 -5.1136 10.3344 0.0000 -2.4765 0.0000
# 2 -5.1136 55.7087 -0.9716 0.0000 -6.6805 0.0001
# 3 10.3344 -0.9716 68.8536 0.0000 8.4149 0.0000
# 4 0.0000 0.0000 0.0000 28.1741 0.0000 2.4392
# 5 -2.4765 -6.6805 8.4149 0.0000 36.2602 0.0000
# 6 0.0000 0.0001 0.0000 2.4392 0.0000 35.6805
#
#
#
# Elastic Compliance Matrix: (Units=1/GPa)
#
#
# Indices 1 2 3 4 5 6 
#
# 1 0.012508 0.001301 -0.002051 0.000000 0.001570 0.000000
# 2 0.001301 0.018493 -0.000372 0.000000 0.003582 0.000000
# 3 -0.002051 -0.000372 0.015285 0.000000 -0.003756 0.000000
# 4 0.000000 0.000000 0.000000 0.035705 0.000000 -0.002441
# 5 0.001570 0.003582 -0.003756 0.000000 0.029217 0.000000
# 6 0.000000 0.000000 0.000000 -0.002441 0.000000 0.028193
#
#
# Mechanical properties :
#
#
# Convention : Reuss Voigt Hill
#
# Bulk Modulus (GPa) = 22.70576 23.94950 23.32763
# Shear Modulus (GPa) = 31.98421 33.54281 32.76351
#
# Velocity S-wave (km/s) = 3.55189 3.63740 3.59490
# Velocity P-wave (km/s) = 5.07713 5.20457 5.14125
#
# Compressibility (1/GPa) = 0.04404168
#
# Stress axis : x y z
#
# Youngs Moduli (GPa) = 79.94773 54.07451 65.42296
#
# Poissons Ratio (x) = -0.07033 0.13418
# Poissons Ratio (y) = -0.10398 0.02434
# Poissons Ratio (z) = 0.16396 0.02012
#
# Static dielectric constant tensor:
#      x y z
#    x 1.990780 0.000000 -0.050810 
#    y 0.000000 2.023450 0.000000 
#    z -0.050810 0.000000 2.080910 
# 
# From -- ./inp_files/166140.got.cif
#   From: 2010.05.17/outbox.cif.g08.bks.cpg/sg15_84_cif.got.tgz:166140.got - 2010.06.03 18:47:42.
