data_PCOD9294784
_publ_section_title
;
Structure prediction by ZEFSAII (Michael W. Deem and Ramdas Pophale) SiO2 
 PCOD9294784
Probable space group: C 2/C
;
_chemical_formula_sum "Si O2"
_cell_formula_units_Z 52
_cell_length_a 17.886719
_cell_length_b 19.268046
_cell_length_c 8.391864
_cell_angle_alpha 90.000000
_cell_angle_beta 126.629869
_cell_angle_gamma 90.000000
_cell_volume 2321.001279
_symmetry_space_group_name_H-M "C 2/C"
_symmetry_group_IT_number 15
_symmetry_cell_setting 'monoclinic'
loop_
_space_group_symop_operation_xyz
x,y,z
-x,y,1/2-z
-x,-y,-z
x,-y,1/2+z
1/2+x,1/2+y,z
1/2-x,1/2+y,1/2-z
1/2-x,1/2-y,-z
1/2+x,1/2-y,1/2+z
loop_
_atom_site_type_symbol
_atom_site_label
_atom_site_fract_x
_atom_site_fract_y
_atom_site_fract_z
Si Si1 0.821700 0.692452 0.442998
Si Si2 0.748269 0.443104 0.731352
Si Si3 0.652598 0.791843 0.157328
Si Si4 0.549108 0.566386 0.141717
Si Si5 0.580435 0.319988 0.088700
Si Si6 0.000000 0.754630 0.250000
Si Si7 0.256879 0.413386 0.142772
O O1 0.821891 0.617544 0.361873
O O2 0.721731 0.725567 0.262158
O O3 0.836668 0.679845 0.649520
O O4 0.891374 0.754872 0.482290
O O5 0.657796 0.437173 0.733061
O O6 0.722429 0.434275 0.512866
O O7 0.782472 0.520635 0.813148
O O8 0.692124 0.846319 0.078891
O O9 0.548001 0.781532 0.961565
O O10 0.500000 0.563192 0.250000
O O11 0.500000 0.500000 0.000000
O O12 0.519040 0.643845 0.051546
O O13 0.584488 0.296569 0.277479
O O14 0.650854 0.383761 0.154137
#
# Coordination Sequence:
#
# PCOD9294784 Si02
#       7
#     8   8   8   8   8   4   8
#     4  10  23  41  66  92 127 176 223 264 316 398
#     4  12  23  40  66  92 131 172 215 265 326 391
#     4  10  23  42  65  94 127 169 224 271 324 384
#     4  12  26  38  60  96 135 172 207 264 324 387
#     4  11  24  39  62  94 133 171 217 261 325 386
#     4  12  24  40  66  94 132 172 212 284 328 380
#     4  11  23  40  65  94 127 171 218 267 319 399
#
# _framework density 22.404123999999999
#
# number of rings (size 3 to 8) (size 9 to 14) (size 15 to 20)
#    0.000    0.923    1.538    5.538    9.692    2.462 
#    0.000    0.000    0.000    8.308    0.000    0.000 
#    0.000    0.000    0.000    0.000    0.000    0.000 
#
# Total GULP energy -144966.885611 kJ/mol
# GULP energy per Si atom -5575.649447 kJ/mol
# Density = 2.235313 g / cm^3
# Si number density = 22.404124 Si / 1000 Ang^3
#
#
#
# Elastic Constant Matrix: (Units=GPa)
#
#
# Indices 1 2 3 4 5 6 
#
# 1 49.2056 13.6625 26.5477 0.0000 -15.8342 0.0000
# 2 13.6625 106.3757 27.3852 0.0000 0.7142 0.0000
# 3 26.5477 27.3852 90.6001 0.0000 -6.6471 0.0000
# 4 0.0000 0.0000 0.0000 21.8265 0.0000 -3.3644
# 5 -15.8342 0.7142 -6.6471 0.0000 38.9046 0.0000
# 6 0.0000 0.0000 0.0000 -3.3644 0.0000 41.1503
#
#
#
# Elastic Compliance Matrix: (Units=1/GPa)
#
#
# Indices 1 2 3 4 5 6 
#
# 1 0.027809 -0.001881 -0.006833 0.000000 0.010186 0.000000
# 2 -0.001881 0.010341 -0.002678 0.000000 -0.001413 0.000000
# 3 -0.006833 -0.002678 0.013822 0.000000 -0.000370 0.000000
# 4 0.000000 0.000000 0.000000 0.046401 0.000000 0.003794
# 5 0.010186 -0.001413 -0.000370 0.000000 0.029812 0.000000
# 6 0.000000 0.000000 0.000000 0.003794 0.000000 0.024611
#
#
# Mechanical properties :
#
#
# Convention : Reuss Voigt Hill
#
# Bulk Modulus (GPa) = 34.26035 42.37470 38.31753
# Shear Modulus (GPa) = 26.98176 32.28201 29.63189
#
# Velocity S-wave (km/s) = 3.47410 3.80003 3.64071
# Velocity P-wave (km/s) = 5.60515 6.18130 5.90026
#
# Compressibility (1/GPa) = 0.02918826
#
# Stress axis : x y z
#
# Youngs Moduli (GPa) = 35.95915 96.70036 72.34815
#
# Poissons Ratio (x) = 0.18190 0.49434
# Poissons Ratio (y) = 0.06764 0.19377
# Poissons Ratio (z) = 0.24570 0.25899
#
# Static dielectric constant tensor:
#      x y z
#    x 1.894740 0.000000 0.041570 
#    y 0.000000 1.768500 0.000000 
#    z 0.041570 0.000000 1.877730 
# 
# From -- ./inp_files/57062.got.cif
#   From: 2010.05.17/outbox.cif.g08.bks.cpg/sg15_29_cif.got.tgz:57062.got - 2010.06.03 18:47:42.
