data_PCOD9294818
_publ_section_title
;
Structure prediction by ZEFSAII (Michael W. Deem and Ramdas Pophale) SiO2 
 PCOD9294818
Probable space group: C 2/C
;
_chemical_formula_sum "Si O2"
_cell_formula_units_Z 56
_cell_length_a 5.610491
_cell_length_b 13.703398
_cell_length_c 28.206664
_cell_angle_alpha 90.000000
_cell_angle_beta 91.711633
_cell_angle_gamma 90.000000
_cell_volume 2167.639460
_symmetry_space_group_name_H-M "C 2/C"
_symmetry_group_IT_number 15
_symmetry_cell_setting 'monoclinic'
loop_
_space_group_symop_operation_xyz
x,y,z
-x,y,1/2-z
-x,-y,-z
x,-y,1/2+z
1/2+x,1/2+y,z
1/2-x,1/2+y,1/2-z
1/2-x,1/2-y,-z
1/2+x,1/2-y,1/2+z
loop_
_atom_site_type_symbol
_atom_site_label
_atom_site_fract_x
_atom_site_fract_y
_atom_site_fract_z
Si Si1 0.929517 0.374843 0.866881
Si Si2 0.809516 0.337265 0.141797
Si Si3 0.033458 0.882886 0.054505
Si Si4 0.700181 0.587942 0.460324
Si Si5 0.815542 0.229079 0.408850
Si Si6 0.746684 0.993220 0.722616
Si Si7 0.251412 0.301950 0.254783
O O1 0.793430 0.272869 0.859586
O O2 0.898872 0.407337 0.921143
O O3 0.812089 0.445993 0.828526
O O4 0.203159 0.340888 0.867394
O O5 0.655924 0.402271 0.105706
O O6 0.774704 0.361019 0.195998
O O7 0.059729 0.318596 0.118017
O O8 0.882263 0.783826 0.060085
O O9 0.233579 0.876981 0.014478
O O10 0.875011 0.974905 0.039732
O O11 0.492524 0.660922 0.439817
O O12 0.500000 0.973339 0.750000
O O13 0.000000 0.966612 0.750000
O O14 0.764687 0.110740 0.717346
O O15 0.500000 0.246463 0.250000
O O16 0.000000 0.247420 0.250000
#
# Coordination Sequence:
#
# PCOD9294818 Si02
#       7
#     8   8   8   8   8   8   8
#     4  10  24  42  67  96 138 176 231 288 351 425
#     4  10  24  42  67  96 138 176 231 288 351 425
#     4  10  23  41  67 101 137 179 232 290 355 429
#     4  10  23  41  67 101 137 179 232 290 355 429
#     4  10  23  42  68  96 136 186 228 288 359 422
#     4  10  24  41  67  99 132 178 231 291 355 421
#     4  10  24  41  67  99 132 178 231 291 355 421
#
# _framework density 25.834554000000001
#
# number of rings (size 3 to 8) (size 9 to 14) (size 15 to 20)
#    0.000    2.000    0.000    0.429   12.000   10.857 
#    0.000    2.857    0.000    0.000    0.000    0.000 
#    0.000    0.000    0.000    0.000    0.000    0.000 
#
# Total GULP energy -156337.560597 kJ/mol
# GULP energy per Si atom -5583.484307 kJ/mol
# Density = 2.577575 g / cm^3
# Si number density = 25.834554 Si / 1000 Ang^3
#
#
#
# Elastic Constant Matrix: (Units=GPa)
#
#
# Indices 1 2 3 4 5 6 
#
# 1 119.2612 -6.2274 16.0301 0.0000 -2.3437 0.0000
# 2 -6.2274 91.0359 -9.1332 0.0000 -0.6241 0.0000
# 3 16.0301 -9.1332 73.5277 0.0000 1.9586 0.0000
# 4 0.0000 0.0000 0.0000 55.8547 0.0000 4.0537
# 5 -2.3437 -0.6241 1.9586 0.0000 26.0822 0.0000
# 6 0.0000 0.0000 0.0000 4.0537 0.0000 3.3797
#
#
#
# Elastic Compliance Matrix: (Units=1/GPa)
#
#
# Indices 1 2 3 4 5 6 
#
# 1 0.008675 0.000413 -0.001865 0.000000 0.000929 0.000000
# 2 0.000413 0.011144 0.001289 0.000000 0.000207 0.000000
# 3 -0.001865 0.001289 0.014199 0.000000 -0.001203 0.000000
# 4 0.000000 0.000000 0.000000 0.019611 0.000000 -0.023522
# 5 0.000929 0.000207 -0.001203 0.000000 0.038519 0.000000
# 6 0.000000 0.000000 0.000000 -0.023522 0.000000 0.324096
#
#
# Mechanical properties :
#
#
# Convention : Reuss Voigt Hill
#
# Bulk Modulus (GPa) = 29.68135 31.68487 30.68311
# Shear Modulus (GPa) = 11.68767 35.94035 23.81401
#
# Velocity S-wave (km/s) = 2.12929 3.73389 3.03939
# Velocity P-wave (km/s) = 4.19036 5.55701 4.92136
#
# Compressibility (1/GPa) = 0.03369119
#
# Stress axis : x y z
#
# Youngs Moduli (GPa) = 115.26806 89.73743 70.42752
#
# Poissons Ratio (x) = -0.03704 0.13134
# Poissons Ratio (y) = -0.04758 -0.09076
# Poissons Ratio (z) = 0.21496 -0.11564
#
# Static dielectric constant tensor:
#      x y z
#    x 2.225640 0.000000 0.044830 
#    y 0.000000 1.993720 0.000000 
#    z 0.044830 0.000000 2.223620 
# 
# From -- ./inp_files/305387.got.cif
#   From: 2010.05.17/outbox.cif.g08.bks.cpg/sg15_153_cif.got.tgz:305387.got - 2010.06.03 18:47:42.
