data_PCOD9294146
_publ_section_title
;
Structure prediction by ZEFSAII (Michael W. Deem and Ramdas Pophale) SiO2 
 PCOD9294146
Probable space group: C 2/C
;
_chemical_formula_sum "Si O2"
_cell_formula_units_Z 52
_cell_length_a 18.006499
_cell_length_b 22.676647
_cell_length_c 8.021793
_cell_angle_alpha 90.000000
_cell_angle_beta 50.981696
_cell_angle_gamma 90.000000
_cell_volume 2544.894473
_symmetry_space_group_name_H-M "C 2/C"
_symmetry_group_IT_number 15
_symmetry_cell_setting 'monoclinic'
loop_
_space_group_symop_operation_xyz
x,y,z
-x,y,1/2-z
-x,-y,-z
x,-y,1/2+z
1/2+x,1/2+y,z
1/2-x,1/2+y,1/2-z
1/2-x,1/2-y,-z
1/2+x,1/2-y,1/2+z
loop_
_atom_site_type_symbol
_atom_site_label
_atom_site_fract_x
_atom_site_fract_y
_atom_site_fract_z
Si Si1 0.309278 0.541772 0.694717
Si Si2 0.000000 0.070182 0.250000
Si Si3 0.956669 0.714052 0.490389
Si Si4 0.080621 0.625010 0.528420
Si Si5 0.262094 0.581261 0.130799
Si Si6 0.609292 0.661747 0.321961
Si Si7 0.278771 0.153203 0.867904
O O1 0.414612 0.536781 0.464043
O O2 0.266990 0.476667 0.739894
O O3 0.252395 0.591089 0.668503
O O4 0.303071 0.564013 0.892705
O O5 0.953458 0.111315 0.174433
O O6 0.021599 0.678403 0.530020
O O7 0.952440 0.783217 0.533937
O O8 0.847478 0.690491 0.652541
O O9 0.000000 0.702879 0.250000
O O10 0.149387 0.597557 0.290387
O O11 0.157155 0.643080 0.559446
O O12 0.000000 0.589642 0.750000
O O13 0.328036 0.632067 0.119758
O O14 0.682266 0.682778 0.072621
#
# Coordination Sequence:
#
# PCOD9294146 Si02
#       7
#     8   4   8   8   8   8   8
#     4  11  23  42  67  90 128 157 207 251 311 363
#     4  10  24  40  62  94 118 164 208 252 304 368
#     4  11  22  37  60  92 127 159 206 254 296 364
#     4   9  20  40  64  89 124 161 206 248 302 359
#     4  11  23  42  64  92 125 163 199 258 306 367
#     4  10  23  39  61  90 125 163 208 246 311 357
#     4   9  20  42  61  89 121 165 202 250 309 361
#
# _framework density 20.433067999999999
#
# number of rings (size 3 to 8) (size 9 to 14) (size 15 to 20)
#    0.000    1.846    0.000    4.154    5.385    2.462 
#    2.769   11.538    0.000    0.000    0.000    0.000 
#    0.000    0.000    0.000    0.000    0.000    0.000 
#
# Total GULP energy -145046.482742 kJ/mol
# GULP energy per Si atom -5578.710875 kJ/mol
# Density = 2.038656 g / cm^3
# Si number density = 20.433068 Si / 1000 Ang^3
#
#
#
# Elastic Constant Matrix: (Units=GPa)
#
#
# Indices 1 2 3 4 5 6 
#
# 1 67.7787 20.3702 33.6458 0.0000 -3.4257 0.0000
# 2 20.3702 63.2317 27.8404 0.0000 0.8533 0.0000
# 3 33.6458 27.8404 101.1459 0.0000 14.6146 0.0000
# 4 0.0000 0.0000 0.0000 10.3408 0.0000 -1.4459
# 5 -3.4257 0.8533 14.6146 0.0000 25.0932 0.0000
# 6 0.0000 0.0000 0.0000 -1.4459 0.0000 26.6795
#
#
#
# Elastic Compliance Matrix: (Units=1/GPa)
#
#
# Indices 1 2 3 4 5 6 
#
# 1 0.019306 -0.003490 -0.006398 0.000000 0.006481 0.000000
# 2 -0.003490 0.018769 -0.004197 0.000000 0.001330 0.000000
# 3 -0.006398 -0.004197 0.014496 0.000000 -0.009173 0.000000
# 4 0.000000 0.000000 0.000000 0.097443 0.000000 0.005281
# 5 0.006481 0.001330 -0.009173 0.000000 0.046033 0.000000
# 6 0.000000 0.000000 0.000000 0.005281 0.000000 0.037768
#
#
# Mechanical properties :
#
#
# Convention : Reuss Voigt Hill
#
# Bulk Modulus (GPa) = 40.98275 43.98545 42.48410
# Shear Modulus (GPa) = 18.51030 22.44270 20.47650
#
# Velocity S-wave (km/s) = 3.01308 3.31774 3.16907
# Velocity P-wave (km/s) = 5.67499 6.02078 5.85044
#
# Compressibility (1/GPa) = 0.02440051
#
# Stress axis : x y z
#
# Youngs Moduli (GPa) = 51.79664 53.27837 68.98589
#
# Poissons Ratio (x) = 0.18594 0.44136
# Poissons Ratio (y) = 0.18077 0.28957
# Poissons Ratio (z) = 0.33139 0.22363
#
# Static dielectric constant tensor:
#      x y z
#    x 1.721990 0.000000 -0.007720 
#    y 0.000000 1.711920 0.000000 
#    z -0.007720 0.000000 1.795600 
# 
# From -- ./inp_files/58579.got.cif
#   From: 2010.05.17/outbox.cif.g08.bks.cpg/sg15_30_cif.got.tgz:58579.got - 2010.06.03 18:47:42.
