data_PCOD9294629
_publ_section_title
;
Structure prediction by ZEFSAII (Michael W. Deem and Ramdas Pophale) SiO2 
 PCOD9294629
Probable space group: C 2/C
;
_chemical_formula_sum "Si O2"
_cell_formula_units_Z 40
_cell_length_a 9.341212
_cell_length_b 21.913436
_cell_length_c 9.866749
_cell_angle_alpha 90.000000
_cell_angle_beta 98.341655
_cell_angle_gamma 90.000000
_cell_volume 1998.336990
_symmetry_space_group_name_H-M "C 2/C"
_symmetry_group_IT_number 15
_symmetry_cell_setting 'monoclinic'
loop_
_space_group_symop_operation_xyz
x,y,z
-x,y,1/2-z
-x,-y,-z
x,-y,1/2+z
1/2+x,1/2+y,z
1/2-x,1/2+y,1/2-z
1/2-x,1/2-y,-z
1/2+x,1/2-y,1/2+z
loop_
_atom_site_type_symbol
_atom_site_label
_atom_site_fract_x
_atom_site_fract_y
_atom_site_fract_z
Si Si1 0.400562 0.513942 0.854651
Si Si2 0.676545 0.183410 0.485560
Si Si3 0.843409 0.607284 0.741385
Si Si4 0.333347 0.378358 0.753011
Si Si5 0.156036 0.689640 0.007038
O O1 0.500000 0.540549 0.750000
O O2 0.272362 0.562331 0.842728
O O3 0.341308 0.449991 0.788049
O O4 0.500000 0.500000 0.000000
O O5 0.750000 0.250000 0.500000
O O6 0.693447 0.136312 0.616298
O O7 0.752799 0.152285 0.368029
O O8 0.504037 0.195570 0.452093
O O9 0.861252 0.664498 0.645627
O O10 0.000000 0.575175 0.750000
O O11 0.500000 0.358439 0.750000
O O12 0.243689 0.358582 0.609758
O O13 0.250000 0.750000 0.000000
#
# Coordination Sequence:
#
# PCOD9294629 Si02
#       5
#     8   8   8   8   8
#     4  11  23  41  64  92 123 163 210 257 308 367
#     4  11  23  40  63  92 123 164 208 253 312 371
#     4  10  23  41  62  90 126 162 204 256 312 369
#     4  11  23  40  61  89 124 162 207 257 306 366
#     4  11  23  40  62  91 125 163 206 257 310 369
#
# _framework density 20.016646000000001
#
# number of rings (size 3 to 8) (size 9 to 14) (size 15 to 20)
#    0.000    1.200    0.000    6.600    0.000    4.800 
#    0.000    5.000    0.000    0.000    0.000    0.000 
#    0.000    0.000    0.000    0.000    0.000    0.000 
#
# Total GULP energy -111551.484259 kJ/mol
# GULP energy per Si atom -5577.574213 kJ/mol
# Density = 1.997109 g / cm^3
# Si number density = 20.016646 Si / 1000 Ang^3
#
#
#
# Elastic Constant Matrix: (Units=GPa)
#
#
# Indices 1 2 3 4 5 6 
#
# 1 178.0916 59.9783 53.9662 0.0000 1.3600 0.0000
# 2 59.9783 79.1711 21.5972 0.0000 11.4393 0.0000
# 3 53.9662 21.5972 124.1452 0.0000 -4.0478 0.0000
# 4 0.0000 0.0000 0.0000 17.6238 0.0000 5.5810
# 5 1.3600 11.4393 -4.0478 0.0000 42.4300 0.0000
# 6 0.0000 0.0000 0.0000 5.5810 0.0000 38.6739
#
#
#
# Elastic Compliance Matrix: (Units=1/GPa)
#
#
# Indices 1 2 3 4 5 6 
#
# 1 0.008329 -0.005754 -0.002586 0.000000 0.001038 0.000000
# 2 -0.005754 0.017878 -0.000762 0.000000 -0.004708 0.000000
# 3 -0.002586 -0.000762 0.009350 0.000000 0.001180 0.000000
# 4 0.000000 0.000000 0.000000 0.059459 0.000000 -0.008580
# 5 0.001038 -0.004708 0.001180 0.000000 0.024917 0.000000
# 6 0.000000 0.000000 0.000000 -0.008580 0.000000 0.027095
#
#
# Mechanical properties :
#
#
# Convention : Reuss Voigt Hill
#
# Bulk Modulus (GPa) = 57.62758 72.49903 65.06331
# Shear Modulus (GPa) = 29.23691 36.13662 32.68676
#
# Velocity S-wave (km/s) = 3.82596 4.25353 4.04540
# Velocity P-wave (km/s) = 6.95483 7.77311 7.37533
#
# Compressibility (1/GPa) = 0.01735280
#
# Stress axis : x y z
#
# Youngs Moduli (GPa) = 120.06877 55.93342 106.94999
#
# Poissons Ratio (x) = 0.32185 0.27653
# Poissons Ratio (y) = 0.69089 0.08154
# Poissons Ratio (z) = 0.31045 0.04265
#
# Static dielectric constant tensor:
#      x y z
#    x 1.762930 0.000000 0.020890 
#    y 0.000000 1.715080 0.000000 
#    z 0.020890 0.000000 1.709390 
# 
# From -- ./inp_files/23410.got.cif
#   From: 2010.05.17/outbox.cif.g08.bks.cpg/sg15_12_cif.got.tgz:23410.got - 2010.06.03 18:47:42.
