data_PCOD9294824
_publ_section_title
;
Structure prediction by ZEFSAII (Michael W. Deem and Ramdas Pophale) SiO2 
 PCOD9294824
Probable space group: C 2/C
;
_chemical_formula_sum "Si O2"
_cell_formula_units_Z 40
_cell_length_a 8.449109
_cell_length_b 19.963748
_cell_length_c 13.873002
_cell_angle_alpha 90.000000
_cell_angle_beta 137.164868
_cell_angle_gamma 90.000000
_cell_volume 1590.972901
_symmetry_space_group_name_H-M "C 2/C"
_symmetry_group_IT_number 15
_symmetry_cell_setting 'monoclinic'
loop_
_space_group_symop_operation_xyz
x,y,z
-x,y,1/2-z
-x,-y,-z
x,-y,1/2+z
1/2+x,1/2+y,z
1/2-x,1/2+y,1/2-z
1/2-x,1/2-y,-z
1/2+x,1/2-y,1/2+z
loop_
_atom_site_type_symbol
_atom_site_label
_atom_site_fract_x
_atom_site_fract_y
_atom_site_fract_z
Si Si1 0.239339 0.261591 0.607520
Si Si2 0.195607 0.920356 0.656521
Si Si3 0.635835 0.679416 0.974950
Si Si4 0.476711 0.100584 0.017318
Si Si5 0.661700 0.948909 0.404682
O O1 0.500000 0.277844 0.750000
O O2 0.250000 0.250000 0.500000
O O3 0.079960 0.326134 0.546348
O O4 0.129527 0.200864 0.621564
O O5 0.234584 0.850259 0.619134
O O6 0.354241 0.925083 0.821398
O O7 0.917682 0.921986 0.547542
O O8 0.265393 0.981185 0.615837
O O9 0.750000 0.750000 0.000000
O O10 0.714202 0.620378 0.935831
O O11 0.514752 0.057879 0.937757
O O12 0.500000 0.915387 0.250000
#
# Coordination Sequence:
#
# PCOD9294824 Si02
#       5
#     8   8   8   8   8
#     4  11  23  41  69 102 143 188 232 286 356 433
#     4  11  24  45  71  99 138 189 242 288 358 440
#     4  10  23  41  67 103 136 180 236 287 344 426
#     4  11  23  45  72 100 143 192 236 293 368 434
#     4  11  25  44  70 103 139 184 242 302 356 421
#
# _framework density 25.141849000000001
#
# number of rings (size 3 to 8) (size 9 to 14) (size 15 to 20)
#    0.000    1.200    0.000    6.000    0.000    8.000 
#    0.000   16.000    0.000    0.000    0.000    0.000 
#    0.000    4.800    0.000    0.000    0.000    0.000 
#
# Total GULP energy -111668.567250 kJ/mol
# GULP energy per Si atom -5583.428363 kJ/mol
# Density = 2.508463 g / cm^3
# Si number density = 25.141849 Si / 1000 Ang^3
#
#
#
# Elastic Constant Matrix: (Units=GPa)
#
#
# Indices 1 2 3 4 5 6 
#
# 1 151.1354 55.8763 24.2774 -0.0001 -10.5657 0.0000
# 2 55.8763 100.5215 21.0705 0.0002 -15.6321 0.0001
# 3 24.2774 21.0705 44.7337 -0.0017 -17.7977 -0.0016
# 4 -0.0001 0.0002 -0.0017 33.2538 -0.0007 -3.3371
# 5 -10.5657 -15.6321 -17.7977 -0.0007 55.2151 -0.0005
# 6 0.0000 0.0001 -0.0016 -3.3371 -0.0005 54.4398
#
#
#
# Elastic Compliance Matrix: (Units=1/GPa)
#
#
# Indices 1 2 3 4 5 6 
#
# 1 0.008620 -0.004267 -0.002859 0.000000 -0.000480 0.000000
# 2 -0.004267 0.013285 -0.003178 0.000000 0.001920 0.000000
# 3 -0.002859 -0.003178 0.028480 0.000002 0.007733 0.000001
# 4 0.000000 0.000000 0.000002 0.030258 0.000001 0.001855
# 5 -0.000480 0.001920 0.007733 0.000001 0.021055 0.000000
# 6 0.000000 0.000000 0.000001 0.001855 0.000000 0.018483
#
#
# Mechanical properties :
#
#
# Convention : Reuss Voigt Hill
#
# Bulk Modulus (GPa) = 33.58351 55.42656 44.50503
# Shear Modulus (GPa) = 33.17561 41.59284 37.38422
#
# Velocity S-wave (km/s) = 3.63648 4.07175 3.86026
# Velocity P-wave (km/s) = 5.56944 6.64823 6.13260
#
# Compressibility (1/GPa) = 0.02977652
#
# Stress axis : x y z
#
# Youngs Moduli (GPa) = 116.01227 75.27542 35.11263
#
# Poissons Ratio (x) = 0.32118 0.10040
# Poissons Ratio (y) = 0.49499 0.11158
# Poissons Ratio (z) = 0.33172 0.23920
#
# Static dielectric constant tensor:
#      x y z
#    x 1.875500 0.000000 0.055720 
#    y 0.000000 2.058590 0.000000 
#    z 0.055720 0.000000 1.908810 
# 
# From -- ./inp_files/119775.got.cif
#   From: 2010.05.17/outbox.cif.g08.bks.cpg/sg15_60_cif.got.tgz:119775.got - 2010.06.03 18:47:42.
