data_PCOD9294184
_publ_section_title
;
Structure prediction by ZEFSAII (Michael W. Deem and Ramdas Pophale) SiO2 
 PCOD9294184
Probable space group: C 2/C
;
_chemical_formula_sum "Si O2"
_cell_formula_units_Z 48
_cell_length_a 4.989970
_cell_length_b 25.901602
_cell_length_c 16.169729
_cell_angle_alpha 90.000000
_cell_angle_beta 64.820684
_cell_angle_gamma 90.000000
_cell_volume 1891.326988
_symmetry_space_group_name_H-M "C 2/C"
_symmetry_group_IT_number 15
_symmetry_cell_setting 'monoclinic'
loop_
_space_group_symop_operation_xyz
x,y,z
-x,y,1/2-z
-x,-y,-z
x,-y,1/2+z
1/2+x,1/2+y,z
1/2-x,1/2+y,1/2-z
1/2-x,1/2-y,-z
1/2+x,1/2-y,1/2+z
loop_
_atom_site_type_symbol
_atom_site_label
_atom_site_fract_x
_atom_site_fract_y
_atom_site_fract_z
Si Si1 0.194426 0.449359 0.394048
Si Si2 0.983920 0.803398 0.486454
Si Si3 0.567271 0.582410 0.001086
Si Si4 0.229824 0.661943 0.844504
Si Si5 0.423834 0.736763 0.353168
Si Si6 0.849404 0.042101 0.196527
O O1 0.348312 0.430251 0.456518
O O2 0.189201 0.399205 0.335536
O O3 0.406267 0.495605 0.339179
O O4 0.846793 0.456546 0.457009
O O5 0.164025 0.857898 0.482777
O O6 0.098787 0.746816 0.436730
O O7 0.803214 0.824269 0.430179
O O8 0.902077 0.790503 0.594143
O O9 0.390631 0.572850 0.107382
O O10 0.500000 0.677051 0.750000
O O11 0.989598 0.702023 0.844559
O O12 0.500000 0.717988 0.250000
O O13 0.500000 0.027808 0.250000
O O14 0.000000 0.074989 0.250000
#
# Coordination Sequence:
#
# PCOD9294184 Si02
#       6
#     8   8   8   8   8   8
#     4  11  23  41  68  96 131 175 227 279 343 400
#     4  10  23  39  63  92 130 180 224 277 340 407
#     4  11  23  44  67  96 131 183 225 276 337 414
#     4  11  21  37  61  94 130 170 223 287 340 403
#     4  11  21  40  63  92 133 171 225 281 340 402
#     4  12  25  43  66  99 137 173 222 282 339 408
#
# _framework density 25.379006
#
# number of rings (size 3 to 8) (size 9 to 14) (size 15 to 20)
#    0.000    1.000    3.333    4.000    0.000    0.667 
#    0.000    0.833    0.000    0.000    0.000    0.000 
#    0.000    0.000    0.000    0.000    0.000    0.000 
#
# Total GULP energy -133629.112634 kJ/mol
# GULP energy per Si atom -5567.879693 kJ/mol
# Density = 2.532124 g / cm^3
# Si number density = 25.379006 Si / 1000 Ang^3
#
#
#
# Elastic Constant Matrix: (Units=GPa)
#
#
# Indices 1 2 3 4 5 6 
#
# 1 130.4153 -1.6417 27.0673 0.0000 -21.1470 0.0000
# 2 -1.6417 73.6075 15.3417 0.0000 -6.7609 0.0000
# 3 27.0673 15.3417 162.8506 0.0000 13.7117 0.0000
# 4 0.0000 0.0000 0.0000 23.4504 0.0000 -16.6827
# 5 -21.1470 -6.7609 13.7117 0.0000 69.5024 0.0000
# 6 0.0000 0.0000 0.0000 -16.6827 0.0000 -33.0545
#
#
#
# Elastic Compliance Matrix: (Units=1/GPa)
#
#
# Indices 1 2 3 4 5 6 
#
# 1 0.008532 0.000833 -0.001751 0.000000 0.003022 0.000000
# 2 0.000833 0.014124 -0.001633 0.000000 0.001949 0.000000
# 3 -0.001751 -0.001633 0.006756 0.000000 -0.002024 0.000000
# 4 0.000000 0.000000 0.000000 0.031377 0.000000 -0.015836
# 5 0.003022 0.001949 -0.002024 0.000000 0.015897 0.000000
# 6 0.000000 0.000000 0.000000 -0.015836 0.000000 -0.022261
#
#
# Mechanical properties :
#
#
# Convention : Reuss Voigt Hill
#
# Bulk Modulus (GPa) = 41.13737 49.82310 45.48024
# Shear Modulus (GPa) = 73.93148 33.72007 53.82577
#
# Velocity S-wave (km/s) = 5.40317 3.64903 4.61030
# Velocity P-wave (km/s) = 7.42765 6.11786 6.80434
#
# Compressibility (1/GPa) = 0.02430880
#
# Stress axis : x y z
#
# Youngs Moduli (GPa) = 117.20872 70.80348 148.01802
#
# Poissons Ratio (x) = -0.05897 0.25918
# Poissons Ratio (y) = -0.09762 0.24173
# Poissons Ratio (z) = 0.20523 0.11563
#
# Static dielectric constant tensor:
#      x y z
#    x 0.742980 0.000000 1.537890 
#    y 0.000000 1.941710 0.000000 
#    z 1.537890 0.000000 0.095320 
# 
# From -- ./inp_files/130581.got.cif
#   From: 2010.05.17/outbox.cif.g08.bks.cpg/sg15_66_cif.got.tgz:130581.got - 2010.06.03 18:47:42.
