data_PCOD9294008
_publ_section_title
;
Structure prediction by ZEFSAII (Michael W. Deem and Ramdas Pophale) SiO2 
 PCOD9294008
Probable space group: C 2/C
;
_chemical_formula_sum "Si O2"
_cell_formula_units_Z 60
_cell_length_a 18.207477
_cell_length_b 21.900309
_cell_length_c 8.921765
_cell_angle_alpha 90.000000
_cell_angle_beta 123.467699
_cell_angle_gamma 90.000000
_cell_volume 2967.695494
_symmetry_space_group_name_H-M "C 2/C"
_symmetry_group_IT_number 15
_symmetry_cell_setting 'monoclinic'
loop_
_space_group_symop_operation_xyz
x,y,z
-x,y,1/2-z
-x,-y,-z
x,-y,1/2+z
1/2+x,1/2+y,z
1/2-x,1/2+y,1/2-z
1/2-x,1/2-y,-z
1/2+x,1/2-y,1/2+z
loop_
_atom_site_type_symbol
_atom_site_label
_atom_site_fract_x
_atom_site_fract_y
_atom_site_fract_z
Si Si1 0.228690 0.197203 0.171267
Si Si2 0.528309 0.312179 0.477153
Si Si3 0.338265 0.316692 0.211873
Si Si4 0.198815 0.995440 0.406093
Si Si5 0.249343 0.411155 0.283563
Si Si6 0.310251 0.811948 0.057934
Si Si7 0.574470 0.453445 0.523065
Si Si8 0.000000 0.254503 0.250000
O O1 0.126871 0.216414 0.081237
O O2 0.290911 0.255835 0.217568
O O3 0.268653 0.160940 0.356760
O O4 0.218353 0.164715 0.998679
O O5 0.438242 0.301760 0.281550
O O6 0.543270 0.384380 0.491123
O O7 0.496796 0.288139 0.602429
O O8 0.334667 0.371300 0.327932
O O9 0.262806 0.949944 0.384326
O O10 0.117059 0.965651 0.407525
O O11 0.242267 0.038744 0.578106
O O12 0.153327 0.036551 0.228428
O O13 0.195686 0.356733 0.305298
O O14 0.411143 0.793853 0.150530
O O15 0.250000 0.750000 0.000000
O O16 0.500000 0.500000 0.500000
#
# Coordination Sequence:
#
# PCOD9294008 Si02
#       8
#     8   8   8   8   8   8   8   4
#     4  11  23  38  59  91 127 173 217 254 326 390
#     4  12  22  36  59  87 130 173 209 259 312 386
#     4  11  23  38  59  90 130 173 209 267 313 391
#     4  10  23  38  57  91 120 178 222 265 320 383
#     4  11  22  42  64  87 131 162 228 275 324 391
#     4  12  22  43  65  97 129 175 216 276 336 398
#     4  11  23  34  55  85 131 173 219 256 310 383
#     4  12  24  36  66  98 124 168 220 262 344 400
#
# _framework density 20.217707000000001
#
# number of rings (size 3 to 8) (size 9 to 14) (size 15 to 20)
#    0.000    0.800    4.000    4.000    3.733    2.133 
#    0.000    0.000    0.000    0.800    0.000    0.000 
#    0.000    0.000    0.000    0.000    0.000    0.000 
#
# Total GULP energy -167083.615630 kJ/mol
# GULP energy per Si atom -5569.453854 kJ/mol
# Density = 2.017169 g / cm^3
# Si number density = 20.217707 Si / 1000 Ang^3
#
#
#
# Elastic Constant Matrix: (Units=GPa)
#
#
# Indices 1 2 3 4 5 6 
#
# 1 124.1031 63.1756 34.7719 0.0000 5.7495 0.0000
# 2 63.1756 100.2843 26.5792 0.0000 -0.7774 0.0000
# 3 34.7719 26.5792 87.6016 0.0000 -4.5353 0.0000
# 4 0.0000 0.0000 0.0000 30.3824 0.0000 -13.6778
# 5 5.7495 -0.7774 -4.5353 0.0000 32.8286 0.0000
# 6 0.0000 0.0000 0.0000 -13.6778 0.0000 45.6983
#
#
#
# Elastic Compliance Matrix: (Units=1/GPa)
#
#
# Indices 1 2 3 4 5 6 
#
# 1 0.012710 -0.007235 -0.002996 0.000000 -0.002811 0.000000
# 2 -0.007235 0.014963 -0.001596 0.000000 0.001401 0.000000
# 3 -0.002996 -0.001596 0.013208 0.000000 0.002312 0.000000
# 4 0.000000 0.000000 0.000000 0.038039 0.000000 0.011385
# 5 -0.002811 0.001401 0.002312 0.000000 0.031306 0.000000
# 6 0.000000 0.000000 0.000000 0.011385 0.000000 0.025290
#
#
# Mechanical properties :
#
#
# Convention : Reuss Voigt Hill
#
# Bulk Modulus (GPa) = 58.04030 62.33804 60.18917
# Shear Modulus (GPa) = 30.31903 34.27937 32.29920
#
# Velocity S-wave (km/s) = 3.87670 4.12213 4.00130
# Velocity P-wave (km/s) = 6.98630 7.31821 7.15418
#
# Compressibility (1/GPa) = 0.01722941
#
# Stress axis : x y z
#
# Youngs Moduli (GPa) = 78.67590 66.83067 75.71083
#
# Poissons Ratio (x) = 0.48352 0.22679
# Poissons Ratio (y) = 0.56922 0.12081
# Poissons Ratio (z) = 0.23568 0.10664
#
# Static dielectric constant tensor:
#      x y z
#    x 1.759110 0.000000 -0.066860 
#    y 0.000000 1.742710 0.000000 
#    z -0.066860 0.000000 1.842970 
# 
# From -- ./inp_files/50676.got.cif
#   From: 2010.05.17/outbox.cif.g08.bks.cpg/sg15_26_cif.got.tgz:50676.got - 2010.06.03 18:47:42.
