data_PCOD9294442
_publ_section_title
;
Structure prediction by ZEFSAII (Michael W. Deem and Ramdas Pophale) SiO2 
 PCOD9294442
Probable space group: C 2/C
;
_chemical_formula_sum "Si O2"
_cell_formula_units_Z 24
_cell_length_a 10.135193
_cell_length_b 21.595919
_cell_length_c 5.101026
_cell_angle_alpha 90.000000
_cell_angle_beta 69.269848
_cell_angle_gamma 90.000000
_cell_volume 1044.221494
_symmetry_space_group_name_H-M "C 2/C"
_symmetry_group_IT_number 15
_symmetry_cell_setting 'monoclinic'
loop_
_space_group_symop_operation_xyz
x,y,z
-x,y,1/2-z
-x,-y,-z
x,-y,1/2+z
1/2+x,1/2+y,z
1/2-x,1/2+y,1/2-z
1/2-x,1/2-y,-z
1/2+x,1/2-y,1/2+z
loop_
_atom_site_type_symbol
_atom_site_label
_atom_site_fract_x
_atom_site_fract_y
_atom_site_fract_z
Si Si1 0.650876 0.348104 0.020647
Si Si2 0.907091 0.717019 0.581775
Si Si3 0.852592 0.456964 0.758854
O O1 0.500000 0.362807 0.250000
O O2 0.763653 0.320324 0.147097
O O3 0.631126 0.289244 0.842775
O O4 0.726368 0.408548 0.859550
O O5 0.000000 0.691373 0.750000
O O6 0.000000 0.717299 0.250000
O O7 0.847727 0.488044 0.477489
O O8 0.000000 0.425255 0.750000
#
# Coordination Sequence:
#
# PCOD9294442 Si02
#       3
#     8   8   8
#     4  10  23  40  65  96 126 159 206 260 308 357
#     4  10  23  42  64  91 127 168 203 245 308 376
#     4  10  23  42  63  87 120 165 208 248 304 371
#
# _framework density 22.983630000000002
#
# number of rings (size 3 to 8) (size 9 to 14) (size 15 to 20)
#    0.000    2.000    0.000    1.000    0.000   26.667 
#    0.000    0.000    0.000    0.000    0.000    0.000 
#    0.000    0.000    0.000    0.000    0.000    0.000 
#
# Total GULP energy -67132.782860 kJ/mol
# GULP energy per Si atom -5594.398572 kJ/mol
# Density = 2.293132 g / cm^3
# Si number density = 22.983630 Si / 1000 Ang^3
#
#
#
# Elastic Constant Matrix: (Units=GPa)
#
#
# Indices 1 2 3 4 5 6 
#
# 1 153.6376 19.1537 41.7713 0.0000 -20.4313 0.0000
# 2 19.1537 73.6680 19.6179 0.0000 -29.0829 0.0000
# 3 41.7713 19.6179 89.4863 0.0000 -7.7568 0.0000
# 4 0.0000 0.0000 0.0000-3574.0502 0.0000 4419.0822
# 5 -20.4313 -29.0829 -7.7568 0.0000 50.0091 0.0000
# 6 0.0000 0.0000 0.0000 4419.0822 0.0000-5477.1387
#
#
#
# Elastic Compliance Matrix: (Units=1/GPa)
#
#
# Indices 1 2 3 4 5 6 
#
# 1 0.007788 -0.000096 -0.003389 0.000000 0.002600 0.000000
# 2 -0.000096 0.018462 -0.003117 0.000000 0.010214 0.000000
# 3 -0.003389 -0.003117 0.013342 0.000000 -0.001128 0.000000
# 4 0.000000 0.000000 0.000000 -0.115842 0.000000 -0.093464
# 5 0.002600 0.010214 -0.001128 0.000000 0.026824 0.000000
# 6 0.000000 0.000000 0.000000 -0.093464 0.000000 -0.075591
#
#
# Mechanical properties :
#
#
# Convention : Reuss Voigt Hill
#
# Bulk Modulus (GPa) = 37.89584 53.09753 45.49668
# Shear Modulus (GPa) = -48.53570 -1784.48604 -916.51087
#
# Velocity S-wave (km/s) = -4.60036 -27.89447 -19.99081
# Velocity P-wave (km/s) = 3.41962 31.84833 22.64962
#
# Compressibility (1/GPa) = 0.02638812
#
# Stress axis : x y z
#
# Youngs Moduli (GPa) = 128.40321 54.16624 74.94884
#
# Poissons Ratio (x) = 0.00519 0.25400
# Poissons Ratio (y) = 0.01230 0.23364
# Poissons Ratio (z) = 0.43515 0.16885
#
# Static dielectric constant tensor:
#      x y z
#    x 1.871890 0.000000 -0.014770 
#    y 0.000000 1.866740 0.000000 
#    z -0.014770 0.000000 1.884030 
# 
# From -- ./inp_files/1333.got.cif
#   From: 2010.05.17/outbox.cif.g08.bks.cpg/sg15_1_cif.got.tgz:1333.got - 2010.06.03 18:47:42.
