data_PCOD9294463
_publ_section_title
;
Structure prediction by ZEFSAII (Michael W. Deem and Ramdas Pophale) SiO2 
 PCOD9294463
Probable space group: C 2/C
;
_chemical_formula_sum "Si O2"
_cell_formula_units_Z 32
_cell_length_a 13.166917
_cell_length_b 4.779173
_cell_length_c 23.354758
_cell_angle_alpha 90.000000
_cell_angle_beta 57.798220
_cell_angle_gamma 90.000000
_cell_volume 1243.578595
_symmetry_space_group_name_H-M "C 2/C"
_symmetry_group_IT_number 15
_symmetry_cell_setting 'monoclinic'
loop_
_space_group_symop_operation_xyz
x,y,z
-x,y,1/2-z
-x,-y,-z
x,-y,1/2+z
1/2+x,1/2+y,z
1/2-x,1/2+y,1/2-z
1/2-x,1/2-y,-z
1/2+x,1/2-y,1/2+z
loop_
_atom_site_type_symbol
_atom_site_label
_atom_site_fract_x
_atom_site_fract_y
_atom_site_fract_z
Si Si1 0.433112 0.784465 0.952040
Si Si2 0.682873 0.169696 0.791310
Si Si3 0.082535 0.215862 0.120576
Si Si4 0.682060 0.489613 0.407926
O O1 0.415439 0.604344 0.899403
O O2 0.567258 0.711188 0.932398
O O3 0.416863 0.104205 0.939071
O O4 0.345570 0.669996 0.026878
O O5 0.774434 0.352947 0.726097
O O6 0.545638 0.211466 0.813213
O O7 0.690715 0.300006 0.852049
O O8 0.197164 0.314546 0.120573
#
# Coordination Sequence:
#
# PCOD9294463 Si02
#       4
#     8   8   8   8
#     4  10  23  40  66 102 127 151 204 261 318 385
#     4  11  25  44  61  88 128 169 218 257 293 366
#     4  11  23  42  67  95 125 162 207 257 317 376
#     4  10  23  42  68  93 128 166 199 260 322 362
#
# _framework density 25.732188000000001
#
# number of rings (size 3 to 8) (size 9 to 14) (size 15 to 20)
#    0.000    1.500    0.000    4.500    0.000   18.000 
#    0.000    7.500    0.000    0.000    0.000    0.000 
#    0.000    0.000    0.000    0.000    0.000    0.000 
#
# Total GULP energy -89887.791755 kJ/mol
# GULP energy per Si atom -5617.986985 kJ/mol
# Density = 2.567362 g / cm^3
# Si number density = 25.732188 Si / 1000 Ang^3
#
#
#
# Elastic Constant Matrix: (Units=GPa)
#
#
# Indices 1 2 3 4 5 6 
#
# 1 142.0481 3.2035 26.4122 0.0033 -43.6050 0.0071
# 2 3.2035 86.2753 5.0827 0.0223 -3.5031 0.0265
# 3 26.4122 5.0827 80.4285 0.0055 -23.8605 0.0080
# 4 0.0033 0.0223 0.0055 45.9725 0.0004 -2.3781
# 5 -43.6050 -3.5031 -23.8605 0.0004 42.5738 0.0029
# 6 0.0071 0.0265 0.0080 -2.3781 0.0029 39.8227
#
#
#
# Elastic Compliance Matrix: (Units=1/GPa)
#
#
# Indices 1 2 3 4 5 6 
#
# 1 0.010275 0.000057 -0.000305 -0.000001 0.010357 -0.000003
# 2 0.000057 0.011650 -0.000544 -0.000006 0.000712 -0.000008
# 3 -0.000305 -0.000544 0.014947 -0.000002 0.008020 -0.000003
# 4 -0.000001 -0.000006 -0.000002 0.021820 -0.000003 0.001303
# 5 0.010357 0.000712 0.008020 -0.000003 0.038650 -0.000007
# 6 -0.000003 -0.000008 -0.000003 0.001303 -0.000007 0.025189
#
#
# Mechanical properties :
#
#
# Convention : Reuss Voigt Hill
#
# Bulk Modulus (GPa) = 28.33808 42.01652 35.17730
# Shear Modulus (GPa) = 36.79809 43.94401 40.37105
#
# Velocity S-wave (km/s) = 3.78569 4.13697 3.96522
# Velocity P-wave (km/s) = 5.49047 6.25965 5.88763
#
# Compressibility (1/GPa) = 0.03528820
#
# Stress axis : x y z
#
# Youngs Moduli (GPa) = 97.32613 85.83957 66.90219
#
# Poissons Ratio (x) = -0.00489 0.02041
# Poissons Ratio (y) = -0.00555 0.03637
# Poissons Ratio (z) = 0.02969 0.04666
#
# Static dielectric constant tensor:
#      x y z
#    x 2.003450 0.000000 0.006610 
#    y 0.000000 1.925480 0.000000 
#    z 0.006610 0.000000 2.028830 
# 
# From -- ./inp_files/241245.got.cif
#   From: 2010.05.17/outbox.cif.g08.bks.cpg/sg15_121_cif.got.tgz:241245.got - 2010.06.03 18:47:42.
