data_PCOD9294259
_publ_section_title
;
Structure prediction by ZEFSAII (Michael W. Deem and Ramdas Pophale) SiO2 
 PCOD9294259
Probable space group: C 2/C
;
_chemical_formula_sum "Si O2"
_cell_formula_units_Z 60
_cell_length_a 10.711491
_cell_length_b 24.051147
_cell_length_c 17.736053
_cell_angle_alpha 90.000000
_cell_angle_beta 138.766652
_cell_angle_gamma 90.000000
_cell_volume 3011.701903
_symmetry_space_group_name_H-M "C 2/C"
_symmetry_group_IT_number 15
_symmetry_cell_setting 'monoclinic'
loop_
_space_group_symop_operation_xyz
x,y,z
-x,y,1/2-z
-x,-y,-z
x,-y,1/2+z
1/2+x,1/2+y,z
1/2-x,1/2+y,1/2-z
1/2-x,1/2-y,-z
1/2+x,1/2-y,1/2+z
loop_
_atom_site_type_symbol
_atom_site_label
_atom_site_fract_x
_atom_site_fract_y
_atom_site_fract_z
Si Si1 0.719812 0.221256 0.874608
Si Si2 0.828264 0.583327 0.864027
Si Si3 0.193264 0.662927 0.025251
Si Si4 0.784885 0.575493 0.014376
Si Si5 0.000000 0.089219 0.250000
Si Si6 0.670082 0.035602 0.197170
Si Si7 0.602165 0.620524 0.616358
Si Si8 0.717073 0.484540 0.093755
O O1 0.500000 0.226166 0.750000
O O2 0.811665 0.281803 0.925382
O O3 0.836872 0.182984 0.870672
O O4 0.726122 0.188675 0.957280
O O5 0.886315 0.519928 0.873782
O O6 0.681385 0.599956 0.732370
O O7 0.740650 0.583315 0.907127
O O8 0.005631 0.625183 0.940708
O O9 0.364824 0.626075 0.135244
O O10 0.775371 0.512447 0.042377
O O11 0.011636 0.584022 0.123143
O O12 0.623809 0.608825 0.987328
O O13 0.136782 0.054954 0.255665
O O14 0.690602 0.015488 0.292852
O O15 0.717406 0.581094 0.609016
O O16 0.500000 0.500000 0.000000
#
# Coordination Sequence:
#
# PCOD9294259 Si02
#       8
#     8   8   8   8   4   8   8   8
#     4  11  23  44  70  97 124 169 231 285 329 381
#     4  11  23  40  65  94 130 174 212 268 329 405
#     4  11  25  43  68  96 131 167 221 284 331 383
#     4  11  22  39  58  95 130 169 214 268 325 394
#     4  12  26  40  66 100 134 174 212 274 332 386
#     4  11  25  37  62  95 137 174 214 259 331 405
#     4  10  23  39  67  90 128 172 224 267 328 395
#     4   9  22  37  58  89 131 175 211 256 318 405
#
# _framework density 19.922291000000001
#
# number of rings (size 3 to 8) (size 9 to 14) (size 15 to 20)
#    0.000    1.333    3.333    1.200   11.200    0.000 
#    0.000    0.667    0.000    0.000    0.000    0.000 
#    0.000    0.000    0.000    0.000    0.000    0.000 
#
# Total GULP energy -167361.007838 kJ/mol
# GULP energy per Si atom -5578.700261 kJ/mol
# Density = 1.987695 g / cm^3
# Si number density = 19.922291 Si / 1000 Ang^3
#
#
#
# Elastic Constant Matrix: (Units=GPa)
#
#
# Indices 1 2 3 4 5 6 
#
# 1 89.1586 40.4502 5.7407 -0.0011 17.1442 0.0000
# 2 40.4502 105.7697 35.7097 -0.0002 8.4072 0.0001
# 3 5.7407 35.7097 57.7066 -0.0053 18.8012 -0.0003
# 4 -0.0011 -0.0002 -0.0053 25.9023 -0.0022 5.4479
# 5 17.1442 8.4072 18.8012 -0.0022 33.0351 0.0000
# 6 0.0000 0.0001 -0.0003 5.4479 0.0000 16.0191
#
#
#
# Elastic Compliance Matrix: (Units=1/GPa)
#
#
# Indices 1 2 3 4 5 6 
#
# 1 0.016153 -0.007512 0.006322 0.000001 -0.010069 0.000000
# 2 -0.007512 0.015500 -0.010839 -0.000002 0.006122 0.000000
# 3 0.006322 -0.010839 0.028945 0.000005 -0.016996 -0.000001
# 4 0.000001 -0.000002 0.000005 0.041581 0.000000 -0.014141
# 5 -0.010069 0.006122 -0.016996 0.000000 0.043611 0.000000
# 6 0.000000 0.000000 -0.000001 -0.014141 0.000000 0.067235
#
#
# Mechanical properties :
#
#
# Convention : Reuss Voigt Hill
#
# Bulk Modulus (GPa) = 27.36682 46.27065 36.81873
# Shear Modulus (GPa) = 20.05920 26.37358 23.21639
#
# Velocity S-wave (km/s) = 3.17657 3.64238 3.41742
# Velocity P-wave (km/s) = 5.21735 6.40041 5.83892
#
# Compressibility (1/GPa) = 0.03654060
#
# Stress axis : x y z
#
# Youngs Moduli (GPa) = 61.90787 64.51605 34.54839
#
# Poissons Ratio (x) = 0.48462 -0.21842
# Poissons Ratio (y) = 0.46502 0.37447
# Poissons Ratio (z) = -0.39138 0.69930
#
# Static dielectric constant tensor:
#      x y z
#    x 1.683440 0.000000 0.054430 
#    y 0.000000 1.696050 0.000000 
#    z 0.054430 0.000000 1.730780 
# 
# From -- ./inp_files/200948.got.cif
#   From: 2010.05.17/outbox.cif.g08.bks.cpg/sg15_101_cif.got.tgz:200948.got - 2010.06.03 18:47:42.
