data_PCOD9294783
_publ_section_title
;
Structure prediction by ZEFSAII (Michael W. Deem and Ramdas Pophale) SiO2 
 PCOD9294783
Probable space group: C 2/C
;
_chemical_formula_sum "Si O2"
_cell_formula_units_Z 32
_cell_length_a 18.111884
_cell_length_b 16.430367
_cell_length_c 5.029663
_cell_angle_alpha 90.000000
_cell_angle_beta 113.401796
_cell_angle_gamma 90.000000
_cell_volume 1373.632224
_symmetry_space_group_name_H-M "C 2/C"
_symmetry_group_IT_number 15
_symmetry_cell_setting 'monoclinic'
loop_
_space_group_symop_operation_xyz
x,y,z
-x,y,1/2-z
-x,-y,-z
x,-y,1/2+z
1/2+x,1/2+y,z
1/2-x,1/2+y,1/2-z
1/2-x,1/2-y,-z
1/2+x,1/2-y,1/2+z
loop_
_atom_site_type_symbol
_atom_site_label
_atom_site_fract_x
_atom_site_fract_y
_atom_site_fract_z
Si Si1 0.000000 0.679422 0.750000
Si Si2 0.394129 0.945632 0.784702
Si Si3 0.705749 0.441211 0.534649
Si Si4 0.000000 0.942243 0.750000
Si Si5 0.921405 0.820056 0.948607
O O1 0.949185 0.626134 0.470952
O O2 0.936374 0.733011 0.832764
O O3 0.300568 0.921457 0.675067
O O4 0.407741 0.978933 0.508097
O O5 0.689908 0.493416 0.247020
O O6 0.653875 0.358956 0.503643
O O7 0.071338 0.880124 0.793851
O O8 0.000000 0.000000 0.500000
O O9 0.000000 0.830665 0.250000
#
# Coordination Sequence:
#
# PCOD9294783 Si02
#       5
#     4   8   8   4   8
#     4  11  26  40  66  95 130 164 212 259 322 386
#     4  10  23  46  70  93 116 164 219 272 313 361
#     4  10  23  41  66  92 126 166 215 259 306 370
#     4  11  20  34  56  81 118 168 210 243 282 356
#     4  11  25  38  58  98 133 172 200 251 324 375
#
# _framework density 23.295902999999999
#
# number of rings (size 3 to 8) (size 9 to 14) (size 15 to 20)
#    0.000    1.500    1.250    2.250   10.500    1.000 
#    0.000    1.250    0.000    0.000    0.000    0.000 
#    0.000    0.000    0.000    0.000    0.000    0.000 
#
# Total GULP energy -89406.228743 kJ/mol
# GULP energy per Si atom -5587.889296 kJ/mol
# Density = 2.324288 g / cm^3
# Si number density = 23.295903 Si / 1000 Ang^3
#
#
#
# Elastic Constant Matrix: (Units=GPa)
#
#
# Indices 1 2 3 4 5 6 
#
# 1 97.8355 47.7078 35.9523 0.0000 7.8798 0.0000
# 2 47.7078 105.4880 26.5901 0.0000 15.9299 0.0000
# 3 35.9523 26.5901 115.2877 0.0000 -10.7913 0.0000
# 4 0.0000 0.0000 0.0000 28.3664 0.0000 2.7929
# 5 7.8798 15.9299 -10.7913 0.0000 47.9319 0.0000
# 6 0.0000 0.0000 0.0000 2.7929 0.0000 24.6921
#
#
#
# Elastic Compliance Matrix: (Units=1/GPa)
#
#
# Indices 1 2 3 4 5 6 
#
# 1 0.014158 -0.005379 -0.003294 0.000000 -0.001282 0.000000
# 2 -0.005379 0.012899 -0.001651 0.000000 -0.003774 0.000000
# 3 -0.003294 -0.001651 0.010403 0.000000 0.003432 0.000000
# 4 0.000000 0.000000 0.000000 0.035650 0.000000 -0.004032
# 5 -0.001282 -0.003774 0.003432 0.000000 0.023101 0.000000
# 6 0.000000 0.000000 0.000000 -0.004032 0.000000 0.040955
#
#
# Mechanical properties :
#
#
# Convention : Reuss Voigt Hill
#
# Bulk Modulus (GPa) = 59.48389 59.90129 59.69259
# Shear Modulus (GPa) = 30.59634 34.08882 32.34258
#
# Velocity S-wave (km/s) = 3.62799 3.82946 3.73008
# Velocity P-wave (km/s) = 6.56805 6.73216 6.65061
#
# Compressibility (1/GPa) = 0.01681127
#
# Stress axis : x y z
#
# Youngs Moduli (GPa) = 70.63055 77.52806 96.12302
#
# Poissons Ratio (x) = 0.41704 0.31668
# Poissons Ratio (y) = 0.37994 0.15867
# Poissons Ratio (z) = 0.23269 0.12798
#
# Static dielectric constant tensor:
#      x y z
#    x 2.012820 0.000000 0.031020 
#    y 0.000000 1.904650 0.000000 
#    z 0.031020 0.000000 1.942620 
# 
# From -- ./inp_files/12647.got.cif
#   From: 2010.05.17/outbox.cif.g08.bks.cpg/sg15_7_cif.got.tgz:12647.got - 2010.06.03 18:47:42.
