data_PCOD9294093
_publ_section_title
;
Structure prediction by ZEFSAII (Michael W. Deem and Ramdas Pophale) SiO2 
 PCOD9294093
Probable space group: C 2/C
;
_chemical_formula_sum "Si O2"
_cell_formula_units_Z 56
_cell_length_a 28.208973
_cell_length_b 8.404696
_cell_length_c 11.512722
_cell_angle_alpha 90.000000
_cell_angle_beta 61.247902
_cell_angle_gamma 90.000000
_cell_volume 2393.000768
_symmetry_space_group_name_H-M "C 2/C"
_symmetry_group_IT_number 15
_symmetry_cell_setting 'monoclinic'
loop_
_space_group_symop_operation_xyz
x,y,z
-x,y,1/2-z
-x,-y,-z
x,-y,1/2+z
1/2+x,1/2+y,z
1/2-x,1/2+y,1/2-z
1/2-x,1/2-y,-z
1/2+x,1/2-y,1/2+z
loop_
_atom_site_type_symbol
_atom_site_label
_atom_site_fract_x
_atom_site_fract_y
_atom_site_fract_z
Si Si1 0.024068 0.107073 0.328910
Si Si2 0.616705 0.927832 0.892076
Si Si3 0.719255 0.858950 0.296607
Si Si4 0.409153 0.905007 0.322354
Si Si5 0.191817 0.189042 0.106319
Si Si6 0.909224 0.928848 0.078331
Si Si7 0.811334 0.935011 0.563284
O O1 0.045666 0.275139 0.259302
O O2 0.000000 0.008040 0.250000
O O3 0.970424 0.120744 0.468879
O O4 0.076001 0.029034 0.326091
O O5 0.619647 0.738865 0.875518
O O6 0.675265 0.002545 0.846835
O O7 0.595668 0.990842 0.790608
O O8 0.584813 0.969587 0.051699
O O9 0.694026 0.725353 0.238992
O O10 0.714667 0.741901 0.411699
O O11 0.772897 0.941524 0.183276
O O12 0.353766 0.802046 0.393526
O O13 0.250000 0.250000 0.000000
O O14 0.187706 0.011141 0.066636
O O15 0.872924 0.037241 0.036308
#
# Coordination Sequence:
#
# PCOD9294093 Si02
#       7
#     8   8   8   8   8   8   8
#     4  11  23  46  69  97 138 187 238 306 365 427
#     4  11  23  46  68 108 145 190 237 300 360 439
#     4  10  23  38  69 100 144 186 235 287 361 430
#     4  11  23  46  69 100 149 188 240 302 364 427
#     4   9  19  37  64  89 137 188 224 287 359 420
#     4  11  23  41  73  98 134 188 239 290 367 429
#     4  11  20  41  65  98 136 187 234 293 354 431
#
# _framework density 23.401582000000001
#
# number of rings (size 3 to 8) (size 9 to 14) (size 15 to 20)
#    0.000    1.429    2.857    2.571    2.000    0.571 
#   12.857    0.714    0.000    0.000    0.000    0.000 
#    0.000    0.000    0.000    0.000    0.000    0.000 
#
# Total GULP energy -156026.461087 kJ/mol
# GULP energy per Si atom -5572.373610 kJ/mol
# Density = 2.334832 g / cm^3
# Si number density = 23.401582 Si / 1000 Ang^3
#
#
#
# Elastic Constant Matrix: (Units=GPa)
#
#
# Indices 1 2 3 4 5 6 
#
# 1 91.2721 33.2599 19.9245 0.0000 -11.5638 0.0000
# 2 33.2599 68.3497 21.8077 0.0000 -10.3024 0.0000
# 3 19.9245 21.8077 83.6797 0.0000 -7.3960 0.0000
# 4 0.0000 0.0000 0.0000 33.5731 0.0000 -1.0075
# 5 -11.5638 -10.3024 -7.3960 0.0000 41.2436 0.0000
# 6 0.0000 0.0000 0.0000 -1.0075 0.0000 28.2055
#
#
#
# Elastic Compliance Matrix: (Units=1/GPa)
#
#
# Indices 1 2 3 4 5 6 
#
# 1 0.013693 -0.005852 -0.001550 0.000000 0.002099 0.000000
# 2 -0.005852 0.018911 -0.003315 0.000000 0.002489 0.000000
# 3 -0.001550 -0.003315 0.013282 0.000000 0.001119 0.000000
# 4 0.000000 0.000000 0.000000 0.029818 0.000000 0.001065
# 5 0.002099 0.002489 0.001119 0.000000 0.025657 0.000000
# 6 0.000000 0.000000 0.000000 0.001065 0.000000 0.035492
#
#
# Mechanical properties :
#
#
# Convention : Reuss Voigt Hill
#
# Bulk Modulus (GPa) = 40.89567 43.69843 42.29705
# Shear Modulus (GPa) = 30.04111 31.82507 30.93309
#
# Velocity S-wave (km/s) = 3.58679 3.69176 3.63965
# Velocity P-wave (km/s) = 5.88787 6.07338 5.98134
#
# Compressibility (1/GPa) = 0.02445246
#
# Stress axis : x y z
#
# Youngs Moduli (GPa) = 73.02910 52.87846 75.28894
#
# Poissons Ratio (x) = 0.30947 0.11667
# Poissons Ratio (y) = 0.42740 0.24959
# Poissons Ratio (z) = 0.11317 0.17529
#
# Static dielectric constant tensor:
#      x y z
#    x 1.987500 0.000000 0.109350 
#    y 0.000000 1.955610 0.000000 
#    z 0.109350 0.000000 2.111420 
# 
# From -- ./inp_files/125821.got.cif
#   From: 2010.05.17/outbox.cif.g08.bks.cpg/sg15_63_cif.got.tgz:125821.got - 2010.06.03 18:47:42.
