data_PCOD9294830
_publ_section_title
;
Structure prediction by ZEFSAII (Michael W. Deem and Ramdas Pophale) SiO2 
 PCOD9294830
Probable space group: C 2/C
;
_chemical_formula_sum "Si O2"
_cell_formula_units_Z 56
_cell_length_a 16.570063
_cell_length_b 14.149963
_cell_length_c 11.892062
_cell_angle_alpha 90.000000
_cell_angle_beta 97.258671
_cell_angle_gamma 90.000000
_cell_volume 2765.935838
_symmetry_space_group_name_H-M "C 2/C"
_symmetry_group_IT_number 15
_symmetry_cell_setting 'monoclinic'
loop_
_space_group_symop_operation_xyz
x,y,z
-x,y,1/2-z
-x,-y,-z
x,-y,1/2+z
1/2+x,1/2+y,z
1/2-x,1/2+y,1/2-z
1/2-x,1/2-y,-z
1/2+x,1/2-y,1/2+z
loop_
_atom_site_type_symbol
_atom_site_label
_atom_site_fract_x
_atom_site_fract_y
_atom_site_fract_z
Si Si1 0.229744 0.616986 0.304546
Si Si2 0.821328 0.590924 0.774546
Si Si3 0.580629 0.234421 0.338757
Si Si4 0.701922 0.387282 0.916506
Si Si5 0.472594 0.104967 0.963919
Si Si6 0.645729 0.187644 0.944640
Si Si7 0.814006 0.899594 0.056990
O O1 0.192363 0.511883 0.283701
O O2 0.156096 0.691167 0.281621
O O3 0.296406 0.623100 0.217653
O O4 0.271285 0.629663 0.433036
O O5 0.822075 0.665016 0.674153
O O6 0.750966 0.608065 0.853061
O O7 0.905637 0.597334 0.855483
O O8 0.500000 0.245178 0.250000
O O9 0.611444 0.331846 0.399414
O O10 0.436619 0.159059 0.065383
O O11 0.660081 0.298232 0.968252
O O12 0.667806 0.488392 0.946346
O O13 0.797436 0.377144 0.966207
O O14 0.552750 0.159914 0.938955
O O15 0.500000 0.000000 0.000000
#
# Coordination Sequence:
#
# PCOD9294830 Si02
#       7
#     8   8   8   8   8   8   8
#     4  11  21  42  68  94 128 165 219 270 319 382
#     4  11  22  39  68  94 127 164 211 269 324 378
#     4  12  25  41  65  96 132 171 214 267 325 388
#     4  10  23  41  67  91 125 173 218 263 314 381
#     4  12  24  40  62  96 134 164 208 266 329 381
#     4  11  22  41  62  97 131 166 214 261 322 382
#     4  11  23  44  66  96 125 171 220 267 316 387
#
# _framework density 20.246313000000001
#
# number of rings (size 3 to 8) (size 9 to 14) (size 15 to 20)
#    0.000    0.857    2.857    6.000    2.000    1.143 
#    0.000    2.143    0.000    0.000    0.000    0.000 
#    0.000    0.000    0.000    0.000    0.000    0.000 
#
# Total GULP energy -156623.905427 kJ/mol
# GULP energy per Si atom -5593.710908 kJ/mol
# Density = 2.020023 g / cm^3
# Si number density = 20.246313 Si / 1000 Ang^3
#
#
#
# Elastic Constant Matrix: (Units=GPa)
#
#
# Indices 1 2 3 4 5 6 
#
# 1 32.6397 30.2886 15.6122 0.0000 12.7688 0.0000
# 2 30.2886 121.3306 13.4022 0.0000 21.2991 0.0000
# 3 15.6122 13.4022 102.2484 0.0000 16.2384 0.0000
# 4 0.0000 0.0000 0.0000 22.6522 0.0000 5.4527
# 5 12.7688 21.2991 16.2384 0.0000 26.9349 0.0000
# 6 0.0000 0.0000 0.0000 5.4527 0.0000 27.1036
#
#
#
# Elastic Compliance Matrix: (Units=1/GPa)
#
#
# Indices 1 2 3 4 5 6 
#
# 1 0.045402 -0.008753 -0.003833 0.000000 -0.012291 0.000000
# 2 -0.008753 0.011258 0.000681 0.000000 -0.005164 0.000000
# 3 -0.003833 0.000681 0.011140 0.000000 -0.005437 0.000000
# 4 0.000000 0.000000 0.000000 0.046392 0.000000 -0.009333
# 5 -0.012291 -0.005164 -0.005437 0.000000 0.050314 0.000000
# 6 0.000000 0.000000 0.000000 -0.009333 0.000000 0.038773
#
#
# Mechanical properties :
#
#
# Convention : Reuss Voigt Hill
#
# Bulk Modulus (GPa) = 22.73287 41.64718 32.19002
# Shear Modulus (GPa) = 20.68230 28.46587 24.57408
#
# Velocity S-wave (km/s) = 3.19961 3.75370 3.48768
# Velocity P-wave (km/s) = 4.99025 6.27710 5.67030
#
# Compressibility (1/GPa) = 0.04398917
#
# Stress axis : x y z
#
# Youngs Moduli (GPa) = 22.02563 88.82379 89.76970
#
# Poissons Ratio (x) = 0.77747 0.34410
# Poissons Ratio (y) = 0.19279 -0.06112
# Poissons Ratio (z) = 0.08443 -0.06048
#
# Static dielectric constant tensor:
#      x y z
#    x 1.705700 0.000000 -0.017460 
#    y 0.000000 1.741260 0.000000 
#    z -0.017460 0.000000 1.721260 
# 
# From -- ./inp_files/105793.got.cif
#   From: 2010.05.17/outbox.cif.g08.bks.cpg/sg15_53_cif.got.tgz:105793.got - 2010.06.03 18:47:42.
