data_PCOD9294109
_publ_section_title
;
Structure prediction by ZEFSAII (Michael W. Deem and Ramdas Pophale) SiO2 
 PCOD9294109
Probable space group: C 2/C
;
_chemical_formula_sum "Si O2"
_cell_formula_units_Z 56
_cell_length_a 15.260496
_cell_length_b 8.478913
_cell_length_c 22.776712
_cell_angle_alpha 90.000000
_cell_angle_beta 59.034612
_cell_angle_gamma 90.000000
_cell_volume 2527.103241
_symmetry_space_group_name_H-M "C 2/C"
_symmetry_group_IT_number 15
_symmetry_cell_setting 'monoclinic'
loop_
_space_group_symop_operation_xyz
x,y,z
-x,y,1/2-z
-x,-y,-z
x,-y,1/2+z
1/2+x,1/2+y,z
1/2-x,1/2+y,1/2-z
1/2-x,1/2-y,-z
1/2+x,1/2-y,1/2+z
loop_
_atom_site_type_symbol
_atom_site_label
_atom_site_fract_x
_atom_site_fract_y
_atom_site_fract_z
Si Si1 0.380070 0.914988 0.304141
Si Si2 0.576485 0.852256 0.909256
Si Si3 0.112884 0.061053 0.971069
Si Si4 0.098201 0.278293 0.084828
Si Si5 0.360776 0.877142 0.181729
Si Si6 0.854567 0.428587 0.007850
Si Si7 0.761881 0.711228 0.379056
O O1 0.500000 0.909183 0.250000
O O2 0.361724 0.789478 0.362797
O O3 0.329267 0.865709 0.260360
O O4 0.355466 0.095260 0.332317
O O5 0.627309 0.698111 0.917795
O O6 0.620325 0.935879 0.836737
O O7 0.602871 0.988340 0.947826
O O8 0.453304 0.829205 0.951187
O O9 0.183876 0.918345 0.930278
O O10 0.120308 0.135780 0.033318
O O11 0.000000 0.000000 0.000000
O O12 0.974625 0.303606 0.130253
O O13 0.150305 0.430475 0.036538
O O14 0.281282 0.794640 0.164920
O O15 0.751495 0.340896 0.064110
#
# Coordination Sequence:
#
# PCOD9294109 Si02
#       7
#     8   8   8   8   8   8   8
#     4  10  23  39  55  81 120 169 199 236 296 372
#     4   8  14  27  51  82 116 139 176 240 295 334
#     4  11  17  29  56  94 115 140 193 256 300 349
#     4   9  18  35  57  82 121 153 181 239 321 360
#     4   9  18  36  57  80 111 159 202 234 284 368
#     4   8  14  28  51  83 111 141 179 233 296 345
#     4  11  20  32  59  88 108 148 208 250 284 351
#
# _framework density 22.159758
#
# number of rings (size 3 to 8) (size 9 to 14) (size 15 to 20)
#    0.000    2.571    2.857    1.714    0.000    2.286 
#    0.000    0.000    0.000    3.429    3.714    0.000 
#    0.000    0.000    0.000    0.000    0.000    0.000 
#
# Total GULP energy -156088.258587 kJ/mol
# GULP energy per Si atom -5574.580664 kJ/mol
# Density = 2.210932 g / cm^3
# Si number density = 22.159758 Si / 1000 Ang^3
#
#
#
# Elastic Constant Matrix: (Units=GPa)
#
#
# Indices 1 2 3 4 5 6 
#
# 1 52.0438 9.4403 35.9547 0.0000 12.9235 0.0000
# 2 9.4403 64.3276 30.2603 0.0000 11.1187 0.0000
# 3 35.9547 30.2603 108.3644 0.0000 32.5592 0.0000
# 4 0.0000 0.0000 0.0000 24.5990 0.0000 -8.1672
# 5 12.9235 11.1187 32.5592 0.0000 39.3782 0.0000
# 6 0.0000 0.0000 0.0000 -8.1672 0.0000 21.5803
#
#
#
# Elastic Compliance Matrix: (Units=1/GPa)
#
#
# Indices 1 2 3 4 5 6 
#
# 1 0.025030 0.000335 -0.007852 0.000000 -0.001816 0.000000
# 2 0.000335 0.017945 -0.004746 0.000000 -0.001253 0.000000
# 3 -0.007852 -0.004746 0.015942 0.000000 -0.009265 0.000000
# 4 0.000000 0.000000 0.000000 0.046494 0.000000 0.017596
# 5 -0.001816 -0.001253 -0.009265 0.000000 0.034005 0.000000
# 6 0.000000 0.000000 0.000000 0.017596 0.000000 0.052998
#
#
# Mechanical properties :
#
#
# Convention : Reuss Voigt Hill
#
# Bulk Modulus (GPa) = 29.07790 41.78292 35.43041
# Shear Modulus (GPa) = 21.89094 27.05020 24.47057
#
# Velocity S-wave (km/s) = 3.14645 3.49763 3.32668
# Velocity P-wave (km/s) = 5.13328 5.93359 5.54789
#
# Compressibility (1/GPa) = 0.03439037
#
# Stress axis : x y z
#
# Youngs Moduli (GPa) = 39.95233 55.72485 62.72592
#
# Poissons Ratio (x) = -0.01865 0.49255
# Poissons Ratio (y) = -0.01337 0.29768
# Poissons Ratio (z) = 0.31372 0.26445
#
# Static dielectric constant tensor:
#      x y z
#    x 18.671160 0.000000 -7.653730 
#    y 0.000000 1.828220 0.000000 
#    z -7.653730 0.000000 5.447770 
# 
# From -- ./inp_files/276513.got.cif
#   From: 2010.05.17/outbox.cif.g08.bks.cpg/sg15_139_cif.got.tgz:276513.got - 2010.06.03 18:47:42.
