data_PCOD9294685
_publ_section_title
;
Structure prediction by ZEFSAII (Michael W. Deem and Ramdas Pophale) SiO2 
 PCOD9294685
Probable space group: C 2/C
;
_chemical_formula_sum "Si O2"
_cell_formula_units_Z 52
_cell_length_a 9.837010
_cell_length_b 15.055667
_cell_length_c 19.982330
_cell_angle_alpha 90.000000
_cell_angle_beta 53.621758
_cell_angle_gamma 90.000000
_cell_volume 2382.699996
_symmetry_space_group_name_H-M "C 2/C"
_symmetry_group_IT_number 15
_symmetry_cell_setting 'monoclinic'
loop_
_space_group_symop_operation_xyz
x,y,z
-x,y,1/2-z
-x,-y,-z
x,-y,1/2+z
1/2+x,1/2+y,z
1/2-x,1/2+y,1/2-z
1/2-x,1/2-y,-z
1/2+x,1/2-y,1/2+z
loop_
_atom_site_type_symbol
_atom_site_label
_atom_site_fract_x
_atom_site_fract_y
_atom_site_fract_z
Si Si1 0.201206 0.665093 0.101183
Si Si2 0.352177 0.267267 0.690119
Si Si3 0.756249 0.759625 0.918684
Si Si4 0.720621 0.575485 0.755002
Si Si5 0.470935 0.662480 0.914056
Si Si6 0.000000 0.529001 0.250000
Si Si7 0.701550 0.592014 0.185004
O O1 0.330084 0.695175 0.122243
O O2 0.099023 0.751923 0.106069
O O3 0.078932 0.591925 0.169289
O O4 0.317067 0.632400 0.006199
O O5 0.544787 0.247948 0.655565
O O6 0.258860 0.174611 0.722261
O O7 0.265142 0.339088 0.763999
O O8 0.627798 0.696779 0.915176
O O9 0.725921 0.860336 0.901377
O O10 0.750000 0.750000 0.000000
O O11 0.540673 0.585960 0.844634
O O12 0.748933 0.508233 0.685811
O O13 0.850591 0.534825 0.769877
O O14 0.500000 0.587944 0.250000
#
# Coordination Sequence:
#
# PCOD9294685 Si02
#       7
#     8   8   8   8   8   4   8
#     4  11  24  45  70 100 139 181 228 298 357 410
#     4  11  22  43  70  96 137 185 236 282 354 414
#     4  11  21  43  70  96 141 189 229 285 349 427
#     4  12  24  41  71 101 134 181 235 287 348 426
#     4  11  24  42  72 101 136 182 235 288 361 415
#     4  12  24  42  66 102 138 176 228 290 346 420
#     4  10  23  41  64 100 135 177 235 285 340 419
#
# _framework density 21.823979999999999
#
# number of rings (size 3 to 8) (size 9 to 14) (size 15 to 20)
#    0.000    0.923    4.615    2.769    3.231    0.615 
#    0.000    2.308    0.000    0.000    0.000    0.000 
#    0.000    0.000    0.000    0.000    0.000    0.000 
#
# Total GULP energy -145184.852118 kJ/mol
# GULP energy per Si atom -5584.032774 kJ/mol
# Density = 2.177431 g / cm^3
# Si number density = 21.823980 Si / 1000 Ang^3
#
#
#
# Elastic Constant Matrix: (Units=GPa)
#
#
# Indices 1 2 3 4 5 6 
#
# 1 58.5242 -1.8032 -3.0430 0.0000 -2.2568 0.0000
# 2 -1.8032 89.6833 26.5682 0.0000 2.7127 0.0000
# 3 -3.0430 26.5682 78.4105 0.0000 -8.0495 0.0000
# 4 0.0000 0.0000 0.0000 27.4831 0.0000 -4.0212
# 5 -2.2568 2.7127 -8.0495 0.0000 36.3665 0.0000
# 6 0.0000 0.0000 0.0000 -4.0212 0.0000 27.4436
#
#
#
# Elastic Compliance Matrix: (Units=1/GPa)
#
#
# Indices 1 2 3 4 5 6 
#
# 1 0.017177 0.000081 0.000765 0.000000 0.001229 0.000000
# 2 0.000081 0.012524 -0.004437 0.000000 -0.001911 0.000000
# 3 0.000765 -0.004437 0.014658 0.000000 0.003623 0.000000
# 4 0.000000 0.000000 0.000000 0.037183 0.000000 0.005448
# 5 0.001229 -0.001911 0.003623 0.000000 0.028519 0.000000
# 6 0.000000 0.000000 0.000000 0.005448 0.000000 0.037237
#
#
# Mechanical properties :
#
#
# Convention : Reuss Voigt Hill
#
# Bulk Modulus (GPa) = 26.89678 30.00689 28.45184
# Shear Modulus (GPa) = 29.96333 31.91836 30.94084
#
# Velocity S-wave (km/s) = 3.70936 3.82846 3.76938
# Velocity P-wave (km/s) = 5.54048 5.77254 5.65770
#
# Compressibility (1/GPa) = 0.03717917
#
# Stress axis : x y z
#
# Youngs Moduli (GPa) = 58.21853 79.84588 68.22072
#
# Poissons Ratio (x) = -0.00651 -0.05220
# Poissons Ratio (y) = -0.00474 0.30267
# Poissons Ratio (z) = -0.04455 0.35425
#
# Static dielectric constant tensor:
#      x y z
#    x 1.891860 0.000000 0.011780 
#    y 0.000000 1.770600 0.000000 
#    z 0.011780 0.000000 1.816170 
# 
# From -- ./inp_files/238657.got.cif
#   From: 2010.05.17/outbox.cif.g08.bks.cpg/sg15_120_cif.got.tgz:238657.got - 2010.06.03 18:47:42.
