data_PCOD9294937
_publ_section_title
;
Structure prediction by ZEFSAII (Michael W. Deem and Ramdas Pophale) SiO2 
 PCOD9294937
Probable space group: C 2/C
;
_chemical_formula_sum "Si O2"
_cell_formula_units_Z 64
_cell_length_a 11.541494
_cell_length_b 13.915611
_cell_length_c 26.885299
_cell_angle_alpha 90.000000
_cell_angle_beta 138.731748
_cell_angle_gamma 90.000000
_cell_volume 2848.066592
_symmetry_space_group_name_H-M "C 2/C"
_symmetry_group_IT_number 15
_symmetry_cell_setting 'monoclinic'
loop_
_space_group_symop_operation_xyz
x,y,z
-x,y,1/2-z
-x,-y,-z
x,-y,1/2+z
1/2+x,1/2+y,z
1/2-x,1/2+y,1/2-z
1/2-x,1/2-y,-z
1/2+x,1/2-y,1/2+z
loop_
_atom_site_type_symbol
_atom_site_label
_atom_site_fract_x
_atom_site_fract_y
_atom_site_fract_z
Si Si1 0.411648 0.981753 0.296516
Si Si2 0.922681 0.416862 0.411309
Si Si3 0.763868 0.202402 0.797226
Si Si4 0.720375 0.426294 0.603951
Si Si5 0.589558 0.396003 0.733233
Si Si6 0.548763 0.586573 0.944831
Si Si7 0.796530 0.746352 0.191861
Si Si8 0.737344 0.556067 0.427858
O O1 0.463473 0.942927 0.367669
O O2 0.355248 0.893335 0.243465
O O3 0.577061 0.041392 0.331382
O O4 0.239639 0.045258 0.253226
O O5 0.778980 0.334327 0.363874
O O6 0.837512 0.504689 0.414204
O O7 0.107099 0.387300 0.494969
O O8 0.673403 0.301030 0.785336
O O9 0.942034 0.172526 0.883179
O O10 0.782181 0.228118 0.744941
O O11 0.599595 0.515606 0.580516
O O12 0.665920 0.389228 0.531214
O O13 0.698122 0.345751 0.638593
O O14 0.500000 0.454172 0.750000
O O15 0.427237 0.381725 0.643491
O O16 0.661723 0.526512 0.940679
O O17 0.000000 0.732392 0.250000
#
# Coordination Sequence:
#
# PCOD9294937 Si02
#       8
#     8   8   8   8   8   8   8   8
#     4  11  23  45  68 102 141 187 236 290 356 431
#     4  10  23  41  69  99 135 189 233 295 349 426
#     4  11  26  43  70 104 138 184 242 288 351 417
#     4  11  26  45  70 101 144 191 233 291 365 429
#     4  12  25  41  67 105 138 180 235 299 350 410
#     4  11  24  45  71 100 144 190 234 295 360 427
#     4  11  24  44  69 102 137 184 240 287 351 424
#     4  11  21  44  68  98 139 185 236 285 362 415
#
# _framework density 22.471385000000001
#
# number of rings (size 3 to 8) (size 9 to 14) (size 15 to 20)
#    0.000    1.000    3.750    2.250    5.250    1.000 
#    2.250    3.750    0.000    0.000    0.000    0.000 
#    0.000    0.000    0.000    0.000    0.000    0.000 
#
# Total GULP energy -178862.463854 kJ/mol
# GULP energy per Si atom -5589.451995 kJ/mol
# Density = 2.242024 g / cm^3
# Si number density = 22.471385 Si / 1000 Ang^3
#
#
#
# Elastic Constant Matrix: (Units=GPa)
#
#
# Indices 1 2 3 4 5 6 
#
# 1 55.4380 -0.0621 5.2552 0.0000 -4.4664 0.0000
# 2 -0.0621 69.2676 28.4647 0.0000 3.1733 0.0000
# 3 5.2552 28.4647 140.7206 0.0000 2.3848 0.0000
# 4 0.0000 0.0000 0.0000 19.1718 0.0000 -10.0159
# 5 -4.4664 3.1733 2.3848 0.0000 33.4030 0.0000
# 6 0.0000 0.0000 0.0000 -10.0159 0.0000 17.3058
#
#
#
# Elastic Compliance Matrix: (Units=1/GPa)
#
#
# Indices 1 2 3 4 5 6 
#
# 1 0.018311 0.000219 -0.000770 0.000000 0.002483 0.000000
# 2 0.000219 0.015802 -0.003184 0.000000 -0.001245 0.000000
# 3 -0.000770 -0.003184 0.007785 0.000000 -0.000356 0.000000
# 4 0.000000 0.000000 0.000000 0.074766 0.000000 0.043272
# 5 0.002483 -0.001245 -0.000356 0.000000 0.030413 0.000000
# 6 0.000000 0.000000 0.000000 0.043272 0.000000 0.082828
#
#
# Mechanical properties :
#
#
# Convention : Reuss Voigt Hill
#
# Bulk Modulus (GPa) = 29.04482 36.97130 33.00806
# Shear Modulus (GPa) = 20.09231 29.42737 24.75984
#
# Velocity S-wave (km/s) = 2.99344 3.62269 3.32300
# Velocity P-wave (km/s) = 4.99008 5.82983 5.42622
#
# Compressibility (1/GPa) = 0.03442954
#
# Stress axis : x y z
#
# Youngs Moduli (GPa) = 54.61070 63.28231 128.45147
#
# Poissons Ratio (x) = -0.01387 0.09894
# Poissons Ratio (y) = -0.01197 0.40893
# Poissons Ratio (z) = 0.04206 0.20146
#
# Static dielectric constant tensor:
#      x y z
#    x 1.980670 0.000000 -0.075090 
#    y 0.000000 1.850950 0.000000 
#    z -0.075090 0.000000 1.859960 
# 
# From -- ./inp_files/293091.got.cif
#   From: 2010.05.17/outbox.cif.g08.bks.cpg/sg15_147_cif.got.tgz:293091.got - 2010.06.03 18:47:42.
