data_PCOD9294694
_publ_section_title
;
Structure prediction by ZEFSAII (Michael W. Deem and Ramdas Pophale) SiO2 
 PCOD9294694
Probable space group: C 2/C
;
_chemical_formula_sum "Si O2"
_cell_formula_units_Z 60
_cell_length_a 5.261712
_cell_length_b 18.240964
_cell_length_c 29.824707
_cell_angle_alpha 90.000000
_cell_angle_beta 91.622388
_cell_angle_gamma 90.000000
_cell_volume 2861.389072
_symmetry_space_group_name_H-M "C 2/C"
_symmetry_group_IT_number 15
_symmetry_cell_setting 'monoclinic'
loop_
_space_group_symop_operation_xyz
x,y,z
-x,y,1/2-z
-x,-y,-z
x,-y,1/2+z
1/2+x,1/2+y,z
1/2-x,1/2+y,1/2-z
1/2-x,1/2-y,-z
1/2+x,1/2-y,1/2+z
loop_
_atom_site_type_symbol
_atom_site_label
_atom_site_fract_x
_atom_site_fract_y
_atom_site_fract_z
Si Si1 0.500000 0.401270 0.250000
Si Si2 0.823769 0.851173 0.790398
Si Si3 0.723993 0.495798 0.362812
Si Si4 0.273439 0.223492 0.550808
Si Si5 0.281290 0.664537 0.130187
Si Si6 0.811355 0.496891 0.195340
Si Si7 0.767810 0.149482 0.587773
Si Si8 0.910757 0.221157 0.679422
O O1 0.734684 0.454747 0.240151
O O2 0.493269 0.349176 0.293401
O O3 0.727869 0.769299 0.783470
O O4 0.000000 0.872330 0.750000
O O5 0.968471 0.842925 0.838239
O O6 0.630295 0.917726 0.794683
O O7 0.794396 0.579356 0.376931
O O8 0.455743 0.496722 0.334433
O O9 0.702965 0.436727 0.402307
O O10 0.957879 0.468132 0.333096
O O11 0.250000 0.250000 0.500000
O O12 0.313032 0.293514 0.583675
O O13 0.515329 0.171137 0.559931
O O14 0.017521 0.182358 0.565372
O O15 0.102131 0.719183 0.158548
O O16 0.754933 0.189265 0.636597
#
# Coordination Sequence:
#
# PCOD9294694 Si02
#       8
#     4   8   8   8   8   8   8   8
#     4  12  24  40  58  96 130 178 226 270 314 376
#     4  11  21  38  60  89 124 173 219 264 313 382
#     4  11  23  43  67  89 128 172 214 268 324 383
#     4  11  24  45  71  99 132 165 209 271 333 395
#     4  10  23  41  64  90 128 169 216 259 329 384
#     4  11  24  41  58  91 129 176 217 265 320 372
#     4  11  23  42  67  98 128 164 216 258 329 384
#     4  11  22  40  58  92 124 171 215 269 310 380
#
# _framework density 20.968836
#
# number of rings (size 3 to 8) (size 9 to 14) (size 15 to 20)
#    0.000    1.067    4.667    2.000    1.867    1.600 
#    2.400    1.333    0.000    0.000    0.000    0.000 
#    0.000    0.000    0.000    0.000    0.000    0.000 
#
# Total GULP energy -167505.302960 kJ/mol
# GULP energy per Si atom -5583.510099 kJ/mol
# Density = 2.092111 g / cm^3
# Si number density = 20.968836 Si / 1000 Ang^3
#
#
#
# Elastic Constant Matrix: (Units=GPa)
#
#
# Indices 1 2 3 4 5 6 
#
# 1 94.4859 15.5747 27.8434 0.0000 1.4808 0.0000
# 2 15.5747 142.2189 34.7818 0.0000 -4.6454 0.0000
# 3 27.8434 34.7818 111.1962 0.0000 6.7024 0.0000
# 4 0.0000 0.0000 0.0000 0.0774 0.0000 -2.7605
# 5 1.4808 -4.6454 6.7024 0.0000 24.0481 0.0000
# 6 0.0000 0.0000 0.0000 -2.7605 0.0000 9.4528
#
#
#
# Elastic Compliance Matrix: (Units=1/GPa)
#
#
# Indices 1 2 3 4 5 6 
#
# 1 0.011474 -0.000604 -0.002680 0.000000 -0.000076 0.000000
# 2 -0.000604 0.007759 -0.002409 0.000000 0.002207 0.000000
# 3 -0.002680 -0.002409 0.010614 0.000000 -0.003258 0.000000
# 4 0.000000 0.000000 0.000000 -1.372134 0.000000 -0.400708
# 5 -0.000076 0.002207 -0.003258 0.000000 0.042922 0.000000
# 6 0.000000 0.000000 0.000000 -0.400708 0.000000 -0.011232
#
#
# Mechanical properties :
#
#
# Convention : Reuss Voigt Hill
#
# Bulk Modulus (GPa) = 54.16407 56.03341 55.09874
# Shear Modulus (GPa) = -3.86680 24.69575 10.41448
#
# Velocity S-wave (km/s) = -1.35944 3.43554 2.23101
# Velocity P-wave (km/s) = 4.83970 6.52054 5.74196
#
# Compressibility (1/GPa) = 0.01846243
#
# Stress axis : x y z
#
# Youngs Moduli (GPa) = 87.15407 128.88714 94.21558
#
# Poissons Ratio (x) = 0.07781 0.25246
# Poissons Ratio (y) = 0.05261 0.22695
# Poissons Ratio (z) = 0.23354 0.31046
#
# Static dielectric constant tensor:
#      x y z
#    x 1.946340 0.000000 0.043880 
#    y 0.000000 1.777610 0.000000 
#    z 0.043880 0.000000 1.734450 
# 
# From -- ./inp_files/286093.got.cif
#   From: 2010.05.17/outbox.cif.g08.bks.cpg/sg15_144_cif.got.tgz:286093.got - 2010.06.03 18:47:42.
