data_PCOD9294063
_publ_section_title
;
Structure prediction by ZEFSAII (Michael W. Deem and Ramdas Pophale) SiO2 
 PCOD9294063
Probable space group: C 2/C
;
_chemical_formula_sum "Si O2"
_cell_formula_units_Z 48
_cell_length_a 13.925194
_cell_length_b 18.179756
_cell_length_c 17.073887
_cell_angle_alpha 90.000000
_cell_angle_beta 148.347168
_cell_angle_gamma 90.000000
_cell_volume 2268.253443
_symmetry_space_group_name_H-M "C 2/C"
_symmetry_group_IT_number 15
_symmetry_cell_setting 'monoclinic'
loop_
_space_group_symop_operation_xyz
x,y,z
-x,y,1/2-z
-x,-y,-z
x,-y,1/2+z
1/2+x,1/2+y,z
1/2-x,1/2+y,1/2-z
1/2-x,1/2-y,-z
1/2+x,1/2-y,1/2+z
loop_
_atom_site_type_symbol
_atom_site_label
_atom_site_fract_x
_atom_site_fract_y
_atom_site_fract_z
Si Si1 0.926203 0.202038 0.877558
Si Si2 0.676384 0.824760 0.819331
Si Si3 0.527075 0.308548 0.901568
Si Si4 0.638500 0.080816 0.631667
Si Si5 0.913559 0.354973 0.109660
Si Si6 0.191195 0.413295 0.693352
O O1 0.848091 0.268726 0.771326
O O2 0.806450 0.132908 0.767901
O O3 0.924340 0.202897 0.971943
O O4 0.140415 0.195223 0.007650
O O5 0.500000 0.823200 0.750000
O O6 0.708617 0.902606 0.798591
O O7 0.503991 0.226168 0.852667
O O8 0.351526 0.361465 0.769939
O O9 0.699007 0.343293 0.975129
O O10 0.483493 0.091630 0.590927
O O11 0.519171 0.106448 0.474543
O O12 0.705341 0.997314 0.676063
O O13 0.000000 0.381301 0.250000
#
# Coordination Sequence:
#
# PCOD9294063 Si02
#       6
#     8   8   8   8   8   8
#     4  11  22  40  65  90 123 161 203 252 312 364
#     4  11  23  40  65  92 118 159 211 260 297 360
#     4  10  23  38  64  96 125 166 201 260 314 369
#     4  11  23  42  61  90 125 170 202 252 312 376
#     4  11  22  36  64  99 126 155 210 260 308 366
#     4  10  24  43  62  84 128 168 208 248 315 371
#
# _framework density 21.161656000000001
#
# number of rings (size 3 to 8) (size 9 to 14) (size 15 to 20)
#    0.000    1.333    1.667    4.500    4.667    3.333 
#    3.000    0.000    0.000    0.000    0.000    0.000 
#    0.000    0.000    0.000    0.000    0.000    0.000 
#
# Total GULP energy -134027.606607 kJ/mol
# GULP energy per Si atom -5584.483609 kJ/mol
# Density = 2.111349 g / cm^3
# Si number density = 21.161656 Si / 1000 Ang^3
#
#
#
# Elastic Constant Matrix: (Units=GPa)
#
#
# Indices 1 2 3 4 5 6 
#
# 1 70.7858 31.9546 10.0327 0.0054 33.0464 0.0008
# 2 31.9546 74.5715 39.9915 0.0053 15.8335 0.0004
# 3 10.0327 39.9915 107.4683 0.0160 31.4808 0.0047
# 4 0.0054 0.0053 0.0160 38.0591 0.0019 0.6542
# 5 33.0464 15.8335 31.4808 0.0019 39.7040 0.0001
# 6 0.0008 0.0004 0.0047 0.6542 0.0001 19.5271
#
#
#
# Elastic Compliance Matrix: (Units=1/GPa)
#
#
# Indices 1 2 3 4 5 6 
#
# 1 0.033062 -0.013504 0.010970 -0.000006 -0.030830 -0.000003
# 2 -0.013504 0.022427 -0.010104 0.000002 0.010308 0.000002
# 3 0.010970 -0.010104 0.017630 -0.000007 -0.019080 -0.000004
# 4 -0.000006 0.000002 -0.000007 0.026290 0.000008 -0.000881
# 5 -0.030830 0.010308 -0.019080 0.000008 0.061864 0.000005
# 6 -0.000003 0.000002 -0.000004 -0.000881 0.000005 0.051240
#
#
# Mechanical properties :
#
#
# Convention : Reuss Voigt Hill
#
# Bulk Modulus (GPa) = 20.90242 46.30927 33.60585
# Shear Modulus (GPa) = 19.70542 30.84784 25.27663
#
# Velocity S-wave (km/s) = 3.05484 3.82216 3.45984
# Velocity P-wave (km/s) = 4.72670 6.43503 5.64585
#
# Compressibility (1/GPa) = 0.04784134
#
# Stress axis : x y z
#
# Youngs Moduli (GPa) = 30.24658 44.58955 56.72141
#
# Poissons Ratio (x) = 0.60214 -0.62223
# Poissons Ratio (y) = 0.40845 0.57313
# Poissons Ratio (z) = -0.33180 0.45055
#
# Static dielectric constant tensor:
#      x y z
#    x 1.800510 0.000000 -0.009700 
#    y 0.000000 1.774230 0.000000 
#    z -0.009700 0.000000 1.779830 
# 
# From -- ./inp_files/206502.got.cif
#   From: 2010.05.17/outbox.cif.g08.bks.cpg/sg15_104_cif.got.tgz:206502.got - 2010.06.03 18:47:42.
