data_PCOD9294779
_publ_section_title
;
Structure prediction by ZEFSAII (Michael W. Deem and Ramdas Pophale) SiO2 
 PCOD9294779
Probable space group: C 2/C
;
_chemical_formula_sum "Si O2"
_cell_formula_units_Z 52
_cell_length_a 14.689100
_cell_length_b 11.523311
_cell_length_c 21.803314
_cell_angle_alpha 90.000000
_cell_angle_beta 138.978750
_cell_angle_gamma 90.000000
_cell_volume 2422.273175
_symmetry_space_group_name_H-M "C 2/C"
_symmetry_group_IT_number 15
_symmetry_cell_setting 'monoclinic'
loop_
_space_group_symop_operation_xyz
x,y,z
-x,y,1/2-z
-x,-y,-z
x,-y,1/2+z
1/2+x,1/2+y,z
1/2-x,1/2+y,1/2-z
1/2-x,1/2-y,-z
1/2+x,1/2-y,1/2+z
loop_
_atom_site_type_symbol
_atom_site_label
_atom_site_fract_x
_atom_site_fract_y
_atom_site_fract_z
Si Si1 0.611341 0.494755 0.422475
Si Si2 0.000000 0.417646 0.250000
Si Si3 0.670949 0.831901 0.009162
Si Si4 0.697482 0.519298 0.608589
Si Si5 0.346854 0.729890 0.366773
Si Si6 0.596441 0.295840 0.151593
Si Si7 0.412810 0.250821 0.596597
O O1 0.753789 0.454068 0.462361
O O2 0.651464 0.510912 0.514671
O O3 0.496826 0.393274 0.361083
O O4 0.556237 0.616009 0.369339
O O5 0.136351 0.489398 0.302875
O O6 0.046717 0.337050 0.329817
O O7 0.693160 0.785933 0.088867
O O8 0.750000 0.750000 0.000000
O O9 0.508157 0.810874 0.914021
O O10 0.639797 0.407318 0.614230
O O11 0.647095 0.636926 0.615982
O O12 0.228046 0.757153 0.257229
O O13 0.491635 0.775278 0.413466
O O14 0.250000 0.250000 0.500000
#
# Coordination Sequence:
#
# PCOD9294779 Si02
#       7
#     8   4   8   8   8   8   8
#     4  11  23  44  71  97 138 188 224 290 354 407
#     4  12  28  42  70 108 138 182 238 292 348 424
#     4  10  23  41  66 109 134 174 232 291 347 403
#     4  12  23  45  74 100 137 191 239 276 355 423
#     4  12  25  43  74 103 137 184 235 292 346 414
#     4  11  23  41  70 103 137 175 240 287 338 420
#     4  12  26  45  69  99 141 184 234 289 349 421
#
# _framework density 21.467438000000001
#
# number of rings (size 3 to 8) (size 9 to 14) (size 15 to 20)
#    0.000    0.615    7.692    1.385    2.154    3.692 
#    0.000    0.769    0.000    0.000    0.000    0.000 
#    0.000    0.000    0.000    0.000    0.000    0.000 
#
# Total GULP energy -145418.906259 kJ/mol
# GULP energy per Si atom -5593.034856 kJ/mol
# Density = 2.141858 g / cm^3
# Si number density = 21.467438 Si / 1000 Ang^3
#
#
#
# Elastic Constant Matrix: (Units=GPa)
#
#
# Indices 1 2 3 4 5 6 
#
# 1 123.9347 14.9133 41.7910 0.0000 6.6110 0.0000
# 2 14.9133 32.9313 0.9682 0.0000 -7.8664 0.0000
# 3 41.7910 0.9682 106.7979 0.0000 8.6846 0.0000
# 4 0.0000 0.0000 0.0000 27.1757 0.0000 12.5711
# 5 6.6110 -7.8664 8.6846 0.0000 41.0402 0.0000
# 6 0.0000 0.0000 0.0000 12.5711 0.0000 32.4970
#
#
#
# Elastic Compliance Matrix: (Units=1/GPa)
#
#
# Indices 1 2 3 4 5 6 
#
# 1 0.010001 -0.004837 -0.003727 0.000000 -0.001749 0.000000
# 2 -0.004837 0.034230 0.001003 0.000000 0.007128 0.000000
# 3 -0.003727 0.001003 0.010937 0.000000 -0.001522 0.000000
# 4 0.000000 0.000000 0.000000 0.044817 0.000000 -0.017337
# 5 -0.001749 0.007128 -0.001522 0.000000 0.026336 0.000000
# 6 0.000000 0.000000 0.000000 -0.017337 0.000000 0.037479
#
#
# Mechanical properties :
#
#
# Convention : Reuss Voigt Hill
#
# Bulk Modulus (GPa) = 24.97239 42.11209 33.54224
# Shear Modulus (GPa) = 26.00481 33.87536 29.94009
#
# Velocity S-wave (km/s) = 3.48424 3.97670 3.73859
# Velocity P-wave (km/s) = 5.27679 6.38317 5.85616
#
# Compressibility (1/GPa) = 0.04004423
#
# Stress axis : x y z
#
# Youngs Moduli (GPa) = 99.98944 29.21403 91.43539
#
# Poissons Ratio (x) = 0.14132 0.34081
# Poissons Ratio (y) = 0.48369 -0.09171
# Poissons Ratio (z) = 0.37270 -0.02930
#
# Static dielectric constant tensor:
#      x y z
#    x 1.818540 0.000000 0.040870 
#    y 0.000000 1.801570 0.000000 
#    z 0.040870 0.000000 1.749840 
# 
# From -- ./inp_files/273895.got.cif
#   From: 2010.05.17/outbox.cif.g08.bks.cpg/sg15_137_cif.got.tgz:273895.got - 2010.06.03 18:47:42.
