data_PCOD9294378
_publ_section_title
;
Structure prediction by ZEFSAII (Michael W. Deem and Ramdas Pophale) SiO2 
 PCOD9294378
Probable space group: C 2/C
;
_chemical_formula_sum "Si O2"
_cell_formula_units_Z 40
_cell_length_a 13.306027
_cell_length_b 5.692152
_cell_length_c 22.327839
_cell_angle_alpha 90.000000
_cell_angle_beta 115.733881
_cell_angle_gamma 90.000000
_cell_volume 1523.385460
_symmetry_space_group_name_H-M "C 2/C"
_symmetry_group_IT_number 15
_symmetry_cell_setting 'monoclinic'
loop_
_space_group_symop_operation_xyz
x,y,z
-x,y,1/2-z
-x,-y,-z
x,-y,1/2+z
1/2+x,1/2+y,z
1/2-x,1/2+y,1/2-z
1/2-x,1/2-y,-z
1/2+x,1/2-y,1/2+z
loop_
_atom_site_type_symbol
_atom_site_label
_atom_site_fract_x
_atom_site_fract_y
_atom_site_fract_z
Si Si1 0.914323 0.068501 0.145737
Si Si2 0.177525 0.550039 0.948731
Si Si3 0.201958 0.513057 0.670387
Si Si4 0.854397 0.010602 0.819091
Si Si5 0.407295 0.651103 0.510633
O O1 0.891252 0.341811 0.123821
O O2 0.812437 0.987788 0.159162
O O3 0.039289 0.010179 0.197118
O O4 0.911298 0.944242 0.079991
O O5 0.096661 0.429847 0.976615
O O6 0.250000 0.750000 0.000000
O O7 0.281194 0.391963 0.954255
O O8 0.140211 0.760667 0.645226
O O9 0.241426 0.512072 0.750464
O O10 0.143414 0.259800 0.645913
O O11 0.500000 0.500000 0.500000
#
# Coordination Sequence:
#
# PCOD9294378 Si02
#       5
#     8   8   8   8   8
#     4  11  24  37  69  94 126 172 220 269 331 393
#     4   9  22  41  59  92 126 168 213 276 324 393
#     4  10  24  44  65  97 136 166 219 272 325 402
#     4  10  24  43  67  97 131 175 212 270 336 393
#     4  10  23  40  63  91 132 172 221 274 335 395
#
# _framework density 26.257307000000001
#
# number of rings (size 3 to 8) (size 9 to 14) (size 15 to 20)
#    0.000    2.000    0.000    0.600    8.400    6.400 
#    0.000    6.000    0.000    0.000    0.000    0.000 
#    0.000    0.000    0.000    0.000    0.000    0.000 
#
# Total GULP energy -111651.367237 kJ/mol
# GULP energy per Si atom -5582.568362 kJ/mol
# Density = 2.619754 g / cm^3
# Si number density = 26.257307 Si / 1000 Ang^3
#
#
#
# Elastic Constant Matrix: (Units=GPa)
#
#
# Indices 1 2 3 4 5 6 
#
# 1 179.0975 74.1073 19.4665 0.0000 -23.9519 0.0000
# 2 74.1073 193.0511 24.8188 0.0000 -12.3313 0.0000
# 3 19.4665 24.8188 40.9645 0.0000 -1.0491 0.0000
# 4 0.0000 0.0000 0.0000 9.8958 0.0000 -1.9333
# 5 -23.9519 -12.3313 -1.0491 0.0000 46.4348 0.0000
# 6 0.0000 0.0000 0.0000 -1.9333 0.0000 39.4842
#
#
#
# Elastic Compliance Matrix: (Units=1/GPa)
#
#
# Indices 1 2 3 4 5 6 
#
# 1 0.007152 -0.002304 -0.001925 0.000000 0.003034 0.000000
# 2 -0.002304 0.006454 -0.002804 0.000000 0.000462 0.000000
# 3 -0.001925 -0.002804 0.026996 0.000000 -0.001128 0.000000
# 4 0.000000 0.000000 0.000000 0.102029 0.000000 0.004996
# 5 0.003034 0.000462 -0.001128 0.000000 0.023198 0.000000
# 6 0.000000 0.000000 0.000000 0.004996 0.000000 0.025571
#
#
# Mechanical properties :
#
#
# Convention : Reuss Voigt Hill
#
# Bulk Modulus (GPa) = 37.68376 72.21093 54.94735
# Shear Modulus (GPa) = 23.33055 38.81101 31.07078
#
# Velocity S-wave (km/s) = 2.98406 3.84878 3.44367
# Velocity P-wave (km/s) = 5.12404 6.87836 6.06496
#
# Compressibility (1/GPa) = 0.02653663
#
# Stress axis : x y z
#
# Youngs Moduli (GPa) = 139.82255 154.93153 37.04272
#
# Poissons Ratio (x) = 0.35699 0.07130
# Poissons Ratio (y) = 0.32218 0.10386
# Poissons Ratio (z) = 0.26915 0.43438
#
# Static dielectric constant tensor:
#      x y z
#    x 2.075150 0.000000 0.026020 
#    y 0.000000 2.369530 0.000000 
#    z 0.026020 0.000000 2.118040 
# 
# From -- ./inp_files/290515.got.cif
#   From: 2010.05.17/outbox.cif.g08.bks.cpg/sg15_146_cif.got.tgz:290515.got - 2010.06.03 18:47:42.
