data_PCOD9294297
_publ_section_title
;
Structure prediction by ZEFSAII (Michael W. Deem and Ramdas Pophale) SiO2 
 PCOD9294297
Probable space group: C 2/C
;
_chemical_formula_sum "Si O2"
_cell_formula_units_Z 36
_cell_length_a 10.175298
_cell_length_b 14.534203
_cell_length_c 10.744934
_cell_angle_alpha 90.000000
_cell_angle_beta 72.195406
_cell_angle_gamma 90.000000
_cell_volume 1512.958103
_symmetry_space_group_name_H-M "C 2/C"
_symmetry_group_IT_number 15
_symmetry_cell_setting 'monoclinic'
loop_
_space_group_symop_operation_xyz
x,y,z
-x,y,1/2-z
-x,-y,-z
x,-y,1/2+z
1/2+x,1/2+y,z
1/2-x,1/2+y,1/2-z
1/2-x,1/2-y,-z
1/2+x,1/2-y,1/2+z
loop_
_atom_site_type_symbol
_atom_site_label
_atom_site_fract_x
_atom_site_fract_y
_atom_site_fract_z
Si Si1 0.051329 0.431413 0.875754
Si Si2 0.000000 0.852858 0.750000
Si Si3 0.299321 0.152023 0.529063
Si Si4 0.343233 0.831459 0.295414
Si Si5 0.303979 0.452210 0.954075
O O1 0.213070 0.436507 0.853346
O O2 0.000000 0.444206 0.750000
O O3 0.000000 0.500000 0.000000
O O4 0.962934 0.344421 0.947295
O O5 0.125729 0.777888 0.712151
O O6 0.041939 0.920596 0.625142
O O7 0.250000 0.250000 0.500000
O O8 0.278499 0.145859 0.682255
O O9 0.227568 0.058351 0.498511
O O10 0.500000 0.869278 0.250000
O O11 0.259637 0.881026 0.427818
#
# Coordination Sequence:
#
# PCOD9294297 Si02
#       5
#     8   4   8   8   8
#     4  10  23  39  75 102 135 183 243 289 348 423
#     4  10  24  46  70 102 144 184 236 294 358 426
#     4  11  26  43  70 107 145 179 241 298 352 421
#     4  10  23  44  74 103 137 185 242 288 354 426
#     4  11  24  45  77 102 141 195 236 288 361 428
#
# _framework density 23.794447000000002
#
# number of rings (size 3 to 8) (size 9 to 14) (size 15 to 20)
#    0.667    0.889    2.222    0.667   15.556    0.000 
#    2.000    2.222    0.000    0.000    0.000    0.000 
#    0.000    0.000    0.000    0.000    0.000    0.000 
#
# Total GULP energy -100218.881791 kJ/mol
# GULP energy per Si atom -5567.715655 kJ/mol
# Density = 2.374029 g / cm^3
# Si number density = 23.794447 Si / 1000 Ang^3
#
#
#
# Elastic Constant Matrix: (Units=GPa)
#
#
# Indices 1 2 3 4 5 6 
#
# 1 46.5984 42.8843 33.0072 0.0000 13.2484 0.0000
# 2 42.8843 164.7284 41.5248 0.0000 -16.6710 0.0000
# 3 33.0072 41.5248 157.1285 0.0000 11.7137 0.0000
# 4 0.0000 0.0000 0.0000 14.4261 0.0000 -22.6817
# 5 13.2484 -16.6710 11.7137 0.0000 43.6744 0.0000
# 6 0.0000 0.0000 0.0000 -22.6817 0.0000 20.4650
#
#
#
# Elastic Compliance Matrix: (Units=1/GPa)
#
#
# Indices 1 2 3 4 5 6 
#
# 1 0.037949 -0.010271 -0.004191 0.000000 -0.014308 0.000000
# 2 -0.010271 0.009694 -0.000931 0.000000 0.007066 0.000000
# 3 -0.004191 -0.000931 0.007574 0.000000 -0.001116 0.000000
# 4 0.000000 0.000000 0.000000 -0.093349 0.000000 -0.103460
# 5 -0.014308 0.007066 -0.001116 0.000000 0.030233 0.000000
# 6 0.000000 0.000000 0.000000 -0.103460 0.000000 -0.065803
#
#
# Mechanical properties :
#
#
# Convention : Reuss Voigt Hill
#
# Bulk Modulus (GPa) = 40.93134 67.03199 53.98167
# Shear Modulus (GPa) = -143.78917 32.44903 -55.67007
#
# Velocity S-wave (km/s) = -7.78209 3.69687 -4.84221
# Velocity P-wave (km/s) = 7.96922 6.81578 2.92007
#
# Compressibility (1/GPa) = 0.02443116
#
# Stress axis : x y z
#
# Youngs Moduli (GPa) = 26.35143 103.15387 132.03477
#
# Poissons Ratio (x) = 1.05949 0.55332
# Poissons Ratio (y) = 0.27065 0.12294
# Poissons Ratio (z) = 0.11043 0.09605
#
# Static dielectric constant tensor:
#      x y z
#    x 2.072660 0.000000 0.044560 
#    y 0.000000 2.027910 0.000000 
#    z 0.044560 0.000000 1.849790 
# 
# From -- ./inp_files/85436.got.cif
#   From: 2010.05.17/outbox.cif.g08.bks.cpg/sg15_43_cif.got.tgz:85436.got - 2010.06.03 18:47:42.
