data_PCOD9294119
_publ_section_title
;
Structure prediction by ZEFSAII (Michael W. Deem and Ramdas Pophale) SiO2 
 PCOD9294119
Probable space group: C 2/C
;
_chemical_formula_sum "Si O2"
_cell_formula_units_Z 32
_cell_length_a 23.906877
_cell_length_b 7.581540
_cell_length_c 9.468911
_cell_angle_alpha 90.000000
_cell_angle_beta 47.486654
_cell_angle_gamma 90.000000
_cell_volume 1265.081422
_symmetry_space_group_name_H-M "C 2/C"
_symmetry_group_IT_number 15
_symmetry_cell_setting 'monoclinic'
loop_
_space_group_symop_operation_xyz
x,y,z
-x,y,1/2-z
-x,-y,-z
x,-y,1/2+z
1/2+x,1/2+y,z
1/2-x,1/2+y,1/2-z
1/2-x,1/2-y,-z
1/2+x,1/2-y,1/2+z
loop_
_atom_site_type_symbol
_atom_site_label
_atom_site_fract_x
_atom_site_fract_y
_atom_site_fract_z
Si Si1 0.701953 0.473197 0.046369
Si Si2 0.753852 0.712170 0.190523
Si Si3 0.432315 0.783410 0.670688
Si Si4 0.409595 0.878270 0.028333
O O1 0.751662 0.542009 0.092634
O O2 0.624393 0.381672 0.228550
O O3 0.749264 0.345507 0.860627
O O4 0.687891 0.644083 0.968520
O O5 0.671480 0.797018 0.300303
O O6 0.523184 0.757796 0.521011
O O7 0.416814 0.925281 0.575790
O O8 0.418027 0.878063 0.845724
#
# Coordination Sequence:
#
# PCOD9294119 Si02
#       4
#     8   8   8   8
#     4  10  23  39  58  84 118 154 199 248 301 355
#     4  10  23  39  58  85 116 157 201 249 304 359
#     4   9  19  37  59  85 119 156 195 243 294 361
#     4   9  19  36  59  86 117 154 197 239 297 358
#
# _framework density 25.294816000000001
#
# number of rings (size 3 to 8) (size 9 to 14) (size 15 to 20)
#    0.000    2.500    0.000    0.000    0.000   15.000 
#    0.000    0.000    0.000    0.000    0.000    0.000 
#    0.000    0.000    0.000    0.000    0.000    0.000 
#
# Total GULP energy -89574.037631 kJ/mol
# GULP energy per Si atom -5598.377352 kJ/mol
# Density = 2.523724 g / cm^3
# Si number density = 25.294816 Si / 1000 Ang^3
#
#
#
# Elastic Constant Matrix: (Units=GPa)
#
#
# Indices 1 2 3 4 5 6 
#
# 1 80.3078 42.0047 33.5681 0.0000 -18.1834 0.0000
# 2 42.0047 132.6915 42.8216 0.0000 -13.8937 0.0000
# 3 33.5681 42.8216 83.9133 0.0000 -5.2747 0.0000
# 4 0.0000 0.0000 0.0000 61.0321 0.0000 -0.1386
# 5 -18.1834 -13.8937 -5.2747 0.0000 52.6358 0.0000
# 6 0.0000 0.0000 0.0000 -0.1386 0.0000 41.8683
#
#
#
# Elastic Compliance Matrix: (Units=1/GPa)
#
#
# Indices 1 2 3 4 5 6 
#
# 1 0.017330 -0.003425 -0.004896 0.000000 0.004592 0.000000
# 2 -0.003425 0.009899 -0.003614 0.000000 0.001067 0.000000
# 3 -0.004896 -0.003614 0.015652 0.000000 -0.001077 0.000000
# 4 0.000000 0.000000 0.000000 0.016385 0.000000 0.000054
# 5 0.004592 0.001067 -0.001077 0.000000 0.020759 0.000000
# 6 0.000000 0.000000 0.000000 0.000054 0.000000 0.023885
#
#
# Mechanical properties :
#
#
# Convention : Reuss Voigt Hill
#
# Bulk Modulus (GPa) = 52.60307 59.30016 55.95162
# Shear Modulus (GPa) = 37.28119 43.00845 40.14482
#
# Velocity S-wave (km/s) = 3.84326 4.12793 3.98814
# Velocity P-wave (km/s) = 6.36674 6.79810 6.58595
#
# Compressibility (1/GPa) = 0.01901030
#
# Stress axis : x y z
#
# Youngs Moduli (GPa) = 57.70416 101.02426 63.88870
#
# Poissons Ratio (x) = 0.34602 0.31280
# Poissons Ratio (y) = 0.19764 0.23090
# Poissons Ratio (z) = 0.28252 0.36511
#
# Static dielectric constant tensor:
#      x y z
#    x 2.045910 0.000000 0.010030 
#    y 0.000000 2.101870 0.000000 
#    z 0.010030 0.000000 2.026840 
# 
# From -- ./inp_files/124680.got.cif
#   From: 2010.05.17/outbox.cif.g08.bks.cpg/sg15_63_cif.got.tgz:124680.got - 2010.06.03 18:47:42.
