data_PCOD9294725
_publ_section_title
;
Structure prediction by ZEFSAII (Michael W. Deem and Ramdas Pophale) SiO2 
 PCOD9294725
Probable space group: C 2/C
;
_chemical_formula_sum "Si O2"
_cell_formula_units_Z 64
_cell_length_a 32.353264
_cell_length_b 8.293505
_cell_length_c 14.864315
_cell_angle_alpha 90.000000
_cell_angle_beta 44.446685
_cell_angle_gamma 90.000000
_cell_volume 2792.873683
_symmetry_space_group_name_H-M "C 2/C"
_symmetry_group_IT_number 15
_symmetry_cell_setting 'monoclinic'
loop_
_space_group_symop_operation_xyz
x,y,z
-x,y,1/2-z
-x,-y,-z
x,-y,1/2+z
1/2+x,1/2+y,z
1/2-x,1/2+y,1/2-z
1/2-x,1/2-y,-z
1/2+x,1/2-y,1/2+z
loop_
_atom_site_type_symbol
_atom_site_label
_atom_site_fract_x
_atom_site_fract_y
_atom_site_fract_z
Si Si1 0.682266 0.329477 0.853551
Si Si2 0.426799 0.273077 0.587906
Si Si3 0.612690 0.592039 0.778177
Si Si4 0.774185 0.425146 0.430668
Si Si5 0.159813 0.923908 0.526691
Si Si6 0.400410 0.872235 0.307861
Si Si7 0.473358 0.814952 0.700462
Si Si8 0.767122 0.889212 0.339033
O O1 0.637379 0.239655 0.856879
O O2 0.721909 0.218079 0.854612
O O3 0.722662 0.442000 0.728172
O O4 0.642548 0.446592 0.978912
O O5 0.424412 0.469165 0.601722
O O6 0.437741 0.218323 0.673248
O O7 0.472729 0.182942 0.453112
O O8 0.643537 0.481708 0.652826
O O9 0.573937 0.711851 0.781083
O O10 0.665942 0.673944 0.750989
O O11 0.750000 0.250000 0.500000
O O12 0.731797 0.436580 0.409699
O O13 0.843856 0.425958 0.336222
O O14 0.757170 0.567961 0.525394
O O15 0.128082 0.749719 0.573892
O O16 0.439635 0.020362 0.280026
O O17 0.500000 0.740317 0.750000
#
# Coordination Sequence:
#
# PCOD9294725 Si02
#       8
#     8   8   8   8   8   8   8   8
#     4  11  23  38  63 102 138 171 221 273 333 396
#     4  10  23  45  63  90 132 177 220 270 334 403
#     4   9  21  43  62  91 124 175 216 259 341 404
#     4   9  19  37  62  86 126 172 208 255 338 393
#     4   9  20  38  62  89 129 164 212 262 328 402
#     4  10  23  41  65  88 128 176 213 270 340 391
#     4  12  25  41  68  97 125 165 230 290 323 387
#     4  10  24  36  62  98 134 173 219 268 337 408
#
# _framework density 22.915467
#
# number of rings (size 3 to 8) (size 9 to 14) (size 15 to 20)
#    0.000    2.000    0.000    3.750   10.500    1.000 
#    0.000   10.000    0.000    0.000    0.000    0.000 
#    0.000    0.000    0.000    0.000    0.000    0.000 
#
# Total GULP energy -178377.843984 kJ/mol
# GULP energy per Si atom -5574.307625 kJ/mol
# Density = 2.286331 g / cm^3
# Si number density = 22.915467 Si / 1000 Ang^3
#
#
#
# Elastic Constant Matrix: (Units=GPa)
#
#
# Indices 1 2 3 4 5 6 
#
# 1 104.4651 45.7931 1.7289 0.0000 -8.4443 0.0000
# 2 45.7931 64.1064 14.1179 0.0003 -20.0857 0.0001
# 3 1.7289 14.1179 49.6964 0.0000 -6.3396 0.0000
# 4 0.0000 0.0003 0.0000 28.2469 0.0000 7.4882
# 5 -8.4443 -20.0857 -6.3396 0.0000 25.2785 0.0000
# 6 0.0000 0.0001 0.0000 7.4882 0.0000 27.7873
#
#
#
# Elastic Compliance Matrix: (Units=1/GPa)
#
#
# Indices 1 2 3 4 5 6 
#
# 1 0.014573 -0.012289 0.002438 0.000000 -0.004286 0.000000
# 2 -0.012289 0.031900 -0.006121 0.000000 0.019707 0.000000
# 3 0.002438 -0.006121 0.021962 0.000000 0.001459 0.000000
# 4 0.000000 0.000000 0.000000 0.038126 0.000000 -0.010274
# 5 -0.004286 0.019707 0.001459 0.000000 0.054152 0.000000
# 6 0.000000 0.000000 0.000000 -0.010274 0.000000 0.038756
#
#
# Mechanical properties :
#
#
# Convention : Reuss Voigt Hill
#
# Bulk Modulus (GPa) = 27.40470 37.94974 32.67722
# Shear Modulus (GPa) = 20.52721 26.70439 23.61580
#
# Velocity S-wave (km/s) = 2.99620 3.41742 3.21372
# Velocity P-wave (km/s) = 4.89435 5.67171 5.29731
#
# Compressibility (1/GPa) = 0.03649009
#
# Stress axis : x y z
#
# Youngs Moduli (GPa) = 68.61999 31.34764 45.53259
#
# Poissons Ratio (x) = 0.38525 -0.11099
# Poissons Ratio (y) = 0.84330 0.27870
# Poissons Ratio (z) = -0.16727 0.19187
#
# Static dielectric constant tensor:
#      x y z
#    x 1.880250 0.000000 -0.029090 
#    y 0.000000 1.934240 0.000000 
#    z -0.029090 0.000000 1.948580 
# 
# From -- ./inp_files/181156.got.cif
#   From: 2010.05.17/outbox.cif.g08.bks.cpg/sg15_91_cif.got.tgz:181156.got - 2010.06.03 18:47:42.
