data_PCOD9294103
_publ_section_title
;
Structure prediction by ZEFSAII (Michael W. Deem and Ramdas Pophale) SiO2 
 PCOD9294103
Probable space group: C 2/C
;
_chemical_formula_sum "Si O2"
_cell_formula_units_Z 60
_cell_length_a 23.093766
_cell_length_b 13.933046
_cell_length_c 26.056984
_cell_angle_alpha 90.000000
_cell_angle_beta 19.867885
_cell_angle_gamma 90.000000
_cell_volume 2849.412911
_symmetry_space_group_name_H-M "C 2/C"
_symmetry_group_IT_number 15
_symmetry_cell_setting 'monoclinic'
loop_
_space_group_symop_operation_xyz
x,y,z
-x,y,1/2-z
-x,-y,-z
x,-y,1/2+z
1/2+x,1/2+y,z
1/2-x,1/2+y,1/2-z
1/2-x,1/2-y,-z
1/2+x,1/2-y,1/2+z
loop_
_atom_site_type_symbol
_atom_site_label
_atom_site_fract_x
_atom_site_fract_y
_atom_site_fract_z
Si Si1 0.619186 0.733636 0.451816
Si Si2 0.988246 0.332091 0.660715
Si Si3 0.000000 0.791437 0.250000
Si Si4 0.324025 0.056950 0.641637
Si Si5 0.797443 0.853184 0.163424
Si Si6 0.965605 0.784440 0.923295
Si Si7 0.235785 0.959115 0.100062
Si Si8 0.371827 0.336547 0.816529
O O1 0.786875 0.669786 0.318251
O O2 0.565503 0.763376 0.553167
O O3 0.654579 0.830830 0.390587
O O4 0.454747 0.690344 0.563312
O O5 0.042001 0.282801 0.669180
O O6 0.073751 0.434175 0.577724
O O7 0.130165 0.866395 0.168717
O O8 0.246884 0.055639 0.763490
O O9 0.233374 0.024958 0.663978
O O10 0.500000 0.000000 0.500000
O O11 0.629388 0.783240 0.302051
O O12 0.882669 0.854165 0.035676
O O13 0.031714 0.838310 0.818107
O O14 0.807441 0.716254 0.040878
O O15 0.170377 0.056322 0.130220
O O16 0.500000 0.288452 0.750000
#
# Coordination Sequence:
#
# PCOD9294103 Si02
#       8
#     8   8   4   8   8   8   8   8
#     4  11  20  38  64  94 129 178 215 263 330 400
#     4  11  22  38  66  96 132 179 225 259 333 402
#     4  12  20  42  66  94 132 182 222 268 334 390
#     4  11  22  37  65  93 135 173 215 272 336 390
#     4  11  19  40  65  99 130 167 221 271 329 406
#     4  10  23  38  76  98 125 177 224 273 346 411
#     4  11  24  39  67  98 131 176 222 274 336 393
#     4  11  23  46  71  95 134 173 225 280 343 403
#
# _framework density 21.056968000000001
#
# number of rings (size 3 to 8) (size 9 to 14) (size 15 to 20)
#    0.000    1.067    6.000    1.600    1.867    0.000 
#    0.000    0.667   30.800    0.000    0.000    0.000 
#    0.000    0.000    0.000    0.000    0.000    0.000 
#
# Total GULP energy -167138.666950 kJ/mol
# GULP energy per Si atom -5571.288898 kJ/mol
# Density = 2.100904 g / cm^3
# Si number density = 21.056968 Si / 1000 Ang^3
#
#
#
# Elastic Constant Matrix: (Units=GPa)
#
#
# Indices 1 2 3 4 5 6 
#
# 1 129.2885 16.9491 53.7020 0.0158 -4.0236 0.0103
# 2 16.9491 32.3342 21.5631 0.0701 -0.1267 0.0642
# 3 53.7020 21.5631 132.6656 0.0781 -7.4185 0.1046
# 4 0.0158 0.0701 0.0781 30.4865 -0.0097 -5.9454
# 5 -4.0236 -0.1267 -7.4185 -0.0097 40.7110 -0.0039
# 6 0.0103 0.0642 0.1046 -5.9454 -0.0039 20.8751
#
#
#
# Elastic Compliance Matrix: (Units=1/GPa)
#
#
# Indices 1 2 3 4 5 6 
#
# 1 0.009509 -0.002723 -0.003389 0.000015 0.000314 0.000025
# 2 -0.002723 0.035502 -0.004725 -0.000090 -0.001020 -0.000110
# 3 -0.003389 -0.004725 0.009758 -0.000019 0.001428 -0.000038
# 4 0.000015 -0.000090 -0.000019 0.034731 0.000007 0.009892
# 5 0.000314 -0.001020 0.001428 0.000007 0.024852 0.000002
# 6 0.000025 -0.000110 -0.000038 0.009892 0.000002 0.050722
#
#
# Mechanical properties :
#
#
# Convention : Reuss Voigt Hill
#
# Bulk Modulus (GPa) = 30.21692 53.19075 41.70383
# Shear Modulus (GPa) = 25.28081 31.88613 28.58347
#
# Velocity S-wave (km/s) = 3.46871 3.89560 3.68834
# Velocity P-wave (km/s) = 5.51578 6.74903 6.16333
#
# Compressibility (1/GPa) = 0.03309404
#
# Stress axis : x y z
#
# Youngs Moduli (GPa) = 105.16227 28.16748 102.48525
#
# Poissons Ratio (x) = 0.07671 0.34733
# Poissons Ratio (y) = 0.28639 0.48423
# Poissons Ratio (z) = 0.35640 0.13309
#
# Static dielectric constant tensor:
#      x y z
#    x 2.508690 0.000010 -0.099480 
#    y 0.000010 1.757100 0.000010 
#    z -0.099480 0.000010 1.853920 
# 
# From -- ./inp_files/302350.got.cif
#   From: 2010.05.17/outbox.cif.g08.bks.cpg/sg15_152_cif.got.tgz:302350.got - 2010.06.03 18:47:42.
