data_PCOD9294050
_publ_section_title
;
Structure prediction by ZEFSAII (Michael W. Deem and Ramdas Pophale) SiO2 
 PCOD9294050
Probable space group: C 2/C
;
_chemical_formula_sum "Si O2"
_cell_formula_units_Z 56
_cell_length_a 11.852748
_cell_length_b 14.388806
_cell_length_c 14.745606
_cell_angle_alpha 90.000000
_cell_angle_beta 91.670401
_cell_angle_gamma 90.000000
_cell_volume 2513.748601
_symmetry_space_group_name_H-M "C 2/C"
_symmetry_group_IT_number 15
_symmetry_cell_setting 'monoclinic'
loop_
_space_group_symop_operation_xyz
x,y,z
-x,y,1/2-z
-x,-y,-z
x,-y,1/2+z
1/2+x,1/2+y,z
1/2-x,1/2+y,1/2-z
1/2-x,1/2-y,-z
1/2+x,1/2-y,1/2+z
loop_
_atom_site_type_symbol
_atom_site_label
_atom_site_fract_x
_atom_site_fract_y
_atom_site_fract_z
Si Si1 0.846188 0.979149 0.406708
Si Si2 0.411508 0.387130 0.051317
Si Si3 0.373217 0.778593 0.240436
Si Si4 0.246049 0.457584 0.202497
Si Si5 0.512003 0.189287 0.396261
Si Si6 0.335913 0.850386 0.754416
Si Si7 0.672393 0.836251 0.465401
O O1 0.748349 0.927684 0.460697
O O2 0.961692 0.923908 0.429126
O O3 0.868516 0.079638 0.451914
O O4 0.811629 0.970632 0.300672
O O5 0.333378 0.433912 0.125739
O O6 0.418647 0.277641 0.067516
O O7 0.500000 0.743962 0.250000
O O8 0.280628 0.701951 0.262803
O O9 0.359552 0.807865 0.136246
O O10 0.341735 0.872440 0.293626
O O11 0.183160 0.555332 0.191076
O O12 0.597992 0.129136 0.337461
O O13 0.414857 0.214798 0.319377
O O14 0.439150 0.150927 0.477178
O O15 0.750000 0.750000 0.500000
#
# Coordination Sequence:
#
# PCOD9294050 Si02
#       7
#     8   8   8   8   8   8   8
#     4  10  23  38  63 103 132 176 224 274 352 391
#     4  11  21  38  69  98 132 171 227 292 322 398
#     4  11  25  43  64  99 134 177 218 284 343 397
#     4  11  24  44  64  95 138 179 222 278 337 416
#     4  11  22  40  70  98 125 179 231 276 330 407
#     4  11  24  42  67  97 132 178 231 266 343 403
#     4  11  20  41  67  94 135 174 227 273 338 413
#
# _framework density 22.277486
#
# number of rings (size 3 to 8) (size 9 to 14) (size 15 to 20)
#    0.000    1.143    4.286    2.143    4.000    2.286 
#    2.571    2.857    0.000    0.000    0.000    0.000 
#    0.000    0.000    0.000    0.000    0.000    0.000 
#
# Total GULP energy -156526.011084 kJ/mol
# GULP energy per Si atom -5590.214682 kJ/mol
# Density = 2.222678 g / cm^3
# Si number density = 22.277486 Si / 1000 Ang^3
#
#
#
# Elastic Constant Matrix: (Units=GPa)
#
#
# Indices 1 2 3 4 5 6 
#
# 1 126.0205 15.1662 30.2520 0.0000 -38.2779 0.0000
# 2 15.1662 45.2758 -11.4215 0.0000 -20.8144 0.0000
# 3 30.2520 -11.4215 64.1659 0.0000 -32.3636 0.0000
# 4 0.0000 0.0000 0.0000 24.0354 0.0000 -4.2735
# 5 -38.2779 -20.8144 -32.3636 0.0000 41.6233 0.0000
# 6 0.0000 0.0000 0.0000 -4.2735 0.0000 24.4917
#
#
#
# Elastic Compliance Matrix: (Units=1/GPa)
#
#
# Indices 1 2 3 4 5 6 
#
# 1 0.011117 0.002632 0.001723 0.000000 0.012879 0.000000
# 2 0.002632 0.065862 0.046584 0.000000 0.071576 0.000000
# 3 0.001723 0.046584 0.058590 0.000000 0.070435 0.000000
# 4 0.000000 0.000000 0.000000 0.042937 0.000000 0.007492
# 5 0.012879 0.071576 0.070435 0.000000 0.126427 0.000000
# 6 0.000000 0.000000 0.000000 0.007492 0.000000 0.042137
#
#
# Mechanical properties :
#
#
# Convention : Reuss Voigt Hill
#
# Bulk Modulus (GPa) = 4.21150 33.71731 18.96440
# Shear Modulus (GPa) = 15.41583 31.46111 23.43847
#
# Velocity S-wave (km/s) = 2.63343 3.76205 3.24715
# Velocity P-wave (km/s) = 3.33784 5.83427 4.75289
#
# Compressibility (1/GPa) = 0.23744512
#
# Stress axis : x y z
#
# Youngs Moduli (GPa) = 89.95388 15.18329 17.06788
#
# Poissons Ratio (x) = -0.03996 -0.02941
# Poissons Ratio (y) = -0.23673 -0.79508
# Poissons Ratio (z) = -0.15500 -0.70729
#
# Static dielectric constant tensor:
#      x y z
#    x 1.808420 0.000000 0.011910 
#    y 0.000000 1.850110 0.000000 
#    z 0.011910 0.000000 1.817130 
# 
# From -- ./inp_files/144251.got.cif
#   From: 2010.05.17/outbox.cif.g08.bks.cpg/sg15_73_cif.got.tgz:144251.got - 2010.06.03 18:47:42.
