data_PCOD9294023
_publ_section_title
;
Structure prediction by ZEFSAII (Michael W. Deem and Ramdas Pophale) SiO2 
 PCOD9294023
Probable space group: C 2/C
;
_chemical_formula_sum "Si O2"
_cell_formula_units_Z 48
_cell_length_a 9.002272
_cell_length_b 11.528036
_cell_length_c 25.187323
_cell_angle_alpha 90.000000
_cell_angle_beta 69.058465
_cell_angle_gamma 90.000000
_cell_volume 2441.243257
_symmetry_space_group_name_H-M "C 2/C"
_symmetry_group_IT_number 15
_symmetry_cell_setting 'monoclinic'
loop_
_space_group_symop_operation_xyz
x,y,z
-x,y,1/2-z
-x,-y,-z
x,-y,1/2+z
1/2+x,1/2+y,z
1/2-x,1/2+y,1/2-z
1/2-x,1/2-y,-z
1/2+x,1/2-y,1/2+z
loop_
_atom_site_type_symbol
_atom_site_label
_atom_site_fract_x
_atom_site_fract_y
_atom_site_fract_z
Si Si1 0.101309 0.325748 0.398700
Si Si2 0.307253 0.326666 0.942749
Si Si3 0.067377 0.744144 0.182622
Si Si4 0.769318 0.093023 0.980685
Si Si5 0.101294 0.825744 0.398700
Si Si6 0.358259 0.979698 0.891740
O O1 0.261536 0.305516 0.345498
O O2 0.152199 0.349066 0.452955
O O3 0.986718 0.214378 0.409053
O O4 0.000439 0.435289 0.391258
O O5 0.290546 0.459834 0.959459
O O6 0.195180 0.285626 0.909053
O O7 0.250000 0.250000 0.000000
O O8 0.091565 0.613031 0.158437
O O9 0.000000 0.748713 0.250000
O O10 0.952528 0.805512 0.154502
O O11 0.941893 0.150938 0.952955
O O12 0.701512 0.089412 0.048490
O O13 0.217047 0.935286 0.391258
#
# Coordination Sequence:
#
# PCOD9294023 Si02
#       6
#     8   8   8   8   8   8
#     4  10  23  38  60  91 123 155 192 239 297 356
#     4  11  21  35  60  92 130 150 181 232 300 372
#     4  11  26  43  59  80 115 162 212 250 282 329
#     4  11  21  34  60  95 127 154 181 232 306 367
#     4  10  23  38  60  91 123 155 192 239 297 356
#     4  11  22  36  64  90 118 152 194 240 300 355
#
# _framework density 19.662112
#
# number of rings (size 3 to 8) (size 9 to 14) (size 15 to 20)
#    0.000    1.333    3.333    3.000    4.667    2.667 
#    0.000    2.500    0.000    0.000    0.000    0.000 
#    0.000    0.000    0.000    0.000    0.000    0.000 
#
# Total GULP energy -134388.420603 kJ/mol
# GULP energy per Si atom -5599.517525 kJ/mol
# Density = 1.961736 g / cm^3
# Si number density = 19.662112 Si / 1000 Ang^3
#
#
#
# Elastic Constant Matrix: (Units=GPa)
#
#
# Indices 1 2 3 4 5 6 
#
# 1 143.5059 44.2516 63.3775 0.0000 1.1573 0.0000
# 2 44.2516 104.0564 39.1343 0.0000 0.0903 0.0000
# 3 63.3775 39.1343 164.8390 0.0000 -1.5186 0.0000
# 4 0.0000 0.0000 0.0000 24.6497 0.0000 -0.9822
# 5 1.1573 0.0903 -1.5186 0.0000 6.5313 0.0000
# 6 0.0000 0.0000 0.0000 -0.9822 0.0000 -32.5138
#
#
#
# Elastic Compliance Matrix: (Units=1/GPa)
#
#
# Indices 1 2 3 4 5 6 
#
# 1 0.009112 -0.002798 -0.002860 0.000000 -0.002241 0.000000
# 2 -0.002798 0.011415 -0.001635 0.000000 -0.000042 0.000000
# 3 -0.002860 -0.001635 0.007575 0.000000 0.002291 0.000000
# 4 0.000000 0.000000 0.000000 0.040520 0.000000 -0.001224
# 5 -0.002241 -0.000042 0.002291 0.000000 0.154038 0.000000
# 6 0.000000 0.000000 0.000000 -0.001224 0.000000 -0.030719
#
#
# Mechanical properties :
#
#
# Convention : Reuss Voigt Hill
#
# Bulk Modulus (GPa) = 73.97691 78.43647 76.20669
# Shear Modulus (GPa) = 23.69317 17.44263 20.56790
#
# Velocity S-wave (km/s) = 3.47510 2.98169 3.23781
# Velocity P-wave (km/s) = 7.33536 7.19949 7.26775
#
# Compressibility (1/GPa) = 0.01351773
#
# Stress axis : x y z
#
# Youngs Moduli (GPa) = 109.74383 87.60621 132.00765
#
# Poissons Ratio (x) = 0.24508 0.37753
# Poissons Ratio (y) = 0.30701 0.21580
# Poissons Ratio (z) = 0.31386 0.14321
#
# Static dielectric constant tensor:
#      x y z
#    x 1.715750 0.000000 0.001400 
#    y 0.000000 1.710660 0.000000 
#    z 0.001400 0.000000 1.634540 
# 
# From -- ./inp_files/263054.got.cif
#   From: 2010.05.17/outbox.cif.g08.bks.cpg/sg15_132_cif.got.tgz:263054.got - 2010.06.03 18:47:42.
