data_PCOD9294828
_publ_section_title
;
Structure prediction by ZEFSAII (Michael W. Deem and Ramdas Pophale) SiO2 
 PCOD9294828
Probable space group: C 2/C
;
_chemical_formula_sum "Si O2"
_cell_formula_units_Z 44
_cell_length_a 11.385873
_cell_length_b 21.436600
_cell_length_c 8.995541
_cell_angle_alpha 90.000000
_cell_angle_beta 79.535983
_cell_angle_gamma 90.000000
_cell_volume 2159.066960
_symmetry_space_group_name_H-M "C 2/C"
_symmetry_group_IT_number 15
_symmetry_cell_setting 'monoclinic'
loop_
_space_group_symop_operation_xyz
x,y,z
-x,y,1/2-z
-x,-y,-z
x,-y,1/2+z
1/2+x,1/2+y,z
1/2-x,1/2+y,1/2-z
1/2-x,1/2-y,-z
1/2+x,1/2-y,1/2+z
loop_
_atom_site_type_symbol
_atom_site_label
_atom_site_fract_x
_atom_site_fract_y
_atom_site_fract_z
Si Si1 0.272334 0.492356 0.209359
Si Si2 0.045702 0.843770 0.578890
Si Si3 0.560411 0.943608 0.896092
Si Si4 0.000000 0.276187 0.250000
Si Si5 0.418497 0.552450 0.941076
Si Si6 0.682310 0.866667 0.085466
O O1 0.193758 0.532600 0.337237
O O2 0.378951 0.463418 0.283916
O O3 0.203181 0.432244 0.164274
O O4 0.302793 0.540123 0.070675
O O5 0.188273 0.848493 0.514346
O O6 0.000000 0.872561 0.750000
O O7 0.006317 0.772295 0.610078
O O8 0.977479 0.881704 0.466683
O O9 0.500000 0.935194 0.750000
O O10 0.579784 0.881541 0.987165
O O11 0.500000 0.000000 0.000000
O O12 0.119937 0.317003 0.208585
O O13 0.500000 0.500000 0.000000
#
# Coordination Sequence:
#
# PCOD9294828 Si02
#       6
#     8   8   8   4   8   8
#     4  12  23  36  65 100 135 166 208 275 345 391
#     4  10  23  41  67  90 127 175 224 269 327 386
#     4  12  22  38  62  98 136 170 214 266 338 405
#     4  10  26  44  68  88 128 192 230 262 320 392
#     4  12  21  38  62 101 132 161 208 273 343 399
#     4  12  22  43  68  93 135 176 223 271 326 402
#
# _framework density 20.379173000000002
#
# number of rings (size 3 to 8) (size 9 to 14) (size 15 to 20)
#    0.545    0.000    5.455    4.364    0.000    0.000 
#    0.000    0.909    8.000    0.000    0.000    0.000 
#    0.000    0.000    0.000    0.000    0.000    0.000 
#
# Total GULP energy -122618.892507 kJ/mol
# GULP energy per Si atom -5573.586023 kJ/mol
# Density = 2.033279 g / cm^3
# Si number density = 20.379173 Si / 1000 Ang^3
#
#
#
# Elastic Constant Matrix: (Units=GPa)
#
#
# Indices 1 2 3 4 5 6 
#
# 1 64.5607 31.2591 19.7454 0.0000 4.3459 0.0000
# 2 31.2591 97.2174 21.8725 0.0000 -3.6539 0.0000
# 3 19.7454 21.8725 81.6814 0.0000 11.0050 0.0000
# 4 0.0000 0.0000 0.0000 34.2467 0.0000 -7.0014
# 5 4.3459 -3.6539 11.0050 0.0000 49.7870 0.0000
# 6 0.0000 0.0000 0.0000 -7.0014 0.0000 27.9184
#
#
#
# Elastic Compliance Matrix: (Units=1/GPa)
#
#
# Indices 1 2 3 4 5 6 
#
# 1 0.019180 -0.005556 -0.002956 0.000000 -0.001428 0.000000
# 2 -0.005556 0.012664 -0.002307 0.000000 0.001924 0.000000
# 3 -0.002956 -0.002307 0.013980 0.000000 -0.003001 0.000000
# 4 0.000000 0.000000 0.000000 0.030778 0.000000 0.007718
# 5 -0.001428 0.001924 -0.003001 0.000000 0.021015 0.000000
# 6 0.000000 0.000000 0.000000 0.007718 0.000000 0.037754
#
#
# Mechanical properties :
#
#
# Convention : Reuss Voigt Hill
#
# Bulk Modulus (GPa) = 41.34864 43.24595 42.29729
# Shear Modulus (GPa) = 30.29014 33.76257 32.02635
#
# Velocity S-wave (km/s) = 3.85948 4.07470 3.96855
# Velocity P-wave (km/s) = 6.33991 6.58819 6.46524
#
# Compressibility (1/GPa) = 0.02418459
#
# Stress axis : x y z
#
# Youngs Moduli (GPa) = 52.13897 78.96390 71.53281
#
# Poissons Ratio (x) = 0.43869 0.21147
# Poissons Ratio (y) = 0.28966 0.16506
# Poissons Ratio (z) = 0.15414 0.18221
#
# Static dielectric constant tensor:
#      x y z
#    x 1.789470 0.000000 -0.045270 
#    y 0.000000 1.715300 0.000000 
#    z -0.045270 0.000000 1.795000 
# 
# From -- ./inp_files/31394.got.cif
#   From: 2010.05.17/outbox.cif.g08.bks.cpg/sg15_16_cif.got.tgz:31394.got - 2010.06.03 18:47:42.
