data_PCOD9294224
_publ_section_title
;
Structure prediction by ZEFSAII (Michael W. Deem and Ramdas Pophale) SiO2 
 PCOD9294224
Probable space group: C 2/C
;
_chemical_formula_sum "Si O2"
_cell_formula_units_Z 56
_cell_length_a 24.842066
_cell_length_b 10.935900
_cell_length_c 9.017282
_cell_angle_alpha 90.000000
_cell_angle_beta 82.232011
_cell_angle_gamma 90.000000
_cell_volume 2427.248247
_symmetry_space_group_name_H-M "C 2/C"
_symmetry_group_IT_number 15
_symmetry_cell_setting 'monoclinic'
loop_
_space_group_symop_operation_xyz
x,y,z
-x,y,1/2-z
-x,-y,-z
x,-y,1/2+z
1/2+x,1/2+y,z
1/2-x,1/2+y,1/2-z
1/2-x,1/2-y,-z
1/2+x,1/2-y,1/2+z
loop_
_atom_site_type_symbol
_atom_site_label
_atom_site_fract_x
_atom_site_fract_y
_atom_site_fract_z
Si Si1 0.883237 0.628850 0.430361
Si Si2 0.076964 0.255351 0.878827
Si Si3 0.015481 0.628714 0.918270
Si Si4 0.347780 0.550742 0.752924
Si Si5 0.670274 0.866015 0.044500
Si Si6 0.744895 0.747867 0.784874
Si Si7 0.180297 0.139327 0.446122
O O1 0.915986 0.652284 0.264360
O O2 0.921750 0.635593 0.560222
O O3 0.850429 0.503585 0.431763
O O4 0.844796 0.744125 0.465728
O O5 0.097696 0.126265 0.805813
O O6 0.119234 0.295017 0.991968
O O7 0.018553 0.269846 0.976478
O O8 0.000000 0.631325 0.750000
O O9 0.000000 0.500000 0.000000
O O10 0.298043 0.637678 0.714446
O O11 0.350195 0.418327 0.681469
O O12 0.330070 0.534993 0.929073
O O13 0.718420 0.844327 0.907396
O O14 0.698685 0.811374 0.179612
O O15 0.760771 0.824572 0.633957
#
# Coordination Sequence:
#
# PCOD9294224 Si02
#       7
#     8   8   8   8   8   8   8
#     4  11  25  43  68 103 135 179 226 289 346 419
#     4  10  23  44  65  96 137 172 221 284 346 407
#     4  12  25  40  69 104 136 176 224 287 361 423
#     4  10  25  45  64  95 134 184 231 290 334 414
#     4  10  23  39  64  99 133 177 225 275 340 406
#     4  10  24  40  65  97 134 185 228 284 338 404
#     4  11  26  42  68  94 136 184 238 281 348 401
#
# _framework density 23.071394000000002
#
# number of rings (size 3 to 8) (size 9 to 14) (size 15 to 20)
#    0.000    1.429    1.429    1.714   12.000    2.286 
#    0.000    0.714    0.000    0.000    0.000    0.000 
#    0.000    0.000    0.000    0.000    0.000    0.000 
#
# Total GULP energy -156414.133732 kJ/mol
# GULP energy per Si atom -5586.219062 kJ/mol
# Density = 2.301888 g / cm^3
# Si number density = 23.071394 Si / 1000 Ang^3
#
#
#
# Elastic Constant Matrix: (Units=GPa)
#
#
# Indices 1 2 3 4 5 6 
#
# 1 82.8068 23.9392 22.4850 0.0000 12.6980 0.0000
# 2 23.9392 57.2246 16.5024 0.0000 -15.7765 0.0000
# 3 22.4850 16.5024 99.6811 0.0000 -10.0203 0.0000
# 4 0.0000 0.0000 0.0000 19.6535 0.0000 6.0135
# 5 12.6980 -15.7765 -10.0203 0.0000 33.7795 0.0000
# 6 0.0000 0.0000 0.0000 6.0135 0.0000 29.3832
#
#
#
# Elastic Compliance Matrix: (Units=1/GPa)
#
#
# Indices 1 2 3 4 5 6 
#
# 1 0.017786 -0.009795 -0.003631 0.000000 -0.012337 0.000000
# 2 -0.009795 0.026051 -0.000526 0.000000 0.015693 0.000000
# 3 -0.003631 -0.000526 0.011390 0.000000 0.004498 0.000000
# 4 0.000000 0.000000 0.000000 0.054281 0.000000 -0.011109
# 5 -0.012337 0.015693 0.004498 0.000000 0.042905 0.000000
# 6 0.000000 0.000000 0.000000 -0.011109 0.000000 0.036307
#
#
# Mechanical properties :
#
#
# Convention : Reuss Voigt Hill
#
# Bulk Modulus (GPa) = 36.59782 40.61842 38.60812
# Shear Modulus (GPa) = 22.15048 28.34895 25.24971
#
# Velocity S-wave (km/s) = 3.10188 3.50915 3.31179
# Velocity P-wave (km/s) = 5.35968 5.83632 5.60307
#
# Compressibility (1/GPa) = 0.02732403
#
# Stress axis : x y z
#
# Youngs Moduli (GPa) = 56.22515 38.38692 87.79526
#
# Poissons Ratio (x) = 0.37599 0.31875
# Poissons Ratio (y) = 0.55071 0.04617
# Poissons Ratio (z) = 0.20413 0.02019
#
# Static dielectric constant tensor:
#      x y z
#    x 2.004230 0.000000 0.031620 
#    y 0.000000 1.869560 0.000000 
#    z 0.031620 0.000000 1.950130 
# 
# From -- ./inp_files/65444.got.cif
#   From: 2010.05.17/outbox.cif.g08.bks.cpg/sg15_33_cif.got.tgz:65444.got - 2010.06.03 18:47:42.
