data_PCOD9294352
_publ_section_title
;
Structure prediction by ZEFSAII (Michael W. Deem and Ramdas Pophale) SiO2 
 PCOD9294352
Probable space group: C 2/C
;
_chemical_formula_sum "Si O2"
_cell_formula_units_Z 56
_cell_length_a 14.655339
_cell_length_b 23.135382
_cell_length_c 9.015964
_cell_angle_alpha 90.000000
_cell_angle_beta 67.976919
_cell_angle_gamma 90.000000
_cell_volume 2833.869501
_symmetry_space_group_name_H-M "C 2/C"
_symmetry_group_IT_number 15
_symmetry_cell_setting 'monoclinic'
loop_
_space_group_symop_operation_xyz
x,y,z
-x,y,1/2-z
-x,-y,-z
x,-y,1/2+z
1/2+x,1/2+y,z
1/2-x,1/2+y,1/2-z
1/2-x,1/2-y,-z
1/2+x,1/2-y,1/2+z
loop_
_atom_site_type_symbol
_atom_site_label
_atom_site_fract_x
_atom_site_fract_y
_atom_site_fract_z
Si Si1 0.200491 0.537900 0.293552
Si Si2 0.693707 0.689266 0.530076
Si Si3 0.585719 0.200696 0.485334
Si Si4 0.500000 0.748774 0.750000
Si Si5 0.508799 0.925515 0.075612
Si Si6 0.208230 0.155014 0.181272
Si Si7 0.500000 0.704881 0.250000
Si Si8 0.702625 0.075179 0.945501
O O1 0.256796 0.588861 0.347316
O O2 0.243298 0.475854 0.314587
O O3 0.089034 0.541043 0.426543
O O4 0.201660 0.552101 0.117147
O O5 0.750000 0.750000 0.500000
O O6 0.583159 0.706385 0.636397
O O7 0.701888 0.668074 0.358478
O O8 0.740884 0.636611 0.595225
O O9 0.555793 0.209880 0.332657
O O10 0.550533 0.139234 0.564799
O O11 0.704078 0.196661 0.431594
O O12 0.525208 0.251152 0.601605
O O13 0.500000 0.948858 0.250000
O O14 0.407357 0.917147 0.049634
O O15 0.099001 0.167462 0.193047
#
# Coordination Sequence:
#
# PCOD9294352 Si02
#       8
#     8   8   8   4   8   8   4   8
#     4  10  23  42  61  90 120 167 217 255 323 370
#     4  11  22  40  66  94 124 162 215 260 323 377
#     4  11  23  36  63  93 132 165 213 254 331 382
#     4  12  22  40  63  92 127 168 208 268 320 390
#     4  11  22  37  60  94 128 168 210 262 318 385
#     4  10  23  40  62  91 125 170 208 265 311 391
#     4  12  22  42  59  92 133 168 212 264 324 374
#     4  11  23  41  65  89 128 168 211 270 309 384
#
# _framework density 19.760966
#
# number of rings (size 3 to 8) (size 9 to 14) (size 15 to 20)
#    0.000    1.143    3.571    3.000    4.000    0.000 
#    7.714    0.714    0.000    3.429    0.000    0.000 
#    0.000    0.000    0.000    0.000    0.000    0.000 
#
# Total GULP energy -156193.389197 kJ/mol
# GULP energy per Si atom -5578.335328 kJ/mol
# Density = 1.971599 g / cm^3
# Si number density = 19.760966 Si / 1000 Ang^3
#
#
#
# Elastic Constant Matrix: (Units=GPa)
#
#
# Indices 1 2 3 4 5 6 
#
# 1 98.3521 53.2992 24.4284 0.0000 -14.0931 0.0000
# 2 53.2992 96.9622 21.9401 0.0000 -13.6781 0.0000
# 3 24.4284 21.9401 59.9584 0.0000 -7.5799 0.0000
# 4 0.0000 0.0000 0.0000 30.0084 0.0000 3.2885
# 5 -14.0931 -13.6781 -7.5799 0.0000 35.0166 0.0000
# 6 0.0000 0.0000 0.0000 3.2885 0.0000 26.5962
#
#
#
# Elastic Compliance Matrix: (Units=1/GPa)
#
#
# Indices 1 2 3 4 5 6 
#
# 1 0.015308 -0.007316 -0.003230 0.000000 0.002604 0.000000
# 2 -0.007316 0.015201 -0.002265 0.000000 0.002503 0.000000
# 3 -0.003230 -0.002265 0.019069 0.000000 0.001943 0.000000
# 4 0.000000 0.000000 0.000000 0.033782 0.000000 -0.004177
# 5 0.002604 0.002503 0.001943 0.000000 0.031004 0.000000
# 6 0.000000 0.000000 0.000000 -0.004177 0.000000 0.038116
#
#
# Mechanical properties :
#
#
# Convention : Reuss Voigt Hill
#
# Bulk Modulus (GPa) = 41.74702 50.51200 46.12951
# Shear Modulus (GPa) = 26.86918 28.69791 27.78355
#
# Velocity S-wave (km/s) = 3.69142 3.81498 3.75371
# Velocity P-wave (km/s) = 6.27222 6.70987 6.49473
#
# Compressibility (1/GPa) = 0.02395380
#
# Stress axis : x y z
#
# Youngs Moduli (GPa) = 65.32576 65.78704 52.44174
#
# Poissons Ratio (x) = 0.48132 0.16941
# Poissons Ratio (y) = 0.47794 0.11878
# Poissons Ratio (z) = 0.21103 0.14901
#
# Static dielectric constant tensor:
#      x y z
#    x 1.719100 0.000000 0.009440 
#    y 0.000000 1.759250 0.000000 
#    z 0.009440 0.000000 1.692090 
# 
# From -- ./inp_files/42569.got.cif
#   From: 2010.05.17/outbox.cif.g08.bks.cpg/sg15_22_cif.got.tgz:42569.got - 2010.06.03 18:47:42.
