data_PCOD9294897
_publ_section_title
;
Structure prediction by ZEFSAII (Michael W. Deem and Ramdas Pophale) SiO2 
 PCOD9294897
Probable space group: C 2/C
;
_chemical_formula_sum "Si O2"
_cell_formula_units_Z 52
_cell_length_a 27.585624
_cell_length_b 9.084800
_cell_length_c 16.556649
_cell_angle_alpha 90.000000
_cell_angle_beta 146.967101
_cell_angle_gamma 90.000000
_cell_volume 2261.846586
_symmetry_space_group_name_H-M "C 2/C"
_symmetry_group_IT_number 15
_symmetry_cell_setting 'monoclinic'
loop_
_space_group_symop_operation_xyz
x,y,z
-x,y,1/2-z
-x,-y,-z
x,-y,1/2+z
1/2+x,1/2+y,z
1/2-x,1/2+y,1/2-z
1/2-x,1/2-y,-z
1/2+x,1/2-y,1/2+z
loop_
_atom_site_type_symbol
_atom_site_label
_atom_site_fract_x
_atom_site_fract_y
_atom_site_fract_z
Si Si1 0.693448 0.681430 0.821259
Si Si2 0.860597 0.858926 0.466050
Si Si3 0.013891 0.161576 0.486552
Si Si4 0.274586 0.043461 0.322061
Si Si5 0.500000 0.812573 0.750000
Si Si6 0.546533 0.093876 0.493732
Si Si7 0.344392 0.594744 0.559845
O O1 0.612210 0.716306 0.649962
O O2 0.758371 0.554705 0.879175
O O3 0.645641 0.614554 0.831481
O O4 0.748331 0.830036 0.910851
O O5 0.961930 0.836009 0.575052
O O6 0.799417 0.712824 0.373529
O O7 0.812493 0.996277 0.350993
O O8 0.857810 0.929351 0.550503
O O9 0.945671 0.254984 0.444651
O O10 0.000000 0.000000 0.500000
O O11 0.358927 0.973810 0.395323
O O12 0.502500 0.893165 0.664079
O O13 0.416090 0.705073 0.622161
O O14 0.500000 0.000000 0.500000
#
# Coordination Sequence:
#
# PCOD9294897 Si02
#       7
#     8   8   8   8   4   8   8
#     4  10  23  41  68  97 132 180 232 285 349 424
#     4  11  24  41  67  98 134 179 234 293 350 423
#     4  11  23  40  66 100 132 179 232 287 348 414
#     4  11  24  43  65 100 138 181 240 284 356 421
#     4  12  24  44  74 102 136 190 236 282 358 420
#     4  12  25  45  69 100 141 186 233 291 348 422
#     4  11  23  43  71  97 136 182 234 290 351 421
#
# _framework density 22.990062999999999
#
# number of rings (size 3 to 8) (size 9 to 14) (size 15 to 20)
#    0.000    0.923    4.615    2.769    4.308    0.615 
#    0.000    2.308    0.000    0.000    0.000    0.000 
#    0.000    0.000    0.000    0.000    0.000    0.000 
#
# Total GULP energy -144885.809707 kJ/mol
# GULP energy per Si atom -5572.531143 kJ/mol
# Density = 2.293774 g / cm^3
# Si number density = 22.990063 Si / 1000 Ang^3
#
#
#
# Elastic Constant Matrix: (Units=GPa)
#
#
# Indices 1 2 3 4 5 6 
#
# 1 111.9793 46.4906 -2.2810 0.0000 -4.8682 0.0000
# 2 46.4906 120.2068 4.3093 0.0000 -6.2269 0.0000
# 3 -2.2810 4.3093 41.2713 0.0000 10.7366 0.0000
# 4 0.0000 0.0000 0.0000 19.8205 0.0000 2.2958
# 5 -4.8682 -6.2269 10.7366 0.0000 23.5808 0.0000
# 6 0.0000 0.0000 0.0000 2.2958 0.0000 51.3747
#
#
#
# Elastic Compliance Matrix: (Units=1/GPa)
#
#
# Indices 1 2 3 4 5 6 
#
# 1 0.010693 -0.004127 0.000829 0.000000 0.000740 0.000000
# 2 -0.004127 0.010128 -0.001996 0.000000 0.002731 0.000000
# 3 0.000829 -0.001996 0.027879 0.000000 -0.013050 0.000000
# 4 0.000000 0.000000 0.000000 0.050715 0.000000 -0.002266
# 5 0.000740 0.002731 -0.013050 0.000000 0.049223 0.000000
# 6 0.000000 0.000000 0.000000 -0.002266 0.000000 0.019566
#
#
# Mechanical properties :
#
#
# Convention : Reuss Voigt Hill
#
# Bulk Modulus (GPa) = 26.23817 41.16613 33.70215
# Shear Modulus (GPa) = 26.11027 33.95111 30.03069
#
# Velocity S-wave (km/s) = 3.37370 3.84705 3.61812
# Velocity P-wave (km/s) = 5.15882 6.13824 5.66972
#
# Compressibility (1/GPa) = 0.03811242
#
# Stress axis : x y z
#
# Youngs Moduli (GPa) = 93.52244 98.73514 35.86930
#
# Poissons Ratio (x) = 0.40746 -0.02975
# Poissons Ratio (y) = 0.38595 0.07160
# Poissons Ratio (z) = -0.07756 0.19709
#
# Static dielectric constant tensor:
#      x y z
#    x 2.084730 0.000000 -0.098910 
#    y 0.000000 1.944840 0.000000 
#    z -0.098910 0.000000 1.917820 
# 
# From -- ./inp_files/221927.got.cif
#   From: 2010.05.17/outbox.cif.g08.bks.cpg/sg15_111_cif.got.tgz:221927.got - 2010.06.03 18:47:42.
