data_PCOD9294026
_publ_section_title
;
Structure prediction by ZEFSAII (Michael W. Deem and Ramdas Pophale) SiO2 
 PCOD9294026
Probable space group: C 2/C
;
_chemical_formula_sum "Si O2"
_cell_formula_units_Z 56
_cell_length_a 14.733756
_cell_length_b 18.517409
_cell_length_c 12.722495
_cell_angle_alpha 90.000000
_cell_angle_beta 128.912378
_cell_angle_gamma 90.000000
_cell_volume 2700.881713
_symmetry_space_group_name_H-M "C 2/C"
_symmetry_group_IT_number 15
_symmetry_cell_setting 'monoclinic'
loop_
_space_group_symop_operation_xyz
x,y,z
-x,y,1/2-z
-x,-y,-z
x,-y,1/2+z
1/2+x,1/2+y,z
1/2-x,1/2+y,1/2-z
1/2-x,1/2-y,-z
1/2+x,1/2-y,1/2+z
loop_
_atom_site_type_symbol
_atom_site_label
_atom_site_fract_x
_atom_site_fract_y
_atom_site_fract_z
Si Si1 0.297228 0.368666 0.353551
Si Si2 0.402464 0.626735 0.263958
Si Si3 0.550110 0.956500 0.892985
Si Si4 0.015689 0.923763 0.455696
Si Si5 0.181220 0.716533 0.047688
Si Si6 0.687145 0.491611 0.948153
Si Si7 0.466375 0.112502 0.898044
O O1 0.385883 0.399376 0.330925
O O2 0.345753 0.288795 0.409262
O O3 0.303624 0.425495 0.457564
O O4 0.162453 0.362179 0.225619
O O5 0.500000 0.655334 0.250000
O O6 0.443694 0.623947 0.414268
O O7 0.280143 0.667894 0.172948
O O8 0.371923 0.547759 0.194048
O O9 0.500000 0.924110 0.750000
O O10 0.685027 0.979014 0.983787
O O11 0.484609 0.033101 0.862012
O O12 0.527072 0.903850 0.973212
O O13 0.110379 0.942620 0.437371
O O14 0.000000 0.000000 0.500000
O O15 0.250000 0.750000 0.000000
O O16 0.068650 0.667812 0.940695
#
# Coordination Sequence:
#
# PCOD9294026 Si02
#       7
#     8   8   8   8   8   8   8
#     4  11  23  41  60  91 133 168 210 266 321 378
#     4  12  22  37  60  95 125 167 204 258 326 375
#     4  11  23  41  66  95 134 167 217 266 331 386
#     4  10  23  38  60  93 128 163 216 263 314 377
#     4  12  25  40  62  93 133 169 209 259 325 391
#     4  11  22  38  63  94 125 166 212 265 319 380
#     4  11  26  41  65  99 132 170 215 268 326 393
#
# _framework density 20.733968999999998
#
# number of rings (size 3 to 8) (size 9 to 14) (size 15 to 20)
#    0.000    0.857    7.143    0.000   10.000    0.000 
#    0.000    0.000    0.000    3.429    0.000    0.000 
#    0.000    0.000    0.000    0.000    0.000    0.000 
#
# Total GULP energy -156296.182534 kJ/mol
# GULP energy per Si atom -5582.006519 kJ/mol
# Density = 2.068678 g / cm^3
# Si number density = 20.733969 Si / 1000 Ang^3
#
#
#
# Elastic Constant Matrix: (Units=GPa)
#
#
# Indices 1 2 3 4 5 6 
#
# 1 60.2648 20.9786 34.1378 0.0000 3.9310 0.0000
# 2 20.9786 67.6151 23.3446 0.0000 7.8602 0.0000
# 3 34.1378 23.3446 91.3509 0.0000 14.6796 0.0000
# 4 0.0000 0.0000 0.0000 5.9846 0.0000 2.9958
# 5 3.9310 7.8602 14.6796 0.0000 39.7368 0.0000
# 6 0.0000 0.0000 0.0000 2.9958 0.0000 38.2148
#
#
#
# Elastic Compliance Matrix: (Units=1/GPa)
#
#
# Indices 1 2 3 4 5 6 
#
# 1 0.022262 -0.004520 -0.007393 0.000000 0.001423 0.000000
# 2 -0.004520 0.017258 -0.002386 0.000000 -0.002085 0.000000
# 3 -0.007393 -0.002386 0.015017 0.000000 -0.004344 0.000000
# 4 0.000000 0.000000 0.000000 0.173922 0.000000 -0.013634
# 5 0.001423 -0.002085 -0.004344 0.000000 0.027042 0.000000
# 6 0.000000 0.000000 0.000000 -0.013634 0.000000 0.027237
#
#
# Mechanical properties :
#
#
# Convention : Reuss Voigt Hill
#
# Bulk Modulus (GPa) = 38.55122 41.79478 40.17300
# Shear Modulus (GPa) = 15.62583 26.17188 20.89886
#
# Velocity S-wave (km/s) = 2.74822 3.55670 3.17827
# Velocity P-wave (km/s) = 5.35760 6.08837 5.73464
#
# Compressibility (1/GPa) = 0.02593952
#
# Stress axis : x y z
#
# Youngs Moduli (GPa) = 44.91988 57.94339 66.58952
#
# Poissons Ratio (x) = 0.26191 0.49228
# Poissons Ratio (y) = 0.20304 0.15889
# Poissons Ratio (z) = 0.33208 0.13826
#
# Static dielectric constant tensor:
#      x y z
#    x 1.690500 0.000000 0.087330 
#    y 0.000000 3.987330 0.000000 
#    z 0.087330 0.000000 1.711440 
# 
# From -- ./inp_files/155254.got.cif
#   From: 2010.05.17/outbox.cif.g08.bks.cpg/sg15_78_cif.got.tgz:155254.got - 2010.06.03 18:47:42.
