data_PCOD9294730
_publ_section_title
;
Structure prediction by ZEFSAII (Michael W. Deem and Ramdas Pophale) SiO2 
 PCOD9294730
Probable space group: C 2/C
;
_chemical_formula_sum "Si O2"
_cell_formula_units_Z 52
_cell_length_a 5.181777
_cell_length_b 18.648000
_cell_length_c 26.199614
_cell_angle_alpha 90.000000
_cell_angle_beta 81.708144
_cell_angle_gamma 90.000000
_cell_volume 2505.197622
_symmetry_space_group_name_H-M "C 2/C"
_symmetry_group_IT_number 15
_symmetry_cell_setting 'monoclinic'
loop_
_space_group_symop_operation_xyz
x,y,z
-x,y,1/2-z
-x,-y,-z
x,-y,1/2+z
1/2+x,1/2+y,z
1/2-x,1/2+y,1/2-z
1/2-x,1/2-y,-z
1/2+x,1/2-y,1/2+z
loop_
_atom_site_type_symbol
_atom_site_label
_atom_site_fract_x
_atom_site_fract_y
_atom_site_fract_z
Si Si1 0.506920 0.200301 0.991912
Si Si2 0.736871 0.242326 0.343394
Si Si3 0.500000 0.810981 0.750000
Si Si4 0.446044 0.106372 0.091213
Si Si5 0.255887 0.512285 0.843664
Si Si6 0.710277 0.825201 0.375313
Si Si7 0.226194 0.431404 0.676646
O O1 0.568293 0.170939 0.934050
O O2 0.750000 0.250000 0.000000
O O3 0.482187 0.138073 0.034696
O O4 0.250000 0.250000 0.000000
O O5 0.663340 0.233103 0.286432
O O6 0.718983 0.164733 0.371244
O O7 0.492075 0.287595 0.372868
O O8 0.012019 0.278794 0.346586
O O9 0.692810 0.863472 0.713532
O O10 0.311878 0.029081 0.101072
O O11 0.707799 0.097108 0.118243
O O12 0.248290 0.596420 0.850790
O O13 0.529866 0.480377 0.819325
O O14 0.032497 0.480720 0.813478
#
# Coordination Sequence:
#
# PCOD9294730 Si02
#       7
#     8   8   4   8   8   8   8
#     4  12  23  37  64  97 130 177 217 265 317 382
#     4  11  24  41  69  94 129 167 219 275 318 386
#     4  10  24  42  74 100 116 172 232 272 320 402
#     4   9  22  39  65  93 126 170 225 256 306 390
#     4  10  23  41  65  91 137 168 205 271 328 383
#     4  12  24  43  63 101 138 169 206 273 340 373
#     4   9  22  40  66  95 123 165 220 271 315 383
#
# _framework density 20.756844000000001
#
# number of rings (size 3 to 8) (size 9 to 14) (size 15 to 20)
#    0.923    0.615    3.077    0.923    6.462    3.077 
#    0.000    3.846    0.000    0.000    0.000    0.000 
#    0.000    0.000    0.000    0.000    0.000    0.000 
#
# Total GULP energy -145221.432321 kJ/mol
# GULP energy per Si atom -5585.439705 kJ/mol
# Density = 2.070960 g / cm^3
# Si number density = 20.756844 Si / 1000 Ang^3
#
#
#
# Elastic Constant Matrix: (Units=GPa)
#
#
# Indices 1 2 3 4 5 6 
#
# 1 127.6803 25.3163 2.6258 0.0000 -4.0230 0.0000
# 2 25.3163 81.2954 -2.0334 0.0000 0.6626 0.0000
# 3 2.6258 -2.0334 77.5185 0.0000 10.6897 0.0000
# 4 0.0000 0.0000 0.0000 21.1021 0.0000 -4.0845
# 5 -4.0230 0.6626 10.6897 0.0000 17.5558 0.0000
# 6 0.0000 0.0000 0.0000 -4.0845 0.0000 13.4142
#
#
#
# Elastic Compliance Matrix: (Units=1/GPa)
#
#
# Indices 1 2 3 4 5 6 
#
# 1 0.008453 -0.002670 -0.000696 0.000000 0.002462 0.000000
# 2 -0.002670 0.013161 0.000642 0.000000 -0.001500 0.000000
# 3 -0.000696 0.000642 0.014154 0.000000 -0.008802 0.000000
# 4 0.000000 0.000000 0.000000 0.050356 0.000000 0.015333
# 5 0.002462 -0.001500 -0.008802 0.000000 0.062942 0.000000
# 6 0.000000 0.000000 0.000000 0.015333 0.000000 0.079217
#
#
# Mechanical properties :
#
#
# Convention : Reuss Voigt Hill
#
# Bulk Modulus (GPa) = 32.97967 37.59018 35.28492
# Shear Modulus (GPa) = 20.50551 27.78679 24.14615
#
# Velocity S-wave (km/s) = 3.14648 3.66277 3.41440
# Velocity P-wave (km/s) = 5.39662 6.00308 5.70791
#
# Compressibility (1/GPa) = 0.03032171
#
# Stress axis : x y z
#
# Youngs Moduli (GPa) = 118.29672 75.98460 70.64939
#
# Poissons Ratio (x) = 0.20287 0.04916
# Poissons Ratio (y) = 0.31584 -0.04539
# Poissons Ratio (z) = 0.08231 -0.04882
#
# Static dielectric constant tensor:
#      x y z
#    x 1.760350 0.000000 -0.001420 
#    y 0.000000 1.708550 0.000000 
#    z -0.001420 0.000000 1.799640 
# 
# From -- ./inp_files/285828.got.cif
#   From: 2010.05.17/outbox.cif.g08.bks.cpg/sg15_143_cif.got.tgz:285828.got - 2010.06.03 18:47:42.
