data_PCOD9294653
_publ_section_title
;
Structure prediction by ZEFSAII (Michael W. Deem and Ramdas Pophale) SiO2 
 PCOD9294653
Probable space group: C 2/C
;
_chemical_formula_sum "Si O2"
_cell_formula_units_Z 48
_cell_length_a 19.533589
_cell_length_b 8.112913
_cell_length_c 18.786789
_cell_angle_alpha 90.000000
_cell_angle_beta 125.556562
_cell_angle_gamma 90.000000
_cell_volume 2422.095841
_symmetry_space_group_name_H-M "C 2/C"
_symmetry_group_IT_number 15
_symmetry_cell_setting 'monoclinic'
loop_
_space_group_symop_operation_xyz
x,y,z
-x,y,1/2-z
-x,-y,-z
x,-y,1/2+z
1/2+x,1/2+y,z
1/2-x,1/2+y,1/2-z
1/2-x,1/2-y,-z
1/2+x,1/2-y,1/2+z
loop_
_atom_site_type_symbol
_atom_site_label
_atom_site_fract_x
_atom_site_fract_y
_atom_site_fract_z
Si Si1 0.746008 0.079389 0.347115
Si Si2 0.672632 0.814439 0.209604
Si Si3 0.526847 0.606297 0.189644
Si Si4 0.921413 0.591192 0.415343
Si Si5 0.582389 0.432636 0.007154
Si Si6 0.575640 0.232495 0.242697
O O1 0.766464 0.184110 0.288941
O O2 0.664661 0.172036 0.329074
O O3 0.713670 0.902799 0.301474
O O4 0.836216 0.049810 0.437552
O O5 0.588287 0.725701 0.184161
O O6 0.649369 0.951406 0.136640
O O7 0.500000 0.672527 0.250000
O O8 0.571858 0.429468 0.228479
O O9 0.446155 0.579704 0.091336
O O10 0.899902 0.753923 0.447478
O O11 0.937121 0.649339 0.342832
O O12 0.000000 0.500000 0.500000
O O13 0.500000 0.500000 0.000000
O O14 0.500000 0.189608 0.250000
#
# Coordination Sequence:
#
# PCOD9294653 Si02
#       6
#     8   8   8   8   8   8
#     4  11  22  38  66  93 126 167 212 263 304 380
#     4  11  21  37  63  96 127 160 215 257 312 376
#     4  11  23  42  66  92 132 169 204 263 323 369
#     4  11  20  36  65  98 121 165 211 257 312 379
#     4  12  21  41  67  94 127 163 216 260 308 375
#     4  10  23  41  63  89 129 168 208 259 323 367
#
# _framework density 19.817547999999999
#
# number of rings (size 3 to 8) (size 9 to 14) (size 15 to 20)
#    0.000    1.000    5.000    3.000    0.000    2.667 
#    0.000    4.167    7.333    0.000    0.000    0.000 
#    0.000    0.000    0.000    0.000    0.000    0.000 
#
# Total GULP energy -133975.114774 kJ/mol
# GULP energy per Si atom -5582.296449 kJ/mol
# Density = 1.977244 g / cm^3
# Si number density = 19.817548 Si / 1000 Ang^3
#
#
#
# Elastic Constant Matrix: (Units=GPa)
#
#
# Indices 1 2 3 4 5 6 
#
# 1 76.5882 31.6757 39.5119 0.0000 15.7266 0.0000
# 2 31.6757 79.2929 22.1887 0.0000 14.8422 0.0000
# 3 39.5119 22.1887 104.2603 0.0000 20.3791 0.0000
# 4 0.0000 0.0000 0.0000 31.4189 0.0000 -0.2469
# 5 15.7266 14.8422 20.3791 0.0000 35.3799 0.0000
# 6 0.0000 0.0000 0.0000 -0.2469 0.0000 6.8610
#
#
#
# Elastic Compliance Matrix: (Units=1/GPa)
#
#
# Indices 1 2 3 4 5 6 
#
# 1 0.018654 -0.005405 -0.005343 0.000000 -0.002947 0.000000
# 2 -0.005405 0.015640 -0.000527 0.000000 -0.003855 0.000000
# 3 -0.005343 -0.000527 0.012645 0.000000 -0.004687 0.000000
# 4 0.000000 0.000000 0.000000 0.031837 0.000000 0.001146
# 5 -0.002947 -0.003855 -0.004687 0.000000 0.033892 0.000000
# 6 0.000000 0.000000 0.000000 0.001146 0.000000 0.145792
#
#
# Mechanical properties :
#
#
# Convention : Reuss Voigt Hill
#
# Bulk Modulus (GPa) = 41.00257 49.65490 45.32874
# Shear Modulus (GPa) = 17.29283 25.84963 21.57123
#
# Velocity S-wave (km/s) = 2.95719 3.61554 3.30281
# Velocity P-wave (km/s) = 5.69165 6.52226 6.12106
#
# Compressibility (1/GPa) = 0.02438871
#
# Stress axis : x y z
#
# Youngs Moduli (GPa) = 53.60824 63.94016 79.08562
#
# Poissons Ratio (x) = 0.34560 0.42256
# Poissons Ratio (y) = 0.28976 0.04164
# Poissons Ratio (z) = 0.28643 0.03367
#
# Static dielectric constant tensor:
#      x y z
#    x 1.682610 0.000000 0.038480 
#    y 0.000000 1.723900 0.000000 
#    z 0.038480 0.000000 1.750860 
# 
# From -- ./inp_files/247653.got.cif
#   From: 2010.05.17/outbox.cif.g08.bks.cpg/sg15_124_cif.got.tgz:247653.got - 2010.06.03 18:47:42.
