data_PCOD9294141
_publ_section_title
;
Structure prediction by ZEFSAII (Michael W. Deem and Ramdas Pophale) SiO2 
 PCOD9294141
Probable space group: C 2/C
;
_chemical_formula_sum "Si O2"
_cell_formula_units_Z 60
_cell_length_a 22.688019
_cell_length_b 9.033987
_cell_length_c 17.751643
_cell_angle_alpha 90.000000
_cell_angle_beta 122.545487
_cell_angle_gamma 90.000000
_cell_volume 3067.071783
_symmetry_space_group_name_H-M "C 2/C"
_symmetry_group_IT_number 15
_symmetry_cell_setting 'monoclinic'
loop_
_space_group_symop_operation_xyz
x,y,z
-x,y,1/2-z
-x,-y,-z
x,-y,1/2+z
1/2+x,1/2+y,z
1/2-x,1/2+y,1/2-z
1/2-x,1/2-y,-z
1/2+x,1/2-y,1/2+z
loop_
_atom_site_type_symbol
_atom_site_label
_atom_site_fract_x
_atom_site_fract_y
_atom_site_fract_z
Si Si1 0.397173 0.094746 0.968736
Si Si2 0.384266 0.026027 0.624301
Si Si3 0.398984 0.220715 0.254094
Si Si4 0.539659 0.780814 0.538917
Si Si5 0.275583 0.512776 0.495093
Si Si6 0.500000 0.551456 0.750000
Si Si7 0.245157 0.708197 0.619726
Si Si8 0.080940 0.158788 0.413760
O O1 0.455959 0.208266 0.983029
O O2 0.392871 0.081560 0.057053
O O3 0.320575 0.133123 0.885161
O O4 0.425419 0.936784 0.961340
O O5 0.421320 0.179503 0.628107
O O6 0.407288 0.934713 0.714214
O O7 0.300892 0.056013 0.573125
O O8 0.436294 0.236606 0.359299
O O9 0.435192 0.344402 0.227366
O O10 0.316530 0.248681 0.209565
O O11 0.564011 0.671591 0.490481
O O12 0.268787 0.595586 0.570301
O O13 0.284286 0.643995 0.440334
O O14 0.340595 0.403887 0.539747
O O15 0.473582 0.448373 0.664317
#
# Coordination Sequence:
#
# PCOD9294141 Si02
#       8
#     8   8   8   8   8   4   8   8
#     4   9  19  39  61  87 113 170 205 252 297 389
#     4   9  20  38  69  85 115 162 216 253 299 364
#     4  11  22  41  61  94 117 169 203 257 305 385
#     4  10  23  39  61  86 132 158 205 254 333 369
#     4   9  17  35  64  91 115 158 208 255 299 368
#     4  12  26  38  64  90 128 160 216 260 300 380
#     4   9  18  36  63  88 120 159 215 249 300 374
#     4  11  23  40  59  98 128 160 199 269 320 359
#
# _framework density 19.562633000000002
#
# number of rings (size 3 to 8) (size 9 to 14) (size 15 to 20)
#    0.000    2.133    1.333    2.000    1.867    4.267 
#    4.800    0.000    0.000    0.000    0.000    0.000 
#    0.000    0.000    0.000    0.000    0.000    0.000 
#
# Total GULP energy -167366.517002 kJ/mol
# GULP energy per Si atom -5578.883900 kJ/mol
# Density = 1.951811 g / cm^3
# Si number density = 19.562633 Si / 1000 Ang^3
#
#
#
# Elastic Constant Matrix: (Units=GPa)
#
#
# Indices 1 2 3 4 5 6 
#
# 1 73.3083 29.8999 -3.2660 0.0000 13.9660 0.0000
# 2 29.8999 62.8457 25.8383 0.0000 3.2714 0.0000
# 3 -3.2660 25.8383 26.4852 0.0000 -4.7263 0.0000
# 4 0.0000 0.0000 0.0000 22.8188 0.0000 9.0866
# 5 13.9660 3.2714 -4.7263 0.0000 25.5177 0.0000
# 6 0.0000 0.0000 0.0000 9.0866 0.0000 7.7041
#
#
#
# Elastic Compliance Matrix: (Units=1/GPa)
#
#
# Indices 1 2 3 4 5 6 
#
# 1 0.023803 -0.019526 0.020794 0.000000 -0.006673 0.000000
# 2 -0.019526 0.044492 -0.046459 0.000000 -0.003622 0.000000
# 3 0.020794 -0.046459 0.087572 0.000000 0.010795 0.000000
# 4 0.000000 0.000000 0.000000 0.082632 0.000000 -0.097460
# 5 -0.006673 -0.003622 0.010795 0.000000 0.045304 0.000000
# 6 0.000000 0.000000 0.000000 -0.097460 0.000000 0.244748
#
#
# Mechanical properties :
#
#
# Convention : Reuss Voigt Hill
#
# Bulk Modulus (GPa) = 15.27111 29.73150 22.50130
# Shear Modulus (GPa) = 7.80321 18.55260 13.17791
#
# Velocity S-wave (km/s) = 1.99937 3.08290 2.59825
# Velocity P-wave (km/s) = 3.62673 5.28237 4.53082
#
# Compressibility (1/GPa) = 0.06548313
#
# Stress axis : x y z
#
# Youngs Moduli (GPa) = 42.01177 22.47612 11.41921
#
# Poissons Ratio (x) = 0.43888 -0.23745
# Poissons Ratio (y) = 0.82034 0.53053
# Poissons Ratio (z) = -0.87359 1.04422
#
# Static dielectric constant tensor:
#      x y z
#    x 1.688840 0.000000 0.007580 
#    y 0.000000 1.703680 0.000000 
#    z 0.007580 0.000000 1.675850 
# 
# From -- ./inp_files/214299.got.cif
#   From: 2010.05.17/outbox.cif.g08.bks.cpg/sg15_108_cif.got.tgz:214299.got - 2010.06.03 18:47:42.
