data_PCOD9294242
_publ_section_title
;
Structure prediction by ZEFSAII (Michael W. Deem and Ramdas Pophale) SiO2 
 PCOD9294242
Probable space group: C 2/C
;
_chemical_formula_sum "Si O2"
_cell_formula_units_Z 44
_cell_length_a 16.714377
_cell_length_b 10.957328
_cell_length_c 20.515323
_cell_angle_alpha 90.000000
_cell_angle_beta 153.860696
_cell_angle_gamma 90.000000
_cell_volume 1655.287544
_symmetry_space_group_name_H-M "C 2/C"
_symmetry_group_IT_number 15
_symmetry_cell_setting 'monoclinic'
loop_
_space_group_symop_operation_xyz
x,y,z
-x,y,1/2-z
-x,-y,-z
x,-y,1/2+z
1/2+x,1/2+y,z
1/2-x,1/2+y,1/2-z
1/2-x,1/2-y,-z
1/2+x,1/2-y,1/2+z
loop_
_atom_site_type_symbol
_atom_site_label
_atom_site_fract_x
_atom_site_fract_y
_atom_site_fract_z
Si Si1 0.182302 0.380297 0.843057
Si Si2 0.760190 0.166281 0.262175
Si Si3 0.856238 0.786052 0.452076
Si Si4 0.865748 0.042276 0.599927
Si Si5 0.982480 0.468465 0.379048
Si Si6 0.500000 0.304925 0.750000
O O1 0.218400 0.296030 0.806812
O O2 0.147629 0.510016 0.779811
O O3 0.000000 0.357024 0.750000
O O4 0.336509 0.392758 0.010107
O O5 0.703346 0.262459 0.165964
O O6 0.629504 0.050759 0.152763
O O7 0.970514 0.126226 0.417814
O O8 0.673180 0.774773 0.360493
O O9 0.959374 0.661595 0.552798
O O10 0.670696 0.029684 0.492520
O O11 0.000000 0.102241 0.750000
O O12 0.944625 0.903136 0.653718
#
# Coordination Sequence:
#
# PCOD9294242 Si02
#       6
#     8   8   8   8   8   4
#     4   8  16  36  63  97 129 165 223 261 326 389
#     4  10  23  39  65  96 137 171 217 267 332 392
#     4  11  21  45  59  97 138 169 219 271 325 393
#     4   8  14  33  66 100 121 163 224 271 321 382
#     4   8  18  38  67  89 132 172 207 273 322 393
#     4   8  20  36  70  90 128 174 216 272 332 378
#
# _framework density 26.581485000000001
#
# number of rings (size 3 to 8) (size 9 to 14) (size 15 to 20)
#    1.636    1.455    0.000    0.545    0.000    0.727 
#    6.545    2.727    2.000    0.000    2.364    0.000 
#    2.727    0.000    0.000    0.000    0.000    0.000 
#
# Total GULP energy -122763.128125 kJ/mol
# GULP energy per Si atom -5580.142188 kJ/mol
# Density = 2.652098 g / cm^3
# Si number density = 26.581485 Si / 1000 Ang^3
#
#
#
# Elastic Constant Matrix: (Units=GPa)
#
#
# Indices 1 2 3 4 5 6 
#
# 1 127.4841 6.6015 61.1847 0.0015 -16.2878 -0.0001
# 2 6.6015 42.0433 0.1650 0.0000 -4.4928 0.0004
# 3 61.1847 0.1650 182.3929 -0.0044 -12.4825 0.0049
# 4 0.0015 0.0000 -0.0044 4.2542 0.0006 31.1932
# 5 -16.2878 -4.4928 -12.4825 0.0006 57.0646 0.0001
# 6 -0.0001 0.0004 0.0049 31.1932 0.0001 -17.9453
#
#
#
# Elastic Compliance Matrix: (Units=1/GPa)
#
#
# Indices 1 2 3 4 5 6 
#
# 1 0.009652 -0.001292 -0.003101 0.000000 0.001975 -0.000001
# 2 -0.001292 0.024162 0.000524 0.000000 0.001648 0.000000
# 3 -0.003101 0.000524 0.006563 0.000000 0.000592 0.000001
# 4 0.000000 0.000000 0.000000 0.017101 0.000000 0.029726
# 5 0.001975 0.001648 0.000592 0.000000 0.018347 0.000000
# 6 -0.000001 0.000000 0.000001 0.029726 0.000000 -0.004054
#
#
# Mechanical properties :
#
#
# Convention : Reuss Voigt Hill
#
# Bulk Modulus (GPa) = 30.63885 54.20250 42.42068
# Shear Modulus (GPa) = 55.31657 27.60598 41.46127
#
# Velocity S-wave (km/s) = 4.56677 3.22614 3.95369
# Velocity P-wave (km/s) = 6.27364 5.85770 6.06923
#
# Compressibility (1/GPa) = 0.03263830
#
# Stress axis : x y z
#
# Youngs Moduli (GPa) = 103.60717 41.38735 152.36738
#
# Poissons Ratio (x) = 0.05349 0.47256
# Poissons Ratio (y) = 0.13389 -0.07991
# Poissons Ratio (z) = 0.32133 -0.02171
#
# Static dielectric constant tensor:
#      x y z
#    x 2.175710 0.000000 0.012360 
#    y 0.000000 2.227920 0.000000 
#    z 0.012360 0.000000 2.117280 
# 
# From -- ./inp_files/280213.got.cif
#   From: 2010.05.17/outbox.cif.g08.bks.cpg/sg15_141_cif.got.tgz:280213.got - 2010.06.03 18:47:42.
