data_PCOD9294579
_publ_section_title
;
Structure prediction by ZEFSAII (Michael W. Deem and Ramdas Pophale) SiO2 
 PCOD9294579
Probable space group: C 2/C
;
_chemical_formula_sum "Si O2"
_cell_formula_units_Z 48
_cell_length_a 18.489989
_cell_length_b 14.349572
_cell_length_c 18.282609
_cell_angle_alpha 90.000000
_cell_angle_beta 26.051326
_cell_angle_gamma 90.000000
_cell_volume 2130.357487
_symmetry_space_group_name_H-M "C 2/C"
_symmetry_group_IT_number 15
_symmetry_cell_setting 'monoclinic'
loop_
_space_group_symop_operation_xyz
x,y,z
-x,y,1/2-z
-x,-y,-z
x,-y,1/2+z
1/2+x,1/2+y,z
1/2-x,1/2+y,1/2-z
1/2-x,1/2-y,-z
1/2+x,1/2-y,1/2+z
loop_
_atom_site_type_symbol
_atom_site_label
_atom_site_fract_x
_atom_site_fract_y
_atom_site_fract_z
Si Si1 0.815995 0.052170 0.392320
Si Si2 0.694494 0.118966 0.347808
Si Si3 0.813380 0.882622 0.487419
Si Si4 0.500000 0.842083 0.250000
Si Si5 0.000000 0.279581 0.750000
Si Si6 0.865904 0.692778 0.717285
Si Si7 0.834291 0.991971 0.105062
O O1 0.779511 0.071240 0.341041
O O2 0.660544 0.098868 0.577003
O O3 0.000000 0.083917 0.250000
O O4 0.810675 0.942134 0.415251
O O5 0.795920 0.214391 0.244751
O O6 0.513207 0.149480 0.536586
O O7 0.702275 0.050903 0.272049
O O8 0.632282 0.845185 0.667108
O O9 0.919173 0.790065 0.381762
O O10 0.863410 0.955719 0.502763
O O11 0.563196 0.788566 0.265014
O O12 0.727259 0.612961 0.850132
O O13 0.000000 0.000000 0.000000
#
# Coordination Sequence:
#
# PCOD9294579 Si02
#       7
#     8   8   8   4   4   8   8
#     4  11  22  41  71  99 140 183 233 291 353 414
#     4  11  27  43  69 105 140 186 231 287 357 425
#     4  11  23  45  68 101 135 181 238 291 354 414
#     4  10  23  40  71 104 136 184 232 301 345 420
#     4  10  25  42  71 102 130 182 240 295 343 418
#     4  11  25  46  69 104 141 184 237 288 356 420
#     4  12  26  46  71 100 144 189 227 295 352 432
#
# _framework density 22.531428999999999
#
# number of rings (size 3 to 8) (size 9 to 14) (size 15 to 20)
#    0.000    1.000    2.500    3.000    5.833    4.000 
#    3.000    0.000    0.000    0.000    0.000    0.000 
#    0.000    0.000    0.000    0.000    0.000    0.000 
#
# Total GULP energy -134290.740530 kJ/mol
# GULP energy per Si atom -5595.447522 kJ/mol
# Density = 2.248015 g / cm^3
# Si number density = 22.531429 Si / 1000 Ang^3
#
#
#
# Elastic Constant Matrix: (Units=GPa)
#
#
# Indices 1 2 3 4 5 6 
#
# 1 47.3130 28.3245 12.6193 -0.0004 -3.4301 -0.0001
# 2 28.3245 94.0009 -0.3325 -0.0008 -6.9953 -0.0004
# 3 12.6193 -0.3325 79.6252 0.0000 -15.3181 -0.0006
# 4 -0.0004 -0.0008 0.0000 38.0612 0.0000 10.6616
# 5 -3.4301 -6.9953 -15.3181 0.0000 38.0649 -0.0003
# 6 -0.0001 -0.0004 -0.0006 10.6616 -0.0003 36.6888
#
#
#
# Elastic Compliance Matrix: (Units=1/GPa)
#
#
# Indices 1 2 3 4 5 6 
#
# 1 0.027241 -0.008290 -0.004523 0.000000 -0.000889 0.000000
# 2 -0.008290 0.013324 0.001839 0.000000 0.002442 0.000000
# 3 -0.004523 0.001839 0.014383 0.000000 0.005719 0.000000
# 4 0.000000 0.000000 0.000000 0.028602 0.000000 -0.008312
# 5 -0.000889 0.002442 0.005719 0.000000 0.028941 0.000000
# 6 0.000000 0.000000 0.000000 -0.008312 0.000000 0.029672
#
#
# Mechanical properties :
#
#
# Convention : Reuss Voigt Hill
#
# Bulk Modulus (GPa) = 30.30223 33.57351 31.93787
# Shear Modulus (GPa) = 28.55328 34.58482 31.56905
#
# Velocity S-wave (km/s) = 3.56373 3.92211 3.74720
# Velocity P-wave (km/s) = 5.51467 5.95346 5.73826
#
# Compressibility (1/GPa) = 0.03300087
#
# Stress axis : x y z
#
# Youngs Moduli (GPa) = 36.70952 75.04977 69.52430
#
# Poissons Ratio (x) = 0.62219 0.31445
# Poissons Ratio (y) = 0.30434 -0.12787
# Poissons Ratio (z) = 0.16603 -0.13804
#
# Static dielectric constant tensor:
#      x y z
#    x 1.802690 0.000000 0.011180 
#    y 0.000000 1.803000 0.000000 
#    z 0.011180 0.000000 1.909730 
# 
# From -- ./inp_files/66525.got.cif
#   From: 2010.05.17/outbox.cif.g08.bks.cpg/sg15_34_cif.got.tgz:66525.got - 2010.06.03 18:47:42.
