data_PCOD9294218
_publ_section_title
;
Structure prediction by ZEFSAII (Michael W. Deem and Ramdas Pophale) SiO2 
 PCOD9294218
Probable space group: C 2/C
;
_chemical_formula_sum "Si O2"
_cell_formula_units_Z 48
_cell_length_a 16.570871
_cell_length_b 5.359080
_cell_length_c 22.487413
_cell_angle_alpha 90.000000
_cell_angle_beta 88.802258
_cell_angle_gamma 90.000000
_cell_volume 1996.549916
_symmetry_space_group_name_H-M "C 2/C"
_symmetry_group_IT_number 15
_symmetry_cell_setting 'monoclinic'
loop_
_space_group_symop_operation_xyz
x,y,z
-x,y,1/2-z
-x,-y,-z
x,-y,1/2+z
1/2+x,1/2+y,z
1/2-x,1/2+y,1/2-z
1/2-x,1/2-y,-z
1/2+x,1/2-y,1/2+z
loop_
_atom_site_type_symbol
_atom_site_label
_atom_site_fract_x
_atom_site_fract_y
_atom_site_fract_z
Si Si1 0.798358 0.463306 0.815368
Si Si2 0.354739 0.786537 0.200710
Si Si3 0.062726 0.923322 0.208638
Si Si4 0.573560 0.013276 0.915708
Si Si5 0.410406 0.271278 0.898749
Si Si6 0.594670 0.508663 0.982397
O O1 0.707763 0.392333 0.832295
O O2 0.799651 0.563137 0.747931
O O3 0.859974 0.233407 0.811418
O O4 0.840635 0.653143 0.859719
O O5 0.412571 0.631116 0.243179
O O6 0.399940 0.954658 0.152713
O O7 0.000000 0.766370 0.250000
O O8 0.037938 0.050812 0.146792
O O9 0.476085 0.064642 0.919635
O O10 0.612255 0.242316 0.952894
O O11 0.601478 0.748500 0.939999
O O12 0.370408 0.420019 0.953714
O O13 0.500000 0.500000 0.000000
#
# Coordination Sequence:
#
# PCOD9294218 Si02
#       6
#     8   8   8   8   8   8
#     4  11  25  39  65  91 137 176 213 278 341 408
#     4  11  24  43  60  98 133 178 220 267 352 398
#     4  11  23  39  66  95 130 165 222 282 326 405
#     4  11  24  41  72  97 134 174 227 280 326 403
#     4  10  23  39  64  96 125 172 225 274 333 393
#     4  10  23  42  67 101 132 174 222 285 336 381
#
# _framework density 24.041473
#
# number of rings (size 3 to 8) (size 9 to 14) (size 15 to 20)
#    0.000    1.333    3.333    2.000   11.667    0.000 
#    0.000    1.667    0.000    0.000    0.000    0.000 
#    0.000    0.000    0.000    0.000    0.000    0.000 
#
# Total GULP energy -134182.801024 kJ/mol
# GULP energy per Si atom -5590.950043 kJ/mol
# Density = 2.398675 g / cm^3
# Si number density = 24.041473 Si / 1000 Ang^3
#
#
#
# Elastic Constant Matrix: (Units=GPa)
#
#
# Indices 1 2 3 4 5 6 
#
# 1 35.0662 6.0349 14.3451 0.0000 3.7850 0.0000
# 2 6.0349 104.0113 51.5249 0.0000 4.5561 0.0000
# 3 14.3451 51.5249 126.5299 0.0000 8.9681 0.0000
# 4 0.0000 0.0000 0.0000 28.4464 0.0000 6.9990
# 5 3.7850 4.5561 8.9681 0.0000 18.5429 0.0000
# 6 0.0000 0.0000 0.0000 6.9990 0.0000 21.2816
#
#
#
# Elastic Compliance Matrix: (Units=1/GPa)
#
#
# Indices 1 2 3 4 5 6 
#
# 1 0.030292 -0.000020 -0.003095 0.000000 -0.004682 0.000000
# 2 -0.000020 0.012051 -0.004862 0.000000 -0.000605 0.000000
# 3 -0.003095 -0.004862 0.010463 0.000000 -0.003234 0.000000
# 4 0.000000 0.000000 0.000000 0.038249 0.000000 -0.012579
# 5 -0.004682 -0.000605 -0.003234 0.000000 0.056598 0.000000
# 6 0.000000 0.000000 0.000000 -0.012579 0.000000 0.051126
#
#
# Mechanical properties :
#
#
# Convention : Reuss Voigt Hill
#
# Bulk Modulus (GPa) = 27.13437 45.49081 36.31259
# Shear Modulus (GPa) = 22.02496 26.56767 24.29631
#
# Velocity S-wave (km/s) = 3.03004 3.32788 3.18244
# Velocity P-wave (km/s) = 4.85309 5.80769 5.35172
#
# Compressibility (1/GPa) = 0.03685363
#
# Stress axis : x y z
#
# Youngs Moduli (GPa) = 33.01191 82.98389 95.57283
#
# Poissons Ratio (x) = 0.00162 0.29575
# Poissons Ratio (y) = 0.00065 0.46468
# Poissons Ratio (z) = 0.10216 0.40347
#
# Static dielectric constant tensor:
#      x y z
#    x 1.996120 0.000000 0.041520 
#    y 0.000000 2.042820 0.000000 
#    z 0.041520 0.000000 1.974710 
# 
# From -- ./inp_files/275666.got.cif
#   From: 2010.05.17/outbox.cif.g08.bks.cpg/sg15_138_cif.got.tgz:275666.got - 2010.06.03 18:47:42.
