data_PCOD9294536
_publ_section_title
;
Structure prediction by ZEFSAII (Michael W. Deem and Ramdas Pophale) SiO2 
 PCOD9294536
Probable space group: C 2/C
;
_chemical_formula_sum "Si O2"
_cell_formula_units_Z 32
_cell_length_a 13.435498
_cell_length_b 7.217998
_cell_length_c 33.769212
_cell_angle_alpha 90.000000
_cell_angle_beta 157.451534
_cell_angle_gamma 90.000000
_cell_volume 1255.789806
_symmetry_space_group_name_H-M "C 2/C"
_symmetry_group_IT_number 15
_symmetry_cell_setting 'monoclinic'
loop_
_space_group_symop_operation_xyz
x,y,z
-x,y,1/2-z
-x,-y,-z
x,-y,1/2+z
1/2+x,1/2+y,z
1/2-x,1/2+y,1/2-z
1/2-x,1/2-y,-z
1/2+x,1/2-y,1/2+z
loop_
_atom_site_type_symbol
_atom_site_label
_atom_site_fract_x
_atom_site_fract_y
_atom_site_fract_z
Si Si1 0.151361 0.369985 0.428543
Si Si2 0.917484 0.899860 0.293825
Si Si3 0.976524 0.279870 0.500235
Si Si4 0.625341 0.217151 0.145575
O O1 0.250000 0.250000 0.500000
O O2 0.345664 0.339000 0.463839
O O3 0.857442 0.303528 0.314112
O O4 0.106150 0.578722 0.426208
O O5 0.908043 0.896306 0.338666
O O6 0.166940 0.772389 0.376434
O O7 0.874108 0.086742 0.251286
O O8 0.000000 0.500000 0.500000
O O9 0.090367 0.251485 0.586281
#
# Coordination Sequence:
#
# PCOD9294536 Si02
#       4
#     8   8   8   8
#     4  10  23  40  68 103 136 177 240 285 339 429
#     4  10  24  43  67 102 143 176 240 296 347 426
#     4  12  22  42  74  98 136 193 231 283 365 416
#     4  10  24  43  70 100 145 178 238 292 351 418
#
# _framework density 25.481971999999999
#
# number of rings (size 3 to 8) (size 9 to 14) (size 15 to 20)
#    1.500    0.000    2.500    2.250    0.000    8.000 
#    0.000    0.000   11.000    0.000    0.000    0.000 
#    0.000    0.000    0.000    0.000    0.000    0.000 
#
# Total GULP energy -89119.771765 kJ/mol
# GULP energy per Si atom -5569.985735 kJ/mol
# Density = 2.542397 g / cm^3
# Si number density = 25.481972 Si / 1000 Ang^3
#
#
#
# Elastic Constant Matrix: (Units=GPa)
#
#
# Indices 1 2 3 4 5 6 
#
# 1 188.6301 45.9296 88.4849 -0.0002 -3.7882 0.0001
# 2 45.9296 76.6674 21.7837 -0.0002 -6.6179 0.0001
# 3 88.4849 21.7837 186.6089 -0.0002 7.3180 0.0002
# 4 -0.0002 -0.0002 -0.0002 27.8370 0.0002 -4.1985
# 5 -3.7882 -6.6179 7.3180 0.0002 54.3659 -0.0001
# 6 0.0001 0.0001 0.0002 -4.1985 -0.0001 44.6769
#
#
#
# Elastic Compliance Matrix: (Units=1/GPa)
#
#
# Indices 1 2 3 4 5 6 
#
# 1 0.007733 -0.003660 -0.003260 0.000000 0.000532 0.000000
# 2 -0.003660 0.015414 -0.000128 0.000000 0.001639 0.000000
# 3 -0.003260 -0.000128 0.006966 0.000000 -0.001180 0.000000
# 4 0.000000 0.000000 0.000000 0.036440 0.000000 0.003424
# 5 0.000532 0.001639 -0.001180 0.000000 0.018789 0.000000
# 6 0.000000 0.000000 0.000000 0.003424 0.000000 0.022705
#
#
# Mechanical properties :
#
#
# Convention : Reuss Voigt Hill
#
# Bulk Modulus (GPa) = 62.43898 84.92254 73.68076
# Shear Modulus (GPa) = 39.22132 45.08985 42.15559
#
# Velocity S-wave (km/s) = 3.92749 4.21108 4.07176
# Velocity P-wave (km/s) = 6.71739 7.55269 7.14725
#
# Compressibility (1/GPa) = 0.01601564
#
# Stress axis : x y z
#
# Youngs Moduli (GPa) = 129.32241 64.87660 143.55577
#
# Poissons Ratio (x) = 0.23746 0.46802
# Poissons Ratio (y) = 0.47334 0.01838
# Poissons Ratio (z) = 0.42162 0.00831
#
# Static dielectric constant tensor:
#      x y z
#    x 2.165710 0.000000 0.118400 
#    y 0.000000 2.113990 0.000000 
#    z 0.118400 0.000000 2.220470 
# 
# From -- ./inp_files/84277.got.cif
#   From: 2010.05.17/outbox.cif.g08.bks.cpg/sg15_43_cif.got.tgz:84277.got - 2010.06.03 18:47:42.
