data_PCOD9294282
_publ_section_title
;
Structure prediction by ZEFSAII (Michael W. Deem and Ramdas Pophale) SiO2 
 PCOD9294282
Probable space group: C 2/C
;
_chemical_formula_sum "Si O2"
_cell_formula_units_Z 48
_cell_length_a 16.935851
_cell_length_b 18.112594
_cell_length_c 8.202373
_cell_angle_alpha 90.000000
_cell_angle_beta 133.137419
_cell_angle_gamma 90.000000
_cell_volume 1836.035152
_symmetry_space_group_name_H-M "C 2/C"
_symmetry_group_IT_number 15
_symmetry_cell_setting 'monoclinic'
loop_
_space_group_symop_operation_xyz
x,y,z
-x,y,1/2-z
-x,-y,-z
x,-y,1/2+z
1/2+x,1/2+y,z
1/2-x,1/2+y,1/2-z
1/2-x,1/2-y,-z
1/2+x,1/2-y,1/2+z
loop_
_atom_site_type_symbol
_atom_site_label
_atom_site_fract_x
_atom_site_fract_y
_atom_site_fract_z
Si Si1 0.806976 0.840284 0.293481
Si Si2 0.625113 0.018577 0.151997
Si Si3 0.931002 0.711080 0.989219
Si Si4 0.371598 0.817336 0.898764
Si Si5 0.836388 0.149466 0.205158
Si Si6 0.222107 0.006834 0.885222
O O1 0.678746 0.833940 0.144071
O O2 0.839848 0.760160 0.268887
O O3 0.861159 0.840395 0.549490
O O4 0.827961 0.913353 0.218025
O O5 0.645825 0.105067 0.216434
O O6 0.741047 0.985971 0.378457
O O7 0.500000 0.000000 0.000000
O O8 0.652051 0.001440 0.000473
O O9 0.903287 0.795959 0.912858
O O10 0.000000 0.701449 0.250000
O O11 0.998830 0.685149 0.926808
O O12 0.288724 0.825867 0.932664
O O13 0.847059 0.063809 0.264621
#
# Coordination Sequence:
#
# PCOD9294282 Si02
#       6
#     8   8   8   8   8   8
#     4  11  23  44  66  96 132 171 226 271 334 393
#     4  11  22  38  60  98 130 167 214 271 339 395
#     4  11  23  41  66  98 131 167 224 278 326 399
#     4  10  23  39  69  94 130 174 218 268 340 385
#     4  10  24  43  64  98 132 177 214 279 332 399
#     4  11  22  40  64  87 133 173 214 268 332 387
#
# _framework density 26.143288999999999
#
# number of rings (size 3 to 8) (size 9 to 14) (size 15 to 20)
#    0.000    1.333    1.667    4.500    0.000   10.000 
#    3.000    0.833    0.000    0.000    0.000    0.000 
#    0.000    0.000    0.000    0.000    0.000    0.000 
#
# Total GULP energy -133866.837473 kJ/mol
# GULP energy per Si atom -5577.784895 kJ/mol
# Density = 2.608379 g / cm^3
# Si number density = 26.143289 Si / 1000 Ang^3
#
#
#
# Elastic Constant Matrix: (Units=GPa)
#
#
# Indices 1 2 3 4 5 6 
#
# 1 46.8119 -18.4543 -11.8643 0.0000 4.2849 0.0000
# 2 -18.4543 185.6470 18.3837 0.0000 -4.3305 0.0000
# 3 -11.8643 18.3837 53.8207 0.0000 -1.5729 0.0000
# 4 0.0000 0.0000 0.0000 27.0310 0.0000 1.2123
# 5 4.2849 -4.3305 -1.5729 0.0000 16.2153 0.0000
# 6 0.0000 0.0000 0.0000 1.2123 0.0000 27.8943
#
#
#
# Elastic Compliance Matrix: (Units=1/GPa)
#
#
# Indices 1 2 3 4 5 6 
#
# 1 0.023686 0.001789 0.004454 0.000000 -0.005349 0.000000
# 2 0.001789 0.005738 -0.001539 0.000000 0.000910 0.000000
# 3 0.004454 -0.001539 0.020098 0.000000 0.000362 0.000000
# 4 0.000000 0.000000 0.000000 0.037067 0.000000 -0.001611
# 5 -0.005349 0.000910 0.000362 0.000000 0.063362 0.000000
# 6 0.000000 0.000000 0.000000 -0.001611 0.000000 0.035920
#
#
# Mechanical properties :
#
#
# Convention : Reuss Voigt Hill
#
# Bulk Modulus (GPa) = 16.96951 29.15666 23.06309
# Shear Modulus (GPa) = 25.49637 34.10908 29.80272
#
# Velocity S-wave (km/s) = 3.12629 3.61598 3.38002
# Velocity P-wave (km/s) = 4.42003 5.34889 4.90649
#
# Compressibility (1/GPa) = 0.05892921
#
# Stress axis : x y z
#
# Youngs Moduli (GPa) = 42.21957 174.27641 49.75543
#
# Poissons Ratio (x) = -0.31172 -0.22161
# Poissons Ratio (y) = -0.07552 0.07658
# Poissons Ratio (z) = -0.18805 0.26822
#
# Static dielectric constant tensor:
#      x y z
#    x 2.067550 0.000000 -0.024750 
#    y 0.000000 2.119930 0.000000 
#    z -0.024750 0.000000 2.064490 
# 
# From -- ./inp_files/56766.got.cif
#   From: 2010.05.17/outbox.cif.g08.bks.cpg/sg15_29_cif.got.tgz:56766.got - 2010.06.03 18:47:42.
