data_PCOD9294519
_publ_section_title
;
Structure prediction by ZEFSAII (Michael W. Deem and Ramdas Pophale) SiO2 
 PCOD9294519
Probable space group: C 2/C
;
_chemical_formula_sum "Si O2"
_cell_formula_units_Z 40
_cell_length_a 22.394649
_cell_length_b 10.031001
_cell_length_c 13.832756
_cell_angle_alpha 90.000000
_cell_angle_beta 141.543070
_cell_angle_gamma 90.000000
_cell_volume 1932.573756
_symmetry_space_group_name_H-M "C 2/C"
_symmetry_group_IT_number 15
_symmetry_cell_setting 'monoclinic'
loop_
_space_group_symop_operation_xyz
x,y,z
-x,y,1/2-z
-x,-y,-z
x,-y,1/2+z
1/2+x,1/2+y,z
1/2-x,1/2+y,1/2-z
1/2-x,1/2-y,-z
1/2+x,1/2-y,1/2+z
loop_
_atom_site_type_symbol
_atom_site_label
_atom_site_fract_x
_atom_site_fract_y
_atom_site_fract_z
Si Si1 0.010290 0.601390 0.153084
Si Si2 0.142949 0.363223 0.338046
Si Si3 0.683156 0.800716 0.184931
Si Si4 0.827299 0.912986 0.683941
Si Si5 0.821018 0.790757 0.178029
O O1 0.048190 0.450127 0.207690
O O2 0.094929 0.683854 0.210556
O O3 0.000000 0.650479 0.250000
O O4 0.911164 0.628008 0.975079
O O5 0.202765 0.372700 0.312616
O O6 0.126517 0.204549 0.322772
O O7 0.213735 0.413252 0.511274
O O8 0.662788 0.649428 0.196370
O O9 0.762321 0.799749 0.203230
O O10 0.862621 0.061203 0.713872
O O11 0.750000 0.750000 0.000000
#
# Coordination Sequence:
#
# PCOD9294519 Si02
#       5
#     8   8   8   8   8
#     4  12  23  41  67  96 134 180 222 265 335 402
#     4   9  20  41  63  90 130 164 220 269 316 393
#     4  10  23  40  67  96 129 172 226 270 326 400
#     4   9  21  40  63  94 126 169 217 266 334 377
#     4  12  23  40  67  94 135 177 212 276 335 401
#
# _framework density 20.697787999999999
#
# number of rings (size 3 to 8) (size 9 to 14) (size 15 to 20)
#    1.200    0.400    4.000    0.600    2.800    0.800 
#    3.600    1.000    0.000    0.000    0.000    0.000 
#    0.000    0.000    0.000    0.000    0.000    0.000 
#
# Total GULP energy -111465.145112 kJ/mol
# GULP energy per Si atom -5573.257256 kJ/mol
# Density = 2.065068 g / cm^3
# Si number density = 20.697788 Si / 1000 Ang^3
#
#
#
# Elastic Constant Matrix: (Units=GPa)
#
#
# Indices 1 2 3 4 5 6 
#
# 1 75.1401 5.3490 17.2470 0.0000 4.8786 0.0000
# 2 5.3490 119.3529 21.3098 0.0000 8.0195 0.0000
# 3 17.2470 21.3098 63.5359 0.0000 -2.2442 0.0000
# 4 0.0000 0.0000 0.0000 31.4575 0.0000 -1.8393
# 5 4.8786 8.0195 -2.2442 0.0000 24.1026 0.0000
# 6 0.0000 0.0000 0.0000 -1.8393 0.0000 19.2724
#
#
#
# Elastic Compliance Matrix: (Units=1/GPa)
#
#
# Indices 1 2 3 4 5 6 
#
# 1 0.014461 0.000324 -0.004155 0.000000 -0.003422 0.000000
# 2 0.000324 0.009181 -0.003288 0.000000 -0.003427 0.000000
# 3 -0.004155 -0.003288 0.018098 0.000000 0.003620 0.000000
# 4 0.000000 0.000000 0.000000 0.031967 0.000000 0.003051
# 5 -0.003422 -0.003427 0.003620 0.000000 0.043659 0.000000
# 6 0.000000 0.000000 0.000000 0.003051 0.000000 0.052179
#
#
# Mechanical properties :
#
#
# Convention : Reuss Voigt Hill
#
# Bulk Modulus (GPa) = 36.36206 38.42671 37.39439
# Shear Modulus (GPa) = 25.91321 29.24139 27.57730
#
# Velocity S-wave (km/s) = 3.54217 3.76277 3.65414
# Velocity P-wave (km/s) = 5.85965 6.12241 5.99247
#
# Compressibility (1/GPa) = 0.02750119
#
# Stress axis : x y z
#
# Youngs Moduli (GPa) = 69.15015 108.91639 55.25546
#
# Poissons Ratio (x) = -0.03525 0.22958
# Poissons Ratio (y) = -0.02238 0.18170
# Poissons Ratio (z) = 0.28732 0.35815
#
# Static dielectric constant tensor:
#      x y z
#    x 1.745680 0.000000 -0.022420 
#    y 0.000000 1.793720 0.000000 
#    z -0.022420 0.000000 1.731550 
# 
# From -- ./inp_files/172817.got.cif
#   From: 2010.05.17/outbox.cif.g08.bks.cpg/sg15_87_cif.got.tgz:172817.got - 2010.06.03 18:47:42.
