data_PCOD9294907
_publ_section_title
;
Structure prediction by ZEFSAII (Michael W. Deem and Ramdas Pophale) SiO2 
 PCOD9294907
Probable space group: C 2/C
;
_chemical_formula_sum "Si O2"
_cell_formula_units_Z 40
_cell_length_a 7.164056
_cell_length_b 18.381065
_cell_length_c 12.176381
_cell_angle_alpha 90.000000
_cell_angle_beta 91.581522
_cell_angle_gamma 90.000000
_cell_volume 1602.811328
_symmetry_space_group_name_H-M "C 2/C"
_symmetry_group_IT_number 15
_symmetry_cell_setting 'monoclinic'
loop_
_space_group_symop_operation_xyz
x,y,z
-x,y,1/2-z
-x,-y,-z
x,-y,1/2+z
1/2+x,1/2+y,z
1/2-x,1/2+y,1/2-z
1/2-x,1/2-y,-z
1/2+x,1/2-y,1/2+z
loop_
_atom_site_type_symbol
_atom_site_label
_atom_site_fract_x
_atom_site_fract_y
_atom_site_fract_z
Si Si1 0.013593 0.105375 0.621717
Si Si2 0.978275 0.759297 0.518213
Si Si3 0.000000 0.826835 0.750000
Si Si4 0.722465 0.463445 0.844209
Si Si5 0.434820 0.104766 0.530216
Si Si6 0.500000 0.956289 0.250000
O O1 0.000000 0.123087 0.750000
O O2 0.940644 0.174800 0.551897
O O3 0.224772 0.106495 0.578712
O O4 0.918461 0.024996 0.611821
O O5 0.750000 0.750000 0.500000
O O6 0.035097 0.775188 0.645489
O O7 0.025883 0.677574 0.483901
O O8 0.861718 0.885671 0.689293
O O9 0.816280 0.494745 0.735894
O O10 0.893499 0.449367 0.930127
O O11 0.546647 0.088610 0.642897
#
# Coordination Sequence:
#
# PCOD9294907 Si02
#       6
#     8   8   4   8   8   4
#     4  11  21  41  71  99 131 180 240 280 338 424
#     4  10  23  41  69 100 132 178 222 294 342 414
#     4  12  21  42  74  95 134 180 238 274 346 419
#     4  12  24  40  68 105 130 185 233 287 340 413
#     4  11  23  46  65  97 142 176 228 287 357 401
#     4  12  25  42  68  93 148 178 224 298 344 399
#
# _framework density 24.956149
#
# number of rings (size 3 to 8) (size 9 to 14) (size 15 to 20)
#    0.000    0.800    7.000    1.800    2.800    0.000 
#    1.800    1.000    0.000    0.000    0.000    0.000 
#    0.000    0.000    0.000    0.000    0.000    0.000 
#
# Total GULP energy -111381.641181 kJ/mol
# GULP energy per Si atom -5569.082059 kJ/mol
# Density = 2.489935 g / cm^3
# Si number density = 24.956149 Si / 1000 Ang^3
#
#
#
# Elastic Constant Matrix: (Units=GPa)
#
#
# Indices 1 2 3 4 5 6 
#
# 1 78.1484 12.3224 -2.6401 0.0000 -0.1779 0.0000
# 2 12.3224 135.8688 50.8425 0.0000 8.7635 0.0000
# 3 -2.6401 50.8425 141.9597 0.0000 16.8687 0.0000
# 4 0.0000 0.0000 0.0000 36.7533 0.0000 10.1886
# 5 -0.1779 8.7635 16.8687 0.0000 42.4848 0.0000
# 6 0.0000 0.0000 0.0000 10.1886 0.0000 -26.2763
#
#
#
# Elastic Compliance Matrix: (Units=1/GPa)
#
#
# Indices 1 2 3 4 5 6 
#
# 1 0.013054 -0.001473 0.000764 0.000000 0.000055 0.000000
# 2 -0.001473 0.008679 -0.003067 0.000000 -0.000579 0.000000
# 3 0.000764 -0.003067 0.008481 0.000000 -0.002732 0.000000
# 4 0.000000 0.000000 0.000000 0.024568 0.000000 0.009526
# 5 0.000055 -0.000579 -0.002732 0.000000 0.024742 0.000000
# 6 0.000000 0.000000 0.000000 0.009526 0.000000 -0.034363
#
#
# Mechanical properties :
#
#
# Convention : Reuss Voigt Hill
#
# Bulk Modulus (GPa) = 44.12708 53.00294 48.56501
# Shear Modulus (GPa) = 82.96355 30.28917 56.62636
#
# Velocity S-wave (km/s) = 5.77199 3.48759 4.76861
# Velocity P-wave (km/s) = 7.88298 6.12391 7.05846
#
# Compressibility (1/GPa) = 0.02266182
#
# Stress axis : x y z
#
# Youngs Moduli (GPa) = 76.60239 115.22573 117.90424
#
# Poissons Ratio (x) = 0.16977 -0.09007
# Poissons Ratio (y) = 0.11286 0.36160
# Poissons Ratio (z) = -0.05852 0.35338
#
# Static dielectric constant tensor:
#      x y z
#    x 2.174920 0.000000 0.193610 
#    y 0.000000 2.016260 0.000000 
#    z 0.193610 0.000000 2.078660 
# 
# From -- ./inp_files/76866.got.cif
#   From: 2010.05.17/outbox.cif.g08.bks.cpg/sg15_39_cif.got.tgz:76866.got - 2010.06.03 18:47:42.
