data_PCOD9294994
_publ_section_title
;
Structure prediction by ZEFSAII (Michael W. Deem and Ramdas Pophale) SiO2 
 PCOD9294994
Probable space group: C 2/C
;
_chemical_formula_sum "Si O2"
_cell_formula_units_Z 40
_cell_length_a 5.255281
_cell_length_b 22.273265
_cell_length_c 15.191315
_cell_angle_alpha 90.000000
_cell_angle_beta 92.634365
_cell_angle_gamma 90.000000
_cell_volume 1776.298640
_symmetry_space_group_name_H-M "C 2/C"
_symmetry_group_IT_number 15
_symmetry_cell_setting 'monoclinic'
loop_
_space_group_symop_operation_xyz
x,y,z
-x,y,1/2-z
-x,-y,-z
x,-y,1/2+z
1/2+x,1/2+y,z
1/2-x,1/2+y,1/2-z
1/2-x,1/2-y,-z
1/2+x,1/2-y,1/2+z
loop_
_atom_site_type_symbol
_atom_site_label
_atom_site_fract_x
_atom_site_fract_y
_atom_site_fract_z
Si Si1 0.450593 0.359223 0.992844
Si Si2 0.671974 0.428423 0.340708
Si Si3 0.000000 0.766168 0.250000
Si Si4 0.646158 0.566764 0.344786
Si Si5 0.500000 0.152218 0.750000
Si Si6 0.562077 0.822393 0.588265
O O1 0.470617 0.391409 0.086161
O O2 0.460676 0.411946 0.919913
O O3 0.682686 0.316545 0.966719
O O4 0.181224 0.327559 0.977527
O O5 0.500000 0.427292 0.250000
O O6 0.722180 0.498050 0.360511
O O7 0.935819 0.393560 0.327908
O O8 0.253148 0.805930 0.245711
O O9 0.003982 0.725872 0.162302
O O10 0.500000 0.573346 0.250000
O O11 0.874571 0.614709 0.359408
#
# Coordination Sequence:
#
# PCOD9294994 Si02
#       6
#     8   8   4   8   4   8
#     4  10  23  42  70 109 134 173 219 286 340 401
#     4  11  25  47  68  99 145 181 226 265 346 418
#     4  12  24  49  68  99 132 182 228 292 324 394
#     4   9  21  40  73 105 137 172 216 277 348 399
#     4  12  28  43  70  91 138 188 228 272 338 398
#     4  10  23  41  74 100 135 166 229 286 341 381
#
# _framework density 22.518736000000001
#
# number of rings (size 3 to 8) (size 9 to 14) (size 15 to 20)
#    1.200    0.400    1.000    3.000    4.200    4.800 
#    0.000    6.000    0.000    0.000    0.000    0.000 
#    0.000    0.000    0.000    0.000    0.000    0.000 
#
# Total GULP energy -111686.808379 kJ/mol
# GULP energy per Si atom -5584.340419 kJ/mol
# Density = 2.246748 g / cm^3
# Si number density = 22.518736 Si / 1000 Ang^3
#
#
#
# Elastic Constant Matrix: (Units=GPa)
#
#
# Indices 1 2 3 4 5 6 
#
# 1 150.8561 32.9057 8.3735 0.0000 -3.7475 0.0000
# 2 32.9057 66.8438 -23.6744 0.0000 6.8180 0.0000
# 3 8.3735 -23.6744 62.8141 0.0000 -9.8533 0.0000
# 4 0.0000 0.0000 0.0000 -67.5539 0.0000 2.5696
# 5 -3.7475 6.8180 -9.8533 0.0000 28.4140 0.0000
# 6 0.0000 0.0000 0.0000 2.5696 0.0000 7.4257
#
#
#
# Elastic Compliance Matrix: (Units=1/GPa)
#
#
# Indices 1 2 3 4 5 6 
#
# 1 0.007901 -0.004988 -0.002731 0.000000 0.001292 0.000000
# 2 -0.004988 0.020522 0.007957 0.000000 -0.002823 0.000000
# 3 -0.002731 0.007957 0.020016 0.000000 0.004672 0.000000
# 4 0.000000 0.000000 0.000000 -0.014611 0.000000 0.005056
# 5 0.001292 -0.002823 0.004672 0.000000 0.037662 0.000000
# 6 0.000000 0.000000 0.000000 0.005056 0.000000 0.132918
#
#
# Mechanical properties :
#
#
# Convention : Reuss Voigt Hill
#
# Bulk Modulus (GPa) = 20.44401 35.08040 27.76220
# Shear Modulus (GPa) = 22.70301 11.18445 16.94373
#
# Velocity S-wave (km/s) = 3.17863 2.23103 2.74602
# Velocity P-wave (km/s) = 4.75079 4.71687 4.73386
#
# Compressibility (1/GPa) = 0.04891409
#
# Stress axis : x y z
#
# Youngs Moduli (GPa) = 126.57371 48.72866 49.96096
#
# Poissons Ratio (x) = 0.24306 0.13642
# Poissons Ratio (y) = 0.63137 -0.39752
# Poissons Ratio (z) = 0.34561 -0.38772
#
# Static dielectric constant tensor:
#      x y z
#    x 1.834920 0.000000 -0.003280 
#    y 0.000000 1.851740 0.000000 
#    z -0.003280 0.000000 1.828570 
# 
# From -- ./inp_files/129155.got.cif
#   From: 2010.05.17/outbox.cif.g08.bks.cpg/sg15_65_cif.got.tgz:129155.got - 2010.06.03 18:47:42.
