data_PCOD9294505
_publ_section_title
;
Structure prediction by ZEFSAII (Michael W. Deem and Ramdas Pophale) SiO2 
 PCOD9294505
Probable space group: C 2/C
;
_chemical_formula_sum "Si O2"
_cell_formula_units_Z 56
_cell_length_a 9.144082
_cell_length_b 16.878294
_cell_length_c 18.613561
_cell_angle_alpha 90.000000
_cell_angle_beta 126.564460
_cell_angle_gamma 90.000000
_cell_volume 2307.357451
_symmetry_space_group_name_H-M "C 2/C"
_symmetry_group_IT_number 15
_symmetry_cell_setting 'monoclinic'
loop_
_space_group_symop_operation_xyz
x,y,z
-x,y,1/2-z
-x,-y,-z
x,-y,1/2+z
1/2+x,1/2+y,z
1/2-x,1/2+y,1/2-z
1/2-x,1/2-y,-z
1/2+x,1/2-y,1/2+z
loop_
_atom_site_type_symbol
_atom_site_label
_atom_site_fract_x
_atom_site_fract_y
_atom_site_fract_z
Si Si1 0.961960 0.766127 0.582260
Si Si2 0.838063 0.093918 0.122114
Si Si3 0.000000 0.783793 0.250000
Si Si4 0.864750 0.641680 0.291977
Si Si5 0.531163 0.913107 0.408016
Si Si6 0.000000 0.494997 0.750000
Si Si7 0.223119 0.830313 0.537257
Si Si8 0.334634 0.573562 0.613402
O O1 0.750000 0.750000 0.500000
O O2 0.970872 0.833431 0.644796
O O3 0.019698 0.678476 0.620737
O O4 0.067530 0.804760 0.546743
O O5 0.729844 0.122474 0.160589
O O6 0.934881 0.009096 0.155699
O O7 0.702291 0.084287 0.013085
O O8 0.854059 0.725670 0.246468
O O9 0.914599 0.845976 0.169696
O O10 0.846707 0.565625 0.235071
O O11 0.080578 0.648103 0.374198
O O12 0.359232 0.943166 0.404567
O O13 0.552942 0.955123 0.336948
O O14 0.250000 0.750000 0.500000
O O15 0.175690 0.904073 0.472809
#
# Coordination Sequence:
#
# PCOD9294505 Si02
#       8
#     8   8   4   8   8   4   8   8
#     4  10  23  40  67 105 131 169 225 287 342 390
#     4  11  23  45  72 100 135 178 233 286 333 404
#     4  11  26  38  61 104 140 178 217 286 354 403
#     4  11  22  44  70  97 133 184 233 278 333 412
#     4  11  21  43  69  99 130 181 232 272 332 411
#     4  11  24  38  65 104 132 174 227 288 334 395
#     4  12  20  41  75  98 125 181 240 272 321 422
#     4  12  23  42  68 100 135 178 230 280 344 409
#
# _framework density 24.270188000000001
#
# number of rings (size 3 to 8) (size 9 to 14) (size 15 to 20)
#    0.000    0.857    5.714    2.143    0.000    1.714 
#    5.143    2.143    0.000    0.000    0.000    0.000 
#    0.000    0.000    0.000    0.000    0.000    0.000 
#
# Total GULP energy -156481.752901 kJ/mol
# GULP energy per Si atom -5588.634032 kJ/mol
# Density = 2.421495 g / cm^3
# Si number density = 24.270188 Si / 1000 Ang^3
#
#
#
# Elastic Constant Matrix: (Units=GPa)
#
#
# Indices 1 2 3 4 5 6 
#
# 1 136.0077 55.4278 35.1126 0.0000 -45.0853 0.0000
# 2 55.4278 206.8921 55.4003 0.0000 -33.3367 0.0000
# 3 35.1126 55.4003 122.5504 0.0000 -27.0199 0.0000
# 4 0.0000 0.0000 0.0000 40.0142 0.0000 -13.9372
# 5 -45.0853 -33.3367 -27.0199 0.0000 45.3234 0.0000
# 6 0.0000 0.0000 0.0000 -13.9372 0.0000 36.4115
#
#
#
# Elastic Compliance Matrix: (Units=1/GPa)
#
#
# Indices 1 2 3 4 5 6 
#
# 1 0.011327 -0.001296 -0.000444 0.000000 0.010049 0.000000
# 2 -0.001296 0.006013 -0.001907 0.000000 0.001996 0.000000
# 3 -0.000444 -0.001907 0.010065 0.000000 0.004157 0.000000
# 4 0.000000 0.000000 0.000000 0.028835 0.000000 0.011037
# 5 0.010049 0.001996 0.004157 0.000000 0.036006 0.000000
# 6 0.000000 0.000000 0.000000 0.011037 0.000000 0.031689
#
#
# Mechanical properties :
#
#
# Convention : Reuss Voigt Hill
#
# Bulk Modulus (GPa) = 49.72228 84.14794 66.93511
# Shear Modulus (GPa) = 36.24958 45.65047 40.95002
#
# Velocity S-wave (km/s) = 3.86888 4.34167 4.11208
# Velocity P-wave (km/s) = 6.36311 7.73822 7.08411
#
# Compressibility (1/GPa) = 0.02011171
#
# Stress axis : x y z
#
# Youngs Moduli (GPa) = 88.28814 166.30629 99.34999
#
# Poissons Ratio (x) = 0.21561 0.04407
# Poissons Ratio (y) = 0.11446 0.18942
# Poissons Ratio (z) = 0.03916 0.31708
#
# Static dielectric constant tensor:
#      x y z
#    x 1.969940 0.000000 0.045920 
#    y 0.000000 2.005100 0.000000 
#    z 0.045920 0.000000 2.159320 
# 
# From -- ./inp_files/191075.got.cif
#   From: 2010.05.17/outbox.cif.g08.bks.cpg/sg15_96_cif.got.tgz:191075.got - 2010.06.03 18:47:42.
