data_PCOD9294457
_publ_section_title
;
Structure prediction by ZEFSAII (Michael W. Deem and Ramdas Pophale) SiO2 
 PCOD9294457
Probable space group: C 2/C
;
_chemical_formula_sum "Si O2"
_cell_formula_units_Z 40
_cell_length_a 5.229214
_cell_length_b 27.898455
_cell_length_c 12.846702
_cell_angle_alpha 90.000000
_cell_angle_beta 100.119211
_cell_angle_gamma 90.000000
_cell_volume 1845.012777
_symmetry_space_group_name_H-M "C 2/C"
_symmetry_group_IT_number 15
_symmetry_cell_setting 'monoclinic'
loop_
_space_group_symop_operation_xyz
x,y,z
-x,y,1/2-z
-x,-y,-z
x,-y,1/2+z
1/2+x,1/2+y,z
1/2-x,1/2+y,1/2-z
1/2-x,1/2-y,-z
1/2+x,1/2-y,1/2+z
loop_
_atom_site_type_symbol
_atom_site_label
_atom_site_fract_x
_atom_site_fract_y
_atom_site_fract_z
Si Si1 0.425863 0.708934 0.964763
Si Si2 0.035610 0.598443 0.126702
Si Si3 0.393611 0.200682 0.126752
Si Si4 0.518583 0.443794 0.978937
Si Si5 0.221954 0.120598 0.678601
O O1 0.596930 0.743065 0.902026
O O2 0.282358 0.670274 0.885433
O O3 0.250000 0.750000 0.000000
O O4 0.603676 0.687388 0.068942
O O5 0.049367 0.654619 0.091811
O O6 0.771253 0.576196 0.061308
O O7 0.000000 0.596857 0.250000
O O8 0.287407 0.570592 0.101956
O O9 0.500000 0.200276 0.250000
O O10 0.500000 0.500000 0.000000
O O11 0.643742 0.419200 0.089256
O O12 0.500000 0.112089 0.750000
O O13 0.000000 0.122907 0.750000
#
# Coordination Sequence:
#
# PCOD9294457 Si02
#       5
#     8   8   8   8   8
#     4  11  24  40  67  98 144 188 243 295 360 433
#     4  11  24  46  73 106 142 181 234 298 367 430
#     4  10  23  40  65  98 138 184 239 289 361 426
#     4  12  26  48  74 105 141 184 244 304 369 438
#     4  12  28  47  72 103 148 196 245 301 373 442
#
# _framework density 21.680067999999999
#
# number of rings (size 3 to 8) (size 9 to 14) (size 15 to 20)
#    0.000    0.800    2.000    4.200    8.400    2.400 
#    0.000    0.000    0.000    0.000    0.000    0.000 
#    0.000    0.000    0.000    0.000    0.000    0.000 
#
# Total GULP energy -111618.812727 kJ/mol
# GULP energy per Si atom -5580.940636 kJ/mol
# Density = 2.163072 g / cm^3
# Si number density = 21.680068 Si / 1000 Ang^3
#
#
#
# Elastic Constant Matrix: (Units=GPa)
#
#
# Indices 1 2 3 4 5 6 
#
# 1 102.7764 16.1859 37.1082 0.0000 3.7996 0.0000
# 2 16.1859 147.5432 33.7478 0.0000 9.5444 0.0000
# 3 37.1082 33.7478 122.3063 0.0000 11.7956 0.0000
# 4 0.0000 0.0000 0.0000 36.3665 0.0000 -14.4439
# 5 3.7996 9.5444 11.7956 0.0000 44.0436 0.0000
# 6 0.0000 0.0000 0.0000 -14.4439 0.0000 34.4996
#
#
#
# Elastic Compliance Matrix: (Units=1/GPa)
#
#
# Indices 1 2 3 4 5 6 
#
# 1 0.010957 -0.000472 -0.003196 0.000000 0.000013 0.000000
# 2 -0.000472 0.007303 -0.001769 0.000000 -0.001068 0.000000
# 3 -0.003196 -0.001769 0.009824 0.000000 -0.001972 0.000000
# 4 0.000000 0.000000 0.000000 0.032982 0.000000 0.013809
# 5 0.000013 -0.001068 -0.001972 0.000000 0.023463 0.000000
# 6 0.000000 0.000000 0.000000 0.013809 0.000000 0.034767
#
#
# Mechanical properties :
#
#
# Convention : Reuss Voigt Hill
#
# Bulk Modulus (GPa) = 58.09978 60.74550 59.42264
# Shear Modulus (GPa) = 36.78972 42.02087 39.40529
#
# Velocity S-wave (km/s) = 4.12386 4.40730 4.26794
# Velocity P-wave (km/s) = 7.03789 7.34704 7.19412
#
# Compressibility (1/GPa) = 0.01721177
#
# Stress axis : x y z
#
# Youngs Moduli (GPa) = 91.26171 136.92699 101.79130
#
# Poissons Ratio (x) = 0.06463 0.32528
# Poissons Ratio (y) = 0.04307 0.18006
# Poissons Ratio (z) = 0.29163 0.24221
#
# Static dielectric constant tensor:
#      x y z
#    x 1.746080 0.000000 -0.032450 
#    y 0.000000 1.757260 0.000000 
#    z -0.032450 0.000000 1.827280 
# 
# From -- ./inp_files/73091.got.cif
#   From: 2010.05.17/outbox.cif.g08.bks.cpg/sg15_37_cif.got.tgz:73091.got - 2010.06.03 18:47:42.
