data_PCOD9294367
_publ_section_title
;
Structure prediction by ZEFSAII (Michael W. Deem and Ramdas Pophale) SiO2 
 PCOD9294367
Probable space group: C 2/C
;
_chemical_formula_sum "Si O2"
_cell_formula_units_Z 40
_cell_length_a 6.949927
_cell_length_b 9.164507
_cell_length_c 25.152954
_cell_angle_alpha 90.000000
_cell_angle_beta 72.943252
_cell_angle_gamma 90.000000
_cell_volume 1531.591409
_symmetry_space_group_name_H-M "C 2/C"
_symmetry_group_IT_number 15
_symmetry_cell_setting 'monoclinic'
loop_
_space_group_symop_operation_xyz
x,y,z
-x,y,1/2-z
-x,-y,-z
x,-y,1/2+z
1/2+x,1/2+y,z
1/2-x,1/2+y,1/2-z
1/2-x,1/2-y,-z
1/2+x,1/2-y,1/2+z
loop_
_atom_site_type_symbol
_atom_site_label
_atom_site_fract_x
_atom_site_fract_y
_atom_site_fract_z
Si Si1 0.049948 0.652028 0.681675
Si Si2 0.899335 0.665039 0.203696
Si Si3 0.483540 0.277396 0.988001
Si Si4 0.447219 0.550236 0.591839
Si Si5 0.248208 0.815451 0.117218
O O1 0.183312 0.758510 0.709445
O O2 0.233053 0.581755 0.633587
O O3 0.910875 0.510746 0.708900
O O4 0.901615 0.726049 0.651458
O O5 0.000000 0.724406 0.250000
O O6 0.056544 0.709578 0.144490
O O7 0.556557 0.414684 0.947050
O O8 0.610881 0.158425 0.946323
O O9 0.250000 0.250000 0.000000
O O10 0.511723 0.316592 0.046996
O O11 0.615401 0.536029 0.624153
#
# Coordination Sequence:
#
# PCOD9294367 Si02
#       5
#     8   8   8   8   8
#     4  11  25  47  73 104 138 184 237 295 367 432
#     4  11  28  48  73 105 138 182 241 300 369 437
#     4  11  21  39  62  97 138 190 227 284 351 425
#     4  10  23  40  62  99 139 182 237 282 350 430
#     4  11  24  42  68  98 141 184 233 300 349 433
#
# _framework density 26.116626
#
# number of rings (size 3 to 8) (size 9 to 14) (size 15 to 20)
#    0.000    1.200    4.000    0.600    5.600    0.800 
#    0.000    0.000    0.000    0.000    0.000    0.000 
#    0.000    0.000    0.000    0.000    0.000    0.000 
#
# Total GULP energy -111380.424573 kJ/mol
# GULP energy per Si atom -5569.021229 kJ/mol
# Density = 2.605718 g / cm^3
# Si number density = 26.116626 Si / 1000 Ang^3
#
#
#
# Elastic Constant Matrix: (Units=GPa)
#
#
# Indices 1 2 3 4 5 6 
#
# 1 205.9832 33.1201 25.9215 0.0000 -2.7629 0.0000
# 2 33.1201 60.8276 16.3407 0.0000 -1.0631 0.0000
# 3 25.9215 16.3407 81.3710 0.0000 5.4972 0.0000
# 4 0.0000 0.0000 0.0000 34.8198 0.0000 -2.4014
# 5 -2.7629 -1.0631 5.4972 0.0000 50.9389 0.0000
# 6 0.0000 0.0000 0.0000 -2.4014 0.0000 26.5710
#
#
#
# Elastic Compliance Matrix: (Units=1/GPa)
#
#
# Indices 1 2 3 4 5 6 
#
# 1 0.005436 -0.002623 -0.001230 0.000000 0.000373 0.000000
# 2 -0.002623 0.018671 -0.002952 0.000000 0.000566 0.000000
# 3 -0.001230 -0.002952 0.013380 0.000000 -0.001572 0.000000
# 4 0.000000 0.000000 0.000000 0.028899 0.000000 0.002612
# 5 0.000373 0.000566 -0.001572 0.000000 0.019833 0.000000
# 6 0.000000 0.000000 0.000000 0.002612 0.000000 0.037871
#
#
# Mechanical properties :
#
#
# Convention : Reuss Voigt Hill
#
# Bulk Modulus (GPa) = 41.88134 55.43849 48.65992
# Shear Modulus (GPa) = 34.32625 40.65257 37.48941
#
# Velocity S-wave (km/s) = 3.62932 3.94963 3.79286
# Velocity P-wave (km/s) = 5.79946 6.48635 6.15250
#
# Compressibility (1/GPa) = 0.02387698
#
# Stress axis : x y z
#
# Youngs Moduli (GPa) = 183.94732 53.55875 74.73646
#
# Poissons Ratio (x) = 0.14049 0.09194
# Poissons Ratio (y) = 0.48250 0.22063
# Poissons Ratio (z) = 0.22630 0.15811
#
# Static dielectric constant tensor:
#      x y z
#    x 2.145730 0.000000 0.275300 
#    y 0.000000 2.254020 0.000000 
#    z 0.275300 0.000000 2.458200 
# 
# From -- ./inp_files/285165.got.cif
#   From: 2010.05.17/outbox.cif.g08.bks.cpg/sg15_143_cif.got.tgz:285165.got - 2010.06.03 18:47:42.
