data_PCOD9294046
_publ_section_title
;
Structure prediction by ZEFSAII (Michael W. Deem and Ramdas Pophale) SiO2 
 PCOD9294046
Probable space group: C 2/C
;
_chemical_formula_sum "Si O2"
_cell_formula_units_Z 64
_cell_length_a 14.687719
_cell_length_b 8.861330
_cell_length_c 23.552676
_cell_angle_alpha 90.000000
_cell_angle_beta 84.362891
_cell_angle_gamma 90.000000
_cell_volume 3050.620438
_symmetry_space_group_name_H-M "C 2/C"
_symmetry_group_IT_number 15
_symmetry_cell_setting 'monoclinic'
loop_
_space_group_symop_operation_xyz
x,y,z
-x,y,1/2-z
-x,-y,-z
x,-y,1/2+z
1/2+x,1/2+y,z
1/2-x,1/2+y,1/2-z
1/2-x,1/2-y,-z
1/2+x,1/2-y,1/2+z
loop_
_atom_site_type_symbol
_atom_site_label
_atom_site_fract_x
_atom_site_fract_y
_atom_site_fract_z
Si Si1 0.201337 0.091323 0.823210
Si Si2 0.686456 0.157217 0.920959
Si Si3 0.877801 0.121084 0.472236
Si Si4 0.845296 0.361337 0.868586
Si Si5 0.597046 0.978099 0.024097
Si Si6 0.578182 0.453570 0.920010
Si Si7 0.274446 0.594959 0.364720
Si Si8 0.902409 0.898996 0.285104
O O1 0.239138 0.248160 0.844236
O O2 0.173727 0.111282 0.759872
O O3 0.276914 0.964950 0.835099
O O4 0.109642 0.041430 0.862427
O O5 0.781321 0.248104 0.909314
O O6 0.609408 0.280983 0.913886
O O7 0.694879 0.030873 0.871480
O O8 0.664310 0.080763 0.982127
O O9 0.884100 0.300133 0.481427
O O10 0.803146 0.103942 0.428515
O O11 0.971856 0.050069 0.441578
O O12 0.865912 0.033687 0.532083
O O13 0.898212 0.463711 0.911258
O O14 0.902477 0.252204 0.823715
O O15 0.500000 0.000000 0.000000
O O16 0.362909 0.534559 0.325841
O O17 0.000000 0.924622 0.250000
#
# Coordination Sequence:
#
# PCOD9294046 Si02
#       8
#     8   8   8   8   8   8   8   8
#     4  11  22  44  66  94 126 167 221 267 319 376
#     4  10  23  38  62  94 130 173 206 255 318 384
#     4  11  23  39  60  96 132 170 209 260 322 383
#     4  10  24  42  66  92 128 171 220 264 320 387
#     4  12  23  39  63  97 137 170 210 262 323 393
#     4  10  23  39  62  93 133 168 207 260 319 388
#     4  11  24  40  68  94 127 165 219 264 322 381
#     4  11  25  45  68  91 125 171 217 274 328 383
#
# _framework density 20.979341000000002
#
# number of rings (size 3 to 8) (size 9 to 14) (size 15 to 20)
#    0.000    1.250    2.500    2.625    7.000    3.000 
#    0.000    0.625    0.000    0.000    0.000    0.000 
#    0.000    0.000    0.000    0.000    0.000    0.000 
#
# Total GULP energy -178824.590955 kJ/mol
# GULP energy per Si atom -5588.268467 kJ/mol
# Density = 2.093159 g / cm^3
# Si number density = 20.979341 Si / 1000 Ang^3
#
#
#
# Elastic Constant Matrix: (Units=GPa)
#
#
# Indices 1 2 3 4 5 6 
#
# 1 42.2417 19.6665 32.3054 0.0000 7.6149 0.0000
# 2 19.6665 123.0947 29.5501 0.0000 -3.5688 0.0000
# 3 32.3054 29.5501 88.0206 0.0000 4.2424 0.0000
# 4 0.0000 0.0000 0.0000 27.1907 0.0000 1.5786
# 5 7.6149 -3.5688 4.2424 0.0000 36.0850 0.0000
# 6 0.0000 0.0000 0.0000 1.5786 0.0000 16.5081
#
#
#
# Elastic Compliance Matrix: (Units=1/GPa)
#
#
# Indices 1 2 3 4 5 6 
#
# 1 0.035049 -0.003011 -0.011547 0.000000 -0.006336 0.000000
# 2 -0.003011 0.009149 -0.002052 0.000000 0.001782 0.000000
# 3 -0.011547 -0.002052 0.016273 0.000000 0.000321 0.000000
# 4 0.000000 0.000000 0.000000 0.036983 0.000000 -0.003536
# 5 -0.006336 0.001782 0.000321 0.000000 0.029188 0.000000
# 6 0.000000 0.000000 0.000000 -0.003536 0.000000 0.060914
#
#
# Mechanical properties :
#
#
# Convention : Reuss Voigt Hill
#
# Bulk Modulus (GPa) = 36.69873 46.26677 41.48275
# Shear Modulus (GPa) = 21.75240 27.41244 24.58242
#
# Velocity S-wave (km/s) = 3.22351 3.61867 3.42679
# Velocity P-wave (km/s) = 5.60227 6.28976 5.95594
#
# Compressibility (1/GPa) = 0.02724890
#
# Stress axis : x y z
#
# Youngs Moduli (GPa) = 28.53183 109.29859 61.45316
#
# Poissons Ratio (x) = 0.32913 0.70961
# Poissons Ratio (y) = 0.08592 0.12612
# Poissons Ratio (z) = 0.32946 0.22431
#
# Static dielectric constant tensor:
#      x y z
#    x 1.812270 0.000000 -0.002460 
#    y 0.000000 1.794430 0.000000 
#    z -0.002460 0.000000 1.766270 
# 
# From -- ./inp_files/273159.got.cif
#   From: 2010.05.17/outbox.cif.g08.bks.cpg/sg15_137_cif.got.tgz:273159.got - 2010.06.03 18:47:42.
