data_PCOD9294437
_publ_section_title
;
Structure prediction by ZEFSAII (Michael W. Deem and Ramdas Pophale) SiO2 
 PCOD9294437
Probable space group: C 2/C
;
_chemical_formula_sum "Si O2"
_cell_formula_units_Z 56
_cell_length_a 28.665994
_cell_length_b 16.675534
_cell_length_c 5.176169
_cell_angle_alpha 90.000000
_cell_angle_beta 100.980623
_cell_angle_gamma 90.000000
_cell_volume 2429.015598
_symmetry_space_group_name_H-M "C 2/C"
_symmetry_group_IT_number 15
_symmetry_cell_setting 'monoclinic'
loop_
_space_group_symop_operation_xyz
x,y,z
-x,y,1/2-z
-x,-y,-z
x,-y,1/2+z
1/2+x,1/2+y,z
1/2-x,1/2+y,1/2-z
1/2-x,1/2-y,-z
1/2+x,1/2-y,1/2+z
loop_
_atom_site_type_symbol
_atom_site_label
_atom_site_fract_x
_atom_site_fract_y
_atom_site_fract_z
Si Si1 0.185165 0.947310 0.304852
Si Si2 0.628369 0.828538 0.224056
Si Si3 0.053618 0.030150 0.486292
Si Si4 0.450219 0.800694 0.759551
Si Si5 0.703769 0.054606 0.590443
Si Si6 0.611309 0.675985 0.495232
Si Si7 0.576000 0.943298 0.488694
O O1 0.240610 0.923353 0.343021
O O2 0.152104 0.875436 0.173633
O O3 0.177613 0.981332 0.585649
O O4 0.669944 0.869604 0.105294
O O5 0.633167 0.735375 0.303728
O O6 0.620419 0.884344 0.469211
O O7 0.578822 0.833718 0.015098
O O8 0.068661 0.114200 0.374189
O O9 0.074331 0.969493 0.296731
O O10 0.000000 0.000000 0.500000
O O11 0.500000 0.760672 0.750000
O O12 0.415341 0.736538 0.844615
O O13 0.461347 0.874658 0.964954
O O14 0.695001 0.008040 0.314684
O O15 0.574752 0.001460 0.734529
#
# Coordination Sequence:
#
# PCOD9294437 Si02
#       7
#     8   8   8   8   8   8   8
#     4  10  23  46  72 106 135 177 230 292 349 406
#     4  11  25  43  67 103 140 190 223 286 352 411
#     4  10  23  40  65  94 119 171 232 277 327 391
#     4  11  28  45  64 100 143 188 228 289 351 400
#     4  10  23  43  75 102 138 178 230 284 340 423
#     4  11  26  41  69  98 144 180 229 288 347 417
#     4  11  22  43  69  92 126 176 234 283 331 400
#
# _framework density 23.054604999999999
#
# number of rings (size 3 to 8) (size 9 to 14) (size 15 to 20)
#    0.000    1.429    1.429    1.714   10.000    4.571 
#    0.000    0.714    0.000    0.000    0.000    0.000 
#    0.000    0.000    0.000    0.000    0.000    0.000 
#
# Total GULP energy -156179.056660 kJ/mol
# GULP energy per Si atom -5577.823452 kJ/mol
# Density = 2.300213 g / cm^3
# Si number density = 23.054605 Si / 1000 Ang^3
#
#
#
# Elastic Constant Matrix: (Units=GPa)
#
#
# Indices 1 2 3 4 5 6 
#
# 1 95.9823 39.7353 6.2155 0.0000 18.0903 0.0000
# 2 39.7353 113.1657 34.4177 0.0000 -3.9310 0.0000
# 3 6.2155 34.4177 112.4538 0.0000 -6.3024 0.0000
# 4 0.0000 0.0000 0.0000 25.5963 0.0000 -3.7686
# 5 18.0903 -3.9310 -6.3024 0.0000 27.5670 0.0000
# 6 0.0000 0.0000 0.0000 -3.7686 0.0000 33.1817
#
#
#
# Elastic Compliance Matrix: (Units=1/GPa)
#
#
# Indices 1 2 3 4 5 6 
#
# 1 0.014671 -0.005610 0.000326 0.000000 -0.010353 0.000000
# 2 -0.005610 0.011903 -0.003071 0.000000 0.004677 0.000000
# 3 0.000326 -0.003071 0.009905 0.000000 0.001613 0.000000
# 4 0.000000 0.000000 0.000000 0.039733 0.000000 0.004513
# 5 -0.010353 0.004677 0.001613 0.000000 0.044105 0.000000
# 6 0.000000 0.000000 0.000000 0.004513 0.000000 0.030650
#
#
# Mechanical properties :
#
#
# Convention : Reuss Voigt Hill
#
# Bulk Modulus (GPa) = 50.58482 53.59320 52.08901
# Shear Modulus (GPa) = 28.69176 33.35123 31.02149
#
# Velocity S-wave (km/s) = 3.53159 3.80757 3.67218
# Velocity P-wave (km/s) = 6.21438 6.52892 6.37359
#
# Compressibility (1/GPa) = 0.01976878
#
# Stress axis : x y z
#
# Youngs Moduli (GPa) = 68.15985 84.01318 100.96157
#
# Poissons Ratio (x) = 0.47133 -0.03291
# Poissons Ratio (y) = 0.38239 0.31003
# Poissons Ratio (z) = -0.02222 0.25799
#
# Static dielectric constant tensor:
#      x y z
#    x 2.071660 0.000000 0.156430 
#    y 0.000000 1.898960 0.000000 
#    z 0.156430 0.000000 2.080670 
# 
# From -- ./inp_files/18217.got.cif
#   From: 2010.05.17/outbox.cif.g08.bks.cpg/sg15_10_cif.got.tgz:18217.got - 2010.06.03 18:47:42.
