data_PCOD9294806
_publ_section_title
;
Structure prediction by ZEFSAII (Michael W. Deem and Ramdas Pophale) SiO2 
 PCOD9294806
Probable space group: C 2/C
;
_chemical_formula_sum "Si O2"
_cell_formula_units_Z 64
_cell_length_a 9.326241
_cell_length_b 26.476886
_cell_length_c 17.826946
_cell_angle_alpha 90.000000
_cell_angle_beta 142.869989
_cell_angle_gamma 90.000000
_cell_volume 2657.162963
_symmetry_space_group_name_H-M "C 2/C"
_symmetry_group_IT_number 15
_symmetry_cell_setting 'monoclinic'
loop_
_space_group_symop_operation_xyz
x,y,z
-x,y,1/2-z
-x,-y,-z
x,-y,1/2+z
1/2+x,1/2+y,z
1/2-x,1/2+y,1/2-z
1/2-x,1/2-y,-z
1/2+x,1/2-y,1/2+z
loop_
_atom_site_type_symbol
_atom_site_label
_atom_site_fract_x
_atom_site_fract_y
_atom_site_fract_z
Si Si1 0.382863 0.868110 0.124629
Si Si2 0.742209 0.122668 0.469831
Si Si3 0.361146 0.676061 0.768430
Si Si4 0.763396 0.955923 0.842750
Si Si5 0.771233 0.740997 0.597772
Si Si6 0.001722 0.277777 0.887058
Si Si7 0.895364 0.550743 0.381931
Si Si8 0.731842 0.535227 0.474994
O O1 0.500000 0.888197 0.250000
O O2 0.600038 0.846278 0.166087
O O3 0.226138 0.819350 0.080870
O O4 0.258317 0.911918 0.027769
O O5 0.788649 0.085844 0.418702
O O6 0.559978 0.168486 0.376115
O O7 0.612668 0.089671 0.480694
O O8 0.974603 0.147380 0.602350
O O9 0.500000 0.668486 0.750000
O O10 0.348757 0.736667 0.777757
O O11 0.500000 0.979441 0.750000
O O12 0.732141 0.931445 0.746999
O O13 0.000308 0.988458 0.920472
O O14 0.750000 0.750000 0.500000
O O15 0.596937 0.778529 0.569387
O O16 0.000000 0.745742 0.750000
O O17 0.250000 0.250000 0.000000
O O18 0.029871 0.498244 0.419436
O O19 0.732251 0.544347 0.385969
#
# Coordination Sequence:
#
# PCOD9294806 Si02
#       8
#     8   8   8   8   8   8   8   8
#     4  11  23  43  69 101 138 184 243 300 361 425
#     4  10  23  42  65  98 141 184 233 292 360 435
#     4  11  22  39  67  99 134 182 237 297 354 429
#     4  10  23  44  68  99 139 184 234 288 361 441
#     4  11  25  46  68 103 142 187 248 303 364 444
#     4  10  23  41  66  98 138 185 235 298 361 433
#     4  10  24  45  67 105 139 184 236 291 370 439
#     4  11  24  43  73 100 143 182 235 306 360 436
#
# _framework density 24.085840000000001
#
# number of rings (size 3 to 8) (size 9 to 14) (size 15 to 20)
#    0.000    1.500    2.500    1.875    7.000    6.000 
#    4.500    1.250    0.000    0.000    0.000    0.000 
#    0.000    0.000    0.000    0.000    0.000    0.000 
#
# Total GULP energy -178460.290519 kJ/mol
# GULP energy per Si atom -5576.884079 kJ/mol
# Density = 2.403102 g / cm^3
# Si number density = 24.085840 Si / 1000 Ang^3
#
#
#
# Elastic Constant Matrix: (Units=GPa)
#
#
# Indices 1 2 3 4 5 6 
#
# 1 210.9757 37.8294 48.8674 0.0003 -16.9010 0.0000
# 2 37.8294 74.9951 36.8571 0.0000 0.9345 -0.0001
# 3 48.8674 36.8571 67.1526 0.0025 -24.5926 0.0006
# 4 0.0003 0.0000 0.0025 -9.1456 0.0009 -1.3397
# 5 -16.9010 0.9345 -24.5926 0.0009 43.4095 0.0002
# 6 0.0000 -0.0001 0.0006 -1.3397 0.0002 41.5011
#
#
#
# Elastic Compliance Matrix: (Units=1/GPa)
#
#
# Indices 1 2 3 4 5 6 
#
# 1 0.005778 -0.001256 -0.003383 -0.000001 0.000360 0.000000
# 2 -0.001256 0.020802 -0.013686 -0.000005 -0.008690 0.000000
# 3 -0.003383 -0.013686 0.030902 0.000010 0.016484 0.000000
# 4 -0.000001 -0.000005 0.000010 -0.108828 0.000008 -0.003513
# 5 0.000360 -0.008690 0.016484 0.000008 0.032702 0.000000
# 6 0.000000 0.000000 0.000000 -0.003513 0.000000 0.023982
#
#
# Mechanical properties :
#
#
# Convention : Reuss Voigt Hill
#
# Bulk Modulus (GPa) = 48.00490 66.69234 57.34862
# Shear Modulus (GPa) = 102.18216 30.45763 66.31990
#
# Velocity S-wave (km/s) = 6.52045 3.55990 5.25305
# Velocity P-wave (km/s) = 8.75571 6.68182 7.78810
#
# Compressibility (1/GPa) = 0.02083121
#
# Stress axis : x y z
#
# Youngs Moduli (GPa) = 173.08317 48.07188 32.36064
#
# Poissons Ratio (x) = 0.06039 0.10948
# Poissons Ratio (y) = 0.21742 0.44288
# Poissons Ratio (z) = 0.58557 0.65790
#
# Static dielectric constant tensor:
#      x y z
#    x 2.002710 0.000000 0.072300 
#    y 0.000000 1.878250 0.000000 
#    z 0.072300 0.000000 2.060600 
# 
# From -- ./inp_files/194266.got.cif
#   From: 2010.05.17/outbox.cif.g08.bks.cpg/sg15_98_cif.got.tgz:194266.got - 2010.06.03 18:47:42.
