data_PCOD9294589
_publ_section_title
;
Structure prediction by ZEFSAII (Michael W. Deem and Ramdas Pophale) SiO2 
 PCOD9294589
Probable space group: C 2/C
;
_chemical_formula_sum "Si O2"
_cell_formula_units_Z 40
_cell_length_a 13.422661
_cell_length_b 17.170095
_cell_length_c 8.560124
_cell_angle_alpha 90.000000
_cell_angle_beta 105.070490
_cell_angle_gamma 90.000000
_cell_volume 1904.985327
_symmetry_space_group_name_H-M "C 2/C"
_symmetry_group_IT_number 15
_symmetry_cell_setting 'monoclinic'
loop_
_space_group_symop_operation_xyz
x,y,z
-x,y,1/2-z
-x,-y,-z
x,-y,1/2+z
1/2+x,1/2+y,z
1/2-x,1/2+y,1/2-z
1/2-x,1/2-y,-z
1/2+x,1/2-y,1/2+z
loop_
_atom_site_type_symbol
_atom_site_label
_atom_site_fract_x
_atom_site_fract_y
_atom_site_fract_z
Si Si1 0.152267 0.044874 0.545955
Si Si2 0.200322 0.191709 0.355534
Si Si3 0.687341 0.903309 0.838300
Si Si4 0.500000 0.545596 0.750000
Si Si5 0.000000 0.291006 0.250000
Si Si6 0.992256 0.591184 0.027683
O O1 0.196037 0.112216 0.454119
O O2 0.087648 0.080238 0.667487
O O3 0.239535 0.980603 0.629868
O O4 0.070341 0.002549 0.398943
O O5 0.250000 0.250000 0.500000
O O6 0.250273 0.167676 0.210889
O O7 0.094357 0.232730 0.268302
O O8 0.585369 0.902802 0.688839
O O9 0.628166 0.893501 0.977847
O O10 0.982158 0.349073 0.098696
O O11 0.000000 0.500000 0.000000
#
# Coordination Sequence:
#
# PCOD9294589 Si02
#       6
#     8   8   8   4   4   8
#     4  11  23  45  70 102 136 183 229 289 335 430
#     4  12  26  45  69 104 143 183 225 296 364 399
#     4  11  24  45  73  99 139 184 243 276 349 422
#     4  10  23  40  72  99 130 174 242 270 337 402
#     4  12  27  46  70 105 150 176 230 300 351 414
#     4  11  25  45  73 104 135 189 240 286 339 425
#
# _framework density 20.997536
#
# number of rings (size 3 to 8) (size 9 to 14) (size 15 to 20)
#    0.000    0.800    4.000    3.000    5.600    0.800 
#    3.600    0.000    0.000    0.000    0.000    0.000 
#    0.000    0.000    0.000    0.000    0.000    0.000 
#
# Total GULP energy -111345.679547 kJ/mol
# GULP energy per Si atom -5567.283977 kJ/mol
# Density = 2.094974 g / cm^3
# Si number density = 20.997536 Si / 1000 Ang^3
#
#
#
# Elastic Constant Matrix: (Units=GPa)
#
#
# Indices 1 2 3 4 5 6 
#
# 1 133.0585 52.2706 25.0238 0.0000 -5.0097 0.0000
# 2 52.2706 86.2378 16.2183 0.0000 4.7953 0.0000
# 3 25.0238 16.2183 46.7999 0.0000 0.5400 0.0000
# 4 0.0000 0.0000 0.0000 40.6213 0.0000 10.9258
# 5 -5.0097 4.7953 0.5400 0.0000 42.5996 0.0000
# 6 0.0000 0.0000 0.0000 10.9258 0.0000 -23.4048
#
#
#
# Elastic Compliance Matrix: (Units=1/GPa)
#
#
# Indices 1 2 3 4 5 6 
#
# 1 0.010563 -0.005824 -0.003652 0.000000 0.001944 0.000000
# 2 -0.005824 0.015692 -0.002296 0.000000 -0.002422 0.000000
# 3 -0.003652 -0.002296 0.024122 0.000000 -0.000477 0.000000
# 4 0.000000 0.000000 0.000000 0.021871 0.000000 0.010210
# 5 0.001944 -0.002422 -0.000477 0.000000 0.023982 0.000000
# 6 0.000000 0.000000 0.000000 0.010210 0.000000 -0.037960
#
#
# Mechanical properties :
#
#
# Convention : Reuss Voigt Hill
#
# Bulk Modulus (GPa) = 37.26816 50.34684 43.80750
# Shear Modulus (GPa) = 55.09044 23.46879 39.27962
#
# Velocity S-wave (km/s) = 5.12773 3.34682 4.32982
# Velocity P-wave (km/s) = 7.26949 6.24215 6.77532
#
# Compressibility (1/GPa) = 0.02683255
#
# Stress axis : x y z
#
# Youngs Moduli (GPa) = 94.66597 63.72524 41.45646
#
# Poissons Ratio (x) = 0.37113 0.15142
# Poissons Ratio (y) = 0.55133 0.09519
# Poissons Ratio (z) = 0.34576 0.14632
#
# Static dielectric constant tensor:
#      x y z
#    x 1.824450 0.000000 -0.091560 
#    y 0.000000 1.662330 0.000000 
#    z -0.091560 0.000000 1.798790 
# 
# From -- ./inp_files/29387.got.cif
#   From: 2010.05.17/outbox.cif.g08.bks.cpg/sg15_15_cif.got.tgz:29387.got - 2010.06.03 18:47:42.
