data_PCOD9294101
_publ_section_title
;
Structure prediction by ZEFSAII (Michael W. Deem and Ramdas Pophale) SiO2 
 PCOD9294101
Probable space group: C 2/C
;
_chemical_formula_sum "Si O2"
_cell_formula_units_Z 24
_cell_length_a 15.958226
_cell_length_b 13.721633
_cell_length_c 8.198499
_cell_angle_alpha 90.000000
_cell_angle_beta 149.404652
_cell_angle_gamma 90.000000
_cell_volume 913.730764
_symmetry_space_group_name_H-M "C 2/C"
_symmetry_group_IT_number 15
_symmetry_cell_setting 'monoclinic'
loop_
_space_group_symop_operation_xyz
x,y,z
-x,y,1/2-z
-x,-y,-z
x,-y,1/2+z
1/2+x,1/2+y,z
1/2-x,1/2+y,1/2-z
1/2-x,1/2-y,-z
1/2+x,1/2-y,1/2+z
loop_
_atom_site_type_symbol
_atom_site_label
_atom_site_fract_x
_atom_site_fract_y
_atom_site_fract_z
Si Si1 0.232769 0.912535 0.864677
Si Si2 0.500000 0.543077 0.250000
Si Si3 0.819111 0.254366 0.433385
Si Si4 0.500000 0.944697 0.750000
O O1 0.280836 0.811429 0.859544
O O2 0.097817 0.896979 0.778139
O O3 0.134172 0.976633 0.565700
O O4 0.388154 0.981340 0.168189
O O5 0.750000 0.250000 0.500000
O O6 0.868085 0.364198 0.462715
O O7 0.000000 0.207472 0.750000
#
# Coordination Sequence:
#
# PCOD9294101 Si02
#       4
#     8   4   8   4
#     4  11  22  46  72 106 146 190 236 301 353 429
#     4  10  23  38  73 106 140 190 241 286 365 420
#     4  10  23  43  70 102 140 190 233 286 361 423
#     4  10  25  42  77 102 142 190 235 292 365 416
#
# _framework density 26.265941999999999
#
# number of rings (size 3 to 8) (size 9 to 14) (size 15 to 20)
#    1.000    0.667    1.667    2.000    4.667    5.333 
#    0.000    3.333    0.000    0.000    0.000    0.000 
#    0.000    0.000    0.000    0.000    0.000    0.000 
#
# Total GULP energy -67000.152186 kJ/mol
# GULP energy per Si atom -5583.346015 kJ/mol
# Density = 2.620616 g / cm^3
# Si number density = 26.265942 Si / 1000 Ang^3
#
#
#
# Elastic Constant Matrix: (Units=GPa)
#
#
# Indices 1 2 3 4 5 6 
#
# 1 205.9327 80.9999 23.9085 0.0000 18.2170 0.0000
# 2 80.9999 202.8622 58.6403 0.0000 5.7899 0.0000
# 3 23.9085 58.6403 83.3533 0.0000 1.8351 0.0000
# 4 0.0000 0.0000 0.0000 40.0302 0.0000 -5.5607
# 5 18.2170 5.7899 1.8351 0.0000 31.8867 0.0000
# 6 0.0000 0.0000 0.0000 -5.5607 0.0000 10.3793
#
#
#
# Elastic Compliance Matrix: (Units=1/GPa)
#
#
# Indices 1 2 3 4 5 6 
#
# 1 0.006038 -0.002314 -0.000038 0.000000 -0.003027 0.000000
# 2 -0.002314 0.007099 -0.004337 0.000000 0.000282 0.000000
# 3 -0.000038 -0.004337 0.015060 0.000000 -0.000058 0.000000
# 4 0.000000 0.000000 0.000000 0.026990 0.000000 0.014460
# 5 -0.003027 0.000282 -0.000058 0.000000 0.033043 0.000000
# 6 0.000000 0.000000 0.000000 0.014460 0.000000 0.104092
#
#
# Mechanical properties :
#
#
# Convention : Reuss Voigt Hill
#
# Bulk Modulus (GPa) = 67.47109 91.02728 79.24919
# Shear Modulus (GPa) = 23.73743 38.36589 31.05166
#
# Velocity S-wave (km/s) = 3.00948 3.82602 3.44205
# Velocity P-wave (km/s) = 6.14975 7.36540 6.78486
#
# Compressibility (1/GPa) = 0.01482116
#
# Stress axis : x y z
#
# Youngs Moduli (GPa) = 165.61315 140.86892 66.40057
#
# Poissons Ratio (x) = 0.32593 0.00250
# Poissons Ratio (y) = 0.38318 0.28796
# Poissons Ratio (z) = 0.00622 0.61090
#
# Static dielectric constant tensor:
#      x y z
#    x 2.025940 0.000000 -0.101910 
#    y 0.000000 2.062550 0.000000 
#    z -0.101910 0.000000 2.131120 
# 
# From -- ./inp_files/20926.got.cif
#   From: 2010.05.17/outbox.cif.g08.bks.cpg/sg15_11_cif.got.tgz:20926.got - 2010.06.03 18:47:42.
