data_PCOD9294604
_publ_section_title
;
Structure prediction by ZEFSAII (Michael W. Deem and Ramdas Pophale) SiO2 
 PCOD9294604
Probable space group: C 2/C
;
_chemical_formula_sum "Si O2"
_cell_formula_units_Z 48
_cell_length_a 14.408393
_cell_length_b 23.943390
_cell_length_c 9.501090
_cell_angle_alpha 90.000000
_cell_angle_beta 38.589890
_cell_angle_gamma 90.000000
_cell_volume 2044.463619
_symmetry_space_group_name_H-M "C 2/C"
_symmetry_group_IT_number 15
_symmetry_cell_setting 'monoclinic'
loop_
_space_group_symop_operation_xyz
x,y,z
-x,y,1/2-z
-x,-y,-z
x,-y,1/2+z
1/2+x,1/2+y,z
1/2-x,1/2+y,1/2-z
1/2-x,1/2-y,-z
1/2+x,1/2-y,1/2+z
loop_
_atom_site_type_symbol
_atom_site_label
_atom_site_fract_x
_atom_site_fract_y
_atom_site_fract_z
Si Si1 0.442221 0.069202 0.466477
Si Si2 0.934653 0.733630 0.119896
Si Si3 0.605081 0.434292 0.813361
Si Si4 0.211050 0.683944 0.928913
Si Si5 0.314033 0.482122 0.062620
Si Si6 0.119505 0.634130 0.489148
O O1 0.336302 0.121189 0.545712
O O2 0.344794 0.029784 0.681372
O O3 0.568290 0.098236 0.413279
O O4 0.500000 0.045097 0.250000
O O5 0.839768 0.701166 0.354283
O O6 0.877633 0.796640 0.199139
O O7 0.899270 0.699229 0.022820
O O8 0.104901 0.722876 0.957573
O O9 0.678825 0.477841 0.613170
O O10 0.622175 0.461338 0.946536
O O11 0.711702 0.381430 0.674229
O O12 0.432996 0.434799 0.973770
O O13 0.000000 0.618772 0.750000
#
# Coordination Sequence:
#
# PCOD9294604 Si02
#       6
#     8   8   8   8   8   8
#     4  11  21  38  59  88 119 154 194 239 288 342
#     4   9  18  33  55  80 112 146 189 235 280 333
#     4  10  23  41  60  85 117 154 193 238 291 345
#     4   9  17  34  55  80 110 149 189 233 279 334
#     4  10  23  41  60  84 119 153 192 240 288 349
#     4  11  21  38  59  87 119 151 193 239 291 342
#
# _framework density 23.478041000000001
#
# number of rings (size 3 to 8) (size 9 to 14) (size 15 to 20)
#    0.000    2.000    5.000    0.000    2.333    2.667 
#    0.000    3.333    3.667    0.000    0.000    0.000 
#    0.000    0.000    0.000    0.000    0.000    0.000 
#
# Total GULP energy -134038.458320 kJ/mol
# GULP energy per Si atom -5584.935763 kJ/mol
# Density = 2.342460 g / cm^3
# Si number density = 23.478041 Si / 1000 Ang^3
#
#
#
# Elastic Constant Matrix: (Units=GPa)
#
#
# Indices 1 2 3 4 5 6 
#
# 1 33.2543 2.4089 17.8498 0.0000 5.5650 0.0000
# 2 2.4089 24.7895 1.4260 0.0000 1.1353 0.0000
# 3 17.8498 1.4260 95.3796 0.0000 -3.7613 0.0000
# 4 0.0000 0.0000 0.0000 32.3974 0.0000 -7.2634
# 5 5.5650 1.1353 -3.7613 0.0000 38.0657 0.0000
# 6 0.0000 0.0000 0.0000 -7.2634 0.0000 28.1273
#
#
#
# Elastic Compliance Matrix: (Units=1/GPa)
#
#
# Indices 1 2 3 4 5 6 
#
# 1 0.034814 -0.002738 -0.006698 0.000000 -0.005670 0.000000
# 2 -0.002738 0.040651 -0.000128 0.000000 -0.000825 0.000000
# 3 -0.006698 -0.000128 0.011825 0.000000 0.002151 0.000000
# 4 0.000000 0.000000 0.000000 0.032764 0.000000 0.008461
# 5 -0.005670 -0.000825 0.002151 0.000000 0.027336 0.000000
# 6 0.000000 0.000000 0.000000 0.008461 0.000000 0.037738
#
#
# Mechanical properties :
#
#
# Convention : Reuss Voigt Hill
#
# Bulk Modulus (GPa) = 14.67104 21.86588 18.26846
# Shear Modulus (GPa) = 22.02890 28.50066 25.26478
#
# Velocity S-wave (km/s) = 3.06645 3.48793 3.28396
# Velocity P-wave (km/s) = 4.33589 5.05514 4.70926
#
# Compressibility (1/GPa) = 0.06816150
#
# Stress axis : x y z
#
# Youngs Moduli (GPa) = 28.72438 24.59977 84.56921
#
# Poissons Ratio (x) = 0.06736 0.56643
# Poissons Ratio (y) = 0.07865 0.01082
# Poissons Ratio (z) = 0.19239 0.00315
#
# Static dielectric constant tensor:
#      x y z
#    x 1.916270 0.000000 -0.007370 
#    y 0.000000 1.896020 0.000000 
#    z -0.007370 0.000000 1.882000 
# 
# From -- ./inp_files/43931.got.cif
#   From: 2010.05.17/outbox.cif.g08.bks.cpg/sg15_22_cif.got.tgz:43931.got - 2010.06.03 18:47:42.
