data_PCOD9294978
_publ_section_title
;
Structure prediction by ZEFSAII (Michael W. Deem and Ramdas Pophale) SiO2 
 PCOD9294978
Probable space group: C 2/C
;
_chemical_formula_sum "Si O2"
_cell_formula_units_Z 48
_cell_length_a 21.117143
_cell_length_b 9.361681
_cell_length_c 20.553711
_cell_angle_alpha 90.000000
_cell_angle_beta 26.722651
_cell_angle_gamma 90.000000
_cell_volume 1827.154324
_symmetry_space_group_name_H-M "C 2/C"
_symmetry_group_IT_number 15
_symmetry_cell_setting 'monoclinic'
loop_
_space_group_symop_operation_xyz
x,y,z
-x,y,1/2-z
-x,-y,-z
x,-y,1/2+z
1/2+x,1/2+y,z
1/2-x,1/2+y,1/2-z
1/2-x,1/2-y,-z
1/2+x,1/2-y,1/2+z
loop_
_atom_site_type_symbol
_atom_site_label
_atom_site_fract_x
_atom_site_fract_y
_atom_site_fract_z
Si Si1 0.194344 0.383561 0.932288
Si Si2 0.726787 0.451863 0.390099
Si Si3 0.165918 0.586600 0.839293
Si Si4 0.486989 0.328733 0.071930
Si Si5 0.398815 0.392154 0.283773
Si Si6 0.353037 0.067405 0.408419
O O1 0.195724 0.215378 0.926463
O O2 0.146565 0.461100 0.909708
O O3 0.350498 0.454589 0.798236
O O4 0.117243 0.435803 0.068984
O O5 0.845243 0.463113 0.224861
O O6 0.592689 0.538679 0.485844
O O7 0.772769 0.512802 0.417850
O O8 0.329467 0.637365 0.693043
O O9 0.929559 0.282999 0.048622
O O10 0.455605 0.289686 0.175965
O O11 0.500000 0.422694 0.250000
O O12 0.249759 0.341429 0.450223
O O13 0.500000 0.129807 0.250000
#
# Coordination Sequence:
#
# PCOD9294978 Si02
#       6
#     8   8   8   8   8   8
#     4   9  23  43  68 106 144 180 240 295 364 425
#     4  12  23  44  77 108 141 192 242 305 367 425
#     4  11  26  47  72 107 149 194 242 300 362 442
#     4  11  24  48  74 103 148 198 243 294 367 438
#     4   9  19  45  71 101 141 191 238 298 363 430
#     4  10  23  41  72 110 142 179 246 310 362 424
#
# _framework density 26.270357000000001
#
# number of rings (size 3 to 8) (size 9 to 14) (size 15 to 20)
#    1.000    0.667    1.667    2.000    0.000    7.333 
#    0.000   10.833    0.000    0.000    0.000    0.000 
#    0.000    0.000    0.000    0.000    0.000    0.000 
#
# Total GULP energy -134352.780960 kJ/mol
# GULP energy per Si atom -5598.032540 kJ/mol
# Density = 2.621056 g / cm^3
# Si number density = 26.270357 Si / 1000 Ang^3
#
#
#
# Elastic Constant Matrix: (Units=GPa)
#
#
# Indices 1 2 3 4 5 6 
#
# 1 123.6404 45.1047 65.1780 0.0000 21.8512 0.0000
# 2 45.1047 156.1105 55.7391 -0.0001 4.7261 0.0000
# 3 65.1780 55.7391 226.0499 -0.0001 19.5780 0.0000
# 4 0.0000 -0.0001 -0.0001 36.4854 0.0000 11.7185
# 5 21.8512 4.7261 19.5780 0.0000 55.1631 0.0000
# 6 0.0000 0.0000 0.0000 11.7185 0.0000 38.8565
#
#
#
# Elastic Compliance Matrix: (Units=1/GPa)
#
#
# Indices 1 2 3 4 5 6 
#
# 1 0.010638 -0.002172 -0.002252 0.000000 -0.003229 0.000000
# 2 -0.002172 0.007467 -0.001273 0.000000 0.000672 0.000000
# 3 -0.002252 -0.001273 0.005469 0.000000 -0.000940 0.000000
# 4 0.000000 0.000000 0.000000 0.030348 0.000000 -0.009152
# 5 -0.003229 0.000672 -0.000940 0.000000 0.019683 0.000000
# 6 0.000000 0.000000 0.000000 -0.009152 0.000000 0.028496
#
#
# Mechanical properties :
#
#
# Convention : Reuss Voigt Hill
#
# Bulk Modulus (GPa) = 82.10520 93.09380 87.59950
# Shear Modulus (GPa) = 42.53321 48.75294 45.64307
#
# Velocity S-wave (km/s) = 4.02812 4.31259 4.17278
# Velocity P-wave (km/s) = 7.27709 7.76606 7.52555
#
# Compressibility (1/GPa) = 0.01217950
#
# Stress axis : x y z
#
# Youngs Moduli (GPa) = 94.00183 133.91366 182.86376
#
# Poissons Ratio (x) = 0.29083 0.41184
# Poissons Ratio (y) = 0.20415 0.23285
# Poissons Ratio (z) = 0.21171 0.17052
#
# Static dielectric constant tensor:
#      x y z
#    x 2.159680 0.000000 -0.003610 
#    y 0.000000 2.087240 0.000000 
#    z -0.003610 0.000000 2.107160 
# 
# From -- ./inp_files/252204.got.cif
#   From: 2010.05.17/outbox.cif.g08.bks.cpg/sg15_127_cif.got.tgz:252204.got - 2010.06.03 18:47:42.
