data_PCOD9294031
_publ_section_title
;
Structure prediction by ZEFSAII (Michael W. Deem and Ramdas Pophale) SiO2 
 PCOD9294031
Probable space group: C 2/C
;
_chemical_formula_sum "Si O2"
_cell_formula_units_Z 64
_cell_length_a 11.559255
_cell_length_b 15.286676
_cell_length_c 27.028324
_cell_angle_alpha 90.000000
_cell_angle_beta 140.163461
_cell_angle_gamma 90.000000
_cell_volume 3059.487147
_symmetry_space_group_name_H-M "C 2/C"
_symmetry_group_IT_number 15
_symmetry_cell_setting 'monoclinic'
loop_
_space_group_symop_operation_xyz
x,y,z
-x,y,1/2-z
-x,-y,-z
x,-y,1/2+z
1/2+x,1/2+y,z
1/2-x,1/2+y,1/2-z
1/2-x,1/2-y,-z
1/2+x,1/2-y,1/2+z
loop_
_atom_site_type_symbol
_atom_site_label
_atom_site_fract_x
_atom_site_fract_y
_atom_site_fract_z
Si Si1 0.482011 0.753361 0.632772
Si Si2 0.912641 0.579891 0.609819
Si Si3 0.376751 0.923356 0.981567
Si Si4 0.604359 0.778938 0.006148
Si Si5 0.390223 0.781074 0.265364
Si Si6 0.037286 0.894408 0.647457
Si Si7 0.988672 0.101687 0.013162
Si Si8 0.059787 0.425254 0.714068
O O1 0.423887 0.794979 0.561158
O O2 0.308353 0.694370 0.588517
O O3 0.676717 0.713416 0.685764
O O4 0.518499 0.825041 0.686804
O O5 0.916071 0.580436 0.552490
O O6 0.722552 0.621384 0.562429
O O7 0.061218 0.635986 0.685936
O O8 0.938311 0.482557 0.638009
O O9 0.450276 0.833055 0.982989
O O10 0.159949 0.933074 0.903667
O O11 0.500000 0.000000 0.000000
O O12 0.589980 0.675880 0.015089
O O13 0.500000 0.779102 0.250000
O O14 0.442575 0.696639 0.315927
O O15 0.226045 0.942566 0.722135
O O16 0.037600 0.886963 0.587418
O O17 0.000000 0.000000 0.000000
O O18 0.000000 0.444748 0.750000
#
# Coordination Sequence:
#
# PCOD9294031 Si02
#       8
#     8   8   8   8   8   8   8   8
#     4  10  23  38  61  89 117 157 204 240 299 366
#     4  11  23  37  60  90 119 152 204 252 298 357
#     4  11  24  42  62  87 122 164 204 246 296 359
#     4  11  22  41  63  87 123 160 199 252 299 349
#     4  11  22  39  61  89 122 158 199 249 303 361
#     4  10  23  40  62  87 119 160 204 241 298 366
#     4  11  22  39  64  91 118 156 201 251 302 353
#     4  11  22  40  61  87 123 158 196 251 303 351
#
# _framework density 20.91854
#
# number of rings (size 3 to 8) (size 9 to 14) (size 15 to 20)
#    0.000    1.250    0.000    6.375    0.000    9.000 
#    0.000    1.250    0.000    0.000    0.000    0.000 
#    0.000    0.000    0.000    0.000    0.000    0.000 
#
# Total GULP energy -178670.195762 kJ/mol
# GULP energy per Si atom -5583.443618 kJ/mol
# Density = 2.087093 g / cm^3
# Si number density = 20.918540 Si / 1000 Ang^3
#
#
#
# Elastic Constant Matrix: (Units=GPa)
#
#
# Indices 1 2 3 4 5 6 
#
# 1 107.2789 24.5985 35.9180 0.0000 15.8884 0.0000
# 2 24.5985 52.0185 7.3939 0.0000 0.8641 0.0000
# 3 35.9180 7.3939 102.4374 0.0000 24.7686 0.0000
# 4 0.0000 0.0000 0.0000 17.7088 0.0000 -3.3045
# 5 15.8884 0.8641 24.7686 0.0000 37.5324 0.0000
# 6 0.0000 0.0000 0.0000 -3.3045 0.0000 14.2723
#
#
#
# Elastic Compliance Matrix: (Units=1/GPa)
#
#
# Indices 1 2 3 4 5 6 
#
# 1 0.011984 -0.005174 -0.003130 0.000000 -0.002888 0.000000
# 2 -0.005174 0.021667 -0.000189 0.000000 0.001816 0.000000
# 3 -0.003130 -0.000189 0.012555 0.000000 -0.006956 0.000000
# 4 0.000000 0.000000 0.000000 0.059019 0.000000 0.013665
# 5 -0.002888 0.001816 -0.006956 0.000000 0.032415 0.000000
# 6 0.000000 0.000000 0.000000 0.013665 0.000000 0.073230
#
#
# Mechanical properties :
#
#
# Convention : Reuss Voigt Hill
#
# Bulk Modulus (GPa) = 34.22288 44.17286 39.19787
# Shear Modulus (GPa) = 21.04418 26.82431 23.93424
#
# Velocity S-wave (km/s) = 3.17520 3.58484 3.38622
# Velocity P-wave (km/s) = 5.46243 6.18847 5.83675
#
# Compressibility (1/GPa) = 0.02922021
#
# Stress axis : x y z
#
# Youngs Moduli (GPa) = 83.44752 46.15262 79.64881
#
# Poissons Ratio (x) = 0.23879 0.24930
# Poissons Ratio (y) = 0.43175 0.01505
# Poissons Ratio (z) = 0.26119 0.00872
#
# Static dielectric constant tensor:
#      x y z
#    x 1.762910 0.000000 0.050840 
#    y 0.000000 1.837560 0.000000 
#    z 0.050840 0.000000 1.738600 
# 
# From -- ./inp_files/293114.got.cif
#   From: 2010.05.17/outbox.cif.g08.bks.cpg/sg15_147_cif.got.tgz:293114.got - 2010.06.03 18:47:42.
