data_PCOD9294140
_publ_section_title
;
Structure prediction by ZEFSAII (Michael W. Deem and Ramdas Pophale) SiO2 
 PCOD9294140
Probable space group: C 2/C
;
_chemical_formula_sum "Si O2"
_cell_formula_units_Z 48
_cell_length_a 17.606065
_cell_length_b 14.681471
_cell_length_c 14.500596
_cell_angle_alpha 90.000000
_cell_angle_beta 141.776716
_cell_angle_gamma 90.000000
_cell_volume 2319.088310
_symmetry_space_group_name_H-M "C 2/C"
_symmetry_group_IT_number 15
_symmetry_cell_setting 'monoclinic'
loop_
_space_group_symop_operation_xyz
x,y,z
-x,y,1/2-z
-x,-y,-z
x,-y,1/2+z
1/2+x,1/2+y,z
1/2-x,1/2+y,1/2-z
1/2-x,1/2-y,-z
1/2+x,1/2-y,1/2+z
loop_
_atom_site_type_symbol
_atom_site_label
_atom_site_fract_x
_atom_site_fract_y
_atom_site_fract_z
Si Si1 0.203658 0.687213 0.597736
Si Si2 0.124691 0.150017 0.914129
Si Si3 0.306813 0.000445 0.136293
Si Si4 0.576465 0.994405 0.953653
Si Si5 0.737861 0.798332 0.331416
Si Si6 0.532957 0.809282 0.387457
O O1 0.110419 0.762546 0.467372
O O2 0.294911 0.675342 0.599097
O O3 0.141561 0.590376 0.563192
O O4 0.269731 0.715470 0.754523
O O5 0.000000 0.115908 0.750000
O O6 0.199483 0.073721 0.040845
O O7 0.269799 0.903332 0.142778
O O8 0.343708 0.993591 0.063749
O O9 0.435475 0.033382 0.301847
O O10 0.562744 0.098565 0.973097
O O11 0.595711 0.764847 0.203403
O O12 0.844738 0.750335 0.491407
O O13 0.500000 0.835132 0.250000
#
# Coordination Sequence:
#
# PCOD9294140 Si02
#       6
#     8   8   8   8   8   8
#     4  10  24  38  62  91 120 158 203 251 298 363
#     4  10  23  39  61  86 126 161 196 245 317 359
#     4   9  19  38  60  87 113 162 201 245 291 360
#     4   9  18  38  63  83 117 157 209 234 295 362
#     4  11  24  39  64  94 122 157 207 254 299 360
#     4  11  22  40  65  92 122 161 202 250 311 359
#
# _framework density 20.697789
#
# number of rings (size 3 to 8) (size 9 to 14) (size 15 to 20)
#    0.000    2.000    3.333    0.500    9.333    4.667 
#    3.000    0.833    0.000    0.000    0.000    0.000 
#    0.000    0.000    0.000    0.000    0.000    0.000 
#
# Total GULP energy -133715.464728 kJ/mol
# GULP energy per Si atom -5571.477697 kJ/mol
# Density = 2.065068 g / cm^3
# Si number density = 20.697789 Si / 1000 Ang^3
#
#
#
# Elastic Constant Matrix: (Units=GPa)
#
#
# Indices 1 2 3 4 5 6 
#
# 1 50.2320 30.0391 18.9124 0.0000 -0.6041 0.0000
# 2 30.0391 65.8647 47.6469 0.0000 13.8589 0.0000
# 3 18.9124 47.6469 70.0653 0.0000 16.5245 0.0000
# 4 0.0000 0.0000 0.0000 28.7738 0.0000 3.6120
# 5 -0.6041 13.8589 16.5245 0.0000 35.4702 0.0000
# 6 0.0000 0.0000 0.0000 3.6120 0.0000 -6.8927
#
#
#
# Elastic Compliance Matrix: (Units=1/GPa)
#
#
# Indices 1 2 3 4 5 6 
#
# 1 0.028572 -0.015125 0.001196 0.000000 0.005839 0.000000
# 2 -0.015125 0.038086 -0.020499 0.000000 -0.005589 0.000000
# 3 0.001196 -0.020499 0.029205 0.000000 -0.005576 0.000000
# 4 0.000000 0.000000 0.000000 0.032609 0.000000 0.017088
# 5 0.005839 -0.005589 -0.005576 0.000000 0.033073 0.000000
# 6 0.000000 0.000000 0.000000 0.017088 0.000000 -0.136126
#
#
# Mechanical properties :
#
#
# Convention : Reuss Voigt Hill
#
# Bulk Modulus (GPa) = 37.02764 42.15098 39.58931
# Shear Modulus (GPa) = 48.41340 17.44116 32.92728
#
# Velocity S-wave (km/s) = 4.84163 2.90601 3.99289
# Velocity P-wave (km/s) = 7.01311 5.62752 6.35817
#
# Compressibility (1/GPa) = 0.02700685
#
# Stress axis : x y z
#
# Youngs Moduli (GPa) = 34.99882 26.25655 34.24108
#
# Poissons Ratio (x) = 0.39713 -0.04095
# Poissons Ratio (y) = 0.52935 0.70191
# Poissons Ratio (z) = -0.04186 0.53823
#
# Static dielectric constant tensor:
#      x y z
#    x 1.795780 0.000000 -0.001830 
#    y 0.000000 1.753150 0.000000 
#    z -0.001830 0.000000 1.722910 
# 
# From -- ./inp_files/162375.got.cif
#   From: 2010.05.17/outbox.cif.g08.bks.cpg/sg15_82_cif.got.tgz:162375.got - 2010.06.03 18:47:42.
