data_PCOD9294904
_publ_section_title
;
Structure prediction by ZEFSAII (Michael W. Deem and Ramdas Pophale) SiO2 
 PCOD9294904
Probable space group: C 2/C
;
_chemical_formula_sum "Si O2"
_cell_formula_units_Z 48
_cell_length_a 20.996337
_cell_length_b 5.647141
_cell_length_c 20.579536
_cell_angle_alpha 90.000000
_cell_angle_beta 57.113864
_cell_angle_gamma 90.000000
_cell_volume 2049.077648
_symmetry_space_group_name_H-M "C 2/C"
_symmetry_group_IT_number 15
_symmetry_cell_setting 'monoclinic'
loop_
_space_group_symop_operation_xyz
x,y,z
-x,y,1/2-z
-x,-y,-z
x,-y,1/2+z
1/2+x,1/2+y,z
1/2-x,1/2+y,1/2-z
1/2-x,1/2-y,-z
1/2+x,1/2-y,1/2+z
loop_
_atom_site_type_symbol
_atom_site_label
_atom_site_fract_x
_atom_site_fract_y
_atom_site_fract_z
Si Si1 0.030202 0.933613 0.167851
Si Si2 0.161679 0.200474 0.046844
Si Si3 0.658016 0.413745 0.918855
Si Si4 0.068521 0.737843 0.855496
Si Si5 0.934192 0.436613 0.952889
Si Si6 0.719141 0.013749 0.238821
O O1 0.025041 0.776667 0.106268
O O2 0.000000 0.817789 0.250000
O O3 0.117418 0.026188 0.120213
O O4 0.972625 0.147925 0.183583
O O5 0.117055 0.444517 0.074388
O O6 0.250000 0.250000 0.000000
O O7 0.144420 0.096889 0.984043
O O8 0.611154 0.428724 0.877721
O O9 0.746085 0.427822 0.851081
O O10 0.626290 0.163096 0.962568
O O11 0.131573 0.549198 0.798034
O O12 0.000143 0.619194 0.934154
O O13 0.758034 0.756937 0.235909
#
# Coordination Sequence:
#
# PCOD9294904 Si02
#       6
#     8   8   8   8   8   8
#     4  10  24  44  65  98 135 180 232 282 356 422
#     4  10  24  44  66  97 134 177 232 284 352 425
#     4  10  23  41  68  99 134 179 229 289 354 418
#     4  10  23  42  68  97 138 177 235 290 351 423
#     4  10  23  42  68  98 132 178 232 290 355 416
#     4  10  24  42  65 105 143 182 233 285 362 418
#
# _framework density 23.425173999999998
#
# number of rings (size 3 to 8) (size 9 to 14) (size 15 to 20)
#    0.000    2.000    0.000    0.500   11.667   11.333 
#    3.000    0.000    0.000    0.000    0.000    0.000 
#    0.000    0.000    0.000    0.000    0.000    0.000 
#
# Total GULP energy -133698.494292 kJ/mol
# GULP energy per Si atom -5570.770596 kJ/mol
# Density = 2.337186 g / cm^3
# Si number density = 23.425174 Si / 1000 Ang^3
#
#
#
# Elastic Constant Matrix: (Units=GPa)
#
#
# Indices 1 2 3 4 5 6 
#
# 1 75.8220 23.0486 20.0746 -0.0152 -36.6829 -0.0859
# 2 23.0486 64.3235 8.0265 -0.0104 -19.8522 -0.0264
# 3 20.0746 8.0265 124.7534 -0.0034 -21.7821 0.0131
# 4 -0.0152 -0.0104 -0.0034 33.9064 0.0100 -14.4698
# 5 -36.6829 -19.8522 -21.7821 0.0100 36.6243 -0.0061
# 6 -0.0859 -0.0264 0.0131 -14.4698 -0.0061 24.7603
#
#
#
# Elastic Compliance Matrix: (Units=1/GPa)
#
#
# Indices 1 2 3 4 5 6 
#
# 1 0.025725 -0.001495 0.000350 0.000058 0.025164 0.000128
# 2 -0.001495 0.018801 0.000612 0.000013 0.009058 0.000024
# 3 0.000350 0.000612 0.008971 -0.000001 0.006018 -0.000002
# 4 0.000058 0.000013 -0.000001 0.039292 0.000057 0.022962
# 5 0.025164 0.009058 0.006018 0.000057 0.060998 0.000142
# 6 0.000128 0.000024 -0.000002 0.022962 0.000142 0.053807
#
#
# Mechanical properties :
#
#
# Convention : Reuss Voigt Hill
#
# Bulk Modulus (GPa) = 19.07205 40.79983 29.93594
# Shear Modulus (GPa) = 22.11050 33.30815 27.70932
#
# Velocity S-wave (km/s) = 3.07559 3.77489 3.44304
# Velocity P-wave (km/s) = 4.55760 6.03777 5.34913
#
# Compressibility (1/GPa) = 0.05243274
#
# Stress axis : x y z
#
# Youngs Moduli (GPa) = 38.87231 53.18774 111.47246
#
# Poissons Ratio (x) = 0.07952 -0.03905
# Poissons Ratio (y) = 0.05812 -0.06827
# Poissons Ratio (z) = -0.01362 -0.03258
#
# Static dielectric constant tensor:
#      x y z
#    x 1.914150 -0.000010 0.020920 
#    y -0.000010 1.945140 -0.000020 
#    z 0.020920 -0.000020 1.925680 
# 
# From -- ./inp_files/280937.got.cif
#   From: 2010.05.17/outbox.cif.g08.bks.cpg/sg15_141_cif.got.tgz:280937.got - 2010.06.03 18:47:42.
