data_PCOD9294207
_publ_section_title
;
Structure prediction by ZEFSAII (Michael W. Deem and Ramdas Pophale) SiO2 
 PCOD9294207
Probable space group: C 2/C
;
_chemical_formula_sum "Si O2"
_cell_formula_units_Z 40
_cell_length_a 13.087057
_cell_length_b 7.148654
_cell_length_c 17.727655
_cell_angle_alpha 90.000000
_cell_angle_beta 116.009632
_cell_angle_gamma 90.000000
_cell_volume 1490.534844
_symmetry_space_group_name_H-M "C 2/C"
_symmetry_group_IT_number 15
_symmetry_cell_setting 'monoclinic'
loop_
_space_group_symop_operation_xyz
x,y,z
-x,y,1/2-z
-x,-y,-z
x,-y,1/2+z
1/2+x,1/2+y,z
1/2-x,1/2+y,1/2-z
1/2-x,1/2-y,-z
1/2+x,1/2-y,1/2+z
loop_
_atom_site_type_symbol
_atom_site_label
_atom_site_fract_x
_atom_site_fract_y
_atom_site_fract_z
Si Si1 0.200413 0.355863 0.185596
Si Si2 0.156049 0.997241 0.388735
Si Si3 0.159445 0.952444 0.553806
Si Si4 0.383728 0.123070 0.681211
Si Si5 0.401100 0.133260 0.439303
O O1 0.322166 0.389673 0.183310
O O2 0.191142 0.315267 0.269959
O O3 0.128726 0.547815 0.151997
O O4 0.143508 0.199050 0.114135
O O5 0.131653 0.892809 0.458831
O O6 0.084317 0.184965 0.352151
O O7 0.283748 0.077789 0.443158
O O8 0.294564 0.001036 0.605968
O O9 0.093171 0.145651 0.548976
O O10 0.500000 0.039033 0.750000
O O11 0.500000 0.000000 0.500000
#
# Coordination Sequence:
#
# PCOD9294207 Si02
#       5
#     8   8   8   8   8
#     4  10  23  39  64  91 122 160 211 251 313 369
#     4   9  22  40  62  90 125 161 205 253 314 368
#     4  11  22  42  66  87 130 163 203 263 308 365
#     4  11  23  40  63  87 127 165 202 257 319 362
#     4   9  21  37  63  91 124 155 209 244 315 367
#
# _framework density 26.836005
#
# number of rings (size 3 to 8) (size 9 to 14) (size 15 to 20)
#    1.200    0.800    0.000    4.200    5.600    0.800 
#    0.000    1.000    0.000    0.000    0.000    0.000 
#    0.000    0.000    0.000    0.000    0.000    0.000 
#
# Total GULP energy -111599.616842 kJ/mol
# GULP energy per Si atom -5579.980842 kJ/mol
# Density = 2.677493 g / cm^3
# Si number density = 26.836005 Si / 1000 Ang^3
#
#
#
# Elastic Constant Matrix: (Units=GPa)
#
#
# Indices 1 2 3 4 5 6 
#
# 1 86.3427 -1.7772 27.0355 0.0000 -2.2041 0.0000
# 2 -1.7772 98.0230 -0.6460 0.0000 -7.1553 0.0000
# 3 27.0355 -0.6460 91.1725 0.0000 -29.7917 0.0000
# 4 0.0000 0.0000 0.0000 48.4058 0.0000 -2.8132
# 5 -2.2041 -7.1553 -29.7917 0.0000 64.1679 0.0000
# 6 0.0000 0.0000 0.0000 -2.8132 0.0000 19.4567
#
#
#
# Elastic Compliance Matrix: (Units=1/GPa)
#
#
# Indices 1 2 3 4 5 6 
#
# 1 0.012901 0.000092 -0.004334 0.000000 -0.001559 0.000000
# 2 0.000092 0.010308 0.000498 0.000000 0.001384 0.000000
# 3 -0.004334 0.000498 0.014413 0.000000 0.006598 0.000000
# 4 0.000000 0.000000 0.000000 0.020834 0.000000 0.003012
# 5 -0.001559 0.001384 0.006598 0.000000 0.018748 0.000000
# 6 0.000000 0.000000 0.000000 0.003012 0.000000 0.051832
#
#
# Mechanical properties :
#
#
# Convention : Reuss Voigt Hill
#
# Bulk Modulus (GPa) = 33.18701 36.08476 34.63588
# Shear Modulus (GPa) = 34.11363 43.13448 38.62406
#
# Velocity S-wave (km/s) = 3.56924 4.01351 3.79788
# Velocity P-wave (km/s) = 5.42028 5.91213 5.67154
#
# Compressibility (1/GPa) = 0.03013227
#
# Stress axis : x y z
#
# Youngs Moduli (GPa) = 77.51343 97.01548 69.38131
#
# Poissons Ratio (x) = -0.00888 0.30072
# Poissons Ratio (y) = -0.00710 -0.03456
# Poissons Ratio (z) = 0.33597 -0.04832
#
# Static dielectric constant tensor:
#      x y z
#    x 2.155550 0.000000 0.032170 
#    y 0.000000 2.209740 0.000000 
#    z 0.032170 0.000000 2.125270 
# 
# From -- ./inp_files/242100.got.cif
#   From: 2010.05.17/outbox.cif.g08.bks.cpg/sg15_122_cif.got.tgz:242100.got - 2010.06.03 18:47:42.
