data_PCOD9294507
_publ_section_title
;
Structure prediction by ZEFSAII (Michael W. Deem and Ramdas Pophale) SiO2 
 PCOD9294507
Probable space group: C 2/C
;
_chemical_formula_sum "Si O2"
_cell_formula_units_Z 64
_cell_length_a 28.260309
_cell_length_b 17.388127
_cell_length_c 8.786420
_cell_angle_alpha 90.000000
_cell_angle_beta 139.305802
_cell_angle_gamma 90.000000
_cell_volume 2815.163812
_symmetry_space_group_name_H-M "C 2/C"
_symmetry_group_IT_number 15
_symmetry_cell_setting 'monoclinic'
loop_
_space_group_symop_operation_xyz
x,y,z
-x,y,1/2-z
-x,-y,-z
x,-y,1/2+z
1/2+x,1/2+y,z
1/2-x,1/2+y,1/2-z
1/2-x,1/2-y,-z
1/2+x,1/2-y,1/2+z
loop_
_atom_site_type_symbol
_atom_site_label
_atom_site_fract_x
_atom_site_fract_y
_atom_site_fract_z
Si Si1 0.794518 0.137758 0.704334
Si Si2 0.343113 0.525597 0.267171
Si Si3 0.482493 0.862826 0.035099
Si Si4 0.123411 0.577306 0.758539
Si Si5 0.940542 0.949137 0.270015
Si Si6 0.953257 0.188855 0.997554
Si Si7 0.742709 0.833148 0.410251
Si Si8 0.163088 0.586674 0.214029
O O1 0.869271 0.182064 0.847043
O O2 0.761459 0.170280 0.778407
O O3 0.736734 0.132684 0.427092
O O4 0.806211 0.046150 0.763926
O O5 0.368142 0.480050 0.178252
O O6 0.416354 0.546486 0.537718
O O7 0.294886 0.600396 0.113339
O O8 0.500000 0.890575 0.250000
O O9 0.536537 0.908308 0.056451
O O10 0.490139 0.770816 0.055024
O O11 0.396955 0.873984 0.823375
O O12 0.161033 0.641760 0.748852
O O13 0.153632 0.499925 0.754720
O O14 0.148327 0.585233 0.996634
O O15 0.956789 0.862930 0.358229
O O16 0.000000 0.000000 0.500000
O O17 0.000000 0.152630 0.250000
O O18 0.750000 0.750000 0.500000
#
# Coordination Sequence:
#
# PCOD9294507 Si02
#       8
#     8   8   8   8   8   8   8   8
#     4  11  24  44  68 101 136 183 235 291 342 434
#     4  11  23  42  65  91 140 176 228 287 346 426
#     4   9  22  42  65  99 132 179 230 286 356 421
#     4  11  24  44  70 101 138 184 229 296 354 428
#     4  11  22  39  66  98 125 177 233 276 342 423
#     4  10  23  40  67  92 139 183 226 283 349 420
#     4  12  28  42  67 103 144 182 232 299 362 415
#     4  11  23  41  75 101 133 178 241 290 350 420
#
# _framework density 22.734024000000002
#
# number of rings (size 3 to 8) (size 9 to 14) (size 15 to 20)
#    0.000    1.250    2.500    3.000    8.750    1.500 
#    0.000    1.875    0.000    0.000    0.000    0.000 
#    0.000    0.000    0.000    0.000    0.000    0.000 
#
# Total GULP energy -178458.614275 kJ/mol
# GULP energy per Si atom -5576.831696 kJ/mol
# Density = 2.268228 g / cm^3
# Si number density = 22.734024 Si / 1000 Ang^3
#
#
#
# Elastic Constant Matrix: (Units=GPa)
#
#
# Indices 1 2 3 4 5 6 
#
# 1 90.3456 4.0528 0.3038 0.0000 3.8083 0.0000
# 2 4.0528 39.6738 -18.8403 0.0000 -7.5272 0.0000
# 3 0.3038 -18.8403 49.6358 0.0000 8.9854 0.0000
# 4 0.0000 0.0000 0.0000 26.4639 0.0000 10.4177
# 5 3.8083 -7.5272 8.9854 0.0000 39.3859 0.0000
# 6 0.0000 0.0000 0.0000 10.4177 0.0000 15.3686
#
#
#
# Elastic Compliance Matrix: (Units=1/GPa)
#
#
# Indices 1 2 3 4 5 6 
#
# 1 0.011196 -0.001598 -0.000442 0.000000 -0.001287 0.000000
# 2 -0.001598 0.031406 0.011282 0.000000 0.003583 0.000000
# 3 -0.000442 0.011282 0.025069 0.000000 -0.003520 0.000000
# 4 0.000000 0.000000 0.000000 0.051541 0.000000 -0.034937
# 5 -0.001287 0.003583 -0.003520 0.000000 0.027002 0.000000
# 6 0.000000 0.000000 0.000000 -0.034937 0.000000 0.088750
#
#
# Mechanical properties :
#
#
# Convention : Reuss Voigt Hill
#
# Bulk Modulus (GPa) = 11.60689 16.74307 14.17498
# Shear Modulus (GPa) = 20.39169 29.18627 24.78898
#
# Velocity S-wave (km/s) = 2.99819 3.58692 3.30569
# Velocity P-wave (km/s) = 4.13547 4.95333 4.56276
#
# Compressibility (1/GPa) = 0.08615575
#
# Stress axis : x y z
#
# Youngs Moduli (GPa) = 89.31742 31.84090 39.88983
#
# Poissons Ratio (x) = 0.05088 0.01763
# Poissons Ratio (y) = 0.14271 -0.45004
# Poissons Ratio (z) = 0.03948 -0.35923
#
# Static dielectric constant tensor:
#      x y z
#    x 1.928160 0.000000 0.044860 
#    y 0.000000 2.065960 0.000000 
#    z 0.044860 0.000000 1.942390 
# 
# From -- ./inp_files/70616.got.cif
#   From: 2010.05.17/outbox.cif.g08.bks.cpg/sg15_36_cif.got.tgz:70616.got - 2010.06.03 18:47:42.
