data_PCOD9294025
_publ_section_title
;
Structure prediction by ZEFSAII (Michael W. Deem and Ramdas Pophale) SiO2 
 PCOD9294025
Probable space group: C 2/C
;
_chemical_formula_sum "Si O2"
_cell_formula_units_Z 48
_cell_length_a 6.735558
_cell_length_b 17.371593
_cell_length_c 22.999205
_cell_angle_alpha 90.000000
_cell_angle_beta 67.040135
_cell_angle_gamma 90.000000
_cell_volume 2477.884962
_symmetry_space_group_name_H-M "C 2/C"
_symmetry_group_IT_number 15
_symmetry_cell_setting 'monoclinic'
loop_
_space_group_symop_operation_xyz
x,y,z
-x,y,1/2-z
-x,-y,-z
x,-y,1/2+z
1/2+x,1/2+y,z
1/2-x,1/2+y,1/2-z
1/2-x,1/2-y,-z
1/2+x,1/2-y,1/2+z
loop_
_atom_site_type_symbol
_atom_site_label
_atom_site_fract_x
_atom_site_fract_y
_atom_site_fract_z
Si Si1 0.897649 0.305660 0.917310
Si Si2 0.558697 0.930926 0.810026
Si Si3 0.066997 0.599416 0.851282
Si Si4 0.977334 0.704571 0.972764
Si Si5 0.000000 0.164679 0.750000
Si Si6 0.265130 0.213972 0.827300
Si Si7 0.500000 0.657061 0.250000
O O1 0.662308 0.269198 0.943438
O O2 0.931602 0.364888 0.860484
O O3 0.070452 0.235817 0.891420
O O4 0.962890 0.337228 0.973171
O O5 0.500000 0.947790 0.750000
O O6 0.795991 0.896930 0.774236
O O7 0.545404 0.008217 0.849219
O O8 0.315474 0.618434 0.805946
O O9 0.003127 0.643196 0.917824
O O10 0.896250 0.637345 0.825505
O O11 0.750000 0.750000 0.000000
O O12 0.142659 0.212196 0.779489
O O13 0.440668 0.282629 0.808176
#
# Coordination Sequence:
#
# PCOD9294025 Si02
#       7
#     8   8   8   8   4   8   4
#     4  10  24  41  64  95 123 169 220 268 324 377
#     4  11  26  42  61  98 140 165 211 274 338 390
#     4  12  24  41  66  97 131 174 216 268 332 385
#     4  11  23  43  69  93 124 173 231 268 307 395
#     4  12  21  36  64  97 132 162 212 274 325 376
#     4  11  21  36  66  94 122 165 220 261 320 392
#     4  10  23  38  60  93 126 168 210 258 333 388
#
# _framework density 19.371361
#
# number of rings (size 3 to 8) (size 9 to 14) (size 15 to 20)
#    0.000    1.000    5.000    1.500    7.000    0.667 
#    0.000    0.833    0.000    0.000    0.000    0.000 
#    0.000    0.000    0.000    0.000    0.000    0.000 
#
# Total GULP energy -133749.194746 kJ/mol
# GULP energy per Si atom -5572.883114 kJ/mol
# Density = 1.932727 g / cm^3
# Si number density = 19.371361 Si / 1000 Ang^3
#
#
#
# Elastic Constant Matrix: (Units=GPa)
#
#
# Indices 1 2 3 4 5 6 
#
# 1 94.9872 37.8534 41.6099 0.0000 -21.8436 0.0000
# 2 37.8534 85.0456 16.4776 0.0000 -10.9251 0.0000
# 3 41.6099 16.4776 92.9285 0.0000 -3.2822 0.0000
# 4 0.0000 0.0000 0.0000 62.1298 0.0000 -36.2595
# 5 -21.8436 -10.9251 -3.2822 0.0000 50.5507 0.0000
# 6 0.0000 0.0000 0.0000 -36.2595 0.0000 53.8350
#
#
#
# Elastic Compliance Matrix: (Units=1/GPa)
#
#
# Indices 1 2 3 4 5 6 
#
# 1 0.016812 -0.005526 -0.006348 0.000000 0.005658 0.000000
# 2 -0.005526 0.014316 -0.000039 0.000000 0.000704 0.000000
# 3 -0.006348 -0.000039 0.013544 0.000000 -0.001872 0.000000
# 4 0.000000 0.000000 0.000000 0.026520 0.000000 0.017862
# 5 0.005658 0.000704 -0.001872 0.000000 0.022258 0.000000
# 6 0.000000 0.000000 0.000000 0.017862 0.000000 0.030606
#
#
# Mechanical properties :
#
#
# Convention : Reuss Voigt Hill
#
# Bulk Modulus (GPa) = 47.97217 51.64923 49.81070
# Shear Modulus (GPa) = 32.29344 45.10446 38.69895
#
# Velocity S-wave (km/s) = 4.08741 4.83059 4.47446
# Velocity P-wave (km/s) = 6.86251 7.60483 7.24319
#
# Compressibility (1/GPa) = 0.02084542
#
# Stress axis : x y z
#
# Youngs Moduli (GPa) = 59.48156 69.85182 73.83229
#
# Poissons Ratio (x) = 0.38601 0.46869
# Poissons Ratio (y) = 0.32870 0.00289
# Poissons Ratio (z) = 0.37759 0.00274
#
# Static dielectric constant tensor:
#      x y z
#    x 1.695270 0.000000 0.028190 
#    y 0.000000 1.666120 0.000000 
#    z 0.028190 0.000000 1.756570 
# 
# From -- ./inp_files/260857.got.cif
#   From: 2010.05.17/outbox.cif.g08.bks.cpg/sg15_131_cif.got.tgz:260857.got - 2010.06.03 18:47:42.
