data_PCOD9294585
_publ_section_title
;
Structure prediction by ZEFSAII (Michael W. Deem and Ramdas Pophale) SiO2 
 PCOD9294585
Probable space group: C 2/C
;
_chemical_formula_sum "Si O2"
_cell_formula_units_Z 32
_cell_length_a 8.923011
_cell_length_b 28.219407
_cell_length_c 5.517939
_cell_angle_alpha 90.000000
_cell_angle_beta 86.131751
_cell_angle_gamma 90.000000
_cell_volume 1386.263140
_symmetry_space_group_name_H-M "C 2/C"
_symmetry_group_IT_number 15
_symmetry_cell_setting 'monoclinic'
loop_
_space_group_symop_operation_xyz
x,y,z
-x,y,1/2-z
-x,-y,-z
x,-y,1/2+z
1/2+x,1/2+y,z
1/2-x,1/2+y,1/2-z
1/2-x,1/2-y,-z
1/2+x,1/2-y,1/2+z
loop_
_atom_site_type_symbol
_atom_site_label
_atom_site_fract_x
_atom_site_fract_y
_atom_site_fract_z
Si Si1 0.764167 0.305954 0.964612
Si Si2 0.672705 0.984199 0.912002
Si Si3 0.765013 0.114933 0.427466
Si Si4 0.000000 0.650102 0.750000
Si Si5 0.500000 0.361642 0.250000
O O1 0.740182 0.335529 0.719485
O O2 0.750000 0.250000 0.000000
O O3 0.634290 0.328638 0.144321
O O4 0.928636 0.318885 0.045835
O O5 0.706193 0.931747 0.798506
O O6 0.736621 0.015188 0.681229
O O7 0.500000 0.000000 0.000000
O O8 0.635643 0.119074 0.642286
O O9 0.926943 0.109973 0.535423
#
# Coordination Sequence:
#
# PCOD9294585 Si02
#       5
#     8   8   8   4   4
#     4  11  26  42  71 100 142 188 245 302 369 442
#     4  10  23  40  72 107 144 181 245 306 373 435
#     4  11  24  45  71 104 147 190 239 307 369 445
#     4  10  24  38  70 102 136 182 240 290 372 422
#     4  10  26  44  68  98 146 192 240 292 382 434
#
# _framework density 23.083641
#
# number of rings (size 3 to 8) (size 9 to 14) (size 15 to 20)
#    0.000    1.500    0.000    3.000   21.000    2.000 
#    0.000    1.250    0.000    0.000    0.000    0.000 
#    0.000    0.000    0.000    0.000    0.000    0.000 
#
# Total GULP energy -89093.531936 kJ/mol
# GULP energy per Si atom -5568.345746 kJ/mol
# Density = 2.303110 g / cm^3
# Si number density = 23.083641 Si / 1000 Ang^3
#
#
#
# Elastic Constant Matrix: (Units=GPa)
#
#
# Indices 1 2 3 4 5 6 
#
# 1 90.8501 21.7491 9.5238 0.0000 24.3716 0.0000
# 2 21.7491 128.2832 9.0747 0.0000 9.7523 0.0000
# 3 9.5238 9.0747 106.5028 0.0000 6.2333 0.0000
# 4 0.0000 0.0000 0.0000 14.6985 0.0000 -17.4528
# 5 24.3716 9.7523 6.2333 0.0000 42.5712 0.0000
# 6 0.0000 0.0000 0.0000 -17.4528 0.0000 -2.0246
#
#
#
# Elastic Compliance Matrix: (Units=1/GPa)
#
#
# Indices 1 2 3 4 5 6 
#
# 1 0.013407 -0.001681 -0.000634 0.000000 -0.007197 0.000000
# 2 -0.001681 0.008179 -0.000498 0.000000 -0.000839 0.000000
# 3 -0.000634 -0.000498 0.009542 0.000000 -0.000920 0.000000
# 4 0.000000 0.000000 0.000000 0.006055 0.000000 -0.052198
# 5 -0.007197 -0.000839 -0.000920 0.000000 0.027937 0.000000
# 6 0.000000 0.000000 0.000000 -0.052198 0.000000 -0.043960
#
#
# Mechanical properties :
#
#
# Convention : Reuss Voigt Hill
#
# Bulk Modulus (GPa) = 39.21170 45.14792 42.17981
# Shear Modulus (GPa) = 141.69439 30.06826 85.88133
#
# Velocity S-wave (km/s) = 7.84323 3.61304 6.10616
# Velocity P-wave (km/s) = 9.95215 6.08328 8.24778
#
# Compressibility (1/GPa) = 0.02550260
#
# Stress axis : x y z
#
# Youngs Moduli (GPa) = 74.58891 122.26165 104.79547
#
# Poissons Ratio (x) = 0.20552 0.06648
# Poissons Ratio (y) = 0.12538 0.05214
# Poissons Ratio (z) = 0.04732 0.06083
#
# Static dielectric constant tensor:
#      x y z
#    x 1.913700 0.000000 0.103600 
#    y 0.000000 1.989830 0.000000 
#    z 0.103600 0.000000 2.070150 
# 
# From -- ./inp_files/2397.got.cif
#   From: 2010.05.17/outbox.cif.g08.bks.cpg/sg15_2_cif.got.tgz:2397.got - 2010.06.03 18:47:42.
