data_PCOD9294568
_publ_section_title
;
Structure prediction by ZEFSAII (Michael W. Deem and Ramdas Pophale) SiO2 
 PCOD9294568
Probable space group: C 2/C
;
_chemical_formula_sum "Si O2"
_cell_formula_units_Z 40
_cell_length_a 11.101456
_cell_length_b 20.713887
_cell_length_c 8.207631
_cell_angle_alpha 90.000000
_cell_angle_beta 96.754948
_cell_angle_gamma 90.000000
_cell_volume 1874.278462
_symmetry_space_group_name_H-M "C 2/C"
_symmetry_group_IT_number 15
_symmetry_cell_setting 'monoclinic'
loop_
_space_group_symop_operation_xyz
x,y,z
-x,y,1/2-z
-x,-y,-z
x,-y,1/2+z
1/2+x,1/2+y,z
1/2-x,1/2+y,1/2-z
1/2-x,1/2-y,-z
1/2+x,1/2-y,1/2+z
loop_
_atom_site_type_symbol
_atom_site_label
_atom_site_fract_x
_atom_site_fract_y
_atom_site_fract_z
Si Si1 0.128236 0.530284 0.454021
Si Si2 0.000000 0.365862 0.750000
Si Si3 0.163180 0.726994 0.843545
Si Si4 0.923648 0.749836 0.997018
Si Si5 0.246722 0.585926 0.794907
Si Si6 0.500000 0.359439 0.250000
O O1 0.105146 0.580309 0.300858
O O2 0.194218 0.567178 0.610376
O O3 0.210703 0.472013 0.406648
O O4 0.000000 0.500000 0.500000
O O5 0.956900 0.314718 0.604444
O O6 0.182774 0.748477 0.657326
O O7 0.174945 0.649941 0.838600
O O8 0.039407 0.752162 0.898449
O O9 0.250000 0.750000 0.000000
O O10 0.931757 0.811705 0.113113
O O11 0.390225 0.600520 0.811603
#
# Coordination Sequence:
#
# PCOD9294568 Si02
#       6
#     8   4   8   8   8   4
#     4  12  24  43  71 102 134 180 236 299 343 400
#     4  11  20  38  68 104 132 167 226 294 356 387
#     4  11  22  41  69 100 130 181 226 295 344 401
#     4  10  23  40  70 103 138 172 234 290 350 411
#     4  12  26  44  69 100 145 183 236 283 353 422
#     4  11  26  48  62 104 146 191 230 274 352 445
#
# _framework density 21.341546999999998
#
# number of rings (size 3 to 8) (size 9 to 14) (size 15 to 20)
#    0.000    0.800    6.000    1.200    2.800    3.200 
#    0.000    0.000    0.000    0.000    0.000    0.000 
#    0.000    0.000    0.000    0.000    0.000    0.000 
#
# Total GULP energy -111381.985643 kJ/mol
# GULP energy per Si atom -5569.099282 kJ/mol
# Density = 2.129297 g / cm^3
# Si number density = 21.341547 Si / 1000 Ang^3
#
#
#
# Elastic Constant Matrix: (Units=GPa)
#
#
# Indices 1 2 3 4 5 6 
#
# 1 89.7858 30.9985 13.4250 0.0000 -1.4263 0.0000
# 2 30.9985 119.1109 69.4902 0.0000 2.2013 0.0000
# 3 13.4250 69.4902 145.0871 0.0000 27.6068 0.0000
# 4 0.0000 0.0000 0.0000 45.8469 0.0000 -1.0586
# 5 -1.4263 2.2013 27.6068 0.0000 31.6940 0.0000
# 6 0.0000 0.0000 0.0000 -1.0586 0.0000 36.3167
#
#
#
# Elastic Compliance Matrix: (Units=1/GPa)
#
#
# Indices 1 2 3 4 5 6 
#
# 1 0.012272 -0.003461 0.000445 0.000000 0.000405 0.000000
# 2 -0.003461 0.013286 -0.006998 0.000000 0.005017 0.000000
# 3 0.000445 -0.006998 0.012114 0.000000 -0.010046 0.000000
# 4 0.000000 0.000000 0.000000 0.021826 0.000000 0.000636
# 5 0.000405 0.005017 -0.010046 0.000000 0.039972 0.000000
# 6 0.000000 0.000000 0.000000 0.000636 0.000000 0.027554
#
#
# Mechanical properties :
#
#
# Convention : Reuss Voigt Hill
#
# Bulk Modulus (GPa) = 56.67204 64.64570 60.65887
# Shear Modulus (GPa) = 32.69364 38.77618 35.73491
#
# Velocity S-wave (km/s) = 3.91823 4.26718 4.09642
# Velocity P-wave (km/s) = 6.86167 7.39156 7.13154
#
# Compressibility (1/GPa) = 0.01764539
#
# Stress axis : x y z
#
# Youngs Moduli (GPa) = 81.48351 75.26653 82.54631
#
# Poissons Ratio (x) = 0.26050 -0.03673
# Poissons Ratio (y) = 0.28201 0.57764
# Poissons Ratio (z) = -0.03626 0.52670
#
# Static dielectric constant tensor:
#      x y z
#    x 1.990210 0.000000 0.221000 
#    y 0.000000 1.742810 0.000000 
#    z 0.221000 0.000000 2.075230 
# 
# From -- ./inp_files/29137.got.cif
#   From: 2010.05.17/outbox.cif.g08.bks.cpg/sg15_15_cif.got.tgz:29137.got - 2010.06.03 18:47:42.
