data_PCOD9294977
_publ_section_title
;
Structure prediction by ZEFSAII (Michael W. Deem and Ramdas Pophale) SiO2 
 PCOD9294977
Probable space group: C 2/C
;
_chemical_formula_sum "Si O2"
_cell_formula_units_Z 48
_cell_length_a 16.285281
_cell_length_b 5.057858
_cell_length_c 23.833136
_cell_angle_alpha 90.000000
_cell_angle_beta 71.210615
_cell_angle_gamma 90.000000
_cell_volume 1858.487150
_symmetry_space_group_name_H-M "C 2/C"
_symmetry_group_IT_number 15
_symmetry_cell_setting 'monoclinic'
loop_
_space_group_symop_operation_xyz
x,y,z
-x,y,1/2-z
-x,-y,-z
x,-y,1/2+z
1/2+x,1/2+y,z
1/2-x,1/2+y,1/2-z
1/2-x,1/2-y,-z
1/2+x,1/2-y,1/2+z
loop_
_atom_site_type_symbol
_atom_site_label
_atom_site_fract_x
_atom_site_fract_y
_atom_site_fract_z
Si Si1 0.466458 0.154382 0.855471
Si Si2 0.647540 0.500507 0.495192
Si Si3 0.968664 0.297172 0.051737
Si Si4 0.279389 0.401408 0.906984
Si Si5 0.223709 0.052535 0.724430
Si Si6 0.964608 0.846293 0.205319
O O1 0.523517 0.034639 0.893686
O O2 0.364766 0.212885 0.882469
O O3 0.514328 0.438562 0.845338
O O4 0.479317 0.915986 0.810316
O O5 0.624057 0.699467 0.449716
O O6 0.550607 0.405044 0.533688
O O7 0.690843 0.583470 0.545570
O O8 0.702966 0.272619 0.451883
O O9 0.000000 0.500000 0.000000
O O10 0.265840 0.509413 0.845721
O O11 0.285322 0.267956 0.741748
O O12 0.134125 0.198628 0.760164
O O13 0.000000 0.015099 0.250000
#
# Coordination Sequence:
#
# PCOD9294977 Si02
#       6
#     8   8   8   8   8   8
#     4  11  26  44  76 107 147 193 250 308 370 446
#     4   9  22  47  73 106 149 190 251 306 380 441
#     4  10  23  41  72 109 143 192 244 304 377 449
#     4  10  23  49  74 109 148 199 247 315 373 449
#     4  12  29  49  75 113 152 198 256 313 379 445
#     4  12  26  49  74 105 144 202 253 303 375 449
#
# _framework density 25.827459000000001
#
# number of rings (size 3 to 8) (size 9 to 14) (size 15 to 20)
#    0.000    1.333    1.667    1.500   11.667    1.333 
#    6.000    2.500    0.000    0.000    0.000    0.000 
#    0.000    0.000    0.000    0.000    0.000    0.000 
#
# Total GULP energy -133609.697360 kJ/mol
# GULP energy per Si atom -5567.070723 kJ/mol
# Density = 2.576867 g / cm^3
# Si number density = 25.827459 Si / 1000 Ang^3
#
#
#
# Elastic Constant Matrix: (Units=GPa)
#
#
# Indices 1 2 3 4 5 6 
#
# 1 94.2529 20.8714 41.5982 0.0039 9.9652 -0.0045
# 2 20.8714 103.9240 35.4035 0.0064 3.0924 -0.0052
# 3 41.5982 35.4035 142.4543 0.0004 12.2045 -0.0007
# 4 0.0039 0.0064 0.0004 -20.4602 0.0029 30.4166
# 5 9.9652 3.0924 12.2045 0.0029 54.3851 -0.0023
# 6 -0.0045 -0.0052 -0.0007 30.4166 -0.0023 14.9874
#
#
#
# Elastic Compliance Matrix: (Units=1/GPa)
#
#
# Indices 1 2 3 4 5 6 
#
# 1 0.012473 -0.001380 -0.003171 0.000001 -0.001495 0.000000
# 2 -0.001380 0.010665 -0.002261 0.000002 0.000154 -0.000001
# 3 -0.003171 -0.002261 0.008612 -0.000001 -0.001223 0.000000
# 4 0.000001 0.000002 -0.000001 -0.012167 0.000002 0.024693
# 5 -0.001495 0.000154 -0.001223 0.000002 0.018927 -0.000001
# 6 0.000000 -0.000001 0.000000 0.024693 -0.000001 0.016610
#
#
# Mechanical properties :
#
#
# Convention : Reuss Voigt Hill
#
# Bulk Modulus (GPa) = 55.16761 59.59746 57.38253
# Shear Modulus (GPa) = 66.85656 25.96633 46.41145
#
# Velocity S-wave (km/s) = 5.09333 3.17421 4.24368
# Velocity P-wave (km/s) = 7.48304 6.04644 6.80277
#
# Compressibility (1/GPa) = 0.01812658
#
# Stress axis : x y z
#
# Youngs Moduli (GPa) = 80.17276 93.76306 116.11124
#
# Poissons Ratio (x) = 0.12941 0.36820
# Poissons Ratio (y) = 0.11065 0.26249
# Poissons Ratio (z) = 0.25424 0.21197
#
# Static dielectric constant tensor:
#      x y z
#    x -31.605310 -0.002900 19.587480 
#    y -0.002900 1.734040 0.001660 
#    z 19.587480 0.001660 -9.177450 
# 
# From -- ./inp_files/275824.got.cif
#   From: 2010.05.17/outbox.cif.g08.bks.cpg/sg15_138_cif.got.tgz:275824.got - 2010.06.03 18:47:42.
