data_PCOD9294662
_publ_section_title
;
Structure prediction by ZEFSAII (Michael W. Deem and Ramdas Pophale) SiO2 
 PCOD9294662
Probable space group: C 2/C
;
_chemical_formula_sum "Si O2"
_cell_formula_units_Z 60
_cell_length_a 28.107943
_cell_length_b 5.837894
_cell_length_c 17.240898
_cell_angle_alpha 90.000000
_cell_angle_beta 95.190476
_cell_angle_gamma 90.000000
_cell_volume 2817.478719
_symmetry_space_group_name_H-M "C 2/C"
_symmetry_group_IT_number 15
_symmetry_cell_setting 'monoclinic'
loop_
_space_group_symop_operation_xyz
x,y,z
-x,y,1/2-z
-x,-y,-z
x,-y,1/2+z
1/2+x,1/2+y,z
1/2-x,1/2+y,1/2-z
1/2-x,1/2-y,-z
1/2+x,1/2-y,1/2+z
loop_
_atom_site_type_symbol
_atom_site_label
_atom_site_fract_x
_atom_site_fract_y
_atom_site_fract_z
Si Si1 0.000000 0.308492 0.250000
Si Si2 0.632122 0.405249 0.308904
Si Si3 0.454041 0.543239 0.101177
Si Si4 0.095300 0.453648 0.700154
Si Si5 0.878474 0.881503 0.859537
Si Si6 0.547035 0.653069 0.561221
Si Si7 0.219484 0.991365 0.082991
Si Si8 0.267134 0.494379 0.100892
O O1 0.982529 0.156834 0.175692
O O2 0.953332 0.447784 0.269368
O O3 0.594649 0.447318 0.371785
O O4 0.625811 0.150229 0.274953
O O5 0.615711 0.540743 0.229212
O O6 0.684231 0.476973 0.342877
O O7 0.491255 0.359308 0.071984
O O8 0.445170 0.710734 0.027130
O O9 0.129482 0.615967 0.655547
O O10 0.074170 0.293639 0.630017
O O11 0.926106 0.911117 0.917881
O O12 0.834352 0.004059 0.892905
O O13 0.242544 0.745419 0.112877
O O14 0.241677 0.243023 0.110177
O O15 0.221336 0.995539 0.989614
#
# Coordination Sequence:
#
# PCOD9294662 Si02
#       8
#     4   8   8   8   8   8   8   8
#     4  12  20  40  64  92 140 176 226 282 344 414
#     4  11  24  41  66  95 131 175 225 283 346 413
#     4  11  21  42  63  94 133 180 222 285 337 420
#     4  11  23  40  64  96 132 182 224 283 346 416
#     4  11  23  42  64  94 133 171 222 282 342 414
#     4  10  23  41  63  91 134 177 230 273 342 414
#     4  10  24  45  70  99 134 179 220 289 350 420
#     4  10  24  46  70  99 134 173 232 282 351 416
#
# _framework density 21.295635999999998
#
# number of rings (size 3 to 8) (size 9 to 14) (size 15 to 20)
#    0.000    1.333    2.667    2.400    5.600    1.600 
#    7.200    0.000    0.000    0.000    0.000    0.000 
#    0.000    0.000    0.000    0.000    0.000    0.000 
#
# Total GULP energy -167110.736179 kJ/mol
# GULP energy per Si atom -5570.357873 kJ/mol
# Density = 2.124717 g / cm^3
# Si number density = 21.295636 Si / 1000 Ang^3
#
#
#
# Elastic Constant Matrix: (Units=GPa)
#
#
# Indices 1 2 3 4 5 6 
#
# 1 105.9156 36.5120 33.8532 0.0000 1.2292 0.0000
# 2 36.5120 80.5799 22.4469 0.0000 0.6921 0.0000
# 3 33.8532 22.4469 91.4191 0.0000 8.0310 0.0000
# 4 0.0000 0.0000 0.0000 -83.2014 0.0000 -45.2790
# 5 1.2292 0.6921 8.0310 0.0000 37.8225 0.0000
# 6 0.0000 0.0000 0.0000 -45.2790 0.0000 2.9524
#
#
#
# Elastic Compliance Matrix: (Units=1/GPa)
#
#
# Indices 1 2 3 4 5 6 
#
# 1 0.012086 -0.004533 -0.003399 0.000000 0.000412 0.000000
# 2 -0.004533 0.015029 -0.002038 0.000000 0.000305 0.000000
# 3 -0.003399 -0.002038 0.012926 0.000000 -0.002597 0.000000
# 4 0.000000 0.000000 0.000000 -0.001286 0.000000 -0.019722
# 5 0.000412 0.000305 -0.002597 0.000000 0.026972 0.000000
# 6 0.000000 0.000000 0.000000 -0.019722 0.000000 0.036240
#
#
# Mechanical properties :
#
#
# Convention : Reuss Voigt Hill
#
# Bulk Modulus (GPa) = 49.74968 51.50433 50.62701
# Shear Modulus (GPa) = 38.87821 3.85487 21.36654
#
# Velocity S-wave (km/s) = 4.27739 1.34689 3.17097
# Velocity P-wave (km/s) = 6.91425 5.16301 6.10179
#
# Compressibility (1/GPa) = 0.02010063
#
# Stress axis : x y z
#
# Youngs Moduli (GPa) = 82.74313 66.53698 77.36476
#
# Poissons Ratio (x) = 0.30161 0.26293
# Poissons Ratio (y) = 0.37507 0.15771
# Poissons Ratio (z) = 0.28121 0.13563
#
# Static dielectric constant tensor:
#      x y z
#    x 1.778570 0.000000 -0.006740 
#    y 0.000000 2.077820 0.000000 
#    z -0.006740 0.000000 1.732220 
# 
# From -- ./inp_files/223661.got.cif
#   From: 2010.05.17/outbox.cif.g08.bks.cpg/sg15_112_cif.got.tgz:223661.got - 2010.06.03 18:47:42.
