data_PCOD9294683
_publ_section_title
;
Structure prediction by ZEFSAII (Michael W. Deem and Ramdas Pophale) SiO2 
 PCOD9294683
Probable space group: C 2/C
;
_chemical_formula_sum "Si O2"
_cell_formula_units_Z 36
_cell_length_a 20.518424
_cell_length_b 6.850967
_cell_length_c 9.348320
_cell_angle_alpha 90.000000
_cell_angle_beta 84.209351
_cell_angle_gamma 90.000000
_cell_volume 1307.397498
_symmetry_space_group_name_H-M "C 2/C"
_symmetry_group_IT_number 15
_symmetry_cell_setting 'monoclinic'
loop_
_space_group_symop_operation_xyz
x,y,z
-x,y,1/2-z
-x,-y,-z
x,-y,1/2+z
1/2+x,1/2+y,z
1/2-x,1/2+y,1/2-z
1/2-x,1/2-y,-z
1/2+x,1/2-y,1/2+z
loop_
_atom_site_type_symbol
_atom_site_label
_atom_site_fract_x
_atom_site_fract_y
_atom_site_fract_z
Si Si1 0.541043 0.704908 0.984780
Si Si2 0.696826 0.777359 0.193711
Si Si3 0.818799 0.629837 0.497647
Si Si4 0.000000 0.475368 0.250000
Si Si5 0.344406 0.351424 0.243340
O O1 0.522909 0.870882 0.869054
O O2 0.609988 0.637198 0.902685
O O3 0.691504 0.081934 0.562598
O O4 0.539748 0.818315 0.138137
O O5 0.773810 0.768548 0.213563
O O6 0.661910 0.867085 0.342543
O O7 0.750000 0.750000 0.500000
O O8 0.868317 0.728400 0.374890
O O9 0.830088 0.936870 0.809464
O O10 0.500000 0.500000 0.000000
#
# Coordination Sequence:
#
# PCOD9294683 Si02
#       5
#     8   8   8   4   8
#     4  11  26  51  80 112 148 198 259 320 384 447
#     4  11  23  45  67 105 148 195 241 293 373 442
#     4  10  23  41  63  98 143 192 242 289 356 445
#     4  10  26  54  78 112 144 196 262 318 392 446
#     4  11  24  43  72 105 151 190 239 303 367 453
#
# _framework density 27.535620000000002
#
# number of rings (size 3 to 8) (size 9 to 14) (size 15 to 20)
#    0.000    1.333    4.444    0.667    0.000   14.222 
#    4.000    0.000    0.000    0.000    0.000    0.000 
#    0.000    0.000    0.000    0.000    0.000    0.000 
#
# Total GULP energy -100817.193097 kJ/mol
# GULP energy per Si atom -5600.955172 kJ/mol
# Density = 2.747295 g / cm^3
# Si number density = 27.535620 Si / 1000 Ang^3
#
#
#
# Elastic Constant Matrix: (Units=GPa)
#
#
# Indices 1 2 3 4 5 6 
#
# 1 58.0836 45.8779 59.8147 0.0000 -11.9420 0.0000
# 2 45.8779 207.1693 95.4266 0.0000 4.8332 0.0000
# 3 59.8147 95.4266 267.8058 0.0000 4.6962 0.0000
# 4 0.0000 0.0000 0.0000 82.5655 0.0000 2.7553
# 5 -11.9420 4.8332 4.6962 0.0000 54.1621 0.0000
# 6 0.0000 0.0000 0.0000 2.7553 0.0000 22.0125
#
#
#
# Elastic Compliance Matrix: (Units=1/GPa)
#
#
# Indices 1 2 3 4 5 6 
#
# 1 0.026388 -0.003863 -0.004632 0.000000 0.006565 0.000000
# 2 -0.003863 0.006346 -0.001376 0.000000 -0.001299 0.000000
# 3 -0.004632 -0.001376 0.005283 0.000000 -0.001357 0.000000
# 4 0.000000 0.000000 0.000000 0.012162 0.000000 -0.001522
# 5 0.006565 -0.001299 -0.001357 0.000000 0.020144 0.000000
# 6 0.000000 0.000000 0.000000 -0.001522 0.000000 0.045619
#
#
# Mechanical properties :
#
#
# Convention : Reuss Voigt Hill
#
# Bulk Modulus (GPa) = 54.72061 103.92192 79.32126
# Shear Modulus (GPa) = 35.26669 53.87733 44.57201
#
# Velocity S-wave (km/s) = 3.58266 4.42819 4.02768
# Velocity P-wave (km/s) = 6.08521 7.99800 7.10626
#
# Compressibility (1/GPa) = 0.01827465
#
# Stress axis : x y z
#
# Youngs Moduli (GPa) = 37.89614 157.56761 189.29577
#
# Poissons Ratio (x) = 0.60869 0.87689
# Poissons Ratio (y) = 0.14639 0.26044
# Poissons Ratio (z) = 0.17555 0.21679
#
# Static dielectric constant tensor:
#      x y z
#    x 3.222170 0.000000 0.253670 
#    y 0.000000 2.143430 0.000000 
#    z 0.253670 0.000000 2.214370 
# 
# From -- ./inp_files/103171.got.cif
#   From: 2010.05.17/outbox.cif.g08.bks.cpg/sg15_52_cif.got.tgz:103171.got - 2010.06.03 18:47:42.
