data_PCOD9294488
_publ_section_title
;
Structure prediction by ZEFSAII (Michael W. Deem and Ramdas Pophale) SiO2 
 PCOD9294488
Probable space group: C 2/C
;
_chemical_formula_sum "Si O2"
_cell_formula_units_Z 40
_cell_length_a 7.498642
_cell_length_b 27.930598
_cell_length_c 7.481690
_cell_angle_alpha 90.000000
_cell_angle_beta 73.354998
_cell_angle_gamma 90.000000
_cell_volume 1501.317155
_symmetry_space_group_name_H-M "C 2/C"
_symmetry_group_IT_number 15
_symmetry_cell_setting 'monoclinic'
loop_
_space_group_symop_operation_xyz
x,y,z
-x,y,1/2-z
-x,-y,-z
x,-y,1/2+z
1/2+x,1/2+y,z
1/2-x,1/2+y,1/2-z
1/2-x,1/2-y,-z
1/2+x,1/2-y,1/2+z
loop_
_atom_site_type_symbol
_atom_site_label
_atom_site_fract_x
_atom_site_fract_y
_atom_site_fract_z
Si Si1 0.790108 0.519007 0.890392
Si Si2 0.000000 0.750665 0.250000
Si Si3 0.244821 0.164755 0.662761
Si Si4 0.789180 0.578094 0.257271
Si Si5 0.171629 0.329912 0.946425
Si Si6 0.500000 0.579717 0.750000
O O1 0.725627 0.463575 0.913089
O O2 0.641531 0.548998 0.823306
O O3 0.000000 0.522462 0.750000
O O4 0.790830 0.544305 0.080564
O O5 0.145169 0.787886 0.117907
O O6 0.127279 0.717945 0.344682
O O7 0.237923 0.171120 0.881840
O O8 0.457597 0.156503 0.552937
O O9 0.134800 0.119349 0.618555
O O10 0.000000 0.587947 0.250000
O O11 0.725884 0.629779 0.201819
#
# Coordination Sequence:
#
# PCOD9294488 Si02
#       6
#     8   4   8   8   8   4
#     4  11  23  41  65  93 132 179 227 274 331 390
#     4  11  22  40  70 102 126 174 226 277 334 406
#     4  10  23  40  66  97 132 176 219 273 345 401
#     4  11  22  40  66  94 127 183 226 270 331 396
#     4  11  21  42  67  93 136 177 219 277 339 395
#     4  11  22  40  66  96 134 176 230 271 330 398
#
# _framework density 26.643270999999999
#
# number of rings (size 3 to 8) (size 9 to 14) (size 15 to 20)
#    0.000    1.200    3.000    4.800    0.000    0.800 
#    0.000    0.000    0.000    0.000    0.000    0.000 
#    0.000    0.000    0.000    0.000    0.000    0.000 
#
# Total GULP energy -111818.411137 kJ/mol
# GULP energy per Si atom -5590.920557 kJ/mol
# Density = 2.658263 g / cm^3
# Si number density = 26.643271 Si / 1000 Ang^3
#
#
#
# Elastic Constant Matrix: (Units=GPa)
#
#
# Indices 1 2 3 4 5 6 
#
# 1 152.9543 58.2800 39.1903 0.0000 9.0659 0.0000
# 2 58.2800 230.4396 40.7677 0.0000 23.2734 0.0000
# 3 39.1903 40.7677 86.6978 0.0000 31.4613 0.0000
# 4 0.0000 0.0000 0.0000 115.3012 0.0000 -7.7794
# 5 9.0659 23.2734 31.4613 0.0000 32.8360 0.0000
# 6 0.0000 0.0000 0.0000 -7.7794 0.0000 31.6192
#
#
#
# Elastic Compliance Matrix: (Units=1/GPa)
#
#
# Indices 1 2 3 4 5 6 
#
# 1 0.007965 -0.001605 -0.003772 0.000000 0.002552 0.000000
# 2 -0.001605 0.005133 -0.000811 0.000000 -0.002418 0.000000
# 3 -0.003772 -0.000811 0.019982 0.000000 -0.017529 0.000000
# 4 0.000000 0.000000 0.000000 0.008819 0.000000 0.002170
# 5 0.002552 -0.002418 -0.017529 0.000000 0.048259 0.000000
# 6 0.000000 0.000000 0.000000 0.002170 0.000000 0.032160
#
#
# Mechanical properties :
#
#
# Convention : Reuss Voigt Hill
#
# Bulk Modulus (GPa) = 48.29872 82.95197 65.62534
# Shear Modulus (GPa) = 35.31228 58.07486 46.69357
#
# Velocity S-wave (km/s) = 3.64452 4.67381 4.19088
# Velocity P-wave (km/s) = 5.98977 7.76710 6.93560
#
# Compressibility (1/GPa) = 0.02070448
#
# Stress axis : x y z
#
# Youngs Moduli (GPa) = 125.55697 194.81546 50.04611
#
# Poissons Ratio (x) = 0.31264 0.18877
# Poissons Ratio (y) = 0.20149 0.04057
# Poissons Ratio (z) = 0.47358 0.15794
#
# Static dielectric constant tensor:
#      x y z
#    x 2.262340 0.000000 -0.264710 
#    y 0.000000 2.083640 0.000000 
#    z -0.264710 0.000000 2.469320 
# 
# From -- ./inp_files/24475.got.cif
#   From: 2010.05.17/outbox.cif.g08.bks.cpg/sg15_13_cif.got.tgz:24475.got - 2010.06.03 18:47:42.
