data_PCOD9294850
_publ_section_title
;
Structure prediction by ZEFSAII (Michael W. Deem and Ramdas Pophale) SiO2 
 PCOD9294850
Probable space group: C 2/C
;
_chemical_formula_sum "Si O2"
_cell_formula_units_Z 56
_cell_length_a 9.125064
_cell_length_b 17.428803
_cell_length_c 26.818047
_cell_angle_alpha 90.000000
_cell_angle_beta 139.766306
_cell_angle_gamma 90.000000
_cell_volume 2754.865789
_symmetry_space_group_name_H-M "C 2/C"
_symmetry_group_IT_number 15
_symmetry_cell_setting 'monoclinic'
loop_
_space_group_symop_operation_xyz
x,y,z
-x,y,1/2-z
-x,-y,-z
x,-y,1/2+z
1/2+x,1/2+y,z
1/2-x,1/2+y,1/2-z
1/2-x,1/2-y,-z
1/2+x,1/2-y,1/2+z
loop_
_atom_site_type_symbol
_atom_site_label
_atom_site_fract_x
_atom_site_fract_y
_atom_site_fract_z
Si Si1 0.500000 0.059926 0.250000
Si Si2 0.568818 0.617147 0.567624
Si Si3 0.493983 0.931874 0.375750
Si Si4 0.000000 0.926558 0.250000
Si Si5 0.898555 0.397497 0.615442
Si Si6 0.495702 0.215991 0.434112
Si Si7 0.029870 0.010729 0.649880
Si Si8 0.378427 0.081800 0.480286
O O1 0.591409 0.104393 0.322320
O O2 0.706355 0.008995 0.283413
O O3 0.798002 0.578357 0.608042
O O4 0.357881 0.604422 0.474338
O O5 0.637012 0.706023 0.591177
O O6 0.492592 0.578617 0.600017
O O7 0.573442 0.901544 0.449842
O O8 0.249787 0.892868 0.302392
O O9 0.479802 0.024854 0.372471
O O10 0.046410 0.969682 0.314146
O O11 0.030180 0.326356 0.625152
O O12 0.458701 0.150699 0.465911
O O13 0.750000 0.250000 0.500000
O O14 0.885318 0.937506 0.595373
O O15 0.500000 0.000000 0.500000
#
# Coordination Sequence:
#
# PCOD9294850 Si02
#       8
#     4   8   8   4   8   8   8   8
#     4  12  24  38  69  99 136 162 224 276 328 376
#     4  11  23  43  71  96 132 173 220 268 333 392
#     4  12  22  39  67 100 128 167 226 271 313 394
#     4  12  24  34  61  99 136 162 214 272 328 366
#     4  11  20  41  67 101 123 173 217 274 318 389
#     4  10  23  41  67  97 133 169 214 274 334 385
#     4  12  22  39  68  99 128 171 220 273 318 391
#     4  12  21  38  70  98 123 167 230 269 314 383
#
# _framework density 20.327670000000001
#
# number of rings (size 3 to 8) (size 9 to 14) (size 15 to 20)
#    0.000    0.571    7.143    2.143    0.000    0.571 
#    0.000    0.714    9.429    0.000    0.000    0.000 
#    0.000    0.000    0.000    0.000    0.000    0.000 
#
# Total GULP energy -156157.236311 kJ/mol
# GULP energy per Si atom -5577.044154 kJ/mol
# Density = 2.028140 g / cm^3
# Si number density = 20.327670 Si / 1000 Ang^3
#
#
#
# Elastic Constant Matrix: (Units=GPa)
#
#
# Indices 1 2 3 4 5 6 
#
# 1 104.9318 34.6708 41.3336 -0.0001 -13.4125 0.0000
# 2 34.6708 100.5748 19.0284 0.0000 -13.4718 0.0000
# 3 41.3336 19.0284 111.2031 0.0000 -11.2759 -0.0001
# 4 -0.0001 0.0000 0.0000 4.6680 0.0000 -7.2966
# 5 -13.4125 -13.4718 -11.2759 0.0000 53.7152 -0.0001
# 6 0.0000 0.0000 -0.0001 -7.2966 -0.0001 25.8263
#
#
#
# Elastic Compliance Matrix: (Units=1/GPa)
#
#
# Indices 1 2 3 4 5 6 
#
# 1 0.012338 -0.003329 -0.003871 0.000000 0.001433 0.000000
# 2 -0.003329 0.011448 -0.000526 0.000000 0.001930 0.000000
# 3 -0.003871 -0.000526 0.010636 0.000000 0.001134 0.000000
# 4 0.000000 0.000000 0.000000 0.383659 0.000001 0.108394
# 5 0.001433 0.001930 0.001134 0.000001 0.019697 0.000000
# 6 0.000000 0.000000 0.000000 0.108394 0.000000 0.069344
#
#
# Mechanical properties :
#
#
# Convention : Reuss Voigt Hill
#
# Bulk Modulus (GPa) = 52.71195 56.30836 54.51015
# Shear Modulus (GPa) = 9.45362 31.62036 20.53699
#
# Velocity S-wave (km/s) = 2.15887 3.94830 3.18197
# Velocity P-wave (km/s) = 5.67466 6.96749 6.35404
#
# Compressibility (1/GPa) = 0.01897103
#
# Stress axis : x y z
#
# Youngs Moduli (GPa) = 81.05101 87.34859 94.01670
#
# Poissons Ratio (x) = 0.29077 0.36394
# Poissons Ratio (y) = 0.26981 0.04945
# Poissons Ratio (z) = 0.31375 0.04595
#
# Static dielectric constant tensor:
#      x y z
#    x 1.754380 0.000000 0.022730 
#    y 0.000000 1.748040 0.000000 
#    z 0.022730 0.000000 1.782670 
# 
# From -- ./inp_files/190954.got.cif
#   From: 2010.05.17/outbox.cif.g08.bks.cpg/sg15_96_cif.got.tgz:190954.got - 2010.06.03 18:47:42.
