data_PCOD9294803
_publ_section_title
;
Structure prediction by ZEFSAII (Michael W. Deem and Ramdas Pophale) SiO2 
 PCOD9294803
Probable space group: C 2/C
;
_chemical_formula_sum "Si O2"
_cell_formula_units_Z 48
_cell_length_a 26.545328
_cell_length_b 19.897538
_cell_length_c 9.240113
_cell_angle_alpha 90.000000
_cell_angle_beta 29.503221
_cell_angle_gamma 90.000000
_cell_volume 2403.514214
_symmetry_space_group_name_H-M "C 2/C"
_symmetry_group_IT_number 15
_symmetry_cell_setting 'monoclinic'
loop_
_space_group_symop_operation_xyz
x,y,z
-x,y,1/2-z
-x,-y,-z
x,-y,1/2+z
1/2+x,1/2+y,z
1/2-x,1/2+y,1/2-z
1/2-x,1/2-y,-z
1/2+x,1/2-y,1/2+z
loop_
_atom_site_type_symbol
_atom_site_label
_atom_site_fract_x
_atom_site_fract_y
_atom_site_fract_z
Si Si1 0.029974 0.932486 0.844209
Si Si2 0.740374 0.616410 0.712885
Si Si3 0.264869 0.756157 0.632855
Si Si4 0.367100 0.675123 0.805606
Si Si5 0.039843 0.435642 0.814118
Si Si6 0.494251 0.802907 0.103154
O O1 0.149155 0.915275 0.535679
O O2 0.000000 0.936536 0.750000
O O3 0.964262 0.873349 0.081649
O O4 0.000000 0.000000 0.000000
O O5 0.770446 0.685635 0.713516
O O6 0.698884 0.640317 0.658380
O O7 0.837628 0.568399 0.471570
O O8 0.250000 0.750000 0.500000
O O9 0.384897 0.767087 0.360973
O O10 0.200491 0.811806 0.882934
O O11 0.416859 0.746494 0.633141
O O12 0.000000 0.440297 0.750000
O O13 0.002199 0.364342 0.973213
O O14 0.000000 0.500000 0.000000
O O15 0.500000 0.831890 0.250000
#
# Coordination Sequence:
#
# PCOD9294803 Si02
#       6
#     8   8   8   8   8   8
#     4  10  23  41  66  98 133 175 222 277 335 409
#     4  11  22  45  69  95 136 178 233 280 341 414
#     4  12  24  37  65 104 136 174 220 289 348 399
#     4  11  22  43  71 101 134 183 230 278 348 419
#     4  12  28  46  66  98 141 187 236 286 347 422
#     4  12  22  42  72  99 135 180 237 281 347 415
#
# _framework density 19.970756999999999
#
# number of rings (size 3 to 8) (size 9 to 14) (size 15 to 20)
#    0.000    0.667    5.000    3.500    0.000    5.333 
#    0.000    0.000    0.000    0.000    0.000    0.000 
#    0.000    0.000    0.000    0.000    0.000    0.000 
#
# Total GULP energy -134090.497729 kJ/mol
# GULP energy per Si atom -5587.104072 kJ/mol
# Density = 1.992530 g / cm^3
# Si number density = 19.970757 Si / 1000 Ang^3
#
#
#
# Elastic Constant Matrix: (Units=GPa)
#
#
# Indices 1 2 3 4 5 6 
#
# 1 109.5168 37.7230 70.4477 0.0000 8.6657 0.0000
# 2 37.7230 110.4954 55.7649 0.0000 -0.6376 0.0000
# 3 70.4477 55.7649 152.0626 0.0000 -8.0242 0.0000
# 4 0.0000 0.0000 0.0000 57.7656 0.0000 8.0039
# 5 8.6657 -0.6376 -8.0242 0.0000 33.8667 0.0000
# 6 0.0000 0.0000 0.0000 8.0039 0.0000 22.6623
#
#
#
# Elastic Compliance Matrix: (Units=1/GPa)
#
#
# Indices 1 2 3 4 5 6 
#
# 1 0.014096 -0.001731 -0.006165 0.000000 -0.005100 0.000000
# 2 -0.001731 0.011338 -0.003363 0.000000 -0.000141 0.000000
# 3 -0.006165 -0.003363 0.010882 0.000000 0.004092 0.000000
# 4 0.000000 0.000000 0.000000 0.018202 0.000000 -0.006429
# 5 -0.005100 -0.000141 0.004092 0.000000 0.031800 0.000000
# 6 0.000000 0.000000 0.000000 -0.006429 0.000000 0.046397
#
#
# Mechanical properties :
#
#
# Convention : Reuss Voigt Hill
#
# Bulk Modulus (GPa) = 72.47604 77.77179 75.12391
# Shear Modulus (GPa) = 31.28293 36.73488 34.00891
#
# Velocity S-wave (km/s) = 3.96212 4.29351 4.13114
# Velocity P-wave (km/s) = 7.56974 7.97536 7.77520
#
# Compressibility (1/GPa) = 0.01379766
#
# Stress axis : x y z
#
# Youngs Moduli (GPa) = 70.93984 88.20193 91.89608
#
# Poissons Ratio (x) = 0.15263 0.56655
# Poissons Ratio (y) = 0.12276 0.30909
# Poissons Ratio (z) = 0.43735 0.29667
#
# Static dielectric constant tensor:
#      x y z
#    x 1.711500 0.000000 -0.026210 
#    y 0.000000 0.765470 0.000000 
#    z -0.026210 0.000000 1.741600 
# 
# From -- ./inp_files/67476.got.cif
#   From: 2010.05.17/outbox.cif.g08.bks.cpg/sg15_34_cif.got.tgz:67476.got - 2010.06.03 18:47:42.
