data_PCOD9294529
_publ_section_title
;
Structure prediction by ZEFSAII (Michael W. Deem and Ramdas Pophale) SiO2 
 PCOD9294529
Probable space group: C 2/C
;
_chemical_formula_sum "Si O2"
_cell_formula_units_Z 36
_cell_length_a 22.845450
_cell_length_b 6.938304
_cell_length_c 14.353982
_cell_angle_alpha 90.000000
_cell_angle_beta 39.074499
_cell_angle_gamma 90.000000
_cell_volume 1434.146951
_symmetry_space_group_name_H-M "C 2/C"
_symmetry_group_IT_number 15
_symmetry_cell_setting 'monoclinic'
loop_
_space_group_symop_operation_xyz
x,y,z
-x,y,1/2-z
-x,-y,-z
x,-y,1/2+z
1/2+x,1/2+y,z
1/2-x,1/2+y,1/2-z
1/2-x,1/2-y,-z
1/2+x,1/2-y,1/2+z
loop_
_atom_site_type_symbol
_atom_site_label
_atom_site_fract_x
_atom_site_fract_y
_atom_site_fract_z
Si Si1 0.165265 0.572617 0.644284
Si Si2 0.500000 0.687855 0.250000
Si Si3 0.603040 0.018406 0.908209
Si Si4 0.245564 0.448149 0.869255
Si Si5 0.914378 0.032652 0.033911
O O1 0.152648 0.451472 0.752375
O O2 0.213549 0.451248 0.503768
O O3 0.217320 0.753093 0.628952
O O4 0.072368 0.675104 0.717212
O O5 0.447130 0.554389 0.393650
O O6 0.606835 0.238027 0.941653
O O7 0.651423 0.904649 0.930096
O O8 0.500000 0.000000 0.000000
O O9 0.320526 0.532714 0.705268
O O10 0.000000 0.000000 0.000000
#
# Coordination Sequence:
#
# PCOD9294529 Si02
#       5
#     8   4   8   8   8
#     4  10  23  43  70  97 133 193 216 274 353 409
#     4  12  22  44  72  94 144 180 226 268 354 410
#     4  11  24  43  69 100 135 176 233 288 334 402
#     4  10  23  40  67  99 133 173 236 267 336 409
#     4  11  25  41  65 104 134 179 224 284 339 405
#
# _framework density 25.102029999999999
#
# number of rings (size 3 to 8) (size 9 to 14) (size 15 to 20)
#    0.000    1.333    4.444    1.333    9.333    1.778 
#    0.000    1.111    0.000    0.000    0.000    0.000 
#    0.000    0.000    0.000    0.000    0.000    0.000 
#
# Total GULP energy -100288.323024 kJ/mol
# GULP energy per Si atom -5571.573501 kJ/mol
# Density = 2.504490 g / cm^3
# Si number density = 25.102030 Si / 1000 Ang^3
#
#
#
# Elastic Constant Matrix: (Units=GPa)
#
#
# Indices 1 2 3 4 5 6 
#
# 1 191.0622 33.3346 58.0495 -0.0002 3.1405 -0.0007
# 2 33.3346 87.3492 39.7957 -0.0020 9.8517 0.0021
# 3 58.0495 39.7957 160.3955 -0.0008 47.5881 0.0008
# 4 -0.0002 -0.0020 -0.0008 10.3007 0.0005 27.1021
# 5 3.1405 9.8517 47.5881 0.0005 60.2463 -0.0001
# 6 -0.0007 0.0021 0.0008 27.1021 -0.0001 14.2198
#
#
#
# Elastic Compliance Matrix: (Units=1/GPa)
#
#
# Indices 1 2 3 4 5 6 
#
# 1 0.006195 -0.001468 -0.002421 0.000001 0.001829 0.000000
# 2 -0.001468 0.013269 -0.002795 -0.000002 0.000114 0.000002
# 3 -0.002421 -0.002795 0.009967 0.000000 -0.007290 0.000000
# 4 0.000001 -0.000002 0.000000 -0.024181 0.000001 0.046088
# 5 0.001829 0.000114 -0.007290 0.000001 0.022242 -0.000001
# 6 0.000000 0.000002 0.000000 0.046088 -0.000001 -0.017517
#
#
# Mechanical properties :
#
#
# Convention : Reuss Voigt Hill
#
# Bulk Modulus (GPa) = 62.24946 77.90739 70.07842
# Shear Modulus (GPa) = 174.23559 37.46185 105.84872
#
# Velocity S-wave (km/s) = 8.34036 3.86733 6.50069
# Velocity P-wave (km/s) = 10.84441 7.14460 9.18277
#
# Compressibility (1/GPa) = 0.01606440
#
# Stress axis : x y z
#
# Youngs Moduli (GPa) = 161.41027 75.36449 100.33224
#
# Poissons Ratio (x) = 0.11062 0.24288
# Poissons Ratio (y) = 0.23691 0.28042
# Poissons Ratio (z) = 0.39073 0.21063
#
# Static dielectric constant tensor:
#      x y z
#    x 1.951500 -0.000010 0.135290 
#    y -0.000010 1.964970 -0.000020 
#    z 0.135290 -0.000020 2.400650 
# 
# From -- ./inp_files/166627.got.cif
#   From: 2010.05.17/outbox.cif.g08.bks.cpg/sg15_84_cif.got.tgz:166627.got - 2010.06.03 18:47:42.
