data_PCOD9294549
_publ_section_title
;
Structure prediction by ZEFSAII (Michael W. Deem and Ramdas Pophale) SiO2 
 PCOD9294549
Probable space group: C 2/C
;
_chemical_formula_sum "Si O2"
_cell_formula_units_Z 40
_cell_length_a 5.502471
_cell_length_b 19.332819
_cell_length_c 17.819578
_cell_angle_alpha 90.000000
_cell_angle_beta 90.040816
_cell_angle_gamma 90.000000
_cell_volume 1895.615504
_symmetry_space_group_name_H-M "C 2/C"
_symmetry_group_IT_number 15
_symmetry_cell_setting 'monoclinic'
loop_
_space_group_symop_operation_xyz
x,y,z
-x,y,1/2-z
-x,-y,-z
x,-y,1/2+z
1/2+x,1/2+y,z
1/2-x,1/2+y,1/2-z
1/2-x,1/2-y,-z
1/2+x,1/2-y,1/2+z
loop_
_atom_site_type_symbol
_atom_site_label
_atom_site_fract_x
_atom_site_fract_y
_atom_site_fract_z
Si Si1 0.052323 0.800336 0.336340
Si Si2 0.944720 0.264031 0.435510
Si Si3 0.665710 0.171941 0.071661
Si Si4 0.029343 0.958162 0.159937
Si Si5 0.973091 0.483498 0.911501
O O1 0.332795 0.799361 0.362869
O O2 0.952476 0.875931 0.355087
O O3 0.000000 0.788759 0.250000
O O4 0.944242 0.735182 0.380534
O O5 0.750000 0.250000 0.500000
O O6 0.051267 0.188635 0.416780
O O7 0.122005 0.313922 0.482960
O O8 0.565848 0.098931 0.095196
O O9 0.000000 0.968127 0.250000
O O10 0.778141 0.983656 0.120724
O O11 0.278113 0.992798 0.129600
O O12 0.000000 0.500000 0.000000
#
# Coordination Sequence:
#
# PCOD9294549 Si02
#       5
#     8   8   8   8   8
#     4  10  23  41  67  96 130 182 233 281 347 423
#     4   9  20  38  65  94 136 167 224 288 344 402
#     4  10  23  40  68  98 130 180 229 292 346 406
#     4  11  27  48  69 100 148 191 233 295 373 432
#     4  12  27  45  74 107 142 189 243 298 357 435
#
# _framework density 21.101324000000002
#
# number of rings (size 3 to 8) (size 9 to 14) (size 15 to 20)
#    0.000    1.600    0.000    2.400   16.800    2.400 
#    0.000    0.000    0.000    0.000    0.000    0.000 
#    0.000    0.000    0.000    0.000    0.000    0.000 
#
# Total GULP energy -111508.499835 kJ/mol
# GULP energy per Si atom -5575.424992 kJ/mol
# Density = 2.105330 g / cm^3
# Si number density = 21.101324 Si / 1000 Ang^3
#
#
#
# Elastic Constant Matrix: (Units=GPa)
#
#
# Indices 1 2 3 4 5 6 
#
# 1 141.7564 79.4721 84.1154 0.0000 -3.1322 0.0000
# 2 79.4721 186.2702 88.2616 0.0000 -10.1245 0.0000
# 3 84.1154 88.2616 146.8358 0.0000 17.5528 0.0000
# 4 0.0000 0.0000 0.0000 31.3482 0.0000 -7.6845
# 5 -3.1322 -10.1245 17.5528 0.0000 37.9718 0.0000
# 6 0.0000 0.0000 0.0000 -7.6845 0.0000 43.4691
#
#
#
# Elastic Compliance Matrix: (Units=1/GPa)
#
#
# Indices 1 2 3 4 5 6 
#
# 1 0.011768 -0.002067 -0.005873 0.000000 0.003134 0.000000
# 2 -0.002067 0.008607 -0.004492 0.000000 0.004201 0.000000
# 3 -0.005873 -0.004492 0.013840 0.000000 -0.008080 0.000000
# 4 0.000000 0.000000 0.000000 0.033345 0.000000 0.005895
# 5 0.003134 0.004201 -0.008080 0.000000 0.031449 0.000000
# 6 0.000000 0.000000 0.000000 0.005895 0.000000 0.024047
#
#
# Mechanical properties :
#
#
# Convention : Reuss Voigt Hill
#
# Bulk Modulus (GPa) = 106.93837 108.72898 107.83368
# Shear Modulus (GPa) = 33.10443 37.42534 35.26489
#
# Velocity S-wave (km/s) = 3.96515 4.21598 4.09249
# Velocity P-wave (km/s) = 8.47064 8.67976 8.57584
#
# Compressibility (1/GPa) = 0.00935118
#
# Stress axis : x y z
#
# Youngs Moduli (GPa) = 84.97877 116.18217 72.25189
#
# Poissons Ratio (x) = 0.24019 0.42434
# Poissons Ratio (y) = 0.17568 0.32452
# Poissons Ratio (z) = 0.49909 0.52184
#
# Static dielectric constant tensor:
#      x y z
#    x 3.514050 0.000000 0.060920 
#    y 0.000000 1.756360 0.000000 
#    z 0.060920 0.000000 1.765110 
# 
# From -- ./inp_files/184316.got.cif
#   From: 2010.05.17/outbox.cif.g08.bks.cpg/sg15_93_cif.got.tgz:184316.got - 2010.06.03 18:47:42.
