data_PCOD9294177
_publ_section_title
;
Structure prediction by ZEFSAII (Michael W. Deem and Ramdas Pophale) SiO2 
 PCOD9294177
Probable space group: C 2/C
;
_chemical_formula_sum "Si O2"
_cell_formula_units_Z 40
_cell_length_a 7.960255
_cell_length_b 27.813864
_cell_length_c 9.852527
_cell_angle_alpha 90.000000
_cell_angle_beta 46.266602
_cell_angle_gamma 90.000000
_cell_volume 1576.204067
_symmetry_space_group_name_H-M "C 2/C"
_symmetry_group_IT_number 15
_symmetry_cell_setting 'monoclinic'
loop_
_space_group_symop_operation_xyz
x,y,z
-x,y,1/2-z
-x,-y,-z
x,-y,1/2+z
1/2+x,1/2+y,z
1/2-x,1/2+y,1/2-z
1/2-x,1/2-y,-z
1/2+x,1/2-y,1/2+z
loop_
_atom_site_type_symbol
_atom_site_label
_atom_site_fract_x
_atom_site_fract_y
_atom_site_fract_z
Si Si1 0.012871 0.310530 0.402190
Si Si2 0.733860 0.784520 0.707087
Si Si3 0.641809 0.546664 0.875146
Si Si4 0.728235 0.612791 0.364036
Si Si5 0.424318 0.079525 0.982952
O O1 0.794932 0.295012 0.616375
O O2 0.040966 0.367061 0.412682
O O3 0.000000 0.304626 0.250000
O O4 0.188098 0.269787 0.355635
O O5 0.500000 0.788128 0.750000
O O6 0.869942 0.832748 0.586905
O O7 0.769013 0.568965 0.937371
O O8 0.855484 0.543158 0.649646
O O9 0.500000 0.500000 0.000000
O O10 0.439618 0.583273 0.946270
O O11 0.000000 0.614125 0.250000
O O12 0.753693 0.584356 0.206615
#
# Coordination Sequence:
#
# PCOD9294177 Si02
#       5
#     8   8   8   8   8
#     4  11  21  39  66  98 135 178 223 283 327 407
#     4  10  23  39  62  98 139 183 222 269 338 411
#     4  11  24  44  73  94 131 180 222 290 347 399
#     4  10  24  45  67  99 139 178 227 279 336 405
#     4  10  24  47  66 102 138 169 230 284 339 407
#
# _framework density 25.377424000000001
#
# number of rings (size 3 to 8) (size 9 to 14) (size 15 to 20)
#    0.000    1.600    2.000    1.800    5.600    4.800 
#    3.600    0.000    0.000    0.000    0.000    0.000 
#    0.000    0.000    0.000    0.000    0.000    0.000 
#
# Total GULP energy -111612.628852 kJ/mol
# GULP energy per Si atom -5580.631443 kJ/mol
# Density = 2.531966 g / cm^3
# Si number density = 25.377424 Si / 1000 Ang^3
#
#
#
# Elastic Constant Matrix: (Units=GPa)
#
#
# Indices 1 2 3 4 5 6 
#
# 1 60.6712 14.0792 28.3266 0.0000 3.5655 0.0000
# 2 14.0792 149.3678 54.6247 0.0000 -22.3369 0.0000
# 3 28.3266 54.6247 101.6738 0.0000 -7.5183 0.0000
# 4 0.0000 0.0000 0.0000 94.6495 0.0000 -74.5759
# 5 3.5655 -22.3369 -7.5183 0.0000 40.5943 0.0000
# 6 0.0000 0.0000 0.0000 -74.5759 0.0000 52.1157
#
#
#
# Elastic Compliance Matrix: (Units=1/GPa)
#
#
# Indices 1 2 3 4 5 6 
#
# 1 0.019245 -0.000249 -0.005437 0.000000 -0.002835 0.000000
# 2 -0.000249 0.008959 -0.004438 0.000000 0.004130 0.000000
# 3 -0.005437 -0.004438 0.013778 0.000000 0.000587 0.000000
# 4 0.000000 0.000000 0.000000 -0.082877 0.000000 -0.118594
# 5 -0.002835 0.004130 0.000587 0.000000 0.027264 0.000000
# 6 0.000000 0.000000 0.000000 -0.118594 0.000000 -0.150516
#
#
# Mechanical properties :
#
#
# Convention : Reuss Voigt Hill
#
# Bulk Modulus (GPa) = 46.01483 56.19708 51.10596
# Shear Modulus (GPa) = -36.58946 51.78407 7.59731
#
# Velocity S-wave (km/s) = -3.80124 4.52215 1.73212
# Velocity P-wave (km/s) = 1.04610 7.03271 4.91756
#
# Compressibility (1/GPa) = 0.02173212
#
# Stress axis : x y z
#
# Youngs Moduli (GPa) = 51.96043 111.61803 72.57813
#
# Poissons Ratio (x) = 0.02784 0.39464
# Poissons Ratio (y) = 0.01296 0.32214
# Poissons Ratio (z) = 0.28253 0.49541
#
# Static dielectric constant tensor:
#      x y z
#    x 2.029430 0.000000 0.034850 
#    y 0.000000 2.059720 0.000000 
#    z 0.034850 0.000000 2.091080 
# 
# From -- ./inp_files/81980.got.cif
#   From: 2010.05.17/outbox.cif.g08.bks.cpg/sg15_41_cif.got.tgz:81980.got - 2010.06.03 18:47:42.
