data_PCOD9294807
_publ_section_title
;
Structure prediction by ZEFSAII (Michael W. Deem and Ramdas Pophale) SiO2 
 PCOD9294807
Probable space group: C 2/C
;
_chemical_formula_sum "Si O2"
_cell_formula_units_Z 56
_cell_length_a 27.743792
_cell_length_b 8.680963
_cell_length_c 17.762459
_cell_angle_alpha 90.000000
_cell_angle_beta 37.877616
_cell_angle_gamma 90.000000
_cell_volume 2626.569094
_symmetry_space_group_name_H-M "C 2/C"
_symmetry_group_IT_number 15
_symmetry_cell_setting 'monoclinic'
loop_
_space_group_symop_operation_xyz
x,y,z
-x,y,1/2-z
-x,-y,-z
x,-y,1/2+z
1/2+x,1/2+y,z
1/2-x,1/2+y,1/2-z
1/2-x,1/2-y,-z
1/2+x,1/2-y,1/2+z
loop_
_atom_site_type_symbol
_atom_site_label
_atom_site_fract_x
_atom_site_fract_y
_atom_site_fract_z
Si Si1 0.336231 0.113319 0.771798
Si Si2 0.431060 0.300215 0.276726
Si Si3 0.101563 0.430132 0.942416
Si Si4 0.735428 0.434063 0.667875
Si Si5 0.426964 0.386496 0.107202
Si Si6 0.230515 0.928140 0.010525
Si Si7 0.040032 0.548908 0.774071
O O1 0.291939 0.258514 0.794530
O O2 0.396485 0.155955 0.764205
O O3 0.387646 0.031086 0.645367
O O4 0.274593 0.996176 0.884698
O O5 0.500000 0.329775 0.250000
O O6 0.441366 0.329275 0.175094
O O7 0.362187 0.415051 0.386134
O O8 0.418479 0.114101 0.297688
O O9 0.184394 0.447676 0.884154
O O10 0.080226 0.257858 0.940705
O O11 0.031283 0.486873 0.081639
O O12 0.659363 0.532932 0.787557
O O13 0.749294 0.478501 0.563371
O O14 0.500000 0.500000 0.000000
O O15 0.250000 0.750000 0.000000
O O16 0.000000 0.617838 0.750000
#
# Coordination Sequence:
#
# PCOD9294807 Si02
#       7
#     8   8   8   8   8   8   8
#     4  12  23  43  70  98 133 178 226 285 344 410
#     4  10  23  41  66  99 129 181 229 271 343 411
#     4  12  25  43  68 100 137 179 234 287 348 417
#     4  11  26  42  65 102 135 183 229 282 355 416
#     4  11  24  46  66 100 144 180 230 292 350 414
#     4  11  22  44  66  94 138 174 226 285 342 419
#     4  11  23  42  68  98 128 175 228 279 341 415
#
# _framework density 21.320588000000001
#
# number of rings (size 3 to 8) (size 9 to 14) (size 15 to 20)
#    0.000    0.857    2.857    4.286    4.000    2.286 
#    0.000    5.000    0.000    0.000    0.000    0.000 
#    0.000    0.000    0.000    0.000    0.000    0.000 
#
# Total GULP energy -156520.056372 kJ/mol
# GULP energy per Si atom -5590.002013 kJ/mol
# Density = 2.127206 g / cm^3
# Si number density = 21.320588 Si / 1000 Ang^3
#
#
#
# Elastic Constant Matrix: (Units=GPa)
#
#
# Indices 1 2 3 4 5 6 
#
# 1 126.9931 0.2100 9.0796 0.0010 -26.9175 0.0012
# 2 0.2100 53.3959 3.9392 -0.0029 -2.8876 -0.0015
# 3 9.0796 3.9392 86.4834 0.0008 1.2069 -0.0015
# 4 0.0010 -0.0029 0.0008 16.9041 -0.0021 -4.9137
# 5 -26.9175 -2.8876 1.2069 -0.0021 28.0177 0.0016
# 6 0.0012 -0.0015 -0.0015 -4.9137 0.0016 30.7376
#
#
#
# Elastic Compliance Matrix: (Units=1/GPa)
#
#
# Indices 1 2 3 4 5 6 
#
# 1 0.010026 0.000577 -0.001215 0.000001 0.009744 -0.000001
# 2 0.000577 0.018934 -0.000959 0.000004 0.002547 0.000001
# 3 -0.001215 -0.000959 0.011759 -0.000001 -0.001772 0.000001
# 4 0.000001 0.000004 -0.000001 0.062040 0.000005 0.009918
# 5 0.009744 0.002547 -0.001772 0.000005 0.045392 -0.000002
# 6 -0.000001 0.000001 0.000001 0.009918 -0.000002 0.034119
#
#
# Mechanical properties :
#
#
# Convention : Reuss Voigt Hill
#
# Bulk Modulus (GPa) = 26.64805 32.59222 29.62014
# Shear Modulus (GPa) = 25.25629 32.04147 28.64888
#
# Velocity S-wave (km/s) = 3.44553 3.88086 3.66965
# Velocity P-wave (km/s) = 5.32492 5.94990 5.64606
#
# Compressibility (1/GPa) = 0.03752619
#
# Stress axis : x y z
#
# Youngs Moduli (GPa) = 99.74442 52.81443 85.04229
#
# Poissons Ratio (x) = -0.03048 0.10331
# Poissons Ratio (y) = -0.05757 0.08152
# Poissons Ratio (z) = 0.12117 0.05063
#
# Static dielectric constant tensor:
#      x y z
#    x 1.781450 0.000000 -0.041440 
#    y 0.000000 1.763050 0.000000 
#    z -0.041440 0.000000 1.822190 
# 
# From -- ./inp_files/222031.got.cif
#   From: 2010.05.17/outbox.cif.g08.bks.cpg/sg15_112_cif.got.tgz:222031.got - 2010.06.03 18:47:42.
