data_PCOD9294499
_publ_section_title
;
Structure prediction by ZEFSAII (Michael W. Deem and Ramdas Pophale) SiO2 
 PCOD9294499
Probable space group: C 2/C
;
_chemical_formula_sum "Si O2"
_cell_formula_units_Z 44
_cell_length_a 20.663500
_cell_length_b 11.932303
_cell_length_c 7.598836
_cell_angle_alpha 90.000000
_cell_angle_beta 97.649668
_cell_angle_gamma 90.000000
_cell_volume 1856.918883
_symmetry_space_group_name_H-M "C 2/C"
_symmetry_group_IT_number 15
_symmetry_cell_setting 'monoclinic'
loop_
_space_group_symop_operation_xyz
x,y,z
-x,y,1/2-z
-x,-y,-z
x,-y,1/2+z
1/2+x,1/2+y,z
1/2-x,1/2+y,1/2-z
1/2-x,1/2-y,-z
1/2+x,1/2-y,1/2+z
loop_
_atom_site_type_symbol
_atom_site_label
_atom_site_fract_x
_atom_site_fract_y
_atom_site_fract_z
Si Si1 0.217142 0.300044 0.216271
Si Si2 0.613997 0.360412 0.559309
Si Si3 0.000000 0.225923 0.250000
Si Si4 0.172047 0.676456 0.080152
Si Si5 0.464664 0.111629 0.418879
Si Si6 0.156310 0.091580 0.722225
O O1 0.157497 0.252919 0.084180
O O2 0.189535 0.351191 0.387022
O O3 0.261462 0.190964 0.285282
O O4 0.271878 0.385185 0.166097
O O5 0.553874 0.344555 0.666940
O O6 0.650236 0.471067 0.639581
O O7 0.602330 0.383950 0.350379
O O8 0.028557 0.303502 0.415498
O O9 0.113590 0.603275 0.135967
O O10 0.150759 0.808727 0.077986
O O11 0.500000 0.145795 0.250000
O O12 0.500000 0.000000 0.500000
#
# Coordination Sequence:
#
# PCOD9294499 Si02
#       6
#     8   8   4   8   8   8
#     4   9  20  43  67  93 133 170 219 281 325 399
#     4  12  23  44  65 102 134 176 231 268 345 396
#     4  12  28  46  72  96 140 182 224 286 324 422
#     4   9  20  44  68  93 134 175 217 280 330 393
#     4  12  25  49  70 101 138 175 229 276 345 408
#     4  10  23  40  67 101 132 179 219 283 334 399
#
# _framework density 23.695164999999999
#
# number of rings (size 3 to 8) (size 9 to 14) (size 15 to 20)
#    1.091    0.364    2.727    2.727    0.000    0.727 
#    8.182    0.000    0.000    0.000    0.000    0.000 
#    0.000    0.000    0.000    0.000    0.000    0.000 
#
# Total GULP energy -122789.722986 kJ/mol
# GULP energy per Si atom -5581.351045 kJ/mol
# Density = 2.364123 g / cm^3
# Si number density = 23.695165 Si / 1000 Ang^3
#
#
#
# Elastic Constant Matrix: (Units=GPa)
#
#
# Indices 1 2 3 4 5 6 
#
# 1 89.7796 20.7119 21.2536 0.0000 -34.7121 0.0000
# 2 20.7119 65.7396 0.2222 0.0000 -10.4189 0.0000
# 3 21.2536 0.2222 104.3417 0.0000 -42.1555 0.0000
# 4 0.0000 0.0000 0.0000 13.0860 0.0000 -5.6777
# 5 -34.7121 -10.4189 -42.1555 0.0000 45.0995 0.0000
# 6 0.0000 0.0000 0.0000 -5.6777 0.0000 13.4768
#
#
#
# Elastic Compliance Matrix: (Units=1/GPa)
#
#
# Indices 1 2 3 4 5 6 
#
# 1 0.016903 -0.003016 0.002471 0.000000 0.014623 0.000000
# 2 -0.003016 0.016683 0.001925 0.000000 0.003332 0.000000
# 3 0.002471 0.001925 0.016107 0.000000 0.017403 0.000000
# 4 0.000000 0.000000 0.000000 0.093511 0.000000 0.039396
# 5 0.014623 0.003332 0.017403 0.000000 0.050465 0.000000
# 6 0.000000 0.000000 0.000000 0.039396 0.000000 0.090799
#
#
# Mechanical properties :
#
#
# Convention : Reuss Voigt Hill
#
# Bulk Modulus (GPa) = 19.06434 38.24848 28.65641
# Shear Modulus (GPa) = 16.71166 28.84401 22.77783
#
# Velocity S-wave (km/s) = 2.65859 3.49276 3.10383
# Velocity P-wave (km/s) = 4.18177 5.69586 4.99650
#
# Compressibility (1/GPa) = 0.05245395
#
# Stress axis : x y z
#
# Youngs Moduli (GPa) = 59.16112 59.93982 62.08350
#
# Poissons Ratio (x) = 0.18079 -0.15343
# Poissons Ratio (y) = 0.17845 -0.11951
# Poissons Ratio (z) = -0.14621 -0.11539
#
# Static dielectric constant tensor:
#      x y z
#    x 2.031210 0.000000 0.028990 
#    y 0.000000 1.855910 0.000000 
#    z 0.028990 0.000000 1.908920 
# 
# From -- ./inp_files/54415.got.cif
#   From: 2010.05.17/outbox.cif.g08.bks.cpg/sg15_28_cif.got.tgz:54415.got - 2010.06.03 18:47:42.
