data_PCOD9294668
_publ_section_title
;
Structure prediction by ZEFSAII (Michael W. Deem and Ramdas Pophale) SiO2 
 PCOD9294668
Probable space group: C 2/C
;
_chemical_formula_sum "Si O2"
_cell_formula_units_Z 48
_cell_length_a 11.435535
_cell_length_b 14.729716
_cell_length_c 14.903507
_cell_angle_alpha 90.000000
_cell_angle_beta 85.687990
_cell_angle_gamma 90.000000
_cell_volume 2503.273359
_symmetry_space_group_name_H-M "C 2/C"
_symmetry_group_IT_number 15
_symmetry_cell_setting 'monoclinic'
loop_
_space_group_symop_operation_xyz
x,y,z
-x,y,1/2-z
-x,-y,-z
x,-y,1/2+z
1/2+x,1/2+y,z
1/2-x,1/2+y,1/2-z
1/2-x,1/2-y,-z
1/2+x,1/2-y,1/2+z
loop_
_atom_site_type_symbol
_atom_site_label
_atom_site_fract_x
_atom_site_fract_y
_atom_site_fract_z
Si Si1 0.640658 0.776451 0.235353
Si Si2 0.260881 0.540247 0.655017
Si Si3 0.256604 0.688077 0.913440
Si Si4 0.522040 0.573882 0.643962
Si Si5 0.798276 0.920570 0.833496
Si Si6 0.637351 0.007026 0.980375
O O1 0.500000 0.786840 0.250000
O O2 0.696578 0.867259 0.189344
O O3 0.706061 0.765823 0.327285
O O4 0.668128 0.683383 0.181966
O O5 0.392208 0.564114 0.613706
O O6 0.269438 0.472314 0.740478
O O7 0.194245 0.497898 0.575162
O O8 0.388534 0.649533 0.895901
O O9 0.174500 0.600962 0.932805
O O10 0.250000 0.750000 0.000000
O O11 0.500000 0.593993 0.750000
O O12 0.591703 0.478698 0.635156
O O13 0.692969 0.932621 0.910163
O O14 0.500000 0.000000 0.000000
#
# Coordination Sequence:
#
# PCOD9294668 Si02
#       6
#     8   8   8   8   8   8
#     4  12  23  39  66  93 129 170 213 263 328 384
#     4  11  22  40  68  86 126 173 202 268 327 369
#     4  11  23  40  63  94 127 164 217 267 315 383
#     4   9  18  41  62  86 126 159 213 260 310 383
#     4  10  23  41  63  93 126 164 216 263 313 390
#     4  11  24  42  60  92 130 167 210 262 324 388
#
# _framework density 19.174893000000001
#
# number of rings (size 3 to 8) (size 9 to 14) (size 15 to 20)
#    0.000    1.333    5.000    3.500    0.000    6.000 
#    0.000    0.000    0.000    0.000    0.000    0.000 
#    0.000    0.000    0.000    0.000    0.000    0.000 
#
# Total GULP energy -134036.364769 kJ/mol
# GULP energy per Si atom -5584.848532 kJ/mol
# Density = 1.913125 g / cm^3
# Si number density = 19.174893 Si / 1000 Ang^3
#
#
#
# Elastic Constant Matrix: (Units=GPa)
#
#
# Indices 1 2 3 4 5 6 
#
# 1 154.2249 10.0563 16.5862 0.0000 -13.3319 0.0000
# 2 10.0563 61.4809 -12.7074 0.0000 -13.8193 0.0000
# 3 16.5862 -12.7074 36.6934 0.0000 -6.6739 0.0000
# 4 0.0000 0.0000 0.0000 27.8828 0.0000 -3.2065
# 5 -13.3319 -13.8193 -6.6739 0.0000 35.1542 0.0000
# 6 0.0000 0.0000 0.0000 -3.2065 0.0000 10.4118
#
#
#
# Elastic Compliance Matrix: (Units=1/GPa)
#
#
# Indices 1 2 3 4 5 6 
#
# 1 0.007083 -0.001562 -0.003486 0.000000 0.001410 0.000000
# 2 -0.001562 0.020582 0.009527 0.000000 0.009307 0.000000
# 3 -0.003486 0.009527 0.033733 0.000000 0.008827 0.000000
# 4 0.000000 0.000000 0.000000 0.037181 0.000000 0.011451
# 5 0.001410 0.009307 0.008827 0.000000 0.034315 0.000000
# 6 0.000000 0.000000 0.000000 0.011451 0.000000 0.099572
#
#
# Mechanical properties :
#
#
# Convention : Reuss Voigt Hill
#
# Bulk Modulus (GPa) = 14.21369 31.14103 22.67736
# Shear Modulus (GPa) = 20.24617 30.58736 25.41676
#
# Velocity S-wave (km/s) = 3.25294 3.99830 3.64472
# Velocity P-wave (km/s) = 4.64086 6.13115 5.43730
#
# Compressibility (1/GPa) = 0.07035472
#
# Stress axis : x y z
#
# Youngs Moduli (GPa) = 141.18916 48.58685 29.64432
#
# Poissons Ratio (x) = 0.07589 0.10334
# Poissons Ratio (y) = 0.22054 -0.28241
# Poissons Ratio (z) = 0.49218 -0.46287
#
# Static dielectric constant tensor:
#      x y z
#    x 1.683880 0.000000 0.003020 
#    y 0.000000 1.661580 0.000000 
#    z 0.003020 0.000000 1.691740 
# 
# From -- ./inp_files/143654.got.cif
#   From: 2010.05.17/outbox.cif.g08.bks.cpg/sg15_72_cif.got.tgz:143654.got - 2010.06.03 18:47:42.
