data_PCOD9294428
_publ_section_title
;
Structure prediction by ZEFSAII (Michael W. Deem and Ramdas Pophale) SiO2 
 PCOD9294428
Probable space group: C 2/C
;
_chemical_formula_sum "Si O2"
_cell_formula_units_Z 48
_cell_length_a 14.989465
_cell_length_b 9.649806
_cell_length_c 21.676066
_cell_angle_alpha 90.000000
_cell_angle_beta 142.332846
_cell_angle_gamma 90.000000
_cell_volume 1915.925097
_symmetry_space_group_name_H-M "C 2/C"
_symmetry_group_IT_number 15
_symmetry_cell_setting 'monoclinic'
loop_
_space_group_symop_operation_xyz
x,y,z
-x,y,1/2-z
-x,-y,-z
x,-y,1/2+z
1/2+x,1/2+y,z
1/2-x,1/2+y,1/2-z
1/2-x,1/2-y,-z
1/2+x,1/2-y,1/2+z
loop_
_atom_site_type_symbol
_atom_site_label
_atom_site_fract_x
_atom_site_fract_y
_atom_site_fract_z
Si Si1 0.073342 0.398274 0.597761
Si Si2 0.257879 0.431125 0.476199
Si Si3 0.038402 0.109855 0.969518
Si Si4 0.822534 0.208008 0.753041
Si Si5 0.013591 0.317035 0.403735
Si Si6 0.834522 0.990961 0.659800
O O1 0.106006 0.352757 0.686992
O O2 0.005672 0.455392 0.442219
O O3 0.226293 0.408446 0.645943
O O4 0.979346 0.269108 0.521891
O O5 0.300361 0.567311 0.462461
O O6 0.094678 0.372587 0.386152
O O7 0.375410 0.310850 0.521782
O O8 0.288172 0.473965 0.563731
O O9 0.920366 0.102139 0.848905
O O10 0.000000 0.000000 0.000000
O O11 0.656850 0.218845 0.687364
O O12 0.832522 0.144183 0.690462
O O13 0.000000 0.939896 0.750000
#
# Coordination Sequence:
#
# PCOD9294428 Si02
#       6
#     8   8   8   8   8   8
#     4   9  22  40  65  93 136 176 213 280 334 405
#     4  11  24  41  70  98 135 171 228 282 329 414
#     4  10  23  43  63  95 133 183 218 282 341 393
#     4   9  21  39  65  93 136 172 219 273 343 396
#     4  10  23  40  65 103 131 170 227 273 341 401
#     4  11  19  39  67  99 124 170 221 272 328 396
#
# _framework density 25.053170999999999
#
# number of rings (size 3 to 8) (size 9 to 14) (size 15 to 20)
#    1.000    1.000    1.667    1.000    7.000    3.333 
#    0.000    0.833    0.000   11.000    0.000    0.000 
#    0.000    0.000    0.000    0.000    0.000    0.000 
#
# Total GULP energy -133806.006019 kJ/mol
# GULP energy per Si atom -5575.250251 kJ/mol
# Density = 2.499615 g / cm^3
# Si number density = 25.053171 Si / 1000 Ang^3
#
#
#
# Elastic Constant Matrix: (Units=GPa)
#
#
# Indices 1 2 3 4 5 6 
#
# 1 110.4160 63.9758 12.7827 0.0000 17.7323 0.0000
# 2 63.9758 147.9700 20.7688 0.0000 -1.4576 0.0000
# 3 12.7827 20.7688 54.8832 0.0000 13.7718 0.0000
# 4 0.0000 0.0000 0.0000 33.4798 0.0000 -5.4499
# 5 17.7323 -1.4576 13.7718 0.0000 51.0700 0.0000
# 6 0.0000 0.0000 0.0000 -5.4499 0.0000 48.1360
#
#
#
# Elastic Compliance Matrix: (Units=1/GPa)
#
#
# Indices 1 2 3 4 5 6 
#
# 1 0.013137 -0.005774 0.000334 0.000000 -0.004816 0.000000
# 2 -0.005774 0.009723 -0.003118 0.000000 0.003123 0.000000
# 3 0.000334 -0.003118 0.020780 0.000000 -0.005809 0.000000
# 4 0.000000 0.000000 0.000000 0.030430 0.000000 0.003445
# 5 -0.004816 0.003123 -0.005809 0.000000 0.022909 0.000000
# 6 0.000000 0.000000 0.000000 0.003445 0.000000 0.021165
#
#
# Mechanical properties :
#
#
# Convention : Reuss Voigt Hill
#
# Bulk Modulus (GPa) = 37.70270 56.48043 47.09157
# Shear Modulus (GPa) = 34.69773 40.91996 37.80884
#
# Velocity S-wave (km/s) = 3.72555 4.04583 3.88898
# Velocity P-wave (km/s) = 5.79552 6.66469 6.24524
#
# Compressibility (1/GPa) = 0.02652330
#
# Stress axis : x y z
#
# Youngs Moduli (GPa) = 76.12032 102.84800 48.12246
#
# Poissons Ratio (x) = 0.59387 -0.01607
# Poissons Ratio (y) = 0.43954 0.15006
# Poissons Ratio (z) = -0.02541 0.32071
#
# Static dielectric constant tensor:
#      x y z
#    x 2.024080 0.000000 -0.036560 
#    y 0.000000 2.034740 0.000000 
#    z -0.036560 0.000000 2.053520 
# 
# From -- ./inp_files/274069.got.cif
#   From: 2010.05.17/outbox.cif.g08.bks.cpg/sg15_138_cif.got.tgz:274069.got - 2010.06.03 18:47:42.
