data_PCOD9294272
_publ_section_title
;
Structure prediction by ZEFSAII (Michael W. Deem and Ramdas Pophale) SiO2 
 PCOD9294272
Probable space group: C 2/C
;
_chemical_formula_sum "Si O2"
_cell_formula_units_Z 60
_cell_length_a 14.456548
_cell_length_b 28.114350
_cell_length_c 14.571601
_cell_angle_alpha 90.000000
_cell_angle_beta 151.081389
_cell_angle_gamma 90.000000
_cell_volume 2863.889999
_symmetry_space_group_name_H-M "C 2/C"
_symmetry_group_IT_number 15
_symmetry_cell_setting 'monoclinic'
loop_
_space_group_symop_operation_xyz
x,y,z
-x,y,1/2-z
-x,-y,-z
x,-y,1/2+z
1/2+x,1/2+y,z
1/2-x,1/2+y,1/2-z
1/2-x,1/2-y,-z
1/2+x,1/2-y,1/2+z
loop_
_atom_site_type_symbol
_atom_site_label
_atom_site_fract_x
_atom_site_fract_y
_atom_site_fract_z
Si Si1 0.349643 0.608539 0.373735
Si Si2 0.076558 0.189581 0.478590
Si Si3 0.500000 0.572555 0.250000
Si Si4 0.371919 0.484320 0.803446
Si Si5 0.522901 0.158709 0.375360
Si Si6 0.645925 0.581545 0.791787
Si Si7 0.814252 0.652480 0.526187
Si Si8 0.945468 0.292575 0.411788
O O1 0.450505 0.643215 0.387911
O O2 0.264234 0.561397 0.251119
O O3 0.513481 0.597645 0.591212
O O4 0.176612 0.634114 0.272993
O O5 0.179252 0.187361 0.469141
O O6 0.964341 0.238122 0.397515
O O7 0.244775 0.188876 0.699554
O O8 0.492467 0.538849 0.155532
O O9 0.688083 0.605307 0.407508
O O10 0.273313 0.530030 0.671465
O O11 0.500000 0.500000 0.000000
O O12 0.500000 0.174310 0.250000
O O13 0.693620 0.120222 0.540799
O O14 0.545576 0.199659 0.471747
O O15 0.500000 0.574849 0.750000
O O16 0.893944 0.677268 0.503824
O O17 0.000000 0.642692 0.750000
#
# Coordination Sequence:
#
# PCOD9294272 Si02
#       8
#     8   8   4   8   8   8   8   8
#     4  11  22  43  66  94 131 171 215 278 332 390
#     4  11  22  42  67  96 139 172 218 273 331 401
#     4  12  20  40  66  94 130 174 208 276 324 388
#     4  10  23  39  68  95 129 170 218 268 337 395
#     4  12  25  42  68  95 130 180 229 273 331 390
#     4  11  22  44  67  92 128 173 222 276 333 394
#     4  10  24  40  65  99 134 172 217 268 330 398
#     4  11  24  41  64 101 133 179 222 275 326 400
#
# _framework density 20.950524999999999
#
# number of rings (size 3 to 8) (size 9 to 14) (size 15 to 20)
#    0.000    1.067    4.667    2.000    1.867    0.533 
#    0.000    6.667    0.000    0.000    0.000    0.000 
#    0.000    0.000    0.000    0.000    0.000    0.000 
#
# Total GULP energy -167552.636029 kJ/mol
# GULP energy per Si atom -5585.087868 kJ/mol
# Density = 2.090284 g / cm^3
# Si number density = 20.950525 Si / 1000 Ang^3
#
#
#
# Elastic Constant Matrix: (Units=GPa)
#
#
# Indices 1 2 3 4 5 6 
#
# 1 95.3345 15.2045 27.5454 -0.0001 -15.9792 0.0000
# 2 15.2045 75.9538 26.1911 0.0000 -1.4644 0.0000
# 3 27.5454 26.1911 98.3960 0.0001 -11.1564 0.0001
# 4 -0.0001 0.0000 0.0001 9.5950 0.0000 -9.8013
# 5 -15.9792 -1.4644 -11.1564 0.0000 34.0207 0.0000
# 6 0.0000 0.0000 0.0001 -9.8013 0.0000 27.4848
#
#
#
# Elastic Compliance Matrix: (Units=1/GPa)
#
#
# Indices 1 2 3 4 5 6 
#
# 1 0.012264 -0.001506 -0.002479 0.000000 0.004883 0.000000
# 2 -0.001506 0.014696 -0.003634 0.000000 -0.001266 0.000000
# 3 -0.002479 -0.003634 0.012125 0.000000 0.002656 0.000000
# 4 0.000000 0.000000 0.000000 0.163939 0.000000 0.058462
# 5 0.004883 -0.001266 0.002656 0.000000 0.032504 0.000000
# 6 0.000000 0.000000 0.000000 0.058462 0.000000 0.057232
#
#
# Mechanical properties :
#
#
# Convention : Reuss Voigt Hill
#
# Bulk Modulus (GPa) = 41.93206 45.28515 43.60861
# Shear Modulus (GPa) = 15.82546 27.60300 21.71423
#
# Velocity S-wave (km/s) = 2.75139 3.63372 3.22289
# Velocity P-wave (km/s) = 5.49106 6.26637 5.89149
#
# Compressibility (1/GPa) = 0.02384810
#
# Stress axis : x y z
#
# Youngs Moduli (GPa) = 81.53816 68.04573 82.47245
#
# Poissons Ratio (x) = 0.10249 0.20443
# Poissons Ratio (y) = 0.12281 0.29968
# Poissons Ratio (z) = 0.20211 0.24726
#
# Static dielectric constant tensor:
#      x y z
#    x 1.750830 0.000000 -0.036230 
#    y 0.000000 1.786490 0.000000 
#    z -0.036230 0.000000 1.756930 
# 
# From -- ./inp_files/157322.got.cif
#   From: 2010.05.17/outbox.cif.g08.bks.cpg/sg15_79_cif.got.tgz:157322.got - 2010.06.03 18:47:42.
