data_PCOD9294557
_publ_section_title
;
Structure prediction by ZEFSAII (Michael W. Deem and Ramdas Pophale) SiO2 
 PCOD9294557
Probable space group: C 2/C
;
_chemical_formula_sum "Si O2"
_cell_formula_units_Z 44
_cell_length_a 7.765825
_cell_length_b 17.984685
_cell_length_c 18.063138
_cell_angle_alpha 90.000000
_cell_angle_beta 50.058416
_cell_angle_gamma 90.000000
_cell_volume 1934.232866
_symmetry_space_group_name_H-M "C 2/C"
_symmetry_group_IT_number 15
_symmetry_cell_setting 'monoclinic'
loop_
_space_group_symop_operation_xyz
x,y,z
-x,y,1/2-z
-x,-y,-z
x,-y,1/2+z
1/2+x,1/2+y,z
1/2-x,1/2+y,1/2-z
1/2-x,1/2-y,-z
1/2+x,1/2-y,1/2+z
loop_
_atom_site_type_symbol
_atom_site_label
_atom_site_fract_x
_atom_site_fract_y
_atom_site_fract_z
Si Si1 0.761083 0.164725 0.848754
Si Si2 0.409214 0.127285 0.356822
Si Si3 0.250000 0.250000 0.500000
Si Si4 0.619945 0.366701 0.507608
Si Si5 0.992519 0.481190 0.088269
Si Si6 0.611665 0.743200 0.138581
O O1 0.700360 0.079590 0.847513
O O2 0.577435 0.215845 0.858865
O O3 0.000000 0.181425 0.750000
O O4 0.744003 0.182471 0.939718
O O5 0.500000 0.137718 0.250000
O O6 0.425995 0.202353 0.398529
O O7 0.139915 0.114772 0.428292
O O8 0.526489 0.056307 0.360575
O O9 0.781226 0.436243 0.452120
O O10 0.662592 0.330965 0.577315
O O11 0.678175 0.300741 0.431702
O O12 0.000000 0.500000 0.000000
O O13 0.500000 0.733721 0.250000
#
# Coordination Sequence:
#
# PCOD9294557 Si02
#       6
#     8   8   4   8   8   8
#     4  11  25  43  74 105 138 192 236 289 365 425
#     4  12  27  46  74 104 141 188 242 295 362 432
#     4  12  24  46  76 102 148 178 248 300 354 430
#     4  10  24  43  65 102 138 185 229 291 363 412
#     4  11  25  46  67  98 143 187 231 295 357 428
#     4  10  23  40  69 107 141 177 240 294 354 430
#
# _framework density 22.748035999999999
#
# number of rings (size 3 to 8) (size 9 to 14) (size 15 to 20)
#    0.000    1.091    3.636    1.091    2.545    5.818 
#    0.000    0.000    0.000    0.000    0.000    0.000 
#    0.000    0.000    0.000    0.000    0.000    0.000 
#
# Total GULP energy -122723.336384 kJ/mol
# GULP energy per Si atom -5578.333472 kJ/mol
# Density = 2.269626 g / cm^3
# Si number density = 22.748036 Si / 1000 Ang^3
#
#
#
# Elastic Constant Matrix: (Units=GPa)
#
#
# Indices 1 2 3 4 5 6 
#
# 1 48.2039 22.6370 27.0569 0.0000 6.2840 0.0000
# 2 22.6370 132.3245 38.0522 0.0000 9.4326 0.0000
# 3 27.0569 38.0522 171.2208 0.0000 23.9706 0.0000
# 4 0.0000 0.0000 0.0000 9.0779 0.0000 4.8244
# 5 6.2840 9.4326 23.9706 0.0000 35.3579 0.0000
# 6 0.0000 0.0000 0.0000 4.8244 0.0000 29.3541
#
#
#
# Elastic Compliance Matrix: (Units=1/GPa)
#
#
# Indices 1 2 3 4 5 6 
#
# 1 0.024051 -0.003179 -0.002889 0.000000 -0.001468 0.000000
# 2 -0.003179 0.008528 -0.001274 0.000000 -0.000846 0.000000
# 3 -0.002889 -0.001274 0.007138 0.000000 -0.003986 0.000000
# 4 0.000000 0.000000 0.000000 0.120700 0.000000 -0.019837
# 5 -0.001468 -0.000846 -0.003986 0.000000 0.031471 0.000000
# 6 0.000000 0.000000 0.000000 -0.019837 0.000000 0.037327
#
#
# Mechanical properties :
#
#
# Convention : Reuss Voigt Hill
#
# Bulk Modulus (GPa) = 39.94782 58.58237 49.26510
# Shear Modulus (GPa) = 19.82215 32.35819 26.09017
#
# Velocity S-wave (km/s) = 2.95511 3.77564 3.39029
# Velocity P-wave (km/s) = 5.40765 6.69447 6.08517
#
# Compressibility (1/GPa) = 0.02503265
#
# Stress axis : x y z
#
# Youngs Moduli (GPa) = 41.57854 117.26321 140.09309
#
# Poissons Ratio (x) = 0.37279 0.40466
# Poissons Ratio (y) = 0.13218 0.17854
# Poissons Ratio (z) = 0.12010 0.14944
#
# Static dielectric constant tensor:
#      x y z
#    x 1.892250 0.000000 0.014750 
#    y 0.000000 1.893420 0.000000 
#    z 0.014750 0.000000 1.784170 
# 
# From -- ./inp_files/190785.got.cif
#   From: 2010.05.17/outbox.cif.g08.bks.cpg/sg15_96_cif.got.tgz:190785.got - 2010.06.03 18:47:42.
