data_PCOD9294889
_publ_section_title
;
Structure prediction by ZEFSAII (Michael W. Deem and Ramdas Pophale) SiO2 
 PCOD9294889
Probable space group: C 2/C
;
_chemical_formula_sum "Si O2"
_cell_formula_units_Z 44
_cell_length_a 23.877142
_cell_length_b 18.259741
_cell_length_c 14.530217
_cell_angle_alpha 90.000000
_cell_angle_beta 160.524506
_cell_angle_gamma 90.000000
_cell_volume 2112.123979
_symmetry_space_group_name_H-M "C 2/C"
_symmetry_group_IT_number 15
_symmetry_cell_setting 'monoclinic'
loop_
_space_group_symop_operation_xyz
x,y,z
-x,y,1/2-z
-x,-y,-z
x,-y,1/2+z
1/2+x,1/2+y,z
1/2-x,1/2+y,1/2-z
1/2-x,1/2-y,-z
1/2+x,1/2-y,1/2+z
loop_
_atom_site_type_symbol
_atom_site_label
_atom_site_fract_x
_atom_site_fract_y
_atom_site_fract_z
Si Si1 0.646914 0.927018 0.397321
Si Si2 0.000000 0.311144 0.750000
Si Si3 0.538942 0.645450 0.014416
Si Si4 0.759263 0.815911 0.840688
Si Si5 0.180189 0.594827 0.399041
Si Si6 0.914885 0.286083 0.298075
O O1 0.500000 0.921337 0.250000
O O2 0.825663 0.901333 0.717790
O O3 0.620860 0.872240 0.270187
O O4 0.653889 0.008924 0.369950
O O5 0.844979 0.256093 0.513249
O O6 0.979259 0.363877 0.804225
O O7 0.609075 0.644500 0.020076
O O8 0.548757 0.731316 0.060291
O O9 0.350181 0.615298 0.719644
O O10 0.704430 0.870577 0.836086
O O11 0.598529 0.786490 0.534273
O O12 0.750000 0.250000 0.000000
#
# Coordination Sequence:
#
# PCOD9294889 Si02
#       6
#     8   4   8   8   8   8
#     4  11  23  43  64  95 136 176 216 274 338 397
#     4  12  22  38  64 100 126 168 222 276 330 388
#     4  11  22  43  68  92 132 176 218 278 332 397
#     4  12  22  40  69  96 130 168 224 276 325 393
#     4  12  24  40  67  99 133 171 222 277 339 390
#     4  10  23  41  68  94 125 178 221 263 329 403
#
# _framework density 20.832111000000001
#
# number of rings (size 3 to 8) (size 9 to 14) (size 15 to 20)
#    0.000    0.727    6.364    2.182    0.000    0.727 
#    0.000    0.000    8.000    0.000    0.000    0.000 
#    0.000    0.000    0.000    0.000    0.000    0.000 
#
# Total GULP energy -122512.748567 kJ/mol
# GULP energy per Si atom -5568.761299 kJ/mol
# Density = 2.078470 g / cm^3
# Si number density = 20.832111 Si / 1000 Ang^3
#
#
#
# Elastic Constant Matrix: (Units=GPa)
#
#
# Indices 1 2 3 4 5 6 
#
# 1 77.9055 57.0264 -10.1017 0.0000 9.1043 0.0000
# 2 57.0264 200.3096 33.4019 0.0000 -4.0009 0.0000
# 3 -10.1017 33.4019 103.4200 0.0000 -1.4345 0.0000
# 4 0.0000 0.0000 0.0000 20.1162 0.0000 5.0722
# 5 9.1043 -4.0009 -1.4345 0.0000 21.9691 0.0000
# 6 0.0000 0.0000 0.0000 5.0722 0.0000 23.2477
#
#
#
# Elastic Compliance Matrix: (Units=1/GPa)
#
#
# Indices 1 2 3 4 5 6 
#
# 1 0.018837 -0.006154 0.003707 0.000000 -0.008685 0.000000
# 2 -0.006154 0.007303 -0.002909 0.000000 0.003690 0.000000
# 3 0.003707 -0.002909 0.010952 0.000000 -0.001351 0.000000
# 4 0.000000 0.000000 0.000000 0.052605 0.000000 -0.011477
# 5 -0.008685 0.003690 -0.001351 0.000000 0.049701 0.000000
# 6 0.000000 0.000000 0.000000 -0.011477 0.000000 0.045519
#
#
# Mechanical properties :
#
#
# Convention : Reuss Voigt Hill
#
# Bulk Modulus (GPa) = 37.90732 60.25425 49.08079
# Shear Modulus (GPa) = 24.45916 33.15384 28.80650
#
# Velocity S-wave (km/s) = 3.43024 3.99366 3.72263
# Velocity P-wave (km/s) = 5.82450 7.08889 6.48757
#
# Compressibility (1/GPa) = 0.02638013
#
# Stress axis : x y z
#
# Youngs Moduli (GPa) = 53.08827 136.92898 91.30689
#
# Poissons Ratio (x) = 0.84269 -0.33848
# Poissons Ratio (y) = 0.32672 0.26558
# Poissons Ratio (z) = -0.19680 0.39828
#
# Static dielectric constant tensor:
#      x y z
#    x 1.760370 0.000000 -0.030830 
#    y 0.000000 1.738990 0.000000 
#    z -0.030830 0.000000 2.187480 
# 
# From -- ./inp_files/174278.got.cif
#   From: 2010.05.17/outbox.cif.g08.bks.cpg/sg15_88_cif.got.tgz:174278.got - 2010.06.03 18:47:42.
