data_PCOD9294360
_publ_section_title
;
Structure prediction by ZEFSAII (Michael W. Deem and Ramdas Pophale) SiO2 
 PCOD9294360
Probable space group: C 2/C
;
_chemical_formula_sum "Si O2"
_cell_formula_units_Z 64
_cell_length_a 12.008637
_cell_length_b 12.853087
_cell_length_c 27.745279
_cell_angle_alpha 90.000000
_cell_angle_beta 140.559940
_cell_angle_gamma 90.000000
_cell_volume 2720.501958
_symmetry_space_group_name_H-M "C 2/C"
_symmetry_group_IT_number 15
_symmetry_cell_setting 'monoclinic'
loop_
_space_group_symop_operation_xyz
x,y,z
-x,y,1/2-z
-x,-y,-z
x,-y,1/2+z
1/2+x,1/2+y,z
1/2-x,1/2+y,1/2-z
1/2-x,1/2-y,-z
1/2+x,1/2-y,1/2+z
loop_
_atom_site_type_symbol
_atom_site_label
_atom_site_fract_x
_atom_site_fract_y
_atom_site_fract_z
Si Si1 0.561237 0.783154 0.956966
Si Si2 0.510471 0.991418 0.198625
Si Si3 0.880089 0.700608 0.301321
Si Si4 0.115521 0.699944 0.012285
Si Si5 0.226907 0.410767 0.460807
Si Si6 0.005631 0.050171 0.555122
Si Si7 0.486200 0.351760 0.688799
Si Si8 0.615659 0.442303 0.194896
O O1 0.445737 0.833876 0.876595
O O2 0.536094 0.831972 0.000913
O O3 0.470596 0.672074 0.938503
O O4 0.750000 0.750000 0.000000
O O5 0.500000 0.956164 0.250000
O O6 0.522840 0.116999 0.199942
O O7 0.352604 0.940011 0.116988
O O8 0.679977 0.953322 0.225973
O O9 0.669068 0.691662 0.227163
O O10 0.934905 0.821694 0.316215
O O11 0.129247 0.818594 0.996853
O O12 0.306634 0.683271 0.102523
O O13 0.100702 0.631226 0.959547
O O14 0.312313 0.516828 0.508582
O O15 0.116051 0.017985 0.638730
O O16 0.000000 0.000000 0.500000
O O17 0.500000 0.324316 0.750000
O O18 0.502951 0.476154 0.687046
#
# Coordination Sequence:
#
# PCOD9294360 Si02
#       8
#     8   8   8   8   8   8   8   8
#     4  11  23  40  63  97 137 182 220 272 343 410
#     4  11  24  42  67 100 132 174 228 280 335 410
#     4  10  23  42  64  95 133 174 225 276 340 401
#     4  11  23  41  67 103 138 174 227 292 339 407
#     4  11  23  41  67 103 133 173 231 282 346 400
#     4  11  20  38  64  91 127 172 221 272 332 397
#     4  11  21  40  69  94 126 174 227 275 337 401
#     4  10  23  40  62  95 131 170 217 278 336 403
#
# _framework density 23.525069999999999
#
# number of rings (size 3 to 8) (size 9 to 14) (size 15 to 20)
#    0.000    1.250    3.750    2.250    1.750    1.500 
#    0.000    7.500    0.000    0.000    0.000    0.000 
#    0.000    0.000    0.000    0.000    0.000    0.000 
#
# Total GULP energy -178451.602642 kJ/mol
# GULP energy per Si atom -5576.612583 kJ/mol
# Density = 2.347153 g / cm^3
# Si number density = 23.525070 Si / 1000 Ang^3
#
#
#
# Elastic Constant Matrix: (Units=GPa)
#
#
# Indices 1 2 3 4 5 6 
#
# 1 89.5250 2.1655 15.4547 0.0000 -9.9750 0.0000
# 2 2.1655 87.8943 6.0184 0.0000 -8.7025 0.0000
# 3 15.4547 6.0184 82.2922 0.0000 -6.7032 0.0000
# 4 0.0000 0.0000 0.0000 25.9437 0.0000 -6.3044
# 5 -9.9750 -8.7025 -6.7032 0.0000 33.3878 0.0000
# 6 0.0000 0.0000 0.0000 -6.3044 0.0000 26.9519
#
#
#
# Elastic Compliance Matrix: (Units=1/GPa)
#
#
# Indices 1 2 3 4 5 6 
#
# 1 0.011863 0.000159 -0.001980 0.000000 0.003188 0.000000
# 2 0.000159 0.011712 -0.000644 0.000000 0.002971 0.000000
# 3 -0.001980 -0.000644 0.012717 0.000000 0.001794 0.000000
# 4 0.000000 0.000000 0.000000 0.040868 0.000000 0.009560
# 5 0.003188 0.002971 0.001794 0.000000 0.032038 0.000000
# 6 0.000000 0.000000 0.000000 0.009560 0.000000 0.039339
#
#
# Mechanical properties :
#
#
# Convention : Reuss Voigt Hill
#
# Bulk Modulus (GPa) = 31.88659 34.10985 32.99822
# Shear Modulus (GPa) = 30.50240 32.99486 31.74863
#
# Velocity S-wave (km/s) = 3.60473 3.74911 3.67763
# Velocity P-wave (km/s) = 5.55960 5.76819 5.66485
#
# Compressibility (1/GPa) = 0.03136115
#
# Stress axis : x y z
#
# Youngs Moduli (GPa) = 84.29402 85.38506 78.63566
#
# Poissons Ratio (x) = -0.01357 0.15569
# Poissons Ratio (y) = -0.01340 0.05067
# Poissons Ratio (z) = 0.16689 0.05502
#
# Static dielectric constant tensor:
#      x y z
#    x 2.058230 0.000000 0.053040 
#    y 0.000000 1.932950 0.000000 
#    z 0.053040 0.000000 1.967820 
# 
# From -- ./inp_files/293076.got.cif
#   From: 2010.05.17/outbox.cif.g08.bks.cpg/sg15_147_cif.got.tgz:293076.got - 2010.06.03 18:47:42.
