data_PCOD9294509
_publ_section_title
;
Structure prediction by ZEFSAII (Michael W. Deem and Ramdas Pophale) SiO2 
 PCOD9294509
Probable space group: C 2/C
;
_chemical_formula_sum "Si O2"
_cell_formula_units_Z 60
_cell_length_a 9.596861
_cell_length_b 17.066874
_cell_length_c 21.419374
_cell_angle_alpha 90.000000
_cell_angle_beta 122.671705
_cell_angle_gamma 90.000000
_cell_volume 2953.161920
_symmetry_space_group_name_H-M "C 2/C"
_symmetry_group_IT_number 15
_symmetry_cell_setting 'monoclinic'
loop_
_space_group_symop_operation_xyz
x,y,z
-x,y,1/2-z
-x,-y,-z
x,-y,1/2+z
1/2+x,1/2+y,z
1/2-x,1/2+y,1/2-z
1/2-x,1/2-y,-z
1/2+x,1/2-y,1/2+z
loop_
_atom_site_type_symbol
_atom_site_label
_atom_site_fract_x
_atom_site_fract_y
_atom_site_fract_z
Si Si1 0.500000 0.077216 0.750000
Si Si2 0.446089 0.372949 0.506985
Si Si3 0.530153 0.959068 0.642424
Si Si4 0.615804 0.498780 0.830571
Si Si5 0.981917 0.829506 0.838988
Si Si6 0.296008 0.459783 0.012227
Si Si7 0.898971 0.706677 0.284481
Si Si8 0.745060 0.205058 0.851293
O O1 0.656957 0.134438 0.793165
O O2 0.498458 0.024437 0.687643
O O3 0.490129 0.326939 0.580174
O O4 0.605697 0.396188 0.504809
O O5 0.364056 0.455057 0.507864
O O6 0.319661 0.326847 0.433170
O O7 0.394707 0.958798 0.554653
O O8 0.525564 0.876297 0.676653
O O9 0.710808 0.973449 0.657780
O O10 0.500000 0.538019 0.750000
O O11 0.520291 0.418636 0.827138
O O12 0.658855 0.546297 0.903808
O O13 0.793330 0.807547 0.779462
O O14 0.110237 0.771685 0.835751
O O15 0.888580 0.760771 0.342562
O O16 0.000000 0.737700 0.250000
#
# Coordination Sequence:
#
# PCOD9294509 Si02
#       8
#     4   8   8   8   8   8   8   8
#     4  12  26  40  72 100 142 172 236 278 348 398
#     4  10  23  40  67  93 132 181 226 278 345 414
#     4  12  23  42  68 102 133 181 227 283 339 416
#     4  11  22  39  68  97 131 179 227 277 340 419
#     4  11  21  43  70  96 126 182 230 278 338 417
#     4  10  23  41  62  98 142 171 225 288 350 400
#     4  12  24  42  71  98 138 178 235 277 346 414
#     4  12  23  46  66  99 135 180 228 286 339 416
#
# _framework density 20.317207
#
# number of rings (size 3 to 8) (size 9 to 14) (size 15 to 20)
#    0.000    0.800    6.000    1.600    1.867    0.000 
#    2.400    2.667    0.000    0.000    0.000    0.000 
#    0.000    0.000    0.000    0.000    0.000    0.000 
#
# Total GULP energy -167751.309722 kJ/mol
# GULP energy per Si atom -5591.710324 kJ/mol
# Density = 2.027096 g / cm^3
# Si number density = 20.317207 Si / 1000 Ang^3
#
#
#
# Elastic Constant Matrix: (Units=GPa)
#
#
# Indices 1 2 3 4 5 6 
#
# 1 81.7523 3.1982 32.8510 0.0000 -7.6004 0.0000
# 2 3.1982 51.4964 18.7995 0.0000 -14.3750 0.0000
# 3 32.8510 18.7995 162.6477 0.0000 -7.6557 0.0000
# 4 0.0000 0.0000 0.0000 11.6925 0.0000 3.0088
# 5 -7.6004 -14.3750 -7.6557 0.0000 38.8306 0.0000
# 6 0.0000 0.0000 0.0000 3.0088 0.0000 6.9571
#
#
#
# Elastic Compliance Matrix: (Units=1/GPa)
#
#
# Indices 1 2 3 4 5 6 
#
# 1 0.013514 0.000825 -0.002711 0.000000 0.002416 0.000000
# 2 0.000825 0.022475 -0.002387 0.000000 0.008011 0.000000
# 3 -0.002711 -0.002387 0.006970 0.000000 -0.000040 0.000000
# 4 0.000000 0.000000 0.000000 0.096235 0.000000 -0.041619
# 5 0.002416 0.008011 -0.000040 0.000000 0.029183 0.000000
# 6 0.000000 0.000000 0.000000 -0.041619 0.000000 0.161737
#
#
# Mechanical properties :
#
#
# Convention : Reuss Voigt Hill
#
# Bulk Modulus (GPa) = 29.05968 45.06598 37.06283
# Shear Modulus (GPa) = 14.28034 27.56589 20.92312
#
# Velocity S-wave (km/s) = 2.65404 3.68744 3.21257
# Velocity P-wave (km/s) = 4.87093 6.35287 5.66061
#
# Compressibility (1/GPa) = 0.03441195
#
# Stress axis : x y z
#
# Youngs Moduli (GPa) = 73.99829 44.49310 143.47456
#
# Poissons Ratio (x) = -0.03670 0.38897
# Poissons Ratio (y) = -0.06104 0.34252
# Poissons Ratio (z) = 0.20062 0.10622
#
# Static dielectric constant tensor:
#      x y z
#    x 1.704180 0.000000 -0.011350 
#    y 0.000000 1.703450 0.000000 
#    z -0.011350 0.000000 1.729800 
# 
# From -- ./inp_files/233073.got.cif
#   From: 2010.05.17/outbox.cif.g08.bks.cpg/sg15_117_cif.got.tgz:233073.got - 2010.06.03 18:47:42.
