data_PCOD9294262
_publ_section_title
;
Structure prediction by ZEFSAII (Michael W. Deem and Ramdas Pophale) SiO2 
 PCOD9294262
Probable space group: C 2/C
;
_chemical_formula_sum "Si O2"
_cell_formula_units_Z 40
_cell_length_a 15.029021
_cell_length_b 5.177627
_cell_length_c 20.381226
_cell_angle_alpha 90.000000
_cell_angle_beta 74.555742
_cell_angle_gamma 90.000000
_cell_volume 1528.689300
_symmetry_space_group_name_H-M "C 2/C"
_symmetry_group_IT_number 15
_symmetry_cell_setting 'monoclinic'
loop_
_space_group_symop_operation_xyz
x,y,z
-x,y,1/2-z
-x,-y,-z
x,-y,1/2+z
1/2+x,1/2+y,z
1/2-x,1/2+y,1/2-z
1/2-x,1/2-y,-z
1/2+x,1/2-y,1/2+z
loop_
_atom_site_type_symbol
_atom_site_label
_atom_site_fract_x
_atom_site_fract_y
_atom_site_fract_z
Si Si1 0.142149 0.867616 0.386608
Si Si2 0.108876 0.270013 0.746190
Si Si3 0.400750 0.274307 0.805218
Si Si4 0.808279 0.443862 0.441318
Si Si5 0.591796 0.152185 0.963566
O O1 0.124453 0.852876 0.313491
O O2 0.234388 0.994365 0.398762
O O3 0.138922 0.568488 0.409116
O O4 0.072738 0.074822 0.433045
O O5 0.147076 0.557439 0.730869
O O6 0.000000 0.311086 0.750000
O O7 0.144358 0.055608 0.688637
O O8 0.500000 0.312344 0.750000
O O9 0.393106 0.173929 0.881301
O O10 0.750000 0.250000 0.500000
O O11 0.849486 0.663507 0.480229
O O12 0.500000 0.000000 0.000000
#
# Coordination Sequence:
#
# PCOD9294262 Si02
#       5
#     8   8   8   8   8
#     4  11  24  44  65 102 137 175 228 283 346 397
#     4  10  23  39  67  95 136 176 228 281 337 408
#     4  10  23  42  68  97 136 180 230 280 342 413
#     4  10  25  46  70 103 142 179 228 292 353 406
#     4  11  25  41  71  99 134 182 228 278 339 416
#
# _framework density 26.166205999999999
#
# number of rings (size 3 to 8) (size 9 to 14) (size 15 to 20)
#    0.000    1.600    0.000    2.400   11.200    8.000 
#    0.000    0.000    0.000    0.000    0.000    0.000 
#    0.000    0.000    0.000    0.000    0.000    0.000 
#
# Total GULP energy -111578.014622 kJ/mol
# GULP energy per Si atom -5578.900731 kJ/mol
# Density = 2.610665 g / cm^3
# Si number density = 26.166206 Si / 1000 Ang^3
#
#
#
# Elastic Constant Matrix: (Units=GPa)
#
#
# Indices 1 2 3 4 5 6 
#
# 1 77.6811 -14.4711 31.7994 -0.0003 9.7388 -0.0003
# 2 -14.4711 142.4280 4.1622 -0.0006 0.5855 -0.0003
# 3 31.7994 4.1622 106.8844 -0.0002 0.2966 -0.0001
# 4 -0.0003 -0.0006 -0.0002 38.6983 -0.0001 6.2800
# 5 9.7388 0.5855 0.2966 -0.0001 53.2920 -0.0001
# 6 -0.0003 -0.0003 -0.0001 6.2800 -0.0001 20.2546
#
#
#
# Elastic Compliance Matrix: (Units=1/GPa)
#
#
# Indices 1 2 3 4 5 6 
#
# 1 0.015452 0.001718 -0.004656 0.000000 -0.002817 0.000000
# 2 0.001718 0.007220 -0.000791 0.000000 -0.000389 0.000000
# 3 -0.004656 -0.000791 0.010770 0.000000 0.000800 0.000000
# 4 0.000000 0.000000 0.000000 0.027210 0.000000 -0.008437
# 5 -0.002817 -0.000389 0.000800 0.000000 0.019279 0.000000
# 6 0.000000 0.000000 0.000000 -0.008437 0.000000 0.051987
#
#
# Mechanical properties :
#
#
# Convention : Reuss Voigt Hill
#
# Bulk Modulus (GPa) = 38.48680 41.10826 39.79753
# Shear Modulus (GPa) = 33.77475 42.81585 38.29530
#
# Velocity S-wave (km/s) = 3.59664 4.04951 3.82977
# Velocity P-wave (km/s) = 5.65582 6.13264 5.89905
#
# Compressibility (1/GPa) = 0.02598294
#
# Stress axis : x y z
#
# Youngs Moduli (GPa) = 64.71497 138.49782 92.85217
#
# Poissons Ratio (x) = -0.23789 0.43235
# Poissons Ratio (y) = -0.11116 0.07346
# Poissons Ratio (z) = 0.30133 0.10957
#
# Static dielectric constant tensor:
#      x y z
#    x 2.901740 0.000000 -0.299990 
#    y 0.000000 2.234560 0.000000 
#    z -0.299990 0.000000 2.176640 
# 
# From -- ./inp_files/207997.got.cif
#   From: 2010.05.17/outbox.cif.g08.bks.cpg/sg15_104_cif.got.tgz:207997.got - 2010.06.03 18:47:42.
