data_PCOD9294419
_publ_section_title
;
Structure prediction by ZEFSAII (Michael W. Deem and Ramdas Pophale) SiO2 
 PCOD9294419
Probable space group: C 2/C
;
_chemical_formula_sum "Si O2"
_cell_formula_units_Z 48
_cell_length_a 14.193539
_cell_length_b 12.711757
_cell_length_c 13.685698
_cell_angle_alpha 90.000000
_cell_angle_beta 62.118454
_cell_angle_gamma 90.000000
_cell_volume 2182.601106
_symmetry_space_group_name_H-M "C 2/C"
_symmetry_group_IT_number 15
_symmetry_cell_setting 'monoclinic'
loop_
_space_group_symop_operation_xyz
x,y,z
-x,y,1/2-z
-x,-y,-z
x,-y,1/2+z
1/2+x,1/2+y,z
1/2-x,1/2+y,1/2-z
1/2-x,1/2-y,-z
1/2+x,1/2-y,1/2+z
loop_
_atom_site_type_symbol
_atom_site_label
_atom_site_fract_x
_atom_site_fract_y
_atom_site_fract_z
Si Si1 0.117593 0.588219 0.686874
Si Si2 0.357983 0.285666 0.277580
Si Si3 0.549479 0.214005 0.077239
Si Si4 0.882083 0.505887 0.009307
Si Si5 0.878838 0.775650 0.660007
Si Si6 0.705387 0.498358 0.762856
O O1 0.132745 0.596383 0.563584
O O2 0.107424 0.694244 0.756930
O O3 0.216052 0.523450 0.684140
O O4 0.000000 0.535979 0.750000
O O5 0.432188 0.205069 0.181086
O O6 0.394271 0.290041 0.371898
O O7 0.237042 0.251303 0.327737
O O8 0.364714 0.398685 0.223523
O O9 0.617621 0.107060 0.044582
O O10 0.544018 0.253291 0.968664
O O11 0.789899 0.511724 0.133305
O O12 0.000000 0.500000 0.000000
O O13 0.868283 0.896575 0.693727
#
# Coordination Sequence:
#
# PCOD9294419 Si02
#       6
#     8   8   8   8   8   8
#     4  11  23  41  65 102 132 174 227 275 338 392
#     4  10  23  40  64  99 126 176 232 271 332 404
#     4  11  22  41  68  93 130 177 225 274 333 398
#     4  12  22  39  69  99 127 168 222 283 331 392
#     4  11  23  43  65  96 139 171 218 287 337 396
#     4  11  24  41  64 100 136 171 230 273 337 403
#
# _framework density 21.992108000000002
#
# number of rings (size 3 to 8) (size 9 to 14) (size 15 to 20)
#    0.000    1.000    5.000    2.500    4.667    1.333 
#    3.000    1.667    0.000    0.000    0.000    0.000 
#    0.000    0.000    0.000    0.000    0.000    0.000 
#
# Total GULP energy -134064.812228 kJ/mol
# GULP energy per Si atom -5586.033843 kJ/mol
# Density = 2.194205 g / cm^3
# Si number density = 21.992108 Si / 1000 Ang^3
#
#
#
# Elastic Constant Matrix: (Units=GPa)
#
#
# Indices 1 2 3 4 5 6 
#
# 1 72.8619 6.1696 26.0770 0.0000 22.1502 0.0000
# 2 6.1696 95.5722 20.1969 0.0000 17.9583 0.0000
# 3 26.0770 20.1969 85.4007 0.0000 18.4528 0.0000
# 4 0.0000 0.0000 0.0000 26.7302 0.0000 -3.2281
# 5 22.1502 17.9583 18.4528 0.0000 30.9518 0.0000
# 6 0.0000 0.0000 0.0000 -3.2281 0.0000 17.2601
#
#
#
# Elastic Compliance Matrix: (Units=1/GPa)
#
#
# Indices 1 2 3 4 5 6 
#
# 1 0.018533 0.001838 -0.003441 0.000000 -0.012278 0.000000
# 2 0.001838 0.012095 -0.001861 0.000000 -0.007223 0.000000
# 3 -0.003441 -0.001861 0.014274 0.000000 -0.004968 0.000000
# 4 0.000000 0.000000 0.000000 0.038275 0.000000 0.007159
# 5 -0.012278 -0.007223 -0.004968 0.000000 0.048247 0.000000
# 6 0.000000 0.000000 0.000000 0.007159 0.000000 0.059276
#
#
# Mechanical properties :
#
#
# Convention : Reuss Voigt Hill
#
# Bulk Modulus (GPa) = 26.33373 39.85799 33.09586
# Shear Modulus (GPa) = 23.77715 28.41451 26.09583
#
# Velocity S-wave (km/s) = 3.29168 3.59838 3.44844
# Velocity P-wave (km/s) = 5.14267 5.95211 5.56213
#
# Compressibility (1/GPa) = 0.03797411
#
# Stress axis : x y z
#
# Youngs Moduli (GPa) = 53.95815 82.67737 70.05957
#
# Poissons Ratio (x) = -0.15194 0.24105
# Poissons Ratio (y) = -0.09916 0.13037
# Poissons Ratio (z) = 0.18565 0.15385
#
# Static dielectric constant tensor:
#      x y z
#    x 1.809800 0.000000 0.019490 
#    y 0.000000 1.889520 0.000000 
#    z 0.019490 0.000000 1.831000 
# 
# From -- ./inp_files/96178.got.cif
#   From: 2010.05.17/outbox.cif.g08.bks.cpg/sg15_49_cif.got.tgz:96178.got - 2010.06.03 18:47:42.
