data_PCOD9294727
_publ_section_title
;
Structure prediction by ZEFSAII (Michael W. Deem and Ramdas Pophale) SiO2 
 PCOD9294727
Probable space group: C 2/C
;
_chemical_formula_sum "Si O2"
_cell_formula_units_Z 36
_cell_length_a 11.517395
_cell_length_b 21.351240
_cell_length_c 7.897664
_cell_angle_alpha 90.000000
_cell_angle_beta 62.117309
_cell_angle_gamma 90.000000
_cell_volume 1716.653195
_symmetry_space_group_name_H-M "C 2/C"
_symmetry_group_IT_number 15
_symmetry_cell_setting 'monoclinic'
loop_
_space_group_symop_operation_xyz
x,y,z
-x,y,1/2-z
-x,-y,-z
x,-y,1/2+z
1/2+x,1/2+y,z
1/2-x,1/2+y,1/2-z
1/2-x,1/2-y,-z
1/2+x,1/2-y,1/2+z
loop_
_atom_site_type_symbol
_atom_site_label
_atom_site_fract_x
_atom_site_fract_y
_atom_site_fract_z
Si Si1 0.797884 0.531047 0.159856
Si Si2 0.231261 0.093337 0.852810
Si Si3 0.000000 0.399754 0.750000
Si Si4 0.557520 0.418014 0.042527
Si Si5 0.257781 0.820975 0.054676
O O1 0.784401 0.455889 0.173387
O O2 0.927450 0.555475 0.164985
O O3 0.670565 0.549026 0.359646
O O4 0.789223 0.566588 0.987027
O O5 0.261952 0.161298 0.752147
O O6 0.073406 0.092070 0.975875
O O7 0.113461 0.353678 0.607819
O O8 0.500000 0.452261 0.250000
O O9 0.629488 0.356592 0.067525
O O10 0.250000 0.750000 0.000000
#
# Coordination Sequence:
#
# PCOD9294727 Si02
#       5
#     8   8   4   8   8
#     4  11  22  39  63 100 133 164 217 270 342 386
#     4  11  22  37  66  95 131 169 212 275 325 392
#     4  10  24  42  64  92 132 172 214 274 328 396
#     4   9  19  37  61  94 127 167 212 263 325 382
#     4  10  23  41  65  90 124 178 219 259 322 388
#
# _framework density 20.971039000000001
#
# number of rings (size 3 to 8) (size 9 to 14) (size 15 to 20)
#    0.000    1.778    0.000    5.333    4.667    6.222 
#    0.000    4.444    9.778    0.000    0.000    0.000 
#    0.000    0.000    0.000    0.000    0.000    0.000 
#
# Total GULP energy -100463.430128 kJ/mol
# GULP energy per Si atom -5581.301674 kJ/mol
# Density = 2.092331 g / cm^3
# Si number density = 20.971039 Si / 1000 Ang^3
#
#
#
# Elastic Constant Matrix: (Units=GPa)
#
#
# Indices 1 2 3 4 5 6 
#
# 1 167.2251 47.0528 44.3437 0.0000 1.2836 0.0000
# 2 47.0528 133.3205 56.9095 0.0000 2.0274 0.0000
# 3 44.3437 56.9095 98.5346 0.0000 1.2831 0.0000
# 4 0.0000 0.0000 0.0000 19.3431 0.0000 -0.2938
# 5 1.2836 2.0274 1.2831 0.0000 49.7079 0.0000
# 6 0.0000 0.0000 0.0000 -0.2938 0.0000 26.9333
#
#
#
# Elastic Compliance Matrix: (Units=1/GPa)
#
#
# Indices 1 2 3 4 5 6 
#
# 1 0.007008 -0.001495 -0.002290 0.000000 -0.000061 0.000000
# 2 -0.001495 0.010277 -0.005260 0.000000 -0.000245 0.000000
# 3 -0.002290 -0.005260 0.014218 0.000000 -0.000093 0.000000
# 4 0.000000 0.000000 0.000000 0.051707 0.000000 0.000564
# 5 -0.000061 -0.000245 -0.000093 0.000000 0.020132 0.000000
# 6 0.000000 0.000000 0.000000 0.000564 0.000000 0.037135
#
#
# Mechanical properties :
#
#
# Convention : Reuss Voigt Hill
#
# Bulk Modulus (GPa) = 74.54470 77.29915 75.92192
# Shear Modulus (GPa) = 30.66784 35.91513 33.29148
#
# Velocity S-wave (km/s) = 3.82827 4.14285 3.98866
# Velocity P-wave (km/s) = 7.42728 7.73462 7.58251
#
# Compressibility (1/GPa) = 0.01341477
#
# Stress axis : x y z
#
# Youngs Moduli (GPa) = 142.68848 97.30192 70.33279
#
# Poissons Ratio (x) = 0.14548 0.16104
# Poissons Ratio (y) = 0.21334 0.36993
# Poissons Ratio (z) = 0.32670 0.51178
#
# Static dielectric constant tensor:
#      x y z
#    x 1.785170 0.000000 0.024240 
#    y 0.000000 1.768790 0.000000 
#    z 0.024240 0.000000 1.826100 
# 
# From -- ./inp_files/30110.got.cif
#   From: 2010.05.17/outbox.cif.g08.bks.cpg/sg15_16_cif.got.tgz:30110.got - 2010.06.03 18:47:42.
