data_PCOD9294617
_publ_section_title
;
Structure prediction by ZEFSAII (Michael W. Deem and Ramdas Pophale) SiO2 
 PCOD9294617
Probable space group: C 2/C
;
_chemical_formula_sum "Si O2"
_cell_formula_units_Z 44
_cell_length_a 20.662654
_cell_length_b 14.271600
_cell_length_c 14.573771
_cell_angle_alpha 90.000000
_cell_angle_beta 155.492127
_cell_angle_gamma 90.000000
_cell_volume 1782.742393
_symmetry_space_group_name_H-M "C 2/C"
_symmetry_group_IT_number 15
_symmetry_cell_setting 'monoclinic'
loop_
_space_group_symop_operation_xyz
x,y,z
-x,y,1/2-z
-x,-y,-z
x,-y,1/2+z
1/2+x,1/2+y,z
1/2-x,1/2+y,1/2-z
1/2-x,1/2-y,-z
1/2+x,1/2-y,1/2+z
loop_
_atom_site_type_symbol
_atom_site_label
_atom_site_fract_x
_atom_site_fract_y
_atom_site_fract_z
Si Si1 0.734515 0.066184 0.913394
Si Si2 0.726498 0.059871 0.698014
Si Si3 0.500000 0.589608 0.750000
Si Si4 0.330994 0.350927 0.866089
Si Si5 0.450525 0.737635 0.983815
Si Si6 0.000000 0.780163 0.750000
Si Si7 0.500000 0.016237 0.250000
O O1 0.615458 0.047886 0.840210
O O2 0.659878 0.067949 0.715613
O O3 0.850701 0.977166 0.065267
O O4 0.849148 0.153836 0.071785
O O5 0.864821 0.135982 0.872340
O O6 0.602238 0.072752 0.456674
O O7 0.796312 0.954352 0.782434
O O8 0.469850 0.645856 0.618922
O O9 0.176719 0.310918 0.715828
O O10 0.390657 0.279913 0.865343
O O11 0.477412 0.768370 0.123459
#
# Coordination Sequence:
#
# PCOD9294617 Si02
#       7
#     8   8   4   8   8   4   4
#     4   9  19  36  61  88 115 160 205 243 292 356
#     4  10  23  41  61  88 125 161 199 242 300 364
#     4   9  20  41  60  80 122 164 198 240 298 360
#     4  11  24  41  64  91 120 159 204 247 298 359
#     4  11  24  41  64  91 120 159 204 247 298 359
#     4   9  20  41  60  80 122 164 198 240 298 360
#     4  12  20  32  62  94 122 152 196 254 304 342
#
# _framework density 24.681076000000001
#
# number of rings (size 3 to 8) (size 9 to 14) (size 15 to 20)
#    0.000    1.818    0.000    4.364    0.000    8.727 
#    0.000    0.000    0.000    0.000    0.000    0.000 
#    0.000    0.000    0.000    0.000    0.000    0.000 
#
# Total GULP energy -123235.368191 kJ/mol
# GULP energy per Si atom -5601.607645 kJ/mol
# Density = 2.462490 g / cm^3
# Si number density = 24.681076 Si / 1000 Ang^3
#
#
#
# Elastic Constant Matrix: (Units=GPa)
#
#
# Indices 1 2 3 4 5 6 
#
# 1 127.7909 -2.4174 45.8351 0.0000 0.8783 0.0000
# 2 -2.4174 85.7463 17.9060 0.0000 5.4789 0.0000
# 3 45.8351 17.9060 114.8015 0.0000 -27.9475 0.0000
# 4 0.0000 0.0000 0.0000 27.3740 0.0000 -4.2145
# 5 0.8783 5.4789 -27.9475 0.0000 55.1490 0.0000
# 6 0.0000 0.0000 0.0000 -4.2145 0.0000 9.5778
#
#
#
# Elastic Compliance Matrix: (Units=1/GPa)
#
#
# Indices 1 2 3 4 5 6 
#
# 1 0.009550 0.001418 -0.004683 0.000000 -0.002666 0.000000
# 2 0.001418 0.012563 -0.003234 0.000000 -0.002910 0.000000
# 3 -0.004683 -0.003234 0.012755 0.000000 0.006859 0.000000
# 4 0.000000 0.000000 0.000000 0.039186 0.000000 0.017243
# 5 -0.002666 -0.002910 0.006859 0.000000 0.021940 0.000000
# 6 0.000000 0.000000 0.000000 0.017243 0.000000 0.111995
#
#
# Mechanical properties :
#
#
# Convention : Reuss Voigt Hill
#
# Bulk Modulus (GPa) = 45.72562 50.10957 47.91759
# Shear Modulus (GPa) = 21.90307 36.22116 29.06212
#
# Velocity S-wave (km/s) = 2.98223 3.83504 3.43520
# Velocity P-wave (km/s) = 5.51589 6.32115 5.93220
#
# Compressibility (1/GPa) = 0.02186958
#
# Stress axis : x y z
#
# Youngs Moduli (GPa) = 104.71071 79.59569 78.40240
#
# Poissons Ratio (x) = -0.11283 0.36717
# Poissons Ratio (y) = -0.14843 0.25354
# Poissons Ratio (z) = 0.49037 0.25740
#
# Static dielectric constant tensor:
#      x y z
#    x 1.961330 0.000000 -0.024540 
#    y 0.000000 1.934080 0.000000 
#    z -0.024540 0.000000 1.959710 
# 
# From -- ./inp_files/168563.got.cif
#   From: 2010.05.17/outbox.cif.g08.bks.cpg/sg15_85_cif.got.tgz:168563.got - 2010.06.03 18:47:42.
