data_PCOD9294667
_publ_section_title
;
Structure prediction by ZEFSAII (Michael W. Deem and Ramdas Pophale) SiO2 
 PCOD9294667
Probable space group: C 2/C
;
_chemical_formula_sum "Si O2"
_cell_formula_units_Z 32
_cell_length_a 27.269772
_cell_length_b 5.104450
_cell_length_c 9.032406
_cell_angle_alpha 90.000000
_cell_angle_beta 72.563282
_cell_angle_gamma 90.000000
_cell_volume 1199.511348
_symmetry_space_group_name_H-M "C 2/C"
_symmetry_group_IT_number 15
_symmetry_cell_setting 'monoclinic'
loop_
_space_group_symop_operation_xyz
x,y,z
-x,y,1/2-z
-x,-y,-z
x,-y,1/2+z
1/2+x,1/2+y,z
1/2-x,1/2+y,1/2-z
1/2-x,1/2-y,-z
1/2+x,1/2-y,1/2+z
loop_
_atom_site_type_symbol
_atom_site_label
_atom_site_fract_x
_atom_site_fract_y
_atom_site_fract_z
Si Si1 0.963461 0.255202 0.560423
Si Si2 0.847448 0.292171 0.191227
Si Si3 0.691099 0.284701 0.100850
Si Si4 0.940468 0.856655 0.788678
O O1 0.000000 0.500000 0.500000
O O2 0.058179 0.164439 0.759765
O O3 0.921078 0.221202 0.469631
O O4 0.000000 0.000000 0.500000
O O5 0.823163 0.561223 0.268877
O O6 0.659760 0.252114 0.975930
O O7 0.820616 0.059715 0.309591
O O8 0.906324 0.283148 0.195965
O O9 0.750000 0.250000 0.000000
O O10 0.000000 0.769128 0.750000
#
# Coordination Sequence:
#
# PCOD9294667 Si02
#       4
#     8   8   8   8
#     4  10  23  41  63  92 134 188 233 281 338 399
#     4  12  26  45  75 108 141 188 238 290 363 432
#     4  12  26  49  74 105 141 183 238 304 362 424
#     4  10  24  43  67  99 142 183 228 281 338 415
#
# _framework density 26.677530999999998
#
# number of rings (size 3 to 8) (size 9 to 14) (size 15 to 20)
#    0.000    1.000    0.000    5.250    0.000   21.000 
#    0.000    2.500    0.000    0.000    0.000    0.000 
#    0.000    0.000    0.000    0.000    0.000    0.000 
#
# Total GULP energy -89573.874210 kJ/mol
# GULP energy per Si atom -5598.367138 kJ/mol
# Density = 2.661681 g / cm^3
# Si number density = 26.677531 Si / 1000 Ang^3
#
#
#
# Elastic Constant Matrix: (Units=GPa)
#
#
# Indices 1 2 3 4 5 6 
#
# 1 102.9959 18.6279 36.0917 0.0000 6.0788 0.0000
# 2 18.6279 140.9294 38.3831 0.0000 2.9470 0.0000
# 3 36.0917 38.3831 129.0928 0.0000 21.4546 0.0000
# 4 0.0000 0.0000 0.0000 60.4591 0.0000 -3.7066
# 5 6.0788 2.9470 21.4546 0.0000 81.3789 0.0000
# 6 0.0000 0.0000 0.0000 -3.7066 0.0000 26.8069
#
#
#
# Elastic Compliance Matrix: (Units=1/GPa)
#
#
# Indices 1 2 3 4 5 6 
#
# 1 0.010820 -0.000661 -0.002822 0.000000 -0.000040 0.000000
# 2 -0.000661 0.007770 -0.002183 0.000000 0.000343 0.000000
# 3 -0.002822 -0.002183 0.009555 0.000000 -0.002229 0.000000
# 4 0.000000 0.000000 0.000000 0.016682 0.000000 0.002307
# 5 -0.000040 0.000343 -0.002229 0.000000 0.012866 0.000000
# 6 0.000000 0.000000 0.000000 0.002307 0.000000 0.037623
#
#
# Mechanical properties :
#
#
# Convention : Reuss Voigt Hill
#
# Bulk Modulus (GPa) = 59.47294 62.13595 60.80444
# Shear Modulus (GPa) = 44.54300 52.38999 48.46649
#
# Velocity S-wave (km/s) = 4.09061 4.43631 4.26696
# Velocity P-wave (km/s) = 6.68225 7.04154 6.86424
#
# Compressibility (1/GPa) = 0.01681437
#
# Stress axis : x y z
#
# Youngs Moduli (GPa) = 92.42282 128.69371 104.66000
#
# Poissons Ratio (x) = 0.08504 0.29533
# Poissons Ratio (y) = 0.06107 0.22844
# Poissons Ratio (z) = 0.26080 0.28090
#
# Static dielectric constant tensor:
#      x y z
#    x 2.131280 0.000000 0.047100 
#    y 0.000000 2.263360 0.000000 
#    z 0.047100 0.000000 2.620440 
# 
# From -- ./inp_files/164738.got.cif
#   From: 2010.05.17/outbox.cif.g08.bks.cpg/sg15_83_cif.got.tgz:164738.got - 2010.06.03 18:47:42.
