data_PCOD9294293
_publ_section_title
;
Structure prediction by ZEFSAII (Michael W. Deem and Ramdas Pophale) SiO2 
 PCOD9294293
Probable space group: C 2/C
;
_chemical_formula_sum "Si O2"
_cell_formula_units_Z 48
_cell_length_a 18.121296
_cell_length_b 5.663537
_cell_length_c 20.302117
_cell_angle_alpha 90.000000
_cell_angle_beta 118.629937
_cell_angle_gamma 90.000000
_cell_volume 1828.860671
_symmetry_space_group_name_H-M "C 2/C"
_symmetry_group_IT_number 15
_symmetry_cell_setting 'monoclinic'
loop_
_space_group_symop_operation_xyz
x,y,z
-x,y,1/2-z
-x,-y,-z
x,-y,1/2+z
1/2+x,1/2+y,z
1/2-x,1/2+y,1/2-z
1/2-x,1/2-y,-z
1/2+x,1/2-y,1/2+z
loop_
_atom_site_type_symbol
_atom_site_label
_atom_site_fract_x
_atom_site_fract_y
_atom_site_fract_z
Si Si1 0.757840 0.122422 0.072800
Si Si2 0.074873 0.550152 0.980953
Si Si3 0.653531 0.468505 0.690594
Si Si4 0.291839 0.229085 0.166807
Si Si5 0.522724 0.551274 0.933314
Si Si6 0.405008 0.845113 0.225451
O O1 0.832837 0.238220 0.146790
O O2 0.779500 0.847675 0.091382
O O3 0.750000 0.250000 0.000000
O O4 0.661001 0.112338 0.055532
O O5 0.057347 0.787377 0.930085
O O6 0.078295 0.288418 0.949012
O O7 0.000000 0.500000 0.000000
O O8 0.707056 0.594360 0.770302
O O9 0.712128 0.431240 0.652383
O O10 0.566848 0.599057 0.638345
O O11 0.620706 0.230405 0.711936
O O12 0.383996 0.117999 0.208442
O O13 0.500000 0.500000 0.000000
O O14 0.500000 0.779105 0.250000
#
# Coordination Sequence:
#
# PCOD9294293 Si02
#       6
#     8   8   8   8   8   8
#     4  11  28  49  74 110 161 207 269 330 417 494
#     4  10  23  43  71 111 149 201 257 328 398 469
#     4  11  24  43  77 112 150 201 274 334 399 485
#     4  11  24  46  78 109 148 208 272 338 398 490
#     4  10  23  39  71 110 153 191 259 329 402 456
#     4  11  28  50  75 111 160 208 264 333 423 490
#
# _framework density 26.245850000000001
#
# number of rings (size 3 to 8) (size 9 to 14) (size 15 to 20)
#    0.000    1.333    1.667    2.000   11.667    3.333 
#    0.000    0.000    0.000    0.000    0.000    0.000 
#    0.000    0.000    0.000    0.000    0.000    0.000 
#
# Total GULP energy -133929.947042 kJ/mol
# GULP energy per Si atom -5580.414460 kJ/mol
# Density = 2.618611 g / cm^3
# Si number density = 26.245850 Si / 1000 Ang^3
#
#
#
# Elastic Constant Matrix: (Units=GPa)
#
#
# Indices 1 2 3 4 5 6 
#
# 1 154.2418 41.2217 56.5531 -0.0001 27.2230 0.0001
# 2 41.2217 144.9215 43.4173 -0.0003 11.8816 0.0002
# 3 56.5531 43.4173 135.8859 0.0000 26.4347 0.0000
# 4 -0.0001 -0.0003 0.0000 47.9679 0.0001 15.3330
# 5 27.2230 11.8816 26.4347 0.0001 41.7443 -0.0002
# 6 0.0001 0.0002 0.0000 15.3330 -0.0002 16.9811
#
#
#
# Elastic Compliance Matrix: (Units=1/GPa)
#
#
# Indices 1 2 3 4 5 6 
#
# 1 0.008338 -0.001380 -0.002336 0.000000 -0.003566 0.000000
# 2 -0.001380 0.007878 -0.001918 0.000000 -0.000128 0.000000
# 3 -0.002336 -0.001918 0.009742 0.000000 -0.004100 0.000000
# 4 0.000000 0.000000 0.000000 0.029306 0.000000 -0.026461
# 5 -0.003566 -0.000128 -0.004100 0.000000 0.028913 0.000001
# 6 0.000000 0.000000 0.000000 -0.026461 0.000001 0.082782
#
#
# Mechanical properties :
#
#
# Convention : Reuss Voigt Hill
#
# Bulk Modulus (GPa) = 68.06988 79.71482 73.89235
# Shear Modulus (GPa) = 27.30430 40.92913 34.11671
#
# Velocity S-wave (km/s) = 3.22891 3.95327 3.60931
# Velocity P-wave (km/s) = 6.31609 7.16073 6.75163
#
# Compressibility (1/GPa) = 0.01469078
#
# Stress axis : x y z
#
# Youngs Moduli (GPa) = 119.93764 126.93893 102.65334
#
# Poissons Ratio (x) = 0.17512 0.23975
# Poissons Ratio (y) = 0.16546 0.19689
# Poissons Ratio (z) = 0.28012 0.24347
#
# Static dielectric constant tensor:
#      x y z
#    x 2.078690 0.000000 -0.048470 
#    y 0.000000 2.354710 0.000000 
#    z -0.048470 0.000000 2.066030 
# 
# From -- ./inp_files/279047.got.cif
#   From: 2010.05.17/outbox.cif.g08.bks.cpg/sg15_140_cif.got.tgz:279047.got - 2010.06.03 18:47:42.
