data_PCOD9294318
_publ_section_title
;
Structure prediction by ZEFSAII (Michael W. Deem and Ramdas Pophale) SiO2 
 PCOD9294318
Probable space group: C 2/C
;
_chemical_formula_sum "Si O2"
_cell_formula_units_Z 40
_cell_length_a 11.667210
_cell_length_b 23.706715
_cell_length_c 11.982109
_cell_angle_alpha 90.000000
_cell_angle_beta 147.612176
_cell_angle_gamma 90.000000
_cell_volume 1775.213628
_symmetry_space_group_name_H-M "C 2/C"
_symmetry_group_IT_number 15
_symmetry_cell_setting 'monoclinic'
loop_
_space_group_symop_operation_xyz
x,y,z
-x,y,1/2-z
-x,-y,-z
x,-y,1/2+z
1/2+x,1/2+y,z
1/2-x,1/2+y,1/2-z
1/2-x,1/2-y,-z
1/2+x,1/2-y,1/2+z
loop_
_atom_site_type_symbol
_atom_site_label
_atom_site_fract_x
_atom_site_fract_y
_atom_site_fract_z
Si Si1 0.142472 0.804214 0.467362
Si Si2 0.500000 0.106301 0.250000
Si Si3 0.198498 0.054561 0.825480
Si Si4 0.196475 0.930064 0.826763
Si Si5 0.000000 0.625323 0.750000
Si Si6 0.904331 0.148080 0.946930
O O1 0.250000 0.750000 0.500000
O O2 0.317056 0.850788 0.639591
O O3 0.000000 0.827464 0.250000
O O4 0.988584 0.797980 0.447020
O O5 0.596801 0.070355 0.430389
O O6 0.162894 0.100813 0.700221
O O7 0.000000 0.053794 0.750000
O O8 0.224022 0.991731 0.795922
O O9 0.000000 0.937859 0.750000
O O10 0.104430 0.880145 0.675203
O O11 0.398184 0.911895 0.066797
O O12 0.797465 0.657670 0.637881
#
# Coordination Sequence:
#
# PCOD9294318 Si02
#       6
#     8   4   8   8   4   8
#     4  12  25  44  69 102 126 162 219 290 354 398
#     4  12  21  38  64  98 136 172 212 284 349 382
#     4  11  21  36  61  96 138 176 229 273 328 388
#     4   9  21  38  58  93 135 188 228 264 313 399
#     4  10  23  40  60  86 134 186 222 258 327 394
#     4  11  22  40  62  94 134 177 225 273 328 403
#
# _framework density 22.532498
#
# number of rings (size 3 to 8) (size 9 to 14) (size 15 to 20)
#    0.000    1.200    5.000    1.200    2.800    0.800 
#    0.000    0.000    0.000    1.200    0.000    0.000 
#    0.000    0.000    0.000    0.000    0.000    0.000 
#
# Total GULP energy -111666.565314 kJ/mol
# GULP energy per Si atom -5583.328266 kJ/mol
# Density = 2.248121 g / cm^3
# Si number density = 22.532498 Si / 1000 Ang^3
#
#
#
# Elastic Constant Matrix: (Units=GPa)
#
#
# Indices 1 2 3 4 5 6 
#
# 1 129.3816 43.3134 15.6835 0.0000 19.9485 0.0000
# 2 43.3134 64.3344 13.9265 0.0000 10.7480 0.0000
# 3 15.6835 13.9265 137.8017 0.0000 0.8394 0.0000
# 4 0.0000 0.0000 0.0000 -7.0557 0.0000 -3.4518
# 5 19.9485 10.7480 0.8394 0.0000 35.4374 0.0000
# 6 0.0000 0.0000 0.0000 -3.4518 0.0000 22.6423
#
#
#
# Elastic Compliance Matrix: (Units=1/GPa)
#
#
# Indices 1 2 3 4 5 6 
#
# 1 0.010519 -0.006298 -0.000536 0.000000 -0.003999 0.000000
# 2 -0.006298 0.020516 -0.001340 0.000000 -0.002645 0.000000
# 3 -0.000536 -0.001340 0.007450 0.000000 0.000532 0.000000
# 4 0.000000 0.000000 0.000000 -0.131893 0.000000 -0.020107
# 5 -0.003999 -0.002645 0.000532 0.000000 0.031259 0.000000
# 6 0.000000 0.000000 0.000000 -0.020107 0.000000 0.041100
#
#
# Mechanical properties :
#
#
# Convention : Reuss Voigt Hill
#
# Bulk Modulus (GPa) = 45.17598 53.04049 49.10823
# Shear Modulus (GPa) = 1866.55395 27.44443 946.99919
#
# Velocity S-wave (km/s) = 28.81287 3.49376 20.52301
# Velocity P-wave (km/s) = 33.57084 6.31394 24.15437
#
# Compressibility (1/GPa) = 0.02213566
#
# Stress axis : x y z
#
# Youngs Moduli (GPa) = 95.06661 48.74254 134.22677
#
# Poissons Ratio (x) = 0.30697 0.07199
# Poissons Ratio (y) = 0.59871 0.17993
# Poissons Ratio (z) = 0.05099 0.06534
#
# Static dielectric constant tensor:
#      x y z
#    x 0.491940 0.000000 -1.024870 
#    y 0.000000 1.875640 0.000000 
#    z -1.024870 0.000000 1.097250 
# 
# From -- ./inp_files/5078.got.cif
#   From: 2010.05.17/outbox.cif.g08.bks.cpg/sg15_3_cif.got.tgz:5078.got - 2010.06.03 18:47:42.
