data_PCOD9294757
_publ_section_title
;
Structure prediction by ZEFSAII (Michael W. Deem and Ramdas Pophale) SiO2 
 PCOD9294757
Probable space group: C 2/C
;
_chemical_formula_sum "Si O2"
_cell_formula_units_Z 48
_cell_length_a 13.974174
_cell_length_b 13.938621
_cell_length_c 12.394834
_cell_angle_alpha 90.000000
_cell_angle_beta 61.155638
_cell_angle_gamma 90.000000
_cell_volume 2114.743818
_symmetry_space_group_name_H-M "C 2/C"
_symmetry_group_IT_number 15
_symmetry_cell_setting 'monoclinic'
loop_
_space_group_symop_operation_xyz
x,y,z
-x,y,1/2-z
-x,-y,-z
x,-y,1/2+z
1/2+x,1/2+y,z
1/2-x,1/2+y,1/2-z
1/2-x,1/2-y,-z
1/2+x,1/2-y,1/2+z
loop_
_atom_site_type_symbol
_atom_site_label
_atom_site_fract_x
_atom_site_fract_y
_atom_site_fract_z
Si Si1 0.180815 0.110940 0.125261
Si Si2 0.083230 0.378323 0.040647
Si Si3 0.052640 0.560248 0.325423
Si Si4 0.544934 0.605498 0.988829
Si Si5 0.253260 0.570630 0.771966
Si Si6 0.109458 0.250127 0.353885
O O1 0.163070 0.183684 0.233678
O O2 0.200887 0.004539 0.164488
O O3 0.291915 0.137991 0.001295
O O4 0.085413 0.113583 0.090387
O O5 0.042141 0.484186 0.091657
O O6 0.995331 0.306956 0.135039
O O7 0.074262 0.372561 0.915324
O O8 0.162992 0.495091 0.256265
O O9 0.000000 0.609127 0.250000
O O10 0.648957 0.610742 0.854224
O O11 0.500000 0.500000 0.000000
O O12 0.445625 0.679897 0.028543
O O13 0.188135 0.663996 0.849895
#
# Coordination Sequence:
#
# PCOD9294757 Si02
#       6
#     8   8   8   8   8   8
#     4  11  23  42  67  94 135 174 213 274 329 379
#     4   9  20  36  60  96 129 163 218 270 317 385
#     4   9  17  34  62  92 131 171 210 266 327 378
#     4  12  25  42  67  94 132 174 217 267 330 385
#     4  10  23  41  65  97 133 168 219 269 322 390
#     4  11  23  40  66  96 129 166 220 268 321 389
#
# _framework density 22.697785
#
# number of rings (size 3 to 8) (size 9 to 14) (size 15 to 20)
#    0.000    1.667    1.667    3.500    0.000    9.333 
#    0.000    0.833   11.000    0.000    0.000    0.000 
#    0.000    0.000    0.000    0.000    0.000    0.000 
#
# Total GULP energy -134067.219249 kJ/mol
# GULP energy per Si atom -5586.134135 kJ/mol
# Density = 2.264612 g / cm^3
# Si number density = 22.697785 Si / 1000 Ang^3
#
#
#
# Elastic Constant Matrix: (Units=GPa)
#
#
# Indices 1 2 3 4 5 6 
#
# 1 59.0040 23.5889 14.2769 0.0000 -8.2057 0.0000
# 2 23.5889 123.1993 21.1751 0.0000 -17.0405 0.0000
# 3 14.2769 21.1751 58.0419 0.0000 -31.4276 0.0000
# 4 0.0000 0.0000 0.0000 34.4024 0.0000 -16.8024
# 5 -8.2057 -17.0405 -31.4276 0.0000 43.0224 0.0000
# 6 0.0000 0.0000 0.0000 -16.8024 0.0000 27.9525
#
#
#
# Elastic Compliance Matrix: (Units=1/GPa)
#
#
# Indices 1 2 3 4 5 6 
#
# 1 0.019026 -0.003043 -0.003735 0.000000 -0.000305 0.000000
# 2 -0.003043 0.009237 -0.001579 0.000000 0.001925 0.000000
# 3 -0.003735 -0.001579 0.029777 0.000000 0.020414 0.000000
# 4 0.000000 0.000000 0.000000 0.041148 0.000000 0.024734
# 5 -0.000305 0.001925 0.020414 0.000000 0.038861 0.000000
# 6 0.000000 0.000000 0.000000 0.024734 0.000000 0.050643
#
#
# Mechanical properties :
#
#
# Convention : Reuss Voigt Hill
#
# Bulk Modulus (GPa) = 24.19764 39.81410 32.00587
# Shear Modulus (GPa) = 22.81212 33.15576 27.98394
#
# Velocity S-wave (km/s) = 3.17367 3.82612 3.51507
# Velocity P-wave (km/s) = 4.91055 6.09081 5.53225
#
# Compressibility (1/GPa) = 0.04132634
#
# Stress axis : x y z
#
# Youngs Moduli (GPa) = 52.56003 108.25736 33.58253
#
# Poissons Ratio (x) = 0.32944 0.12542
# Poissons Ratio (y) = 0.15995 0.05304
# Poissons Ratio (z) = 0.19629 0.17097
#
# Static dielectric constant tensor:
#      x y z
#    x 1.871890 0.000000 -0.047760 
#    y 0.000000 1.876800 0.000000 
#    z -0.047760 0.000000 1.914010 
# 
# From -- ./inp_files/96871.got.cif
#   From: 2010.05.17/outbox.cif.g08.bks.cpg/sg15_49_cif.got.tgz:96871.got - 2010.06.03 18:47:42.
