data_PCOD9294842
_publ_section_title
;
Structure prediction by ZEFSAII (Michael W. Deem and Ramdas Pophale) SiO2 
 PCOD9294842
Probable space group: C 2/C
;
_chemical_formula_sum "Si O2"
_cell_formula_units_Z 24
_cell_length_a 12.779733
_cell_length_b 5.141580
_cell_length_c 24.916341
_cell_angle_alpha 90.000000
_cell_angle_beta 138.549698
_cell_angle_gamma 90.000000
_cell_volume 1083.779811
_symmetry_space_group_name_H-M "C 2/C"
_symmetry_group_IT_number 15
_symmetry_cell_setting 'monoclinic'
loop_
_space_group_symop_operation_xyz
x,y,z
-x,y,1/2-z
-x,-y,-z
x,-y,1/2+z
1/2+x,1/2+y,z
1/2-x,1/2+y,1/2-z
1/2-x,1/2-y,-z
1/2+x,1/2-y,1/2+z
loop_
_atom_site_type_symbol
_atom_site_label
_atom_site_fract_x
_atom_site_fract_y
_atom_site_fract_z
Si Si1 0.355596 0.210055 0.592674
Si Si2 0.923129 0.785858 0.312951
Si Si3 0.180523 0.430151 0.309983
O O1 0.250000 0.250000 0.500000
O O2 0.461443 0.468515 0.640892
O O3 0.252062 0.128991 0.605384
O O4 0.473084 0.965699 0.632059
O O5 0.847864 0.719899 0.225447
O O6 0.784928 0.807843 0.303503
O O7 0.000000 0.335655 0.250000
#
# Coordination Sequence:
#
# PCOD9294842 Si02
#       3
#     8   8   8
#     4  11  26  45  67  98 135 173 216 270 330 389
#     4  11  24  42  67  98 130 173 221 268 325 388
#     4  10  23  41  67  95 129 168 218 269 319 383
#
# _framework density 22.144721000000001
#
# number of rings (size 3 to 8) (size 9 to 14) (size 15 to 20)
#    0.000    1.333    0.000    5.000    0.000   28.000 
#    0.000    0.000    0.000    0.000    0.000    0.000 
#    0.000    0.000    0.000    0.000    0.000    0.000 
#
# Total GULP energy -66938.468583 kJ/mol
# GULP energy per Si atom -5578.205715 kJ/mol
# Density = 2.209432 g / cm^3
# Si number density = 22.144721 Si / 1000 Ang^3
#
#
#
# Elastic Constant Matrix: (Units=GPa)
#
#
# Indices 1 2 3 4 5 6 
#
# 1 188.0322 59.5455 55.9706 0.0005 -36.9660 0.0000
# 2 59.5455 183.7412 63.2584 0.0013 -3.9797 0.0011
# 3 55.9706 63.2584 121.5619 -0.0007 -45.0154 0.0002
# 4 0.0005 0.0013 -0.0007 30.0619 -0.0001 7.2490
# 5 -36.9660 -3.9797 -45.0154 -0.0001 36.2963 0.0002
# 6 0.0000 0.0011 0.0002 7.2490 0.0002 46.8297
#
#
#
# Elastic Compliance Matrix: (Units=1/GPa)
#
#
# Indices 1 2 3 4 5 6 
#
# 1 0.007554 -0.002671 0.001206 0.000000 0.008896 0.000000
# 2 -0.002671 0.008545 -0.007171 -0.000001 -0.010676 0.000000
# 3 0.001206 -0.007171 0.021390 0.000001 0.026970 0.000000
# 4 0.000000 -0.000001 0.000001 0.034555 0.000001 -0.005349
# 5 0.008896 -0.010676 0.026970 0.000001 0.068889 0.000000
# 6 0.000000 0.000000 0.000000 -0.005349 0.000000 0.022182
#
#
# Mechanical properties :
#
#
# Convention : Reuss Voigt Hill
#
# Bulk Modulus (GPa) = 49.45992 94.54273 72.00132
# Shear Modulus (GPa) = 26.72017 43.60828 35.16422
#
# Velocity S-wave (km/s) = 3.47741 4.44243 3.98920
# Velocity P-wave (km/s) = 6.20536 8.31260 7.33505
#
# Compressibility (1/GPa) = 0.02021839
#
# Stress axis : x y z
#
# Youngs Moduli (GPa) = 132.38246 117.02257 46.75157
#
# Poissons Ratio (x) = 0.31251 -0.05638
# Poissons Ratio (y) = 0.35353 0.33524
# Poissons Ratio (z) = -0.15965 0.83913
#
# Static dielectric constant tensor:
#      x y z
#    x 1.841640 0.000000 -0.075990 
#    y 0.000000 1.866900 0.000000 
#    z -0.075990 0.000000 1.938870 
# 
# From -- ./inp_files/179540.got.cif
#   From: 2010.05.17/outbox.cif.g08.bks.cpg/sg15_90_cif.got.tgz:179540.got - 2010.06.03 18:47:42.
