data_PCOD9294909
_publ_section_title
;
Structure prediction by ZEFSAII (Michael W. Deem and Ramdas Pophale) SiO2 
 PCOD9294909
Probable space group: C 2/C
;
_chemical_formula_sum "Si O2"
_cell_formula_units_Z 40
_cell_length_a 18.566904
_cell_length_b 5.140926
_cell_length_c 22.526426
_cell_angle_alpha 90.000000
_cell_angle_beta 131.720236
_cell_angle_gamma 90.000000
_cell_volume 1604.894993
_symmetry_space_group_name_H-M "C 2/C"
_symmetry_group_IT_number 15
_symmetry_cell_setting 'monoclinic'
loop_
_space_group_symop_operation_xyz
x,y,z
-x,y,1/2-z
-x,-y,-z
x,-y,1/2+z
1/2+x,1/2+y,z
1/2-x,1/2+y,1/2-z
1/2-x,1/2-y,-z
1/2+x,1/2-y,1/2+z
loop_
_atom_site_type_symbol
_atom_site_label
_atom_site_fract_x
_atom_site_fract_y
_atom_site_fract_z
Si Si1 0.385837 0.371587 0.172372
Si Si2 0.595811 0.128756 0.887737
Si Si3 0.687149 0.454638 0.639663
Si Si4 0.874035 0.250087 0.270264
Si Si5 0.108136 0.532243 0.033730
O O1 0.500000 0.356280 0.250000
O O2 0.368634 0.586253 0.111538
O O3 0.349069 0.520200 0.210760
O O4 0.169648 0.279509 0.084827
O O5 0.639601 0.909626 0.868277
O O6 0.479697 0.138948 0.814810
O O7 0.610881 0.067804 0.964678
O O8 0.794216 0.525316 0.721046
O O9 0.627956 0.370636 0.665512
O O10 0.647967 0.714090 0.588191
O O11 0.000000 0.500000 0.000000
#
# Coordination Sequence:
#
# PCOD9294909 Si02
#       5
#     8   8   8   8   8
#     4  10  23  41  69 100 137 182 240 292 339 421
#     4  11  24  44  71 100 135 190 242 286 345 428
#     4  12  27  45  72 108 146 183 229 311 362 421
#     4  11  26  46  73 110 144 184 247 296 368 412
#     4  12  26  45  69 104 146 188 240 286 362 436
#
# _framework density 24.923749999999998
#
# number of rings (size 3 to 8) (size 9 to 14) (size 15 to 20)
#    0.000    0.800    2.000    4.800    5.600    8.000 
#    0.000    6.000    0.000    0.000    0.000    0.000 
#    0.000    0.000    0.000    0.000    0.000    0.000 
#
# Total GULP energy -112191.219505 kJ/mol
# GULP energy per Si atom -5609.560975 kJ/mol
# Density = 2.486702 g / cm^3
# Si number density = 24.923750 Si / 1000 Ang^3
#
#
#
# Elastic Constant Matrix: (Units=GPa)
#
#
# Indices 1 2 3 4 5 6 
#
# 1 79.7420 34.4774 37.9408 -0.0002 -32.0138 -0.0005
# 2 34.4774 190.2202 54.8637 -0.0001 -2.8439 -0.0041
# 3 37.9408 54.8637 92.2909 0.0001 -15.9262 -0.0002
# 4 -0.0002 -0.0001 0.0001 42.2762 0.0000 0.8241
# 5 -32.0138 -2.8439 -15.9262 0.0000 51.8108 -0.0002
# 6 -0.0005 -0.0041 -0.0002 0.8241 -0.0002 43.3064
#
#
#
# Elastic Compliance Matrix: (Units=1/GPa)
#
#
# Indices 1 2 3 4 5 6 
#
# 1 0.020235 -0.001983 -0.005281 0.000000 0.010771 0.000000
# 2 -0.001983 0.006576 -0.003424 0.000000 -0.001917 0.000001
# 3 -0.005281 -0.003424 0.015256 0.000000 0.001239 0.000000
# 4 0.000000 0.000000 0.000000 0.023663 0.000000 -0.000450
# 5 0.010771 -0.001917 0.001239 0.000000 0.026232 0.000000
# 6 0.000000 0.000001 0.000000 -0.000450 0.000000 0.023100
#
#
# Mechanical properties :
#
#
# Convention : Reuss Voigt Hill
#
# Bulk Modulus (GPa) = 48.33546 68.53523 58.43535
# Shear Modulus (GPa) = 34.88367 43.14343 39.01355
#
# Velocity S-wave (km/s) = 3.74520 4.16506 3.96070
# Velocity P-wave (km/s) = 6.17556 7.11955 6.66429
#
# Compressibility (1/GPa) = 0.02068875
#
# Stress axis : x y z
#
# Youngs Moduli (GPa) = 49.42018 152.07799 65.54960
#
# Poissons Ratio (x) = 0.30164 0.34615
# Poissons Ratio (y) = 0.09802 0.22447
# Poissons Ratio (z) = 0.26097 0.52078
#
# Static dielectric constant tensor:
#      x y z
#    x 2.032730 0.000000 0.063430 
#    y 0.000000 1.917420 0.000000 
#    z 0.063430 0.000000 1.946880 
# 
# From -- ./inp_files/272416.got.cif
#   From: 2010.05.17/outbox.cif.g08.bks.cpg/sg15_137_cif.got.tgz:272416.got - 2010.06.03 18:47:42.
