data_PCOD9294331
_publ_section_title
;
Structure prediction by ZEFSAII (Michael W. Deem and Ramdas Pophale) SiO2 
 PCOD9294331
Probable space group: C 2/C
;
_chemical_formula_sum "Si O2"
_cell_formula_units_Z 56
_cell_length_a 15.143398
_cell_length_b 22.276959
_cell_length_c 14.661586
_cell_angle_alpha 90.000000
_cell_angle_beta 37.163415
_cell_angle_gamma 90.000000
_cell_volume 2987.872886
_symmetry_space_group_name_H-M "C 2/C"
_symmetry_group_IT_number 15
_symmetry_cell_setting 'monoclinic'
loop_
_space_group_symop_operation_xyz
x,y,z
-x,y,1/2-z
-x,-y,-z
x,-y,1/2+z
1/2+x,1/2+y,z
1/2-x,1/2+y,1/2-z
1/2-x,1/2-y,-z
1/2+x,1/2-y,1/2+z
loop_
_atom_site_type_symbol
_atom_site_label
_atom_site_fract_x
_atom_site_fract_y
_atom_site_fract_z
Si Si1 0.094152 0.777836 0.823382
Si Si2 0.500000 0.627533 0.250000
Si Si3 0.438471 0.136133 0.663754
Si Si4 0.602380 0.242670 0.358849
Si Si5 0.297915 0.923114 0.442322
Si Si6 0.325956 0.697374 0.877933
Si Si7 0.000000 0.533670 0.250000
Si Si8 0.932494 0.626392 0.453128
O O1 0.032025 0.827070 0.806929
O O2 0.064948 0.708141 0.821756
O O3 0.268811 0.784693 0.685790
O O4 0.012144 0.780721 0.988260
O O5 0.361245 0.586753 0.387187
O O6 0.586849 0.109839 0.585004
O O7 0.313091 0.108945 0.831419
O O8 0.423462 0.117789 0.570011
O O9 0.684909 0.282984 0.218247
O O10 0.521396 0.189012 0.373350
O O11 0.361311 0.989755 0.377271
O O12 0.500000 0.690553 0.750000
O O13 0.250000 0.750000 0.000000
O O14 0.224045 0.638900 0.965933
O O15 0.989991 0.574894 0.168471
#
# Coordination Sequence:
#
# PCOD9294331 Si02
#       8
#     8   4   8   8   8   8   4   8
#     4  11  21  33  59  92 128 154 183 234 303 381
#     4  12  22  35  60  88 127 156 190 250 314 346
#     4   9  19  38  62  92 119 160 197 235 301 374
#     4  11  20  35  55  90 127 152 187 232 295 368
#     4  10  23  40  61  85 119 158 212 257 291 345
#     4  12  21  35  56  87 126 160 189 235 298 362
#     4  10  24  45  64  80 109 168 220 256 292 342
#     4  11  21  37  66  86 118 161 205 244 296 357
#
# _framework density 18.742429999999999
#
# number of rings (size 3 to 8) (size 9 to 14) (size 15 to 20)
#    0.000    1.429    4.286    4.286    0.000    4.000 
#    1.286    0.000    0.000    2.571    0.000    0.000 
#    0.000    0.000    0.000    0.000    0.000    0.000 
#
# Total GULP energy -156186.327173 kJ/mol
# GULP energy per Si atom -5578.083113 kJ/mol
# Density = 1.869977 g / cm^3
# Si number density = 18.742430 Si / 1000 Ang^3
#
#
#
# Elastic Constant Matrix: (Units=GPa)
#
#
# Indices 1 2 3 4 5 6 
#
# 1 75.2580 32.5800 36.0613 -0.0010 -11.8335 0.0010
# 2 32.5800 85.7894 50.8539 -0.0023 4.7182 0.0016
# 3 36.0613 50.8539 128.9191 -0.0026 -9.4901 0.0023
# 4 -0.0010 -0.0023 -0.0026 31.0553 0.0002 5.2621
# 5 -11.8335 4.7182 -9.4901 0.0002 42.1943 -0.0004
# 6 0.0010 0.0016 0.0023 5.2621 -0.0004 9.7387
#
#
#
# Elastic Compliance Matrix: (Units=1/GPa)
#
#
# Indices 1 2 3 4 5 6 
#
# 1 0.017622 -0.005569 -0.002362 0.000000 0.005034 0.000000
# 2 -0.005569 0.017384 -0.005651 0.000001 -0.004777 -0.000002
# 3 -0.002362 -0.005651 0.010824 0.000001 0.002404 -0.000002
# 4 0.000000 0.000001 0.000001 0.035446 0.000000 -0.019152
# 5 0.005034 -0.004777 0.002404 0.000000 0.026186 0.000001
# 6 0.000000 -0.000002 -0.000002 -0.019152 0.000001 0.113031
#
#
# Mechanical properties :
#
#
# Convention : Reuss Voigt Hill
#
# Bulk Modulus (GPa) = 53.57553 58.77300 56.17427
# Shear Modulus (GPa) = 19.69448 27.96242 23.82845
#
# Velocity S-wave (km/s) = 3.24512 3.86674 3.56949
# Velocity P-wave (km/s) = 6.53362 7.16672 6.85748
#
# Compressibility (1/GPa) = 0.01866524
#
# Stress axis : x y z
#
# Youngs Moduli (GPa) = 56.74834 57.52431 92.39041
#
# Poissons Ratio (x) = 0.32035 0.21821
# Poissons Ratio (y) = 0.31603 0.52212
# Poissons Ratio (z) = 0.13403 0.32508
#
# Static dielectric constant tensor:
#      x y z
#    x 1.696850 0.000000 -0.008520 
#    y 0.000000 1.629570 0.000000 
#    z -0.008520 0.000000 1.679630 
# 
# From -- ./inp_files/156190.got.cif
#   From: 2010.05.17/outbox.cif.g08.bks.cpg/sg15_79_cif.got.tgz:156190.got - 2010.06.03 18:47:42.
