data_PCOD9294751
_publ_section_title
;
Structure prediction by ZEFSAII (Michael W. Deem and Ramdas Pophale) SiO2 
 PCOD9294751
Probable space group: C 2/C
;
_chemical_formula_sum "Si O2"
_cell_formula_units_Z 36
_cell_length_a 11.487649
_cell_length_b 8.770167
_cell_length_c 20.719755
_cell_angle_alpha 90.000000
_cell_angle_beta 124.329636
_cell_angle_gamma 90.000000
_cell_volume 1723.860188
_symmetry_space_group_name_H-M "C 2/C"
_symmetry_group_IT_number 15
_symmetry_cell_setting 'monoclinic'
loop_
_space_group_symop_operation_xyz
x,y,z
-x,y,1/2-z
-x,-y,-z
x,-y,1/2+z
1/2+x,1/2+y,z
1/2-x,1/2+y,1/2-z
1/2-x,1/2-y,-z
1/2+x,1/2-y,1/2+z
loop_
_atom_site_type_symbol
_atom_site_label
_atom_site_fract_x
_atom_site_fract_y
_atom_site_fract_z
Si Si1 0.453146 0.104838 0.161353
Si Si2 0.282038 0.610407 0.961745
Si Si3 0.500000 0.381357 0.750000
Si Si4 0.691974 0.166497 0.133579
Si Si5 0.352707 0.433180 0.102971
O O1 0.500000 0.096475 0.250000
O O2 0.588449 0.126436 0.158219
O O3 0.358978 0.255737 0.119043
O O4 0.361704 0.961941 0.109899
O O5 0.358398 0.692098 0.925723
O O6 0.250000 0.750000 0.000000
O O7 0.353616 0.483986 0.029183
O O8 0.648611 0.295998 0.792364
O O9 0.517137 0.489055 0.817993
O O10 0.720792 0.018643 0.096757
#
# Coordination Sequence:
#
# PCOD9294751 Si02
#       5
#     8   8   4   8   8
#     4  12  24  40  67  97 125 173 217 255 323 384
#     4  10  23  41  65  96 129 169 214 259 323 384
#     4   8  18  42  62  88 130 164 202 270 316 356
#     4   9  22  43  63  92 132 164 212 266 315 373
#     4   9  20  43  61  91 133 162 212 263 318 376
#
# _framework density 20.883364
#
# number of rings (size 3 to 8) (size 9 to 14) (size 15 to 20)
#    1.333    0.889    1.111    0.667    1.556    8.000 
#    0.000    4.444    0.000    0.000    0.000    0.000 
#    0.000    0.000    0.000    0.000    0.000    0.000 
#
# Total GULP energy -100283.156447 kJ/mol
# GULP energy per Si atom -5571.286469 kJ/mol
# Density = 2.083583 g / cm^3
# Si number density = 20.883364 Si / 1000 Ang^3
#
#
#
# Elastic Constant Matrix: (Units=GPa)
#
#
# Indices 1 2 3 4 5 6 
#
# 1 58.7402 127.2277 -100.1670 0.0000 2.8507 0.0000
# 2 127.2277 -38.6154 343.9886 0.0000 -54.6340 0.0000
# 3 -100.1670 343.9886 -377.2055 0.0000 87.4065 0.0000
# 4 0.0000 0.0000 0.0000 8.9733 0.0000 22.5064
# 5 2.8507 -54.6340 87.4065 0.0000 3.2309 0.0000
# 6 0.0000 0.0000 0.0000 22.5064 0.0000 30.5275
#
#
#
# Elastic Compliance Matrix: (Units=1/GPa)
#
#
# Indices 1 2 3 4 5 6 
#
# 1 0.018410 -0.004272 -0.004029 0.000000 0.020522 0.000000
# 2 -0.004272 0.005019 0.003611 0.000000 -0.009062 0.000000
# 3 -0.004029 0.003611 0.002296 0.000000 0.002518 0.000000
# 4 0.000000 0.000000 0.000000 -0.131240 0.000000 0.096757
# 5 0.020522 -0.009062 0.002518 0.000000 0.070049 0.000000
# 6 0.000000 0.000000 0.000000 0.096757 0.000000 -0.038577
#
#
# Mechanical properties :
#
#
# Convention : Reuss Voigt Hill
#
# Bulk Modulus (GPa) = 61.18473 42.77976 51.98225
# Shear Modulus (GPa) = -84.43790 -39.99567 -62.21678
#
# Velocity S-wave (km/s) = -6.36560 -4.38104 -5.46417
# Velocity P-wave (km/s) = 4.96648 2.24984 3.85537
#
# Compressibility (1/GPa) = 0.01634395
#
# Stress axis : x y z
#
# Youngs Moduli (GPa) = 54.31726 199.25731 435.62032
#
# Poissons Ratio (x) = 0.85126 1.75527
# Poissons Ratio (y) = 0.23205 -1.57313
# Poissons Ratio (z) = 0.21886 -0.71957
#
# Static dielectric constant tensor:
#      x y z
#    x 1.733280 0.000000 0.013370 
#    y 0.000000 1.804660 0.000000 
#    z 0.013370 0.000000 1.770270 
# 
# From -- ./inp_files/195274.got.cif
#   From: 2010.05.17/outbox.cif.g08.bks.cpg/sg15_98_cif.got.tgz:195274.got - 2010.06.03 18:47:42.
