data_PCOD9294464
_publ_section_title
;
Structure prediction by ZEFSAII (Michael W. Deem and Ramdas Pophale) SiO2 
 PCOD9294464
Probable space group: C 2/C
;
_chemical_formula_sum "Si O2"
_cell_formula_units_Z 56
_cell_length_a 6.158572
_cell_length_b 22.205603
_cell_length_c 18.474555
_cell_angle_alpha 90.000000
_cell_angle_beta 110.180895
_cell_angle_gamma 90.000000
_cell_volume 2371.378523
_symmetry_space_group_name_H-M "C 2/C"
_symmetry_group_IT_number 15
_symmetry_cell_setting 'monoclinic'
loop_
_space_group_symop_operation_xyz
x,y,z
-x,y,1/2-z
-x,-y,-z
x,-y,1/2+z
1/2+x,1/2+y,z
1/2-x,1/2+y,1/2-z
1/2-x,1/2-y,-z
1/2+x,1/2-y,1/2+z
loop_
_atom_site_type_symbol
_atom_site_label
_atom_site_fract_x
_atom_site_fract_y
_atom_site_fract_z
Si Si1 0.852550 0.056040 0.957751
Si Si2 0.500000 0.452543 0.250000
Si Si3 0.156101 0.661099 0.010368
Si Si4 0.329960 0.635487 0.613551
Si Si5 0.621387 0.348676 0.613933
Si Si6 0.701567 0.973623 0.828984
Si Si7 0.541008 0.765429 0.642064
Si Si8 0.000000 0.185027 0.250000
O O1 0.033987 0.097798 0.933653
O O2 0.661884 0.027800 0.881408
O O3 0.730244 0.090281 0.010624
O O4 0.000000 0.000000 0.000000
O O5 0.660582 0.406452 0.314353
O O6 0.610827 0.496182 0.202742
O O7 0.429387 0.681294 0.038592
O O8 0.073642 0.700331 0.068783
O O9 0.930975 0.658653 0.933390
O O10 0.480221 0.695925 0.635474
O O11 0.730229 0.414579 0.616625
O O12 0.504151 0.355000 0.678915
O O13 0.826343 0.302270 0.647895
O O14 0.500000 0.956568 0.750000
O O15 0.774846 0.775030 0.712915
#
# Coordination Sequence:
#
# PCOD9294464 Si02
#       8
#     8   4   8   8   8   8   8   4
#     4  11  24  46  66 100 137 180 232 283 341 414
#     4  10  25  46  66  98 134 177 228 284 338 406
#     4  11  24  44  70 102 135 183 227 284 349 410
#     4  11  26  46  71  99 139 180 230 286 347 416
#     4  11  23  42  67 102 142 177 229 287 339 416
#     4  11  22  42  67  97 133 177 226 280 342 404
#     4  11  25  44  70 102 140 179 230 287 347 415
#     4  10  23  40  66 102 132 189 226 280 346 404
#
# _framework density 23.614957
#
# number of rings (size 3 to 8) (size 9 to 14) (size 15 to 20)
#    0.000    1.143    1.429    3.857    2.000    5.143 
#    5.143    0.000    0.000    0.000    0.000    0.000 
#    0.000    0.000    0.000    0.000    0.000    0.000 
#
# Total GULP energy -155901.483122 kJ/mol
# GULP energy per Si atom -5567.910112 kJ/mol
# Density = 2.356121 g / cm^3
# Si number density = 23.614957 Si / 1000 Ang^3
#
#
#
# Elastic Constant Matrix: (Units=GPa)
#
#
# Indices 1 2 3 4 5 6 
#
# 1 39.3858 31.8950 29.1624 0.0000 20.6224 0.0000
# 2 31.8950 124.9501 25.0715 0.0000 -6.9749 0.0000
# 3 29.1624 25.0715 99.1763 0.0000 33.0843 0.0000
# 4 0.0000 0.0000 0.0000 31.8168 0.0000 4.3208
# 5 20.6224 -6.9749 33.0843 0.0000 49.6303 0.0000
# 6 0.0000 0.0000 0.0000 4.3208 0.0000 33.9089
#
#
#
# Elastic Compliance Matrix: (Units=1/GPa)
#
#
# Indices 1 2 3 4 5 6 
#
# 1 0.049172 -0.012609 -0.004969 0.000000 -0.018891 0.000000
# 2 -0.012609 0.012121 -0.002151 0.000000 0.008377 0.000000
# 3 -0.004969 -0.002151 0.014789 0.000000 -0.008096 0.000000
# 4 0.000000 0.000000 0.000000 0.031983 0.000000 -0.004075
# 5 -0.018891 0.008377 -0.008096 0.000000 0.034573 0.000000
# 6 0.000000 0.000000 0.000000 -0.004075 0.000000 0.030010
#
#
# Mechanical properties :
#
#
# Convention : Reuss Voigt Hill
#
# Bulk Modulus (GPa) = 27.30521 48.41890 37.86205
# Shear Modulus (GPa) = 22.29018 34.89674 28.59346
#
# Velocity S-wave (km/s) = 3.07563 3.84831 3.48346
# Velocity P-wave (km/s) = 4.91939 6.34775 5.67866
#
# Compressibility (1/GPa) = 0.03662305
#
# Stress axis : x y z
#
# Youngs Moduli (GPa) = 20.33681 82.50135 67.61948
#
# Poissons Ratio (x) = 1.04028 0.33602
# Poissons Ratio (y) = 0.25643 0.14544
# Poissons Ratio (z) = 0.10106 0.17745
#
# Static dielectric constant tensor:
#      x y z
#    x 1.939380 0.000000 -0.003680 
#    y 0.000000 1.874150 0.000000 
#    z -0.003680 0.000000 2.012620 
# 
# From -- ./inp_files/261769.got.cif
#   From: 2010.05.17/outbox.cif.g08.bks.cpg/sg15_131_cif.got.tgz:261769.got - 2010.06.03 18:47:42.
