data_PCOD9294450
_publ_section_title
;
Structure prediction by ZEFSAII (Michael W. Deem and Ramdas Pophale) SiO2 
 PCOD9294450
Probable space group: C 2/C
;
_chemical_formula_sum "Si O2"
_cell_formula_units_Z 40
_cell_length_a 25.939470
_cell_length_b 5.099324
_cell_length_c 18.465274
_cell_angle_alpha 90.000000
_cell_angle_beta 135.757130
_cell_angle_gamma 90.000000
_cell_volume 1704.115411
_symmetry_space_group_name_H-M "C 2/C"
_symmetry_group_IT_number 15
_symmetry_cell_setting 'monoclinic'
loop_
_space_group_symop_operation_xyz
x,y,z
-x,y,1/2-z
-x,-y,-z
x,-y,1/2+z
1/2+x,1/2+y,z
1/2-x,1/2+y,1/2-z
1/2-x,1/2-y,-z
1/2+x,1/2-y,1/2+z
loop_
_atom_site_type_symbol
_atom_site_label
_atom_site_fract_x
_atom_site_fract_y
_atom_site_fract_z
Si Si1 0.457683 0.706120 0.010472
Si Si2 0.102782 0.444715 0.179897
Si Si3 0.197063 0.441500 0.901660
Si Si4 0.233878 0.053531 0.278893
Si Si5 0.832844 0.289333 0.989496
O O1 0.522859 0.839778 0.122578
O O2 0.500000 0.500000 0.000000
O O3 0.418847 0.909106 0.916068
O O4 0.395330 0.638421 0.007259
O O5 0.142745 0.625448 0.280551
O O6 0.156460 0.193558 0.220839
O O7 0.259551 0.620845 0.928776
O O8 0.250000 0.250000 0.000000
O O9 0.148625 0.595508 0.913230
O O10 0.272057 0.288632 0.271899
O O11 0.294129 0.987353 0.401249
#
# Coordination Sequence:
#
# PCOD9294450 Si02
#       5
#     8   8   8   8   8
#     4  11  23  42  66  97 140 177 236 292 364 426
#     4  10  24  39  63  99 133 180 232 293 351 432
#     4  10  24  43  66  95 138 179 239 292 358 427
#     4  11  22  38  68 101 134 181 236 294 349 408
#     4  10  23  40  65  97 131 183 232 292 349 434
#
# _framework density 23.472587999999998
#
# number of rings (size 3 to 8) (size 9 to 14) (size 15 to 20)
#    0.000    1.600    2.000    1.200    5.600    7.200 
#    0.000    0.000    0.000    0.000    0.000    0.000 
#    0.000    0.000    0.000    0.000    0.000    0.000 
#
# Total GULP energy -111472.438231 kJ/mol
# GULP energy per Si atom -5573.621912 kJ/mol
# Density = 2.341916 g / cm^3
# Si number density = 23.472588 Si / 1000 Ang^3
#
#
#
# Elastic Constant Matrix: (Units=GPa)
#
#
# Indices 1 2 3 4 5 6 
#
# 1 153.6399 20.8350 42.1772 0.0006 4.8222 0.0007
# 2 20.8350 51.8465 18.5754 0.0090 -2.8065 0.0091
# 3 42.1772 18.5754 152.0847 0.0018 -0.1364 0.0021
# 4 0.0006 0.0090 0.0018 40.9423 0.0006 -2.6975
# 5 4.8222 -2.8065 -0.1364 0.0006 29.6476 0.0010
# 6 0.0007 0.0091 0.0021 -2.6975 0.0010 27.5824
#
#
#
# Elastic Compliance Matrix: (Units=1/GPa)
#
#
# Indices 1 2 3 4 5 6 
#
# 1 0.007360 -0.002409 -0.001748 0.000001 -0.001433 0.000001
# 2 -0.002409 0.021066 -0.001903 -0.000005 0.002377 -0.000007
# 3 -0.001748 -0.001903 0.007293 0.000000 0.000138 0.000000
# 4 0.000001 -0.000005 0.000000 0.024583 -0.000001 0.002404
# 5 -0.001433 0.002377 0.000138 -0.000001 0.034188 -0.000002
# 6 0.000001 -0.000007 0.000000 0.002404 -0.000002 0.036490
#
#
# Mechanical properties :
#
#
# Convention : Reuss Voigt Hill
#
# Bulk Modulus (GPa) = 42.37463 57.86071 50.11767
# Shear Modulus (GPa) = 33.11977 38.03334 35.57656
#
# Velocity S-wave (km/s) = 3.76040 4.02970 3.89738
# Velocity P-wave (km/s) = 6.07833 6.80846 6.45373
#
# Compressibility (1/GPa) = 0.02359903
#
# Stress axis : x y z
#
# Youngs Moduli (GPa) = 135.86342 47.46938 137.12432
#
# Poissons Ratio (x) = 0.11436 0.23973
# Poissons Ratio (y) = 0.32730 0.26092
# Poissons Ratio (z) = 0.23753 0.09032
#
# Static dielectric constant tensor:
#      x y z
#    x 2.061950 -0.000010 -0.155310 
#    y -0.000010 2.065600 0.000010 
#    z -0.155310 0.000010 2.104740 
# 
# From -- ./inp_files/220800.got.cif
#   From: 2010.05.17/outbox.cif.g08.bks.cpg/sg15_111_cif.got.tgz:220800.got - 2010.06.03 18:47:42.
