data_PCOD9294091
_publ_section_title
;
Structure prediction by ZEFSAII (Michael W. Deem and Ramdas Pophale) SiO2 
 PCOD9294091
Probable space group: C 2/C
;
_chemical_formula_sum "Si O2"
_cell_formula_units_Z 48
_cell_length_a 14.927268
_cell_length_b 27.339563
_cell_length_c 8.364404
_cell_angle_alpha 90.000000
_cell_angle_beta 137.275341
_cell_angle_gamma 90.000000
_cell_volume 2316.014774
_symmetry_space_group_name_H-M "C 2/C"
_symmetry_group_IT_number 15
_symmetry_cell_setting 'monoclinic'
loop_
_space_group_symop_operation_xyz
x,y,z
-x,y,1/2-z
-x,-y,-z
x,-y,1/2+z
1/2+x,1/2+y,z
1/2-x,1/2+y,1/2-z
1/2-x,1/2-y,-z
1/2+x,1/2-y,1/2+z
loop_
_atom_site_type_symbol
_atom_site_label
_atom_site_fract_x
_atom_site_fract_y
_atom_site_fract_z
Si Si1 0.928921 0.930424 0.434191
Si Si2 0.500000 0.514006 0.750000
Si Si3 0.500000 0.682129 0.750000
Si Si4 0.538197 0.148831 0.984445
Si Si5 0.693237 0.377884 0.714880
Si Si6 0.242544 0.156360 0.638871
Si Si7 0.151732 0.754460 0.221148
O O1 0.903571 0.951527 0.225600
O O2 0.850710 0.883257 0.393061
O O3 0.085448 0.917607 0.627966
O O4 0.916304 0.976759 0.532408
O O5 0.379994 0.650144 0.525873
O O6 0.467610 0.715284 0.858955
O O7 0.500000 0.148823 0.750000
O O8 0.395660 0.143849 0.880558
O O9 0.659690 0.110840 0.156054
O O10 0.602332 0.201384 0.107427
O O11 0.714687 0.348356 0.911679
O O12 0.211285 0.210806 0.661899
O O13 0.250000 0.750000 0.500000
#
# Coordination Sequence:
#
# PCOD9294091 Si02
#       7
#     8   4   4   8   8   8   8
#     4  11  21  41  68  97 123 159 204 259 319 382
#     4  10  23  38  68 102 124 146 204 270 314 383
#     4  12  23  34  58  86 122 162 216 264 300 347
#     4  10  25  40  60  88 127 173 215 258 303 367
#     4  11  22  42  61  91 122 170 206 262 312 372
#     4  11  24  40  65  87 128 171 212 254 318 373
#     4  12  24  39  56  90 129 171 217 260 300 360
#
# _framework density 20.725255000000001
#
# number of rings (size 3 to 8) (size 9 to 14) (size 15 to 20)
#    0.000    1.000    5.000    1.500    2.333    1.333 
#    0.000    0.000    0.000    6.000    0.000    0.000 
#    0.000    0.000    0.000    0.000    0.000    0.000 
#
# Total GULP energy -133798.773283 kJ/mol
# GULP energy per Si atom -5574.948887 kJ/mol
# Density = 2.067808 g / cm^3
# Si number density = 20.725255 Si / 1000 Ang^3
#
#
#
# Elastic Constant Matrix: (Units=GPa)
#
#
# Indices 1 2 3 4 5 6 
#
# 1 82.4634 28.8069 23.3055 0.0000 13.8312 0.0000
# 2 28.8069 74.1173 25.0279 0.0000 9.9731 0.0000
# 3 23.3055 25.0279 85.9638 0.0000 24.7428 0.0000
# 4 0.0000 0.0000 0.0000 21.1408 0.0000 -13.6313
# 5 13.8312 9.9731 24.7428 0.0000 31.4165 0.0000
# 6 0.0000 0.0000 0.0000 -13.6313 0.0000 28.8443
#
#
#
# Elastic Compliance Matrix: (Units=1/GPa)
#
#
# Indices 1 2 3 4 5 6 
#
# 1 0.014860 -0.004739 -0.001551 0.000000 -0.003817 0.000000
# 2 -0.004739 0.016545 -0.003389 0.000000 -0.000497 0.000000
# 3 -0.001551 -0.003389 0.016208 0.000000 -0.011006 0.000000
# 4 0.000000 0.000000 0.000000 0.068032 0.000000 0.032151
# 5 -0.003817 -0.000497 -0.011006 0.000000 0.042337 0.000000
# 6 0.000000 0.000000 0.000000 0.032151 0.000000 0.049863
#
#
# Mechanical properties :
#
#
# Convention : Reuss Voigt Hill
#
# Bulk Modulus (GPa) = 35.39023 44.09167 39.74095
# Shear Modulus (GPa) = 21.13083 27.30728 24.21905
#
# Velocity S-wave (km/s) = 3.19653 3.63379 3.42215
# Velocity P-wave (km/s) = 5.54407 6.23911 5.90183
#
# Compressibility (1/GPa) = 0.02825638
#
# Stress axis : x y z
#
# Youngs Moduli (GPa) = 67.29341 60.44046 61.69832
#
# Poissons Ratio (x) = 0.28640 0.09567
# Poissons Ratio (y) = 0.31887 0.20912
# Poissons Ratio (z) = 0.10434 0.20486
#
# Static dielectric constant tensor:
#      x y z
#    x 1.856240 0.000000 0.027110 
#    y 0.000000 1.759120 0.000000 
#    z 0.027110 0.000000 1.786110 
# 
# From -- ./inp_files/33454.got.cif
#   From: 2010.05.17/outbox.cif.g08.bks.cpg/sg15_17_cif.got.tgz:33454.got - 2010.06.03 18:47:42.
