data_PCOD9294102
_publ_section_title
;
Structure prediction by ZEFSAII (Michael W. Deem and Ramdas Pophale) SiO2 
 PCOD9294102
Probable space group: C 2/C
;
_chemical_formula_sum "Si O2"
_cell_formula_units_Z 52
_cell_length_a 7.887596
_cell_length_b 27.077020
_cell_length_c 13.248496
_cell_angle_alpha 90.000000
_cell_angle_beta 133.711067
_cell_angle_gamma 90.000000
_cell_volume 2045.269234
_symmetry_space_group_name_H-M "C 2/C"
_symmetry_group_IT_number 15
_symmetry_cell_setting 'monoclinic'
loop_
_space_group_symop_operation_xyz
x,y,z
-x,y,1/2-z
-x,-y,-z
x,-y,1/2+z
1/2+x,1/2+y,z
1/2-x,1/2+y,1/2-z
1/2-x,1/2-y,-z
1/2+x,1/2-y,1/2+z
loop_
_atom_site_type_symbol
_atom_site_label
_atom_site_fract_x
_atom_site_fract_y
_atom_site_fract_z
Si Si1 0.494217 0.276110 0.126995
Si Si2 0.257510 0.368947 0.956434
Si Si3 0.773405 0.447683 0.091722
Si Si4 0.500000 0.774415 0.250000
Si Si5 0.630139 0.464445 0.409332
Si Si6 0.242265 0.160137 0.487055
Si Si7 0.755134 0.655725 0.256472
O O1 0.500000 0.275279 0.250000
O O2 0.733934 0.255130 0.172481
O O3 0.250000 0.250000 0.000000
O O4 0.466858 0.333901 0.081250
O O5 0.271450 0.385620 0.844099
O O6 0.029915 0.333574 0.861371
O O7 0.217479 0.414773 0.013942
O O8 0.560862 0.455385 0.081637
O O9 0.000000 0.459518 0.250000
O O10 0.756406 0.485108 0.991080
O O11 0.773882 0.391413 0.056860
O O12 0.572637 0.804576 0.381807
O O13 0.500000 0.466605 0.250000
O O14 0.246265 0.145591 0.370933
O O15 0.979634 0.185029 0.376251
#
# Coordination Sequence:
#
# PCOD9294102 Si02
#       7
#     8   8   8   4   8   8   8
#     4  12  29  50  80 112 150 192 245 315 376 452
#     4  11  23  46  70 103 140 187 243 298 363 446
#     4  11  25  40  60  94 143 182 241 302 354 420
#     4  12  24  50  78 112 150 202 246 296 384 452
#     4  11  26  41  63  95 136 191 241 299 364 425
#     4  11  22  42  70 108 137 194 241 300 348 441
#     4  10  23  38  75 100 138 182 246 290 358 423
#
# _framework density 25.424526
#
# number of rings (size 3 to 8) (size 9 to 14) (size 15 to 20)
#    0.000    0.923    3.846    1.385    8.615    1.231 
#    0.000    1.538    0.000    0.000    0.000    0.000 
#    0.000    0.000    0.000    0.000    0.000    0.000 
#
# Total GULP energy -144910.277278 kJ/mol
# GULP energy per Si atom -5573.472203 kJ/mol
# Density = 2.536666 g / cm^3
# Si number density = 25.424526 Si / 1000 Ang^3
#
#
#
# Elastic Constant Matrix: (Units=GPa)
#
#
# Indices 1 2 3 4 5 6 
#
# 1 94.0078 18.6108 49.4199 0.0000 -8.3286 0.0000
# 2 18.6108 116.4375 62.1268 0.0000 -5.9707 0.0000
# 3 49.4199 62.1268 211.4903 0.0000 -26.8005 0.0000
# 4 0.0000 0.0000 0.0000 17.1537 0.0000 8.6945
# 5 -8.3286 -5.9707 -26.8005 0.0000 66.9352 0.0000
# 6 0.0000 0.0000 0.0000 8.6945 0.0000 -12.3357
#
#
#
# Elastic Compliance Matrix: (Units=1/GPa)
#
#
# Indices 1 2 3 4 5 6 
#
# 1 0.012163 -0.000515 -0.002639 0.000000 0.000411 0.000000
# 2 -0.000515 0.010212 -0.002920 0.000000 -0.000322 0.000000
# 3 -0.002639 -0.002920 0.006456 0.000000 0.001996 0.000000
# 4 0.000000 0.000000 0.000000 0.042952 0.000000 0.030274
# 5 0.000411 -0.000322 0.001996 0.000000 0.015761 0.000000
# 6 0.000000 0.000000 0.000000 0.030274 0.000000 -0.059728
#
#
# Mechanical properties :
#
#
# Convention : Reuss Voigt Hill
#
# Bulk Modulus (GPa) = 59.94292 75.80564 67.87428
# Shear Modulus (GPa) = 109.82706 33.80251 71.81479
#
# Velocity S-wave (km/s) = 6.57959 3.65022 5.32049
# Velocity P-wave (km/s) = 9.01939 6.90262 8.03105
#
# Compressibility (1/GPa) = 0.01668254
#
# Stress axis : x y z
#
# Youngs Moduli (GPa) = 82.21655 97.92083 154.89891
#
# Poissons Ratio (x) = 0.05043 0.40875
# Poissons Ratio (y) = 0.04234 0.45238
# Poissons Ratio (z) = 0.21695 0.28597
#
# Static dielectric constant tensor:
#      x y z
#    x 2.269020 0.000000 0.085290 
#    y 0.000000 2.060270 0.000000 
#    z 0.085290 0.000000 1.958380 
# 
# From -- ./inp_files/139895.got.cif
#   From: 2010.05.17/outbox.cif.g08.bks.cpg/sg15_70_cif.got.tgz:139895.got - 2010.06.03 18:47:42.
