data_PCOD9294749
_publ_section_title
;
Structure prediction by ZEFSAII (Michael W. Deem and Ramdas Pophale) SiO2 
 PCOD9294749
Probable space group: C 2/C
;
_chemical_formula_sum "Si O2"
_cell_formula_units_Z 64
_cell_length_a 11.720618
_cell_length_b 30.895795
_cell_length_c 18.000968
_cell_angle_alpha 90.000000
_cell_angle_beta 29.683300
_cell_angle_gamma 90.000000
_cell_volume 3227.982542
_symmetry_space_group_name_H-M "C 2/C"
_symmetry_group_IT_number 15
_symmetry_cell_setting 'monoclinic'
loop_
_space_group_symop_operation_xyz
x,y,z
-x,y,1/2-z
-x,-y,-z
x,-y,1/2+z
1/2+x,1/2+y,z
1/2-x,1/2+y,1/2-z
1/2-x,1/2-y,-z
1/2+x,1/2-y,1/2+z
loop_
_atom_site_type_symbol
_atom_site_label
_atom_site_fract_x
_atom_site_fract_y
_atom_site_fract_z
Si Si1 0.408099 0.956424 0.883048
Si Si2 0.175007 0.293923 0.082339
Si Si3 0.631412 0.627436 0.493764
Si Si4 0.583365 0.124573 0.788979
Si Si5 0.287286 0.951629 0.514442
Si Si6 0.172647 0.835469 0.810513
Si Si7 0.099178 0.289964 0.611174
Si Si8 0.699328 0.422088 0.730726
O O1 0.500000 0.969774 0.750000
O O2 0.612789 0.938036 0.817725
O O3 0.226770 0.917855 0.970567
O O4 0.318863 0.998762 0.975473
O O5 0.000000 0.284437 0.250000
O O6 0.041272 0.331472 0.111756
O O7 0.250000 0.250000 0.000000
O O8 0.420660 0.315466 0.963894
O O9 0.355718 0.627955 0.646205
O O10 0.718216 0.637234 0.360614
O O11 0.741574 0.667128 0.477218
O O12 0.500000 0.123149 0.750000
O O13 0.492279 0.080287 0.875552
O O14 0.250142 0.943378 0.622680
O O15 0.058333 0.935635 0.601504
O O16 0.372260 0.800025 0.691213
O O17 0.191124 0.870017 0.734156
O O18 0.250000 0.250000 0.500000
O O19 0.000000 0.282206 0.750000
#
# Coordination Sequence:
#
# PCOD9294749 Si02
#       8
#     8   8   8   8   8   8   8   8
#     4  12  24  41  71  98 125 176 234 272 333 410
#     4  11  24  39  65 101 138 175 229 285 339 406
#     4  11  21  42  68  96 128 172 229 283 324 400
#     4  11  22  43  64  94 134 169 222 277 335 399
#     4  11  26  41  65  98 135 175 214 284 346 401
#     4  11  20  43  72  91 133 181 225 277 337 402
#     4  10  23  41  65  95 131 175 224 280 336 403
#     4  11  23  46  64  94 137 175 221 275 342 403
#
# _framework density 19.826625
#
# number of rings (size 3 to 8) (size 9 to 14) (size 15 to 20)
#    0.000    1.000    6.250    1.125    3.500    1.500 
#    2.250    0.000    0.000    0.000    0.000    0.000 
#    0.000    0.000    0.000    0.000    0.000    0.000 
#
# Total GULP energy -178647.997366 kJ/mol
# GULP energy per Si atom -5582.749918 kJ/mol
# Density = 1.978150 g / cm^3
# Si number density = 19.826625 Si / 1000 Ang^3
#
#
#
# Elastic Constant Matrix: (Units=GPa)
#
#
# Indices 1 2 3 4 5 6 
#
# 1 77.4346 34.4564 46.0232 0.0000 -21.0028 0.0001
# 2 34.4564 152.0706 70.3186 0.0000 1.4183 0.0000
# 3 46.0232 70.3186 114.0230 0.0000 -26.9902 0.0000
# 4 0.0000 0.0000 0.0000 37.9700 0.0000 2.0650
# 5 -21.0028 1.4183 -26.9902 0.0000 35.9876 0.0000
# 6 0.0001 0.0000 0.0000 2.0650 0.0000 21.9810
#
#
#
# Elastic Compliance Matrix: (Units=1/GPa)
#
#
# Indices 1 2 3 4 5 6 
#
# 1 0.018563 -0.002327 -0.004221 0.000000 0.007759 0.000000
# 2 -0.002327 0.010529 -0.007263 0.000000 -0.007220 0.000000
# 3 -0.004221 -0.007263 0.017554 0.000000 0.010988 0.000000
# 4 0.000000 0.000000 0.000000 0.026472 0.000000 -0.002487
# 5 0.007759 -0.007220 0.010988 0.000000 0.040841 0.000000
# 6 0.000000 0.000000 0.000000 -0.002487 0.000000 0.045727
#
#
# Mechanical properties :
#
#
# Convention : Reuss Voigt Hill
#
# Bulk Modulus (GPa) = 52.56432 71.68051 62.12242
# Shear Modulus (GPa) = 25.81982 32.03638 28.92810
#
# Velocity S-wave (km/s) = 3.61263 4.02409 3.82390
# Velocity P-wave (km/s) = 6.63106 7.60416 7.13422
#
# Compressibility (1/GPa) = 0.01902431
#
# Stress axis : x y z
#
# Youngs Moduli (GPa) = 53.87139 94.97591 56.96634
#
# Poissons Ratio (x) = 0.22096 0.24045
# Poissons Ratio (y) = 0.12533 0.41376
# Poissons Ratio (z) = 0.22739 0.68984
#
# Static dielectric constant tensor:
#      x y z
#    x 1.706900 0.000000 0.000300 
#    y 0.000000 1.720940 0.000000 
#    z 0.000300 0.000000 1.691400 
# 
# From -- ./inp_files/201442.got.cif
#   From: 2010.05.17/outbox.cif.g08.bks.cpg/sg15_101_cif.got.tgz:201442.got - 2010.06.03 18:47:42.
