data_PCOD9294503
_publ_section_title
;
Structure prediction by ZEFSAII (Michael W. Deem and Ramdas Pophale) SiO2 
 PCOD9294503
Probable space group: C 2/C
;
_chemical_formula_sum "Si O2"
_cell_formula_units_Z 40
_cell_length_a 16.294699
_cell_length_b 13.315698
_cell_length_c 8.721164
_cell_angle_alpha 90.000000
_cell_angle_beta 122.415692
_cell_angle_gamma 90.000000
_cell_volume 1597.424642
_symmetry_space_group_name_H-M "C 2/C"
_symmetry_group_IT_number 15
_symmetry_cell_setting 'monoclinic'
loop_
_space_group_symop_operation_xyz
x,y,z
-x,y,1/2-z
-x,-y,-z
x,-y,1/2+z
1/2+x,1/2+y,z
1/2-x,1/2+y,1/2-z
1/2-x,1/2-y,-z
1/2+x,1/2-y,1/2+z
loop_
_atom_site_type_symbol
_atom_site_label
_atom_site_fract_x
_atom_site_fract_y
_atom_site_fract_z
Si Si1 0.196009 0.423394 0.883500
Si Si2 0.633410 0.220412 0.792850
Si Si3 0.944858 0.666198 0.451039
Si Si4 0.192935 0.839761 0.239951
Si Si5 0.183567 0.062082 0.292958
O O1 0.090524 0.422235 0.698695
O O2 0.106161 0.237420 0.678068
O O3 0.261818 0.399171 0.802710
O O4 0.238282 0.524104 0.002252
O O5 0.558007 0.176986 0.592362
O O6 0.741486 0.195519 0.839226
O O7 0.620762 0.342957 0.783794
O O8 0.599783 0.173649 0.921438
O O9 0.773734 0.346973 0.454187
O O10 0.145673 0.952334 0.197812
#
# Coordination Sequence:
#
# PCOD9294503 Si02
#       5
#     8   8   8   8   8
#     4  10  23  40  67 102 132 187 236 277 349 411
#     4  11  24  42  71 102 142 181 235 285 358 408
#     4  11  23  42  70 102 139 188 226 289 348 422
#     4  10  23  42  68  98 137 189 229 285 345 416
#     4  10  23  41  67 102 136 187 229 292 340 421
#
# _framework density 25.040305
#
# number of rings (size 3 to 8) (size 9 to 14) (size 15 to 20)
#    1.200    0.400    2.000    2.400    2.800    1.600 
#    0.000    1.000    0.000    0.000    0.000    0.000 
#    0.000    0.000    0.000    0.000    0.000    0.000 
#
# Total GULP energy -111373.746479 kJ/mol
# GULP energy per Si atom -5568.687324 kJ/mol
# Density = 2.498331 g / cm^3
# Si number density = 25.040305 Si / 1000 Ang^3
#
#
#
# Elastic Constant Matrix: (Units=GPa)
#
#
# Indices 1 2 3 4 5 6 
#
# 1 54.2368 -1.9385 3.0301 0.0000 -16.1041 0.0000
# 2 -1.9385 91.3545 -3.8842 0.0000 -18.6852 0.0000
# 3 3.0301 -3.8842 120.2942 0.0000 -14.0522 0.0000
# 4 0.0000 0.0000 0.0000 42.5549 0.0000 -5.5647
# 5 -16.1041 -18.6852 -14.0522 0.0000 34.3748 0.0000
# 6 0.0000 0.0000 0.0000 -5.5647 0.0000 15.7358
#
#
#
# Elastic Compliance Matrix: (Units=1/GPa)
#
#
# Indices 1 2 3 4 5 6 
#
# 1 0.022194 0.003064 0.000997 0.000000 0.012471 0.000000
# 2 0.003064 0.012917 0.001394 0.000000 0.009027 0.000000
# 3 0.000997 0.001394 0.008901 0.000000 0.004864 0.000000
# 4 0.000000 0.000000 0.000000 0.024638 0.000000 0.008713
# 5 0.012471 0.009027 0.004864 0.000000 0.041828 0.000000
# 6 0.000000 0.000000 0.000000 0.008713 0.000000 0.066631
#
#
# Mechanical properties :
#
#
# Convention : Reuss Voigt Hill
#
# Bulk Modulus (GPa) = 18.20748 28.92224 23.56486
# Shear Modulus (GPa) = 27.09923 36.44497 31.77210
#
# Velocity S-wave (km/s) = 3.29329 3.81918 3.56594
# Velocity P-wave (km/s) = 4.66348 5.56987 5.13671
#
# Compressibility (1/GPa) = 0.05492247
#
# Stress axis : x y z
#
# Youngs Moduli (GPa) = 45.05649 77.41754 112.34679
#
# Poissons Ratio (x) = -0.23721 -0.11197
# Poissons Ratio (y) = -0.13805 -0.15665
# Poissons Ratio (z) = -0.04491 -0.10795
#
# Static dielectric constant tensor:
#      x y z
#    x 1.934130 0.000000 -0.018630 
#    y 0.000000 2.116190 0.000000 
#    z -0.018630 0.000000 2.043750 
# 
# From -- ./inp_files/117757.got.cif
#   From: 2010.05.17/outbox.cif.g08.bks.cpg/sg15_59_cif.got.tgz:117757.got - 2010.06.03 18:47:42.
