data_PCOD9294550
_publ_section_title
;
Structure prediction by ZEFSAII (Michael W. Deem and Ramdas Pophale) SiO2 
 PCOD9294550
Probable space group: C 2/C
;
_chemical_formula_sum "Si O2"
_cell_formula_units_Z 56
_cell_length_a 17.218652
_cell_length_b 10.789102
_cell_length_c 14.218253
_cell_angle_alpha 90.000000
_cell_angle_beta 103.117966
_cell_angle_gamma 90.000000
_cell_volume 2572.451608
_symmetry_space_group_name_H-M "C 2/C"
_symmetry_group_IT_number 15
_symmetry_cell_setting 'monoclinic'
loop_
_space_group_symop_operation_xyz
x,y,z
-x,y,1/2-z
-x,-y,-z
x,-y,1/2+z
1/2+x,1/2+y,z
1/2-x,1/2+y,1/2-z
1/2-x,1/2-y,-z
1/2+x,1/2-y,1/2+z
loop_
_atom_site_type_symbol
_atom_site_label
_atom_site_fract_x
_atom_site_fract_y
_atom_site_fract_z
Si Si1 0.353319 0.354838 0.751230
Si Si2 0.701111 0.514598 0.595911
Si Si3 0.046051 0.381234 0.468946
Si Si4 0.000000 0.451830 0.250000
Si Si5 0.500000 0.535641 0.750000
Si Si6 0.154006 0.576900 0.733016
Si Si7 0.467843 0.625148 0.941556
Si Si8 0.722202 0.047999 0.077364
O O1 0.326480 0.399551 0.847516
O O2 0.422914 0.446366 0.735625
O O3 0.379707 0.214543 0.768496
O O4 0.280153 0.367105 0.657461
O O5 0.777991 0.562879 0.671766
O O6 0.627744 0.609369 0.582060
O O7 0.726776 0.496358 0.495652
O O8 0.012547 0.252899 0.501517
O O9 0.140578 0.390750 0.517288
O O10 0.000000 0.500000 0.500000
O O11 0.032378 0.387705 0.353811
O O12 0.919254 0.516564 0.266423
O O13 0.499048 0.617336 0.843731
O O14 0.192107 0.554934 0.642371
O O15 0.500000 0.500000 0.000000
#
# Coordination Sequence:
#
# PCOD9294550 Si02
#       8
#     8   8   8   4   4   8   8   8
#     4  10  23  40  68  98 133 174 221 271 336 397
#     4  10  23  41  63  95 132 173 219 274 334 400
#     4  12  27  45  68 100 134 178 233 279 340 403
#     4  12  25  41  70  94 132 180 228 284 336 400
#     4  10  23  45  68 100 140 172 220 282 336 398
#     4  11  23  40  66  97 129 175 224 274 332 400
#     4  11  26  43  70 103 134 181 227 278 342 402
#     4  11  23  43  64  94 134 175 219 275 332 402
#
# _framework density 21.769116
#
# number of rings (size 3 to 8) (size 9 to 14) (size 15 to 20)
#    0.000    1.143    2.857    2.143    8.000    2.286 
#    0.000    4.286    0.000    0.000    0.000    0.000 
#    0.000    0.000    0.000    0.000    0.000    0.000 
#
# Total GULP energy -156398.407884 kJ/mol
# GULP energy per Si atom -5585.657424 kJ/mol
# Density = 2.171957 g / cm^3
# Si number density = 21.769116 Si / 1000 Ang^3
#
#
#
# Elastic Constant Matrix: (Units=GPa)
#
#
# Indices 1 2 3 4 5 6 
#
# 1 107.7165 15.2297 38.7011 0.0000 -22.4908 0.0000
# 2 15.2297 69.6780 31.2362 0.0000 -15.2289 0.0000
# 3 38.7011 31.2362 154.9370 0.0000 -34.0315 0.0000
# 4 0.0000 0.0000 0.0000 8.2993 0.0000 -1.0745
# 5 -22.4908 -15.2289 -34.0315 0.0000 65.3300 0.0000
# 6 0.0000 0.0000 0.0000 -1.0745 0.0000 16.8311
#
#
#
# Elastic Compliance Matrix: (Units=1/GPa)
#
#
# Indices 1 2 3 4 5 6 
#
# 1 0.010616 -0.000923 -0.001931 0.000000 0.002434 0.000000
# 2 -0.000923 0.016165 -0.002564 0.000000 0.002115 0.000000
# 3 -0.001931 -0.002564 0.008103 0.000000 0.002959 0.000000
# 4 0.000000 0.000000 0.000000 0.121497 0.000000 0.007757
# 5 0.002434 0.002115 0.002959 0.000000 0.018179 0.000000
# 6 0.000000 0.000000 0.000000 0.007757 0.000000 0.059909
#
#
# Mechanical properties :
#
#
# Convention : Reuss Voigt Hill
#
# Bulk Modulus (GPa) = 41.58211 55.85172 48.71691
# Shear Modulus (GPa) = 19.73777 34.56971 27.15374
#
# Velocity S-wave (km/s) = 3.01439 3.98932 3.53562
# Velocity P-wave (km/s) = 5.59091 6.85067 6.25260
#
# Compressibility (1/GPa) = 0.02404880
#
# Stress axis : x y z
#
# Youngs Moduli (GPa) = 94.19675 61.86179 123.40523
#
# Poissons Ratio (x) = 0.05708 0.23832
# Poissons Ratio (y) = 0.08692 0.31640
# Poissons Ratio (z) = 0.18191 0.15861
#
# Static dielectric constant tensor:
#      x y z
#    x 1.835910 0.000000 0.005840 
#    y 0.000000 1.788340 0.000000 
#    z 0.005840 0.000000 1.804210 
# 
# From -- ./inp_files/161036.got.cif
#   From: 2010.05.17/outbox.cif.g08.bks.cpg/sg15_81_cif.got.tgz:161036.got - 2010.06.03 18:47:42.
