data_PCOD9294654
_publ_section_title
;
Structure prediction by ZEFSAII (Michael W. Deem and Ramdas Pophale) SiO2 
 PCOD9294654
Probable space group: C 2/C
;
_chemical_formula_sum "Si O2"
_cell_formula_units_Z 48
_cell_length_a 14.910672
_cell_length_b 29.867991
_cell_length_c 13.737048
_cell_angle_alpha 90.000000
_cell_angle_beta 161.052062
_cell_angle_gamma 90.000000
_cell_volume 1986.510198
_symmetry_space_group_name_H-M "C 2/C"
_symmetry_group_IT_number 15
_symmetry_cell_setting 'monoclinic'
loop_
_space_group_symop_operation_xyz
x,y,z
-x,y,1/2-z
-x,-y,-z
x,-y,1/2+z
1/2+x,1/2+y,z
1/2-x,1/2+y,1/2-z
1/2-x,1/2-y,-z
1/2+x,1/2-y,1/2+z
loop_
_atom_site_type_symbol
_atom_site_label
_atom_site_fract_x
_atom_site_fract_y
_atom_site_fract_z
Si Si1 0.191199 0.043392 0.208851
Si Si2 0.157414 0.219497 0.255701
Si Si3 0.177633 0.403525 0.259639
Si Si4 0.648257 0.838248 0.721292
Si Si5 0.500000 0.156407 0.750000
Si Si6 0.500000 0.783259 0.750000
Si Si7 0.748348 0.579783 0.064404
O O1 0.468163 0.053899 0.554538
O O2 0.307052 0.050803 0.218959
O O3 0.974187 0.080305 0.026854
O O4 0.000000 0.000000 0.000000
O O5 0.197056 0.194821 0.193222
O O6 0.288793 0.187172 0.471580
O O7 0.845202 0.235497 0.949680
O O8 0.167899 0.375178 0.348128
O O9 0.046464 0.370046 0.044161
O O10 0.484691 0.811900 0.636037
O O11 0.837422 0.872328 0.977827
O O12 0.250000 0.750000 0.500000
O O13 0.000000 0.585545 0.250000
O O14 0.500000 0.559054 0.750000
#
# Coordination Sequence:
#
# PCOD9294654 Si02
#       7
#     8   8   8   8   4   4   8
#     4  11  24  45  68  99 138 165 211 273 332 386
#     4  11  24  41  64  95 131 171 219 273 333 373
#     4  10  24  43  70  96 129 179 216 264 328 392
#     4  10  23  41  63  89 130 172 218 266 313 397
#     4  10  24  44  70  97 132 172 228 271 322 398
#     4  12  26  36  56  87 124 164 212 269 322 360
#     4  11  23  41  68  97 125 176 223 257 323 396
#
# _framework density 24.162976
#
# number of rings (size 3 to 8) (size 9 to 14) (size 15 to 20)
#    0.000    1.333    0.833    4.000    1.167   12.667 
#    4.500    0.000    0.000    0.000    0.000    0.000 
#    0.000    0.000    0.000    0.000    0.000    0.000 
#
# Total GULP energy -134325.310767 kJ/mol
# GULP energy per Si atom -5596.887949 kJ/mol
# Density = 2.410798 g / cm^3
# Si number density = 24.162976 Si / 1000 Ang^3
#
#
#
# Elastic Constant Matrix: (Units=GPa)
#
#
# Indices 1 2 3 4 5 6 
#
# 1 148.2556 45.9108 9.6232 0.0025 6.5745 0.0010
# 2 45.9108 89.0340 -1.4536 0.0012 9.4136 -0.0006
# 3 9.6232 -1.4536 67.7895 0.0059 23.0568 -0.0011
# 4 0.0025 0.0012 0.0059 30.8003 0.0014 18.4997
# 5 6.5745 9.4136 23.0568 0.0014 28.4080 0.0007
# 6 0.0010 -0.0006 -0.0011 18.4997 0.0007 18.2401
#
#
#
# Elastic Compliance Matrix: (Units=1/GPa)
#
#
# Indices 1 2 3 4 5 6 
#
# 1 0.008142 -0.004304 -0.001509 0.000000 0.000767 -0.000001
# 2 -0.004304 0.014148 0.002998 -0.000003 -0.006125 0.000004
# 3 -0.001509 0.002998 0.021064 -0.000011 -0.017740 0.000014
# 4 0.000000 -0.000003 -0.000011 0.083075 0.000008 -0.084258
# 5 0.000767 -0.006125 -0.017740 0.000008 0.051452 -0.000012
# 6 -0.000001 0.000004 0.000014 -0.084258 -0.000012 0.140281
#
#
# Mechanical properties :
#
#
# Convention : Reuss Voigt Hill
#
# Bulk Modulus (GPa) = 26.50921 45.91555 36.21238
# Shear Modulus (GPa) = 14.86474 32.22294 23.54384
#
# Velocity S-wave (km/s) = 2.48299 3.65577 3.12489
# Velocity P-wave (km/s) = 4.38351 6.07151 5.29520
#
# Compressibility (1/GPa) = 0.03772274
#
# Stress axis : x y z
#
# Youngs Moduli (GPa) = 122.82120 70.68325 47.47471
#
# Poissons Ratio (x) = 0.30423 0.07163
# Poissons Ratio (y) = 0.52863 -0.14231
# Poissons Ratio (z) = 0.18531 -0.21188
#
# Static dielectric constant tensor:
#      x y z
#    x 1.861370 0.000000 -0.020240 
#    y 0.000000 1.990940 0.000000 
#    z -0.020240 0.000000 1.906220 
# 
# From -- ./inp_files/157768.got.cif
#   From: 2010.05.17/outbox.cif.g08.bks.cpg/sg15_79_cif.got.tgz:157768.got - 2010.06.03 18:47:42.
