data_PCOD9294640
_publ_section_title
;
Structure prediction by ZEFSAII (Michael W. Deem and Ramdas Pophale) SiO2 
 PCOD9294640
Probable space group: C 2/C
;
_chemical_formula_sum "Si O2"
_cell_formula_units_Z 32
_cell_length_a 28.871702
_cell_length_b 6.994797
_cell_length_c 10.857470
_cell_angle_alpha 90.000000
_cell_angle_beta 41.618966
_cell_angle_gamma 90.000000
_cell_volume 1456.323380
_symmetry_space_group_name_H-M "C 2/C"
_symmetry_group_IT_number 15
_symmetry_cell_setting 'monoclinic'
loop_
_space_group_symop_operation_xyz
x,y,z
-x,y,1/2-z
-x,-y,-z
x,-y,1/2+z
1/2+x,1/2+y,z
1/2-x,1/2+y,1/2-z
1/2-x,1/2-y,-z
1/2+x,1/2-y,1/2+z
loop_
_atom_site_type_symbol
_atom_site_label
_atom_site_fract_x
_atom_site_fract_y
_atom_site_fract_z
Si Si1 0.183437 0.579532 0.748545
Si Si2 0.173830 0.304435 0.998342
Si Si3 0.458093 0.287300 0.449677
Si Si4 0.019859 0.792972 0.834353
O O1 0.172777 0.408774 0.867794
O O2 0.177431 0.552348 0.611171
O O3 0.258477 0.672036 0.625379
O O4 0.122156 0.731420 0.899146
O O5 0.103360 0.181122 0.157307
O O6 0.500000 0.219239 0.250000
O O7 0.489738 0.206253 0.512932
O O8 0.473669 0.514463 0.425094
O O9 0.000000 0.684781 0.750000
#
# Coordination Sequence:
#
# PCOD9294640 Si02
#       4
#     8   8   8   8
#     4  10  23  41  62  93 129 164 207 256 309 370
#     4  10  23  41  62  93 129 164 207 256 309 370
#     4   9  19  36  60  88 119 158 205 252 304 363
#     4   9  19  36  60  88 119 158 205 252 304 363
#
# _framework density 21.973144000000001
#
# number of rings (size 3 to 8) (size 9 to 14) (size 15 to 20)
#    0.000    2.500    0.000    0.000    7.000    4.000 
#    0.000    5.000    0.000    0.000    0.000    0.000 
#    0.000    0.000    0.000    0.000    0.000    0.000 
#
# Total GULP energy -89159.818518 kJ/mol
# GULP energy per Si atom -5572.488657 kJ/mol
# Density = 2.192313 g / cm^3
# Si number density = 21.973144 Si / 1000 Ang^3
#
#
#
# Elastic Constant Matrix: (Units=GPa)
#
#
# Indices 1 2 3 4 5 6 
#
# 1 109.2704 -5.7960 35.1395 0.0000 16.1984 -0.0001
# 2 -5.7960 61.8630 -2.0302 0.0000 -6.9524 -0.0002
# 3 35.1395 -2.0302 95.7349 0.0000 10.7022 -0.0001
# 4 0.0000 0.0000 0.0000 16.5985 0.0000 -18.6113
# 5 16.1984 -6.9524 10.7022 0.0000 51.0725 0.0000
# 6 -0.0001 -0.0002 -0.0001 -18.6113 0.0000 -11.0008
#
#
#
# Elastic Compliance Matrix: (Units=1/GPa)
#
#
# Indices 1 2 3 4 5 6 
#
# 1 0.010734 0.000598 -0.003641 0.000000 -0.002560 0.000000
# 2 0.000598 0.016450 -0.000102 0.000000 0.002071 0.000000
# 3 -0.003641 -0.000102 0.011932 0.000000 -0.001359 0.000000
# 4 0.000000 0.000000 0.000000 0.020796 0.000000 -0.035183
# 5 -0.002560 0.002071 -0.001359 0.000000 0.020959 0.000000
# 6 0.000000 0.000000 0.000000 -0.035183 0.000000 -0.031378
#
#
# Mechanical properties :
#
#
# Convention : Reuss Voigt Hill
#
# Bulk Modulus (GPa) = 30.46361 35.72165 33.09263
# Shear Modulus (GPa) = 74.93560 27.30436 51.11998
#
# Velocity S-wave (km/s) = 5.84614 3.52891 4.82859
# Velocity P-wave (km/s) = 7.71128 5.73555 6.79560
#
# Compressibility (1/GPa) = 0.03282605
#
# Stress axis : x y z
#
# Youngs Moduli (GPa) = 93.16444 60.78948 83.81025
#
# Poissons Ratio (x) = -0.03638 0.30515
# Poissons Ratio (y) = -0.05576 0.00858
# Poissons Ratio (z) = 0.33921 0.00622
#
# Static dielectric constant tensor:
#      x y z
#    x 1.840180 0.000000 0.061500 
#    y 0.000000 1.817920 0.000000 
#    z 0.061500 0.000000 1.794240 
# 
# From -- ./inp_files/75620.got.cif
#   From: 2010.05.17/outbox.cif.g08.bks.cpg/sg15_38_cif.got.tgz:75620.got - 2010.06.03 18:47:42.
