data_PCOD9294402
_publ_section_title
;
Structure prediction by ZEFSAII (Michael W. Deem and Ramdas Pophale) SiO2 
 PCOD9294402
Probable space group: C 2/C
;
_chemical_formula_sum "Si O2"
_cell_formula_units_Z 56
_cell_length_a 28.194652
_cell_length_b 8.692641
_cell_length_c 11.623780
_cell_angle_alpha 90.000000
_cell_angle_beta 64.790617
_cell_angle_gamma 90.000000
_cell_volume 2577.495799
_symmetry_space_group_name_H-M "C 2/C"
_symmetry_group_IT_number 15
_symmetry_cell_setting 'monoclinic'
loop_
_space_group_symop_operation_xyz
x,y,z
-x,y,1/2-z
-x,-y,-z
x,-y,1/2+z
1/2+x,1/2+y,z
1/2-x,1/2+y,1/2-z
1/2-x,1/2-y,-z
1/2+x,1/2-y,1/2+z
loop_
_atom_site_type_symbol
_atom_site_label
_atom_site_fract_x
_atom_site_fract_y
_atom_site_fract_z
Si Si1 0.842325 0.978687 0.347336
Si Si2 0.841287 0.649746 0.442644
Si Si3 0.542582 0.488523 0.294967
Si Si4 0.045372 0.537084 0.107840
Si Si5 0.757474 0.543394 0.900158
Si Si6 0.294173 0.679795 0.211005
Si Si7 0.985135 0.249175 0.492733
O O1 0.837043 0.794425 0.360046
O O2 0.901735 0.014854 0.320827
O O3 0.798345 0.043376 0.478433
O O4 0.831294 0.056868 0.236310
O O5 0.900280 0.589746 0.392796
O O6 0.801362 0.519276 0.441941
O O7 0.823632 0.720774 0.583335
O O8 0.500000 0.425083 0.250000
O O9 0.518378 0.643100 0.372416
O O10 0.547624 0.365578 0.392467
O O11 0.048943 0.372790 0.040778
O O12 0.000000 0.525918 0.250000
O O13 0.025250 0.657037 0.032452
O O14 0.750572 0.417426 0.806338
O O15 0.772120 0.703463 0.827967
#
# Coordination Sequence:
#
# PCOD9294402 Si02
#       7
#     8   8   8   8   8   8   8
#     4  11  23  41  66  93 127 170 214 261 318 377
#     4  11  24  42  65  95 130 169 214 263 319 381
#     4  11  23  42  64  94 130 164 211 267 314 376
#     4  11  23  43  64  92 130 168 213 263 313 380
#     4  11  24  43  66  96 129 170 216 262 320 378
#     4  11  23  43  66  92 131 167 211 267 317 380
#     4  10  23  40  64  94 125 170 213 254 325 379
#
# _framework density 21.726514000000002
#
# number of rings (size 3 to 8) (size 9 to 14) (size 15 to 20)
#    0.000    1.143    0.000    7.286    0.000    9.143 
#    0.000    4.286    0.000    0.000    0.000    0.000 
#    0.000    0.000    0.000    0.000    0.000    0.000 
#
# Total GULP energy -156709.961339 kJ/mol
# GULP energy per Si atom -5596.784334 kJ/mol
# Density = 2.167706 g / cm^3
# Si number density = 21.726514 Si / 1000 Ang^3
#
#
#
# Elastic Constant Matrix: (Units=GPa)
#
#
# Indices 1 2 3 4 5 6 
#
# 1 120.9430 43.0559 48.4435 0.0000 -13.1203 0.0000
# 2 43.0559 118.4327 47.6263 0.0000 3.0808 0.0000
# 3 48.4435 47.6263 68.1178 0.0000 -3.2829 0.0000
# 4 0.0000 0.0000 0.0000 24.0801 0.0000 7.8640
# 5 -13.1203 3.0808 -3.2829 0.0000 30.0506 0.0000
# 6 0.0000 0.0000 0.0000 7.8640 0.0000 24.8837
#
#
#
# Elastic Compliance Matrix: (Units=1/GPa)
#
#
# Indices 1 2 3 4 5 6 
#
# 1 0.012326 -0.001629 -0.007398 0.000000 0.004740 0.000000
# 2 -0.001629 0.012097 -0.007432 0.000000 -0.002763 0.000000
# 3 -0.007398 -0.007432 0.025152 0.000000 0.000280 0.000000
# 4 0.000000 0.000000 0.000000 0.046307 0.000000 -0.014635
# 5 0.004740 -0.002763 0.000280 0.000000 0.035661 0.000000
# 6 0.000000 0.000000 0.000000 -0.014635 0.000000 0.044812
#
#
# Mechanical properties :
#
#
# Convention : Reuss Voigt Hill
#
# Bulk Modulus (GPa) = 60.04226 65.08277 62.56251
# Shear Modulus (GPa) = 23.27473 27.02740 25.15106
#
# Velocity S-wave (km/s) = 3.27656 3.53084 3.40607
# Velocity P-wave (km/s) = 6.48151 6.82956 6.65781
#
# Compressibility (1/GPa) = 0.01665494
#
# Stress axis : x y z
#
# Youngs Moduli (GPa) = 81.12921 82.66827 39.75868
#
# Poissons Ratio (x) = 0.13469 0.29415
# Poissons Ratio (y) = 0.13218 0.29549
# Poissons Ratio (z) = 0.60022 0.61440
#
# Static dielectric constant tensor:
#      x y z
#    x 1.761170 0.000000 0.024700 
#    y 0.000000 1.799320 0.000000 
#    z 0.024700 0.000000 1.812550 
# 
# From -- ./inp_files/125845.got.cif
#   From: 2010.05.17/outbox.cif.g08.bks.cpg/sg15_63_cif.got.tgz:125845.got - 2010.06.03 18:47:42.
