data_PCOD9294921
_publ_section_title
;
Structure prediction by ZEFSAII (Michael W. Deem and Ramdas Pophale) SiO2 
 PCOD9294921
Probable space group: C 2/C
;
_chemical_formula_sum "Si O2"
_cell_formula_units_Z 60
_cell_length_a 9.630535
_cell_length_b 21.274496
_cell_length_c 27.535062
_cell_angle_alpha 90.000000
_cell_angle_beta 150.909011
_cell_angle_gamma 90.000000
_cell_volume 2742.893091
_symmetry_space_group_name_H-M "C 2/C"
_symmetry_group_IT_number 15
_symmetry_cell_setting 'monoclinic'
loop_
_space_group_symop_operation_xyz
x,y,z
-x,y,1/2-z
-x,-y,-z
x,-y,1/2+z
1/2+x,1/2+y,z
1/2-x,1/2+y,1/2-z
1/2-x,1/2-y,-z
1/2+x,1/2-y,1/2+z
loop_
_atom_site_type_symbol
_atom_site_label
_atom_site_fract_x
_atom_site_fract_y
_atom_site_fract_z
Si Si1 0.071187 0.812078 0.716489
Si Si2 0.649930 0.410445 0.465276
Si Si3 0.122983 0.942862 0.199735
Si Si4 0.795303 0.940486 0.640779
Si Si5 0.500000 0.641414 0.750000
Si Si6 0.575243 0.748777 0.114397
Si Si7 0.749219 0.496125 0.617443
Si Si8 0.800987 0.356737 0.610483
O O1 0.077026 0.764857 0.672923
O O2 0.389312 0.839750 0.814903
O O3 0.000000 0.790066 0.750000
O O4 0.865444 0.871327 0.640536
O O5 0.531058 0.385137 0.378682
O O6 0.416773 0.467510 0.391264
O O7 0.622070 0.369863 0.505695
O O8 0.966822 0.437894 0.557550
O O9 0.145009 0.905236 0.256889
O O10 0.448050 0.970096 0.295569
O O11 0.894163 0.000202 0.139305
O O12 0.000000 0.943431 0.750000
O O13 0.748447 0.688766 0.843187
O O14 0.707533 0.693988 0.121152
O O15 0.250000 0.750000 0.000000
O O16 0.500000 0.500000 0.500000
O O17 0.807250 0.423132 0.639882
#
# Coordination Sequence:
#
# PCOD9294921 Si02
#       8
#     8   8   8   8   4   8   8   8
#     4  11  22  46  79 104 136 183 260 305 353 430
#     4  11  24  39  66 113 140 184 240 300 382 437
#     4  12  25  42  68 103 158 186 230 308 384 445
#     4  11  20  41  70 105 145 183 237 304 371 436
#     4  12  30  48  66 104 148 194 238 298 380 444
#     4  12  30  51  74 104 143 203 253 305 366 436
#     4  10  23  41  69 105 144 189 233 297 375 442
#     4  11  22  47  75 102 144 188 255 301 348 451
#
# _framework density 21.874713
#
# number of rings (size 3 to 8) (size 9 to 14) (size 15 to 20)
#    0.000    0.800    6.000    1.600    7.467    1.067 
#    2.400    1.333    0.000    0.000    0.000    0.000 
#    0.000    0.000    0.000    0.000    0.000    0.000 
#
# Total GULP energy -167116.095139 kJ/mol
# GULP energy per Si atom -5570.536505 kJ/mol
# Density = 2.182493 g / cm^3
# Si number density = 21.874713 Si / 1000 Ang^3
#
#
#
# Elastic Constant Matrix: (Units=GPa)
#
#
# Indices 1 2 3 4 5 6 
#
# 1 53.9551 9.5930 -0.6818 -0.0030 26.8254 -0.0003
# 2 9.5930 31.2194 -3.3008 0.0053 18.1344 0.0128
# 3 -0.6818 -3.3008 100.0998 -0.0061 18.6156 0.0048
# 4 -0.0030 0.0053 -0.0061 14.2382 -0.0051 8.2482
# 5 26.8254 18.1344 18.6156 -0.0051 39.9647 0.0030
# 6 -0.0003 0.0128 0.0048 8.2482 0.0030 -0.0401
#
#
#
# Elastic Compliance Matrix: (Units=1/GPa)
#
#
# Indices 1 2 3 4 5 6 
#
# 1 0.030120 0.005991 0.005111 -0.000002 -0.025316 -0.000001
# 2 0.005991 0.047744 0.006998 -0.000067 -0.028945 0.000074
# 3 0.005111 0.006998 0.012573 -0.000013 -0.012463 0.000022
# 4 -0.000002 -0.000067 -0.000013 0.000584 0.000029 0.120230
# 5 -0.025316 -0.028945 -0.012463 0.000029 0.060954 -0.000013
# 6 -0.000001 0.000074 0.000022 0.120230 -0.000013 -0.207543
#
#
# Mechanical properties :
#
#
# Convention : Reuss Voigt Hill
#
# Bulk Modulus (GPa) = 7.89665 21.83280 14.86473
# Shear Modulus (GPa) = -100.90045 22.81016 -39.04515
#
# Velocity S-wave (km/s) = -6.79902 3.23269 -4.22944
# Velocity P-wave (km/s) = 7.61694 4.89246 4.12805
#
# Compressibility (1/GPa) = 0.12663597
#
# Stress axis : x y z
#
# Youngs Moduli (GPa) = 33.20031 20.94518 79.53389
#
# Poissons Ratio (x) = -0.12547 -0.40648
# Poissons Ratio (y) = -0.19889 -0.55658
# Poissons Ratio (z) = -0.16968 -0.14658
#
# Static dielectric constant tensor:
#      x y z
#    x 1.730450 0.000140 0.041260 
#    y 0.000140 1.673300 -0.000080 
#    z 0.041260 -0.000080 1.768560 
# 
# From -- ./inp_files/290273.got.cif
#   From: 2010.05.17/outbox.cif.g08.bks.cpg/sg15_146_cif.got.tgz:290273.got - 2010.06.03 18:47:42.
