data_PCOD9294501
_publ_section_title
;
Structure prediction by ZEFSAII (Michael W. Deem and Ramdas Pophale) SiO2 
 PCOD9294501
Probable space group: C 2/C
;
_chemical_formula_sum "Si O2"
_cell_formula_units_Z 56
_cell_length_a 17.403880
_cell_length_b 5.870115
_cell_length_c 28.248845
_cell_angle_alpha 90.000000
_cell_angle_beta 54.366308
_cell_angle_gamma 90.000000
_cell_volume 2345.604599
_symmetry_space_group_name_H-M "C 2/C"
_symmetry_group_IT_number 15
_symmetry_cell_setting 'monoclinic'
loop_
_space_group_symop_operation_xyz
x,y,z
-x,y,1/2-z
-x,-y,-z
x,-y,1/2+z
1/2+x,1/2+y,z
1/2-x,1/2+y,1/2-z
1/2-x,1/2-y,-z
1/2+x,1/2-y,1/2+z
loop_
_atom_site_type_symbol
_atom_site_label
_atom_site_fract_x
_atom_site_fract_y
_atom_site_fract_z
Si Si1 0.926341 0.304979 0.034762
Si Si2 0.008100 0.042878 0.671675
Si Si3 0.713383 0.950331 0.481801
Si Si4 0.461558 0.565627 0.583253
Si Si5 0.744128 0.114249 0.646396
Si Si6 0.367570 0.821945 0.406282
Si Si7 0.160145 0.122780 0.695486
O O1 0.823701 0.387292 0.056643
O O2 0.941855 0.201224 0.080447
O O3 0.000000 0.500000 0.000000
O O4 0.954971 0.126905 0.983047
O O5 0.038093 0.777558 0.651581
O O6 0.094741 0.139972 0.671510
O O7 0.991174 0.131860 0.624887
O O8 0.914734 0.093898 0.734839
O O9 0.750000 0.750000 0.500000
O O10 0.629177 0.048263 0.545136
O O11 0.802900 0.109802 0.444793
O O12 0.357379 0.651760 0.606032
O O13 0.699009 0.075290 0.610605
O O14 0.705664 0.364451 0.677214
O O15 0.716083 0.867464 0.681063
#
# Coordination Sequence:
#
# PCOD9294501 Si02
#       7
#     8   8   8   8   8   8   8
#     4  11  24  40  62  98 138 177 224 281 337 431
#     4  10  23  46  69  99 132 181 227 296 345 415
#     4  11  22  38  66 102 138 184 239 283 340 442
#     4  11  25  42  66  98 138 179 228 278 359 407
#     4  11  25  45  71  99 138 184 225 295 346 415
#     4  10  23  40  67 101 139 186 234 288 359 418
#     4  10  26  48  71 101 136 175 243 287 349 410
#
# _framework density 23.874442999999999
#
# number of rings (size 3 to 8) (size 9 to 14) (size 15 to 20)
#    0.000    1.429    0.000    3.429   12.000   10.286 
#    2.571    0.000    0.000    0.000    0.000    0.000 
#    0.000    0.000    0.000    0.000    0.000    0.000 
#
# Total GULP energy -156091.884618 kJ/mol
# GULP energy per Si atom -5574.710165 kJ/mol
# Density = 2.382010 g / cm^3
# Si number density = 23.874443 Si / 1000 Ang^3
#
#
#
# Elastic Constant Matrix: (Units=GPa)
#
#
# Indices 1 2 3 4 5 6 
#
# 1 66.6298 23.3678 23.3423 -0.0098 -4.1169 -0.0202
# 2 23.3678 112.9105 32.1750 0.0235 -13.8945 -0.0229
# 3 23.3423 32.1750 92.6595 0.0669 3.1081 -0.0151
# 4 -0.0098 0.0235 0.0669 32.7399 -0.0043 -5.9077
# 5 -4.1169 -13.8945 3.1081 -0.0043 37.5464 0.0085
# 6 -0.0202 -0.0229 -0.0151 -5.9077 0.0085 29.9362
#
#
#
# Elastic Compliance Matrix: (Units=1/GPa)
#
#
# Indices 1 2 3 4 5 6 
#
# 1 0.017164 -0.002385 -0.003539 0.000016 0.001293 0.000011
# 2 -0.002385 0.010775 -0.003275 -0.000001 0.003997 0.000004
# 3 -0.003539 -0.003275 0.012911 -0.000026 -0.002669 -0.000003
# 4 0.000016 -0.000001 -0.000026 0.031672 0.000006 0.006250
# 5 0.001293 0.003997 -0.002669 0.000006 0.028476 -0.000004
# 6 0.000011 0.000004 -0.000003 0.006250 -0.000004 0.034638
#
#
# Mechanical properties :
#
#
# Convention : Reuss Voigt Hill
#
# Bulk Modulus (GPa) = 44.53880 47.77447 46.15664
# Shear Modulus (GPa) = 30.95648 32.93213 31.94430
#
# Velocity S-wave (km/s) = 3.60479 3.71804 3.66185
# Velocity P-wave (km/s) = 6.00183 6.20370 6.10360
#
# Compressibility (1/GPa) = 0.02245233
#
# Stress axis : x y z
#
# Youngs Moduli (GPa) = 58.26007 92.80557 77.45626
#
# Poissons Ratio (x) = 0.22132 0.27414
# Poissons Ratio (y) = 0.13893 0.25366
# Poissons Ratio (z) = 0.20620 0.30393
#
# Static dielectric constant tensor:
#      x y z
#    x 1.903690 0.000000 -0.035460 
#    y 0.000000 2.112310 -0.000070 
#    z -0.035460 -0.000070 1.965760 
# 
# From -- ./inp_files/315021.got.cif
#   From: 2010.05.17/outbox.cif.g08.bks.cpg/sg15_158_cif.got.tgz:315021.got - 2010.06.03 18:47:42.
