data_PCOD9294710
_publ_section_title
;
Structure prediction by ZEFSAII (Michael W. Deem and Ramdas Pophale) SiO2 
 PCOD9294710
Probable space group: C 2/C
;
_chemical_formula_sum "Si O2"
_cell_formula_units_Z 40
_cell_length_a 16.958080
_cell_length_b 6.038352
_cell_length_c 17.410539
_cell_angle_alpha 90.000000
_cell_angle_beta 100.797414
_cell_angle_gamma 90.000000
_cell_volume 1751.255726
_symmetry_space_group_name_H-M "C 2/C"
_symmetry_group_IT_number 15
_symmetry_cell_setting 'monoclinic'
loop_
_space_group_symop_operation_xyz
x,y,z
-x,y,1/2-z
-x,-y,-z
x,-y,1/2+z
1/2+x,1/2+y,z
1/2-x,1/2+y,1/2-z
1/2-x,1/2-y,-z
1/2+x,1/2-y,1/2+z
loop_
_atom_site_type_symbol
_atom_site_label
_atom_site_fract_x
_atom_site_fract_y
_atom_site_fract_z
Si Si1 0.212568 0.172130 0.413762
Si Si2 0.307846 0.525975 0.832772
Si Si3 0.653997 0.718358 0.814290
Si Si4 0.941386 0.803148 0.957986
Si Si5 0.938582 0.490548 0.104611
O O1 0.250000 0.250000 0.500000
O O2 0.277536 0.242045 0.362011
O O3 0.131933 0.315332 0.394305
O O4 0.186809 0.923156 0.392537
O O5 0.353638 0.562976 0.761296
O O6 0.226687 0.385150 0.807783
O O7 0.363779 0.412715 0.906355
O O8 0.573800 0.841619 0.827062
O O9 0.983281 0.653263 0.899635
O O10 0.924893 0.636470 0.025233
O O11 0.000000 0.000000 0.000000
#
# Coordination Sequence:
#
# PCOD9294710 Si02
#       5
#     8   8   8   8   8
#     4  11  21  39  67  96 125 172 223 281 324 401
#     4  11  23  40  68  95 131 170 227 277 339 404
#     4  11  22  42  65  98 130 174 221 287 340 400
#     4  11  23  44  66  96 131 181 221 276 335 414
#     4  10  23  41  64  95 133 167 225 269 341 401
#
# _framework density 22.840751999999998
#
# number of rings (size 3 to 8) (size 9 to 14) (size 15 to 20)
#    0.000    1.200    2.000    4.800    0.000    4.800 
#    0.000    6.000    0.000    0.000    0.000    0.000 
#    0.000    0.000    0.000    0.000    0.000    0.000 
#
# Total GULP energy -111768.106464 kJ/mol
# GULP energy per Si atom -5588.405323 kJ/mol
# Density = 2.278877 g / cm^3
# Si number density = 22.840752 Si / 1000 Ang^3
#
#
#
# Elastic Constant Matrix: (Units=GPa)
#
#
# Indices 1 2 3 4 5 6 
#
# 1 70.7905 23.2528 23.4767 0.0000 -20.8566 0.0000
# 2 23.2528 71.2997 15.8465 0.0000 -20.3632 0.0000
# 3 23.4767 15.8465 70.4331 0.0000 -20.5982 0.0000
# 4 0.0000 0.0000 0.0000 38.1781 0.0000 -20.4921
# 5 -20.8566 -20.3632 -20.5982 0.0000 36.5149 0.0000
# 6 0.0000 0.0000 0.0000 -20.4921 0.0000 35.9615
#
#
#
# Elastic Compliance Matrix: (Units=1/GPa)
#
#
# Indices 1 2 3 4 5 6 
#
# 1 0.018313 -0.003303 -0.003402 0.000000 0.006699 0.000000
# 2 -0.003303 0.017368 -0.000630 0.000000 0.007444 0.000000
# 3 -0.003402 -0.000630 0.017727 0.000000 0.007706 0.000000
# 4 0.000000 0.000000 0.000000 0.037734 0.000000 0.021502
# 5 0.006699 0.007444 0.007706 0.000000 0.039710 0.000000
# 6 0.000000 0.000000 0.000000 0.021502 0.000000 0.040060
#
#
# Mechanical properties :
#
#
# Convention : Reuss Voigt Hill
#
# Bulk Modulus (GPa) = 25.81357 37.51948 31.66652
# Shear Modulus (GPa) = 25.18945 32.12740 28.65842
#
# Velocity S-wave (km/s) = 3.32449 3.75451 3.54603
# Velocity P-wave (km/s) = 5.10513 5.93779 5.53714
#
# Compressibility (1/GPa) = 0.03873932
#
# Stress axis : x y z
#
# Youngs Moduli (GPa) = 54.60593 57.57555 56.41133
#
# Poissons Ratio (x) = 0.19018 0.19190
# Poissons Ratio (y) = 0.18037 0.03552
# Poissons Ratio (z) = 0.18576 0.03626
#
# Static dielectric constant tensor:
#      x y z
#    x 1.862570 0.000000 -0.037110 
#    y 0.000000 -3.619100 0.000000 
#    z -0.037110 0.000000 1.898730 
# 
# From -- ./inp_files/208036.got.cif
#   From: 2010.05.17/outbox.cif.g08.bks.cpg/sg15_105_cif.got.tgz:208036.got - 2010.06.03 18:47:42.
