data_PCOD9294425
_publ_section_title
;
Structure prediction by ZEFSAII (Michael W. Deem and Ramdas Pophale) SiO2 
 PCOD9294425
Probable space group: C 2/C
;
_chemical_formula_sum "Si O2"
_cell_formula_units_Z 52
_cell_length_a 19.710023
_cell_length_b 9.136360
_cell_length_c 14.305496
_cell_angle_alpha 90.000000
_cell_angle_beta 63.512655
_cell_angle_gamma 90.000000
_cell_volume 2305.697087
_symmetry_space_group_name_H-M "C 2/C"
_symmetry_group_IT_number 15
_symmetry_cell_setting 'monoclinic'
loop_
_space_group_symop_operation_xyz
x,y,z
-x,y,1/2-z
-x,-y,-z
x,-y,1/2+z
1/2+x,1/2+y,z
1/2-x,1/2+y,1/2-z
1/2-x,1/2-y,-z
1/2+x,1/2-y,1/2+z
loop_
_atom_site_type_symbol
_atom_site_label
_atom_site_fract_x
_atom_site_fract_y
_atom_site_fract_z
Si Si1 0.764774 0.387392 0.125741
Si Si2 0.125741 0.429218 0.175157
Si Si3 0.998742 0.409620 0.096654
Si Si4 0.000000 0.135291 0.750000
Si Si5 0.147547 0.718024 0.087271
Si Si6 0.707882 0.321441 0.728862
Si Si7 0.549005 0.573249 0.387798
O O1 0.698812 0.350898 0.092077
O O2 0.762791 0.556800 0.152572
O O3 0.753218 0.292912 0.225624
O O4 0.838803 0.325006 0.028175
O O5 0.073522 0.419819 0.115134
O O6 0.174318 0.574158 0.127887
O O7 0.168908 0.280070 0.173191
O O8 0.071284 0.462228 0.296263
O O9 0.983362 0.237386 0.095703
O O10 0.000000 0.500000 0.000000
O O11 0.937186 0.237993 0.835974
O O12 0.966419 0.027728 0.692698
O O13 0.640279 0.404573 0.827140
O O14 0.500000 0.500000 0.500000
#
# Coordination Sequence:
#
# PCOD9294425 Si02
#       7
#     8   8   8   4   8   8   8
#     4  11  25  45  70 101 144 188 240 296 365 436
#     4  10  23  42  66  98 137 184 237 289 359 429
#     4  10  23  40  65 101 144 178 228 300 363 422
#     4  12  22  44  74 102 150 182 244 304 358 424
#     4  11  25  43  71 102 140 187 236 299 365 437
#     4  11  23  47  68  97 144 190 240 300 353 442
#     4  11  24  40  68 103 135 184 233 292 363 426
#
# _framework density 22.552831999999999
#
# number of rings (size 3 to 8) (size 9 to 14) (size 15 to 20)
#    0.000    1.231    1.538    4.615    8.615    0.615 
#    2.769    0.000    0.000    0.000    0.000    0.000 
#    0.000    0.000    0.000    0.000    0.000    0.000 
#
# Total GULP energy -145339.490171 kJ/mol
# GULP energy per Si atom -5589.980391 kJ/mol
# Density = 2.250150 g / cm^3
# Si number density = 22.552832 Si / 1000 Ang^3
#
#
#
# Elastic Constant Matrix: (Units=GPa)
#
#
# Indices 1 2 3 4 5 6 
#
# 1 53.2728 28.1896 33.2907 0.0000 2.9035 0.0000
# 2 28.1896 132.1164 64.8716 0.0000 9.0904 0.0000
# 3 33.2907 64.8716 114.1018 0.0000 13.7134 0.0000
# 4 0.0000 0.0000 0.0000 44.4319 0.0000 -0.8058
# 5 2.9035 9.0904 13.7134 0.0000 29.9645 0.0000
# 6 0.0000 0.0000 0.0000 -0.8058 0.0000 40.4210
#
#
#
# Elastic Compliance Matrix: (Units=1/GPa)
#
#
# Indices 1 2 3 4 5 6 
#
# 1 0.023471 -0.002297 -0.005664 0.000000 0.001015 0.000000
# 2 -0.002297 0.010732 -0.005362 0.000000 -0.000579 0.000000
# 3 -0.005664 -0.005362 0.013972 0.000000 -0.004219 0.000000
# 4 0.000000 0.000000 0.000000 0.022514 0.000000 0.000449
# 5 0.001015 -0.000579 -0.004219 0.000000 0.035381 0.000000
# 6 0.000000 0.000000 0.000000 0.000449 0.000000 0.024749
#
#
# Mechanical properties :
#
#
# Convention : Reuss Voigt Hill
#
# Bulk Modulus (GPa) = 46.44748 61.35499 53.90124
# Shear Modulus (GPa) = 30.36926 34.50610 32.43768
#
# Velocity S-wave (km/s) = 3.67356 3.91578 3.79660
# Velocity P-wave (km/s) = 6.21555 6.90713 6.57045
#
# Compressibility (1/GPa) = 0.02152969
#
# Stress axis : x y z
#
# Youngs Moduli (GPa) = 42.60609 93.18226 71.57114
#
# Poissons Ratio (x) = 0.21400 0.40539
# Poissons Ratio (y) = 0.09785 0.38374
# Poissons Ratio (z) = 0.24133 0.49962
#
# Static dielectric constant tensor:
#      x y z
#    x 1.881810 0.000000 -0.003630 
#    y 0.000000 1.837010 0.000000 
#    z -0.003630 0.000000 1.892640 
# 
# From -- ./inp_files/171738.got.cif
#   From: 2010.05.17/outbox.cif.g08.bks.cpg/sg15_86_cif.got.tgz:171738.got - 2010.06.03 18:47:42.
