data_PCOD9294137
_publ_section_title
;
Structure prediction by ZEFSAII (Michael W. Deem and Ramdas Pophale) SiO2 
 PCOD9294137
Probable space group: C 2/C
;
_chemical_formula_sum "Si O2"
_cell_formula_units_Z 64
_cell_length_a 19.387438
_cell_length_b 21.377918
_cell_length_c 16.724563
_cell_angle_alpha 90.000000
_cell_angle_beta 21.833779
_cell_angle_gamma 90.000000
_cell_volume 2578.009385
_symmetry_space_group_name_H-M "C 2/C"
_symmetry_group_IT_number 15
_symmetry_cell_setting 'monoclinic'
loop_
_space_group_symop_operation_xyz
x,y,z
-x,y,1/2-z
-x,-y,-z
x,-y,1/2+z
1/2+x,1/2+y,z
1/2-x,1/2+y,1/2-z
1/2-x,1/2-y,-z
1/2+x,1/2-y,1/2+z
loop_
_atom_site_type_symbol
_atom_site_label
_atom_site_fract_x
_atom_site_fract_y
_atom_site_fract_z
Si Si1 0.698385 0.011110 0.830023
Si Si2 0.257354 0.328840 0.861595
Si Si3 0.246327 0.887299 0.801644
Si Si4 0.361442 0.149334 0.571230
Si Si5 0.799235 0.527632 0.486368
Si Si6 0.806668 0.191509 0.599145
Si Si7 0.277518 0.599942 0.496262
Si Si8 0.412489 0.347339 0.265415
O O1 0.811795 0.958956 0.658428
O O2 0.739381 0.085365 0.786667
O O3 0.701240 0.999440 0.922747
O O4 0.500000 0.000000 0.000000
O O5 0.192978 0.358234 0.848031
O O6 0.189614 0.258521 0.946623
O O7 0.481346 0.326961 0.612818
O O8 0.201793 0.369117 0.997456
O O9 0.427208 0.874197 0.661981
O O10 0.075683 0.853112 0.025575
O O11 0.315644 0.198288 0.689677
O O12 0.267842 0.173850 0.590813
O O13 0.768690 0.472721 0.455792
O O14 0.652258 0.582685 0.640345
O O15 0.000000 0.554569 0.250000
O O16 0.720479 0.139291 0.634180
O O17 0.500000 0.605179 0.250000
O O18 0.500000 0.316155 0.250000
#
# Coordination Sequence:
#
# PCOD9294137 Si02
#       8
#     8   8   8   8   8   8   8   8
#     4   9  21  37  61  90 127 172 220 263 330 391
#     4  11  22  41  63  99 131 185 225 275 329 388
#     4  11  22  42  67  94 133 173 223 279 332 399
#     4  10  23  41  63  99 124 173 219 276 335 402
#     4  11  24  38  60  96 138 176 221 269 330 402
#     4  11  23  40  66  95 138 176 231 274 327 399
#     4  10  23  39  60  94 142 183 226 269 323 392
#     4  11  26  42  65  94 128 173 220 281 344 397
#
# _framework density 24.825355999999999
#
# number of rings (size 3 to 8) (size 9 to 14) (size 15 to 20)
#    0.000    1.500    2.500    1.500    8.750    5.000 
#    0.000    0.000    0.000    0.750    0.000    0.000 
#    0.000    0.000    0.000    0.000    0.000    0.000 
#
# Total GULP energy -178953.195466 kJ/mol
# GULP energy per Si atom -5592.287358 kJ/mol
# Density = 2.476885 g / cm^3
# Si number density = 24.825356 Si / 1000 Ang^3
#
#
#
# Elastic Constant Matrix: (Units=GPa)
#
#
# Indices 1 2 3 4 5 6 
#
# 1 127.0675 -0.0621 16.9513 -0.0009 -9.0313 0.0037
# 2 -0.0621 28.9380 -0.6982 0.0344 3.1278 -0.0554
# 3 16.9513 -0.6982 59.4187 0.0744 -8.2516 -0.0765
# 4 -0.0009 0.0344 0.0744 20.4803 -0.0672 1.3469
# 5 -9.0313 3.1278 -8.2516 -0.0672 26.1929 0.0382
# 6 0.0037 -0.0554 -0.0765 1.3469 0.0382 16.5434
#
#
#
# Elastic Compliance Matrix: (Units=1/GPa)
#
#
# Indices 1 2 3 4 5 6 
#
# 1 0.008304 -0.000275 -0.002060 0.000017 0.002247 -0.000019
# 2 -0.000275 0.035020 -0.000109 -0.000081 -0.004311 0.000133
# 3 -0.002060 -0.000109 0.018112 -0.000054 0.005008 0.000077
# 4 0.000017 -0.000081 -0.000054 0.049091 0.000130 -0.003998
# 5 0.002247 -0.004311 0.005008 0.000130 0.041046 -0.000097
# 6 -0.000019 0.000133 0.000077 -0.003998 -0.000097 0.060774
#
#
# Mechanical properties :
#
#
# Convention : Reuss Voigt Hill
#
# Bulk Modulus (GPa) = 17.68392 27.53402 22.60897
# Shear Modulus (GPa) = 21.17894 25.92552 23.55223
#
# Velocity S-wave (km/s) = 2.92399 3.23509 3.08347
# Velocity P-wave (km/s) = 4.30562 5.00696 4.66948
#
# Compressibility (1/GPa) = 0.05654856
#
# Stress axis : x y z
#
# Youngs Moduli (GPa) = 120.41997 28.55532 55.21238
#
# Poissons Ratio (x) = 0.00785 0.11375
# Poissons Ratio (y) = 0.03309 0.00599
# Poissons Ratio (z) = 0.24810 0.00310
#
# Static dielectric constant tensor:
#      x y z
#    x 2.023640 -0.000130 -0.038050 
#    y -0.000130 2.008700 0.000020 
#    z -0.038050 0.000020 1.980030 
# 
# From -- ./inp_files/216948.got.cif
#   From: 2010.05.17/outbox.cif.g08.bks.cpg/sg15_109_cif.got.tgz:216948.got - 2010.06.03 18:47:42.
