data_PCOD9294232
_publ_section_title
;
Structure prediction by ZEFSAII (Michael W. Deem and Ramdas Pophale) SiO2 
 PCOD9294232
Probable space group: C 2/C
;
_chemical_formula_sum "Si O2"
_cell_formula_units_Z 48
_cell_length_a 17.006199
_cell_length_b 16.571662
_cell_length_c 8.553684
_cell_angle_alpha 90.000000
_cell_angle_beta 90.849417
_cell_angle_gamma 90.000000
_cell_volume 2410.342720
_symmetry_space_group_name_H-M "C 2/C"
_symmetry_group_IT_number 15
_symmetry_cell_setting 'monoclinic'
loop_
_space_group_symop_operation_xyz
x,y,z
-x,y,1/2-z
-x,-y,-z
x,-y,1/2+z
1/2+x,1/2+y,z
1/2-x,1/2+y,1/2-z
1/2-x,1/2-y,-z
1/2+x,1/2-y,1/2+z
loop_
_atom_site_type_symbol
_atom_site_label
_atom_site_fract_x
_atom_site_fract_y
_atom_site_fract_z
Si Si1 0.274951 0.959454 0.315326
Si Si2 0.682658 0.310881 0.438812
Si Si3 0.764090 0.617688 0.472847
Si Si4 0.366397 0.264709 0.412914
Si Si5 0.472053 0.253684 0.929485
Si Si6 0.545866 0.070499 0.589606
O O1 0.220379 0.898673 0.413003
O O2 0.271992 0.929356 0.137055
O O3 0.364061 0.952523 0.378625
O O4 0.251652 0.052011 0.338706
O O5 0.750000 0.250000 0.500000
O O6 0.653147 0.282110 0.267267
O O7 0.607312 0.303996 0.548111
O O8 0.691307 0.678725 0.486849
O O9 0.840957 0.672840 0.449505
O O10 0.455435 0.281468 0.462120
O O11 0.500000 0.255863 0.750000
O O12 0.454897 0.160841 0.979218
O O13 0.500000 0.078253 0.750000
O O14 0.500000 0.000000 0.500000
#
# Coordination Sequence:
#
# PCOD9294232 Si02
#       6
#     8   8   8   8   8   8
#     4  11  22  40  60  93 125 166 212 258 312 380
#     4  11  24  41  64  92 125 171 214 257 315 384
#     4  10  23  39  65  91 128 170 209 261 316 372
#     4  10  23  42  64  92 129 167 217 258 320 378
#     4  11  23  40  64  91 124 164 212 265 317 376
#     4  11  22  35  55  86 126 157 201 250 312 372
#
# _framework density 19.914180999999999
#
# number of rings (size 3 to 8) (size 9 to 14) (size 15 to 20)
#    0.000    1.333    1.667    4.500    7.000    2.667 
#    0.000    0.833    0.000    0.000    0.000    0.000 
#    0.000    0.000    0.000    0.000    0.000    0.000 
#
# Total GULP energy -134188.742570 kJ/mol
# GULP energy per Si atom -5591.197607 kJ/mol
# Density = 1.986886 g / cm^3
# Si number density = 19.914181 Si / 1000 Ang^3
#
#
#
# Elastic Constant Matrix: (Units=GPa)
#
#
# Indices 1 2 3 4 5 6 
#
# 1 110.3456 27.5006 29.6207 0.0000 -3.5156 0.0000
# 2 27.5006 93.0983 25.2762 0.0000 -7.9161 0.0000
# 3 29.6207 25.2762 53.4258 0.0000 6.3685 0.0000
# 4 0.0000 0.0000 0.0000 33.9071 0.0000 -2.6920
# 5 -3.5156 -7.9161 6.3685 0.0000 35.3639 0.0000
# 6 0.0000 0.0000 0.0000 -2.6920 0.0000 21.6387
#
#
#
# Elastic Compliance Matrix: (Units=1/GPa)
#
#
# Indices 1 2 3 4 5 6 
#
# 1 0.011006 -0.001595 -0.005555 0.000000 0.001737 0.000000
# 2 -0.001595 0.013103 -0.005769 0.000000 0.003813 0.000000
# 3 -0.005555 -0.005769 0.025289 0.000000 -0.006398 0.000000
# 4 0.000000 0.000000 0.000000 0.029787 0.000000 0.003706
# 5 0.001737 0.003813 -0.006398 0.000000 0.030456 0.000000
# 6 0.000000 0.000000 0.000000 0.003706 0.000000 0.046674
#
#
# Mechanical properties :
#
#
# Convention : Reuss Voigt Hill
#
# Bulk Modulus (GPa) = 42.44405 46.85163 44.64784
# Shear Modulus (GPa) = 26.31470 29.81342 28.06406
#
# Velocity S-wave (km/s) = 3.63906 3.87343 3.75807
# Velocity P-wave (km/s) = 6.24634 6.60170 6.42648
#
# Compressibility (1/GPa) = 0.02356043
#
# Stress axis : x y z
#
# Youngs Moduli (GPa) = 90.85583 76.31706 39.54247
#
# Poissons Ratio (x) = 0.12176 0.21964
# Poissons Ratio (y) = 0.14496 0.22813
# Poissons Ratio (z) = 0.50466 0.44029
#
# Static dielectric constant tensor:
#      x y z
#    x 1.692980 0.000000 -0.023120 
#    y 0.000000 1.720270 0.000000 
#    z -0.023120 0.000000 1.718340 
# 
# From -- ./inp_files/48096.got.cif
#   From: 2010.05.17/outbox.cif.g08.bks.cpg/sg15_25_cif.got.tgz:48096.got - 2010.06.03 18:47:42.
