data_PCOD9294777
_publ_section_title
;
Structure prediction by ZEFSAII (Michael W. Deem and Ramdas Pophale) SiO2 
 PCOD9294777
Probable space group: C 2/C
;
_chemical_formula_sum "Si O2"
_cell_formula_units_Z 60
_cell_length_a 17.326491
_cell_length_b 14.772492
_cell_length_c 10.628622
_cell_angle_alpha 90.000000
_cell_angle_beta 83.390921
_cell_angle_gamma 90.000000
_cell_volume 2702.375058
_symmetry_space_group_name_H-M "C 2/C"
_symmetry_group_IT_number 15
_symmetry_cell_setting 'monoclinic'
loop_
_space_group_symop_operation_xyz
x,y,z
-x,y,1/2-z
-x,-y,-z
x,-y,1/2+z
1/2+x,1/2+y,z
1/2-x,1/2+y,1/2-z
1/2-x,1/2-y,-z
1/2+x,1/2-y,1/2+z
loop_
_atom_site_type_symbol
_atom_site_label
_atom_site_fract_x
_atom_site_fract_y
_atom_site_fract_z
Si Si1 0.130207 0.750408 0.017705
Si Si2 0.331376 0.280725 0.775202
Si Si3 0.260960 0.531689 0.322832
Si Si4 0.537899 0.758366 0.877448
Si Si5 0.171126 0.545247 0.084253
Si Si6 0.813507 0.160585 0.736992
Si Si7 0.043199 0.416462 0.048784
Si Si8 0.000000 0.290407 0.250000
O O1 0.138903 0.642539 0.042695
O O2 0.174011 0.798457 0.124997
O O3 0.038932 0.777466 0.038057
O O4 0.163068 0.782342 0.878264
O O5 0.308554 0.376844 0.837647
O O6 0.263405 0.206276 0.810057
O O7 0.419491 0.257169 0.799711
O O8 0.206240 0.560091 0.215705
O O9 0.222670 0.493335 0.458180
O O10 0.306238 0.446310 0.255154
O O11 0.500000 0.783166 0.750000
O O12 0.608364 0.689730 0.849242
O O13 0.571187 0.847972 0.936693
O O14 0.110064 0.463636 0.115359
O O15 0.983219 0.358624 0.140308
O O16 0.000000 0.500000 0.000000
#
# Coordination Sequence:
#
# PCOD9294777 Si02
#       8
#     8   8   8   8   8   8   8   4
#     4  11  21  46  74  95 141 195 232 282 357 443
#     4  12  23  47  71  95 146 185 238 287 349 429
#     4  12  27  45  73 107 135 192 241 292 352 422
#     4  10  23  41  66 104 136 178 227 286 352 411
#     4  12  25  43  72 108 139 179 240 290 363 427
#     4  11  23  43  74 101 138 179 244 288 345 425
#     4  12  25  38  68 100 144 171 228 288 361 431
#     4  12  28  44  64 102 142 194 222 292 370 410
#
# _framework density 22.202693
#
# number of rings (size 3 to 8) (size 9 to 14) (size 15 to 20)
#    0.000    0.533    5.333    2.800    4.667    1.067 
#    3.600    3.333    0.000    0.000    0.000    0.000 
#    0.000    0.000    0.000    0.000    0.000    0.000 
#
# Total GULP energy -167621.636051 kJ/mol
# GULP energy per Si atom -5587.387868 kJ/mol
# Density = 2.215216 g / cm^3
# Si number density = 22.202693 Si / 1000 Ang^3
#
#
#
# Elastic Constant Matrix: (Units=GPa)
#
#
# Indices 1 2 3 4 5 6 
#
# 1 110.8479 28.0902 10.8510 0.0000 -3.4838 0.0000
# 2 28.0902 95.2361 1.1208 0.0000 -4.5473 0.0000
# 3 10.8510 1.1208 50.3089 0.0000 -14.3736 0.0000
# 4 0.0000 0.0000 0.0000 34.2228 0.0000 -3.7112
# 5 -3.4838 -4.5473 -14.3736 0.0000 32.5282 0.0000
# 6 0.0000 0.0000 0.0000 -3.7112 0.0000 34.6909
#
#
#
# Elastic Compliance Matrix: (Units=1/GPa)
#
#
# Indices 1 2 3 4 5 6 
#
# 1 0.009966 -0.002928 -0.002170 0.000000 -0.000301 0.000000
# 2 -0.002928 0.011433 0.000851 0.000000 0.001661 0.000000
# 3 -0.002170 0.000851 0.023226 0.000000 0.010150 0.000000
# 4 0.000000 0.000000 0.000000 0.029563 0.000000 0.003163
# 5 -0.000301 0.001661 0.010150 0.000000 0.035428 0.000000
# 6 0.000000 0.000000 0.000000 0.003163 0.000000 0.029164
#
#
# Mechanical properties :
#
#
# Convention : Reuss Voigt Hill
#
# Bulk Modulus (GPa) = 27.67698 37.39079 32.53388
# Shear Modulus (GPa) = 31.38344 34.71044 33.04694
#
# Velocity S-wave (km/s) = 3.76373 3.95820 3.86219
# Velocity P-wave (km/s) = 5.60180 6.14549 5.87993
#
# Compressibility (1/GPa) = 0.03613111
#
# Stress axis : x y z
#
# Youngs Moduli (GPa) = 100.33625 87.46407 43.05478
#
# Poissons Ratio (x) = 0.25614 0.09345
# Poissons Ratio (y) = 0.29383 -0.03666
# Poissons Ratio (z) = 0.21777 -0.07447
#
# Static dielectric constant tensor:
#      x y z
#    x 1.912470 0.000000 0.016560 
#    y 0.000000 1.817340 0.000000 
#    z 0.016560 0.000000 1.903640 
# 
# From -- ./inp_files/105341.got.cif
#   From: 2010.05.17/outbox.cif.g08.bks.cpg/sg15_53_cif.got.tgz:105341.got - 2010.06.03 18:47:42.
