data_PCOD9294386
_publ_section_title
;
Structure prediction by ZEFSAII (Michael W. Deem and Ramdas Pophale) SiO2 
 PCOD9294386
Probable space group: C 2/C
;
_chemical_formula_sum "Si O2"
_cell_formula_units_Z 56
_cell_length_a 29.331470
_cell_length_b 18.483631
_cell_length_c 5.086880
_cell_angle_alpha 90.000000
_cell_angle_beta 71.721153
_cell_angle_gamma 90.000000
_cell_volume 2618.704454
_symmetry_space_group_name_H-M "C 2/C"
_symmetry_group_IT_number 15
_symmetry_cell_setting 'monoclinic'
loop_
_space_group_symop_operation_xyz
x,y,z
-x,y,1/2-z
-x,-y,-z
x,-y,1/2+z
1/2+x,1/2+y,z
1/2-x,1/2+y,1/2-z
1/2-x,1/2-y,-z
1/2+x,1/2-y,1/2+z
loop_
_atom_site_type_symbol
_atom_site_label
_atom_site_fract_x
_atom_site_fract_y
_atom_site_fract_z
Si Si1 0.449911 0.752404 0.945156
Si Si2 0.102537 0.450217 0.953233
Si Si3 0.000000 0.859045 0.750000
Si Si4 0.866890 0.188607 0.746725
Si Si5 0.083599 0.047451 0.880184
Si Si6 0.359923 0.819330 0.355523
Si Si7 0.000000 0.448027 0.250000
Si Si8 0.784585 0.252546 0.187297
O O1 0.500000 0.784844 0.750000
O O2 0.417624 0.713875 0.781542
O O3 0.467315 0.692633 0.125211
O O4 0.411653 0.808580 0.126653
O O5 0.105341 0.516235 0.158411
O O6 0.140705 0.389839 0.963299
O O7 0.050916 0.411594 0.104302
O O8 0.033353 0.911939 0.520292
O O9 0.875949 0.107762 0.635117
O O10 0.854140 0.247695 0.547783
O O11 0.825358 0.192966 0.042281
O O12 0.087050 0.017813 0.579954
O O13 0.319777 0.819040 0.201433
O O14 0.000000 0.500000 0.500000
O O15 0.750000 0.250000 0.500000
O O16 0.750000 0.250000 0.000000
#
# Coordination Sequence:
#
# PCOD9294386 Si02
#       8
#     8   8   4   8   8   8   4   8
#     4  11  21  37  62  94 141 179 233 285 331 384
#     4  10  23  40  63  95 135 177 221 269 327 406
#     4  12  22  39  56  94 139 198 240 288 318 391
#     4  11  24  42  68  99 132 174 236 281 340 416
#     4  12  26  40  63  93 139 193 232 281 334 393
#     4  11  24  42  71  99 135 180 223 286 353 400
#     4   8  16  35  52  76 121 174 214 242 296 373
#     4  11  24  44  75 105 124 162 221 290 348 416
#
# _framework density 21.384620999999999
#
# number of rings (size 3 to 8) (size 9 to 14) (size 15 to 20)
#    0.000    1.143    4.286    1.286    6.000    1.714 
#    5.143    0.000    0.000    5.143    0.000    0.000 
#    0.000    0.000    0.000    0.000    0.000    0.000 
#
# Total GULP energy -156264.856132 kJ/mol
# GULP energy per Si atom -5580.887719 kJ/mol
# Density = 2.133595 g / cm^3
# Si number density = 21.384621 Si / 1000 Ang^3
#
#
#
# Elastic Constant Matrix: (Units=GPa)
#
#
# Indices 1 2 3 4 5 6 
#
# 1 121.5264 19.6818 31.3440 0.0000 3.3175 0.0000
# 2 19.6818 32.2948 -2.7965 0.0000 -3.0619 0.0000
# 3 31.3440 -2.7965 102.3657 0.0000 -9.4883 0.0000
# 4 0.0000 0.0000 0.0000 30.7956 0.0000 12.6706
# 5 3.3175 -3.0619 -9.4883 0.0000 49.8153 0.0000
# 6 0.0000 0.0000 0.0000 12.6706 0.0000 18.1014
#
#
#
# Elastic Compliance Matrix: (Units=1/GPa)
#
#
# Indices 1 2 3 4 5 6 
#
# 1 0.010266 -0.006726 -0.003491 0.000000 -0.001762 0.000000
# 2 -0.006726 0.035663 0.003337 0.000000 0.003276 0.000000
# 3 -0.003491 0.003337 0.011167 0.000000 0.002564 0.000000
# 4 0.000000 0.000000 0.000000 0.045607 0.000000 -0.031924
# 5 -0.001762 0.003276 0.002564 0.000000 0.020881 0.000000
# 6 0.000000 0.000000 0.000000 -0.031924 0.000000 0.077590
#
#
# Mechanical properties :
#
#
# Convention : Reuss Voigt Hill
#
# Bulk Modulus (GPa) = 23.07452 39.18283 31.12868
# Shear Modulus (GPa) = 21.79798 33.60632 27.70215
#
# Velocity S-wave (km/s) = 3.19616 3.96854 3.60310
# Velocity P-wave (km/s) = 4.94310 6.27389 5.64783
#
# Compressibility (1/GPa) = 0.04333784
#
# Stress axis : x y z
#
# Youngs Moduli (GPa) = 97.40543 28.03994 89.55296
#
# Poissons Ratio (x) = 0.18860 0.31259
# Poissons Ratio (y) = 0.65515 -0.29887
# Poissons Ratio (z) = 0.34000 -0.09358
#
# Static dielectric constant tensor:
#      x y z
#    x 1.836050 0.000000 -0.000090 
#    y 0.000000 1.787840 0.000000 
#    z -0.000090 0.000000 1.853620 
# 
# From -- ./inp_files/17174.got.cif
#   From: 2010.05.17/outbox.cif.g08.bks.cpg/sg15_9_cif.got.tgz:17174.got - 2010.06.03 18:47:42.
