data_PCOD9294903
_publ_section_title
;
Structure prediction by ZEFSAII (Michael W. Deem and Ramdas Pophale) SiO2 
 PCOD9294903
Probable space group: C 2/C
;
_chemical_formula_sum "Si O2"
_cell_formula_units_Z 36
_cell_length_a 9.166830
_cell_length_b 22.052257
_cell_length_c 7.977285
_cell_angle_alpha 90.000000
_cell_angle_beta 84.056170
_cell_angle_gamma 90.000000
_cell_volume 1603.932982
_symmetry_space_group_name_H-M "C 2/C"
_symmetry_group_IT_number 15
_symmetry_cell_setting 'monoclinic'
loop_
_space_group_symop_operation_xyz
x,y,z
-x,y,1/2-z
-x,-y,-z
x,-y,1/2+z
1/2+x,1/2+y,z
1/2-x,1/2+y,1/2-z
1/2-x,1/2-y,-z
1/2+x,1/2-y,1/2+z
loop_
_atom_site_type_symbol
_atom_site_label
_atom_site_fract_x
_atom_site_fract_y
_atom_site_fract_z
Si Si1 0.000000 0.900836 0.750000
Si Si2 0.836676 0.995775 0.936848
Si Si3 0.536832 0.711366 0.468276
Si Si4 0.325748 0.082159 0.777907
Si Si5 0.769643 0.781202 0.218489
O O1 0.862673 0.945324 0.788152
O O2 0.992591 0.856651 0.591852
O O3 0.766464 0.056626 0.870702
O O4 0.726704 0.962808 0.072282
O O5 0.000000 0.000000 0.000000
O O6 0.634471 0.741205 0.306857
O O7 0.634823 0.711639 0.623012
O O8 0.384015 0.739839 0.558392
O O9 0.500000 0.078071 0.750000
O O10 0.284959 0.151573 0.818283
#
# Coordination Sequence:
#
# PCOD9294903 Si02
#       5
#     4   8   8   8   8
#     4  12  22  38  72  98 124 174 242 278 320 420
#     4  12  24  44  70 101 132 185 233 279 338 418
#     4  10  23  41  68  99 132 179 237 282 340 410
#     4  12  26  43  68 103 144 177 224 293 352 404
#     4  10  23  44  67  96 138 183 226 286 345 413
#
# _framework density 22.444827
#
# number of rings (size 3 to 8) (size 9 to 14) (size 15 to 20)
#    0.000    0.889    4.444    2.000    4.667    2.667 
#    0.000    0.000    0.000    0.000    0.000    0.000 
#    0.000    0.000    0.000    0.000    0.000    0.000 
#
# Total GULP energy -100468.564224 kJ/mol
# GULP energy per Si atom -5581.586901 kJ/mol
# Density = 2.239374 g / cm^3
# Si number density = 22.444827 Si / 1000 Ang^3
#
#
#
# Elastic Constant Matrix: (Units=GPa)
#
#
# Indices 1 2 3 4 5 6 
#
# 1 151.2934 35.2288 35.0724 0.0000 -27.4399 0.0000
# 2 35.2288 111.1509 25.2242 0.0000 -24.3173 0.0000
# 3 35.0724 25.2242 132.7787 0.0000 -44.4723 0.0000
# 4 0.0000 0.0000 0.0000 44.3089 0.0000 0.8300
# 5 -27.4399 -24.3173 -44.4723 0.0000 39.6459 0.0000
# 6 0.0000 0.0000 0.0000 0.8300 0.0000 32.0963
#
#
#
# Elastic Compliance Matrix: (Units=1/GPa)
#
#
# Indices 1 2 3 4 5 6 
#
# 1 0.007781 -0.001497 -0.000440 0.000000 0.003974 0.000000
# 2 -0.001497 0.010685 0.000342 0.000000 0.005901 0.000000
# 3 -0.000440 0.000342 0.012095 0.000000 0.013473 0.000000
# 4 0.000000 0.000000 0.000000 0.022580 0.000000 -0.000584
# 5 0.003974 0.005901 0.013473 0.000000 0.046706 0.000000
# 6 0.000000 0.000000 0.000000 -0.000584 0.000000 0.031171
#
#
# Mechanical properties :
#
#
# Convention : Reuss Voigt Hill
#
# Bulk Modulus (GPa) = 36.53467 65.14151 50.83809
# Shear Modulus (GPa) = 34.88424 43.19007 39.03715
#
# Velocity S-wave (km/s) = 3.94664 4.39142 4.17496
# Velocity P-wave (km/s) = 6.08940 7.40261 6.77789
#
# Compressibility (1/GPa) = 0.02737126
#
# Stress axis : x y z
#
# Youngs Moduli (GPa) = 128.51929 93.59224 82.67815
#
# Poissons Ratio (x) = 0.14010 0.03638
# Poissons Ratio (y) = 0.19239 -0.02829
# Poissons Ratio (z) = 0.05654 -0.03203
#
# Static dielectric constant tensor:
#      x y z
#    x 1.881330 0.000000 0.027720 
#    y 0.000000 1.788500 0.000000 
#    z 0.027720 0.000000 2.025170 
# 
# From -- ./inp_files/23326.got.cif
#   From: 2010.05.17/outbox.cif.g08.bks.cpg/sg15_12_cif.got.tgz:23326.got - 2010.06.03 18:47:42.
