data_PCOD9294372
_publ_section_title
;
Structure prediction by ZEFSAII (Michael W. Deem and Ramdas Pophale) SiO2 
 PCOD9294372
Probable space group: C 2/C
;
_chemical_formula_sum "Si O2"
_cell_formula_units_Z 56
_cell_length_a 6.511967
_cell_length_b 15.594811
_cell_length_c 29.130040
_cell_angle_alpha 90.000000
_cell_angle_beta 119.774698
_cell_angle_gamma 90.000000
_cell_volume 2567.707353
_symmetry_space_group_name_H-M "C 2/C"
_symmetry_group_IT_number 15
_symmetry_cell_setting 'monoclinic'
loop_
_space_group_symop_operation_xyz
x,y,z
-x,y,1/2-z
-x,-y,-z
x,-y,1/2+z
1/2+x,1/2+y,z
1/2-x,1/2+y,1/2-z
1/2-x,1/2-y,-z
1/2+x,1/2-y,1/2+z
loop_
_atom_site_type_symbol
_atom_site_label
_atom_site_fract_x
_atom_site_fract_y
_atom_site_fract_z
Si Si1 0.435877 0.490234 0.045604
Si Si2 0.634444 0.846750 0.058452
Si Si3 0.059155 0.558196 0.874556
Si Si4 0.717666 0.721035 0.140566
Si Si5 0.804752 0.340245 0.945496
Si Si6 0.386180 0.120098 0.353810
Si Si7 0.479711 0.221906 0.695363
O O1 0.295787 0.405625 0.044407
O O2 0.687949 0.487255 0.098167
O O3 0.276835 0.569134 0.043407
O O4 0.500000 0.500000 0.000000
O O5 0.489067 0.902169 0.080047
O O6 0.792467 0.789179 0.109928
O O7 0.465063 0.798628 0.002974
O O8 0.082947 0.637573 0.841928
O O9 0.861362 0.483143 0.845759
O O10 0.442301 0.704942 0.095754
O O11 0.711150 0.750000 0.192274
O O12 0.895267 0.644555 0.153772
O O13 0.941894 0.360828 0.913691
O O14 0.182013 0.190934 0.321398
O O15 0.500000 0.195213 0.750000
#
# Coordination Sequence:
#
# PCOD9294372 Si02
#       7
#     8   8   8   8   8   8   8
#     4  12  21  34  58  91 129 174 214 251 307 376
#     4  11  22  36  57  90 132 176 214 255 302 378
#     4  11  22  41  67  92 128 171 215 258 325 389
#     4  10  23  40  63  87 126 167 210 264 323 378
#     4  11  21  35  57  92 131 171 216 253 304 378
#     4  11  22  42  65  92 128 166 207 267 321 384
#     4  10  25  48  66  93 124 156 211 282 331 388
#
# _framework density 21.809339999999999
#
# number of rings (size 3 to 8) (size 9 to 14) (size 15 to 20)
#    0.000    1.143    4.286    2.571    0.000    1.143 
#    2.571    0.000    0.000    0.000    0.000    0.000 
#    0.000    0.000    0.000    0.000    0.000    0.000 
#
# Total GULP energy -156057.705322 kJ/mol
# GULP energy per Si atom -5573.489476 kJ/mol
# Density = 2.175970 g / cm^3
# Si number density = 21.809340 Si / 1000 Ang^3
#
#
#
# Elastic Constant Matrix: (Units=GPa)
#
#
# Indices 1 2 3 4 5 6 
#
# 1 64.4662 14.2468 31.9350 0.0000 -25.8594 0.0000
# 2 14.2468 77.2134 20.1779 0.0000 -7.1042 0.0000
# 3 31.9350 20.1779 80.5147 0.0000 -36.4179 0.0000
# 4 0.0000 0.0000 0.0000 19.4422 0.0000 -9.7654
# 5 -25.8594 -7.1042 -36.4179 0.0000 32.9595 0.0000
# 6 0.0000 0.0000 0.0000 -9.7654 0.0000 43.8773
#
#
#
# Elastic Compliance Matrix: (Units=1/GPa)
#
#
# Indices 1 2 3 4 5 6 
#
# 1 0.023210 -0.002467 -0.001182 0.000000 0.016372 0.000000
# 2 -0.002467 0.014169 -0.004131 0.000000 -0.003446 0.000000
# 3 -0.001182 -0.004131 0.026192 0.000000 0.027122 0.000000
# 4 0.000000 0.000000 0.000000 0.057908 0.000000 0.012888
# 5 0.016372 -0.003446 0.027122 0.000000 0.072411 0.000000
# 6 0.000000 0.000000 0.000000 0.012888 0.000000 0.025659
#
#
# Mechanical properties :
#
#
# Convention : Reuss Voigt Hill
#
# Bulk Modulus (GPa) = 20.82895 39.43486 30.13190
# Shear Modulus (GPa) = 19.91124 29.64478 24.77801
#
# Velocity S-wave (km/s) = 3.02481 3.69083 3.37429
# Velocity P-wave (km/s) = 4.66589 6.02361 5.38769
#
# Compressibility (1/GPa) = 0.04801011
#
# Stress axis : x y z
#
# Youngs Moduli (GPa) = 43.08413 70.57751 38.17926
#
# Poissons Ratio (x) = 0.17413 0.04514
# Poissons Ratio (y) = 0.10630 0.15772
# Poissons Ratio (z) = 0.05094 0.29156
#
# Static dielectric constant tensor:
#      x y z
#    x 1.825560 0.000000 0.040160 
#    y 0.000000 1.886220 0.000000 
#    z 0.040160 0.000000 1.830120 
# 
# From -- ./inp_files/286103.got.cif
#   From: 2010.05.17/outbox.cif.g08.bks.cpg/sg15_144_cif.got.tgz:286103.got - 2010.06.03 18:47:42.
