data_PCOD9294611
_publ_section_title
;
Structure prediction by ZEFSAII (Michael W. Deem and Ramdas Pophale) SiO2 
 PCOD9294611
Probable space group: C 2/C
;
_chemical_formula_sum "Si O2"
_cell_formula_units_Z 48
_cell_length_a 11.753007
_cell_length_b 7.976213
_cell_length_c 21.655216
_cell_angle_alpha 90.000000
_cell_angle_beta 91.283801
_cell_angle_gamma 90.000000
_cell_volume 2029.547542
_symmetry_space_group_name_H-M "C 2/C"
_symmetry_group_IT_number 15
_symmetry_cell_setting 'monoclinic'
loop_
_space_group_symop_operation_xyz
x,y,z
-x,y,1/2-z
-x,-y,-z
x,-y,1/2+z
1/2+x,1/2+y,z
1/2-x,1/2+y,1/2-z
1/2-x,1/2-y,-z
1/2+x,1/2-y,1/2+z
loop_
_atom_site_type_symbol
_atom_site_label
_atom_site_fract_x
_atom_site_fract_y
_atom_site_fract_z
Si Si1 0.429204 0.549029 0.312333
Si Si2 0.139009 0.861923 0.991404
Si Si3 0.174647 0.344444 0.802656
Si Si4 0.061117 0.331748 0.666185
Si Si5 0.914723 0.808142 0.938325
Si Si6 0.749563 0.053570 0.608802
O O1 0.500000 0.577413 0.250000
O O2 0.292321 0.555246 0.300999
O O3 0.457142 0.366546 0.339471
O O4 0.449053 0.685222 0.366178
O O5 0.020628 0.763693 0.983082
O O6 0.152228 0.960490 0.926694
O O7 0.250000 0.750000 0.000000
O O8 0.126301 0.006873 0.042020
O O9 0.119497 0.341021 0.734517
O O10 0.209511 0.164206 0.832445
O O11 0.065668 0.409783 0.840260
O O12 0.152698 0.419360 0.624460
O O13 0.810260 0.682283 0.938742
#
# Coordination Sequence:
#
# PCOD9294611 Si02
#       6
#     8   8   8   8   8   8
#     4  11  22  43  65  92 134 176 212 271 328 388
#     4  11  24  44  71  95 127 172 221 274 326 385
#     4  10  23  41  60  94 133 169 218 266 320 390
#     4  11  22  39  62  96 129 173 214 261 324 390
#     4  10  25  44  63 100 129 167 221 270 325 387
#     4  11  24  42  67  95 131 173 215 273 328 386
#
# _framework density 23.650590999999999
#
# number of rings (size 3 to 8) (size 9 to 14) (size 15 to 20)
#    0.000    1.333    1.667    3.500    2.333    6.000 
#   15.000    0.000    0.000    0.000    0.000    0.000 
#    0.000    0.000    0.000    0.000    0.000    0.000 
#
# Total GULP energy -134087.043179 kJ/mol
# GULP energy per Si atom -5586.960132 kJ/mol
# Density = 2.359676 g / cm^3
# Si number density = 23.650591 Si / 1000 Ang^3
#
#
#
# Elastic Constant Matrix: (Units=GPa)
#
#
# Indices 1 2 3 4 5 6 
#
# 1 150.9495 26.2170 29.3469 0.0000 13.5251 0.0000
# 2 26.2170 28.6614 9.8864 0.0000 4.3997 0.0000
# 3 29.3469 9.8864 51.8891 0.0000 -13.8129 0.0000
# 4 0.0000 0.0000 0.0000 27.8624 0.0000 4.3643
# 5 13.5251 4.3997 -13.8129 0.0000 52.8635 0.0000
# 6 0.0000 0.0000 0.0000 4.3643 0.0000 36.3619
#
#
#
# Elastic Compliance Matrix: (Units=1/GPa)
#
#
# Indices 1 2 3 4 5 6 
#
# 1 0.008841 -0.006029 -0.004643 0.000000 -0.002973 0.000000
# 2 -0.006029 0.042912 -0.005703 0.000000 -0.003519 0.000000
# 3 -0.004643 -0.005703 0.025178 0.000000 0.008242 0.000000
# 4 0.000000 0.000000 0.000000 0.036578 0.000000 -0.004390
# 5 -0.002973 -0.003519 0.008242 0.000000 0.022124 0.000000
# 6 0.000000 0.000000 0.000000 -0.004390 0.000000 0.028028
#
#
# Mechanical properties :
#
#
# Convention : Reuss Voigt Hill
#
# Bulk Modulus (GPa) = 22.63387 40.26672 31.45030
# Shear Modulus (GPa) = 23.68109 34.48755 29.08432
#
# Velocity S-wave (km/s) = 3.16775 3.82280 3.51058
# Velocity P-wave (km/s) = 4.79274 6.04547 5.45518
#
# Compressibility (1/GPa) = 0.04418158
#
# Stress axis : x y z
#
# Youngs Moduli (GPa) = 113.11030 23.30336 39.71673
#
# Poissons Ratio (x) = 0.14050 0.18440
# Poissons Ratio (y) = 0.68194 0.22650
# Poissons Ratio (z) = 0.52517 0.13290
#
# Static dielectric constant tensor:
#      x y z
#    x 1.911270 0.000000 -0.012480 
#    y 0.000000 1.870440 0.000000 
#    z -0.012480 0.000000 1.922880 
# 
# From -- ./inp_files/267789.got.cif
#   From: 2010.05.17/outbox.cif.g08.bks.cpg/sg15_134_cif.got.tgz:267789.got - 2010.06.03 18:47:42.
