data_PCOD9294346
_publ_section_title
;
Structure prediction by ZEFSAII (Michael W. Deem and Ramdas Pophale) SiO2 
 PCOD9294346
Probable space group: C 2/C
;
_chemical_formula_sum "Si O2"
_cell_formula_units_Z 40
_cell_length_a 8.721296
_cell_length_b 7.099373
_cell_length_c 26.491918
_cell_angle_alpha 90.000000
_cell_angle_beta 68.770644
_cell_angle_gamma 90.000000
_cell_volume 1528.955415
_symmetry_space_group_name_H-M "C 2/C"
_symmetry_group_IT_number 15
_symmetry_cell_setting 'monoclinic'
loop_
_space_group_symop_operation_xyz
x,y,z
-x,y,1/2-z
-x,-y,-z
x,-y,1/2+z
1/2+x,1/2+y,z
1/2-x,1/2+y,1/2-z
1/2-x,1/2-y,-z
1/2+x,1/2-y,1/2+z
loop_
_atom_site_type_symbol
_atom_site_label
_atom_site_fract_x
_atom_site_fract_y
_atom_site_fract_z
Si Si1 0.695459 0.378878 0.117174
Si Si2 0.560099 0.132326 0.297495
Si Si3 0.718057 0.469088 0.512698
Si Si4 0.844609 0.955347 0.587489
Si Si5 0.141759 0.740161 0.677575
O O1 0.548485 0.227280 0.145040
O O2 0.791984 0.456991 0.055812
O O3 0.838630 0.238272 0.119625
O O4 0.620728 0.560422 0.152876
O O5 0.500000 0.207399 0.250000
O O6 0.747123 0.192259 0.287354
O O7 0.507951 0.910414 0.301108
O O8 0.750000 0.250000 0.500000
O O9 0.528446 0.503691 0.550485
O O10 0.747846 0.568713 0.455762
O O11 0.763506 0.120368 0.627750
#
# Coordination Sequence:
#
# PCOD9294346 Si02
#       5
#     8   8   8   8   8
#     4  11  24  42  71  96 145 182 237 293 365 426
#     4  11  28  48  73 105 138 183 246 302 371 438
#     4  11  21  39  63  99 139 189 227 288 349 433
#     4  10  23  40  62 101 139 181 238 281 353 433
#     4  11  25  46  72 102 140 184 236 300 365 436
#
# _framework density 26.161653000000001
#
# number of rings (size 3 to 8) (size 9 to 14) (size 15 to 20)
#    0.000    1.200    4.000    0.600    5.600    1.600 
#    0.000    0.000    0.000    0.000    0.000    0.000 
#    0.000    0.000    0.000    0.000    0.000    0.000 
#
# Total GULP energy -111363.348735 kJ/mol
# GULP energy per Si atom -5568.167437 kJ/mol
# Density = 2.610211 g / cm^3
# Si number density = 26.161653 Si / 1000 Ang^3
#
#
#
# Elastic Constant Matrix: (Units=GPa)
#
#
# Indices 1 2 3 4 5 6 
#
# 1 41.4985 36.5458 24.6855 0.0000 6.8711 0.0000
# 2 36.5458 207.3938 39.0867 0.0000 -4.3173 0.0000
# 3 24.6855 39.0867 95.5452 0.0000 -2.0848 0.0000
# 4 0.0000 0.0000 0.0000 39.3759 0.0000 -15.7924
# 5 6.8711 -4.3173 -2.0848 0.0000 35.0118 0.0000
# 6 0.0000 0.0000 0.0000 -15.7924 0.0000 27.2902
#
#
#
# Elastic Compliance Matrix: (Units=1/GPa)
#
#
# Indices 1 2 3 4 5 6 
#
# 1 0.033689 -0.004793 -0.006909 0.000000 -0.007614 0.000000
# 2 -0.004793 0.005916 -0.001147 0.000000 0.001602 0.000000
# 3 -0.006909 -0.001147 0.012764 0.000000 0.001975 0.000000
# 4 0.000000 0.000000 0.000000 0.033072 0.000000 0.019138
# 5 -0.007614 0.001602 0.001975 0.000000 0.030371 0.000000
# 6 0.000000 0.000000 0.000000 0.019138 0.000000 0.047718
#
#
# Mechanical properties :
#
#
# Convention : Reuss Voigt Hill
#
# Bulk Modulus (GPa) = 37.49519 60.56373 49.02946
# Shear Modulus (GPa) = 25.23751 36.61022 30.92386
#
# Velocity S-wave (km/s) = 3.10929 3.74489 3.44180
# Velocity P-wave (km/s) = 5.22049 6.47295 5.88016
#
# Compressibility (1/GPa) = 0.02667009
#
# Stress axis : x y z
#
# Youngs Moduli (GPa) = 29.68347 169.03917 78.34744
#
# Poissons Ratio (x) = 0.81016 0.54134
# Poissons Ratio (y) = 0.14227 0.08985
# Poissons Ratio (z) = 0.20510 0.19386
#
# Static dielectric constant tensor:
#      x y z
#    x 2.290830 0.000000 0.232440 
#    y 0.000000 2.045750 0.000000 
#    z 0.232440 0.000000 2.422800 
# 
# From -- ./inp_files/290555.got.cif
#   From: 2010.05.17/outbox.cif.g08.bks.cpg/sg15_146_cif.got.tgz:290555.got - 2010.06.03 18:47:42.
