data_PCOD9294388
_publ_section_title
;
Structure prediction by ZEFSAII (Michael W. Deem and Ramdas Pophale) SiO2 
 PCOD9294388
Probable space group: C 2/C
;
_chemical_formula_sum "Si O2"
_cell_formula_units_Z 48
_cell_length_a 22.646320
_cell_length_b 12.333636
_cell_length_c 8.315033
_cell_angle_alpha 90.000000
_cell_angle_beta 122.956314
_cell_angle_gamma 90.000000
_cell_volume 1948.762921
_symmetry_space_group_name_H-M "C 2/C"
_symmetry_group_IT_number 15
_symmetry_cell_setting 'monoclinic'
loop_
_space_group_symop_operation_xyz
x,y,z
-x,y,1/2-z
-x,-y,-z
x,-y,1/2+z
1/2+x,1/2+y,z
1/2-x,1/2+y,1/2-z
1/2-x,1/2-y,-z
1/2+x,1/2-y,1/2+z
loop_
_atom_site_type_symbol
_atom_site_label
_atom_site_fract_x
_atom_site_fract_y
_atom_site_fract_z
Si Si1 0.736939 0.644590 0.207923
Si Si2 0.933548 0.089700 0.045289
Si Si3 0.163150 0.989874 0.852046
Si Si4 0.149428 0.347280 0.163384
Si Si5 0.003702 0.282951 0.564584
Si Si6 0.631003 0.922170 0.770456
O O1 0.723270 0.557092 0.327283
O O2 0.709470 0.757684 0.237080
O O3 0.815684 0.647572 0.259648
O O4 0.689563 0.596527 0.988272
O O5 0.000000 0.051215 0.250000
O O6 0.866240 0.096090 0.063170
O O7 0.902868 0.011346 0.862935
O O8 0.957799 0.195003 0.986592
O O9 0.154270 0.455177 0.274509
O O10 0.076440 0.292561 0.107600
O O11 0.139751 0.389484 0.967387
O O12 0.000000 0.254608 0.750000
O O13 0.050186 0.391849 0.613480
#
# Coordination Sequence:
#
# PCOD9294388 Si02
#       6
#     8   8   8   8   8   8
#     4  11  23  44  68  98 133 173 218 271 330 394
#     4  11  22  38  62  93 129 173 218 271 332 394
#     4  10  23  40  63  96 134 170 216 272 332 391
#     4  11  24  43  65  95 133 173 220 276 326 385
#     4  10  23  43  65  93 130 175 220 268 326 386
#     4  11  24  42  68  95 130 176 219 268 328 390
#
# _framework density 24.631008999999999
#
# number of rings (size 3 to 8) (size 9 to 14) (size 15 to 20)
#    0.000    1.333    0.000    5.500    0.000    8.667 
#    0.000    2.500    0.000    0.000    0.000    0.000 
#    0.000    0.000    0.000    0.000    0.000    0.000 
#
# Total GULP energy -134327.204309 kJ/mol
# GULP energy per Si atom -5596.966846 kJ/mol
# Density = 2.457495 g / cm^3
# Si number density = 24.631009 Si / 1000 Ang^3
#
#
#
# Elastic Constant Matrix: (Units=GPa)
#
#
# Indices 1 2 3 4 5 6 
#
# 1 104.6060 23.7463 49.2118 0.0000 -8.5142 0.0000
# 2 23.7463 84.0803 27.0199 0.0000 -12.7732 0.0000
# 3 49.2118 27.0199 63.6377 0.0000 -13.0205 0.0000
# 4 0.0000 0.0000 0.0000 54.6417 0.0000 -52.3692
# 5 -8.5142 -12.7732 -13.0205 0.0000 25.3178 0.0000
# 6 0.0000 0.0000 0.0000 -52.3692 0.0000 95.4237
#
#
#
# Elastic Compliance Matrix: (Units=1/GPa)
#
#
# Indices 1 2 3 4 5 6 
#
# 1 0.015087 -0.000719 -0.011620 0.000000 -0.001265 0.000000
# 2 -0.000719 0.014261 -0.004556 0.000000 0.004610 0.000000
# 3 -0.011620 -0.004556 0.028348 0.000000 0.008372 0.000000
# 4 0.000000 0.000000 0.000000 0.038608 0.000000 0.021189
# 5 -0.001265 0.004610 0.008372 0.000000 0.045704 0.000000
# 6 0.000000 0.000000 0.000000 0.021189 0.000000 0.022108
#
#
# Mechanical properties :
#
#
# Convention : Reuss Voigt Hill
#
# Bulk Modulus (GPa) = 41.83255 50.25334 46.04294
# Shear Modulus (GPa) = 24.28673 45.23304 34.75988
#
# Velocity S-wave (km/s) = 3.14351 4.29000 3.76070
# Velocity P-wave (km/s) = 5.49510 6.70713 6.13114
#
# Compressibility (1/GPa) = 0.02390483
#
# Stress axis : x y z
#
# Youngs Moduli (GPa) = 66.28375 70.12220 35.27645
#
# Poissons Ratio (x) = 0.05040 0.40993
# Poissons Ratio (y) = 0.04764 0.16072
# Poissons Ratio (z) = 0.77024 0.31947
#
# Static dielectric constant tensor:
#      x y z
#    x 1.915450 0.000000 0.018890 
#    y 0.000000 1.950530 0.000000 
#    z 0.018890 0.000000 1.976880 
# 
# From -- ./inp_files/60898.got.cif
#   From: 2010.05.17/outbox.cif.g08.bks.cpg/sg15_31_cif.got.tgz:60898.got - 2010.06.03 18:47:42.
