data_PCOD9294846
_publ_section_title
;
Structure prediction by ZEFSAII (Michael W. Deem and Ramdas Pophale) SiO2 
 PCOD9294846
Probable space group: C 2/C
;
_chemical_formula_sum "Si O2"
_cell_formula_units_Z 40
_cell_length_a 12.330648
_cell_length_b 25.277415
_cell_length_c 5.449403
_cell_angle_alpha 90.000000
_cell_angle_beta 108.772083
_cell_angle_gamma 90.000000
_cell_volume 1608.157441
_symmetry_space_group_name_H-M "C 2/C"
_symmetry_group_IT_number 15
_symmetry_cell_setting 'monoclinic'
loop_
_space_group_symop_operation_xyz
x,y,z
-x,y,1/2-z
-x,-y,-z
x,-y,1/2+z
1/2+x,1/2+y,z
1/2-x,1/2+y,1/2-z
1/2-x,1/2-y,-z
1/2+x,1/2-y,1/2+z
loop_
_atom_site_type_symbol
_atom_site_label
_atom_site_fract_x
_atom_site_fract_y
_atom_site_fract_z
Si Si1 0.691439 0.289359 0.270659
Si Si2 0.434456 0.926356 0.952022
Si Si3 0.660774 0.183372 0.012514
Si Si4 0.326635 0.468622 0.770730
Si Si5 0.407906 0.353224 0.894377
O O1 0.750000 0.250000 0.500000
O O2 0.632282 0.244336 0.054165
O O3 0.607589 0.330066 0.340267
O O4 0.803087 0.318954 0.244713
O O5 0.500000 0.938877 0.750000
O O6 0.421734 0.862390 0.962340
O O7 0.307476 0.950940 0.838341
O O8 0.500000 0.942547 0.250000
O O9 0.786131 0.167911 0.204698
O O10 0.348248 0.492159 0.515339
O O11 0.399332 0.416346 0.884493
O O12 0.500000 0.338425 0.750000
#
# Coordination Sequence:
#
# PCOD9294846 Si02
#       5
#     8   8   8   8   8
#     4   9  19  40  64  89 136 177 222 271 330 407
#     4  11  25  42  70 102 136 176 226 283 342 412
#     4   9  21  41  62  95 135 179 220 274 335 404
#     4  11  26  46  72  98 135 178 228 295 354 406
#     4  10  23  41  67  96 132 178 226 282 341 406
#
# _framework density 24.873184999999999
#
# number of rings (size 3 to 8) (size 9 to 14) (size 15 to 20)
#    0.000    2.000    0.000    1.200   14.000    4.000 
#   10.800    0.000    0.000    0.000    0.000    0.000 
#    0.000    0.000    0.000    0.000    0.000    0.000 
#
# Total GULP energy -111599.183319 kJ/mol
# GULP energy per Si atom -5579.959166 kJ/mol
# Density = 2.481657 g / cm^3
# Si number density = 24.873185 Si / 1000 Ang^3
#
#
#
# Elastic Constant Matrix: (Units=GPa)
#
#
# Indices 1 2 3 4 5 6 
#
# 1 98.0357 49.6565 41.7841 0.0000 -25.7048 0.0000
# 2 49.6565 157.5205 38.2121 0.0000 -18.5920 0.0000
# 3 41.7841 38.2121 99.5380 0.0000 -44.5726 0.0000
# 4 0.0000 0.0000 0.0000 -105.5669 0.0000 57.3261
# 5 -25.7048 -18.5920 -44.5726 0.0000 26.7392 0.0000
# 6 0.0000 0.0000 0.0000 57.3261 0.0000 -18.4204
#
#
#
# Elastic Compliance Matrix: (Units=1/GPa)
#
#
# Indices 1 2 3 4 5 6 
#
# 1 0.015139 -0.003408 0.001613 0.000000 0.014873 0.000000
# 2 -0.003408 0.007784 -0.002370 0.000000 -0.001816 0.000000
# 3 0.001613 -0.002370 0.040368 0.000000 0.067195 0.000000
# 4 0.000000 0.000000 0.000000 0.013729 0.000000 0.042726
# 5 0.014873 -0.001816 0.067195 0.000000 0.162442 0.000000
# 6 0.000000 0.000000 0.000000 0.042726 0.000000 0.078681
#
#
# Mechanical properties :
#
#
# Convention : Reuss Voigt Hill
#
# Bulk Modulus (GPa) = 18.19505 68.26663 43.23084
# Shear Modulus (GPa) = 14.50142 -4.42019 5.04062
#
# Velocity S-wave (km/s) = 2.41719 -1.33452 1.42511
# Velocity P-wave (km/s) = 3.88863 5.01307 4.48622
#
# Compressibility (1/GPa) = 0.05495999
#
# Stress axis : x y z
#
# Youngs Moduli (GPa) = 66.05611 128.47687 24.77182
#
# Poissons Ratio (x) = 0.43788 -0.03997
# Poissons Ratio (y) = 0.22514 0.05872
# Poissons Ratio (z) = -0.10658 0.30455
#
# Static dielectric constant tensor:
#      x y z
#    x 1.969000 0.000000 -0.058120 
#    y 0.000000 2.016630 0.000000 
#    z -0.058120 0.000000 2.555300 
# 
# From -- ./inp_files/5020.got.cif
#   From: 2010.05.17/outbox.cif.g08.bks.cpg/sg15_3_cif.got.tgz:5020.got - 2010.06.03 18:47:42.
