data_PCOD9294986
_publ_section_title
;
Structure prediction by ZEFSAII (Michael W. Deem and Ramdas Pophale) SiO2 
 PCOD9294986
Probable space group: C 2/C
;
_chemical_formula_sum "Si O2"
_cell_formula_units_Z 32
_cell_length_a 19.249037
_cell_length_b 5.344080
_cell_length_c 27.292854
_cell_angle_alpha 90.000000
_cell_angle_beta 150.950066
_cell_angle_gamma 90.000000
_cell_volume 1363.277472
_symmetry_space_group_name_H-M "C 2/C"
_symmetry_group_IT_number 15
_symmetry_cell_setting 'monoclinic'
loop_
_space_group_symop_operation_xyz
x,y,z
-x,y,1/2-z
-x,-y,-z
x,-y,1/2+z
1/2+x,1/2+y,z
1/2-x,1/2+y,1/2-z
1/2-x,1/2-y,-z
1/2+x,1/2-y,1/2+z
loop_
_atom_site_type_symbol
_atom_site_label
_atom_site_fract_x
_atom_site_fract_y
_atom_site_fract_z
Si Si1 0.833839 0.233989 0.000821
Si Si2 0.142358 0.944910 0.809326
Si Si3 0.339966 0.723502 0.315986
Si Si4 0.251415 0.061426 0.142789
O O1 0.002796 0.237251 0.109834
O O2 0.750000 0.250000 0.000000
O O3 0.772140 0.455250 0.928491
O O4 0.793778 0.999579 0.940751
O O5 0.128541 0.222506 0.780365
O O6 0.000000 0.869354 0.750000
O O7 0.189300 0.711429 0.805088
O O8 0.244894 0.484878 0.240920
O O9 0.362508 0.662895 0.388495
#
# Coordination Sequence:
#
# PCOD9294986 Si02
#       4
#     8   8   8   8
#     4  10  27  45  71 105 142 180 238 286 354 414
#     4  10  23  41  72  99 141 180 229 286 354 406
#     4  12  28  45  73 102 142 185 238 286 349 420
#     4  10  24  44  70  96 143 180 236 280 357 404
#
# _framework density 23.472842
#
# number of rings (size 3 to 8) (size 9 to 14) (size 15 to 20)
#    1.500    0.000    0.000    3.000   10.500    2.000 
#    0.000    0.000    0.000    0.000    0.000    0.000 
#    0.000    0.000    0.000    0.000    0.000    0.000 
#
# Total GULP energy -89149.565768 kJ/mol
# GULP energy per Si atom -5571.847861 kJ/mol
# Density = 2.341942 g / cm^3
# Si number density = 23.472842 Si / 1000 Ang^3
#
#
#
# Elastic Constant Matrix: (Units=GPa)
#
#
# Indices 1 2 3 4 5 6 
#
# 1 140.2803 32.9387 42.6305 -0.0006 29.0468 -0.0053
# 2 32.9387 177.8229 46.6291 0.0014 9.5780 -0.0034
# 3 42.6305 46.6291 110.1394 -0.0007 27.7441 -0.0051
# 4 -0.0006 0.0014 -0.0007 13.8229 0.0004 -1.1223
# 5 29.0468 9.5780 27.7441 0.0004 44.1321 0.0042
# 6 -0.0053 -0.0034 -0.0051 -1.1223 0.0042 32.4460
#
#
#
# Elastic Compliance Matrix: (Units=1/GPa)
#
#
# Indices 1 2 3 4 5 6 
#
# 1 0.008838 -0.000893 -0.001932 0.000001 -0.004409 0.000002
# 2 -0.000893 0.006421 -0.002578 -0.000001 0.000815 0.000000
# 3 -0.001932 -0.002578 0.012425 0.000001 -0.005980 0.000002
# 4 0.000001 -0.000001 0.000001 0.072547 -0.000002 0.002510
# 5 -0.004409 0.000815 -0.005980 -0.000002 0.029143 -0.000005
# 6 0.000002 0.000000 0.000002 0.002510 -0.000005 0.030907
#
#
# Mechanical properties :
#
#
# Convention : Reuss Voigt Hill
#
# Bulk Modulus (GPa) = 59.24991 74.73770 66.99381
# Shear Modulus (GPa) = 28.29406 38.48314 33.38860
#
# Velocity S-wave (km/s) = 3.47565 4.05344 3.77561
# Velocity P-wave (km/s) = 6.43456 7.33596 6.89999
#
# Compressibility (1/GPa) = 0.01687766
#
# Stress axis : x y z
#
# Youngs Moduli (GPa) = 113.14313 155.73577 80.48182
#
# Poissons Ratio (x) = 0.13907 0.15552
# Poissons Ratio (y) = 0.10104 0.20749
# Poissons Ratio (z) = 0.21864 0.40151
#
# Static dielectric constant tensor:
#      x y z
#    x 2.123610 0.000010 -0.170600 
#    y 0.000010 1.958730 -0.000010 
#    z -0.170600 -0.000010 1.908250 
# 
# From -- ./inp_files/158178.got.cif
#   From: 2010.05.17/outbox.cif.g08.bks.cpg/sg15_80_cif.got.tgz:158178.got - 2010.06.03 18:47:42.
