data_PCOD9294664
_publ_section_title
;
Structure prediction by ZEFSAII (Michael W. Deem and Ramdas Pophale) SiO2 
 PCOD9294664
Probable space group: C 2/C
;
_chemical_formula_sum "Si O2"
_cell_formula_units_Z 24
_cell_length_a 24.987397
_cell_length_b 5.051949
_cell_length_c 12.662995
_cell_angle_alpha 90.000000
_cell_angle_beta 137.849506
_cell_angle_gamma 90.000000
_cell_volume 1072.731093
_symmetry_space_group_name_H-M "C 2/C"
_symmetry_group_IT_number 15
_symmetry_cell_setting 'monoclinic'
loop_
_space_group_symop_operation_xyz
x,y,z
-x,y,1/2-z
-x,-y,-z
x,-y,1/2+z
1/2+x,1/2+y,z
1/2-x,1/2+y,1/2-z
1/2-x,1/2-y,-z
1/2+x,1/2-y,1/2+z
loop_
_atom_site_type_symbol
_atom_site_label
_atom_site_fract_x
_atom_site_fract_y
_atom_site_fract_z
Si Si1 0.441705 0.376518 0.070849
Si Si2 0.062326 0.730617 0.668293
Si Si3 0.842135 0.225759 0.607872
O O1 0.500000 0.281843 0.250000
O O2 0.478578 0.665091 0.096016
O O3 0.357983 0.352620 0.008133
O O4 0.447326 0.211496 0.971940
O O5 0.118272 0.988142 0.768243
O O6 0.110904 0.492043 0.790578
O O7 0.750000 0.250000 0.500000
#
# Coordination Sequence:
#
# PCOD9294664 Si02
#       3
#     8   8   8
#     4   9  22  40  64  91 128 168 212 263 317 384
#     4  10  23  41  63  92 126 172 217 259 321 387
#     4  11  24  41  64  96 130 167 215 270 326 381
#
# _framework density 22.372802
#
# number of rings (size 3 to 8) (size 9 to 14) (size 15 to 20)
#    0.000    2.000    0.000    1.000    0.000   32.000 
#    0.000    0.000    0.000    0.000    0.000    0.000 
#    0.000    0.000    0.000    0.000    0.000    0.000 
#
# Total GULP energy -66975.170219 kJ/mol
# GULP energy per Si atom -5581.264185 kJ/mol
# Density = 2.232188 g / cm^3
# Si number density = 22.372802 Si / 1000 Ang^3
#
#
#
# Elastic Constant Matrix: (Units=GPa)
#
#
# Indices 1 2 3 4 5 6 
#
# 1 231.1361 57.0770 75.1864 0.0000 13.0863 0.0000
# 2 57.0770 178.7426 58.8990 0.0000 13.4323 0.0000
# 3 75.1864 58.8990 54.8405 0.0000 9.0306 0.0000
# 4 0.0000 0.0000 0.0000 38.0445 0.0000 -5.2813
# 5 13.0863 13.4323 9.0306 0.0000 51.9654 0.0000
# 6 0.0000 0.0000 0.0000 -5.2813 0.0000 24.8760
#
#
#
# Elastic Compliance Matrix: (Units=1/GPa)
#
#
# Indices 1 2 3 4 5 6 
#
# 1 0.008120 0.001672 -0.012889 0.000000 -0.000237 0.000000
# 2 0.001672 0.009024 -0.011871 0.000000 -0.000691 0.000000
# 3 -0.012889 -0.011871 0.049018 0.000000 -0.002204 0.000000
# 4 0.000000 0.000000 0.000000 0.027083 0.000000 0.005750
# 5 -0.000237 -0.000691 -0.002204 0.000000 0.019865 0.000000
# 6 0.000000 0.000000 0.000000 0.005750 0.000000 0.041420
#
#
# Mechanical properties :
#
#
# Convention : Reuss Voigt Hill
#
# Bulk Modulus (GPa) = 50.03404 94.11602 72.07503
# Shear Modulus (GPa) = 24.11188 41.21428 32.66308
#
# Velocity S-wave (km/s) = 3.28644 4.29670 3.82507
# Velocity P-wave (km/s) = 6.06739 8.17153 7.19678
#
# Compressibility (1/GPa) = 0.01998639
#
# Stress axis : x y z
#
# Youngs Moduli (GPa) = 123.15943 110.81232 20.40086
#
# Poissons Ratio (x) = -0.18529 0.26294
# Poissons Ratio (y) = -0.20594 0.24218
# Poissons Ratio (z) = 1.58737 1.31544
#
# Static dielectric constant tensor:
#      x y z
#    x 1.943560 0.000000 0.030960 
#    y 0.000000 1.925990 0.000000 
#    z 0.030960 0.000000 1.842460 
# 
# From -- ./inp_files/101965.got.cif
#   From: 2010.05.17/outbox.cif.g08.bks.cpg/sg15_51_cif.got.tgz:101965.got - 2010.06.03 18:47:42.
