data_PCOD9294338
_publ_section_title
;
Structure prediction by ZEFSAII (Michael W. Deem and Ramdas Pophale) SiO2 
 PCOD9294338
Probable space group: C 2/C
;
_chemical_formula_sum "Si O2"
_cell_formula_units_Z 60
_cell_length_a 20.723370
_cell_length_b 14.054603
_cell_length_c 8.771411
_cell_angle_alpha 90.000000
_cell_angle_beta 110.638279
_cell_angle_gamma 90.000000
_cell_volume 2390.797130
_symmetry_space_group_name_H-M "C 2/C"
_symmetry_group_IT_number 15
_symmetry_cell_setting 'monoclinic'
loop_
_space_group_symop_operation_xyz
x,y,z
-x,y,1/2-z
-x,-y,-z
x,-y,1/2+z
1/2+x,1/2+y,z
1/2-x,1/2+y,1/2-z
1/2-x,1/2-y,-z
1/2+x,1/2-y,1/2+z
loop_
_atom_site_type_symbol
_atom_site_label
_atom_site_fract_x
_atom_site_fract_y
_atom_site_fract_z
Si Si1 0.848860 0.606689 0.793513
Si Si2 0.152690 0.684375 0.055159
Si Si3 0.637104 0.437980 0.731622
Si Si4 0.079231 0.178034 0.951006
Si Si5 0.300396 0.595044 0.905713
Si Si6 0.504691 0.833612 0.083051
Si Si7 0.000000 0.995450 0.250000
Si Si8 0.179738 0.697717 0.400249
O O1 0.839384 0.661784 0.619754
O O2 0.773361 0.560079 0.716628
O O3 0.932451 0.588866 0.857962
O O4 0.841706 0.641057 0.964810
O O5 0.179041 0.794151 0.085686
O O6 0.186484 0.646944 0.242481
O O7 0.074429 0.647011 0.018950
O O8 0.639142 0.348754 0.620979
O O9 0.645794 0.534647 0.646962
O O10 0.560742 0.439744 0.738202
O O11 0.691117 0.432378 0.911477
O O12 0.030201 0.254486 0.986782
O O13 0.117806 0.223854 0.839972
O O14 0.038951 0.080771 0.889513
O O15 0.500000 0.792367 0.250000
O O16 0.250000 0.750000 0.500000
#
# Coordination Sequence:
#
# PCOD9294338 Si02
#       8
#     8   8   8   8   8   8   4   8
#     4  10  23  40  61  92 124 157 207 260 311 365
#     4  11  22  39  67  92 123 161 199 259 320 366
#     4  12  26  37  57  80 123 168 215 240 295 359
#     4  11  22  36  54  83 122 161 204 247 292 360
#     4  12  24  41  57  88 127 165 206 252 297 365
#     4   9  19  36  61  91 118 157 196 253 317 367
#     4  12  24  38  52  84 118 170 212 242 284 360
#     4  11  22  36  61  89 124 161 201 250 314 364
#
# _framework density 25.096232000000001
#
# number of rings (size 3 to 8) (size 9 to 14) (size 15 to 20)
#    0.000    1.067    2.667    5.600    4.667    1.600 
#    0.000    0.000    0.000    0.000    0.000    8.400 
#    0.000    0.000    0.000    0.000    0.000    0.000 
#
# Total GULP energy -167028.835633 kJ/mol
# GULP energy per Si atom -5567.627854 kJ/mol
# Density = 2.503911 g / cm^3
# Si number density = 25.096232 Si / 1000 Ang^3
#
#
#
# Elastic Constant Matrix: (Units=GPa)
#
#
# Indices 1 2 3 4 5 6 
#
# 1 109.8838 16.8184 16.4292 0.0000 8.8794 0.0000
# 2 16.8184 29.2513 9.3879 0.0000 -3.2536 0.0000
# 3 16.4292 9.3879 164.6429 0.0000 -1.0122 0.0000
# 4 0.0000 0.0000 0.0000 1.2486 0.0000 28.5112
# 5 8.8794 -3.2536 -1.0122 0.0000 52.7211 0.0000
# 6 0.0000 0.0000 0.0000 28.5112 0.0000 -23.8699
#
#
#
# Elastic Compliance Matrix: (Units=1/GPa)
#
#
# Indices 1 2 3 4 5 6 
#
# 1 0.010282 -0.005922 -0.000701 0.000000 -0.002111 0.000000
# 2 -0.005922 0.038471 -0.001582 0.000000 0.003341 0.000000
# 3 -0.000701 -0.001582 0.006235 0.000000 0.000140 0.000000
# 4 0.000000 0.000000 0.000000 0.028326 0.000000 0.033833
# 5 -0.002111 0.003341 0.000140 0.000000 0.019532 0.000000
# 6 0.000000 0.000000 0.000000 0.033833 0.000000 -0.001482
#
#
# Mechanical properties :
#
#
# Convention : Reuss Voigt Hill
#
# Bulk Modulus (GPa) = 25.92185 43.22768 34.57477
# Shear Modulus (GPa) = 38.27506 23.42945 30.85225
#
# Velocity S-wave (km/s) = 3.90953 3.05878 3.51002
# Velocity P-wave (km/s) = 5.54352 5.45316 5.49853
#
# Compressibility (1/GPa) = 0.03857749
#
# Stress axis : x y z
#
# Youngs Moduli (GPa) = 97.25462 25.99383 160.38971
#
# Poissons Ratio (x) = 0.15393 0.11249
# Poissons Ratio (y) = 0.57590 0.25376
# Poissons Ratio (z) = 0.06821 0.04113
#
# Static dielectric constant tensor:
#      x y z
#    x 2.016500 0.000000 0.020550 
#    y 0.000000 2.058790 0.000000 
#    z 0.020550 0.000000 2.054680 
# 
# From -- ./inp_files/57570.got.cif
#   From: 2010.05.17/outbox.cif.g08.bks.cpg/sg15_29_cif.got.tgz:57570.got - 2010.06.03 18:47:42.
