data_PCOD9294825
_publ_section_title
;
Structure prediction by ZEFSAII (Michael W. Deem and Ramdas Pophale) SiO2 
 PCOD9294825
Probable space group: C 2/C
;
_chemical_formula_sum "Si O2"
_cell_formula_units_Z 48
_cell_length_a 22.540257
_cell_length_b 16.352187
_cell_length_c 13.525421
_cell_angle_alpha 90.000000
_cell_angle_beta 157.375699
_cell_angle_gamma 90.000000
_cell_volume 1917.753761
_symmetry_space_group_name_H-M "C 2/C"
_symmetry_group_IT_number 15
_symmetry_cell_setting 'monoclinic'
loop_
_space_group_symop_operation_xyz
x,y,z
-x,y,1/2-z
-x,-y,-z
x,-y,1/2+z
1/2+x,1/2+y,z
1/2-x,1/2+y,1/2-z
1/2-x,1/2-y,-z
1/2+x,1/2-y,1/2+z
loop_
_atom_site_type_symbol
_atom_site_label
_atom_site_fract_x
_atom_site_fract_y
_atom_site_fract_z
Si Si1 0.606803 0.808839 0.009302
Si Si2 0.500000 0.557930 0.750000
Si Si3 0.039914 0.907489 0.530811
Si Si4 0.379668 0.118405 0.639663
Si Si5 0.000000 0.220929 0.250000
Si Si6 0.244084 0.421064 0.349208
Si Si7 0.645641 0.257749 0.239973
O O1 0.658554 0.900772 0.116856
O O2 0.739684 0.744199 0.177116
O O3 0.500000 0.812923 0.750000
O O4 0.510539 0.783361 0.958708
O O5 0.489186 0.604513 0.630737
O O6 0.350637 0.499813 0.517822
O O7 0.914664 0.847291 0.383336
O O8 0.209703 0.885203 0.829940
O O9 0.000000 0.000000 0.500000
O O10 0.500000 0.077507 0.750000
O O11 0.445739 0.211606 0.748088
O O12 0.365016 0.078387 0.723583
O O13 0.143290 0.158629 0.471690
O O14 0.750000 0.250000 0.500000
#
# Coordination Sequence:
#
# PCOD9294825 Si02
#       7
#     8   4   8   8   4   8   8
#     4  10  23  41  67 106 143 178 230 297 353 418
#     4  11  26  42  74  96 129 192 230 280 347 446
#     4  12  24  48  71  98 146 190 240 290 367 443
#     4  10  24  43  67 104 137 180 233 299 353 429
#     4   9  22  36  70  96 137 164 228 288 345 404
#     4  11  21  42  68 103 134 178 233 279 362 418
#     4  10  24  43  70 106 142 184 239 300 360 429
#
# _framework density 25.029281999999998
#
# number of rings (size 3 to 8) (size 9 to 14) (size 15 to 20)
#    0.500    1.000    1.667    2.500    8.167    0.000 
#    3.000    7.500    0.000    0.000    0.000    0.000 
#    0.000    0.000    0.000    0.000    0.000    0.000 
#
# Total GULP energy -133971.646190 kJ/mol
# GULP energy per Si atom -5582.151925 kJ/mol
# Density = 2.497231 g / cm^3
# Si number density = 25.029282 Si / 1000 Ang^3
#
#
#
# Elastic Constant Matrix: (Units=GPa)
#
#
# Indices 1 2 3 4 5 6 
#
# 1 165.5447 6.0384 46.3758 0.0000 19.5894 0.0000
# 2 6.0384 48.6467 32.0970 0.0000 9.0380 0.0000
# 3 46.3758 32.0970 96.7262 0.0000 12.1464 0.0000
# 4 0.0000 0.0000 0.0000 19.4778 0.0000 -10.1505
# 5 19.5894 9.0380 12.1464 0.0000 36.2399 0.0000
# 6 0.0000 0.0000 0.0000 -10.1505 0.0000 30.8576
#
#
#
# Elastic Compliance Matrix: (Units=1/GPa)
#
#
# Indices 1 2 3 4 5 6 
#
# 1 0.007440 0.002263 -0.003907 0.000000 -0.003277 0.000000
# 2 0.002263 0.027517 -0.009605 0.000000 -0.004867 0.000000
# 3 -0.003907 -0.009605 0.015484 0.000000 -0.000683 0.000000
# 4 0.000000 0.000000 0.000000 0.061962 0.000000 0.020382
# 5 -0.003277 -0.004867 -0.000683 0.000000 0.030808 0.000000
# 6 0.000000 0.000000 0.000000 0.020382 0.000000 0.039112
#
#
# Mechanical properties :
#
#
# Convention : Reuss Voigt Hill
#
# Bulk Modulus (GPa) = 35.78542 53.32666 44.55604
# Shear Modulus (GPa) = 23.34970 32.40881 27.87925
#
# Velocity S-wave (km/s) = 3.05765 3.60229 3.34108
# Velocity P-wave (km/s) = 5.17630 6.21723 5.72049
#
# Compressibility (1/GPa) = 0.02794434
#
# Stress axis : x y z
#
# Youngs Moduli (GPa) = 134.40307 36.34130 64.58076
#
# Poissons Ratio (x) = -0.08224 0.25230
# Poissons Ratio (y) = -0.30414 0.62029
# Poissons Ratio (z) = 0.52507 0.34905
#
# Static dielectric constant tensor:
#      x y z
#    x 2.053800 0.000000 -0.109100 
#    y 0.000000 1.980410 0.000000 
#    z -0.109100 0.000000 2.304910 
# 
# From -- ./inp_files/174554.got.cif
#   From: 2010.05.17/outbox.cif.g08.bks.cpg/sg15_88_cif.got.tgz:174554.got - 2010.06.03 18:47:42.
