data_PCOD9294516
_publ_section_title
;
Structure prediction by ZEFSAII (Michael W. Deem and Ramdas Pophale) SiO2 
 PCOD9294516
Probable space group: C 2/C
;
_chemical_formula_sum "Si O2"
_cell_formula_units_Z 56
_cell_length_a 24.000929
_cell_length_b 11.247784
_cell_length_c 30.202583
_cell_angle_alpha 90.000000
_cell_angle_beta 20.710373
_cell_angle_gamma 90.000000
_cell_volume 2883.404940
_symmetry_space_group_name_H-M "C 2/C"
_symmetry_group_IT_number 15
_symmetry_cell_setting 'monoclinic'
loop_
_space_group_symop_operation_xyz
x,y,z
-x,y,1/2-z
-x,-y,-z
x,-y,1/2+z
1/2+x,1/2+y,z
1/2-x,1/2+y,1/2-z
1/2-x,1/2-y,-z
1/2+x,1/2-y,1/2+z
loop_
_atom_site_type_symbol
_atom_site_label
_atom_site_fract_x
_atom_site_fract_y
_atom_site_fract_z
Si Si1 0.245166 0.911876 0.448888
Si Si2 0.944436 0.348418 0.656931
Si Si3 0.387770 0.015059 0.541019
Si Si4 0.903418 0.066233 0.110941
Si Si5 0.461728 0.063046 0.705246
Si Si6 0.440857 0.428979 0.172163
Si Si7 0.034424 0.715769 0.572794
O O1 0.382767 0.906819 0.382363
O O2 0.321177 0.946430 0.344917
O O3 0.171941 0.782502 0.496540
O O4 0.101031 0.001725 0.565722
O O5 0.765904 0.390755 0.780134
O O6 0.996898 0.437295 0.656427
O O7 0.957740 0.212122 0.659961
O O8 0.046068 0.377383 0.537805
O O9 0.406874 0.895955 0.498416
O O10 0.500000 0.000000 0.500000
O O11 0.207743 0.034067 0.687891
O O12 0.970582 0.184297 0.086178
O O13 0.894400 0.970579 0.157129
O O14 0.000000 0.000000 0.000000
O O15 0.426546 0.158440 0.692088
#
# Coordination Sequence:
#
# PCOD9294516 Si02
#       7
#     8   8   8   8   8   8   8
#     4  10  23  43  68  92 127 165 225 264 326 376
#     4  11  24  40  64  92 132 165 215 260 324 387
#     4  11  23  41  61  94 131 170 205 259 326 377
#     4  11  24  39  65  96 132 170 210 262 322 390
#     4  10  23  44  66  94 124 175 210 273 323 373
#     4  11  25  40  64  94 125 172 213 263 316 391
#     4  10  23  40  67  95 130 166 216 267 315 385
#
# _framework density 19.421482999999998
#
# number of rings (size 3 to 8) (size 9 to 14) (size 15 to 20)
#    0.000    1.429    1.429    3.000   12.000    0.571 
#    0.000    2.143    0.000    0.000    0.000    0.000 
#    0.000    0.000    0.000    0.000    0.000    0.000 
#
# Total GULP energy -156340.575672 kJ/mol
# GULP energy per Si atom -5583.591988 kJ/mol
# Density = 1.937728 g / cm^3
# Si number density = 19.421483 Si / 1000 Ang^3
#
#
#
# Elastic Constant Matrix: (Units=GPa)
#
#
# Indices 1 2 3 4 5 6 
#
# 1 65.6766 38.3945 37.9058 -0.0028 9.4218 0.0011
# 2 38.3945 97.4503 26.7430 0.0032 7.1681 0.0013
# 3 37.9058 26.7430 137.4267 -0.0119 13.1776 -0.0015
# 4 -0.0028 0.0032 -0.0119 13.7582 -0.0013 3.7695
# 5 9.4218 7.1681 13.1776 -0.0013 36.4815 0.0002
# 6 0.0011 0.0013 -0.0015 3.7695 0.0002 22.2713
#
#
#
# Elastic Compliance Matrix: (Units=1/GPa)
#
#
# Indices 1 2 3 4 5 6 
#
# 1 0.022585 -0.007458 -0.004516 0.000003 -0.002736 -0.000001
# 2 -0.007458 0.013374 -0.000495 -0.000005 -0.000523 0.000000
# 3 -0.004516 -0.000495 0.008802 0.000007 -0.001916 0.000000
# 4 0.000003 -0.000005 0.000007 0.076218 0.000001 -0.012900
# 5 -0.002736 -0.000523 -0.001916 0.000001 0.028913 0.000000
# 6 -0.000001 0.000000 0.000000 -0.012900 0.000000 0.047084
#
#
# Mechanical properties :
#
#
# Convention : Reuss Voigt Hill
#
# Bulk Modulus (GPa) = 50.44522 56.29335 53.36929
# Shear Modulus (GPa) = 21.87973 27.66956 24.77465
#
# Velocity S-wave (km/s) = 3.36009 3.77860 3.57547
# Velocity P-wave (km/s) = 6.40967 6.93434 6.67716
#
# Compressibility (1/GPa) = 0.01982348
#
# Stress axis : x y z
#
# Youngs Moduli (GPa) = 44.27767 74.77014 113.60647
#
# Poissons Ratio (x) = 0.55761 0.51303
# Poissons Ratio (y) = 0.33021 0.05629
# Poissons Ratio (z) = 0.19995 0.03705
#
# Static dielectric constant tensor:
#      x y z
#    x 1.705320 0.000000 0.014770 
#    y 0.000000 1.667130 0.000000 
#    z 0.014770 0.000000 1.697420 
# 
# From -- ./inp_files/318760.got.cif
#   From: 2010.05.17/outbox.cif.g08.bks.cpg/sg15_160_cif.got.tgz:318760.got - 2010.06.03 18:47:42.
