data_PCOD9294149
_publ_section_title
;
Structure prediction by ZEFSAII (Michael W. Deem and Ramdas Pophale) SiO2 
 PCOD9294149
Probable space group: C 2/C
;
_chemical_formula_sum "Si O2"
_cell_formula_units_Z 56
_cell_length_a 14.058220
_cell_length_b 5.699936
_cell_length_c 27.469923
_cell_angle_alpha 90.000000
_cell_angle_beta 87.186302
_cell_angle_gamma 90.000000
_cell_volume 2198.537454
_symmetry_space_group_name_H-M "C 2/C"
_symmetry_group_IT_number 15
_symmetry_cell_setting 'monoclinic'
loop_
_space_group_symop_operation_xyz
x,y,z
-x,y,1/2-z
-x,-y,-z
x,-y,1/2+z
1/2+x,1/2+y,z
1/2-x,1/2+y,1/2-z
1/2-x,1/2-y,-z
1/2+x,1/2-y,1/2+z
loop_
_atom_site_type_symbol
_atom_site_label
_atom_site_fract_x
_atom_site_fract_y
_atom_site_fract_z
Si Si1 0.617221 0.231442 0.849088
Si Si2 0.918170 0.252297 0.820090
Si Si3 0.603680 0.264042 0.029825
Si Si4 0.221393 0.373517 0.154588
Si Si5 0.990529 0.267194 0.437946
Si Si6 0.124466 0.672147 0.287942
Si Si7 0.723559 0.474395 0.097693
O O1 0.695726 0.432432 0.847900
O O2 0.524519 0.278050 0.882358
O O3 0.607523 0.106815 0.797222
O O4 0.671279 0.044750 0.882765
O O5 0.878395 0.515319 0.829116
O O6 0.888525 0.218883 0.764712
O O7 0.855048 0.111372 0.860373
O O8 0.032081 0.229115 0.820212
O O9 0.562355 0.524860 0.045094
O O10 0.706328 0.314162 0.051412
O O11 0.557707 0.026186 0.054464
O O12 0.578648 0.231416 0.974174
O O13 0.268775 0.215414 0.195666
O O14 0.211701 0.253794 0.101959
#
# Coordination Sequence:
#
# PCOD9294149 Si02
#       7
#     8   8   8   8   8   8   8
#     4  10  23  39  61  92 128 174 218 277 340 401
#     4  10  23  40  62  93 125 173 229 274 343 409
#     4  10  23  42  68  98 130 173 224 278 340 407
#     4  10  24  38  61  92 130 174 217 280 340 404
#     4  10  23  42  68  98 130 173 224 278 340 407
#     4  10  23  40  62  93 125 173 229 274 343 409
#     4  10  23  39  61  92 128 174 218 277 340 401
#
# _framework density 25.471478999999999
#
# number of rings (size 3 to 8) (size 9 to 14) (size 15 to 20)
#    0.000    2.000    0.000    0.857   18.000    0.571 
#    0.000    3.571    0.000    0.000    0.000    0.000 
#    0.000    0.000    0.000    0.000    0.000    0.000 
#
# Total GULP energy -155917.631578 kJ/mol
# GULP energy per Si atom -5568.486842 kJ/mol
# Density = 2.541350 g / cm^3
# Si number density = 25.471479 Si / 1000 Ang^3
#
#
#
# Elastic Constant Matrix: (Units=GPa)
#
#
# Indices 1 2 3 4 5 6 
#
# 1 89.6540 14.6086 20.4695 0.0000 15.6444 0.0000
# 2 14.6086 85.2758 20.2827 0.0000 -2.1913 0.0000
# 3 20.4695 20.2827 74.9077 0.0000 8.5812 0.0000
# 4 0.0000 0.0000 0.0000 32.5099 0.0000 11.3489
# 5 15.6444 -2.1913 8.5812 0.0000 37.1380 0.0000
# 6 0.0000 0.0000 0.0000 11.3489 0.0000 34.3413
#
#
#
# Elastic Compliance Matrix: (Units=1/GPa)
#
#
# Indices 1 2 3 4 5 6 
#
# 1 0.012867 -0.001742 -0.002477 0.000000 -0.004951 0.000000
# 2 -0.001742 0.012859 -0.003263 0.000000 0.002247 0.000000
# 3 -0.002477 -0.003263 0.015216 0.000000 -0.002665 0.000000
# 4 0.000000 0.000000 0.000000 0.034771 0.000000 -0.011491
# 5 -0.004951 0.002247 -0.002665 0.000000 0.029760 0.000000
# 6 0.000000 0.000000 0.000000 -0.011491 0.000000 0.032917
#
#
# Mechanical properties :
#
#
# Convention : Reuss Voigt Hill
#
# Bulk Modulus (GPa) = 38.49625 40.06213 39.27919
# Shear Modulus (GPa) = 30.86141 33.76295 32.31218
#
# Velocity S-wave (km/s) = 3.48459 3.64472 3.56555
# Velocity P-wave (km/s) = 5.59787 5.78570 5.69256
#
# Compressibility (1/GPa) = 0.02597656
#
# Stress axis : x y z
#
# Youngs Moduli (GPa) = 77.71582 77.76672 65.72241
#
# Poissons Ratio (x) = 0.13549 0.16281
# Poissons Ratio (y) = 0.13541 0.21446
# Poissons Ratio (z) = 0.19252 0.25376
#
# Static dielectric constant tensor:
#      x y z
#    x 2.080120 0.000000 0.067800 
#    y 0.000000 2.262610 0.000000 
#    z 0.067800 0.000000 2.075950 
# 
# From -- ./inp_files/312335.got.cif
#   From: 2010.05.17/outbox.cif.g08.bks.cpg/sg15_157_cif.got.tgz:312335.got - 2010.06.03 18:47:42.
