data_PCOD9294013
_publ_section_title
;
Structure prediction by ZEFSAII (Michael W. Deem and Ramdas Pophale) SiO2 
 PCOD9294013
Probable space group: C 2/C
;
_chemical_formula_sum "Si O2"
_cell_formula_units_Z 48
_cell_length_a 25.948992
_cell_length_b 14.059439
_cell_length_c 11.844691
_cell_angle_alpha 90.000000
_cell_angle_beta 33.598558
_cell_angle_gamma 90.000000
_cell_volume 2391.268212
_symmetry_space_group_name_H-M "C 2/C"
_symmetry_group_IT_number 15
_symmetry_cell_setting 'monoclinic'
loop_
_space_group_symop_operation_xyz
x,y,z
-x,y,1/2-z
-x,-y,-z
x,-y,1/2+z
1/2+x,1/2+y,z
1/2-x,1/2+y,1/2-z
1/2-x,1/2-y,-z
1/2+x,1/2-y,1/2+z
loop_
_atom_site_type_symbol
_atom_site_label
_atom_site_fract_x
_atom_site_fract_y
_atom_site_fract_z
Si Si1 0.070958 0.868094 0.795636
Si Si2 0.722203 0.748525 0.917806
Si Si3 0.888548 0.784053 0.228152
Si Si4 0.712441 0.839093 0.416739
Si Si5 0.582187 0.554151 0.662225
Si Si6 0.718094 0.548867 0.212480
O O1 0.127211 0.810599 0.598056
O O2 0.142895 0.912782 0.756856
O O3 0.032305 0.963444 0.808669
O O4 0.991676 0.800980 0.991797
O O5 0.793136 0.693616 0.704207
O O6 0.717624 0.858205 0.889196
O O7 0.750000 0.750000 0.000000
O O8 0.807620 0.785061 0.282668
O O9 0.868385 0.700967 0.354661
O O10 0.872322 0.880983 0.327256
O O11 0.727921 0.951127 0.408239
O O12 0.500000 0.611218 0.750000
O O13 0.660388 0.528149 0.430809
#
# Coordination Sequence:
#
# PCOD9294013 Si02
#       6
#     8   8   8   8   8   8
#     4  11  22  38  58  92 124 156 200 256 303 359
#     4  10  23  38  58  85 119 162 201 245 302 362
#     4  11  23  36  57  92 121 151 195 247 314 353
#     4  11  22  39  59  86 122 158 195 249 303 369
#     4  12  20  32  61  90 122 147 195 256 305 359
#     4  11  21  38  59  87 120 159 204 245 302 360
#
# _framework density 20.073031
#
# number of rings (size 3 to 8) (size 9 to 14) (size 15 to 20)
#    0.000    1.000    6.667    1.500    0.000    0.000 
#    0.000    0.833    0.000    0.000   13.000    0.000 
#    0.000    0.000    0.000    0.000    0.000    0.000 
#
# Total GULP energy -133782.260388 kJ/mol
# GULP energy per Si atom -5574.260849 kJ/mol
# Density = 2.002734 g / cm^3
# Si number density = 20.073031 Si / 1000 Ang^3
#
#
#
# Elastic Constant Matrix: (Units=GPa)
#
#
# Indices 1 2 3 4 5 6 
#
# 1 47.2655 1.2912 0.0925 0.0000 11.0519 0.0000
# 2 1.2912 118.1949 60.0885 0.0000 4.9129 0.0000
# 3 0.0925 60.0885 94.9616 0.0000 21.3936 0.0000
# 4 0.0000 0.0000 0.0000 35.4480 0.0000 2.4435
# 5 11.0519 4.9129 21.3936 0.0000 17.9015 0.0000
# 6 0.0000 0.0000 0.0000 2.4435 0.0000 19.1947
#
#
#
# Elastic Compliance Matrix: (Units=1/GPa)
#
#
# Indices 1 2 3 4 5 6 
#
# 1 0.027032 -0.003087 0.007520 0.000000 -0.024830 0.000000
# 2 -0.003087 0.013778 -0.011348 0.000000 0.011685 0.000000
# 3 0.007520 -0.011348 0.024697 0.000000 -0.031044 0.000000
# 4 0.000000 0.000000 0.000000 0.028460 0.000000 -0.003623
# 5 -0.024830 0.011685 -0.031044 0.000000 0.105083 0.000000
# 6 0.000000 0.000000 0.000000 -0.003623 0.000000 0.052559
#
#
# Mechanical properties :
#
#
# Convention : Reuss Voigt Hill
#
# Bulk Modulus (GPa) = 19.34978 42.59626 30.97302
# Shear Modulus (GPa) = 17.68893 27.77218 22.73055
#
# Velocity S-wave (km/s) = 2.97177 3.72365 3.36876
# Velocity P-wave (km/s) = 4.62989 6.30509 5.53128
#
# Compressibility (1/GPa) = 0.05168018
#
# Stress axis : x y z
#
# Youngs Moduli (GPa) = 36.99252 72.58206 40.49026
#
# Poissons Ratio (x) = 0.22403 -0.30451
# Poissons Ratio (y) = 0.11418 0.45946
# Poissons Ratio (z) = -0.27820 0.82363
#
# Static dielectric constant tensor:
#      x y z
#    x 1.884770 0.000000 -0.009660 
#    y 0.000000 1.720010 0.000000 
#    z -0.009660 0.000000 1.726950 
# 
# From -- ./inp_files/96444.got.cif
#   From: 2010.05.17/outbox.cif.g08.bks.cpg/sg15_49_cif.got.tgz:96444.got - 2010.06.03 18:47:42.
