data_PCOD9294320
_publ_section_title
;
Structure prediction by ZEFSAII (Michael W. Deem and Ramdas Pophale) SiO2 
 PCOD9294320
Probable space group: C 2/C
;
_chemical_formula_sum "Si O2"
_cell_formula_units_Z 40
_cell_length_a 11.034025
_cell_length_b 26.429361
_cell_length_c 6.549742
_cell_angle_alpha 90.000000
_cell_angle_beta 109.482920
_cell_angle_gamma 90.000000
_cell_volume 1800.682713
_symmetry_space_group_name_H-M "C 2/C"
_symmetry_group_IT_number 15
_symmetry_cell_setting 'monoclinic'
loop_
_space_group_symop_operation_xyz
x,y,z
-x,y,1/2-z
-x,-y,-z
x,-y,1/2+z
1/2+x,1/2+y,z
1/2-x,1/2+y,1/2-z
1/2-x,1/2-y,-z
1/2+x,1/2-y,1/2+z
loop_
_atom_site_type_symbol
_atom_site_label
_atom_site_fract_x
_atom_site_fract_y
_atom_site_fract_z
Si Si1 0.147560 0.513972 0.814870
Si Si2 0.250000 0.885802 0.000000
Si Si3 0.646690 0.692465 0.759600
Si Si4 0.146690 0.692465 0.259600
Si Si5 0.647560 0.486028 0.814870
O O1 0.180544 0.498197 0.587667
O O2 0.157803 0.575605 0.825104
O O3 0.000000 0.495467 0.750000
O O4 0.173849 0.850061 0.109345
O O5 0.326151 0.850060 0.890655
O O6 0.157803 0.924395 0.825105
O O7 0.500000 0.688229 0.750000
O O8 0.663841 0.750000 0.689220
O O9 0.750000 0.686238 0.000000
O O10 0.000000 0.688229 0.250000
O O11 0.500000 0.504533 0.750000
O O12 0.680544 0.501803 0.587668
#
# Coordination Sequence:
#
# PCOD9294320 Si02
#       5
#     8   8   8   8   8
#     4  10  23  40  60  88 122 163 212 256 313 373
#     4  10  25  38  70  88 130 164 215 252 326 364
#     4  10  23  41  63  94 128 164 209 259 312 376
#     4  10  23  41  63  94 128 164 209 259 312 376
#     4  10  23  40  60  88 122 163 212 256 313 373
#
# _framework density 22.213799000000002
#
# number of rings (size 3 to 8) (size 9 to 14) (size 15 to 20)
#    1.200    0.800    0.000    1.800    5.600    3.200 
#    0.000    6.000    0.000    0.000    0.000    0.000 
#    0.000    0.000    0.000    0.000    0.000    0.000 
#
# Total GULP energy -111444.667602 kJ/mol
# GULP energy per Si atom -5572.233380 kJ/mol
# Density = 2.216324 g / cm^3
# Si number density = 22.213799 Si / 1000 Ang^3
#
#
#
# Elastic Constant Matrix: (Units=GPa)
#
#
# Indices 1 2 3 4 5 6 
#
# 1 196.5177 43.9157 111.3413 0.0000 -12.6288 0.0000
# 2 43.9157 165.3237 72.2098 0.0000 -34.9636 0.0000
# 3 111.3413 72.2098 139.6387 0.0000 -0.7460 0.0000
# 4 0.0000 0.0000 0.0000 36.1315 0.0000 -54.8587
# 5 -12.6288 -34.9636 -0.7460 0.0000 66.1004 0.0000
# 6 0.0000 0.0000 0.0000 -54.8587 0.0000 -29.1924
#
#
#
# Elastic Compliance Matrix: (Units=1/GPa)
#
#
# Indices 1 2 3 4 5 6 
#
# 1 0.009811 0.001782 -0.008730 0.000000 0.002718 0.000000
# 2 0.001782 0.009423 -0.006266 0.000000 0.005254 0.000000
# 3 -0.008730 -0.006266 0.017337 0.000000 -0.004786 0.000000
# 4 0.000000 0.000000 0.000000 0.007183 0.000000 -0.013498
# 5 0.002718 0.005254 -0.004786 0.000000 0.018373 0.000000
# 6 0.000000 0.000000 0.000000 -0.013498 0.000000 -0.008890
#
#
# Mechanical properties :
#
#
# Convention : Reuss Voigt Hill
#
# Bulk Modulus (GPa) = 98.58314 106.26818 102.42566
# Shear Modulus (GPa) = 60.20821 32.87544 46.54183
#
# Velocity S-wave (km/s) = 5.21180 3.85119 4.58228
# Velocity P-wave (km/s) = 8.98291 8.22911 8.61426
#
# Compressibility (1/GPa) = 0.01014372
#
# Stress axis : x y z
#
# Youngs Moduli (GPa) = 101.92438 106.12026 57.68169
#
# Poissons Ratio (x) = -0.18907 0.50355
# Poissons Ratio (y) = -0.18160 0.36141
# Poissons Ratio (z) = 0.88978 0.66490
#
# Static dielectric constant tensor:
#      x y z
#    x 2.046900 0.000000 -0.072620 
#    y 0.000000 1.718450 0.000000 
#    z -0.072620 0.000000 1.955900 
# 
# From -- ./inp_files/7666.got.cif
#   From: 2010.05.17/outbox.cif.g08.bks.cpg/sg15_4_cif.got.tgz:7666.got - 2010.06.03 18:47:42.
