data_PCOD9294011
_publ_section_title
;
Structure prediction by ZEFSAII (Michael W. Deem and Ramdas Pophale) SiO2 
 PCOD9294011
Probable space group: C 2/C
;
_chemical_formula_sum "Si O2"
_cell_formula_units_Z 40
_cell_length_a 13.685707
_cell_length_b 25.118830
_cell_length_c 5.211871
_cell_angle_alpha 90.000000
_cell_angle_beta 69.984133
_cell_angle_gamma 90.000000
_cell_volume 1683.458154
_symmetry_space_group_name_H-M "C 2/C"
_symmetry_group_IT_number 15
_symmetry_cell_setting 'monoclinic'
loop_
_space_group_symop_operation_xyz
x,y,z
-x,y,1/2-z
-x,-y,-z
x,-y,1/2+z
1/2+x,1/2+y,z
1/2-x,1/2+y,1/2-z
1/2-x,1/2-y,-z
1/2+x,1/2-y,1/2+z
loop_
_atom_site_type_symbol
_atom_site_label
_atom_site_fract_x
_atom_site_fract_y
_atom_site_fract_z
Si Si1 0.386691 0.196091 0.950530
Si Si2 0.392569 0.034606 0.441328
Si Si3 0.255314 0.617410 0.143070
Si Si4 0.620818 0.536749 0.148793
Si Si5 0.302385 0.706656 0.769847
O O1 0.500000 0.181445 0.750000
O O2 0.292573 0.192385 0.832082
O O3 0.342288 0.154789 0.196298
O O4 0.387337 0.257649 0.046865
O O5 0.500000 0.061483 0.250000
O O6 0.296514 0.072313 0.481683
O O7 0.390104 0.013635 0.734238
O O8 0.309832 0.587387 0.331258
O O9 0.331789 0.655500 0.911612
O O10 0.500000 0.553415 0.250000
O O11 0.636748 0.494646 0.368442
O O12 0.250000 0.750000 0.000000
#
# Coordination Sequence:
#
# PCOD9294011 Si02
#       5
#     8   8   8   8   8
#     4  10  23  42  68  95 137 177 224 287 354 417
#     4  10  23  38  57  97 142 178 221 272 332 403
#     4  11  23  37  69  98 133 182 230 277 344 414
#     4  10  23  44  70 100 142 185 233 292 349 406
#     4   9  22  43  62  96 131 174 228 286 347 411
#
# _framework density 23.760614
#
# number of rings (size 3 to 8) (size 9 to 14) (size 15 to 20)
#    0.000    2.000    0.000    1.200    8.400    3.200 
#    0.000   11.000    0.000    0.000    0.000    0.000 
#    0.000    0.000    0.000    0.000    0.000    0.000 
#
# Total GULP energy -111713.909199 kJ/mol
# GULP energy per Si atom -5585.695460 kJ/mol
# Density = 2.370653 g / cm^3
# Si number density = 23.760614 Si / 1000 Ang^3
#
#
#
# Elastic Constant Matrix: (Units=GPa)
#
#
# Indices 1 2 3 4 5 6 
#
# 1 74.8316 58.2086 22.2387 0.0000 -8.6829 0.0000
# 2 58.2086 98.3421 39.2353 0.0000 -3.5278 0.0000
# 3 22.2387 39.2353 89.1359 0.0000 5.0706 0.0000
# 4 0.0000 0.0000 0.0000 37.9931 0.0000 4.9046
# 5 -8.6829 -3.5278 5.0706 0.0000 40.3793 0.0000
# 6 0.0000 0.0000 0.0000 4.9046 0.0000 22.5376
#
#
#
# Elastic Compliance Matrix: (Units=1/GPa)
#
#
# Indices 1 2 3 4 5 6 
#
# 1 0.025447 -0.014902 -0.000027 0.000000 0.004173 0.000000
# 2 -0.014902 0.021188 -0.005571 0.000000 -0.000654 0.000000
# 3 -0.000027 -0.005571 0.013805 0.000000 -0.002226 0.000000
# 4 0.000000 0.000000 0.000000 0.027081 0.000000 -0.005893
# 5 0.004173 -0.000654 -0.002226 0.000000 0.025885 0.000000
# 6 0.000000 0.000000 0.000000 -0.005893 0.000000 0.045653
#
#
# Mechanical properties :
#
#
# Convention : Reuss Voigt Hill
#
# Bulk Modulus (GPa) = 51.44097 55.74163 53.59130
# Shear Modulus (GPa) = 24.20851 29.69046 26.94949
#
# Velocity S-wave (km/s) = 3.19541 3.53876 3.37145
# Velocity P-wave (km/s) = 5.94229 6.34095 6.14486
#
# Compressibility (1/GPa) = 0.01943976
#
# Stress axis : x y z
#
# Youngs Moduli (GPa) = 39.29742 47.19605 72.43967
#
# Poissons Ratio (x) = 0.70330 0.00195
# Poissons Ratio (y) = 0.58559 0.40360
# Poissons Ratio (z) = 0.00106 0.26295
#
# Static dielectric constant tensor:
#      x y z
#    x 2.076250 0.000000 0.734500 
#    y 0.000000 2.069770 0.000000 
#    z 0.734500 0.000000 5.125470 
# 
# From -- ./inp_files/7485.got.cif
#   From: 2010.05.17/outbox.cif.g08.bks.cpg/sg15_4_cif.got.tgz:7485.got - 2010.06.03 18:47:42.
