data_PCOD9294948
_publ_section_title
;
Structure prediction by ZEFSAII (Michael W. Deem and Ramdas Pophale) SiO2 
 PCOD9294948
Probable space group: C 2/C
;
_chemical_formula_sum "Si O2"
_cell_formula_units_Z 40
_cell_length_a 15.768702
_cell_length_b 21.308920
_cell_length_c 5.254267
_cell_angle_alpha 90.000000
_cell_angle_beta 79.653898
_cell_angle_gamma 90.000000
_cell_volume 1736.801672
_symmetry_space_group_name_H-M "C 2/C"
_symmetry_group_IT_number 15
_symmetry_cell_setting 'monoclinic'
loop_
_space_group_symop_operation_xyz
x,y,z
-x,y,1/2-z
-x,-y,-z
x,-y,1/2+z
1/2+x,1/2+y,z
1/2-x,1/2+y,1/2-z
1/2-x,1/2-y,-z
1/2+x,1/2-y,1/2+z
loop_
_atom_site_type_symbol
_atom_site_label
_atom_site_fract_x
_atom_site_fract_y
_atom_site_fract_z
Si Si1 0.500000 0.162679 0.250000
Si Si2 0.175247 0.440707 0.348812
Si Si3 0.400649 0.339999 0.858728
Si Si4 0.500000 0.923952 0.250000
Si Si5 0.648445 0.735883 0.601506
Si Si6 0.746257 0.077559 0.322503
O O1 0.509155 0.119877 0.496940
O O2 0.416087 0.206916 0.306508
O O3 0.082400 0.463758 0.298199
O O4 0.234541 0.502365 0.342461
O O5 0.193180 0.405507 0.600139
O O6 0.202404 0.396925 0.101719
O O7 0.500000 0.355385 0.750000
O O8 0.379987 0.287568 0.660985
O O9 0.342095 0.398233 0.796734
O O10 0.373668 0.314238 0.155509
O O11 0.750000 0.750000 0.500000
#
# Coordination Sequence:
#
# PCOD9294948 Si02
#       6
#     4   8   8   4   8   8
#     4  12  26  46  67 114 138 184 245 292 344 444
#     4  10  23  44  63 103 136 183 234 287 345 432
#     4  12  24  47  71 103 140 187 234 300 358 421
#     4  12  26  40  73  96 154 186 225 292 360 412
#     4  12  27  46  72 100 145 185 241 298 357 424
#     4  10  23  41  70  94 136 177 238 281 347 424
#
# _framework density 23.030840999999999
#
# number of rings (size 3 to 8) (size 9 to 14) (size 15 to 20)
#    0.000    0.800    2.000    4.200    8.400    3.200 
#    0.000    4.000    0.000    0.000    0.000    0.000 
#    0.000    0.000    0.000    0.000    0.000    0.000 
#
# Total GULP energy -111548.670671 kJ/mol
# GULP energy per Si atom -5577.433534 kJ/mol
# Density = 2.297842 g / cm^3
# Si number density = 23.030841 Si / 1000 Ang^3
#
#
#
# Elastic Constant Matrix: (Units=GPa)
#
#
# Indices 1 2 3 4 5 6 
#
# 1 146.2076 57.5346 40.2520 0.0000 -11.0513 0.0000
# 2 57.5346 71.0966 15.3247 0.0000 -6.3788 0.0000
# 3 40.2520 15.3247 170.4600 0.0000 23.2802 0.0000
# 4 0.0000 0.0000 0.0000 27.4793 0.0000 -5.0257
# 5 -11.0513 -6.3788 23.2802 0.0000 40.3500 0.0000
# 6 0.0000 0.0000 0.0000 -5.0257 0.0000 -0.2436
#
#
#
# Elastic Compliance Matrix: (Units=1/GPa)
#
#
# Indices 1 2 3 4 5 6 
#
# 1 0.010841 -0.008019 -0.002249 0.000000 0.002999 0.000000
# 2 -0.008019 0.020684 -0.000122 0.000000 0.001144 0.000000
# 3 -0.002249 -0.000122 0.007051 0.000000 -0.004703 0.000000
# 4 0.000000 0.000000 0.000000 0.007623 0.000000 -0.157298
# 5 0.002999 0.001144 -0.004703 0.000000 0.028499 0.000000
# 6 0.000000 0.000000 0.000000 -0.157298 0.000000 -0.860063
#
#
# Mechanical properties :
#
#
# Convention : Reuss Voigt Hill
#
# Bulk Modulus (GPa) = 56.19328 68.22075 62.20702
# Shear Modulus (GPa) = -6.59062 31.82734 12.61836
#
# Velocity S-wave (km/s) = -1.69348 3.72148 2.34324
# Velocity P-wave (km/s) = 4.54184 6.93914 5.86430
#
# Compressibility (1/GPa) = 0.01779572
#
# Stress axis : x y z
#
# Youngs Moduli (GPa) = 92.24233 48.34675 141.82894
#
# Poissons Ratio (x) = 0.38771 0.31891
# Poissons Ratio (y) = 0.73972 0.01732
# Poissons Ratio (z) = 0.20741 0.00590
#
# Static dielectric constant tensor:
#      x y z
#    x 2.028590 0.000000 -0.093650 
#    y 0.000000 1.849730 0.000000 
#    z -0.093650 0.000000 2.047260 
# 
# From -- ./inp_files/7526.got.cif
#   From: 2010.05.17/outbox.cif.g08.bks.cpg/sg15_4_cif.got.tgz:7526.got - 2010.06.03 18:47:42.
