data_PCOD9294616
_publ_section_title
;
Structure prediction by ZEFSAII (Michael W. Deem and Ramdas Pophale) SiO2 
 PCOD9294616
Probable space group: C 2/C
;
_chemical_formula_sum "Si O2"
_cell_formula_units_Z 40
_cell_length_a 25.311645
_cell_length_b 4.972650
_cell_length_c 13.462085
_cell_angle_alpha 90.000000
_cell_angle_beta 113.163153
_cell_angle_gamma 90.000000
_cell_volume 1557.828540
_symmetry_space_group_name_H-M "C 2/C"
_symmetry_group_IT_number 15
_symmetry_cell_setting 'monoclinic'
loop_
_space_group_symop_operation_xyz
x,y,z
-x,y,1/2-z
-x,-y,-z
x,-y,1/2+z
1/2+x,1/2+y,z
1/2-x,1/2+y,1/2-z
1/2-x,1/2-y,-z
1/2+x,1/2-y,1/2+z
loop_
_atom_site_type_symbol
_atom_site_label
_atom_site_fract_x
_atom_site_fract_y
_atom_site_fract_z
Si Si1 0.433184 0.117609 0.093560
Si Si2 0.816465 0.609047 0.543614
Si Si3 0.772273 0.895493 0.898988
Si Si4 0.381549 0.436645 0.871743
Si Si5 0.935952 0.438029 0.817133
O O1 0.383308 0.900153 0.070380
O O2 0.496396 0.016487 0.113480
O O3 0.434896 0.209581 0.209402
O O4 0.409689 0.320968 0.993968
O O5 0.787737 0.406266 0.441268
O O6 0.793875 0.482745 0.631922
O O7 0.798080 0.908362 0.503863
O O8 0.812094 0.953989 0.833444
O O9 0.407279 0.726471 0.869356
O O10 0.402969 0.219741 0.806429
#
# Coordination Sequence:
#
# PCOD9294616 Si02
#       5
#     8   8   8   8   8
#     4  10  23  41  61  86 123 159 198 250 302 354
#     4   9  18  34  58  83 112 153 190 235 294 343
#     4   9  18  34  58  85 111 148 196 235 287 354
#     4  11  22  40  61  86 120 157 198 251 302 351
#     4  11  25  38  60  91 118 157 206 244 297 368
#
# _framework density 25.676767000000002
#
# number of rings (size 3 to 8) (size 9 to 14) (size 15 to 20)
#    0.000    2.000    0.000    3.600    0.000   11.200 
#    0.000    2.000    0.000    0.000    0.000    0.000 
#    0.000    0.000    0.000    0.000    0.000    0.000 
#
# Total GULP energy -111664.208986 kJ/mol
# GULP energy per Si atom -5583.210449 kJ/mol
# Density = 2.561833 g / cm^3
# Si number density = 25.676767 Si / 1000 Ang^3
#
#
#
# Elastic Constant Matrix: (Units=GPa)
#
#
# Indices 1 2 3 4 5 6 
#
# 1 147.4965 31.4587 8.8525 0.0000 -33.9592 0.0000
# 2 31.4587 79.6726 -4.7681 0.0000 -6.7389 0.0000
# 3 8.8525 -4.7681 73.1761 0.0000 -14.8138 0.0000
# 4 0.0000 0.0000 0.0000 17.7991 0.0000 -15.1260
# 5 -33.9592 -6.7389 -14.8138 0.0000 35.6431 0.0000
# 6 0.0000 0.0000 0.0000 -15.1260 0.0000 36.1063
#
#
#
# Elastic Compliance Matrix: (Units=1/GPa)
#
#
# Indices 1 2 3 4 5 6 
#
# 1 0.009344 -0.002945 0.000401 0.000000 0.008512 0.000000
# 2 -0.002945 0.013824 0.001330 0.000000 0.000360 0.000000
# 3 0.000401 0.001330 0.015103 0.000000 0.006910 0.000000
# 4 0.000000 0.000000 0.000000 0.087242 0.000000 0.036548
# 5 0.008512 0.000360 0.006910 0.000000 0.039106 0.000000
# 6 0.000000 0.000000 0.000000 0.036548 0.000000 0.043007
#
#
# Mechanical properties :
#
#
# Convention : Reuss Voigt Hill
#
# Bulk Modulus (GPa) = 27.90025 41.27015 34.58520
# Shear Modulus (GPa) = 22.52229 35.56316 29.04273
#
# Velocity S-wave (km/s) = 2.96488 3.72564 3.36682
# Velocity P-wave (km/s) = 4.75502 5.88345 5.34908
#
# Compressibility (1/GPa) = 0.03584197
#
# Stress axis : x y z
#
# Youngs Moduli (GPa) = 107.02319 72.33575 66.21309
#
# Poissons Ratio (x) = 0.21306 -0.02655
# Poissons Ratio (y) = 0.31523 -0.08807
# Poissons Ratio (z) = -0.04291 -0.09621
#
# Static dielectric constant tensor:
#      x y z
#    x 2.157320 0.000000 0.026380 
#    y 0.000000 1.892860 0.000000 
#    z 0.026380 0.000000 2.154350 
# 
# From -- ./inp_files/170511.got.cif
#   From: 2010.05.17/outbox.cif.g08.bks.cpg/sg15_86_cif.got.tgz:170511.got - 2010.06.03 18:47:42.
