data_PCOD9294424
_publ_section_title
;
Structure prediction by ZEFSAII (Michael W. Deem and Ramdas Pophale) SiO2 
 PCOD9294424
Probable space group: C 2/C
;
_chemical_formula_sum "Si O2"
_cell_formula_units_Z 28
_cell_length_a 6.724610
_cell_length_b 13.721614
_cell_length_c 13.983837
_cell_angle_alpha 90.000000
_cell_angle_beta 69.586932
_cell_angle_gamma 90.000000
_cell_volume 1209.294491
_symmetry_space_group_name_H-M "C 2/C"
_symmetry_group_IT_number 15
_symmetry_cell_setting 'monoclinic'
loop_
_space_group_symop_operation_xyz
x,y,z
-x,y,1/2-z
-x,-y,-z
x,-y,1/2+z
1/2+x,1/2+y,z
1/2-x,1/2+y,1/2-z
1/2-x,1/2-y,-z
1/2+x,1/2-y,1/2+z
loop_
_atom_site_type_symbol
_atom_site_label
_atom_site_fract_x
_atom_site_fract_y
_atom_site_fract_z
Si Si1 0.275136 0.150941 0.826865
Si Si2 0.348508 0.438250 0.651660
Si Si3 0.500000 0.779857 0.750000
Si Si4 0.727624 0.959982 0.988972
O O1 0.500000 0.187879 0.750000
O O2 0.075318 0.212575 0.825134
O O3 0.241300 0.040248 0.792713
O O4 0.290557 0.132573 0.937435
O O5 0.602256 0.434502 0.621405
O O6 0.319579 0.454025 0.541567
O O7 0.201941 0.348776 0.700735
O O8 0.500000 0.000000 0.000000
#
# Coordination Sequence:
#
# PCOD9294424 Si02
#       4
#     8   8   4   8
#     4  10  23  40  65 101 129 177 227 277 336 401
#     4   9  21  43  64  96 131 178 219 283 338 381
#     4  12  24  42  68  98 142 172 232 276 340 406
#     4   9  20  42  71  91 134 181 221 278 338 396
#
# _framework density 23.153997
#
# number of rings (size 3 to 8) (size 9 to 14) (size 15 to 20)
#    1.714    0.571    1.429    0.000    4.000    3.429 
#    2.571    2.857    0.000    0.000    0.000    0.000 
#    0.000    0.000    0.000    0.000    0.000    0.000 
#
# Total GULP energy -78043.767970 kJ/mol
# GULP energy per Si atom -5574.554855 kJ/mol
# Density = 2.310130 g / cm^3
# Si number density = 23.153997 Si / 1000 Ang^3
#
#
#
# Elastic Constant Matrix: (Units=GPa)
#
#
# Indices 1 2 3 4 5 6 
#
# 1 164.4414 60.3135 34.4810 0.0000 -23.8759 0.0000
# 2 60.3135 106.1126 28.1642 0.0000 -4.4274 0.0000
# 3 34.4810 28.1642 39.6304 0.0000 -19.9422 0.0000
# 4 0.0000 0.0000 0.0000 -33.5650 0.0000 19.2160
# 5 -23.8759 -4.4274 -19.9422 0.0000 35.6421 0.0000
# 6 0.0000 0.0000 0.0000 19.2160 0.0000 34.9787
#
#
#
# Elastic Compliance Matrix: (Units=1/GPa)
#
#
# Indices 1 2 3 4 5 6 
#
# 1 0.008697 -0.004042 -0.002805 0.000000 0.003754 0.000000
# 2 -0.004042 0.014016 -0.009646 0.000000 -0.006364 0.000000
# 3 -0.002805 -0.009646 0.045905 0.000000 0.022607 0.000000
# 4 0.000000 0.000000 0.000000 -0.022665 0.000000 0.012451
# 5 0.003754 -0.006364 0.022607 0.000000 0.042430 0.000000
# 6 0.000000 0.000000 0.000000 0.012451 0.000000 0.021749
#
#
# Mechanical properties :
#
#
# Convention : Reuss Voigt Hill
#
# Bulk Modulus (GPa) = 28.06531 61.78908 44.92720
# Shear Modulus (GPa) = 32.25865 19.89286 26.07576
#
# Velocity S-wave (km/s) = 3.73664 2.93431 3.35951
# Velocity P-wave (km/s) = 5.54654 6.18258 5.87318
#
# Compressibility (1/GPa) = 0.03563118
#
# Stress axis : x y z
#
# Youngs Moduli (GPa) = 114.98110 71.34559 21.78401
#
# Poissons Ratio (x) = 0.28839 0.06111
# Poissons Ratio (y) = 0.46477 0.21014
# Poissons Ratio (z) = 0.32254 0.68823
#
# Static dielectric constant tensor:
#      x y z
#    x 1.863290 0.000000 -0.027450 
#    y 0.000000 1.865190 0.000000 
#    z -0.027450 0.000000 1.945600 
# 
# From -- ./inp_files/183578.got.cif
#   From: 2010.05.17/outbox.cif.g08.bks.cpg/sg15_92_cif.got.tgz:183578.got - 2010.06.03 18:47:42.
