data_PCOD9294522
_publ_section_title
;
Structure prediction by ZEFSAII (Michael W. Deem and Ramdas Pophale) SiO2 
 PCOD9294522
Probable space group: C 2/C
;
_chemical_formula_sum "Si O2"
_cell_formula_units_Z 56
_cell_length_a 14.778919
_cell_length_b 21.521953
_cell_length_c 8.564737
_cell_angle_alpha 90.000000
_cell_angle_beta 89.166477
_cell_angle_gamma 90.000000
_cell_volume 2723.907912
_symmetry_space_group_name_H-M "C 2/C"
_symmetry_group_IT_number 15
_symmetry_cell_setting 'monoclinic'
loop_
_space_group_symop_operation_xyz
x,y,z
-x,y,1/2-z
-x,-y,-z
x,-y,1/2+z
1/2+x,1/2+y,z
1/2-x,1/2+y,1/2-z
1/2-x,1/2-y,-z
1/2+x,1/2-y,1/2+z
loop_
_atom_site_type_symbol
_atom_site_label
_atom_site_fract_x
_atom_site_fract_y
_atom_site_fract_z
Si Si1 0.153764 0.499483 0.874760
Si Si2 0.500000 0.300820 0.750000
Si Si3 0.066469 0.900148 0.002127
Si Si4 0.000000 0.587317 0.750000
Si Si5 0.878511 0.110930 0.648052
Si Si6 0.448558 0.129637 0.085710
Si Si7 0.641918 0.744888 0.002400
Si Si8 0.281088 0.490539 0.617362
O O1 0.087658 0.543120 0.776370
O O2 0.104035 0.435601 0.909391
O O3 0.250264 0.483804 0.795392
O O4 0.190847 0.532079 0.029642
O O5 0.452372 0.345033 0.620744
O O6 0.419169 0.263104 0.838380
O O7 0.114190 0.883746 0.165242
O O8 0.967500 0.919715 0.066598
O O9 0.130476 0.951330 0.922629
O O10 0.004246 0.625194 0.587221
O O11 0.875516 0.180317 0.585572
O O12 0.798523 0.064450 0.604136
O O13 0.500000 0.131054 0.250000
O O14 0.392233 0.192927 0.079991
O O15 0.750000 0.750000 0.000000
#
# Coordination Sequence:
#
# PCOD9294522 Si02
#       8
#     8   4   8   4   8   8   8   8
#     4  12  24  42  69  99 141 171 230 290 349 418
#     4  10  25  46  70  98 141 180 236 292 342 422
#     4  10  23  40  67  97 138 179 219 277 356 413
#     4  12  25  50  68 104 141 180 230 302 362 412
#     4  10  23  44  63  96 144 179 222 283 342 419
#     4  12  26  45  73  99 136 188 234 286 362 419
#     4  11  26  46  71  98 135 185 237 287 345 417
#     4  12  23  38  68 103 135 177 225 282 349 417
#
# _framework density 20.558698
#
# number of rings (size 3 to 8) (size 9 to 14) (size 15 to 20)
#    0.000    0.857    3.571    3.000   10.000    1.143 
#    0.000    0.714    0.000    0.000    0.000    0.000 
#    0.000    0.000    0.000    0.000    0.000    0.000 
#
# Total GULP energy -156018.522636 kJ/mol
# GULP energy per Si atom -5572.090094 kJ/mol
# Density = 2.051191 g / cm^3
# Si number density = 20.558698 Si / 1000 Ang^3
#
#
#
# Elastic Constant Matrix: (Units=GPa)
#
#
# Indices 1 2 3 4 5 6 
#
# 1 88.1844 47.1024 42.1550 0.0000 7.3498 0.0000
# 2 47.1024 65.8365 39.4765 0.0000 0.5981 0.0000
# 3 42.1550 39.4765 96.7751 0.0000 1.8853 0.0000
# 4 0.0000 0.0000 0.0000 14.3090 0.0000 3.9328
# 5 7.3498 0.5981 1.8853 0.0000 34.1611 0.0000
# 6 0.0000 0.0000 0.0000 3.9328 0.0000 30.0707
#
#
#
# Elastic Compliance Matrix: (Units=1/GPa)
#
#
# Indices 1 2 3 4 5 6 
#
# 1 0.019783 -0.011909 -0.003684 0.000000 -0.003844 0.000000
# 2 -0.011909 0.027277 -0.005986 0.000000 0.002415 0.000000
# 3 -0.003684 -0.005986 0.014378 0.000000 0.000104 0.000000
# 4 0.000000 0.000000 0.000000 0.072492 0.000000 -0.009481
# 5 -0.003844 0.002415 0.000104 0.000000 0.030052 0.000000
# 6 0.000000 0.000000 0.000000 -0.009481 0.000000 0.034495
#
#
# Mechanical properties :
#
#
# Convention : Reuss Voigt Hill
#
# Bulk Modulus (GPa) = 54.71068 56.47377 55.59222
# Shear Modulus (GPa) = 20.18332 23.84564 22.01448
#
# Velocity S-wave (km/s) = 3.13667 3.40940 3.27587
# Velocity P-wave (km/s) = 6.30777 6.55956 6.43490
#
# Compressibility (1/GPa) = 0.01827797
#
# Stress axis : x y z
#
# Youngs Moduli (GPa) = 50.54912 36.66074 69.55059
#
# Poissons Ratio (x) = 0.43661 0.25625
# Poissons Ratio (y) = 0.60201 0.41635
# Poissons Ratio (z) = 0.18624 0.21946
#
# Static dielectric constant tensor:
#      x y z
#    x 1.637570 0.000000 -0.129550 
#    y 0.000000 1.720150 0.000000 
#    z -0.129550 0.000000 1.651760 
# 
# From -- ./inp_files/41276.got.cif
#   From: 2010.05.17/outbox.cif.g08.bks.cpg/sg15_21_cif.got.tgz:41276.got - 2010.06.03 18:47:42.
