data_PCOD9294204
_publ_section_title
;
Structure prediction by ZEFSAII (Michael W. Deem and Ramdas Pophale) SiO2 
 PCOD9294204
Probable space group: C 2/C
;
_chemical_formula_sum "Si O2"
_cell_formula_units_Z 56
_cell_length_a 16.360633
_cell_length_b 18.845203
_cell_length_c 15.480045
_cell_angle_alpha 90.000000
_cell_angle_beta 148.953697
_cell_angle_gamma 90.000000
_cell_volume 2461.478557
_symmetry_space_group_name_H-M "C 2/C"
_symmetry_group_IT_number 15
_symmetry_cell_setting 'monoclinic'
loop_
_space_group_symop_operation_xyz
x,y,z
-x,y,1/2-z
-x,-y,-z
x,-y,1/2+z
1/2+x,1/2+y,z
1/2-x,1/2+y,1/2-z
1/2-x,1/2-y,-z
1/2+x,1/2-y,1/2+z
loop_
_atom_site_type_symbol
_atom_site_label
_atom_site_fract_x
_atom_site_fract_y
_atom_site_fract_z
Si Si1 0.891536 0.478495 0.785321
Si Si2 0.611430 0.252671 0.511930
Si Si3 0.394199 0.430176 0.426965
Si Si4 0.875668 0.852728 0.231091
Si Si5 0.340483 0.836754 0.844078
Si Si6 0.104554 0.870284 0.773324
Si Si7 0.260941 0.014099 0.976920
O O1 0.786002 0.544516 0.721038
O O2 0.874500 0.416017 0.839942
O O3 0.808623 0.463974 0.617223
O O4 0.075867 0.489172 0.930441
O O5 0.718640 0.191531 0.568562
O O6 0.522479 0.299399 0.360342
O O7 0.493458 0.212296 0.470774
O O8 0.721685 0.303930 0.666394
O O9 0.500000 0.500000 0.500000
O O10 0.386156 0.375618 0.341192
O O11 0.484285 0.395856 0.589331
O O12 0.855196 0.926425 0.164821
O O13 0.251807 0.835854 0.855419
O O14 0.000000 0.829267 0.750000
O O15 0.177211 0.938494 0.889122
#
# Coordination Sequence:
#
# PCOD9294204 Si02
#       7
#     8   8   8   8   8   8   8
#     4  11  23  40  61  97 130 161 197 259 318 379
#     4  10  23  39  64  87 119 171 213 248 295 363
#     4  12  21  37  66  93 122 161 208 252 324 372
#     4  11  21  40  61  91 122 165 209 252 297 364
#     4  11  22  43  64  87 124 164 211 250 310 368
#     4  12  24  40  64  96 122 160 204 266 316 377
#     4  11  24  38  62  97 133 156 202 257 316 369
#
# _framework density 22.750553
#
# number of rings (size 3 to 8) (size 9 to 14) (size 15 to 20)
#    0.000    0.857    7.143    0.000    2.000    1.143 
#    0.000    5.000    0.000    0.000    0.000    0.000 
#    0.000    0.000    0.000    0.000    0.000    0.000 
#
# Total GULP energy -156631.893417 kJ/mol
# GULP energy per Si atom -5593.996193 kJ/mol
# Density = 2.269877 g / cm^3
# Si number density = 22.750553 Si / 1000 Ang^3
#
#
#
# Elastic Constant Matrix: (Units=GPa)
#
#
# Indices 1 2 3 4 5 6 
#
# 1 102.9372 -3.9756 18.4671 -0.0001 10.4728 -0.0001
# 2 -3.9756 26.2082 -0.9105 -0.0001 5.9893 0.0000
# 3 18.4671 -0.9105 64.9443 -0.0002 10.0296 -0.0002
# 4 -0.0001 -0.0001 -0.0002 26.8959 -0.0001 6.9115
# 5 10.4728 5.9893 10.0296 -0.0001 40.5763 -0.0001
# 6 -0.0001 0.0000 -0.0002 6.9115 -0.0001 -7.7980
#
#
#
# Elastic Compliance Matrix: (Units=1/GPa)
#
#
# Indices 1 2 3 4 5 6 
#
# 1 0.010500 0.002045 -0.002591 0.000000 -0.002371 0.000000
# 2 0.002045 0.040029 0.001012 0.000000 -0.006687 0.000000
# 3 -0.002591 0.001012 0.016706 0.000000 -0.003610 0.000000
# 4 0.000000 0.000000 0.000000 0.030283 0.000000 0.026841
# 5 -0.002371 -0.006687 -0.003610 0.000000 0.027136 0.000000
# 6 0.000000 0.000000 0.000000 0.026841 0.000000 -0.104449
#
#
# Mechanical properties :
#
#
# Convention : Reuss Voigt Hill
#
# Bulk Modulus (GPa) = 14.66966 24.58355 19.62661
# Shear Modulus (GPa) = 119.06020 23.96876 71.51448
#
# Velocity S-wave (km/s) = 7.24199 3.24936 5.61270
# Velocity P-wave (km/s) = 8.74018 4.99068 7.11680
#
# Compressibility (1/GPa) = 0.06816789
#
# Stress axis : x y z
#
# Youngs Moduli (GPa) = 95.24104 24.98166 59.85799
#
# Poissons Ratio (x) = -0.05108 0.15508
# Poissons Ratio (y) = -0.19474 -0.06060
# Poissons Ratio (z) = 0.24674 -0.02529
#
# Static dielectric constant tensor:
#      x y z
#    x 1.930940 0.000000 0.042780 
#    y 0.000000 1.852390 0.000000 
#    z 0.042780 0.000000 1.821700 
# 
# From -- ./inp_files/211899.got.cif
#   From: 2010.05.17/outbox.cif.g08.bks.cpg/sg15_106_cif.got.tgz:211899.got - 2010.06.03 18:47:42.
