data_PCOD9294126
_publ_section_title
;
Structure prediction by ZEFSAII (Michael W. Deem and Ramdas Pophale) SiO2 
 PCOD9294126
Probable space group: C 2/C
;
_chemical_formula_sum "Si O2"
_cell_formula_units_Z 64
_cell_length_a 7.354223
_cell_length_b 22.226099
_cell_length_c 28.160174
_cell_angle_alpha 90.000000
_cell_angle_beta 143.273571
_cell_angle_gamma 90.000000
_cell_volume 2752.535117
_symmetry_space_group_name_H-M "C 2/C"
_symmetry_group_IT_number 15
_symmetry_cell_setting 'monoclinic'
loop_
_space_group_symop_operation_xyz
x,y,z
-x,y,1/2-z
-x,-y,-z
x,-y,1/2+z
1/2+x,1/2+y,z
1/2-x,1/2+y,1/2-z
1/2-x,1/2-y,-z
1/2+x,1/2-y,1/2+z
loop_
_atom_site_type_symbol
_atom_site_label
_atom_site_fract_x
_atom_site_fract_y
_atom_site_fract_z
Si Si1 0.464090 0.626054 0.335365
Si Si2 0.137530 0.599192 0.725641
Si Si3 0.641113 0.663874 0.871899
Si Si4 0.318205 0.035995 0.287857
Si Si5 0.312861 0.226039 0.291874
Si Si6 0.152607 0.817074 0.085703
Si Si7 0.768061 0.701899 0.462741
Si Si8 0.097015 0.372422 0.915546
O O1 0.280131 0.566716 0.282844
O O2 0.309136 0.676749 0.270189
O O3 0.488921 0.658937 0.390917
O O4 0.820474 0.617327 0.395523
O O5 0.492969 0.610509 0.811127
O O6 0.083937 0.532397 0.696247
O O7 0.000000 0.603634 0.750000
O O8 0.977611 0.649491 0.659139
O O9 0.538533 0.722848 0.820974
O O10 0.481505 0.679182 0.889263
O O11 0.979844 0.658642 0.960913
O O12 0.557713 0.074988 0.368425
O O13 0.000000 0.040306 0.250000
O O14 0.496772 0.188607 0.368964
O O15 0.000000 0.250729 0.250000
O O16 0.163526 0.748823 0.066974
O O17 0.920845 0.858217 0.006494
O O18 0.750000 0.750000 0.500000
#
# Coordination Sequence:
#
# PCOD9294126 Si02
#       8
#     8   8   8   8   8   8   8   8
#     4   9  18  36  57  82 115 152 193 233 280 350
#     4  10  23  39  59  89 114 153 199 246 286 341
#     4  11  20  36  60  81 117 155 192 230 286 352
#     4   9  20  39  63  81 112 154 205 238 286 349
#     4   9  15  28  56  89 106 136 193 231 278 338
#     4  11  20  37  62  84 118 148 192 240 291 347
#     4  12  24  36  55  92 125 148 186 238 298 355
#     4   9  16  32  63  89 103 150 196 238 277 343
#
# _framework density 23.251293
#
# number of rings (size 3 to 8) (size 9 to 14) (size 15 to 20)
#    0.000    2.000    2.500    5.250    0.000    1.500 
#    2.250    2.500    0.000    0.000    0.000    0.000 
#    0.000    0.000    0.000    0.000    0.000    0.000 
#
# Total GULP energy -178574.847979 kJ/mol
# GULP energy per Si atom -5580.463999 kJ/mol
# Density = 2.319837 g / cm^3
# Si number density = 23.251293 Si / 1000 Ang^3
#
#
#
# Elastic Constant Matrix: (Units=GPa)
#
#
# Indices 1 2 3 4 5 6 
#
# 1 37.6547 -5.2285 16.3125 -0.0082 1.9503 -0.0076
# 2 -5.2285 96.0583 50.6722 -0.0021 -6.0362 -0.0023
# 3 16.3125 50.6722 168.8494 -0.0004 -2.7761 -0.0064
# 4 -0.0082 -0.0021 -0.0004 33.0178 -0.0061 -4.0218
# 5 1.9503 -6.0362 -2.7761 -0.0061 16.2023 -0.0089
# 6 -0.0076 -0.0023 -0.0064 -4.0218 -0.0089 23.5417
#
#
#
# Elastic Compliance Matrix: (Units=1/GPa)
#
#
# Indices 1 2 3 4 5 6 
#
# 1 0.028855 0.003429 -0.003864 0.000008 -0.002858 0.000009
# 2 0.003429 0.013038 -0.004183 0.000003 0.003728 0.000003
# 3 -0.003864 -0.004183 0.007554 -0.000001 0.000201 0.000000
# 4 0.000008 0.000003 -0.000001 0.030930 0.000014 0.005284
# 5 -0.002858 0.003728 0.000201 0.000014 0.063487 0.000026
# 6 0.000009 0.000003 0.000000 0.005284 0.000026 0.043381
#
#
# Mechanical properties :
#
#
# Convention : Reuss Voigt Hill
#
# Bulk Modulus (GPa) = 24.86779 47.34165 36.10472
# Shear Modulus (GPa) = 23.82273 30.60610 27.21442
#
# Velocity S-wave (km/s) = 3.20437 3.63205 3.42489
# Velocity P-wave (km/s) = 4.94056 6.16393 5.58584
#
# Compressibility (1/GPa) = 0.04021266
#
# Stress axis : x y z
#
# Youngs Moduli (GPa) = 34.65584 76.70091 132.37585
#
# Poissons Ratio (x) = -0.26303 0.51147
# Poissons Ratio (y) = -0.11884 0.55368
# Poissons Ratio (z) = 0.13390 0.32081
#
# Static dielectric constant tensor:
#      x y z
#    x 2.070740 0.000000 -0.011450 
#    y 0.000000 1.845560 0.000000 
#    z -0.011450 0.000000 1.918460 
# 
# From -- ./inp_files/309128.got.cif
#   From: 2010.05.17/outbox.cif.g08.bks.cpg/sg15_155_cif.got.tgz:309128.got - 2010.06.03 18:47:42.
