data_PCOD9294697
_publ_section_title
;
Structure prediction by ZEFSAII (Michael W. Deem and Ramdas Pophale) SiO2 
 PCOD9294697
Probable space group: C 2/C
;
_chemical_formula_sum "Si O2"
_cell_formula_units_Z 48
_cell_length_a 4.808457
_cell_length_b 13.972853
_cell_length_c 28.251348
_cell_angle_alpha 90.000000
_cell_angle_beta 113.148165
_cell_angle_gamma 90.000000
_cell_volume 1745.330402
_symmetry_space_group_name_H-M "C 2/C"
_symmetry_group_IT_number 15
_symmetry_cell_setting 'monoclinic'
loop_
_space_group_symop_operation_xyz
x,y,z
-x,y,1/2-z
-x,-y,-z
x,-y,1/2+z
1/2+x,1/2+y,z
1/2-x,1/2+y,1/2-z
1/2-x,1/2-y,-z
1/2+x,1/2-y,1/2+z
loop_
_atom_site_type_symbol
_atom_site_label
_atom_site_fract_x
_atom_site_fract_y
_atom_site_fract_z
Si Si1 0.698197 0.613368 0.552237
Si Si2 0.519690 0.303627 0.900046
Si Si3 0.944276 0.909936 0.348988
Si Si4 0.303682 0.002307 0.298750
Si Si5 0.720307 0.282100 0.806134
Si Si6 0.850273 0.399902 0.549779
O O1 0.938163 0.698147 0.575055
O O2 0.571616 0.592360 0.596064
O O3 0.831057 0.513722 0.542632
O O4 0.413071 0.641782 0.501196
O O5 0.550482 0.297186 0.845143
O O6 0.245317 0.362701 0.904185
O O7 0.820482 0.359643 0.937323
O O8 0.620128 0.952091 0.310385
O O9 0.961182 0.801470 0.331280
O O10 0.208279 0.974088 0.345602
O O11 0.000000 0.971895 0.250000
O O12 0.333430 0.115591 0.295415
O O13 0.500000 0.246922 0.750000
#
# Coordination Sequence:
#
# PCOD9294697 Si02
#       6
#     8   8   8   8   8   8
#     4  10  24  40  66  93 124 165 206 252 310 366
#     4  11  24  42  63  90 126 162 203 256 308 363
#     4  11  24  42  63  92 126 162 205 256 308 365
#     4  11  23  40  62  88 122 162 204 254 309 365
#     4  10  23  41  64  92 122 162 208 253 307 368
#     4  11  24  42  64  94 126 162 208 254 304 369
#
# _framework density 27.501954999999999
#
# number of rings (size 3 to 8) (size 9 to 14) (size 15 to 20)
#    0.000    1.333    0.000    4.500    0.000   12.000 
#    0.000    5.833    0.000    0.000    0.000    0.000 
#    0.000    0.000    0.000    0.000    0.000    0.000 
#
# Total GULP energy -134926.745024 kJ/mol
# GULP energy per Si atom -5621.947709 kJ/mol
# Density = 2.743936 g / cm^3
# Si number density = 27.501955 Si / 1000 Ang^3
#
#
#
# Elastic Constant Matrix: (Units=GPa)
#
#
# Indices 1 2 3 4 5 6 
#
# 1 141.7082 38.9277 6.4195 0.0000 11.0183 0.0000
# 2 38.9277 150.5315 -2.8670 0.0000 -6.3431 0.0000
# 3 6.4195 -2.8670 133.4838 0.0000 10.7167 0.0000
# 4 0.0000 0.0000 0.0000 35.8635 0.0000 4.5044
# 5 11.0183 -6.3431 10.7167 0.0000 29.6409 0.0000
# 6 0.0000 0.0000 0.0000 4.5044 0.0000 26.8018
#
#
#
# Elastic Compliance Matrix: (Units=1/GPa)
#
#
# Indices 1 2 3 4 5 6 
#
# 1 0.007928 -0.002195 -0.000159 0.000000 -0.003359 0.000000
# 2 -0.002195 0.007311 0.000074 0.000000 0.002354 0.000000
# 3 -0.000159 0.000074 0.007719 0.000000 -0.002716 0.000000
# 4 0.000000 0.000000 0.000000 0.028485 0.000000 -0.004787
# 5 -0.003359 0.002354 -0.002716 0.000000 0.036472 0.000000
# 6 0.000000 0.000000 0.000000 -0.004787 0.000000 0.038116
#
#
# Mechanical properties :
#
#
# Convention : Reuss Voigt Hill
#
# Bulk Modulus (GPa) = 54.35259 56.74266 55.54762
# Shear Modulus (GPa) = 36.57036 44.01077 40.29057
#
# Velocity S-wave (km/s) = 3.65051 4.00469 3.83169
# Velocity P-wave (km/s) = 6.12980 6.48540 6.31010
#
# Compressibility (1/GPa) = 0.01839839
#
# Stress axis : x y z
#
# Youngs Moduli (GPa) = 126.13416 136.77466 129.55353
#
# Poissons Ratio (x) = 0.30019 0.02056
# Poissons Ratio (y) = 0.27684 -0.00954
# Poissons Ratio (z) = 0.02002 -0.01007
#
# Static dielectric constant tensor:
#      x y z
#    x 2.038860 0.000000 0.009860 
#    y 0.000000 2.074710 0.000000 
#    z 0.009860 0.000000 2.223460 
# 
# From -- ./inp_files/305489.got.cif
#   From: 2010.05.17/outbox.cif.g08.bks.cpg/sg15_153_cif.got.tgz:305489.got - 2010.06.03 18:47:42.
