data_PCOD9294225
_publ_section_title
;
Structure prediction by ZEFSAII (Michael W. Deem and Ramdas Pophale) SiO2 
 PCOD9294225
Probable space group: C 2/C
;
_chemical_formula_sum "Si O2"
_cell_formula_units_Z 40
_cell_length_a 28.154249
_cell_length_b 10.717513
_cell_length_c 11.265483
_cell_angle_alpha 90.000000
_cell_angle_beta 26.272957
_cell_angle_gamma 90.000000
_cell_volume 1504.687449
_symmetry_space_group_name_H-M "C 2/C"
_symmetry_group_IT_number 15
_symmetry_cell_setting 'monoclinic'
loop_
_space_group_symop_operation_xyz
x,y,z
-x,y,1/2-z
-x,-y,-z
x,-y,1/2+z
1/2+x,1/2+y,z
1/2-x,1/2+y,1/2-z
1/2-x,1/2-y,-z
1/2+x,1/2-y,1/2+z
loop_
_atom_site_type_symbol
_atom_site_label
_atom_site_fract_x
_atom_site_fract_y
_atom_site_fract_z
Si Si1 0.440594 0.776453 0.269750
Si Si2 0.111166 0.910887 0.006308
Si Si3 0.860321 0.219779 0.820825
Si Si4 0.733241 0.101483 0.803973
Si Si5 0.854294 0.326028 0.226104
O O1 0.500000 0.835252 0.250000
O O2 0.410240 0.860329 0.223706
O O3 0.538479 0.699210 0.989956
O O4 0.667371 0.700153 0.948351
O O5 0.091937 0.788302 0.969783
O O6 0.210241 0.994765 0.746532
O O7 0.140471 0.886941 0.077995
O O8 0.000000 0.983009 0.250000
O O9 0.750000 0.250000 0.000000
O O10 0.860925 0.338896 0.907383
O O11 0.680367 0.073717 0.794371
O O12 0.750000 0.250000 0.500000
#
# Coordination Sequence:
#
# PCOD9294225 Si02
#       5
#     8   8   8   8   8
#     4  11  20  39  63  92 131 179 219 260 325 391
#     4  11  22  40  69 103 126 164 226 282 328 380
#     4  11  23  39  63  98 136 173 213 273 336 391
#     4  10  23  39  65 101 131 166 220 281 337 379
#     4   9  21  41  63  93 132 173 208 272 335 388
#
# _framework density 26.583594999999999
#
# number of rings (size 3 to 8) (size 9 to 14) (size 15 to 20)
#    0.000    1.600    4.000    0.600    0.000    4.000 
#    0.000    0.000    0.000   26.400    0.000    0.000 
#    0.000    0.000    0.000    0.000    0.000    0.000 
#
# Total GULP energy -111500.776351 kJ/mol
# GULP energy per Si atom -5575.038818 kJ/mol
# Density = 2.652309 g / cm^3
# Si number density = 26.583595 Si / 1000 Ang^3
#
#
#
# Elastic Constant Matrix: (Units=GPa)
#
#
# Indices 1 2 3 4 5 6 
#
# 1 221.4675 24.1682 1.1344 0.0000 -19.8905 0.0000
# 2 24.1682 53.5060 24.6135 0.0000 -6.0312 0.0000
# 3 1.1344 24.6135 135.9309 0.0000 21.0936 0.0000
# 4 0.0000 0.0000 0.0000 31.8728 0.0000 -5.0758
# 5 -19.8905 -6.0312 21.0936 0.0000 36.6077 0.0000
# 6 0.0000 0.0000 0.0000 -5.0758 0.0000 17.6389
#
#
#
# Elastic Compliance Matrix: (Units=1/GPa)
#
#
# Indices 1 2 3 4 5 6 
#
# 1 0.004942 -0.001932 -0.000065 0.000000 0.002404 0.000000
# 2 -0.001932 0.022429 -0.004893 0.000000 0.005465 0.000000
# 3 -0.000065 -0.004893 0.009196 0.000000 -0.006140 0.000000
# 4 0.000000 0.000000 0.000000 0.032882 0.000000 0.009462
# 5 0.002404 0.005465 -0.006140 0.000000 0.033061 0.000000
# 6 0.000000 0.000000 0.000000 0.009462 0.000000 0.059416
#
#
# Mechanical properties :
#
#
# Convention : Reuss Voigt Hill
#
# Bulk Modulus (GPa) = 43.88195 56.74850 50.31523
# Shear Modulus (GPa) = 27.27744 41.28976 34.28360
#
# Velocity S-wave (km/s) = 3.20676 3.94535 3.59507
# Velocity P-wave (km/s) = 5.50037 6.49214 6.01672
#
# Compressibility (1/GPa) = 0.02278841
#
# Stress axis : x y z
#
# Youngs Moduli (GPa) = 202.33035 44.58510 108.74214
#
# Poissons Ratio (x) = 0.08613 0.00702
# Poissons Ratio (y) = 0.39084 0.53210
# Poissons Ratio (z) = 0.01306 0.21817
#
# Static dielectric constant tensor:
#      x y z
#    x 2.134400 0.000000 -0.009700 
#    y 0.000000 2.147850 0.000000 
#    z -0.009700 0.000000 2.158100 
# 
# From -- ./inp_files/123061.got.cif
#   From: 2010.05.17/outbox.cif.g08.bks.cpg/sg15_62_cif.got.tgz:123061.got - 2010.06.03 18:47:42.
