data_PCOD9294041
_publ_section_title
;
Structure prediction by ZEFSAII (Michael W. Deem and Ramdas Pophale) SiO2 
 PCOD9294041
Probable space group: C 2/C
;
_chemical_formula_sum "Si O2"
_cell_formula_units_Z 56
_cell_length_a 25.527492
_cell_length_b 18.250669
_cell_length_c 8.889128
_cell_angle_alpha 90.000000
_cell_angle_beta 41.416931
_cell_angle_gamma 90.000000
_cell_volume 2739.667994
_symmetry_space_group_name_H-M "C 2/C"
_symmetry_group_IT_number 15
_symmetry_cell_setting 'monoclinic'
loop_
_space_group_symop_operation_xyz
x,y,z
-x,y,1/2-z
-x,-y,-z
x,-y,1/2+z
1/2+x,1/2+y,z
1/2-x,1/2+y,1/2-z
1/2-x,1/2-y,-z
1/2+x,1/2-y,1/2+z
loop_
_atom_site_type_symbol
_atom_site_label
_atom_site_fract_x
_atom_site_fract_y
_atom_site_fract_z
Si Si1 0.500303 0.720482 0.567188
Si Si2 0.261879 0.161366 0.825296
Si Si3 0.729504 0.519043 0.059340
Si Si4 0.273709 0.105261 0.250125
Si Si5 0.951999 0.057198 0.007260
Si Si6 0.360449 0.215379 0.902124
Si Si7 0.177914 0.238472 0.540285
O O1 0.500000 0.733779 0.750000
O O2 0.539685 0.640817 0.456145
O O3 0.554250 0.774790 0.354148
O O4 0.409339 0.723857 0.711955
O O5 0.303802 0.186266 0.889590
O O6 0.319837 0.190102 0.570465
O O7 0.243349 0.077030 0.893330
O O8 0.181598 0.207433 0.968240
O O9 0.773647 0.549043 0.111451
O O10 0.637497 0.527882 0.302135
O O11 0.757652 0.440821 0.935586
O O12 0.202310 0.165298 0.393287
O O13 0.349610 0.157710 0.061285
O O14 0.000000 0.058612 0.750000
O O15 0.000000 0.000000 0.000000
O O16 0.250000 0.250000 0.500000
#
# Coordination Sequence:
#
# PCOD9294041 Si02
#       7
#     8   8   8   8   8   8   8
#     4  11  19  36  64  90 120 165 211 258 312 375
#     4   9  18  34  58  83 116 161 208 252 303 369
#     4  11  20  38  61  88 124 171 205 255 315 371
#     4  10  23  38  62  91 126 164 213 251 312 387
#     4  11  22  35  54  88 130 162 199 245 304 384
#     4   9  17  36  60  89 113 156 220 255 295 371
#     4  11  23  38  58  95 130 159 207 267 317 374
#
# _framework density 20.440432000000001
#
# number of rings (size 3 to 8) (size 9 to 14) (size 15 to 20)
#    0.000    1.714    2.857    4.286    2.000    0.000 
#    2.571    2.857    0.000    0.857    7.429    0.000 
#    0.000    0.000    0.000    0.000    0.000    0.000 
#
# Total GULP energy -156129.800597 kJ/mol
# GULP energy per Si atom -5576.064307 kJ/mol
# Density = 2.039391 g / cm^3
# Si number density = 20.440432 Si / 1000 Ang^3
#
#
#
# Elastic Constant Matrix: (Units=GPa)
#
#
# Indices 1 2 3 4 5 6 
#
# 1 38.7274 11.1961 13.8929 0.0000 -3.0490 0.0000
# 2 11.1961 83.1941 55.8576 0.0000 4.4046 0.0000
# 3 13.8929 55.8576 127.5552 0.0000 -15.1580 0.0000
# 4 0.0000 0.0000 0.0000 52.5587 0.0000 15.4573
# 5 -3.0490 4.4046 -15.1580 0.0000 19.0783 0.0000
# 6 0.0000 0.0000 0.0000 15.4573 0.0000 19.9894
#
#
#
# Elastic Compliance Matrix: (Units=1/GPa)
#
#
# Indices 1 2 3 4 5 6 
#
# 1 0.027470 -0.003193 -0.001087 0.000000 0.004263 0.000000
# 2 -0.003193 0.019722 -0.009818 0.000000 -0.012864 0.000000
# 3 -0.001087 -0.009818 0.013810 0.000000 0.013065 0.000000
# 4 0.000000 0.000000 0.000000 0.024627 0.000000 -0.019043
# 5 0.004263 -0.012864 0.013065 0.000000 0.066447 0.000000
# 6 0.000000 0.000000 0.000000 -0.019043 0.000000 0.064752
#
#
# Mechanical properties :
#
#
# Convention : Reuss Voigt Hill
#
# Bulk Modulus (GPa) = 30.48063 45.70776 38.09419
# Shear Modulus (GPa) = 19.53429 29.56061 24.54745
#
# Velocity S-wave (km/s) = 3.09474 3.80700 3.46920
# Velocity P-wave (km/s) = 5.26443 6.46021 5.89273
#
# Compressibility (1/GPa) = 0.03280773
#
# Stress axis : x y z
#
# Youngs Moduli (GPa) = 36.40306 50.70361 72.41150
#
# Poissons Ratio (x) = 0.16188 0.07873
# Poissons Ratio (y) = 0.11622 0.71091
# Poissons Ratio (z) = 0.03958 0.49779
#
# Static dielectric constant tensor:
#      x y z
#    x 1.752350 0.000000 0.037600 
#    y 0.000000 1.733240 0.000000 
#    z 0.037600 0.000000 1.741560 
# 
# From -- ./inp_files/67123.got.cif
#   From: 2010.05.17/outbox.cif.g08.bks.cpg/sg15_34_cif.got.tgz:67123.got - 2010.06.03 18:47:42.
