data_PCOD9294391
_publ_section_title
;
Structure prediction by ZEFSAII (Michael W. Deem and Ramdas Pophale) SiO2 
 PCOD9294391
Probable space group: C 2/C
;
_chemical_formula_sum "Si O2"
_cell_formula_units_Z 28
_cell_length_a 9.899817
_cell_length_b 22.099225
_cell_length_c 10.802920
_cell_angle_alpha 90.000000
_cell_angle_beta 28.225099
_cell_angle_gamma 90.000000
_cell_volume 1117.759742
_symmetry_space_group_name_H-M "C 2/C"
_symmetry_group_IT_number 15
_symmetry_cell_setting 'monoclinic'
loop_
_space_group_symop_operation_xyz
x,y,z
-x,y,1/2-z
-x,-y,-z
x,-y,1/2+z
1/2+x,1/2+y,z
1/2-x,1/2+y,1/2-z
1/2-x,1/2-y,-z
1/2+x,1/2-y,1/2+z
loop_
_atom_site_type_symbol
_atom_site_label
_atom_site_fract_x
_atom_site_fract_y
_atom_site_fract_z
Si Si1 0.500000 0.015464 0.250000
Si Si2 0.932203 0.615372 0.097747
Si Si3 0.500000 0.433801 0.750000
Si Si4 0.840751 0.292853 0.252745
Si Si5 0.500000 0.208218 0.250000
O O1 0.491729 0.055722 0.131032
O O2 0.220847 0.974467 0.493127
O O3 0.683803 0.604143 0.199620
O O4 0.871420 0.664453 0.251098
O O5 0.182809 0.648371 0.816104
O O6 0.561924 0.254952 0.512617
O O7 0.000000 0.312657 0.250000
O O8 0.250000 0.250000 0.500000
#
# Coordination Sequence:
#
# PCOD9294391 Si02
#       5
#     4   8   4   8   4
#     4  11  28  50  70 104 144 190 244 311 358 420
#     4  11  26  46  78 102 145 194 236 297 368 420
#     4  12  28  47  72 108 140 185 258 302 352 418
#     4  10  23  40  64 103 140 174 224 283 344 426
#     4  11  26  49  72 110 150 187 232 285 362 450
#
# _framework density 25.050104000000001
#
# number of rings (size 3 to 8) (size 9 to 14) (size 15 to 20)
#    0.000    1.143    0.000    3.429    8.000    9.143 
#    0.000    0.000    0.000    0.000    0.000    0.000 
#    0.000    0.000    0.000    0.000    0.000    0.000 
#
# Total GULP energy -78492.974145 kJ/mol
# GULP energy per Si atom -5606.641010 kJ/mol
# Density = 2.499309 g / cm^3
# Si number density = 25.050104 Si / 1000 Ang^3
#
#
#
# Elastic Constant Matrix: (Units=GPa)
#
#
# Indices 1 2 3 4 5 6 
#
# 1 162.5476 72.1035 25.1922 -0.0003 19.9615 0.0005
# 2 72.1035 129.1607 71.6460 -0.0001 11.0507 0.0000
# 3 25.1922 71.6460 170.2760 -0.0004 -2.0305 0.0006
# 4 -0.0003 -0.0001 -0.0004 23.7827 0.0002 17.9020
# 5 19.9615 11.0507 -2.0305 0.0002 37.6296 -0.0005
# 6 0.0005 0.0000 0.0006 17.9020 -0.0005 32.3394
#
#
#
# Elastic Compliance Matrix: (Units=1/GPa)
#
#
# Indices 1 2 3 4 5 6 
#
# 1 0.008618 -0.004984 0.000786 0.000000 -0.003065 0.000000
# 2 -0.004984 0.013382 -0.004912 0.000000 -0.001551 0.000000
# 3 0.000786 -0.004912 0.007841 0.000000 0.001449 0.000000
# 4 0.000000 0.000000 0.000000 0.072084 -0.000001 -0.039903
# 5 -0.003065 -0.001551 0.001449 -0.000001 0.028735 0.000001
# 6 0.000000 0.000000 0.000000 -0.039903 0.000001 0.053011
#
#
# Mechanical properties :
#
#
# Convention : Reuss Voigt Hill
#
# Bulk Modulus (GPa) = 86.06246 88.87417 87.46831
# Shear Modulus (GPa) = 24.29974 38.28650 31.29312
#
# Velocity S-wave (km/s) = 3.11793 3.91371 3.53827
# Velocity P-wave (km/s) = 6.88424 7.48187 7.18927
#
# Compressibility (1/GPa) = 0.01161947
#
# Stress axis : x y z
#
# Youngs Moduli (GPa) = 116.04035 74.72686 127.54227
#
# Poissons Ratio (x) = 0.37247 -0.10021
# Poissons Ratio (y) = 0.57839 0.62646
# Poissons Ratio (z) = -0.09117 0.36704
#
# Static dielectric constant tensor:
#      x y z
#    x 2.016560 0.000000 0.042830 
#    y 0.000000 1.958780 0.000000 
#    z 0.042830 0.000000 1.969370 
# 
# From -- ./inp_files/88705.got.cif
#   From: 2010.05.17/outbox.cif.g08.bks.cpg/sg15_45_cif.got.tgz:88705.got - 2010.06.03 18:47:42.
