data_PCOD9294328
_publ_section_title
;
Structure prediction by ZEFSAII (Michael W. Deem and Ramdas Pophale) SiO2 
 PCOD9294328
Probable space group: C 2/C
;
_chemical_formula_sum "Si O2"
_cell_formula_units_Z 56
_cell_length_a 11.389596
_cell_length_b 11.419223
_cell_length_c 23.600188
_cell_angle_alpha 90.000000
_cell_angle_beta 54.539187
_cell_angle_gamma 90.000000
_cell_volume 2500.104071
_symmetry_space_group_name_H-M "C 2/C"
_symmetry_group_IT_number 15
_symmetry_cell_setting 'monoclinic'
loop_
_space_group_symop_operation_xyz
x,y,z
-x,y,1/2-z
-x,-y,-z
x,-y,1/2+z
1/2+x,1/2+y,z
1/2-x,1/2+y,1/2-z
1/2-x,1/2-y,-z
1/2+x,1/2-y,1/2+z
loop_
_atom_site_type_symbol
_atom_site_label
_atom_site_fract_x
_atom_site_fract_y
_atom_site_fract_z
Si Si1 0.392484 0.734476 0.381485
Si Si2 0.700328 0.291583 0.341170
Si Si3 0.290443 0.760724 0.899074
Si Si4 0.773982 0.430143 0.500562
Si Si5 0.687123 0.170371 0.811130
Si Si6 0.509344 0.935617 0.883209
Si Si7 0.570200 0.379469 0.034273
O O1 0.350044 0.780031 0.331713
O O2 0.295640 0.621678 0.423378
O O3 0.337372 0.828290 0.443392
O O4 0.563556 0.729230 0.339824
O O5 0.717445 0.327851 0.271725
O O6 0.618572 0.167448 0.366834
O O7 0.597155 0.375734 0.406088
O O8 0.274269 0.697959 0.843744
O O9 0.395541 0.875037 0.871245
O O10 0.357488 0.676431 0.928653
O O11 0.133263 0.801171 0.965796
O O12 0.638860 0.493737 0.509282
O O13 0.905211 0.523000 0.464009
O O14 0.600124 0.047888 0.838374
#
# Coordination Sequence:
#
# PCOD9294328 Si02
#       7
#     8   8   8   8   8   8   8
#     4  10  23  40  60  94 131 165 219 265 326 405
#     4  11  24  41  63  97 132 163 219 270 326 404
#     4   9  20  42  66  95 125 163 224 270 319 394
#     4   9  20  41  61  94 122 169 212 268 335 375
#     4  11  24  44  64  91 135 184 206 268 339 394
#     4   9  22  43  65  97 122 172 222 267 330 383
#     4   9  20  38  64  97 122 159 218 280 314 381
#
# _framework density 22.399068
#
# number of rings (size 3 to 8) (size 9 to 14) (size 15 to 20)
#    0.000    2.286    0.000    1.286    8.000    4.571 
#   18.000    0.000    0.000    0.000    0.000    0.000 
#    0.000    0.000    0.000    0.000    0.000    0.000 
#
# Total GULP energy -156280.220466 kJ/mol
# GULP energy per Si atom -5581.436445 kJ/mol
# Density = 2.234809 g / cm^3
# Si number density = 22.399068 Si / 1000 Ang^3
#
#
#
# Elastic Constant Matrix: (Units=GPa)
#
#
# Indices 1 2 3 4 5 6 
#
# 1 64.3547 12.2292 26.7272 0.0000 6.8403 0.0000
# 2 12.2292 44.8062 23.4860 0.0000 -9.2261 0.0000
# 3 26.7272 23.4860 66.8058 0.0000 9.9140 0.0000
# 4 0.0000 0.0000 0.0000 22.6853 0.0000 -13.6713
# 5 6.8403 -9.2261 9.9140 0.0000 34.0267 0.0000
# 6 0.0000 0.0000 0.0000 -13.6713 0.0000 23.8122
#
#
#
# Elastic Compliance Matrix: (Units=1/GPa)
#
#
# Indices 1 2 3 4 5 6 
#
# 1 0.018899 -0.002367 -0.006344 0.000000 -0.002592 0.000000
# 2 -0.002367 0.031956 -0.012170 0.000000 0.012686 0.000000
# 3 -0.006344 -0.012170 0.023084 0.000000 -0.008750 0.000000
# 4 0.000000 0.000000 0.000000 0.067403 0.000000 0.038698
# 5 -0.002592 0.012686 -0.008750 0.000000 0.035899 0.000000
# 6 0.000000 0.000000 0.000000 0.038698 0.000000 0.064213
#
#
# Mechanical properties :
#
#
# Convention : Reuss Voigt Hill
#
# Bulk Modulus (GPa) = 31.07829 33.42794 32.25312
# Shear Modulus (GPa) = 17.01027 23.67315 20.34171
#
# Velocity S-wave (km/s) = 2.75874 3.25450 3.01682
# Velocity P-wave (km/s) = 4.90433 5.39245 5.15418
#
# Compressibility (1/GPa) = 0.03217680
#
# Stress axis : x y z
#
# Youngs Moduli (GPa) = 52.91288 31.29349 43.32029
#
# Poissons Ratio (x) = 0.07406 0.27484
# Poissons Ratio (y) = 0.12522 0.52721
# Poissons Ratio (z) = 0.33569 0.38084
#
# Static dielectric constant tensor:
#      x y z
#    x 1.845060 0.000000 -0.019400 
#    y 0.000000 1.909120 0.000000 
#    z -0.019400 0.000000 1.806210 
# 
# From -- ./inp_files/268725.got.cif
#   From: 2010.05.17/outbox.cif.g08.bks.cpg/sg15_135_cif.got.tgz:268725.got - 2010.06.03 18:47:42.
