data_PCOD9294655
_publ_section_title
;
Structure prediction by ZEFSAII (Michael W. Deem and Ramdas Pophale) SiO2 
 PCOD9294655
Probable space group: C 2/C
;
_chemical_formula_sum "Si O2"
_cell_formula_units_Z 64
_cell_length_a 23.452451
_cell_length_b 14.488939
_cell_length_c 17.686796
_cell_angle_alpha 90.000000
_cell_angle_beta 30.055620
_cell_angle_gamma 90.000000
_cell_volume 3010.047811
_symmetry_space_group_name_H-M "C 2/C"
_symmetry_group_IT_number 15
_symmetry_cell_setting 'monoclinic'
loop_
_space_group_symop_operation_xyz
x,y,z
-x,y,1/2-z
-x,-y,-z
x,-y,1/2+z
1/2+x,1/2+y,z
1/2-x,1/2+y,1/2-z
1/2-x,1/2-y,-z
1/2+x,1/2-y,1/2+z
loop_
_atom_site_type_symbol
_atom_site_label
_atom_site_fract_x
_atom_site_fract_y
_atom_site_fract_z
Si Si1 0.964602 0.372432 0.377863
Si Si2 0.783560 0.996921 0.137891
Si Si3 0.785957 0.131906 0.279780
Si Si4 0.315015 0.855054 0.858026
Si Si5 0.712685 0.344379 0.137887
Si Si6 0.962906 0.999584 0.129894
Si Si7 0.381441 0.171171 0.660981
Si Si8 0.549894 0.088526 0.068814
O O1 0.834682 0.343830 0.544326
O O2 0.967092 0.481055 0.396257
O O3 0.000000 0.359957 0.250000
O O4 0.051144 0.325895 0.337464
O O5 0.769093 0.057370 0.231474
O O6 0.716925 0.054539 0.151523
O O7 0.727416 0.896700 0.209320
O O8 0.917549 0.991170 0.964782
O O9 0.844646 0.225224 0.182689
O O10 0.870342 0.081075 0.242360
O O11 0.298883 0.762556 0.828235
O O12 0.447032 0.860372 0.728991
O O13 0.236433 0.849721 0.021379
O O14 0.602141 0.404269 0.281513
O O15 0.824137 0.385012 0.049587
O O16 0.000000 0.000000 0.000000
O O17 0.458353 0.121932 0.508617
#
# Coordination Sequence:
#
# PCOD9294655 Si02
#       8
#     8   8   8   8   8   8   8   8
#     4  12  25  46  71  98 138 180 226 285 340 398
#     4  11  23  44  63 101 134 172 222 281 331 401
#     4  11  25  44  70  99 134 179 228 279 336 403
#     4  11  25  38  66  97 139 172 219 278 343 406
#     4  11  24  42  62 100 133 181 219 270 347 412
#     4  10  23  41  63  89 133 178 223 272 333 399
#     4  12  26  42  73 103 129 175 234 278 335 402
#     4  12  22  44  69  97 132 174 226 284 337 395
#
# _framework density 21.262119999999999
#
# number of rings (size 3 to 8) (size 9 to 14) (size 15 to 20)
#    0.000    0.750    3.750    3.750    7.000    1.000 
#    0.000    0.000    0.000    0.000    0.000    0.000 
#    0.000    0.000    0.000    0.000    0.000    0.000 
#
# Total GULP energy -178910.520537 kJ/mol
# GULP energy per Si atom -5590.953767 kJ/mol
# Density = 2.121373 g / cm^3
# Si number density = 21.262120 Si / 1000 Ang^3
#
#
#
# Elastic Constant Matrix: (Units=GPa)
#
#
# Indices 1 2 3 4 5 6 
#
# 1 77.7929 10.4287 27.7850 0.0000 -12.6368 0.0000
# 2 10.4287 68.7043 0.8671 0.0000 -5.1022 0.0000
# 3 27.7850 0.8671 97.3487 0.0000 -16.5355 0.0000
# 4 0.0000 0.0000 0.0000 25.9063 0.0000 8.8951
# 5 -12.6368 -5.1022 -16.5355 0.0000 35.9049 0.0000
# 6 0.0000 0.0000 0.0000 8.8951 0.0000 -6.8284
#
#
#
# Elastic Compliance Matrix: (Units=1/GPa)
#
#
# Indices 1 2 3 4 5 6 
#
# 1 0.014975 -0.001982 -0.003698 0.000000 0.003286 0.000000
# 2 -0.001982 0.014978 0.000733 0.000000 0.001768 0.000000
# 3 -0.003698 0.000733 0.012062 0.000000 0.004357 0.000000
# 4 0.000000 0.000000 0.000000 0.026671 0.000000 0.034744
# 5 0.003286 0.001768 0.004357 0.000000 0.031266 0.000000
# 6 0.000000 0.000000 0.000000 0.034744 0.000000 -0.101188
#
#
# Mechanical properties :
#
#
# Convention : Reuss Voigt Hill
#
# Bulk Modulus (GPa) = 31.13465 35.77861 33.45663
# Shear Modulus (GPa) = 258.18062 24.64755 141.41409
#
# Velocity S-wave (km/s) = 11.03137 3.40843 8.16421
# Velocity P-wave (km/s) = 13.30150 5.68804 10.22946
#
# Compressibility (1/GPa) = 0.03211855
#
# Stress axis : x y z
#
# Youngs Moduli (GPa) = 66.77770 66.76408 82.90821
#
# Poissons Ratio (x) = 0.13235 0.30663
# Poissons Ratio (y) = 0.13238 -0.06075
# Poissons Ratio (z) = 0.24697 -0.04892
#
# Static dielectric constant tensor:
#      x y z
#    x 1.794720 0.000000 -0.007200 
#    y 0.000000 1.739470 0.000000 
#    z -0.007200 0.000000 1.785820 
# 
# From -- ./inp_files/219705.got.cif
#   From: 2010.05.17/outbox.cif.g08.bks.cpg/sg15_110_cif.got.tgz:219705.got - 2010.06.03 18:47:42.
