data_PCOD9294950
_publ_section_title
;
Structure prediction by ZEFSAII (Michael W. Deem and Ramdas Pophale) SiO2 
 PCOD9294950
Probable space group: C 2/C
;
_chemical_formula_sum "Si O2"
_cell_formula_units_Z 40
_cell_length_a 9.473091
_cell_length_b 27.445883
_cell_length_c 16.092547
_cell_angle_alpha 90.000000
_cell_angle_beta 150.134512
_cell_angle_gamma 90.000000
_cell_volume 2083.497276
_symmetry_space_group_name_H-M "C 2/C"
_symmetry_group_IT_number 15
_symmetry_cell_setting 'monoclinic'
loop_
_space_group_symop_operation_xyz
x,y,z
-x,y,1/2-z
-x,-y,-z
x,-y,1/2+z
1/2+x,1/2+y,z
1/2-x,1/2+y,1/2-z
1/2-x,1/2-y,-z
1/2+x,1/2-y,1/2+z
loop_
_atom_site_type_symbol
_atom_site_label
_atom_site_fract_x
_atom_site_fract_y
_atom_site_fract_z
Si Si1 0.632987 0.874424 0.224963
Si Si2 0.834747 0.850655 0.907065
Si Si3 0.349991 0.697144 0.082380
Si Si4 0.240074 0.526601 0.675235
Si Si5 0.295285 0.462738 0.853100
O O1 0.500000 0.880832 0.250000
O O2 0.661511 0.926561 0.192529
O O3 0.939259 0.848445 0.400658
O O4 0.418851 0.839847 0.063652
O O5 0.500000 0.841760 0.750000
O O6 0.868337 0.906963 0.898998
O O7 0.934542 0.819903 0.879421
O O8 0.500000 0.697539 0.250000
O O9 0.250000 0.750000 0.000000
O O10 0.500000 0.542136 0.750000
O O11 0.318317 0.480907 0.772135
O O12 0.000000 0.500000 0.500000
O O13 0.000000 0.469074 0.750000
O O14 0.500000 0.500000 0.000000
#
# Coordination Sequence:
#
# PCOD9294950 Si02
#       5
#     8   8   8   8   8
#     4  10  23  44  66  91 132 176 222 268 329 391
#     4  10  23  41  70  96 133 172 224 267 330 386
#     4  11  25  47  75 100 128 168 219 275 338 394
#     4  12  27  36  57  93 136 173 226 267 324 377
#     4  11  22  39  62  88 128 184 219 262 316 388
#
# _framework density 19.198488999999999
#
# number of rings (size 3 to 8) (size 9 to 14) (size 15 to 20)
#    0.000    1.200    2.000    3.600   14.000    0.000 
#    0.000    5.000    0.000    0.000    0.000    0.000 
#    0.000    0.000    0.000    0.000    0.000    0.000 
#
# Total GULP energy -111466.473864 kJ/mol
# GULP energy per Si atom -5573.323693 kJ/mol
# Density = 1.915479 g / cm^3
# Si number density = 19.198489 Si / 1000 Ang^3
#
#
#
# Elastic Constant Matrix: (Units=GPa)
#
#
# Indices 1 2 3 4 5 6 
#
# 1 75.9954 62.2233 59.4321 0.0000 -3.2361 0.0000
# 2 62.2233 105.5954 56.9015 0.0000 12.1076 0.0000
# 3 59.4321 56.9015 171.7664 0.0000 -13.6351 0.0000
# 4 0.0000 0.0000 0.0000 36.0752 0.0000 -1.5230
# 5 -3.2361 12.1076 -13.6351 0.0000 36.5165 0.0000
# 6 0.0000 0.0000 0.0000 -1.5230 0.0000 29.2987
#
#
#
# Elastic Compliance Matrix: (Units=1/GPa)
#
#
# Indices 1 2 3 4 5 6 
#
# 1 0.030125 -0.015966 -0.004640 0.000000 0.006231 0.000000
# 2 -0.015966 0.021128 -0.002209 0.000000 -0.009245 0.000000
# 3 -0.004640 -0.002209 0.008435 0.000000 0.003471 0.000000
# 4 0.000000 0.000000 0.000000 0.027781 0.000000 0.001444
# 5 0.006231 -0.009245 0.003471 0.000000 0.032298 0.000000
# 6 0.000000 0.000000 0.000000 0.001444 0.000000 0.034206
#
#
# Mechanical properties :
#
#
# Convention : Reuss Voigt Hill
#
# Bulk Modulus (GPa) = 71.12859 78.94124 75.03491
# Shear Modulus (GPa) = 24.47524 32.03144 28.25334
#
# Velocity S-wave (km/s) = 3.57438 4.08908 3.84036
# Velocity P-wave (km/s) = 7.35965 7.96880 7.67028
#
# Compressibility (1/GPa) = 0.01405904
#
# Stress axis : x y z
#
# Youngs Moduli (GPa) = 33.19528 47.32969 118.56035
#
# Poissons Ratio (x) = 0.75565 0.55009
# Poissons Ratio (y) = 0.52998 0.26190
# Poissons Ratio (z) = 0.15402 0.10455
#
# Static dielectric constant tensor:
#      x y z
#    x 1.768170 0.000000 -0.148220 
#    y 0.000000 1.775210 0.000000 
#    z -0.148220 0.000000 1.969200 
# 
# From -- ./inp_files/139943.got.cif
#   From: 2010.05.17/outbox.cif.g08.bks.cpg/sg15_70_cif.got.tgz:139943.got - 2010.06.03 18:47:42.
