data_PCOD9294678
_publ_section_title
;
Structure prediction by ZEFSAII (Michael W. Deem and Ramdas Pophale) SiO2 
 PCOD9294678
Probable space group: C 2/C
;
_chemical_formula_sum "Si O2"
_cell_formula_units_Z 60
_cell_length_a 22.970821
_cell_length_b 18.384647
_cell_length_c 12.041897
_cell_angle_alpha 90.000000
_cell_angle_beta 28.614922
_cell_angle_gamma 90.000000
_cell_volume 2435.511307
_symmetry_space_group_name_H-M "C 2/C"
_symmetry_group_IT_number 15
_symmetry_cell_setting 'monoclinic'
loop_
_space_group_symop_operation_xyz
x,y,z
-x,y,1/2-z
-x,-y,-z
x,-y,1/2+z
1/2+x,1/2+y,z
1/2-x,1/2+y,1/2-z
1/2-x,1/2-y,-z
1/2+x,1/2-y,1/2+z
loop_
_atom_site_type_symbol
_atom_site_label
_atom_site_fract_x
_atom_site_fract_y
_atom_site_fract_z
Si Si1 0.775505 0.365798 0.055866
Si Si2 0.366102 0.242496 0.092171
Si Si3 0.764342 0.553120 0.812157
Si Si4 0.267127 0.800112 0.366459
Si Si5 0.134747 0.003947 0.224044
Si Si6 0.517047 0.773377 0.888025
Si Si7 0.500000 0.650756 0.750000
Si Si8 0.744897 0.410609 0.743951
O O1 0.711542 0.288765 0.187267
O O2 0.773532 0.407409 0.177766
O O3 0.697853 0.424256 0.115997
O O4 0.904781 0.342061 0.786784
O O5 0.356572 0.292768 0.998928
O O6 0.478755 0.229804 0.985009
O O7 0.317715 0.164451 0.132193
O O8 0.813137 0.617784 0.808266
O O9 0.811900 0.473051 0.704325
O O10 0.641760 0.536362 0.088118
O O11 0.250000 0.750000 0.500000
O O12 0.372802 0.772214 0.107700
O O13 0.214502 0.054044 0.174906
O O14 0.000000 0.000000 0.500000
O O15 0.553500 0.702960 0.756509
O O16 0.610270 0.605244 0.516017
#
# Coordination Sequence:
#
# PCOD9294678 Si02
#       8
#     8   8   8   8   8   8   4   8
#     4  10  23  41  64 103 142 185 244 310 368 452
#     4  11  23  40  70 106 141 188 247 314 369 461
#     4  10  23  41  63  97 145 188 239 306 378 452
#     4  11  25  48  71 102 149 198 247 310 389 465
#     4  11  24  41  68 100 146 199 245 311 388 450
#     4  12  24  42  74 105 137 191 257 310 370 455
#     4  12  22  38  70 106 136 190 244 302 390 436
#     4  11  22  39  62 103 145 183 245 307 376 449
#
# _framework density 24.635484000000002
#
# number of rings (size 3 to 8) (size 9 to 14) (size 15 to 20)
#    0.000    1.067    2.667    3.600    3.733    2.133 
#    0.000    8.000    0.000    4.800    0.000    0.000 
#    0.000    0.000    0.000    0.000    0.000    0.000 
#
# Total GULP energy -167057.608062 kJ/mol
# GULP energy per Si atom -5568.586935 kJ/mol
# Density = 2.457941 g / cm^3
# Si number density = 24.635484 Si / 1000 Ang^3
#
#
#
# Elastic Constant Matrix: (Units=GPa)
#
#
# Indices 1 2 3 4 5 6 
#
# 1 110.3019 30.9113 19.0128 0.0000 16.6819 0.0000
# 2 30.9113 158.7813 24.7387 0.0000 4.0790 0.0000
# 3 19.0128 24.7387 99.7654 0.0001 14.9412 -0.0001
# 4 0.0000 0.0000 0.0001 32.4379 0.0000 4.0797
# 5 16.6819 4.0790 14.9412 0.0000 28.2459 0.0000
# 6 0.0000 0.0000 -0.0001 4.0797 0.0000 44.0463
#
#
#
# Elastic Compliance Matrix: (Units=1/GPa)
#
#
# Indices 1 2 3 4 5 6 
#
# 1 0.010538 -0.001795 -0.000728 0.000000 -0.005580 0.000000
# 2 -0.001795 0.006857 -0.001486 0.000000 0.000856 0.000000
# 3 -0.000728 -0.001486 0.011332 0.000000 -0.005350 0.000000
# 4 0.000000 0.000000 0.000000 0.031191 0.000000 -0.002889
# 5 -0.005580 0.000856 -0.005350 0.000000 0.041405 0.000000
# 6 0.000000 0.000000 0.000000 -0.002889 0.000000 0.022971
#
#
# Mechanical properties :
#
#
# Convention : Reuss Voigt Hill
#
# Bulk Modulus (GPa) = 48.28731 57.57490 52.93110
# Shear Modulus (GPa) = 35.91543 40.55840 38.23692
#
# Velocity S-wave (km/s) = 3.82235 4.06191 3.94395
# Velocity P-wave (km/s) = 6.25490 6.73946 6.50170
#
# Compressibility (1/GPa) = 0.02070938
#
# Stress axis : x y z
#
# Youngs Moduli (GPa) = 94.89168 145.83634 88.24565
#
# Poissons Ratio (x) = 0.26176 0.06421
# Poissons Ratio (y) = 0.17032 0.13118
# Poissons Ratio (z) = 0.06905 0.21678
#
# Static dielectric constant tensor:
#      x y z
#    x 2.074730 0.000000 0.022920 
#    y 0.000000 2.027390 0.000000 
#    z 0.022920 0.000000 1.933040 
# 
# From -- ./inp_files/123977.got.cif
#   From: 2010.05.17/outbox.cif.g08.bks.cpg/sg15_62_cif.got.tgz:123977.got - 2010.06.03 18:47:42.
