data_PCOD9294072
_publ_section_title
;
Structure prediction by ZEFSAII (Michael W. Deem and Ramdas Pophale) SiO2 
 PCOD9294072
Probable space group: C 2/C
;
_chemical_formula_sum "Si O2"
_cell_formula_units_Z 48
_cell_length_a 11.148293
_cell_length_b 22.872172
_cell_length_c 9.133383
_cell_angle_alpha 90.000000
_cell_angle_beta 72.296831
_cell_angle_gamma 90.000000
_cell_volume 2218.596848
_symmetry_space_group_name_H-M "C 2/C"
_symmetry_group_IT_number 15
_symmetry_cell_setting 'monoclinic'
loop_
_space_group_symop_operation_xyz
x,y,z
-x,y,1/2-z
-x,-y,-z
x,-y,1/2+z
1/2+x,1/2+y,z
1/2-x,1/2+y,1/2-z
1/2-x,1/2-y,-z
1/2+x,1/2-y,1/2+z
loop_
_atom_site_type_symbol
_atom_site_label
_atom_site_fract_x
_atom_site_fract_y
_atom_site_fract_z
Si Si1 0.639509 0.891218 0.259087
Si Si2 0.384321 0.390555 0.698732
Si Si3 0.235403 0.316941 0.965825
Si Si4 0.507310 0.116301 0.421945
Si Si5 0.811483 0.513105 0.142571
Si Si6 0.421380 0.455719 0.426170
O O1 0.500000 0.878578 0.250000
O O2 0.733419 0.857456 0.114572
O O3 0.621199 0.875094 0.438046
O O4 0.660576 0.960560 0.256748
O O5 0.500000 0.414296 0.750000
O O6 0.272312 0.436697 0.753671
O O7 0.415339 0.394472 0.517159
O O8 0.340010 0.334910 0.807372
O O9 0.250000 0.250000 0.000000
O O10 0.104502 0.333815 0.935829
O O11 0.500000 0.115213 0.250000
O O12 0.568316 0.053108 0.446599
O O13 0.714812 0.483512 0.062814
O O14 0.500000 0.447450 0.250000
O O15 0.500000 0.500000 0.500000
#
# Coordination Sequence:
#
# PCOD9294072 Si02
#       6
#     8   8   8   8   8   8
#     4  10  23  38  65  96 128 173 216 259 329 400
#     4  11  24  39  62  96 132 176 224 272 330 391
#     4  10  25  48  71  86 121 180 236 275 328 388
#     4  10  23  40  67 101 134 164 212 279 334 395
#     4  11  22  34  65  95 144 170 204 254 342 400
#     4  12  23  35  58  94 149 180 212 259 320 401
#
# _framework density 21.635296
#
# number of rings (size 3 to 8) (size 9 to 14) (size 15 to 20)
#    0.000    1.333    3.333    1.000   14.000    2.000 
#    0.000    0.833    3.667    0.000    0.000    0.000 
#    0.000    0.000    0.000    0.000    0.000    0.000 
#
# Total GULP energy -133826.205665 kJ/mol
# GULP energy per Si atom -5576.091903 kJ/mol
# Density = 2.158605 g / cm^3
# Si number density = 21.635296 Si / 1000 Ang^3
#
#
#
# Elastic Constant Matrix: (Units=GPa)
#
#
# Indices 1 2 3 4 5 6 
#
# 1 45.0023 22.3257 36.2078 0.0000 11.7390 0.0000
# 2 22.3257 136.8679 62.1568 0.0000 -0.9129 0.0000
# 3 36.2078 62.1568 192.1435 0.0000 -0.4319 0.0000
# 4 0.0000 0.0000 0.0000 32.8025 0.0000 5.0909
# 5 11.7390 -0.9129 -0.4319 0.0000 27.8615 0.0000
# 6 0.0000 0.0000 0.0000 5.0909 0.0000 14.4219
#
#
#
# Elastic Compliance Matrix: (Units=1/GPa)
#
#
# Indices 1 2 3 4 5 6 
#
# 1 0.031115 -0.002916 -0.004950 0.000000 -0.013282 0.000000
# 2 -0.002916 0.008839 -0.002307 0.000000 0.001483 0.000000
# 3 -0.004950 -0.002307 0.006888 0.000000 0.002117 0.000000
# 4 0.000000 0.000000 0.000000 0.032252 0.000000 -0.011385
# 5 -0.013282 0.001483 0.002117 0.000000 0.041569 0.000000
# 6 0.000000 0.000000 0.000000 -0.011385 0.000000 0.073358
#
#
# Mechanical properties :
#
#
# Convention : Reuss Voigt Hill
#
# Bulk Modulus (GPa) = 37.73970 68.37715 53.05843
# Shear Modulus (GPa) = 22.40144 31.90541 27.15342
#
# Velocity S-wave (km/s) = 3.22127 3.84434 3.54651
# Velocity P-wave (km/s) = 5.59615 7.16787 6.43021
#
# Compressibility (1/GPa) = 0.02649729
#
# Stress axis : x y z
#
# Youngs Moduli (GPa) = 32.13890 113.12990 145.17726
#
# Poissons Ratio (x) = 0.32990 0.71861
# Poissons Ratio (y) = 0.09372 0.33487
# Poissons Ratio (z) = 0.15908 0.26095
#
# Static dielectric constant tensor:
#      x y z
#    x 1.887560 0.000000 -0.067780 
#    y 0.000000 1.763910 0.000000 
#    z -0.067780 0.000000 1.936200 
# 
# From -- ./inp_files/31924.got.cif
#   From: 2010.05.17/outbox.cif.g08.bks.cpg/sg15_16_cif.got.tgz:31924.got - 2010.06.03 18:47:42.
