data_PCOD9294330
_publ_section_title
;
Structure prediction by ZEFSAII (Michael W. Deem and Ramdas Pophale) SiO2 
 PCOD9294330
Probable space group: C 2/C
;
_chemical_formula_sum "Si O2"
_cell_formula_units_Z 60
_cell_length_a 12.369691
_cell_length_b 25.438460
_cell_length_c 18.078506
_cell_angle_alpha 90.000000
_cell_angle_beta 152.160642
_cell_angle_gamma 90.000000
_cell_volume 2656.584694
_symmetry_space_group_name_H-M "C 2/C"
_symmetry_group_IT_number 15
_symmetry_cell_setting 'monoclinic'
loop_
_space_group_symop_operation_xyz
x,y,z
-x,y,1/2-z
-x,-y,-z
x,-y,1/2+z
1/2+x,1/2+y,z
1/2-x,1/2+y,1/2-z
1/2-x,1/2-y,-z
1/2+x,1/2-y,1/2+z
loop_
_atom_site_type_symbol
_atom_site_label
_atom_site_fract_x
_atom_site_fract_y
_atom_site_fract_z
Si Si1 0.000000 0.425050 0.750000
Si Si2 0.445801 0.755408 0.940501
Si Si3 0.793715 0.176398 0.574362
Si Si4 0.446106 0.098021 0.797326
Si Si5 0.435943 0.645364 0.497424
Si Si6 0.050530 0.289185 0.402239
Si Si7 0.759713 0.451605 0.892613
Si Si8 0.402916 0.938827 0.528074
O O1 0.789536 0.389194 0.653057
O O2 0.083193 0.452251 0.875883
O O3 0.552257 0.700821 0.037824
O O4 0.192296 0.736893 0.765466
O O5 0.586029 0.782767 0.959413
O O6 0.443392 0.796660 0.005980
O O7 0.897688 0.167089 0.556978
O O8 0.710922 0.118296 0.548432
O O9 0.000000 0.196319 0.750000
O O10 0.500000 0.073076 0.750000
O O11 0.568919 0.155103 0.873636
O O12 0.171972 0.111604 0.637028
O O13 0.556261 0.068332 0.934118
O O14 0.250000 0.250000 0.500000
O O15 0.500000 0.431971 0.750000
O O16 0.853557 0.437450 0.868191
O O17 0.764929 0.514776 0.904199
#
# Coordination Sequence:
#
# PCOD9294330 Si02
#       8
#     4   8   8   8   8   8   8   8
#     4  10  24  40  72  94 142 182 216 274 346 410
#     4  11  23  36  63  93 128 170 229 269 322 396
#     4  11  21  38  64  89 133 175 213 275 342 389
#     4  11  25  45  66  97 135 178 225 283 338 400
#     4  10  23  40  60  97 135 172 222 276 333 398
#     4  11  23  41  60  89 132 180 217 274 336 393
#     4  11  25  45  73 101 132 173 233 284 331 411
#     4  10  24  44  65 102 136 171 225 280 346 390
#
# _framework density 22.585387999999998
#
# number of rings (size 3 to 8) (size 9 to 14) (size 15 to 20)
#    0.000    1.333    0.000    6.000    7.467    5.333 
#    0.000    1.333    0.000    0.000    0.000    0.000 
#    0.000    0.000    0.000    0.000    0.000    0.000 
#
# Total GULP energy -167669.941504 kJ/mol
# GULP energy per Si atom -5588.998050 kJ/mol
# Density = 2.253398 g / cm^3
# Si number density = 22.585388 Si / 1000 Ang^3
#
#
#
# Elastic Constant Matrix: (Units=GPa)
#
#
# Indices 1 2 3 4 5 6 
#
# 1 106.0192 6.5184 11.0140 0.0034 5.4309 0.0012
# 2 6.5184 75.6402 18.4583 0.0034 13.0514 0.0027
# 3 11.0140 18.4583 51.2188 0.0166 19.8933 0.0101
# 4 0.0034 0.0034 0.0166 19.5132 0.0001 -0.3083
# 5 5.4309 13.0514 19.8933 0.0001 34.3687 0.0002
# 6 0.0012 0.0027 0.0101 -0.3083 0.0002 16.0885
#
#
#
# Elastic Compliance Matrix: (Units=1/GPa)
#
#
# Indices 1 2 3 4 5 6 
#
# 1 0.009660 -0.000327 -0.001825 0.000000 -0.000346 0.000000
# 2 -0.000327 0.014784 -0.003995 0.000001 -0.003250 0.000000
# 3 -0.001825 -0.003995 0.026645 -0.000022 -0.013617 -0.000016
# 4 0.000000 0.000001 -0.000022 0.051263 0.000012 0.000982
# 5 -0.000346 -0.003250 -0.013617 0.000012 0.038267 0.000009
# 6 0.000000 0.000000 -0.000016 0.000982 0.000009 0.062175
#
#
# Mechanical properties :
#
#
# Convention : Reuss Voigt Hill
#
# Bulk Modulus (GPa) = 25.77714 33.87329 29.82521
# Shear Modulus (GPa) = 21.92778 27.11989 24.52383
#
# Velocity S-wave (km/s) = 3.11928 3.46897 3.29876
# Velocity P-wave (km/s) = 4.94077 5.57454 5.26719
#
# Compressibility (1/GPa) = 0.03879407
#
# Stress axis : x y z
#
# Youngs Moduli (GPa) = 103.52305 67.63863 37.53009
#
# Poissons Ratio (x) = 0.02215 0.06849
# Poissons Ratio (y) = 0.03390 0.14995
# Poissons Ratio (z) = 0.18892 0.27024
#
# Static dielectric constant tensor:
#      x y z
#    x 1.910990 0.000000 0.008300 
#    y 0.000000 1.842130 0.000000 
#    z 0.008300 0.000000 1.820640 
# 
# From -- ./inp_files/201284.got.cif
#   From: 2010.05.17/outbox.cif.g08.bks.cpg/sg15_101_cif.got.tgz:201284.got - 2010.06.03 18:47:42.
