data_PCOD9294534
_publ_section_title
;
Structure prediction by ZEFSAII (Michael W. Deem and Ramdas Pophale) SiO2 
 PCOD9294534
Probable space group: C 2/C
;
_chemical_formula_sum "Si O2"
_cell_formula_units_Z 56
_cell_length_a 5.287671
_cell_length_b 19.803596
_cell_length_c 21.187739
_cell_angle_alpha 90.000000
_cell_angle_beta 100.009363
_cell_angle_gamma 90.000000
_cell_volume 2184.902376
_symmetry_space_group_name_H-M "C 2/C"
_symmetry_group_IT_number 15
_symmetry_cell_setting 'monoclinic'
loop_
_space_group_symop_operation_xyz
x,y,z
-x,y,1/2-z
-x,-y,-z
x,-y,1/2+z
1/2+x,1/2+y,z
1/2-x,1/2+y,1/2-z
1/2-x,1/2-y,-z
1/2+x,1/2-y,1/2+z
loop_
_atom_site_type_symbol
_atom_site_label
_atom_site_fract_x
_atom_site_fract_y
_atom_site_fract_z
Si Si1 0.718460 0.615349 0.635032
Si Si2 0.000000 0.889534 0.250000
Si Si3 0.644806 0.019412 0.643943
Si Si4 0.310809 0.443474 0.023698
Si Si5 0.059201 0.745189 0.895376
Si Si6 0.389996 0.176681 0.071536
Si Si7 0.000000 0.219495 0.250000
Si Si8 0.594772 0.888933 0.693692
O O1 0.656326 0.648256 0.701203
O O2 0.480234 0.599231 0.581122
O O3 0.883904 0.665981 0.599656
O O4 0.864090 0.545029 0.652941
O O5 0.820773 0.934039 0.196597
O O6 0.624962 0.022808 0.567149
O O7 0.742482 0.943887 0.659707
O O8 0.500000 0.500000 0.000000
O O9 0.174342 0.386272 0.976037
O O10 0.326451 0.787583 0.918776
O O11 0.841292 0.769454 0.934228
O O12 0.963699 0.749429 0.818120
O O13 0.380242 0.141090 0.139796
O O14 0.240862 0.171309 0.272861
O O15 0.500000 0.929162 0.750000
#
# Coordination Sequence:
#
# PCOD9294534 Si02
#       8
#     8   4   8   8   8   8   4   8
#     4  11  26  45  74 108 147 195 245 301 379 440
#     4  10  23  44  68 112 144 185 236 306 380 446
#     4  11  25  43  72 107 141 195 246 309 376 445
#     4  11  28  48  73 103 147 195 257 312 369 434
#     4  11  27  46  75 109 149 195 244 305 364 457
#     4  11  27  47  73 107 146 196 247 304 367 436
#     4  10  23  40  68 102 146 187 238 300 372 436
#     4  11  21  41  69 103 144 182 245 307 375 439
#
# _framework density 25.630434000000001
#
# number of rings (size 3 to 8) (size 9 to 14) (size 15 to 20)
#    0.000    1.143    1.429    2.571   12.000    4.571 
#    0.000    0.000    0.000    0.000    0.000    0.000 
#    0.000    0.000    0.000    0.000    0.000    0.000 
#
# Total GULP energy -156297.570716 kJ/mol
# GULP energy per Si atom -5582.056097 kJ/mol
# Density = 2.557210 g / cm^3
# Si number density = 25.630434 Si / 1000 Ang^3
#
#
#
# Elastic Constant Matrix: (Units=GPa)
#
#
# Indices 1 2 3 4 5 6 
#
# 1 76.9410 1.9522 27.8865 0.0000 -8.8535 0.0000
# 2 1.9522 54.0428 8.6574 0.0000 -9.2709 0.0000
# 3 27.8865 8.6574 140.4011 0.0000 -2.4154 0.0000
# 4 0.0000 0.0000 0.0000 27.4709 0.0000 -11.2369
# 5 -8.8535 -9.2709 -2.4154 0.0000 40.3450 0.0000
# 6 0.0000 0.0000 0.0000 -11.2369 0.0000 23.9129
#
#
#
# Elastic Compliance Matrix: (Units=1/GPa)
#
#
# Indices 1 2 3 4 5 6 
#
# 1 0.014366 0.000464 -0.002829 0.000000 0.003090 0.000000
# 2 0.000464 0.019453 -0.001214 0.000000 0.004499 0.000000
# 3 -0.002829 -0.001214 0.007752 0.000000 -0.000436 0.000000
# 4 0.000000 0.000000 0.000000 0.045064 0.000000 0.021176
# 5 0.003090 0.004499 -0.000436 0.000000 0.026472 0.000000
# 6 0.000000 0.000000 0.000000 0.021176 0.000000 0.051769
#
#
# Mechanical properties :
#
#
# Convention : Reuss Voigt Hill
#
# Bulk Modulus (GPa) = 29.05848 38.70857 33.88352
# Shear Modulus (GPa) = 27.24709 33.87168 30.55938
#
# Velocity S-wave (km/s) = 3.26402 3.63924 3.45673
# Velocity P-wave (km/s) = 5.05640 5.72662 5.40192
#
# Compressibility (1/GPa) = 0.03441336
#
# Stress axis : x y z
#
# Youngs Moduli (GPa) = 69.60858 51.40470 129.00386
#
# Poissons Ratio (x) = -0.02387 0.36493
# Poissons Ratio (y) = -0.03232 0.15666
# Poissons Ratio (z) = 0.19691 0.06242
#
# Static dielectric constant tensor:
#      x y z
#    x 2.558310 0.000000 -0.396590 
#    y 0.000000 2.088400 0.000000 
#    z -0.396590 0.000000 2.289910 
# 
# From -- ./inp_files/261421.got.cif
#   From: 2010.05.17/outbox.cif.g08.bks.cpg/sg15_131_cif.got.tgz:261421.got - 2010.06.03 18:47:42.
