data_PCOD9294325
_publ_section_title
;
Structure prediction by ZEFSAII (Michael W. Deem and Ramdas Pophale) SiO2 
 PCOD9294325
Probable space group: C 2/C
;
_chemical_formula_sum "Si O2"
_cell_formula_units_Z 48
_cell_length_a 19.835230
_cell_length_b 24.948310
_cell_length_c 9.410459
_cell_angle_alpha 90.000000
_cell_angle_beta 150.152673
_cell_angle_gamma 90.000000
_cell_volume 2317.653977
_symmetry_space_group_name_H-M "C 2/C"
_symmetry_group_IT_number 15
_symmetry_cell_setting 'monoclinic'
loop_
_space_group_symop_operation_xyz
x,y,z
-x,y,1/2-z
-x,-y,-z
x,-y,1/2+z
1/2+x,1/2+y,z
1/2-x,1/2+y,1/2-z
1/2-x,1/2-y,-z
1/2+x,1/2-y,1/2+z
loop_
_atom_site_type_symbol
_atom_site_label
_atom_site_fract_x
_atom_site_fract_y
_atom_site_fract_z
Si Si1 0.714344 0.884485 0.153281
Si Si2 0.686593 0.527239 0.844467
Si Si3 0.500000 0.858640 0.250000
Si Si4 0.590880 0.240737 0.719249
Si Si5 0.000000 0.833910 0.750000
Si Si6 0.000000 0.705136 0.250000
Si Si7 0.500000 0.506888 0.750000
Si Si8 0.913575 0.446465 0.316708
O O1 0.723581 0.922399 0.033821
O O2 0.633280 0.916864 0.125811
O O3 0.863387 0.867796 0.479783
O O4 0.630922 0.831815 0.966207
O O5 0.614556 0.535682 0.864408
O O6 0.578017 0.524218 0.517635
O O7 0.772928 0.472282 0.998476
O O8 0.425332 0.812300 0.211637
O O9 0.492601 0.904578 0.362034
O O10 0.522178 0.292938 0.661354
O O11 0.529171 0.234669 0.449907
O O12 0.750000 0.250000 0.000000
O O13 0.000000 0.500000 0.500000
#
# Coordination Sequence:
#
# PCOD9294325 Si02
#       8
#     8   8   4   8   4   4   4   8
#     4  12  24  43  71 104 145 186 240 296 362 425
#     4  11  23  42  65  95 147 186 237 283 343 420
#     4  11  24  43  73  98 146 187 239 293 368 426
#     4  11  24  50  72 104 141 183 240 311 379 436
#     4  11  25  46  74  99 139 188 236 314 372 420
#     4  12  24  45  77 101 137 178 240 292 376 444
#     4  10  23  40  60  92 132 199 233 279 340 408
#     4  12  24  42  67 108 146 193 237 294 352 431
#
# _framework density 20.710598000000001
#
# number of rings (size 3 to 8) (size 9 to 14) (size 15 to 20)
#    0.000    0.667    5.000    2.500    2.333    0.667 
#    0.000    0.833    0.000    0.000    0.000    0.000 
#    0.000    0.000    0.000    0.000    0.000    0.000 
#
# Total GULP energy -133676.373879 kJ/mol
# GULP energy per Si atom -5569.848912 kJ/mol
# Density = 2.066346 g / cm^3
# Si number density = 20.710598 Si / 1000 Ang^3
#
#
#
# Elastic Constant Matrix: (Units=GPa)
#
#
# Indices 1 2 3 4 5 6 
#
# 1 175.6417 68.9234 53.2775 0.0000 -21.4006 0.0000
# 2 68.9234 109.9043 33.6697 0.0000 -11.7665 0.0000
# 3 53.2775 33.6697 107.6613 0.0000 -5.0818 0.0000
# 4 0.0000 0.0000 0.0000 29.3817 0.0000 -2.2541
# 5 -21.4006 -11.7665 -5.0818 0.0000 23.9034 0.0000
# 6 0.0000 0.0000 0.0000 -2.2541 0.0000 2.2927
#
#
#
# Elastic Compliance Matrix: (Units=1/GPa)
#
#
# Indices 1 2 3 4 5 6 
#
# 1 0.008795 -0.004087 -0.002826 0.000000 0.005262 0.000000
# 2 -0.004087 0.012425 -0.001765 0.000000 0.002082 0.000000
# 3 -0.002826 -0.001765 0.011191 0.000000 -0.001020 0.000000
# 4 0.000000 0.000000 0.000000 0.036811 0.000000 0.036192
# 5 0.005262 0.002082 -0.001020 0.000000 0.047354 0.000000
# 6 0.000000 0.000000 0.000000 0.036192 0.000000 0.471757
#
#
# Mechanical properties :
#
#
# Convention : Reuss Voigt Hill
#
# Bulk Modulus (GPa) = 66.42033 78.32761 72.37397
# Shear Modulus (GPa) = 8.18721 26.93801 17.56261
#
# Velocity S-wave (km/s) = 1.99041 3.61042 2.91521
# Velocity P-wave (km/s) = 6.11740 7.43521 6.80826
#
# Compressibility (1/GPa) = 0.01505563
#
# Stress axis : x y z
#
# Youngs Moduli (GPa) = 113.69553 80.48032 89.35884
#
# Poissons Ratio (x) = 0.32890 0.25254
# Poissons Ratio (y) = 0.46463 0.15774
# Poissons Ratio (z) = 0.32131 0.14207
#
# Static dielectric constant tensor:
#      x y z
#    x 1.800990 0.000000 -0.065110 
#    y 0.000000 1.729100 0.000000 
#    z -0.065110 0.000000 2.025390 
# 
# From -- ./inp_files/59189.got.cif
#   From: 2010.05.17/outbox.cif.g08.bks.cpg/sg15_30_cif.got.tgz:59189.got - 2010.06.03 18:47:42.
