data_PCOD9294128
_publ_section_title
;
Structure prediction by ZEFSAII (Michael W. Deem and Ramdas Pophale) SiO2 
 PCOD9294128
Probable space group: C 2/C
;
_chemical_formula_sum "Si O2"
_cell_formula_units_Z 40
_cell_length_a 11.198040
_cell_length_b 8.559672
_cell_length_c 18.346536
_cell_angle_alpha 90.000000
_cell_angle_beta 94.428177
_cell_angle_gamma 90.000000
_cell_volume 1753.294478
_symmetry_space_group_name_H-M "C 2/C"
_symmetry_group_IT_number 15
_symmetry_cell_setting 'monoclinic'
loop_
_space_group_symop_operation_xyz
x,y,z
-x,y,1/2-z
-x,-y,-z
x,-y,1/2+z
1/2+x,1/2+y,z
1/2-x,1/2+y,1/2-z
1/2-x,1/2-y,-z
1/2+x,1/2-y,1/2+z
loop_
_atom_site_type_symbol
_atom_site_label
_atom_site_fract_x
_atom_site_fract_y
_atom_site_fract_z
Si Si1 0.389528 0.885621 0.514527
Si Si2 0.757303 0.977275 0.849030
Si Si3 0.225907 0.058395 0.414277
Si Si4 0.085894 0.838904 0.048365
Si Si5 0.358314 0.282991 0.729010
O O1 0.452422 0.722243 0.533208
O O2 0.500000 0.000000 0.500000
O O3 0.324053 0.942489 0.584364
O O4 0.296183 0.903143 0.443605
O O5 0.883559 0.036552 0.888363
O O6 0.692169 0.118922 0.803473
O O7 0.785270 0.836142 0.796667
O O8 0.132097 0.104494 0.472419
O O9 0.328331 0.193412 0.425413
O O10 0.168544 0.083397 0.333133
O O11 0.500000 0.271467 0.750000
#
# Coordination Sequence:
#
# PCOD9294128 Si02
#       5
#     8   8   8   8   8
#     4   9  16  33  64  91 113 152 204 255 299 343
#     4  10  23  39  59  90 122 159 204 243 298 368
#     4   8  16  32  55  85 115 151 199 244 291 353
#     4   8  15  32  59  86 114 150 197 251 295 338
#     4  11  24  40  58  86 127 162 194 244 302 360
#
# _framework density 22.814194000000001
#
# number of rings (size 3 to 8) (size 9 to 14) (size 15 to 20)
#    0.000    2.800    0.000    3.600    0.000    8.000 
#    0.000    4.000    0.000   15.600    0.000    0.000 
#    0.000    0.000    0.000    0.000    0.000    0.000 
#
# Total GULP energy -111815.827692 kJ/mol
# GULP energy per Si atom -5590.791385 kJ/mol
# Density = 2.276227 g / cm^3
# Si number density = 22.814194 Si / 1000 Ang^3
#
#
#
# Elastic Constant Matrix: (Units=GPa)
#
#
# Indices 1 2 3 4 5 6 
#
# 1 123.3736 42.3073 32.9386 0.0000 10.3208 0.0000
# 2 42.3073 31.5213 17.6081 0.0000 4.7291 0.0000
# 3 32.9386 17.6081 93.7774 0.0000 -3.4206 0.0000
# 4 0.0000 0.0000 0.0000 17.2193 0.0000 6.9542
# 5 10.3208 4.7291 -3.4206 0.0000 32.8591 0.0000
# 6 0.0000 0.0000 0.0000 6.9542 0.0000 38.3204
#
#
#
# Elastic Compliance Matrix: (Units=1/GPa)
#
#
# Indices 1 2 3 4 5 6 
#
# 1 0.015414 -0.019304 -0.001872 0.000000 -0.002258 0.000000
# 2 -0.019304 0.060760 -0.004744 0.000000 -0.003175 0.000000
# 3 -0.001872 -0.004744 0.012305 0.000000 0.002552 0.000000
# 4 0.000000 0.000000 0.000000 0.062667 0.000000 -0.011373
# 5 -0.002258 -0.003175 0.002552 0.000000 0.031865 0.000000
# 6 0.000000 0.000000 0.000000 -0.011373 0.000000 0.028160
#
#
# Mechanical properties :
#
#
# Convention : Reuss Voigt Hill
#
# Bulk Modulus (GPa) = 27.29293 48.26449 37.77871
# Shear Modulus (GPa) = 18.16710 28.06765 23.11738
#
# Velocity S-wave (km/s) = 2.82495 3.51133 3.18667
# Velocity P-wave (km/s) = 4.75706 6.13520 5.48954
#
# Compressibility (1/GPa) = 0.03663953
#
# Stress axis : x y z
#
# Youngs Moduli (GPa) = 64.87738 16.45813 81.26876
#
# Poissons Ratio (x) = 0.31770 0.15211
# Poissons Ratio (y) = 1.25237 0.38556
# Poissons Ratio (z) = 0.12143 0.07808
#
# Static dielectric constant tensor:
#      x y z
#    x 1.831410 0.000000 0.037640 
#    y 0.000000 1.946010 0.000000 
#    z 0.037640 0.000000 1.826210 
# 
# From -- ./inp_files/195081.got.cif
#   From: 2010.05.17/outbox.cif.g08.bks.cpg/sg15_98_cif.got.tgz:195081.got - 2010.06.03 18:47:42.
