data_PCOD9294406
_publ_section_title
;
Structure prediction by ZEFSAII (Michael W. Deem and Ramdas Pophale) SiO2 
 PCOD9294406
Probable space group: C 2/C
;
_chemical_formula_sum "Si O2"
_cell_formula_units_Z 56
_cell_length_a 16.279746
_cell_length_b 21.026920
_cell_length_c 19.326439
_cell_angle_alpha 90.000000
_cell_angle_beta 155.729410
_cell_angle_gamma 90.000000
_cell_volume 2719.355965
_symmetry_space_group_name_H-M "C 2/C"
_symmetry_group_IT_number 15
_symmetry_cell_setting 'monoclinic'
loop_
_space_group_symop_operation_xyz
x,y,z
-x,y,1/2-z
-x,-y,-z
x,-y,1/2+z
1/2+x,1/2+y,z
1/2-x,1/2+y,1/2-z
1/2-x,1/2-y,-z
1/2+x,1/2-y,1/2+z
loop_
_atom_site_type_symbol
_atom_site_label
_atom_site_fract_x
_atom_site_fract_y
_atom_site_fract_z
Si Si1 0.593457 0.513764 0.398190
Si Si2 0.607316 0.848241 0.194394
Si Si3 0.188971 0.606195 0.496426
Si Si4 0.500000 0.286942 0.250000
Si Si5 0.149210 0.311265 0.752831
Si Si6 0.798324 0.456849 0.343851
Si Si7 0.000000 0.585865 0.750000
Si Si8 0.051638 0.247284 0.534446
O O1 0.500000 0.535734 0.250000
O O2 0.704874 0.447951 0.465292
O O3 0.402758 0.499853 0.301697
O O4 0.779814 0.551591 0.575757
O O5 0.689669 0.907121 0.210689
O O6 0.499404 0.876613 0.177555
O O7 0.768846 0.798374 0.346326
O O8 0.485588 0.800664 0.051324
O O9 0.320653 0.668851 0.586187
O O10 0.204302 0.584763 0.587909
O O11 0.958709 0.624280 0.306932
O O12 0.415746 0.243215 0.244796
O O13 0.072735 0.288965 0.619575
O O14 0.382740 0.304702 0.923166
O O15 0.000000 0.500000 0.500000
#
# Coordination Sequence:
#
# PCOD9294406 Si02
#       8
#     8   8   8   4   8   8   4   8
#     4  10  24  45  68 101 140 181 226 285 356 419
#     4  11  24  46  69 100 136 173 234 294 345 421
#     4  11  20  37  60  93 137 176 211 267 344 414
#     4  12  20  33  58  92 137 180 204 266 328 412
#     4  11  21  35  59  98 133 180 219 261 341 419
#     4  11  22  42  74  97 137 189 226 284 356 415
#     4  12  28  49  70 102 133 176 252 306 342 420
#     4  10  23  40  64  95 134 178 227 280 342 417
#
# _framework density 20.593112000000001
#
# number of rings (size 3 to 8) (size 9 to 14) (size 15 to 20)
#    0.000    1.143    5.000    3.000    0.000    4.000 
#    5.143    0.000    0.000    0.000    0.000    0.000 
#    0.000    0.000    0.000    0.000    0.000    0.000 
#
# Total GULP energy -156085.961081 kJ/mol
# GULP energy per Si atom -5574.498610 kJ/mol
# Density = 2.054624 g / cm^3
# Si number density = 20.593112 Si / 1000 Ang^3
#
#
#
# Elastic Constant Matrix: (Units=GPa)
#
#
# Indices 1 2 3 4 5 6 
#
# 1 108.1334 34.6102 26.8596 0.0095 7.4225 -0.0209
# 2 34.6102 47.6249 36.3890 0.0441 4.3846 -0.0880
# 3 26.8596 36.3890 87.9687 0.1191 1.7366 -0.1020
# 4 0.0095 0.0441 0.1191 -23.0057 -0.0257 21.3572
# 5 7.4225 4.3846 1.7366 -0.0257 26.4376 0.0303
# 6 -0.0209 -0.0880 -0.1020 21.3572 0.0303 -8.4728
#
#
#
# Elastic Compliance Matrix: (Units=1/GPa)
#
#
# Indices 1 2 3 4 5 6 
#
# 1 0.012153 -0.008544 -0.000137 -0.000030 -0.001986 -0.000021
# 2 -0.008544 0.037196 -0.012720 0.000150 -0.002934 0.000156
# 3 -0.000137 -0.012720 0.016650 -0.000001 0.001054 -0.000066
# 4 -0.000030 0.000150 -0.000001 0.032438 -0.000079 0.081765
# 5 -0.001986 -0.002934 0.001054 -0.000079 0.038800 -0.000037
# 6 -0.000021 0.000156 -0.000066 0.081765 -0.000037 0.088076
#
#
# Mechanical properties :
#
#
# Convention : Reuss Voigt Hill
#
# Bulk Modulus (GPa) = 43.10889 48.82717 45.96803
# Shear Modulus (GPa) = 18.12595 8.71635 13.42115
#
# Velocity S-wave (km/s) = 2.97003 2.05957 2.55567
# Velocity P-wave (km/s) = 5.72193 5.42381 5.57486
#
# Compressibility (1/GPa) = 0.02319707
#
# Stress axis : x y z
#
# Youngs Moduli (GPa) = 82.28431 26.88471 60.05936
#
# Poissons Ratio (x) = 0.22971 0.00823
# Poissons Ratio (y) = 0.70307 0.76393
# Poissons Ratio (z) = 0.01127 0.34196
#
# Static dielectric constant tensor:
#      x y z
#    x 1.695490 0.000000 0.015780 
#    y 0.000000 1.723310 -0.000070 
#    z 0.015780 -0.000070 1.813500 
# 
# From -- ./inp_files/67160.got.cif
#   From: 2010.05.17/outbox.cif.g08.bks.cpg/sg15_34_cif.got.tgz:67160.got - 2010.06.03 18:47:42.
