data_PCOD9294732
_publ_section_title
;
Structure prediction by ZEFSAII (Michael W. Deem and Ramdas Pophale) SiO2 
 PCOD9294732
Probable space group: C 2/C
;
_chemical_formula_sum "Si O2"
_cell_formula_units_Z 56
_cell_length_a 21.590741
_cell_length_b 9.299266
_cell_length_c 12.233352
_cell_angle_alpha 90.000000
_cell_angle_beta 93.721661
_cell_angle_gamma 90.000000
_cell_volume 2451.008750
_symmetry_space_group_name_H-M "C 2/C"
_symmetry_group_IT_number 15
_symmetry_cell_setting 'monoclinic'
loop_
_space_group_symop_operation_xyz
x,y,z
-x,y,1/2-z
-x,-y,-z
x,-y,1/2+z
1/2+x,1/2+y,z
1/2-x,1/2+y,1/2-z
1/2-x,1/2-y,-z
1/2+x,1/2-y,1/2+z
loop_
_atom_site_type_symbol
_atom_site_label
_atom_site_fract_x
_atom_site_fract_y
_atom_site_fract_z
Si Si1 0.508369 0.233580 0.127265
Si Si2 0.377059 0.960095 0.859421
Si Si3 0.390839 0.426891 0.473756
Si Si4 0.115646 0.269354 0.015397
Si Si5 0.724076 0.450020 0.194864
Si Si6 0.184075 0.299097 0.443940
Si Si7 0.795119 0.706567 0.166437
O O1 0.500000 0.290690 0.250000
O O2 0.553312 0.097181 0.141781
O O3 0.546502 0.351091 0.060396
O O4 0.444787 0.187162 0.062923
O O5 0.339696 0.874121 0.760470
O O6 0.348955 0.900576 0.970915
O O7 0.379242 0.131986 0.876349
O O8 0.394188 0.597652 0.480965
O O9 0.336505 0.402566 0.378375
O O10 0.362097 0.337139 0.572992
O O11 0.175999 0.301112 0.948988
O O12 0.788723 0.385383 0.155104
O O13 0.732145 0.618776 0.179458
O O14 0.714883 0.374476 0.309110
O O15 0.250000 0.250000 0.500000
#
# Coordination Sequence:
#
# PCOD9294732 Si02
#       7
#     8   8   8   8   8   8   8
#     4  11  21  46  70  89 130 172 217 269 336 387
#     4  11  22  42  63  92 132 169 216 267 328 384
#     4  10  23  41  65  92 126 173 212 272 324 390
#     4  12  25  40  67 101 125 172 229 267 322 389
#     4  11  23  40  61  95 133 173 213 260 329 387
#     4   9  17  39  60  80 126 172 200 249 327 377
#     4  12  25  40  66  99 133 176 213 273 325 394
#
# _framework density 22.847735
#
# number of rings (size 3 to 8) (size 9 to 14) (size 15 to 20)
#    0.000    1.143    7.143    0.857    4.000    0.571 
#    0.000    0.714    0.000    0.000    0.000    0.000 
#    0.000    0.000    0.000    0.000    0.000    0.000 
#
# Total GULP energy -156199.459401 kJ/mol
# GULP energy per Si atom -5578.552121 kJ/mol
# Density = 2.279573 g / cm^3
# Si number density = 22.847735 Si / 1000 Ang^3
#
#
#
# Elastic Constant Matrix: (Units=GPa)
#
#
# Indices 1 2 3 4 5 6 
#
# 1 76.2543 0.4733 6.0828 0.0000 -3.9676 0.0000
# 2 0.4733 108.5774 5.3644 0.0000 -17.7823 0.0000
# 3 6.0828 5.3644 30.1938 0.0000 -5.7570 0.0000
# 4 0.0000 0.0000 0.0000 22.7573 0.0000 3.4596
# 5 -3.9676 -17.7823 -5.7570 0.0000 27.2575 0.0000
# 6 0.0000 0.0000 0.0000 3.4596 0.0000 24.5224
#
#
#
# Elastic Compliance Matrix: (Units=1/GPa)
#
#
# Indices 1 2 3 4 5 6 
#
# 1 0.013393 0.000333 -0.002442 0.000000 0.001651 0.000000
# 2 0.000333 0.010330 -0.000634 0.000000 0.006653 0.000000
# 3 -0.002442 -0.000634 0.034986 0.000000 0.006621 0.000000
# 4 0.000000 0.000000 0.000000 0.044905 0.000000 -0.006335
# 5 0.001651 0.006653 0.006621 0.000000 0.042666 0.000000
# 6 0.000000 0.000000 0.000000 -0.006335 0.000000 0.041673
#
#
# Mechanical properties :
#
#
# Convention : Reuss Voigt Hill
#
# Bulk Modulus (GPa) = 18.78933 26.54072 22.66503
# Shear Modulus (GPa) = 23.67647 28.44777 26.06212
#
# Velocity S-wave (km/s) = 3.22261 3.53243 3.38107
# Velocity P-wave (km/s) = 4.69984 5.31780 5.01834
#
# Compressibility (1/GPa) = 0.05322168
#
# Stress axis : x y z
#
# Youngs Moduli (GPa) = 74.66777 96.80968 28.58256
#
# Poissons Ratio (x) = -0.03220 0.06981
# Poissons Ratio (y) = -0.02484 0.01811
# Poissons Ratio (z) = 0.18237 0.06134
#
# Static dielectric constant tensor:
#      x y z
#    x 1.844460 0.000000 0.032750 
#    y 0.000000 1.984730 0.000000 
#    z 0.032750 0.000000 1.900510 
# 
# From -- ./inp_files/166671.got.cif
#   From: 2010.05.17/outbox.cif.g08.bks.cpg/sg15_84_cif.got.tgz:166671.got - 2010.06.03 18:47:42.
