data_PCOD9294627
_publ_section_title
;
Structure prediction by ZEFSAII (Michael W. Deem and Ramdas Pophale) SiO2 
 PCOD9294627
Probable space group: C 2/C
;
_chemical_formula_sum "Si O2"
_cell_formula_units_Z 48
_cell_length_a 13.152240
_cell_length_b 5.047822
_cell_length_c 27.205515
_cell_angle_alpha 90.000000
_cell_angle_beta 97.719969
_cell_angle_gamma 90.000000
_cell_volume 1789.808263
_symmetry_space_group_name_H-M "C 2/C"
_symmetry_group_IT_number 15
_symmetry_cell_setting 'monoclinic'
loop_
_space_group_symop_operation_xyz
x,y,z
-x,y,1/2-z
-x,-y,-z
x,-y,1/2+z
1/2+x,1/2+y,z
1/2-x,1/2+y,1/2-z
1/2-x,1/2-y,-z
1/2+x,1/2-y,1/2+z
loop_
_atom_site_type_symbol
_atom_site_label
_atom_site_fract_x
_atom_site_fract_y
_atom_site_fract_z
Si Si1 0.985480 0.718449 0.692344
Si Si2 0.060487 0.078697 0.897618
Si Si3 0.170533 0.556065 0.949893
Si Si4 0.090424 0.822361 0.030356
Si Si5 0.818883 0.363576 0.810694
Si Si6 0.211905 0.637627 0.308863
O O1 0.921786 0.532759 0.819139
O O2 0.888826 0.524090 0.684760
O O3 0.000000 0.802663 0.750000
O O4 0.971831 0.971999 0.657424
O O5 0.958112 0.189053 0.918795
O O6 0.138605 0.314657 0.913882
O O7 0.118789 0.822029 0.924642
O O8 0.115083 0.556293 0.000194
O O9 0.293667 0.561020 0.962026
O O10 0.000000 0.000000 0.000000
O O11 0.795112 0.332119 0.750843
O O12 0.801488 0.068771 0.828601
O O13 0.736565 0.568168 0.828473
#
# Coordination Sequence:
#
# PCOD9294627 Si02
#       6
#     8   8   8   8   8   8
#     4  10  23  41  62  89 126 173 220 262 307 365
#     4  11  24  40  62  95 130 167 211 259 314 374
#     4  10  23  42  66  96 129 162 203 261 323 383
#     4   9  21  42  70  98 128 163 204 256 322 392
#     4   9  19  36  56  78 107 150 201 254 303 350
#     4   9  19  35  55  79 108 146 200 257 305 348
#
# _framework density 26.818515999999999
#
# number of rings (size 3 to 8) (size 9 to 14) (size 15 to 20)
#    0.000    2.333    0.000    0.500    0.000   15.333 
#    0.000   10.833    0.000    0.000    0.000    0.000 
#    0.000    0.000    0.000    0.000    0.000    0.000 
#
# Total GULP energy -134322.651229 kJ/mol
# GULP energy per Si atom -5596.777135 kJ/mol
# Density = 2.675748 g / cm^3
# Si number density = 26.818516 Si / 1000 Ang^3
#
#
#
# Elastic Constant Matrix: (Units=GPa)
#
#
# Indices 1 2 3 4 5 6 
#
# 1 173.9165 17.1629 28.3256 0.0000 -0.2664 0.0000
# 2 17.1629 139.8372 7.2790 0.0000 -2.9496 0.0000
# 3 28.3256 7.2790 80.9905 0.0000 -12.3906 0.0000
# 4 0.0000 0.0000 0.0000 6.0279 0.0000 -0.9840
# 5 -0.2664 -2.9496 -12.3906 0.0000 22.4421 0.0000
# 6 0.0000 0.0000 0.0000 -0.9840 0.0000 32.6484
#
#
#
# Elastic Compliance Matrix: (Units=1/GPa)
#
#
# Indices 1 2 3 4 5 6 
#
# 1 0.006188 -0.000667 -0.002301 0.000000 -0.001285 0.000000
# 2 -0.000667 0.007265 -0.000300 0.000000 0.000781 0.000000
# 3 -0.002301 -0.000300 0.014384 0.000000 0.007875 0.000000
# 4 0.000000 0.000000 0.000000 0.166715 0.000000 0.005025
# 5 -0.001285 0.000781 0.007875 0.000000 0.048994 0.000000
# 6 0.000000 0.000000 0.000000 0.005025 0.000000 0.030781
#
#
# Mechanical properties :
#
#
# Convention : Reuss Voigt Hill
#
# Bulk Modulus (GPa) = 46.94589 55.58657 51.26623
# Shear Modulus (GPa) = 17.36329 35.02211 26.19270
#
# Velocity S-wave (km/s) = 2.54724 3.61763 3.12855
# Velocity P-wave (km/s) = 5.11803 6.18237 5.67520
#
# Compressibility (1/GPa) = 0.02130112
#
# Stress axis : x y z
#
# Youngs Moduli (GPa) = 161.59052 137.64388 69.52382
#
# Poissons Ratio (x) = 0.09179 0.15997
# Poissons Ratio (y) = 0.10776 0.02087
# Poissons Ratio (z) = 0.37181 0.04132
#
# Static dielectric constant tensor:
#      x y z
#    x 2.168900 0.000000 -0.062190 
#    y 0.000000 2.029750 0.000000 
#    z -0.062190 0.000000 2.301930 
# 
# From -- ./inp_files/314640.got.cif
#   From: 2010.05.17/outbox.cif.g08.bks.cpg/sg15_158_cif.got.tgz:314640.got - 2010.06.03 18:47:42.
