data_PCOD9294840
_publ_section_title
;
Structure prediction by ZEFSAII (Michael W. Deem and Ramdas Pophale) SiO2 
 PCOD9294840
Probable space group: C 2/C
;
_chemical_formula_sum "Si O2"
_cell_formula_units_Z 64
_cell_length_a 14.415524
_cell_length_b 16.489096
_cell_length_c 16.632693
_cell_angle_alpha 90.000000
_cell_angle_beta 51.949587
_cell_angle_gamma 90.000000
_cell_volume 3113.315809
_symmetry_space_group_name_H-M "C 2/C"
_symmetry_group_IT_number 15
_symmetry_cell_setting 'monoclinic'
loop_
_space_group_symop_operation_xyz
x,y,z
-x,y,1/2-z
-x,-y,-z
x,-y,1/2+z
1/2+x,1/2+y,z
1/2-x,1/2+y,1/2-z
1/2-x,1/2-y,-z
1/2+x,1/2-y,1/2+z
loop_
_atom_site_type_symbol
_atom_site_label
_atom_site_fract_x
_atom_site_fract_y
_atom_site_fract_z
Si Si1 0.627930 0.411663 0.437350
Si Si2 0.231013 0.773315 0.833636
Si Si3 0.718556 0.139956 0.351356
Si Si4 0.885047 0.095218 0.999879
Si Si5 0.991608 0.333390 0.085825
Si Si6 0.137427 0.133651 0.666693
Si Si7 0.866913 0.796643 0.911739
Si Si8 0.700104 0.041640 0.792406
O O1 0.612476 0.501068 0.481539
O O2 0.522590 0.381863 0.435669
O O3 0.616281 0.355828 0.521670
O O4 0.742791 0.423880 0.320774
O O5 0.270607 0.790671 0.721760
O O6 0.114264 0.717625 0.897535
O O7 0.331494 0.726023 0.827861
O O8 0.191643 0.856705 0.894791
O O9 0.602479 0.152132 0.468013
O O10 0.832458 0.153603 0.349514
O O11 0.708079 0.053879 0.310049
O O12 0.834701 0.114661 0.940110
O O13 0.930625 0.419749 0.136874
O O14 0.034881 0.274383 0.135526
O O15 0.218064 0.080524 0.682004
O O16 0.000000 0.115637 0.750000
O O17 0.750000 0.750000 0.000000
#
# Coordination Sequence:
#
# PCOD9294840 Si02
#       8
#     8   8   8   8   8   8   8   8
#     4  11  22  41  67  96 136 166 221 273 337 395
#     4  11  24  41  68  95 127 181 217 278 333 404
#     4  11  24  46  67  99 136 176 232 272 347 405
#     4  11  22  42  63  96 132 169 217 276 329 389
#     4  10  24  41  67  99 135 177 218 281 341 403
#     4  11  24  39  67  95 132 170 225 271 331 400
#     4  10  23  41  67  94 135 171 218 286 326 404
#     4  11  23  44  70  96 134 182 219 279 342 407
#
# _framework density 20.556861000000001
#
# number of rings (size 3 to 8) (size 9 to 14) (size 15 to 20)
#    0.000    1.250    3.750    1.500    8.750    0.500 
#    4.500    0.000    0.000    0.000    0.000    0.000 
#    0.000    0.000    0.000    0.000    0.000    0.000 
#
# Total GULP energy -178455.110400 kJ/mol
# GULP energy per Si atom -5576.722200 kJ/mol
# Density = 2.051007 g / cm^3
# Si number density = 20.556861 Si / 1000 Ang^3
#
#
#
# Elastic Constant Matrix: (Units=GPa)
#
#
# Indices 1 2 3 4 5 6 
#
# 1 69.8936 16.0639 29.5365 0.0000 7.6741 0.0000
# 2 16.0639 86.4103 7.8298 0.0000 7.5526 0.0000
# 3 29.5365 7.8298 89.9899 0.0000 5.5137 0.0000
# 4 0.0000 0.0000 0.0000 25.1864 0.0000 -3.7856
# 5 7.6741 7.5526 5.5137 0.0000 31.6781 0.0000
# 6 0.0000 0.0000 0.0000 -3.7856 0.0000 33.6178
#
#
#
# Elastic Compliance Matrix: (Units=1/GPa)
#
#
# Indices 1 2 3 4 5 6 
#
# 1 0.017439 -0.002523 -0.005339 0.000000 -0.002694 0.000000
# 2 -0.002523 0.012251 -0.000097 0.000000 -0.002293 0.000000
# 3 -0.005339 -0.000097 0.012931 0.000000 -0.000934 0.000000
# 4 0.000000 0.000000 0.000000 0.040387 0.000000 0.004548
# 5 -0.002694 -0.002293 -0.000934 0.000000 0.032929 0.000000
# 6 0.000000 0.000000 0.000000 0.004548 0.000000 0.030258
#
#
# Mechanical properties :
#
#
# Convention : Reuss Voigt Hill
#
# Bulk Modulus (GPa) = 37.45079 39.23936 38.34507
# Shear Modulus (GPa) = 29.23707 30.95405 30.09556
#
# Velocity S-wave (km/s) = 3.77537 3.88464 3.83040
# Velocity P-wave (km/s) = 6.10428 6.26500 6.18516
#
# Compressibility (1/GPa) = 0.02670171
#
# Stress axis : x y z
#
# Youngs Moduli (GPa) = 57.34123 81.62665 77.33623
#
# Poissons Ratio (x) = 0.20592 0.41293
# Poissons Ratio (y) = 0.14466 0.00753
# Poissons Ratio (z) = 0.30617 0.00795
#
# Static dielectric constant tensor:
#      x y z
#    x 1.715220 0.000000 -0.044720 
#    y 0.000000 1.773370 0.000000 
#    z -0.044720 0.000000 1.720470 
# 
# From -- ./inp_files/155482.got.cif
#   From: 2010.05.17/outbox.cif.g08.bks.cpg/sg15_78_cif.got.tgz:155482.got - 2010.06.03 18:47:42.
