data_PCOD9294303
_publ_section_title
;
Structure prediction by ZEFSAII (Michael W. Deem and Ramdas Pophale) SiO2 
 PCOD9294303
Probable space group: C 2/C
;
_chemical_formula_sum "Si O2"
_cell_formula_units_Z 64
_cell_length_a 22.827416
_cell_length_b 18.144726
_cell_length_c 23.262942
_cell_angle_alpha 90.000000
_cell_angle_beta 161.606216
_cell_angle_gamma 90.000000
_cell_volume 3040.427215
_symmetry_space_group_name_H-M "C 2/C"
_symmetry_group_IT_number 15
_symmetry_cell_setting 'monoclinic'
loop_
_space_group_symop_operation_xyz
x,y,z
-x,y,1/2-z
-x,-y,-z
x,-y,1/2+z
1/2+x,1/2+y,z
1/2-x,1/2+y,1/2-z
1/2-x,1/2-y,-z
1/2+x,1/2-y,1/2+z
loop_
_atom_site_type_symbol
_atom_site_label
_atom_site_fract_x
_atom_site_fract_y
_atom_site_fract_z
Si Si1 0.310178 0.642321 0.365311
Si Si2 0.772142 0.518936 0.371036
Si Si3 0.962483 0.294187 0.477865
Si Si4 0.690952 0.580027 0.683971
Si Si5 0.332795 0.816190 0.936503
Si Si6 0.656133 0.989726 0.783601
Si Si7 0.596174 0.564187 0.402478
Si Si8 0.964370 0.227981 0.150037
O O1 0.391237 0.724830 0.448078
O O2 0.471480 0.598741 0.480659
O O3 0.255754 0.589091 0.366727
O O4 0.114943 0.657514 0.152566
O O5 0.743322 0.473650 0.285959
O O6 0.845291 0.601121 0.427343
O O7 0.573508 0.533896 0.215867
O O8 0.935816 0.485715 0.564066
O O9 0.797890 0.345159 0.300980
O O10 0.069910 0.267343 0.520804
O O11 0.758787 0.543831 0.687472
O O12 0.127346 0.790830 0.757648
O O13 0.401956 0.805198 0.065838
O O14 0.723275 0.020612 0.907464
O O15 0.500000 0.558503 0.250000
O O16 0.646858 0.651030 0.457719
O O17 0.000000 0.237099 0.250000
#
# Coordination Sequence:
#
# PCOD9294303 Si02
#       8
#     8   8   8   8   8   8   8   8
#     4  12  25  38  63  91 131 168 202 251 322 380
#     4  11  23  42  63  95 127 167 215 263 311 383
#     4  12  24  39  59  98 131 162 205 258 310 400
#     4  12  24  40  61  95 133 166 210 258 317 393
#     4  11  23  37  58  83 122 166 210 263 303 361
#     4  12  24  39  68  92 126 176 207 261 328 374
#     4  10  25  44  62  91 128 170 225 272 309 366
#     4  10  23  40  57  81 121 170 221 268 305 342
#
# _framework density 21.049674
#
# number of rings (size 3 to 8) (size 9 to 14) (size 15 to 20)
#    0.000    0.750    5.000    2.625    7.000    0.500 
#    0.000    0.000    0.000    0.000    0.000    3.500 
#    0.000    0.000    0.000    0.000    0.000    0.000 
#
# Total GULP energy -178452.275695 kJ/mol
# GULP energy per Si atom -5576.633615 kJ/mol
# Density = 2.100176 g / cm^3
# Si number density = 21.049674 Si / 1000 Ang^3
#
#
#
# Elastic Constant Matrix: (Units=GPa)
#
#
# Indices 1 2 3 4 5 6 
#
# 1 61.6076 52.3199 10.8407 -0.0014 -18.4483 0.0014
# 2 52.3199 120.8275 38.8983 -0.0214 -22.1893 -0.0152
# 3 10.8407 38.8983 94.3836 -0.0091 -8.4853 0.0061
# 4 -0.0014 -0.0214 -0.0091 52.1820 -0.0009 -27.8000
# 5 -18.4483 -22.1893 -8.4853 -0.0009 31.5209 0.0038
# 6 0.0014 -0.0152 0.0061 -27.8000 0.0038 3.7557
#
#
#
# Elastic Compliance Matrix: (Units=1/GPa)
#
#
# Indices 1 2 3 4 5 6 
#
# 1 0.028091 -0.011194 0.002210 0.000014 0.009156 0.000032
# 2 -0.011194 0.015163 -0.004707 -0.000014 0.002856 -0.000037
# 3 0.002210 -0.004707 0.012399 0.000007 0.001318 0.000013
# 4 0.000014 -0.000014 0.000007 -0.006511 0.000005 -0.048192
# 5 0.009156 0.002856 0.001318 0.000005 0.039449 0.000006
# 6 0.000032 -0.000037 0.000013 -0.048192 0.000006 -0.090459
#
#
# Mechanical properties :
#
#
# Convention : Reuss Voigt Hill
#
# Bulk Modulus (GPa) = 35.37030 53.43740 44.40385
# Shear Modulus (GPa) = 143.11300 29.14238 86.12769
#
# Velocity S-wave (km/s) = 8.25444 3.72487 6.40353
# Velocity P-wave (km/s) = 10.37726 6.62880 8.70714
#
# Compressibility (1/GPa) = 0.02827230
#
# Stress axis : x y z
#
# Youngs Moduli (GPa) = 35.59887 65.95021 80.64848
#
# Poissons Ratio (x) = 0.73823 -0.17823
# Poissons Ratio (y) = 0.39848 0.37959
# Poissons Ratio (z) = -0.07867 0.31041
#
# Static dielectric constant tensor:
#      x y z
#    x 1.740810 0.000000 -0.002610 
#    y 0.000000 1.793740 -0.000040 
#    z -0.002610 -0.000040 1.985080 
# 
# From -- ./inp_files/282264.got.cif
#   From: 2010.05.17/outbox.cif.g08.bks.cpg/sg15_142_cif.got.tgz:282264.got - 2010.06.03 18:47:42.
