data_PCOD9294002
_publ_section_title
;
Structure prediction by ZEFSAII (Michael W. Deem and Ramdas Pophale) SiO2 
 PCOD9294002
Probable space group: C 2/C
;
_chemical_formula_sum "Si O2"
_cell_formula_units_Z 44
_cell_length_a 21.226666
_cell_length_b 13.499409
_cell_length_c 5.450869
_cell_angle_alpha 90.000000
_cell_angle_beta 85.859394
_cell_angle_gamma 90.000000
_cell_volume 1557.855730
_symmetry_space_group_name_H-M "C 2/C"
_symmetry_group_IT_number 15
_symmetry_cell_setting 'monoclinic'
loop_
_space_group_symop_operation_xyz
x,y,z
-x,y,1/2-z
-x,-y,-z
x,-y,1/2+z
1/2+x,1/2+y,z
1/2-x,1/2+y,1/2-z
1/2-x,1/2-y,-z
1/2+x,1/2-y,1/2+z
loop_
_atom_site_type_symbol
_atom_site_label
_atom_site_fract_x
_atom_site_fract_y
_atom_site_fract_z
Si Si1 0.568338 0.436202 0.151659
Si Si2 0.664489 0.278360 0.267235
Si Si3 0.621730 0.092041 0.007083
Si Si4 0.000000 0.399371 0.750000
Si Si5 0.748609 0.948621 0.265095
Si Si6 0.062009 0.741523 0.644397
O O1 0.500000 0.391579 0.250000
O O2 0.574923 0.506072 0.392295
O O3 0.619751 0.349968 0.120119
O O4 0.731074 0.333809 0.254760
O O5 0.626141 0.289462 0.531270
O O6 0.661913 0.164997 0.179557
O O7 0.672805 0.041745 0.814682
O O8 0.584615 0.171266 0.852690
O O9 0.560056 0.038259 0.136203
O O10 0.964330 0.326852 0.568857
O O11 0.771721 0.999456 0.510115
O O12 0.000000 0.801521 0.750000
#
# Coordination Sequence:
#
# PCOD9294002 Si02
#       6
#     8   8   8   4   8   8
#     4  10  23  38  56  91 138 180 217 263 333 408
#     4  11  24  40  71  99 137 183 240 285 344 406
#     4  10  23  43  73 104 136 179 237 297 351 416
#     4   8  18  40  66 108 134 166 220 294 360 410
#     4  12  30  50  70  97 145 193 238 289 355 421
#     4   9  20  36  68 104 138 166 224 297 352 407
#
# _framework density 28.243949000000001
#
# number of rings (size 3 to 8) (size 9 to 14) (size 15 to 20)
#    0.000    1.818    0.000    1.636   17.818    1.455 
#    0.000    0.909    0.000    0.000    0.000    0.000 
#    0.000    0.000    0.000    0.000    0.000    0.000 
#
# Total GULP energy -123097.030882 kJ/mol
# GULP energy per Si atom -5595.319586 kJ/mol
# Density = 2.817966 g / cm^3
# Si number density = 28.243949 Si / 1000 Ang^3
#
#
#
# Elastic Constant Matrix: (Units=GPa)
#
#
# Indices 1 2 3 4 5 6 
#
# 1 124.7403 19.3612 6.2841 0.0000 -35.8107 0.0000
# 2 19.3612 111.8470 29.5101 0.0000 -9.5016 0.0000
# 3 6.2841 29.5101 148.1193 0.0000 -10.1182 0.0000
# 4 0.0000 0.0000 0.0000 56.3552 0.0000 -13.4473
# 5 -35.8107 -9.5016 -10.1182 0.0000 31.3659 0.0000
# 6 0.0000 0.0000 0.0000 -13.4473 0.0000 29.7595
#
#
#
# Elastic Compliance Matrix: (Units=1/GPa)
#
#
# Indices 1 2 3 4 5 6 
#
# 1 0.012077 -0.001099 0.000640 0.000000 0.013662 0.000000
# 2 -0.001099 0.009702 -0.001811 0.000000 0.001100 0.000000
# 3 0.000640 -0.001811 0.007257 0.000000 0.002523 0.000000
# 4 0.000000 0.000000 0.000000 0.019889 0.000000 0.008987
# 5 0.013662 0.001100 0.002523 0.000000 0.048627 0.000000
# 6 0.000000 0.000000 0.000000 0.008987 0.000000 0.037664
#
#
# Mechanical properties :
#
#
# Convention : Reuss Voigt Hill
#
# Bulk Modulus (GPa) = 40.82238 55.00194 47.91216
# Shear Modulus (GPa) = 33.80146 45.46620 39.63383
#
# Velocity S-wave (km/s) = 3.46319 4.01654 3.75009
# Velocity P-wave (km/s) = 5.52055 6.40518 5.97925
#
# Compressibility (1/GPa) = 0.02449637
#
# Stress axis : x y z
#
# Youngs Moduli (GPa) = 82.80129 103.06787 137.79102
#
# Poissons Ratio (x) = 0.11325 -0.08816
# Poissons Ratio (y) = 0.09098 0.24957
# Poissons Ratio (z) = -0.05298 0.18668
#
# Static dielectric constant tensor:
#      x y z
#    x 2.254060 0.000000 -0.025810 
#    y 0.000000 2.163830 0.000000 
#    z -0.025810 0.000000 2.428500 
# 
# From -- ./inp_files/12924.got.cif
#   From: 2010.05.17/outbox.cif.g08.bks.cpg/sg15_7_cif.got.tgz:12924.got - 2010.06.03 18:47:42.
