data_PCOD9294493
_publ_section_title
;
Structure prediction by ZEFSAII (Michael W. Deem and Ramdas Pophale) SiO2 
 PCOD9294493
Probable space group: C 2/C
;
_chemical_formula_sum "Si O2"
_cell_formula_units_Z 52
_cell_length_a 25.721892
_cell_length_b 18.251739
_cell_length_c 5.379280
_cell_angle_alpha 90.000000
_cell_angle_beta 117.731216
_cell_angle_gamma 90.000000
_cell_volume 2235.338997
_symmetry_space_group_name_H-M "C 2/C"
_symmetry_group_IT_number 15
_symmetry_cell_setting 'monoclinic'
loop_
_space_group_symop_operation_xyz
x,y,z
-x,y,1/2-z
-x,-y,-z
x,-y,1/2+z
1/2+x,1/2+y,z
1/2-x,1/2+y,1/2-z
1/2-x,1/2-y,-z
1/2+x,1/2-y,1/2+z
loop_
_atom_site_type_symbol
_atom_site_label
_atom_site_fract_x
_atom_site_fract_y
_atom_site_fract_z
Si Si1 0.570792 0.456656 0.888628
Si Si2 0.805661 0.202628 0.203096
Si Si3 0.108931 0.185590 0.706419
Si Si4 0.877581 0.542467 0.777368
Si Si5 0.735452 0.543199 0.486640
Si Si6 0.000000 0.786249 0.250000
Si Si7 0.086680 0.295444 0.277002
O O1 0.500000 0.448385 0.750000
O O2 0.587133 0.494840 0.666038
O O3 0.599100 0.376697 0.980628
O O4 0.826453 0.187301 0.533217
O O5 0.792642 0.122759 0.070122
O O6 0.860045 0.250988 0.231574
O O7 0.750000 0.250000 0.000000
O O8 0.094591 0.267026 0.575194
O O9 0.055299 0.167358 0.776029
O O10 0.893290 0.486785 0.587295
O O11 0.806607 0.551366 0.628549
O O12 0.905507 0.619868 0.763661
O O13 0.719368 0.499028 0.698267
O O14 0.027683 0.736535 0.527224
#
# Coordination Sequence:
#
# PCOD9294493 Si02
#       7
#     8   8   8   8   8   4   8
#     4  10  23  40  66  98 138 184 235 290 347 413
#     4  11  25  43  67 104 137 183 237 290 345 423
#     4  11  26  42  70  97 139 188 234 298 348 422
#     4  10  23  43  70 100 137 179 225 281 354 419
#     4  10  23  43  67  98 144 188 226 284 348 414
#     4  10  24  44  68  98 136 176 242 284 360 406
#     4  11  24  44  72 100 137 181 233 288 348 423
#
# _framework density 23.262689999999999
#
# number of rings (size 3 to 8) (size 9 to 14) (size 15 to 20)
#    0.000    1.538    1.538    1.385   14.000    3.077 
#    0.000    0.769    0.000    0.000    0.000    0.000 
#    0.000    0.000    0.000    0.000    0.000    0.000 
#
# Total GULP energy -145417.829332 kJ/mol
# GULP energy per Si atom -5592.993436 kJ/mol
# Density = 2.320974 g / cm^3
# Si number density = 23.262690 Si / 1000 Ang^3
#
#
#
# Elastic Constant Matrix: (Units=GPa)
#
#
# Indices 1 2 3 4 5 6 
#
# 1 55.9037 28.8052 45.3215 0.0000 -1.1844 0.0000
# 2 28.8052 132.8014 32.8866 0.0000 -3.6853 0.0000
# 3 45.3215 32.8866 119.3466 0.0000 3.6209 0.0000
# 4 0.0000 0.0000 0.0000 31.1429 0.0000 -4.2460
# 5 -1.1844 -3.6853 3.6209 0.0000 38.6292 0.0000
# 6 0.0000 0.0000 0.0000 -4.2460 0.0000 29.2562
#
#
#
# Elastic Compliance Matrix: (Units=1/GPa)
#
#
# Indices 1 2 3 4 5 6 
#
# 1 0.027440 -0.003566 -0.009480 0.000000 0.001390 0.000000
# 2 -0.003566 0.008582 -0.001035 0.000000 0.000806 0.000000
# 3 -0.009480 -0.001035 0.012311 0.000000 -0.001543 0.000000
# 4 0.000000 0.000000 0.000000 0.032758 0.000000 0.004754
# 5 0.001390 0.000806 -0.001543 0.000000 0.026151 0.000000
# 6 0.000000 0.000000 0.000000 0.004754 0.000000 0.034871
#
#
# Mechanical properties :
#
#
# Convention : Reuss Voigt Hill
#
# Bulk Modulus (GPa) = 49.57485 58.00871 53.79178
# Shear Modulus (GPa) = 28.24868 33.20819 30.72844
#
# Velocity S-wave (km/s) = 3.48851 3.78237 3.63841
# Velocity P-wave (km/s) = 6.13053 6.63819 6.38940
#
# Compressibility (1/GPa) = 0.02017152
#
# Stress axis : x y z
#
# Youngs Moduli (GPa) = 36.44305 116.52004 81.22805
#
# Poissons Ratio (x) = 0.41548 0.77003
# Poissons Ratio (y) = 0.12995 0.08409
# Poissons Ratio (z) = 0.34548 0.12063
#
# Static dielectric constant tensor:
#      x y z
#    x 1.923220 0.000000 -0.064790 
#    y 0.000000 1.814630 0.000000 
#    z -0.064790 0.000000 1.986400 
# 
# From -- ./inp_files/17238.got.cif
#   From: 2010.05.17/outbox.cif.g08.bks.cpg/sg15_9_cif.got.tgz:17238.got - 2010.06.03 18:47:42.
