data_PCOD9294649
_publ_section_title
;
Structure prediction by ZEFSAII (Michael W. Deem and Ramdas Pophale) SiO2 
 PCOD9294649
Probable space group: C 2/C
;
_chemical_formula_sum "Si O2"
_cell_formula_units_Z 60
_cell_length_a 25.378226
_cell_length_b 8.306793
_cell_length_c 15.786022
_cell_angle_alpha 90.000000
_cell_angle_beta 65.304178
_cell_angle_gamma 90.000000
_cell_volume 3023.505465
_symmetry_space_group_name_H-M "C 2/C"
_symmetry_group_IT_number 15
_symmetry_cell_setting 'monoclinic'
loop_
_space_group_symop_operation_xyz
x,y,z
-x,y,1/2-z
-x,-y,-z
x,-y,1/2+z
1/2+x,1/2+y,z
1/2-x,1/2+y,1/2-z
1/2-x,1/2-y,-z
1/2+x,1/2-y,1/2+z
loop_
_atom_site_type_symbol
_atom_site_label
_atom_site_fract_x
_atom_site_fract_y
_atom_site_fract_z
Si Si1 0.775699 0.433138 0.689070
Si Si2 0.831580 0.727754 0.741369
Si Si3 0.898151 0.168902 0.046728
Si Si4 0.875523 0.791699 0.069221
Si Si5 0.988391 0.353628 0.573760
Si Si6 0.500000 0.006044 0.750000
Si Si7 0.124658 0.362942 0.116508
Si Si8 0.699705 0.856899 0.491459
O O1 0.804462 0.554487 0.736484
O O2 0.713495 0.365482 0.755467
O O3 0.815653 0.276283 0.647113
O O4 0.774473 0.532965 0.601833
O O5 0.887850 0.751809 0.645832
O O6 0.844473 0.739345 0.831396
O O7 0.886338 0.980589 0.059496
O O8 0.849426 0.247023 0.019132
O O9 0.961316 0.221589 0.973550
O O10 0.926305 0.714438 0.090535
O O11 0.878609 0.722526 0.971860
O O12 0.000000 0.500000 0.500000
O O13 0.990236 0.408398 0.669744
O O14 0.440335 0.100757 0.808262
O O15 0.163797 0.523212 0.076802
O O16 0.750000 0.750000 0.500000
#
# Coordination Sequence:
#
# PCOD9294649 Si02
#       8
#     8   8   8   8   8   4   8   8
#     4  10  23  41  62  97 130 177 216 274 340 400
#     4  11  24  41  66 100 132 172 226 272 341 406
#     4  11  24  45  63  97 134 174 214 280 344 396
#     4  11  24  43  68  93 136 175 216 281 344 396
#     4  12  22  46  71  94 134 174 227 277 337 406
#     4  12  22  44  72  98 128 180 234 270 328 420
#     4  11  24  41  69  99 125 181 225 272 337 407
#     4  10  23  41  67  92 131 175 218 275 342 402
#
# _framework density 19.844515999999999
#
# number of rings (size 3 to 8) (size 9 to 14) (size 15 to 20)
#    0.000    1.067    2.667    4.400    7.467    1.067 
#    4.800    0.000    0.000    0.000    0.000    0.000 
#    0.000    0.000    0.000    0.000    0.000    0.000 
#
# Total GULP energy -167679.458739 kJ/mol
# GULP energy per Si atom -5589.315291 kJ/mol
# Density = 1.979935 g / cm^3
# Si number density = 19.844516 Si / 1000 Ang^3
#
#
#
# Elastic Constant Matrix: (Units=GPa)
#
#
# Indices 1 2 3 4 5 6 
#
# 1 59.7329 14.1552 32.0505 0.0000 9.8264 0.0000
# 2 14.1552 78.4645 6.0988 0.0000 11.4943 0.0001
# 3 32.0505 6.0988 76.9584 0.0000 11.7588 0.0000
# 4 0.0000 0.0000 0.0000 15.8409 0.0000 -7.7750
# 5 9.8264 11.4943 11.7588 0.0000 36.8861 0.0000
# 6 0.0000 0.0001 0.0000 -7.7750 0.0000 27.6337
#
#
#
# Elastic Compliance Matrix: (Units=1/GPa)
#
#
# Indices 1 2 3 4 5 6 
#
# 1 0.022563 -0.003056 -0.008811 0.000000 -0.002250 0.000000
# 2 -0.003056 0.013783 0.000749 0.000000 -0.003719 0.000000
# 3 -0.008811 0.000749 0.017115 0.000000 -0.003342 0.000000
# 4 0.000000 0.000000 0.000000 0.073242 0.000000 0.020607
# 5 -0.002250 -0.003719 -0.003342 0.000000 0.029934 0.000000
# 6 0.000000 0.000000 0.000000 0.020607 0.000000 0.041986
#
#
# Mechanical properties :
#
#
# Convention : Reuss Voigt Hill
#
# Bulk Modulus (GPa) = 32.02632 35.52941 33.77786
# Shear Modulus (GPa) = 21.62006 26.92890 24.27448
#
# Velocity S-wave (km/s) = 3.30430 3.68774 3.50127
# Velocity P-wave (km/s) = 5.54360 6.00627 5.77957
#
# Compressibility (1/GPa) = 0.03122432
#
# Stress axis : x y z
#
# Youngs Moduli (GPa) = 44.32036 72.55532 58.42922
#
# Poissons Ratio (x) = 0.22173 0.51481
# Poissons Ratio (y) = 0.13544 -0.04375
# Poissons Ratio (z) = 0.39050 -0.05433
#
# Static dielectric constant tensor:
#      x y z
#    x 1.684130 0.000000 0.003310 
#    y 0.000000 1.693040 0.000000 
#    z 0.003310 0.000000 1.717030 
# 
# From -- ./inp_files/172332.got.cif
#   From: 2010.05.17/outbox.cif.g08.bks.cpg/sg15_87_cif.got.tgz:172332.got - 2010.06.03 18:47:42.
