data_PCOD9294572
_publ_section_title
;
Structure prediction by ZEFSAII (Michael W. Deem and Ramdas Pophale) SiO2 
 PCOD9294572
Probable space group: C 2/C
;
_chemical_formula_sum "Si O2"
_cell_formula_units_Z 56
_cell_length_a 16.585329
_cell_length_b 13.852773
_cell_length_c 17.245532
_cell_angle_alpha 90.000000
_cell_angle_beta 42.489776
_cell_angle_gamma 90.000000
_cell_volume 2676.308436
_symmetry_space_group_name_H-M "C 2/C"
_symmetry_group_IT_number 15
_symmetry_cell_setting 'monoclinic'
loop_
_space_group_symop_operation_xyz
x,y,z
-x,y,1/2-z
-x,-y,-z
x,-y,1/2+z
1/2+x,1/2+y,z
1/2-x,1/2+y,1/2-z
1/2-x,1/2-y,-z
1/2+x,1/2-y,1/2+z
loop_
_atom_site_type_symbol
_atom_site_label
_atom_site_fract_x
_atom_site_fract_y
_atom_site_fract_z
Si Si1 0.704007 0.362834 0.253229
Si Si2 0.000000 0.708040 0.750000
Si Si3 0.965754 0.886550 0.508288
Si Si4 0.852449 0.219683 0.228399
Si Si5 0.000000 0.385757 0.750000
Si Si6 0.760161 0.715327 0.404070
Si Si7 0.677945 0.051822 0.345966
Si Si8 0.031878 0.463094 0.106228
O O1 0.574005 0.344200 0.380352
O O2 0.804942 0.325890 0.241302
O O3 0.746722 0.308671 0.145837
O O4 0.714244 0.476155 0.231664
O O5 0.100359 0.775506 0.717644
O O6 0.031030 0.635559 0.656943
O O7 0.949055 0.825761 0.600299
O O8 0.842234 0.861472 0.549553
O O9 0.000000 0.000000 0.500000
O O10 0.735718 0.155432 0.294943
O O11 0.106956 0.322969 0.707148
O O12 0.068223 0.454953 0.641423
O O13 0.750000 0.750000 0.500000
O O14 0.587539 0.012213 0.345389
O O15 0.613983 0.049536 0.473782
#
# Coordination Sequence:
#
# PCOD9294572 Si02
#       8
#     8   4   8   8   4   8   8   8
#     4  11  23  42  70  95 136 181 233 276 351 425
#     4  11  24  46  61 110 136 176 225 302 345 412
#     4  11  24  44  68  99 139 189 227 282 350 422
#     4  11  25  43  68  97 140 180 230 287 355 413
#     4  11  22  42  63  98 130 168 223 284 339 406
#     4  11  24  42  69 101 137 174 228 289 349 404
#     4  11  22  43  66  98 125 187 227 279 339 423
#     4  10  23  40  70  89 134 173 234 277 340 409
#
# _framework density 20.924344999999999
#
# number of rings (size 3 to 8) (size 9 to 14) (size 15 to 20)
#    0.000    1.143    2.857    3.429    2.000    2.857 
#    5.143    0.000    0.000    0.000    0.000    0.000 
#    0.000    0.000    0.000    0.000    0.000    0.000 
#
# Total GULP energy -156072.097221 kJ/mol
# GULP energy per Si atom -5574.003472 kJ/mol
# Density = 2.087672 g / cm^3
# Si number density = 20.924345 Si / 1000 Ang^3
#
#
#
# Elastic Constant Matrix: (Units=GPa)
#
#
# Indices 1 2 3 4 5 6 
#
# 1 109.5805 21.2157 36.5935 0.0000 3.1795 0.0000
# 2 21.2157 76.7933 20.0687 0.0000 -3.7367 0.0000
# 3 36.5935 20.0687 81.9608 0.0000 4.3497 0.0000
# 4 0.0000 0.0000 0.0000 14.5148 0.0000 -1.5737
# 5 3.1795 -3.7367 4.3497 0.0000 26.0585 0.0000
# 6 0.0000 0.0000 0.0000 -1.5737 0.0000 30.4705
#
#
#
# Elastic Compliance Matrix: (Units=1/GPa)
#
#
# Indices 1 2 3 4 5 6 
#
# 1 0.010991 -0.001933 -0.004387 0.000000 -0.000886 0.000000
# 2 -0.001933 0.014427 -0.002817 0.000000 0.002775 0.000000
# 3 -0.004387 -0.002817 0.014975 0.000000 -0.002368 0.000000
# 4 0.000000 0.000000 0.000000 0.069283 0.000000 0.003578
# 5 -0.000886 0.002775 -0.002368 0.000000 0.039276 0.000000
# 6 0.000000 0.000000 0.000000 0.003578 0.000000 0.033003
#
#
# Mechanical properties :
#
#
# Convention : Reuss Voigt Hill
#
# Bulk Modulus (GPa) = 45.20889 47.12116 46.16503
# Shear Modulus (GPa) = 24.08454 26.90587 25.49520
#
# Velocity S-wave (km/s) = 3.39636 3.58979 3.49441
# Velocity P-wave (km/s) = 6.08549 6.30482 6.19612
#
# Compressibility (1/GPa) = 0.02211954
#
# Stress axis : x y z
#
# Youngs Moduli (GPa) = 90.98700 69.31369 66.77840
#
# Poissons Ratio (x) = 0.13399 0.29294
# Poissons Ratio (y) = 0.17589 0.18810
# Poissons Ratio (z) = 0.39913 0.19524
#
# Static dielectric constant tensor:
#      x y z
#    x 1.787300 0.000000 -0.012910 
#    y 0.000000 1.796770 0.000000 
#    z -0.012910 0.000000 1.730980 
# 
# From -- ./inp_files/211219.got.cif
#   From: 2010.05.17/outbox.cif.g08.bks.cpg/sg15_106_cif.got.tgz:211219.got - 2010.06.03 18:47:42.
