data_PCOD9294179
_publ_section_title
;
Structure prediction by ZEFSAII (Michael W. Deem and Ramdas Pophale) SiO2 
 PCOD9294179
Probable space group: C 2/C
;
_chemical_formula_sum "Si O2"
_cell_formula_units_Z 40
_cell_length_a 17.548687
_cell_length_b 8.612292
_cell_length_c 14.869241
_cell_angle_alpha 90.000000
_cell_angle_beta 134.862287
_cell_angle_gamma 90.000000
_cell_volume 1592.863345
_symmetry_space_group_name_H-M "C 2/C"
_symmetry_group_IT_number 15
_symmetry_cell_setting 'monoclinic'
loop_
_space_group_symop_operation_xyz
x,y,z
-x,y,1/2-z
-x,-y,-z
x,-y,1/2+z
1/2+x,1/2+y,z
1/2-x,1/2+y,1/2-z
1/2-x,1/2-y,-z
1/2+x,1/2-y,1/2+z
loop_
_atom_site_type_symbol
_atom_site_label
_atom_site_fract_x
_atom_site_fract_y
_atom_site_fract_z
Si Si1 0.682798 0.033758 0.301835
Si Si2 0.628537 0.327799 0.443531
Si Si3 0.547761 0.002449 0.937773
Si Si4 0.561413 0.489496 0.722498
Si Si5 0.230245 0.696251 0.159819
O O1 0.742752 0.875170 0.325806
O O2 0.754206 0.107684 0.438837
O O3 0.558819 0.990071 0.211840
O O4 0.690052 0.153078 0.225269
O O5 0.605301 0.159175 0.462472
O O6 0.536610 0.437583 0.414965
O O7 0.606220 0.365913 0.320015
O O8 0.500000 0.000000 0.000000
O O9 0.638613 0.135626 0.014797
O O10 0.500000 0.392016 0.750000
O O11 0.658647 0.398105 0.761646
#
# Coordination Sequence:
#
# PCOD9294179 Si02
#       5
#     8   8   8   8   8
#     4  11  24  41  69  98 133 175 218 281 333 382
#     4   9  22  44  67  91 135 173 219 272 328 389
#     4  10  23  39  63 102 130 162 228 266 326 397
#     4   8  23  43  67  93 128 179 226 260 328 400
#     4  11  24  41  66  96 138 170 224 275 329 397
#
# _framework density 25.112012
#
# number of rings (size 3 to 8) (size 9 to 14) (size 15 to 20)
#    1.200    0.800    0.000    2.400   11.200    2.400 
#    3.600    0.000    0.000    0.000    0.000    0.000 
#    0.000    0.000    0.000    0.000    0.000    0.000 
#
# Total GULP energy -111794.982953 kJ/mol
# GULP energy per Si atom -5589.749148 kJ/mol
# Density = 2.505486 g / cm^3
# Si number density = 25.112012 Si / 1000 Ang^3
#
#
#
# Elastic Constant Matrix: (Units=GPa)
#
#
# Indices 1 2 3 4 5 6 
#
# 1 112.8478 27.8876 33.1553 0.0000 15.6841 0.0000
# 2 27.8876 114.6060 34.7668 0.0000 4.4826 0.0000
# 3 33.1553 34.7668 150.0664 0.0000 40.9728 0.0000
# 4 0.0000 0.0000 0.0000 23.5907 0.0000 5.5845
# 5 15.6841 4.4826 40.9728 0.0000 36.6954 0.0000
# 6 0.0000 0.0000 0.0000 5.5845 0.0000 25.2445
#
#
#
# Elastic Compliance Matrix: (Units=1/GPa)
#
#
# Indices 1 2 3 4 5 6 
#
# 1 0.010059 -0.002049 -0.000924 0.000000 -0.003018 0.000000
# 2 -0.002049 0.009890 -0.002514 0.000000 0.002475 0.000000
# 3 -0.000924 -0.002514 0.010442 0.000000 -0.010957 0.000000
# 4 0.000000 0.000000 0.000000 0.044732 0.000000 -0.009896
# 5 -0.003018 0.002475 -0.010957 0.000000 0.040473 0.000000
# 6 0.000000 0.000000 0.000000 -0.009896 0.000000 0.041802
#
#
# Mechanical properties :
#
#
# Convention : Reuss Voigt Hill
#
# Bulk Modulus (GPa) = 51.50384 63.23774 57.37079
# Shear Modulus (GPa) = 28.59680 35.88681 32.24181
#
# Velocity S-wave (km/s) = 3.37823 3.78440 3.58707
# Velocity P-wave (km/s) = 5.98086 6.65827 6.32864
#
# Compressibility (1/GPa) = 0.01941603
#
# Stress axis : x y z
#
# Youngs Moduli (GPa) = 99.41618 101.11046 95.76750
#
# Poissons Ratio (x) = 0.20722 0.08846
# Poissons Ratio (y) = 0.20374 0.24079
# Poissons Ratio (z) = 0.09183 0.25423
#
# Static dielectric constant tensor:
#      x y z
#    x 2.073100 0.000000 -0.002410 
#    y 0.000000 1.968260 0.000000 
#    z -0.002410 0.000000 2.025190 
# 
# From -- ./inp_files/109762.got.cif
#   From: 2010.05.17/outbox.cif.g08.bks.cpg/sg15_55_cif.got.tgz:109762.got - 2010.06.03 18:47:42.
