data_PCOD9294775
_publ_section_title
;
Structure prediction by ZEFSAII (Michael W. Deem and Ramdas Pophale) SiO2 
 PCOD9294775
Probable space group: C 2/C
;
_chemical_formula_sum "Si O2"
_cell_formula_units_Z 56
_cell_length_a 17.683077
_cell_length_b 20.080773
_cell_length_c 9.418022
_cell_angle_alpha 90.000000
_cell_angle_beta 56.196329
_cell_angle_gamma 90.000000
_cell_volume 2778.895679
_symmetry_space_group_name_H-M "C 2/C"
_symmetry_group_IT_number 15
_symmetry_cell_setting 'monoclinic'
loop_
_space_group_symop_operation_xyz
x,y,z
-x,y,1/2-z
-x,-y,-z
x,-y,1/2+z
1/2+x,1/2+y,z
1/2-x,1/2+y,1/2-z
1/2-x,1/2-y,-z
1/2+x,1/2-y,1/2+z
loop_
_atom_site_type_symbol
_atom_site_label
_atom_site_fract_x
_atom_site_fract_y
_atom_site_fract_z
Si Si1 0.831952 0.125903 0.762184
Si Si2 0.497419 0.571388 0.421927
Si Si3 0.602670 0.785714 0.173472
Si Si4 0.790564 0.499490 0.173290
Si Si5 0.744302 0.761616 0.773795
Si Si6 0.836401 0.889109 0.574154
Si Si7 0.598630 0.943351 0.196896
O O1 0.756626 0.068522 0.825865
O O2 0.787407 0.197755 0.782799
O O3 0.907428 0.110254 0.564894
O O4 0.873452 0.116050 0.875672
O O5 0.500000 0.562542 0.250000
O O6 0.500000 0.500000 0.500000
O O7 0.584144 0.610904 0.392290
O O8 0.500000 0.760443 0.250000
O O9 0.663323 0.754220 0.235016
O O10 0.595571 0.863936 0.217794
O O11 0.663972 0.776536 0.969363
O O12 0.718900 0.543479 0.336471
O O13 0.872241 0.479945 0.191131
O O14 0.826894 0.540011 0.000963
O O15 0.767185 0.827812 0.663419
O O16 0.500000 0.966460 0.250000
#
# Coordination Sequence:
#
# PCOD9294775 Si02
#       7
#     8   8   8   8   8   8   8
#     4  12  26  45  68  98 140 177 228 277 344 402
#     4  12  28  44  72 106 138 177 224 285 344 414
#     4  10  23  41  66 103 132 172 231 281 329 411
#     4  12  23  41  68  98 128 176 216 281 327 404
#     4  11  25  42  70  94 138 186 226 278 348 396
#     4  12  26  45  68  98 140 177 228 277 344 402
#     4  11  23  43  67  96 131 168 219 276 334 392
#
# _framework density 20.151889000000001
#
# number of rings (size 3 to 8) (size 9 to 14) (size 15 to 20)
#    0.000    0.571    5.714    2.143    8.000    0.000 
#    0.000    0.000    0.000    0.000    0.000    0.000 
#    0.000    0.000    0.000    0.000    0.000    0.000 
#
# Total GULP energy -156571.375023 kJ/mol
# GULP energy per Si atom -5591.834822 kJ/mol
# Density = 2.010602 g / cm^3
# Si number density = 20.151889 Si / 1000 Ang^3
#
#
#
# Elastic Constant Matrix: (Units=GPa)
#
#
# Indices 1 2 3 4 5 6 
#
# 1 99.1188 0.2383 20.6513 0.0000 -3.3372 0.0000
# 2 0.2383 57.8548 7.0208 0.0000 -1.3520 0.0000
# 3 20.6513 7.0208 72.0842 0.0000 23.9997 0.0000
# 4 0.0000 0.0000 0.0000 14.4669 0.0000 -5.1477
# 5 -3.3372 -1.3520 23.9997 0.0000 32.2897 0.0000
# 6 0.0000 0.0000 0.0000 -5.1477 0.0000 27.0696
#
#
#
# Elastic Compliance Matrix: (Units=1/GPa)
#
#
# Indices 1 2 3 4 5 6 
#
# 1 0.011272 0.000662 -0.004905 0.000000 0.004838 0.000000
# 2 0.000662 0.017703 -0.002901 0.000000 0.002966 0.000000
# 3 -0.004905 -0.002901 0.020955 0.000000 -0.016204 0.000000
# 4 0.000000 0.000000 0.000000 0.074140 0.000000 0.014099
# 5 0.004838 0.002966 -0.016204 0.000000 0.043637 0.000000
# 6 0.000000 0.000000 0.000000 0.014099 0.000000 0.039623
#
#
# Mechanical properties :
#
#
# Convention : Reuss Voigt Hill
#
# Bulk Modulus (GPa) = 28.05662 31.65319 29.85491
# Shear Modulus (GPa) = 21.41330 28.17508 24.79419
#
# Velocity S-wave (km/s) = 3.26328 3.74322 3.51146
# Velocity P-wave (km/s) = 5.30580 5.86717 5.59353
#
# Compressibility (1/GPa) = 0.03564221
#
# Stress axis : x y z
#
# Youngs Moduli (GPa) = 88.71487 56.48654 47.72092
#
# Poissons Ratio (x) = -0.03738 0.23405
# Poissons Ratio (y) = -0.05871 0.13846
# Poissons Ratio (z) = 0.43511 0.16389
#
# Static dielectric constant tensor:
#      x y z
#    x 1.713750 0.000000 -0.000290 
#    y 0.000000 1.701720 0.000000 
#    z -0.000290 0.000000 1.700820 
# 
# From -- ./inp_files/50124.got.cif
#   From: 2010.05.17/outbox.cif.g08.bks.cpg/sg15_26_cif.got.tgz:50124.got - 2010.06.03 18:47:42.
