data_PCOD9294696
_publ_section_title
;
Structure prediction by ZEFSAII (Michael W. Deem and Ramdas Pophale) SiO2 
 PCOD9294696
Probable space group: C 2/C
;
_chemical_formula_sum "Si O2"
_cell_formula_units_Z 56
_cell_length_a 29.912477
_cell_length_b 12.319127
_cell_length_c 24.545076
_cell_angle_alpha 90.000000
_cell_angle_beta 17.968550
_cell_angle_gamma 90.000000
_cell_volume 2790.260108
_symmetry_space_group_name_H-M "C 2/C"
_symmetry_group_IT_number 15
_symmetry_cell_setting 'monoclinic'
loop_
_space_group_symop_operation_xyz
x,y,z
-x,y,1/2-z
-x,-y,-z
x,-y,1/2+z
1/2+x,1/2+y,z
1/2-x,1/2+y,1/2-z
1/2-x,1/2-y,-z
1/2+x,1/2-y,1/2+z
loop_
_atom_site_type_symbol
_atom_site_label
_atom_site_fract_x
_atom_site_fract_y
_atom_site_fract_z
Si Si1 0.137848 0.950056 0.371050
Si Si2 0.201904 0.467306 0.976807
Si Si3 0.113511 0.136619 0.476061
Si Si4 0.524698 0.317973 0.852285
Si Si5 0.795196 0.166999 0.809720
Si Si6 0.894558 0.586771 0.788713
Si Si7 0.103491 0.970382 0.579319
O O1 0.232919 0.905247 0.211935
O O2 0.082827 0.850563 0.473360
O O3 0.192935 0.051846 0.342969
O O4 0.000000 0.000000 0.500000
O O5 0.336774 0.396378 0.799561
O O6 0.241195 0.594575 0.923432
O O7 0.170422 0.419809 0.073979
O O8 0.056636 0.454082 0.110124
O O9 0.212340 0.223685 0.391446
O O10 0.968378 0.184172 0.616308
O O11 0.059154 0.056362 0.585850
O O12 0.585268 0.200069 0.766961
O O13 0.436293 0.354812 0.901001
O O14 0.772464 0.521563 0.897206
O O15 0.000000 0.985409 0.750000
#
# Coordination Sequence:
#
# PCOD9294696 Si02
#       7
#     8   8   8   8   8   8   8
#     4   9  19  42  64  87 123 164 211 256 313 373
#     4  11  22  39  60  91 131 162 202 264 317 376
#     4  10  23  41  64  91 118 167 209 254 315 373
#     4  11  20  39  64  88 127 170 201 257 327 373
#     4  11  22  45  67  86 129 168 211 264 316 369
#     4  11  24  35  60  97 127 162 209 258 315 387
#     4  11  21  40  60  87 129 161 208 256 306 385
#
# _framework density 20.069813
#
# number of rings (size 3 to 8) (size 9 to 14) (size 15 to 20)
#    0.000    1.429    5.714    1.286    4.000    1.143 
#   12.857    2.143    0.000    0.000    0.000    0.000 
#    0.000    0.000    0.000    0.000    0.000    0.000 
#
# Total GULP energy -155887.936498 kJ/mol
# GULP energy per Si atom -5567.426303 kJ/mol
# Density = 2.002413 g / cm^3
# Si number density = 20.069813 Si / 1000 Ang^3
#
#
#
# Elastic Constant Matrix: (Units=GPa)
#
#
# Indices 1 2 3 4 5 6 
#
# 1 44.3250 12.4814 9.7630 0.0001 -18.8210 0.0001
# 2 12.4814 77.5841 10.3001 -0.0001 -2.0613 0.0001
# 3 9.7630 10.3001 44.6302 0.0003 -21.1677 0.0000
# 4 0.0001 -0.0001 0.0003 18.5430 -0.0004 -17.1716
# 5 -18.8210 -2.0613 -21.1677 -0.0004 41.0233 -0.0001
# 6 0.0001 0.0001 0.0000 -17.1716 -0.0001 31.6688
#
#
#
# Elastic Compliance Matrix: (Units=1/GPa)
#
#
# Indices 1 2 3 4 5 6 
#
# 1 0.029482 -0.004532 0.001197 0.000000 0.013916 0.000000
# 2 -0.004532 0.014039 -0.003840 0.000000 -0.003355 0.000000
# 3 0.001197 -0.003840 0.030717 0.000000 0.016206 0.000000
# 4 0.000000 0.000000 0.000000 0.108317 0.000001 0.058732
# 5 0.013916 -0.003355 0.016206 0.000001 0.038954 0.000001
# 6 0.000000 0.000000 0.000000 0.058732 0.000001 0.063423
#
#
# Mechanical properties :
#
#
# Convention : Reuss Voigt Hill
#
# Bulk Modulus (GPa) = 16.69790 25.73646 21.21718
# Shear Modulus (GPa) = 15.66189 27.18000 21.42094
#
# Velocity S-wave (km/s) = 2.79654 3.68404 3.27053
# Velocity P-wave (km/s) = 4.33192 5.56305 4.98563
#
# Compressibility (1/GPa) = 0.05988778
#
# Stress axis : x y z
#
# Youngs Moduli (GPa) = 33.91886 71.23014 32.55510
#
# Poissons Ratio (x) = 0.32282 -0.03896
# Poissons Ratio (y) = 0.15372 0.12501
# Poissons Ratio (z) = -0.04060 0.27352
#
# Static dielectric constant tensor:
#      x y z
#    x 1.742140 0.000000 0.017300 
#    y 0.000000 1.815940 0.000000 
#    z 0.017300 0.000000 1.730080 
# 
# From -- ./inp_files/284602.got.cif
#   From: 2010.05.17/outbox.cif.g08.bks.cpg/sg15_143_cif.got.tgz:284602.got - 2010.06.03 18:47:42.
