data_PCOD9295211
_publ_section_title
;
Structure prediction by ZEFSAII (Michael W. Deem and Ramdas Pophale) SiO2 
 PCOD9295211
Probable space group: C 2/C
;
_chemical_formula_sum "Si O2"
_cell_formula_units_Z 32
_cell_length_a 5.272656
_cell_length_b 18.858485
_cell_length_c 11.524483
_cell_angle_alpha 90.000000
_cell_angle_beta 95.372011
_cell_angle_gamma 90.000000
_cell_volume 1140.895818
_symmetry_space_group_name_H-M "C 2/C"
_symmetry_group_IT_number 15
_symmetry_cell_setting 'monoclinic'
loop_
_space_group_symop_operation_xyz
x,y,z
-x,y,1/2-z
-x,-y,-z
x,-y,1/2+z
1/2+x,1/2+y,z
1/2-x,1/2+y,1/2-z
1/2-x,1/2-y,-z
1/2+x,1/2-y,1/2+z
loop_
_atom_site_type_symbol
_atom_site_label
_atom_site_fract_x
_atom_site_fract_y
_atom_site_fract_z
Si Si1 0.000000 0.567357 0.250000
Si Si2 0.360565 0.535529 0.885653
Si Si3 0.911431 0.759256 0.635459
Si Si4 0.500000 0.340053 0.250000
Si Si5 0.541860 0.859967 0.505864
O O1 0.756142 0.515844 0.218252
O O2 0.023880 0.614301 0.368260
O O3 0.540594 0.599559 0.850824
O O4 0.500000 0.500000 0.000000
O O5 0.110622 0.574184 0.928877
O O6 0.710003 0.709688 0.698068
O O7 0.801649 0.815785 0.543006
O O8 0.089543 0.703558 0.573258
O O9 0.000000 0.804095 0.750000
#
# Coordination Sequence:
#
# PCOD9295211 Si02
#       5
#     4   8   8   4   8
#     4  12  25  42  72  96 141 180 216 282 344 394
#     4  11  25  41  67  98 136 178 225 274 334 408
#     4  10  23  43  71  94 135 174 223 286 330 399
#     4  10  23  42  66  98 129 174 226 270 340 394
#     4  10  24  43  63 101 129 174 228 270 340 397
#
# _framework density 28.048138999999999
#
# number of rings (size 3 to 8) (size 9 to 14) (size 15 to 20)
#    0.000    1.500    0.000    3.000   14.000    0.000 
#    0.000    5.000    0.000    0.000    0.000    0.000 
#    0.000    0.000    0.000    0.000    0.000    0.000 
#
# Total GULP energy -89219.496228 kJ/mol
# GULP energy per Si atom -5576.218514 kJ/mol
# Density = 2.798430 g / cm^3
# Si number density = 28.048139 Si / 1000 Ang^3
#
#
#
# Elastic Constant Matrix: (Units=GPa)
#
#
# Indices 1 2 3 4 5 6 
#
# 1 71.5149 21.5834 22.5208 0.0000 -12.8493 0.0000
# 2 21.5834 82.6750 35.7851 0.0000 -14.8555 0.0000
# 3 22.5208 35.7851 167.8536 0.0000 -5.3513 0.0000
# 4 0.0000 0.0000 0.0000 78.9664 0.0000 -8.4500
# 5 -12.8493 -14.8555 -5.3513 0.0000 49.4133 0.0000
# 6 0.0000 0.0000 0.0000 -8.4500 0.0000 49.9240
#
#
#
# Elastic Compliance Matrix: (Units=1/GPa)
#
#
# Indices 1 2 3 4 5 6 
#
# 1 0.015877 -0.002988 -0.001395 0.000000 0.003079 0.000000
# 2 -0.002988 0.014602 -0.002606 0.000000 0.003331 0.000000
# 3 -0.001395 -0.002606 0.006687 0.000000 -0.000422 0.000000
# 4 0.000000 0.000000 0.000000 0.012897 0.000000 0.002183
# 5 0.003079 0.003331 -0.000422 0.000000 0.021994 0.000000
# 6 0.000000 0.000000 0.000000 0.002183 0.000000 0.020400
#
#
# Mechanical properties :
#
#
# Convention : Reuss Voigt Hill
#
# Bulk Modulus (GPa) = 43.12481 53.53578 48.33029
# Shear Modulus (GPa) = 43.79638 51.80436 47.80037
#
# Velocity S-wave (km/s) = 3.95583 4.30231 4.13271
# Velocity P-wave (km/s) = 6.02275 6.61879 6.32779
#
# Compressibility (1/GPa) = 0.02318851
#
# Stress axis : x y z
#
# Youngs Moduli (GPa) = 62.98242 68.48359 149.54674
#
# Poissons Ratio (x) = 0.20462 0.20863
# Poissons Ratio (y) = 0.18818 0.38972
# Poissons Ratio (z) = 0.08787 0.17847
#
# Static dielectric constant tensor:
#      x y z
#    x 2.384370 0.000000 0.078930 
#    y 0.000000 2.157030 0.000000 
#    z 0.078930 0.000000 2.273680 
# 
# From -- ./inp_files/71914.got.cif
#   From: 2010.05.17/outbox.cif.g08.bks.cpg/sg15_36_cif.got.tgz:71914.got - 2010.06.03 18:47:42.
