data_PCOD9295743
_publ_section_title
;
Structure prediction by ZEFSAII (Michael W. Deem and Ramdas Pophale) SiO2 
 PCOD9295743
Probable space group: C 2/C
;
_chemical_formula_sum "Si O2"
_cell_formula_units_Z 60
_cell_length_a 9.321500
_cell_length_b 19.438559
_cell_length_c 22.131429
_cell_angle_alpha 90.000000
_cell_angle_beta 139.520176
_cell_angle_gamma 90.000000
_cell_volume 2603.302409
_symmetry_space_group_name_H-M "C 2/C"
_symmetry_group_IT_number 15
_symmetry_cell_setting 'monoclinic'
loop_
_space_group_symop_operation_xyz
x,y,z
-x,y,1/2-z
-x,-y,-z
x,-y,1/2+z
1/2+x,1/2+y,z
1/2-x,1/2+y,1/2-z
1/2-x,1/2-y,-z
1/2+x,1/2-y,1/2+z
loop_
_atom_site_type_symbol
_atom_site_label
_atom_site_fract_x
_atom_site_fract_y
_atom_site_fract_z
Si Si1 0.655031 0.798950 0.208073
Si Si2 0.687626 0.154585 0.263065
Si Si3 0.500000 0.600304 0.750000
Si Si4 0.391457 0.526864 0.389179
Si Si5 0.389520 0.596728 0.515479
Si Si6 0.688396 0.286082 0.101615
Si Si7 0.742453 0.512994 0.409943
Si Si8 0.431257 0.862799 0.912103
O O1 0.652128 0.720098 0.182849
O O2 0.812071 0.850465 0.220333
O O3 0.396160 0.815787 0.131382
O O4 0.749999 0.794052 0.307241
O O5 0.500000 0.172357 0.250000
O O6 0.764575 0.077427 0.303928
O O7 0.594604 0.152772 0.166437
O O8 0.387929 0.547848 0.665834
O O9 0.333766 0.553460 0.437313
O O10 0.392007 0.443858 0.389280
O O11 0.640355 0.532412 0.442429
O O12 0.471941 0.669985 0.520109
O O13 0.184955 0.609692 0.494847
O O14 0.625442 0.206703 0.070698
O O15 0.748778 0.581238 0.371214
O O16 0.000000 0.500000 0.500000
#
# Coordination Sequence:
#
# PCOD9295743 Si02
#       8
#     8   8   4   8   8   8   8   8
#     4  10  23  43  68  98 131 173 228 281 338 422
#     4  11  21  43  69  96 128 172 223 276 336 409
#     4  12  26  44  72 100 138 186 230 290 360 404
#     4  11  24  42  63  98 135 173 224 278 331 410
#     4  11  23  42  66  99 138 173 225 275 338 415
#     4  10  23  43  68  98 136 175 223 279 346 411
#     4  12  26  45  66 100 141 181 233 291 342 420
#     4  11  23  44  70  97 133 181 222 282 346 413
#
# _framework density 23.047647000000001
#
# number of rings (size 3 to 8) (size 9 to 14) (size 15 to 20)
#    0.000    1.067    3.333    2.800    1.867    2.133 
#    7.200    1.333    0.000    0.000    0.000    0.000 
#    0.000    0.000    0.000    0.000    0.000    0.000 
#
# Total GULP energy -167276.274532 kJ/mol
# GULP energy per Si atom -5575.875818 kJ/mol
# Density = 2.299519 g / cm^3
# Si number density = 23.047647 Si / 1000 Ang^3
#
#
#
# Elastic Constant Matrix: (Units=GPa)
#
#
# Indices 1 2 3 4 5 6 
#
# 1 136.3784 36.4126 14.5217 0.0000 18.1768 -0.0001
# 2 36.4126 131.6802 30.4804 0.0002 8.9394 0.0001
# 3 14.5217 30.4804 46.2138 0.0011 7.2584 0.0006
# 4 0.0000 0.0002 0.0011 25.0661 0.0004 18.3609
# 5 18.1768 8.9394 7.2584 0.0004 27.1351 -0.0001
# 6 -0.0001 0.0001 0.0006 18.3609 -0.0001 1.3921
#
#
#
# Elastic Compliance Matrix: (Units=1/GPa)
#
#
# Indices 1 2 3 4 5 6 
#
# 1 0.008564 -0.001876 -0.000678 0.000000 -0.004937 0.000000
# 2 -0.001876 0.009427 -0.005572 0.000000 -0.000359 0.000000
# 3 -0.000678 -0.005572 0.026271 -0.000001 -0.004737 0.000000
# 4 0.000000 0.000000 -0.000001 -0.004606 0.000000 0.060752
# 5 -0.004937 -0.000359 -0.004737 0.000000 0.041545 -0.000001
# 6 0.000000 0.000000 0.000000 0.060752 -0.000001 -0.082938
#
#
# Mechanical properties :
#
#
# Convention : Reuss Voigt Hill
#
# Bulk Modulus (GPa) = 35.70248 53.01134 44.35691
# Shear Modulus (GPa) = 209.63601 26.24251 117.93926
#
# Velocity S-wave (km/s) = 9.54752 3.37800 7.16122
# Velocity P-wave (km/s) = 11.70746 6.18589 9.36295
#
# Compressibility (1/GPa) = 0.02800926
#
# Stress axis : x y z
#
# Youngs Moduli (GPa) = 116.77283 106.07893 38.06540
#
# Poissons Ratio (x) = 0.19899 0.02582
# Poissons Ratio (y) = 0.21905 0.21209
# Poissons Ratio (z) = 0.07921 0.59105
#
# Static dielectric constant tensor:
#      x y z
#    x 1.895970 0.000000 -0.023920 
#    y 0.000000 2.016970 0.000000 
#    z -0.023920 0.000000 1.908500 
# 
# From -- ./inp_files/192513.got.cif
#   From: 2010.05.17/outbox.cif.g08.bks.cpg/sg15_97_cif.got.tgz:192513.got - 2010.06.03 18:47:42.
