data_PCOD9295110
_publ_section_title
;
Structure prediction by ZEFSAII (Michael W. Deem and Ramdas Pophale) SiO2 
 PCOD9295110
Probable space group: C 2/C
;
_chemical_formula_sum "Si O2"
_cell_formula_units_Z 40
_cell_length_a 5.885120
_cell_length_b 22.158293
_cell_length_c 13.585261
_cell_angle_alpha 90.000000
_cell_angle_beta 74.692286
_cell_angle_gamma 90.000000
_cell_volume 1708.723119
_symmetry_space_group_name_H-M "C 2/C"
_symmetry_group_IT_number 15
_symmetry_cell_setting 'monoclinic'
loop_
_space_group_symop_operation_xyz
x,y,z
-x,y,1/2-z
-x,-y,-z
x,-y,1/2+z
1/2+x,1/2+y,z
1/2-x,1/2+y,1/2-z
1/2-x,1/2-y,-z
1/2+x,1/2-y,1/2+z
loop_
_atom_site_type_symbol
_atom_site_label
_atom_site_fract_x
_atom_site_fract_y
_atom_site_fract_z
Si Si1 0.278644 0.234996 0.708778
Si Si2 0.571569 0.845962 0.468586
Si Si3 0.778798 0.369085 0.827074
Si Si4 0.347380 0.572131 0.466074
Si Si5 0.126290 0.043476 0.631072
O O1 0.500000 0.211356 0.750000
O O2 0.366389 0.215938 0.590855
O O3 0.268831 0.306964 0.724608
O O4 0.000000 0.214829 0.750000
O O5 0.655526 0.848997 0.570374
O O6 0.303990 0.867887 0.502357
O O7 0.707383 0.898102 0.391865
O O8 0.560109 0.411791 0.868509
O O9 0.000000 0.399974 0.750000
O O10 0.438880 0.553271 0.563426
O O11 0.232397 0.515783 0.422155
O O12 0.000000 0.037803 0.750000
#
# Coordination Sequence:
#
# PCOD9295110 Si02
#       5
#     8   8   8   8   8
#     4  11  27  45  73 106 141 184 232 284 355 418
#     4  11  24  42  69  96 138 178 232 287 347 415
#     4  10  25  44  66  98 135 179 234 283 348 416
#     4  10  24  42  67  99 131 182 229 290 345 417
#     4  10  23  42  64  98 138 174 233 283 355 411
#
# _framework density 23.409292000000001
#
# number of rings (size 3 to 8) (size 9 to 14) (size 15 to 20)
#    0.000    1.600    0.000    1.800   16.800    0.800 
#    0.000    0.000    0.000    0.000    0.000    0.000 
#    0.000    0.000    0.000    0.000    0.000    0.000 
#
# Total GULP energy -111687.938201 kJ/mol
# GULP energy per Si atom -5584.396910 kJ/mol
# Density = 2.335601 g / cm^3
# Si number density = 23.409292 Si / 1000 Ang^3
#
#
#
# Elastic Constant Matrix: (Units=GPa)
#
#
# Indices 1 2 3 4 5 6 
#
# 1 100.0637 14.6952 44.8780 0.0000 -16.2855 0.0000
# 2 14.6952 46.6523 12.2590 0.0000 -18.9626 0.0000
# 3 44.8780 12.2590 109.1794 0.0000 -30.8733 0.0000
# 4 0.0000 0.0000 0.0000 539.8534 0.0000 -322.4982
# 5 -16.2855 -18.9626 -30.8733 0.0000 34.4852 0.0000
# 6 0.0000 0.0000 0.0000 -322.4982 0.0000 215.3608
#
#
#
# Elastic Compliance Matrix: (Units=1/GPa)
#
#
# Indices 1 2 3 4 5 6 
#
# 1 0.012570 -0.002620 -0.004822 0.000000 0.000178 0.000000
# 2 -0.002620 0.028361 0.002614 0.000000 0.016698 0.000000
# 3 -0.004822 0.002614 0.014207 0.000000 0.011879 0.000000
# 4 0.000000 0.000000 0.000000 0.017569 0.000000 0.026309
# 5 0.000178 0.016698 0.011879 0.000000 0.048899 0.000000
# 6 0.000000 0.000000 0.000000 0.026309 0.000000 0.044040
#
#
# Mechanical properties :
#
#
# Convention : Reuss Voigt Hill
#
# Bulk Modulus (GPa) = 21.98666 44.39551 33.19109
# Shear Modulus (GPa) = 26.25186 170.21076 98.23131
#
# Velocity S-wave (km/s) = 3.35241 8.53631 6.48488
# Velocity P-wave (km/s) = 4.93938 10.77795 8.38337
#
# Compressibility (1/GPa) = 0.04548212
#
# Stress axis : x y z
#
# Youngs Moduli (GPa) = 79.55310 35.26014 70.38727
#
# Poissons Ratio (x) = 0.09238 0.33943
# Poissons Ratio (y) = 0.20842 -0.18401
# Poissons Ratio (z) = 0.38363 -0.09218
#
# Static dielectric constant tensor:
#      x y z
#    x 1.965580 0.000000 -0.005260 
#    y 0.000000 1.896260 0.000000 
#    z -0.005260 0.000000 1.826850 
# 
# From -- ./inp_files/73054.got.cif
#   From: 2010.05.17/outbox.cif.g08.bks.cpg/sg15_37_cif.got.tgz:73054.got - 2010.06.03 18:47:42.
