data_PCOD9295541
_publ_section_title
;
Structure prediction by ZEFSAII (Michael W. Deem and Ramdas Pophale) SiO2 
 PCOD9295541
Probable space group: C 2/C
;
_chemical_formula_sum "Si O2"
_cell_formula_units_Z 40
_cell_length_a 11.048322
_cell_length_b 13.458528
_cell_length_c 13.376653
_cell_angle_alpha 90.000000
_cell_angle_beta 85.085393
_cell_angle_gamma 90.000000
_cell_volume 1981.717367
_symmetry_space_group_name_H-M "C 2/C"
_symmetry_group_IT_number 15
_symmetry_cell_setting 'monoclinic'
loop_
_space_group_symop_operation_xyz
x,y,z
-x,y,1/2-z
-x,-y,-z
x,-y,1/2+z
1/2+x,1/2+y,z
1/2-x,1/2+y,1/2-z
1/2-x,1/2-y,-z
1/2+x,1/2-y,1/2+z
loop_
_atom_site_type_symbol
_atom_site_label
_atom_site_fract_x
_atom_site_fract_y
_atom_site_fract_z
Si Si1 0.642920 0.330191 0.021220
Si Si2 0.756853 0.639074 0.041817
Si Si3 0.999105 0.328589 0.865538
Si Si4 0.869671 0.001305 0.812632
Si Si5 0.265382 0.029131 0.375736
O O1 0.529173 0.262743 0.057907
O O2 0.656050 0.405741 0.112817
O O3 0.750000 0.250000 0.000000
O O4 0.656531 0.399733 0.923949
O O5 0.646775 0.596905 0.117432
O O6 0.874122 0.629410 0.105289
O O7 0.750000 0.750000 0.000000
O O8 0.770297 0.565112 0.947526
O O9 0.890519 0.409323 0.876647
O O10 0.000000 0.293818 0.750000
O O11 0.769105 0.000234 0.733017
O O12 0.000000 0.008956 0.750000
#
# Coordination Sequence:
#
# PCOD9295541 Si02
#       5
#     8   8   8   8   8
#     4   9  22  39  65  93 124 165 210 259 326 382
#     4  11  26  41  64  96 127 166 217 267 317 381
#     4  11  21  42  67  91 127 166 214 262 319 383
#     4  11  24  41  66  94 130 170 214 266 321 384
#     4  10  23  43  64  90 130 167 214 260 325 377
#
# _framework density 20.184512000000002
#
# number of rings (size 3 to 8) (size 9 to 14) (size 15 to 20)
#    0.000    1.600    2.000    1.200    8.400    1.600 
#    0.000    1.000    0.000    0.000    0.000    0.000 
#    0.000    0.000    0.000    0.000    0.000    0.000 
#
# Total GULP energy -111607.762107 kJ/mol
# GULP energy per Si atom -5580.388105 kJ/mol
# Density = 2.013857 g / cm^3
# Si number density = 20.184512 Si / 1000 Ang^3
#
#
#
# Elastic Constant Matrix: (Units=GPa)
#
#
# Indices 1 2 3 4 5 6 
#
# 1 85.7279 35.7630 35.6904 0.0000 -4.9459 0.0000
# 2 35.7630 93.8727 23.8402 0.0000 -17.2832 0.0000
# 3 35.6904 23.8402 75.6835 0.0000 -17.3735 0.0000
# 4 0.0000 0.0000 0.0000 28.6623 0.0000 -5.6259
# 5 -4.9459 -17.2832 -17.3735 0.0000 31.7508 0.0000
# 6 0.0000 0.0000 0.0000 -5.6259 0.0000 8.3232
#
#
#
# Elastic Compliance Matrix: (Units=1/GPa)
#
#
# Indices 1 2 3 4 5 6 
#
# 1 0.016592 -0.005284 -0.007122 0.000000 -0.004188 0.000000
# 2 -0.005284 0.013977 -0.000404 0.000000 0.006564 0.000000
# 3 -0.007122 -0.000404 0.018748 0.000000 0.008929 0.000000
# 4 0.000000 0.000000 0.000000 0.040226 0.000000 0.027190
# 5 -0.004188 0.006564 0.008929 0.000000 0.039302 0.000000
# 6 0.000000 0.000000 0.000000 0.027190 0.000000 0.138525
#
#
# Mechanical properties :
#
#
# Convention : Reuss Voigt Hill
#
# Bulk Modulus (GPa) = 42.19692 49.54126 45.86909
# Shear Modulus (GPa) = 16.61745 24.41329 20.51537
#
# Velocity S-wave (km/s) = 2.87239 3.48157 3.19155
# Velocity P-wave (km/s) = 5.65260 6.38430 6.02956
#
# Compressibility (1/GPa) = 0.02369841
#
# Stress axis : x y z
#
# Youngs Moduli (GPa) = 60.26912 71.54694 53.33786
#
# Poissons Ratio (x) = 0.37803 0.37985
# Poissons Ratio (y) = 0.31844 0.02156
# Poissons Ratio (z) = 0.42921 0.02892
#
# Static dielectric constant tensor:
#      x y z
#    x 1.714670 0.000000 -0.042750 
#    y 0.000000 1.727690 0.000000 
#    z -0.042750 0.000000 1.710050 
# 
# From -- ./inp_files/85512.got.cif
#   From: 2010.05.17/outbox.cif.g08.bks.cpg/sg15_43_cif.got.tgz:85512.got - 2010.06.03 18:47:42.
