data_PCOD9295490
_publ_section_title
;
Structure prediction by ZEFSAII (Michael W. Deem and Ramdas Pophale) SiO2 
 PCOD9295490
Probable space group: C 2/C
;
_chemical_formula_sum "Si O2"
_cell_formula_units_Z 44
_cell_length_a 18.531111
_cell_length_b 14.108131
_cell_length_c 9.350176
_cell_angle_alpha 90.000000
_cell_angle_beta 135.235334
_cell_angle_gamma 90.000000
_cell_volume 1721.411030
_symmetry_space_group_name_H-M "C 2/C"
_symmetry_group_IT_number 15
_symmetry_cell_setting 'monoclinic'
loop_
_space_group_symop_operation_xyz
x,y,z
-x,y,1/2-z
-x,-y,-z
x,-y,1/2+z
1/2+x,1/2+y,z
1/2-x,1/2+y,1/2-z
1/2-x,1/2-y,-z
1/2+x,1/2-y,1/2+z
loop_
_atom_site_type_symbol
_atom_site_label
_atom_site_fract_x
_atom_site_fract_y
_atom_site_fract_z
Si Si1 0.210372 0.597127 0.097266
Si Si2 0.500000 0.616232 0.250000
Si Si3 0.483344 0.890350 0.008147
Si Si4 0.371501 0.733621 0.649297
Si Si5 0.323750 0.532760 0.543717
Si Si6 0.615415 0.735510 0.172623
O O1 0.093063 0.613561 0.966528
O O2 0.260372 0.568625 0.319954
O O3 0.244192 0.513941 0.040408
O O4 0.274379 0.690299 0.147711
O O5 0.596433 0.545721 0.400230
O O6 0.534364 0.679701 0.161274
O O7 0.573208 0.819301 0.686903
O O8 0.595498 0.844267 0.179760
O O9 0.500000 0.000000 0.000000
O O10 0.250000 0.750000 0.500000
O O11 0.382579 0.621256 0.701732
O O12 0.399086 0.731712 0.519744
#
# Coordination Sequence:
#
# PCOD9295490 Si02
#       6
#     8   4   8   8   8   8
#     4  10  24  46  70 110 142 195 245 321 379 460
#     4  10  24  46  68 114 138 192 248 316 392 446
#     4  12  27  45  71 107 147 197 253 306 377 454
#     4  11  23  45  74 107 144 196 250 308 379 460
#     4  10  23  42  76 103 151 185 251 315 386 451
#     4  10  24  48  71 100 151 191 249 315 380 459
#
# _framework density 25.560426
#
# number of rings (size 3 to 8) (size 9 to 14) (size 15 to 20)
#    0.000    1.455    3.636    0.545   10.182    5.091 
#    6.545    1.818    0.000    0.000    0.000    0.000 
#    0.000    0.000    0.000    0.000    0.000    0.000 
#
# Total GULP energy -123044.678918 kJ/mol
# GULP energy per Si atom -5592.939951 kJ/mol
# Density = 2.550225 g / cm^3
# Si number density = 25.560426 Si / 1000 Ang^3
#
#
#
# Elastic Constant Matrix: (Units=GPa)
#
#
# Indices 1 2 3 4 5 6 
#
# 1 209.4790 93.0226 50.5028 0.0000 3.3480 0.0000
# 2 93.0226 212.4858 54.4761 0.0000 -1.3189 0.0000
# 3 50.5028 54.4761 90.1672 0.0000 -8.3139 0.0000
# 4 0.0000 0.0000 0.0000 38.0413 0.0000 6.0496
# 5 3.3480 -1.3189 -8.3139 0.0000 49.5938 0.0000
# 6 0.0000 0.0000 0.0000 6.0496 0.0000 35.6334
#
#
#
# Elastic Compliance Matrix: (Units=1/GPa)
#
#
# Indices 1 2 3 4 5 6 
#
# 1 0.006309 -0.002178 -0.002298 0.000000 -0.000869 0.000000
# 2 -0.002178 0.006330 -0.002615 0.000000 -0.000123 0.000000
# 3 -0.002298 -0.002615 0.014185 0.000000 0.002463 0.000000
# 4 0.000000 0.000000 0.000000 0.027017 0.000000 -0.004587
# 5 -0.000869 -0.000123 0.002463 0.000000 0.020632 0.000000
# 6 0.000000 0.000000 0.000000 -0.004587 0.000000 0.028842
#
#
# Mechanical properties :
#
#
# Convention : Reuss Voigt Hill
#
# Bulk Modulus (GPa) = 79.11124 100.90389 90.00757
# Shear Modulus (GPa) = 41.08108 45.59573 43.33841
#
# Velocity S-wave (km/s) = 4.01336 4.22814 4.12215
# Velocity P-wave (km/s) = 7.24527 7.96232 7.61224
#
# Compressibility (1/GPa) = 0.01264043
#
# Stress axis : x y z
#
# Youngs Moduli (GPa) = 158.50711 157.98898 70.49818
#
# Poissons Ratio (x) = 0.34414 0.16198
# Poissons Ratio (y) = 0.34526 0.18438
# Poissons Ratio (z) = 0.36420 0.41321
#
# Static dielectric constant tensor:
#      x y z
#    x 1.960560 0.000000 -0.002410 
#    y 0.000000 2.026430 0.000000 
#    z -0.002410 0.000000 2.195030 
# 
# From -- ./inp_files/105518.got.cif
#   From: 2010.05.17/outbox.cif.g08.bks.cpg/sg15_53_cif.got.tgz:105518.got - 2010.06.03 18:47:42.
