data_PCOD9295753
_publ_section_title
;
Structure prediction by ZEFSAII (Michael W. Deem and Ramdas Pophale) SiO2 
 PCOD9295753
Probable space group: C 2/C
;
_chemical_formula_sum "Si O2"
_cell_formula_units_Z 44
_cell_length_a 9.642264
_cell_length_b 13.091867
_cell_length_c 18.745926
_cell_angle_alpha 90.000000
_cell_angle_beta 134.150662
_cell_angle_gamma 90.000000
_cell_volume 1697.914705
_symmetry_space_group_name_H-M "C 2/C"
_symmetry_group_IT_number 15
_symmetry_cell_setting 'monoclinic'
loop_
_space_group_symop_operation_xyz
x,y,z
-x,y,1/2-z
-x,-y,-z
x,-y,1/2+z
1/2+x,1/2+y,z
1/2-x,1/2+y,1/2-z
1/2-x,1/2-y,-z
1/2+x,1/2-y,1/2+z
loop_
_atom_site_type_symbol
_atom_site_label
_atom_site_fract_x
_atom_site_fract_y
_atom_site_fract_z
Si Si1 0.000000 0.193380 0.250000
Si Si2 0.337977 0.563134 0.072396
Si Si3 0.387947 0.660697 0.577023
Si Si4 0.045803 0.535606 0.848133
Si Si5 0.772560 0.683928 0.791158
Si Si6 0.843955 0.866022 0.914677
O O1 0.848884 0.126700 0.148830
O O2 0.889541 0.257958 0.270369
O O3 0.295114 0.444307 0.071017
O O4 0.549211 0.576331 0.111375
O O5 0.191201 0.593446 0.955780
O O6 0.250000 0.750000 0.500000
O O7 0.552606 0.690820 0.689743
O O8 0.480964 0.631401 0.533005
O O9 0.152011 0.426285 0.872712
O O10 0.000000 0.563736 0.750000
O O11 0.845647 0.566842 0.815252
O O12 0.811460 0.751616 0.874759
#
# Coordination Sequence:
#
# PCOD9295753 Si02
#       6
#     4   8   8   8   8   8
#     4  10  24  42  66 102 142 172 242 290 350 432
#     4  10  23  43  68  99 137 185 227 294 358 430
#     4  11  25  45  65  99 137 183 236 292 362 429
#     4  11  21  39  71  97 136 186 234 291 359 425
#     4  11  24  40  71 104 136 185 235 298 352 436
#     4  10  24  41  69 101 138 183 237 286 360 435
#
# _framework density 25.914138999999999
#
# number of rings (size 3 to 8) (size 9 to 14) (size 15 to 20)
#    0.000    1.455    0.909    4.364    7.636    2.909 
#    0.000    0.909    0.000    0.000    0.000    0.000 
#    0.000    0.000    0.000    0.000    0.000    0.000 
#
# Total GULP energy -122742.121328 kJ/mol
# GULP energy per Si atom -5579.187333 kJ/mol
# Density = 2.585516 g / cm^3
# Si number density = 25.914139 Si / 1000 Ang^3
#
#
#
# Elastic Constant Matrix: (Units=GPa)
#
#
# Indices 1 2 3 4 5 6 
#
# 1 74.2389 24.4269 17.4832 0.0000 -14.3140 0.0000
# 2 24.4269 75.2261 20.4744 0.0000 0.0093 0.0000
# 3 17.4832 20.4744 157.2474 0.0000 -21.8675 0.0000
# 4 0.0000 0.0000 0.0000 59.7794 0.0000 3.6837
# 5 -14.3140 0.0093 -21.8675 0.0000 46.4411 0.0000
# 6 0.0000 0.0000 0.0000 3.6837 0.0000 38.5131
#
#
#
# Elastic Compliance Matrix: (Units=1/GPa)
#
#
# Indices 1 2 3 4 5 6 
#
# 1 0.016188 -0.005129 -0.000469 0.000000 0.004770 0.000000
# 2 -0.005129 0.015443 -0.001777 0.000000 -0.002421 0.000000
# 3 -0.000469 -0.001777 0.007087 0.000000 0.003193 0.000000
# 4 0.000000 0.000000 0.000000 0.016827 0.000000 -0.001609
# 5 0.004770 -0.002421 0.003193 0.000000 0.024507 0.000000
# 6 0.000000 0.000000 0.000000 -0.001609 0.000000 0.026119
#
#
# Mechanical properties :
#
#
# Convention : Reuss Voigt Hill
#
# Bulk Modulus (GPa) = 41.72361 47.94239 44.83300
# Shear Modulus (GPa) = 38.78671 45.23523 42.01097
#
# Velocity S-wave (km/s) = 3.87297 4.18255 4.03073
# Velocity P-wave (km/s) = 6.01128 6.47036 6.24504
#
# Compressibility (1/GPa) = 0.02396724
#
# Stress axis : x y z
#
# Youngs Moduli (GPa) = 61.77493 64.75494 141.10521
#
# Poissons Ratio (x) = 0.33216 0.06613
# Poissons Ratio (y) = 0.31687 0.25076
# Poissons Ratio (z) = 0.02895 0.11508
#
# Static dielectric constant tensor:
#      x y z
#    x 2.131600 0.000000 0.025300 
#    y 0.000000 2.138390 0.000000 
#    z 0.025300 0.000000 2.062170 
# 
# From -- ./inp_files/237308.got.cif
#   From: 2010.05.17/outbox.cif.g08.bks.cpg/sg15_119_cif.got.tgz:237308.got - 2010.06.03 18:47:42.
