data_PCOD9295924
_publ_section_title
;
Structure prediction by ZEFSAII (Michael W. Deem and Ramdas Pophale) SiO2 
 PCOD9295924
Probable space group: C 2/C
;
_chemical_formula_sum "Si O2"
_cell_formula_units_Z 36
_cell_length_a 27.817172
_cell_length_b 5.156659
_cell_length_c 9.956994
_cell_angle_alpha 90.000000
_cell_angle_beta 95.107550
_cell_angle_gamma 90.000000
_cell_volume 1422.596604
_symmetry_space_group_name_H-M "C 2/C"
_symmetry_group_IT_number 15
_symmetry_cell_setting 'monoclinic'
loop_
_space_group_symop_operation_xyz
x,y,z
-x,y,1/2-z
-x,-y,-z
x,-y,1/2+z
1/2+x,1/2+y,z
1/2-x,1/2+y,1/2-z
1/2-x,1/2-y,-z
1/2+x,1/2-y,1/2+z
loop_
_atom_site_type_symbol
_atom_site_label
_atom_site_fract_x
_atom_site_fract_y
_atom_site_fract_z
Si Si1 0.500000 0.254749 0.750000
Si Si2 0.281168 0.598946 0.271539
Si Si3 0.920124 0.004452 0.885982
Si Si4 0.903663 0.519325 0.713842
Si Si5 0.655677 0.350308 0.447623
O O1 0.474668 0.426072 0.859347
O O2 0.457733 0.080160 0.674494
O O3 0.240343 0.376190 0.276801
O O4 0.315846 0.477691 0.167420
O O5 0.191971 0.865172 0.580517
O O6 0.893703 0.764311 0.804432
O O7 0.908801 0.274161 0.814020
O O8 0.895364 0.991557 0.025219
O O9 0.863280 0.434511 0.599022
#
# Coordination Sequence:
#
# PCOD9295924 Si02
#       5
#     4   8   8   8   8
#     4   8  22  44  66 112 152 202 246 298 356 426
#     4  12  30  51  80 113 150 189 252 319 386 458
#     4  10  23  43  73 107 156 195 248 301 360 446
#     4  10  23  43  73 107 156 195 248 301 360 446
#     4  12  26  51  81 112 150 198 250 309 386 443
#
# _framework density 25.305838000000001
#
# number of rings (size 3 to 8) (size 9 to 14) (size 15 to 20)
#    1.333    0.000    2.222    2.000    3.111    6.222 
#    0.000    2.222    0.000    0.000    0.000    0.000 
#    0.000    0.000    0.000    0.000    0.000    0.000 
#
# Total GULP energy -100653.693894 kJ/mol
# GULP energy per Si atom -5591.871883 kJ/mol
# Density = 2.524824 g / cm^3
# Si number density = 25.305838 Si / 1000 Ang^3
#
#
#
# Elastic Constant Matrix: (Units=GPa)
#
#
# Indices 1 2 3 4 5 6 
#
# 1 113.2927 44.7099 62.8610 0.0000 -3.0756 0.0000
# 2 44.7099 138.4218 30.4354 0.0000 16.9526 0.0000
# 3 62.8610 30.4354 122.5760 0.0000 -1.3212 0.0000
# 4 0.0000 0.0000 0.0000 28.1376 0.0000 2.1856
# 5 -3.0756 16.9526 -1.3212 0.0000 47.7157 0.0000
# 6 0.0000 0.0000 0.0000 2.1856 0.0000 69.9469
#
#
#
# Elastic Compliance Matrix: (Units=1/GPa)
#
#
# Indices 1 2 3 4 5 6 
#
# 1 0.013564 -0.003262 -0.006126 0.000000 0.001864 0.000000
# 2 -0.003262 0.008810 -0.000551 0.000000 -0.003356 0.000000
# 3 -0.006126 -0.000551 0.011438 0.000000 0.000117 0.000000
# 4 0.000000 0.000000 0.000000 0.035626 0.000000 -0.001113
# 5 0.001864 -0.003356 0.000117 0.000000 0.022273 0.000000
# 6 0.000000 0.000000 0.000000 -0.001113 0.000000 0.014331
#
#
# Mechanical properties :
#
#
# Convention : Reuss Voigt Hill
#
# Bulk Modulus (GPa) = 71.76763 72.25590 72.01177
# Shear Modulus (GPa) = 38.29539 44.91235 41.60387
#
# Velocity S-wave (km/s) = 3.89434 4.21739 4.05908
# Velocity P-wave (km/s) = 6.97444 7.23396 7.10539
#
# Compressibility (1/GPa) = 0.01393386
#
# Stress axis : x y z
#
# Youngs Moduli (GPa) = 73.72644 113.50649 87.43039
#
# Poissons Ratio (x) = 0.37030 0.53558
# Poissons Ratio (y) = 0.24052 0.04814
# Poissons Ratio (z) = 0.45163 0.06250
#
# Static dielectric constant tensor:
#      x y z
#    x 2.083630 0.000000 -0.019680 
#    y 0.000000 1.964980 0.000000 
#    z -0.019680 0.000000 2.028380 
# 
# From -- ./inp_files/124731.got.cif
#   From: 2010.05.17/outbox.cif.g08.bks.cpg/sg15_63_cif.got.tgz:124731.got - 2010.06.03 18:47:42.
