data_PCOD9295943
_publ_section_title
;
Structure prediction by ZEFSAII (Michael W. Deem and Ramdas Pophale) SiO2 
 PCOD9295943
Probable space group: C 2/C
;
_chemical_formula_sum "Si O2"
_cell_formula_units_Z 52
_cell_length_a 16.821412
_cell_length_b 17.129005
_cell_length_c 7.923602
_cell_angle_alpha 90.000000
_cell_angle_beta 116.894044
_cell_angle_gamma 90.000000
_cell_volume 2036.134219
_symmetry_space_group_name_H-M "C 2/C"
_symmetry_group_IT_number 15
_symmetry_cell_setting 'monoclinic'
loop_
_space_group_symop_operation_xyz
x,y,z
-x,y,1/2-z
-x,-y,-z
x,-y,1/2+z
1/2+x,1/2+y,z
1/2-x,1/2+y,1/2-z
1/2-x,1/2-y,-z
1/2+x,1/2-y,1/2+z
loop_
_atom_site_type_symbol
_atom_site_label
_atom_site_fract_x
_atom_site_fract_y
_atom_site_fract_z
Si Si1 0.401439 0.581215 0.583867
Si Si2 0.406778 0.011453 0.318459
Si Si3 0.650763 0.580518 0.599186
Si Si4 0.313027 0.905017 0.001745
Si Si5 0.631432 0.250061 0.527307
Si Si6 0.678029 0.257555 0.175744
Si Si7 0.500000 0.149287 0.250000
O O1 0.500000 0.596739 0.750000
O O2 0.336213 0.578161 0.684625
O O3 0.402167 0.498397 0.491937
O O4 0.376183 0.656871 0.448878
O O5 0.324242 0.033637 0.358570
O O6 0.421702 0.088918 0.222087
O O7 0.500000 0.000000 0.500000
O O8 0.390400 0.933842 0.199387
O O9 0.726425 0.581445 0.529432
O O10 0.618749 0.670734 0.552258
O O11 0.325708 0.819727 0.938406
O O12 0.653211 0.243498 0.347148
O O13 0.716172 0.219080 0.711956
O O14 0.539005 0.202353 0.439335
#
# Coordination Sequence:
#
# PCOD9295943 Si02
#       7
#     8   8   8   8   8   8   4
#     4  11  24  47  71 100 135 177 231 292 348 420
#     4  12  26  44  70 106 144 187 229 291 361 427
#     4  11  26  44  71 104 133 185 233 284 356 410
#     4  12  25  46  70 103 147 184 238 291 351 428
#     4  10  23  43  74  98 137 186 237 286 354 420
#     4  10  24  46  68 103 140 184 237 294 342 420
#     4  12  22  44  72  98 136 186 232 274 362 422
#
# _framework density 25.538591
#
# number of rings (size 3 to 8) (size 9 to 14) (size 15 to 20)
#    0.000    0.923    3.846    1.846    6.462    1.231 
#    0.000    1.538    0.000    0.000    0.000    0.000 
#    0.000    0.000    0.000    0.000    0.000    0.000 
#
# Total GULP energy -145295.607813 kJ/mol
# GULP energy per Si atom -5588.292608 kJ/mol
# Density = 2.548046 g / cm^3
# Si number density = 25.538591 Si / 1000 Ang^3
#
#
#
# Elastic Constant Matrix: (Units=GPa)
#
#
# Indices 1 2 3 4 5 6 
#
# 1 85.2943 22.9249 5.8703 0.0000 -18.8753 0.0000
# 2 22.9249 181.2434 55.7164 0.0000 6.5564 0.0000
# 3 5.8703 55.7164 47.5182 0.0000 -6.7491 0.0000
# 4 0.0000 0.0000 0.0000 55.9793 0.0000 1.6520
# 5 -18.8753 6.5564 -6.7491 0.0000 28.1809 0.0000
# 6 0.0000 0.0000 0.0000 1.6520 0.0000 30.7104
#
#
#
# Elastic Compliance Matrix: (Units=1/GPa)
#
#
# Indices 1 2 3 4 5 6 
#
# 1 0.015028 -0.003559 0.004000 0.000000 0.011852 0.000000
# 2 -0.003559 0.010083 -0.012479 0.000000 -0.007719 0.000000
# 3 0.004000 -0.012479 0.037243 0.000000 0.014502 0.000000
# 4 0.000000 0.000000 0.000000 0.017892 0.000000 -0.000962
# 5 0.011852 -0.007719 0.014502 0.000000 0.048692 0.000000
# 6 0.000000 0.000000 0.000000 -0.000962 0.000000 0.032614
#
#
# Mechanical properties :
#
#
# Convention : Reuss Voigt Hill
#
# Bulk Modulus (GPa) = 26.12538 53.67544 39.90041
# Shear Modulus (GPa) = 25.20311 38.27709 31.74010
#
# Velocity S-wave (km/s) = 3.14485 3.87563 3.52920
# Velocity P-wave (km/s) = 4.84136 6.41017 5.68019
#
# Compressibility (1/GPa) = 0.03827696
#
# Stress axis : x y z
#
# Youngs Moduli (GPa) = 66.54147 99.17507 26.85098
#
# Poissons Ratio (x) = 0.35300 -0.10741
# Poissons Ratio (y) = 0.23684 0.33508
# Poissons Ratio (z) = -0.26618 1.23764
#
# Static dielectric constant tensor:
#      x y z
#    x 2.159810 0.000000 -0.041270 
#    y 0.000000 2.032300 0.000000 
#    z -0.041270 0.000000 2.036200 
# 
# From -- ./inp_files/49245.got.cif
#   From: 2010.05.17/outbox.cif.g08.bks.cpg/sg15_25_cif.got.tgz:49245.got - 2010.06.03 18:47:42.
