data_PCOD9295518
_publ_section_title
;
Structure prediction by ZEFSAII (Michael W. Deem and Ramdas Pophale) SiO2 
 PCOD9295518
Probable space group: C 2/C
;
_chemical_formula_sum "Si O2"
_cell_formula_units_Z 60
_cell_length_a 14.424801
_cell_length_b 12.013932
_cell_length_c 17.005328
_cell_angle_alpha 90.000000
_cell_angle_beta 98.255645
_cell_angle_gamma 90.000000
_cell_volume 2916.460135
_symmetry_space_group_name_H-M "C 2/C"
_symmetry_group_IT_number 15
_symmetry_cell_setting 'monoclinic'
loop_
_space_group_symop_operation_xyz
x,y,z
-x,y,1/2-z
-x,-y,-z
x,-y,1/2+z
1/2+x,1/2+y,z
1/2-x,1/2+y,1/2-z
1/2-x,1/2-y,-z
1/2+x,1/2-y,1/2+z
loop_
_atom_site_type_symbol
_atom_site_label
_atom_site_fract_x
_atom_site_fract_y
_atom_site_fract_z
Si Si1 0.037296 0.135829 0.040906
Si Si2 0.521906 0.566099 0.869816
Si Si3 0.393516 0.835143 0.206186
Si Si4 0.332811 0.312720 0.552406
Si Si5 0.000000 0.257976 0.750000
Si Si6 0.713886 0.507578 0.848083
Si Si7 0.690505 0.760814 0.141050
Si Si8 0.176894 0.579030 0.292352
O O1 0.096936 0.237723 0.080742
O O2 0.926683 0.160180 0.015507
O O3 0.070280 0.100668 0.958541
O O4 0.041132 0.037041 0.107327
O O5 0.483784 0.675730 0.822561
O O6 0.602430 0.522299 0.820312
O O7 0.500000 0.837738 0.250000
O O8 0.374600 0.757328 0.130095
O O9 0.334718 0.784247 0.271172
O O10 0.360706 0.960411 0.182240
O O11 0.250000 0.250000 0.500000
O O12 0.285039 0.422859 0.580335
O O13 0.090049 0.337264 0.768882
O O14 0.755368 0.627437 0.875052
O O15 0.769167 0.454938 0.781534
O O16 0.752853 0.649600 0.144811
#
# Coordination Sequence:
#
# PCOD9295518 Si02
#       8
#     8   8   8   8   4   8   8   8
#     4  10  24  42  66  96 132 172 225 274 336 395
#     4  10  24  42  65  94 131 169 219 277 324 403
#     4  11  22  42  66  95 133 173 225 267 335 407
#     4  11  24  43  67  97 136 181 221 277 335 407
#     4  12  24  42  64  94 134 174 218 272 340 402
#     4  10  23  43  62  99 129 164 228 269 325 406
#     4  11  22  41  69  94 125 175 216 285 328 389
#     4  11  24  39  66  99 131 170 219 277 333 402
#
# _framework density 20.572886
#
# number of rings (size 3 to 8) (size 9 to 14) (size 15 to 20)
#    0.000    1.333    4.667    0.000    3.733    3.733 
#    2.400    0.667    0.000    0.000    0.000    0.000 
#    0.000    0.000    0.000    0.000    0.000    0.000 
#
# Total GULP energy -167443.234088 kJ/mol
# GULP energy per Si atom -5581.441136 kJ/mol
# Density = 2.052606 g / cm^3
# Si number density = 20.572886 Si / 1000 Ang^3
#
#
#
# Elastic Constant Matrix: (Units=GPa)
#
#
# Indices 1 2 3 4 5 6 
#
# 1 85.0165 28.8315 21.3669 0.0000 -2.2731 0.0000
# 2 28.8315 112.5542 29.8667 0.0000 2.5270 0.0000
# 3 21.3669 29.8667 41.2093 0.0000 -1.0414 0.0000
# 4 0.0000 0.0000 0.0000 19.6671 0.0000 12.3575
# 5 -2.2731 2.5270 -1.0414 0.0000 24.3014 0.0000
# 6 0.0000 0.0000 0.0000 12.3575 0.0000 34.0598
#
#
#
# Elastic Compliance Matrix: (Units=1/GPa)
#
#
# Indices 1 2 3 4 5 6 
#
# 1 0.013932 -0.002091 -0.005676 0.000000 0.001277 0.000000
# 2 -0.002091 0.011368 -0.007197 0.000000 -0.001686 0.000000
# 3 -0.005676 -0.007197 0.032466 0.000000 0.001609 0.000000
# 4 0.000000 0.000000 0.000000 0.065861 0.000000 -0.023895
# 5 0.001277 -0.001686 0.001609 0.000000 0.041514 0.000000
# 6 0.000000 0.000000 0.000000 -0.023895 0.000000 0.038030
#
#
# Mechanical properties :
#
#
# Convention : Reuss Voigt Hill
#
# Bulk Modulus (GPa) = 35.92275 44.32337 40.12306
# Shear Modulus (GPa) = 20.62886 26.18666 23.40776
#
# Velocity S-wave (km/s) = 3.17001 3.57160 3.37678
# Velocity P-wave (km/s) = 5.55857 6.21287 5.89481
#
# Compressibility (1/GPa) = 0.02783751
#
# Stress axis : x y z
#
# Youngs Moduli (GPa) = 71.77557 87.96613 30.80129
#
# Poissons Ratio (x) = 0.18398 0.17482
# Poissons Ratio (y) = 0.15011 0.22168
# Poissons Ratio (z) = 0.40738 0.63311
#
# Static dielectric constant tensor:
#      x y z
#    x 1.773290 0.000000 -0.003880 
#    y 0.000000 1.769610 0.000000 
#    z -0.003880 0.000000 1.741290 
# 
# From -- ./inp_files/204516.got.cif
#   From: 2010.05.17/outbox.cif.g08.bks.cpg/sg15_103_cif.got.tgz:204516.got - 2010.06.03 18:47:42.
