data_PCOD9295478
_publ_section_title
;
Structure prediction by ZEFSAII (Michael W. Deem and Ramdas Pophale) SiO2 
 PCOD9295478
Probable space group: C 2/C
;
_chemical_formula_sum "Si O2"
_cell_formula_units_Z 40
_cell_length_a 15.091566
_cell_length_b 13.769882
_cell_length_c 9.198253
_cell_angle_alpha 90.000000
_cell_angle_beta 74.135304
_cell_angle_gamma 90.000000
_cell_volume 1838.672100
_symmetry_space_group_name_H-M "C 2/C"
_symmetry_group_IT_number 15
_symmetry_cell_setting 'monoclinic'
loop_
_space_group_symop_operation_xyz
x,y,z
-x,y,1/2-z
-x,-y,-z
x,-y,1/2+z
1/2+x,1/2+y,z
1/2-x,1/2+y,1/2-z
1/2-x,1/2-y,-z
1/2+x,1/2-y,1/2+z
loop_
_atom_site_type_symbol
_atom_site_label
_atom_site_fract_x
_atom_site_fract_y
_atom_site_fract_z
Si Si1 0.404423 0.043503 0.720203
Si Si2 0.862650 0.628410 0.427200
Si Si3 0.228012 0.160774 0.907325
Si Si4 0.063810 0.968068 0.603738
Si Si5 0.158974 0.834433 0.121034
O O1 0.500000 0.075457 0.750000
O O2 0.398007 0.069023 0.552409
O O3 0.319016 0.098186 0.833895
O O4 0.391023 0.930668 0.771149
O O5 0.893282 0.740917 0.419103
O O6 0.751401 0.638651 0.489450
O O7 0.191997 0.194768 0.766512
O O8 0.250000 0.250000 0.000000
O O9 0.149566 0.094774 0.014173
O O10 0.000000 0.915075 0.750000
O O11 0.101512 0.067647 0.656067
O O12 0.000000 0.000000 0.500000
#
# Coordination Sequence:
#
# PCOD9295478 Si02
#       5
#     8   8   8   8   8
#     4  11  24  44  68 103 135 184 230 285 355 427
#     4  10  23  42  73  96 142 179 232 286 354 428
#     4  11  26  44  73 102 142 188 236 300 359 423
#     4  12  25  45  74 105 144 189 245 300 366 431
#     4  10  23  45  68 104 137 188 234 293 358 428
#
# _framework density 21.754830999999999
#
# number of rings (size 3 to 8) (size 9 to 14) (size 15 to 20)
#    0.000    1.200    4.000    0.600    2.800    8.000 
#    0.000    0.000    0.000    0.000    0.000    0.000 
#    0.000    0.000    0.000    0.000    0.000    0.000 
#
# Total GULP energy -111874.602259 kJ/mol
# GULP energy per Si atom -5593.730113 kJ/mol
# Density = 2.170532 g / cm^3
# Si number density = 21.754831 Si / 1000 Ang^3
#
#
#
# Elastic Constant Matrix: (Units=GPa)
#
#
# Indices 1 2 3 4 5 6 
#
# 1 92.5898 33.0505 37.4798 0.0000 0.2001 0.0000
# 2 33.0505 100.5317 36.3500 0.0000 7.9562 0.0000
# 3 37.4798 36.3500 94.7671 0.0000 -0.5385 0.0000
# 4 0.0000 0.0000 0.0000 21.2700 0.0000 24.1851
# 5 0.2001 7.9562 -0.5385 0.0000 35.9921 0.0000
# 6 0.0000 0.0000 0.0000 24.1851 0.0000 8.2566
#
#
#
# Elastic Compliance Matrix: (Units=1/GPa)
#
#
# Indices 1 2 3 4 5 6 
#
# 1 0.013571 -0.002976 -0.004223 0.000000 0.000519 0.000000
# 2 -0.002976 0.012454 -0.003616 0.000000 -0.002790 0.000000
# 3 -0.004223 -0.003616 0.013615 0.000000 0.001026 0.000000
# 4 0.000000 0.000000 0.000000 -0.020172 0.000000 0.059089
# 5 0.000519 -0.002790 0.001026 0.000000 0.028413 0.000000
# 6 0.000000 0.000000 0.000000 0.059089 0.000000 -0.051967
#
#
# Mechanical properties :
#
#
# Convention : Reuss Voigt Hill
#
# Bulk Modulus (GPa) = 55.52243 55.73880 55.63061
# Shear Modulus (GPa) = 212.35289 25.17096 118.76192
#
# Velocity S-wave (km/s) = 9.89059 3.40520 7.39659
# Velocity P-wave (km/s) = 12.49035 6.41385 9.92840
#
# Compressibility (1/GPa) = 0.01801074
#
# Stress axis : x y z
#
# Youngs Moduli (GPa) = 73.68782 80.29781 73.44806
#
# Poissons Ratio (x) = 0.23894 0.31016
# Poissons Ratio (y) = 0.21927 0.26558
# Poissons Ratio (z) = 0.31117 0.29035
#
# Static dielectric constant tensor:
#      x y z
#    x 1.804710 0.000000 -0.013250 
#    y 0.000000 1.795990 0.000000 
#    z -0.013250 0.000000 1.805610 
# 
# From -- ./inp_files/37859.got.cif
#   From: 2010.05.17/outbox.cif.g08.bks.cpg/sg15_19_cif.got.tgz:37859.got - 2010.06.03 18:47:42.
