data_PCOD9295139
_publ_section_title
;
Structure prediction by ZEFSAII (Michael W. Deem and Ramdas Pophale) SiO2 
 PCOD9295139
Probable space group: C 2/C
;
_chemical_formula_sum "Si O2"
_cell_formula_units_Z 36
_cell_length_a 19.969043
_cell_length_b 8.746641
_cell_length_c 14.047670
_cell_angle_alpha 90.000000
_cell_angle_beta 35.804390
_cell_angle_gamma 90.000000
_cell_volume 1435.401606
_symmetry_space_group_name_H-M "C 2/C"
_symmetry_group_IT_number 15
_symmetry_cell_setting 'monoclinic'
loop_
_space_group_symop_operation_xyz
x,y,z
-x,y,1/2-z
-x,-y,-z
x,-y,1/2+z
1/2+x,1/2+y,z
1/2-x,1/2+y,1/2-z
1/2-x,1/2-y,-z
1/2+x,1/2-y,1/2+z
loop_
_atom_site_type_symbol
_atom_site_label
_atom_site_fract_x
_atom_site_fract_y
_atom_site_fract_z
Si Si1 0.000000 0.180557 0.250000
Si Si2 0.318897 0.902101 0.989508
Si Si3 0.461550 0.115815 0.961332
Si Si4 0.875615 0.078013 0.646355
Si Si5 0.808191 0.943009 0.538473
O O1 0.036684 0.278944 0.301112
O O2 0.895665 0.072007 0.401206
O O3 0.189615 0.920514 0.179020
O O4 0.306410 0.938133 0.892757
O O5 0.356003 0.728815 0.969468
O O6 0.394415 0.016512 0.961402
O O7 0.390310 0.248491 0.096273
O O8 0.500000 0.000000 0.000000
O O9 0.797401 0.987218 0.660926
O O10 0.000000 0.000000 0.500000
#
# Coordination Sequence:
#
# PCOD9295139 Si02
#       5
#     4   8   8   8   8
#     4  10  24  44  66  94 134 174 212 270 334 388
#     4  11  23  40  67  98 129 173 223 269 324 392
#     4  11  25  41  66  99 132 174 220 269 322 392
#     4  11  23  42  67  96 135 175 215 273 333 388
#     4  10  23  42  65  94 131 173 218 270 328 391
#
# _framework density 25.080089999999998
#
# number of rings (size 3 to 8) (size 9 to 14) (size 15 to 20)
#    0.000    1.333    0.000    5.333    0.000   11.556 
#    0.000    0.000    0.000    0.000    0.000    0.000 
#    0.000    0.000    0.000    0.000    0.000    0.000 
#
# Total GULP energy -100718.617291 kJ/mol
# GULP energy per Si atom -5595.478738 kJ/mol
# Density = 2.502301 g / cm^3
# Si number density = 25.080090 Si / 1000 Ang^3
#
#
#
# Elastic Constant Matrix: (Units=GPa)
#
#
# Indices 1 2 3 4 5 6 
#
# 1 130.2047 66.9119 8.3661 0.0000 27.3663 0.0000
# 2 66.9119 182.4019 26.5717 0.0000 -6.0662 0.0000
# 3 8.3661 26.5717 80.6090 0.0000 16.0052 0.0000
# 4 0.0000 0.0000 0.0000 45.8715 0.0000 6.1680
# 5 27.3663 -6.0662 16.0052 0.0000 32.1964 0.0000
# 6 0.0000 0.0000 0.0000 6.1680 0.0000 68.0001
#
#
#
# Elastic Compliance Matrix: (Units=1/GPa)
#
#
# Indices 1 2 3 4 5 6 
#
# 1 0.013508 -0.005924 0.003386 0.000000 -0.014281 0.000000
# 2 -0.005924 0.008507 -0.003892 0.000000 0.008572 0.000000
# 3 0.003386 -0.003892 0.015593 0.000000 -0.011363 0.000000
# 4 0.000000 0.000000 0.000000 0.022069 0.000000 -0.002002
# 5 -0.014281 0.008572 -0.011363 0.000000 0.050462 0.000000
# 6 0.000000 0.000000 0.000000 -0.002002 0.000000 0.014887
#
#
# Mechanical properties :
#
#
# Convention : Reuss Voigt Hill
#
# Bulk Modulus (GPa) = 40.40265 66.32390 53.36328
# Shear Modulus (GPa) = 34.21470 48.63801 41.42635
#
# Velocity S-wave (km/s) = 3.69754 4.40853 4.06860
# Velocity P-wave (km/s) = 5.86289 7.23988 6.58746
#
# Compressibility (1/GPa) = 0.02475085
#
# Stress axis : x y z
#
# Youngs Moduli (GPa) = 74.02797 117.54416 64.13089
#
# Poissons Ratio (x) = 0.69629 -0.21716
# Poissons Ratio (y) = 0.43852 0.24958
# Poissons Ratio (z) = -0.25068 0.45744
#
# Static dielectric constant tensor:
#      x y z
#    x 1.987810 0.000000 -0.029900 
#    y 0.000000 1.947120 0.000000 
#    z -0.029900 0.000000 2.067970 
# 
# From -- ./inp_files/159061.got.cif
#   From: 2010.05.17/outbox.cif.g08.bks.cpg/sg15_80_cif.got.tgz:159061.got - 2010.06.03 18:47:42.
