data_PCOD9295688
_publ_section_title
;
Structure prediction by ZEFSAII (Michael W. Deem and Ramdas Pophale) SiO2 
 PCOD9295688
Probable space group: C 2/C
;
_chemical_formula_sum "Si O2"
_cell_formula_units_Z 32
_cell_length_a 8.278442
_cell_length_b 16.690376
_cell_length_c 19.176589
_cell_angle_alpha 90.000000
_cell_angle_beta 31.827416
_cell_angle_gamma 90.000000
_cell_volume 1397.318022
_symmetry_space_group_name_H-M "C 2/C"
_symmetry_group_IT_number 15
_symmetry_cell_setting 'monoclinic'
loop_
_space_group_symop_operation_xyz
x,y,z
-x,y,1/2-z
-x,-y,-z
x,-y,1/2+z
1/2+x,1/2+y,z
1/2-x,1/2+y,1/2-z
1/2-x,1/2-y,-z
1/2+x,1/2-y,1/2+z
loop_
_atom_site_type_symbol
_atom_site_label
_atom_site_fract_x
_atom_site_fract_y
_atom_site_fract_z
Si Si1 0.965532 0.445040 0.944163
Si Si2 0.751595 0.219791 0.391124
Si Si3 0.282074 0.513034 0.687032
Si Si4 0.856159 0.165439 0.118446
O O1 0.107693 0.358464 0.907707
O O2 0.149614 0.485082 0.811588
O O3 0.598737 0.439612 0.070606
O O4 0.000000 0.500000 0.000000
O O5 0.504427 0.285058 0.502187
O O6 0.000000 0.257235 0.250000
O O7 0.941700 0.190073 0.388893
O O8 0.360032 0.430594 0.616882
O O9 0.000000 0.552182 0.750000
O O10 0.500000 0.188176 0.250000
#
# Coordination Sequence:
#
# PCOD9295688 Si02
#       4
#     8   8   8   8
#     4  12  22  43  72 100 137 184 232 282 344 419
#     4  11  22  44  69  99 135 183 232 281 342 417
#     4  11  24  45  68 104 143 178 226 296 348 409
#     4  10  23  43  67  97 141 177 226 288 347 403
#
# _framework density 22.901014
#
# number of rings (size 3 to 8) (size 9 to 14) (size 15 to 20)
#    0.000    1.000    5.000    1.500    0.000    3.000 
#    0.000    1.250    0.000    0.000    0.000    0.000 
#    0.000    0.000    0.000    0.000    0.000    0.000 
#
# Total GULP energy -89563.710474 kJ/mol
# GULP energy per Si atom -5597.731905 kJ/mol
# Density = 2.284889 g / cm^3
# Si number density = 22.901014 Si / 1000 Ang^3
#
#
#
# Elastic Constant Matrix: (Units=GPa)
#
#
# Indices 1 2 3 4 5 6 
#
# 1 98.9689 38.6931 68.3160 0.0126 -17.6691 0.0567
# 2 38.6931 88.7258 74.7161 0.0597 0.4978 0.0186
# 3 68.3160 74.7161 191.2374 -0.0170 -21.8604 0.0763
# 4 0.0126 0.0597 -0.0170 33.6873 0.0503 9.6770
# 5 -17.6691 0.4978 -21.8604 0.0503 53.5398 -0.0623
# 6 0.0567 0.0186 0.0763 9.6770 -0.0623 0.4128
#
#
#
# Elastic Compliance Matrix: (Units=1/GPa)
#
#
# Indices 1 2 3 4 5 6 
#
# 1 0.014410 -0.003420 -0.003424 -0.000033 0.003389 0.000094
# 2 -0.003420 0.018073 -0.006281 0.000017 -0.003861 -0.000156
# 3 -0.003424 -0.006281 0.009214 -0.000030 0.002691 0.000148
# 4 -0.000033 0.000017 -0.000030 -0.005176 0.000123 0.121354
# 5 0.003389 -0.003861 0.002691 0.000123 0.020930 -0.000513
# 6 0.000094 -0.000156 0.000148 0.121354 -0.000513 -0.422450
#
#
# Mechanical properties :
#
#
# Convention : Reuss Voigt Hill
#
# Bulk Modulus (GPa) = 64.73672 82.48696 73.61184
# Shear Modulus (GPa) = -14.98791 30.67511 7.84360
#
# Velocity S-wave (km/s) = -2.56103 3.66384 1.85268
# Velocity P-wave (km/s) = 4.42541 7.34816 6.06546
#
# Compressibility (1/GPa) = 0.01544718
#
# Stress axis : x y z
#
# Youngs Moduli (GPa) = 69.39717 55.33249 108.53434
#
# Poissons Ratio (x) = 0.18921 0.37165
# Poissons Ratio (y) = 0.23731 0.68167
# Poissons Ratio (z) = 0.23763 0.34752
#
# Static dielectric constant tensor:
#      x y z
#    x 1.988190 -0.000050 -0.028060 
#    y -0.000050 1.791000 0.000020 
#    z -0.028060 0.000020 1.887630 
# 
# From -- ./inp_files/22135.got.cif
#   From: 2010.05.17/outbox.cif.g08.bks.cpg/sg15_12_cif.got.tgz:22135.got - 2010.06.03 18:47:42.
