data_PCOD9295774
_publ_section_title
;
Structure prediction by ZEFSAII (Michael W. Deem and Ramdas Pophale) SiO2 
 PCOD9295774
Probable space group: C 2/C
;
_chemical_formula_sum "Si O2"
_cell_formula_units_Z 60
_cell_length_a 28.303923
_cell_length_b 13.333898
_cell_length_c 21.777088
_cell_angle_alpha 90.000000
_cell_angle_beta 20.469585
_cell_angle_gamma 90.000000
_cell_volume 2874.165374
_symmetry_space_group_name_H-M "C 2/C"
_symmetry_group_IT_number 15
_symmetry_cell_setting 'monoclinic'
loop_
_space_group_symop_operation_xyz
x,y,z
-x,y,1/2-z
-x,-y,-z
x,-y,1/2+z
1/2+x,1/2+y,z
1/2-x,1/2+y,1/2-z
1/2-x,1/2-y,-z
1/2+x,1/2-y,1/2+z
loop_
_atom_site_type_symbol
_atom_site_label
_atom_site_fract_x
_atom_site_fract_y
_atom_site_fract_z
Si Si1 0.152164 0.776845 0.763388
Si Si2 0.783625 0.048937 0.411589
Si Si3 0.000000 0.556177 0.250000
Si Si4 0.404261 0.194303 0.479168
Si Si5 0.227269 0.927599 0.436668
Si Si6 0.922028 0.427327 0.640545
Si Si7 0.830412 0.262101 0.669835
Si Si8 0.984447 0.083095 0.842522
O O1 0.186953 0.870835 0.677103
O O2 0.212638 0.675181 0.660800
O O3 0.237233 0.780402 0.723392
O O4 0.988004 0.766196 0.967146
O O5 0.817660 0.088784 0.438723
O O6 0.628929 0.014850 0.602528
O O7 0.877384 0.950435 0.293462
O O8 0.954492 0.628459 0.361043
O O9 0.485454 0.152901 0.438459
O O10 0.248195 0.185107 0.689713
O O11 0.436442 0.310604 0.426771
O O12 0.345878 0.009632 0.285078
O O13 0.111578 0.983988 0.537947
O O14 0.827785 0.365531 0.710310
O O15 0.000000 0.500000 0.500000
O O16 0.000000 0.098914 0.750000
#
# Coordination Sequence:
#
# PCOD9295774 Si02
#       8
#     8   8   4   8   8   8   8   8
#     4  12  27  48  73 106 150 194 251 293 365 442
#     4  11  27  44  70 108 142 187 246 306 365 425
#     4  12  28  44  74 106 144 186 238 316 362 434
#     4  12  25  46  73 108 144 190 246 302 373 434
#     4  11  22  47  73 100 144 196 240 298 370 433
#     4  12  24  44  72 102 148 194 244 289 364 451
#     4  12  26  46  73 107 144 199 237 299 361 436
#     4  10  23  43  69 106 141 179 238 305 370 423
#
# _framework density 20.875624999999999
#
# number of rings (size 3 to 8) (size 9 to 14) (size 15 to 20)
#    0.000    0.533    6.000    1.200    5.600    0.533 
#    3.600    1.333    0.000    0.000    0.000    0.000 
#    0.000    0.000    0.000    0.000    0.000    0.000 
#
# Total GULP energy -167400.378240 kJ/mol
# GULP energy per Si atom -5580.012608 kJ/mol
# Density = 2.082811 g / cm^3
# Si number density = 20.875625 Si / 1000 Ang^3
#
#
#
# Elastic Constant Matrix: (Units=GPa)
#
#
# Indices 1 2 3 4 5 6 
#
# 1 118.9139 53.0079 55.3021 -0.0001 4.2789 -0.0001
# 2 53.0079 96.2496 50.3821 0.0000 2.7499 -0.0001
# 3 55.3021 50.3821 122.5071 -0.0001 0.7590 -0.0004
# 4 -0.0001 0.0000 -0.0001 28.8385 0.0001 20.0749
# 5 4.2789 2.7499 0.7590 0.0001 32.7150 0.0001
# 6 -0.0001 -0.0001 -0.0004 20.0749 0.0001 67.7477
#
#
#
# Elastic Compliance Matrix: (Units=1/GPa)
#
#
# Indices 1 2 3 4 5 6 
#
# 1 0.012262 -0.004877 -0.003522 0.000000 -0.001112 0.000000
# 2 -0.004877 0.015212 -0.004051 0.000000 -0.000547 0.000000
# 3 -0.003522 -0.004051 0.011416 0.000000 0.000536 0.000000
# 4 0.000000 0.000000 0.000000 0.043687 0.000000 -0.012945
# 5 -0.001112 -0.000547 0.000536 0.000000 0.030746 0.000000
# 6 0.000000 0.000000 0.000000 -0.012945 0.000000 0.018597
#
#
# Mechanical properties :
#
#
# Convention : Reuss Voigt Hill
#
# Bulk Modulus (GPa) = 71.49108 72.78387 72.13748
# Shear Modulus (GPa) = 30.96299 37.79214 34.37757
#
# Velocity S-wave (km/s) = 3.85543 4.25943 4.06246
# Velocity P-wave (km/s) = 7.35796 7.68970 7.52566
#
# Compressibility (1/GPa) = 0.01398776
#
# Stress axis : x y z
#
# Youngs Moduli (GPa) = 81.55421 65.73825 87.59986
#
# Poissons Ratio (x) = 0.32063 0.30857
# Poissons Ratio (y) = 0.39777 0.35486
# Poissons Ratio (z) = 0.28727 0.26630
#
# Static dielectric constant tensor:
#      x y z
#    x 1.934220 0.000000 0.078840 
#    y 0.000000 1.738560 0.000000 
#    z 0.078840 0.000000 1.868080 
# 
# From -- ./inp_files/257863.got.cif
#   From: 2010.05.17/outbox.cif.g08.bks.cpg/sg15_129_cif.got.tgz:257863.got - 2010.06.03 18:47:42.
