data_PCOD9295921
_publ_section_title
;
Structure prediction by ZEFSAII (Michael W. Deem and Ramdas Pophale) SiO2 
 PCOD9295921
Probable space group: C 2/C
;
_chemical_formula_sum "Si O2"
_cell_formula_units_Z 48
_cell_length_a 28.401170
_cell_length_b 5.631634
_cell_length_c 13.561478
_cell_angle_alpha 90.000000
_cell_angle_beta 64.376683
_cell_angle_gamma 90.000000
_cell_volume 1955.774812
_symmetry_space_group_name_H-M "C 2/C"
_symmetry_group_IT_number 15
_symmetry_cell_setting 'monoclinic'
loop_
_space_group_symop_operation_xyz
x,y,z
-x,y,1/2-z
-x,-y,-z
x,-y,1/2+z
1/2+x,1/2+y,z
1/2-x,1/2+y,1/2-z
1/2-x,1/2-y,-z
1/2+x,1/2-y,1/2+z
loop_
_atom_site_type_symbol
_atom_site_label
_atom_site_fract_x
_atom_site_fract_y
_atom_site_fract_z
Si Si1 0.716428 0.851288 0.176221
Si Si2 0.057544 0.075948 0.980921
Si Si3 0.447146 0.902356 0.329494
Si Si4 0.243969 0.351314 0.373477
Si Si5 0.368353 0.723247 0.947650
Si Si6 0.387091 0.411231 0.750592
O O1 0.741280 0.615550 0.103869
O O2 0.747591 0.872176 0.251507
O O3 0.656248 0.774083 0.248751
O O4 0.723178 0.115882 0.125161
O O5 0.094002 0.093092 0.850720
O O6 0.052248 0.294368 0.061244
O O7 0.088131 0.877395 0.016652
O O8 0.000000 0.000000 0.000000
O O9 0.500000 0.034123 0.250000
O O10 0.438690 0.706153 0.251904
O O11 0.395468 0.055254 0.372139
O O12 0.184653 0.289686 0.452029
O O13 0.361144 0.531023 0.869119
#
# Coordination Sequence:
#
# PCOD9295921 Si02
#       6
#     8   8   8   8   8   8
#     4  10  23  43  73 102 145 188 244 300 366 438
#     4  11  24  46  69  97 142 188 231 297 363 432
#     4  11  26  44  69 105 142 181 243 299 360 440
#     4  10  23  44  70 106 141 190 243 303 364 434
#     4  11  27  42  69 104 140 183 240 301 355 439
#     4  11  25  45  69 101 140 187 238 292 368 430
#
# _framework density 24.542701999999998
#
# number of rings (size 3 to 8) (size 9 to 14) (size 15 to 20)
#    0.000    1.333    3.333    0.000    9.333    4.667 
#    0.000    0.000    0.000    0.000    0.000    0.000 
#    0.000    0.000    0.000    0.000    0.000    0.000 
#
# Total GULP energy -134120.644435 kJ/mol
# GULP energy per Si atom -5588.360185 kJ/mol
# Density = 2.448684 g / cm^3
# Si number density = 24.542702 Si / 1000 Ang^3
#
#
#
# Elastic Constant Matrix: (Units=GPa)
#
#
# Indices 1 2 3 4 5 6 
#
# 1 102.9215 30.0245 29.4024 0.0000 -2.8471 0.0000
# 2 30.0245 95.6111 27.3887 0.0000 -2.1633 0.0000
# 3 29.4024 27.3887 71.6346 0.0000 -8.8575 0.0000
# 4 0.0000 0.0000 0.0000 18.8745 0.0000 -3.7248
# 5 -2.8471 -2.1633 -8.8575 0.0000 51.5784 0.0000
# 6 0.0000 0.0000 0.0000 -3.7248 0.0000 34.2063
#
#
#
# Elastic Compliance Matrix: (Units=1/GPa)
#
#
# Indices 1 2 3 4 5 6 
#
# 1 0.011533 -0.002543 -0.003776 0.000000 -0.000119 0.000000
# 2 -0.002543 0.012310 -0.003695 0.000000 -0.000259 0.000000
# 3 -0.003776 -0.003695 0.017244 0.000000 0.002598 0.000000
# 4 0.000000 0.000000 0.000000 0.054145 0.000000 0.005896
# 5 -0.000119 -0.000259 0.002598 0.000000 0.019817 0.000000
# 6 0.000000 0.000000 0.000000 0.005896 0.000000 0.029876
#
#
# Mechanical properties :
#
#
# Convention : Reuss Voigt Hill
#
# Bulk Modulus (GPa) = 47.48526 49.31093 48.39810
# Shear Modulus (GPa) = 29.07427 33.15527 31.11477
#
# Velocity S-wave (km/s) = 3.44559 3.67948 3.56445
# Velocity P-wave (km/s) = 5.93460 6.17956 6.05832
#
# Compressibility (1/GPa) = 0.02105917
#
# Stress axis : x y z
#
# Youngs Moduli (GPa) = 86.70425 81.23391 57.99215
#
# Poissons Ratio (x) = 0.20656 0.21900
# Poissons Ratio (y) = 0.22046 0.21428
# Poissons Ratio (z) = 0.32743 0.30016
#
# Static dielectric constant tensor:
#      x y z
#    x 1.969530 0.000000 0.015860 
#    y 0.000000 1.996490 0.000000 
#    z 0.015860 0.000000 1.920900 
# 
# From -- ./inp_files/180014.got.cif
#   From: 2010.05.17/outbox.cif.g08.bks.cpg/sg15_91_cif.got.tgz:180014.got - 2010.06.03 18:47:42.
