data_PCOD9295724
_publ_section_title
;
Structure prediction by ZEFSAII (Michael W. Deem and Ramdas Pophale) SiO2 
 PCOD9295724
Probable space group: C 2/C
;
_chemical_formula_sum "Si O2"
_cell_formula_units_Z 64
_cell_length_a 8.757395
_cell_length_b 12.068100
_cell_length_c 24.802117
_cell_angle_alpha 90.000000
_cell_angle_beta 67.182040
_cell_angle_gamma 90.000000
_cell_volume 2416.082702
_symmetry_space_group_name_H-M "C 2/C"
_symmetry_group_IT_number 15
_symmetry_cell_setting 'monoclinic'
loop_
_space_group_symop_operation_xyz
x,y,z
-x,y,1/2-z
-x,-y,-z
x,-y,1/2+z
1/2+x,1/2+y,z
1/2-x,1/2+y,1/2-z
1/2-x,1/2-y,-z
1/2+x,1/2-y,1/2+z
loop_
_atom_site_type_symbol
_atom_site_label
_atom_site_fract_x
_atom_site_fract_y
_atom_site_fract_z
Si Si1 0.720397 0.636653 0.626187
Si Si2 0.985061 0.714645 0.421158
Si Si3 0.239996 0.501346 0.544031
Si Si4 0.272849 0.008925 0.724048
Si Si5 0.146498 0.428512 0.169380
Si Si6 0.144488 0.066771 0.074403
Si Si7 0.042206 0.715206 0.537677
Si Si8 0.145885 0.172373 0.172396
O O1 0.570508 0.694143 0.614930
O O2 0.703499 0.598107 0.690128
O O3 0.761105 0.525826 0.586183
O O4 0.875221 0.716163 0.595892
O O5 0.850962 0.615750 0.439215
O O6 0.996462 0.745538 0.482760
O O7 0.167858 0.677199 0.378698
O O8 0.259741 0.546126 0.602123
O O9 0.381415 0.504691 0.478949
O O10 0.112998 0.591860 0.535611
O O11 0.265670 0.042765 0.786878
O O12 0.472965 0.005046 0.686155
O O13 0.180515 0.894386 0.722352
O O14 0.094417 0.299449 0.180971
O O15 0.156665 0.192366 0.049462
O O16 0.045694 0.098262 0.142842
#
# Coordination Sequence:
#
# PCOD9295724 Si02
#       8
#     8   8   8   8   8   8   8   8
#     4  11  24  42  56  91 136 167 204 259 323 383
#     4  12  24  37  62  98 132 166 201 260 326 381
#     4  12  20  38  63  95 122 157 220 257 310 377
#     4  10  23  43  68  90 120 164 216 263 315 374
#     4  11  22  41  69  94 115 165 219 264 311 381
#     4  11  22  38  66  90 124 169 209 261 314 378
#     4  12  21  39  61  91 127 171 206 257 315 382
#     4  11  21  42  68  92 122 161 214 266 310 373
#
# _framework density 26.489159000000001
#
# number of rings (size 3 to 8) (size 9 to 14) (size 15 to 20)
#    0.000    0.750    6.250    2.625    0.000    1.500 
#    2.250    0.000   11.000    0.000    0.000    0.000 
#    0.000    0.000    0.000    0.000    0.000    0.000 
#
# Total GULP energy -178692.020664 kJ/mol
# GULP energy per Si atom -5584.125646 kJ/mol
# Density = 2.642887 g / cm^3
# Si number density = 26.489159 Si / 1000 Ang^3
#
#
#
# Elastic Constant Matrix: (Units=GPa)
#
#
# Indices 1 2 3 4 5 6 
#
# 1 74.2407 57.3679 44.0004 0.0000 22.9431 0.0000
# 2 57.3679 89.0303 39.7277 0.0000 20.0974 0.0000
# 3 44.0004 39.7277 215.3849 0.0000 40.1166 0.0000
# 4 0.0000 0.0000 0.0000 39.3800 0.0000 13.8992
# 5 22.9431 20.0974 40.1166 0.0000 50.0537 0.0000
# 6 0.0000 0.0000 0.0000 13.8992 0.0000 21.3756
#
#
#
# Elastic Compliance Matrix: (Units=1/GPa)
#
#
# Indices 1 2 3 4 5 6 
#
# 1 0.029135 -0.016772 -0.001910 0.000000 -0.005089 0.000000
# 2 -0.016772 0.022490 -0.000555 0.000000 -0.000897 0.000000
# 3 -0.001910 -0.000555 0.005796 0.000000 -0.003547 0.000000
# 4 0.000000 0.000000 0.000000 0.032957 0.000000 -0.021430
# 5 -0.005089 -0.000897 -0.003547 0.000000 0.025514 0.000000
# 6 0.000000 0.000000 0.000000 -0.021430 0.000000 0.060717
#
#
# Mechanical properties :
#
#
# Convention : Reuss Voigt Hill
#
# Bulk Modulus (GPa) = 52.78129 73.42753 63.10441
# Shear Modulus (GPa) = 22.58358 37.99919 30.29139
#
# Velocity S-wave (km/s) = 2.92303 3.79161 3.38529
# Velocity P-wave (km/s) = 5.60009 6.85189 6.25737
#
# Compressibility (1/GPa) = 0.01894611
#
# Stress axis : x y z
#
# Youngs Moduli (GPa) = 34.32279 44.46475 172.53031
#
# Poissons Ratio (x) = 0.74578 0.32960
# Poissons Ratio (y) = 0.57567 0.09570
# Poissons Ratio (z) = 0.06557 0.02466
#
# Static dielectric constant tensor:
#      x y z
#    x 2.116410 0.000000 -0.055020 
#    y 0.000000 2.070320 0.000000 
#    z -0.055020 0.000000 2.123160 
# 
# From -- ./inp_files/268886.got.cif
#   From: 2010.05.17/outbox.cif.g08.bks.cpg/sg15_135_cif.got.tgz:268886.got - 2010.06.03 18:47:42.
