data_PCOD9295777
_publ_section_title
;
Structure prediction by ZEFSAII (Michael W. Deem and Ramdas Pophale) SiO2 
 PCOD9295777
Probable space group: C 2/C
;
_chemical_formula_sum "Si O2"
_cell_formula_units_Z 36
_cell_length_a 15.540255
_cell_length_b 20.595349
_cell_length_c 7.740215
_cell_angle_alpha 90.000000
_cell_angle_beta 42.632911
_cell_angle_gamma 90.000000
_cell_volume 1677.878648
_symmetry_space_group_name_H-M "C 2/C"
_symmetry_group_IT_number 15
_symmetry_cell_setting 'monoclinic'
loop_
_space_group_symop_operation_xyz
x,y,z
-x,y,1/2-z
-x,-y,-z
x,-y,1/2+z
1/2+x,1/2+y,z
1/2-x,1/2+y,1/2-z
1/2-x,1/2-y,-z
1/2+x,1/2-y,1/2+z
loop_
_atom_site_type_symbol
_atom_site_label
_atom_site_fract_x
_atom_site_fract_y
_atom_site_fract_z
Si Si1 0.228943 0.915746 0.733701
Si Si2 0.360919 0.000405 0.787821
Si Si3 0.014536 0.156110 0.027359
Si Si4 0.292711 0.133699 0.487006
Si Si5 0.000000 0.261356 0.750000
O O1 0.325151 0.933653 0.437743
O O2 0.091680 0.897095 0.867942
O O3 0.245204 0.979498 0.831071
O O4 0.273600 0.861701 0.806020
O O5 0.500000 0.000000 0.500000
O O6 0.358233 0.936190 0.913620
O O7 0.000000 0.172318 0.250000
O O8 0.156026 0.132356 0.776784
O O9 0.995100 0.216358 0.926354
O O10 0.378024 0.192180 0.424262
#
# Coordination Sequence:
#
# PCOD9295777 Si02
#       5
#     8   8   8   8   4
#     4  10  24  44  74 102 149 186 233 300 368 425
#     4  10  23  43  69 108 142 182 239 291 365 440
#     4  12  27  49  71 107 142 196 252 291 369 433
#     4  10  26  45  74 102 146 191 233 312 358 433
#     4  12  24  52  74 100 152 188 250 312 354 422
#
# _framework density 21.455663999999999
#
# number of rings (size 3 to 8) (size 9 to 14) (size 15 to 20)
#    1.333    0.000    2.222    1.333    6.222    1.778 
#    4.000    0.000    0.000    0.000    0.000    0.000 
#    0.000    0.000    0.000    0.000    0.000    0.000 
#
# Total GULP energy -100355.971632 kJ/mol
# GULP energy per Si atom -5575.331757 kJ/mol
# Density = 2.140683 g / cm^3
# Si number density = 21.455664 Si / 1000 Ang^3
#
#
#
# Elastic Constant Matrix: (Units=GPa)
#
#
# Indices 1 2 3 4 5 6 
#
# 1 133.0580 54.1913 79.7802 0.0000 -4.9427 0.0000
# 2 54.1913 88.8866 84.7835 0.0000 -8.0193 0.0000
# 3 79.7802 84.7835 186.3601 0.0000 -20.6454 0.0000
# 4 0.0000 0.0000 0.0000 29.0731 0.0000 -3.3782
# 5 -4.9427 -8.0193 -20.6454 0.0000 39.8598 0.0000
# 6 0.0000 0.0000 0.0000 -3.3782 0.0000 2.8136
#
#
#
# Elastic Compliance Matrix: (Units=1/GPa)
#
#
# Indices 1 2 3 4 5 6 
#
# 1 0.010842 -0.003830 -0.003008 0.000000 -0.000984 0.000000
# 2 -0.003830 0.021247 -0.008069 0.000000 -0.000380 0.000000
# 3 -0.003008 -0.008069 0.010719 0.000000 0.003555 0.000000
# 4 0.000000 0.000000 0.000000 0.039973 0.000000 0.047995
# 5 -0.000984 -0.000380 0.003555 0.000000 0.026731 0.000000
# 6 0.000000 0.000000 0.000000 0.047995 0.000000 0.413046
#
#
# Mechanical properties :
#
#
# Convention : Reuss Voigt Hill
#
# Bulk Modulus (GPa) = 76.95538 93.97942 85.46740
# Shear Modulus (GPa) = 8.98143 26.98593 17.98368
#
# Velocity S-wave (km/s) = 2.04820 3.55033 2.89827
# Velocity P-wave (km/s) = 6.44504 7.79123 7.14989
#
# Compressibility (1/GPa) = 0.01299454
#
# Stress axis : x y z
#
# Youngs Moduli (GPa) = 92.22991 47.06474 93.29518
#
# Poissons Ratio (x) = 0.18024 0.28067
# Poissons Ratio (y) = 0.35320 0.75280
# Poissons Ratio (z) = 0.27747 0.37976
#
# Static dielectric constant tensor:
#      x y z
#    x 1.891130 0.000000 0.087080 
#    y 0.000000 1.771160 0.000000 
#    z 0.087080 0.000000 1.777710 
# 
# From -- ./inp_files/49546.got.cif
#   From: 2010.05.17/outbox.cif.g08.bks.cpg/sg15_25_cif.got.tgz:49546.got - 2010.06.03 18:47:42.
