data_PCOD9295157
_publ_section_title
;
Structure prediction by ZEFSAII (Michael W. Deem and Ramdas Pophale) SiO2 
 PCOD9295157
Probable space group: C 2/C
;
_chemical_formula_sum "Si O2"
_cell_formula_units_Z 60
_cell_length_a 8.506777
_cell_length_b 21.508817
_cell_length_c 21.218605
_cell_angle_alpha 90.000000
_cell_angle_beta 137.643408
_cell_angle_gamma 90.000000
_cell_volume 2615.727472
_symmetry_space_group_name_H-M "C 2/C"
_symmetry_group_IT_number 15
_symmetry_cell_setting 'monoclinic'
loop_
_space_group_symop_operation_xyz
x,y,z
-x,y,1/2-z
-x,-y,-z
x,-y,1/2+z
1/2+x,1/2+y,z
1/2-x,1/2+y,1/2-z
1/2-x,1/2-y,-z
1/2+x,1/2-y,1/2+z
loop_
_atom_site_type_symbol
_atom_site_label
_atom_site_fract_x
_atom_site_fract_y
_atom_site_fract_z
Si Si1 0.776846 0.753718 0.243809
Si Si2 0.905833 0.696463 0.077792
Si Si3 0.722415 0.433562 0.472719
Si Si4 0.738066 0.635120 0.660733
Si Si5 0.587256 0.833605 0.416532
Si Si6 0.847060 0.163829 0.125250
Si Si7 0.500000 0.549605 0.250000
Si Si8 0.577070 0.035521 0.607671
O O1 0.811496 0.811881 0.301763
O O2 0.637624 0.788382 0.145846
O O3 0.574716 0.705059 0.200357
O O4 0.015006 0.715245 0.327583
O O5 0.143458 0.689805 0.108633
O O6 0.750000 0.750000 0.000000
O O7 0.800534 0.628110 0.034450
O O8 0.446972 0.420567 0.389468
O O9 0.830836 0.440747 0.434177
O O10 0.841042 0.494557 0.537101
O O11 0.752195 0.672135 0.598040
O O12 0.000000 0.613110 0.750000
O O13 0.746721 0.832679 0.525209
O O14 0.478670 0.901159 0.375688
O O15 0.915654 0.094672 0.168589
O O16 0.720066 0.505902 0.302260
#
# Coordination Sequence:
#
# PCOD9295157 Si02
#       8
#     8   8   8   8   8   8   4   8
#     4  11  23  40  65  97 135 180 231 278 350 418
#     4  12  21  37  68  97 128 177 226 288 351 406
#     4  11  22  44  69  95 137 176 236 285 347 413
#     4  10  23  42  65  98 131 184 221 277 355 417
#     4  11  24  42  66 101 136 182 234 284 347 415
#     4  12  21  44  67  98 134 182 235 285 353 413
#     4  12  24  38  74 100 140 178 226 298 342 410
#     4  11  24  42  68 106 129 177 240 288 337 410
#
# _framework density 22.93817
#
# number of rings (size 3 to 8) (size 9 to 14) (size 15 to 20)
#    0.000    0.800    5.333    3.600    3.733    0.533 
#    0.000    0.000    0.000    1.600    0.000    0.000 
#    0.000    0.000    0.000    0.000    0.000    0.000 
#
# Total GULP energy -167378.418420 kJ/mol
# GULP energy per Si atom -5579.280614 kJ/mol
# Density = 2.288596 g / cm^3
# Si number density = 22.938170 Si / 1000 Ang^3
#
#
#
# Elastic Constant Matrix: (Units=GPa)
#
#
# Indices 1 2 3 4 5 6 
#
# 1 35.3682 17.2642 28.7917 -0.0001 3.3273 0.0000
# 2 17.2642 112.7595 39.2340 0.0000 24.9958 0.0000
# 3 28.7917 39.2340 162.1017 0.0000 1.5463 0.0000
# 4 -0.0001 0.0000 0.0000 14.2164 0.0000 8.7668
# 5 3.3273 24.9958 1.5463 0.0000 41.8191 0.0000
# 6 0.0000 0.0000 0.0000 8.7668 0.0000 34.8744
#
#
#
# Elastic Compliance Matrix: (Units=1/GPa)
#
#
# Indices 1 2 3 4 5 6 
#
# 1 0.034226 -0.003277 -0.005280 0.000000 -0.000569 0.000000
# 2 -0.003277 0.011580 -0.002158 0.000000 -0.006581 0.000000
# 3 -0.005280 -0.002158 0.007616 0.000000 0.001428 0.000000
# 4 0.000000 0.000000 0.000000 0.083246 0.000000 -0.020926
# 5 -0.000569 -0.006581 0.001428 0.000000 0.027838 0.000000
# 6 0.000000 0.000000 0.000000 -0.020926 0.000000 0.033935
#
#
# Mechanical properties :
#
#
# Convention : Reuss Voigt Hill
#
# Bulk Modulus (GPa) = 31.25902 53.42324 42.34113
# Shear Modulus (GPa) = 21.68879 33.17796 27.43338
#
# Velocity S-wave (km/s) = 3.07829 3.80729 3.46203
# Velocity P-wave (km/s) = 5.12753 6.53207 5.87195
#
# Compressibility (1/GPa) = 0.03199076
#
# Stress axis : x y z
#
# Youngs Moduli (GPa) = 29.21790 86.35764 131.31069
#
# Poissons Ratio (x) = 0.28296 0.69339
# Poissons Ratio (y) = 0.09574 0.28336
# Poissons Ratio (z) = 0.15428 0.18635
#
# Static dielectric constant tensor:
#      x y z
#    x 1.932930 0.000000 -0.085650 
#    y 0.000000 1.850490 0.000000 
#    z -0.085650 0.000000 2.032370 
# 
# From -- ./inp_files/266243.got.cif
#   From: 2010.05.17/outbox.cif.g08.bks.cpg/sg15_134_cif.got.tgz:266243.got - 2010.06.03 18:47:42.
