data_PCOD9295868
_publ_section_title
;
Structure prediction by ZEFSAII (Michael W. Deem and Ramdas Pophale) SiO2 
 PCOD9295868
Probable space group: C 2/C
;
_chemical_formula_sum "Si O2"
_cell_formula_units_Z 56
_cell_length_a 15.955851
_cell_length_b 14.272038
_cell_length_c 18.992398
_cell_angle_alpha 90.000000
_cell_angle_beta 30.658365
_cell_angle_gamma 90.000000
_cell_volume 2205.393415
_symmetry_space_group_name_H-M "C 2/C"
_symmetry_group_IT_number 15
_symmetry_cell_setting 'monoclinic'
loop_
_space_group_symop_operation_xyz
x,y,z
-x,y,1/2-z
-x,-y,-z
x,-y,1/2+z
1/2+x,1/2+y,z
1/2-x,1/2+y,1/2-z
1/2-x,1/2-y,-z
1/2+x,1/2-y,1/2+z
loop_
_atom_site_type_symbol
_atom_site_label
_atom_site_fract_x
_atom_site_fract_y
_atom_site_fract_z
Si Si1 0.729456 0.551745 0.973163
Si Si2 0.444244 0.915980 0.591430
Si Si3 0.000000 0.693682 0.750000
Si Si4 0.000000 0.032409 0.750000
Si Si5 0.752105 0.798761 0.419506
Si Si6 0.438645 0.354645 0.036534
Si Si7 0.169192 0.773043 0.760792
Si Si8 0.214226 0.397672 0.654737
O O1 0.811679 0.451154 0.899266
O O2 0.868405 0.628438 0.886249
O O3 0.584594 0.534530 0.131959
O O4 0.650071 0.579621 0.955817
O O5 0.578695 0.835932 0.513730
O O6 0.279770 0.866071 0.681043
O O7 0.382811 0.948618 0.712891
O O8 0.500000 0.000000 0.500000
O O9 0.096063 0.753255 0.737565
O O10 0.859420 0.107615 0.832400
O O11 0.750000 0.750000 0.500000
O O12 0.826003 0.712228 0.321232
O O13 0.525541 0.280178 0.921202
O O14 0.589543 0.394760 0.971159
O O15 0.295659 0.310340 0.186062
#
# Coordination Sequence:
#
# PCOD9295868 Si02
#       8
#     8   8   4   4   8   8   8   8
#     4  11  26  45  71 109 149 199 252 323 379 465
#     4  11  27  48  77 115 152 204 268 327 394 475
#     4  10  26  48  74 106 158 204 254 304 402 470
#     4  12  28  42  74 114 152 192 270 326 394 456
#     4  12  25  49  76 112 158 211 260 335 407 483
#     4  10  23  43  71 103 147 196 249 307 386 460
#     4  10  23  47  70 108 145 206 249 317 380 479
#     4  11  24  47  74 104 155 200 259 312 400 465
#
# _framework density 25.392294
#
# number of rings (size 3 to 8) (size 9 to 14) (size 15 to 20)
#    0.000    1.143    2.857    1.286    6.000    6.857 
#    0.000    0.000    0.000    0.000    0.000    0.000 
#    0.000    0.000    0.000    0.000    0.000    0.000 
#
# Total GULP energy -156663.018420 kJ/mol
# GULP energy per Si atom -5595.107801 kJ/mol
# Density = 2.533450 g / cm^3
# Si number density = 25.392294 Si / 1000 Ang^3
#
#
#
# Elastic Constant Matrix: (Units=GPa)
#
#
# Indices 1 2 3 4 5 6 
#
# 1 99.0313 37.3084 31.1811 -0.0008 -14.5310 0.0001
# 2 37.3084 89.2505 52.2778 -0.0032 15.6599 0.0010
# 3 31.1811 52.2778 117.9203 -0.0044 18.5118 0.0013
# 4 -0.0008 -0.0032 -0.0044 39.5768 0.0024 13.3409
# 5 -14.5310 15.6599 18.5118 0.0024 38.6011 -0.0006
# 6 0.0001 0.0010 0.0013 13.3409 -0.0006 32.3033
#
#
#
# Elastic Compliance Matrix: (Units=1/GPa)
#
#
# Indices 1 2 3 4 5 6 
#
# 1 0.014608 -0.006236 -0.002551 -0.000001 0.009252 0.000001
# 2 -0.006236 0.018161 -0.005275 0.000002 -0.007186 -0.000001
# 3 -0.002551 -0.005275 0.012229 0.000002 -0.004685 -0.000001
# 4 -0.000001 0.000002 0.000002 0.029354 -0.000004 -0.012123
# 5 0.009252 -0.007186 -0.004685 -0.000004 0.034550 0.000003
# 6 0.000001 -0.000001 -0.000001 -0.012123 0.000003 0.035963
#
#
# Mechanical properties :
#
#
# Convention : Reuss Voigt Hill
#
# Bulk Modulus (GPa) = 59.25588 60.85964 60.05776
# Shear Modulus (GPa) = 27.99368 34.45856 31.22612
#
# Velocity S-wave (km/s) = 3.32391 3.68781 3.51058
# Velocity P-wave (km/s) = 6.17398 6.49254 6.33526
#
# Compressibility (1/GPa) = 0.01687596
#
# Stress axis : x y z
#
# Youngs Moduli (GPa) = 68.45769 55.06192 81.77564
#
# Poissons Ratio (x) = 0.34334 0.20857
# Poissons Ratio (y) = 0.42687 0.43134
# Poissons Ratio (z) = 0.17461 0.29043
#
# Static dielectric constant tensor:
#      x y z
#    x 2.051350 0.000000 -0.008780 
#    y 0.000000 2.065880 0.000000 
#    z -0.008780 0.000000 2.078220 
# 
# From -- ./inp_files/249259.got.cif
#   From: 2010.05.17/outbox.cif.g08.bks.cpg/sg15_125_cif.got.tgz:249259.got - 2010.06.03 18:47:42.
