data_PCOD9295573
_publ_section_title
;
Structure prediction by ZEFSAII (Michael W. Deem and Ramdas Pophale) SiO2 
 PCOD9295573
Probable space group: C 2/C
;
_chemical_formula_sum "Si O2"
_cell_formula_units_Z 40
_cell_length_a 23.342094
_cell_length_b 7.825809
_cell_length_c 9.109981
_cell_angle_alpha 90.000000
_cell_angle_beta 89.992700
_cell_angle_gamma 90.000000
_cell_volume 1664.127224
_symmetry_space_group_name_H-M "C 2/C"
_symmetry_group_IT_number 15
_symmetry_cell_setting 'monoclinic'
loop_
_space_group_symop_operation_xyz
x,y,z
-x,y,1/2-z
-x,-y,-z
x,-y,1/2+z
1/2+x,1/2+y,z
1/2-x,1/2+y,1/2-z
1/2-x,1/2-y,-z
1/2+x,1/2-y,1/2+z
loop_
_atom_site_type_symbol
_atom_site_label
_atom_site_fract_x
_atom_site_fract_y
_atom_site_fract_z
Si Si1 0.562866 0.398799 0.860788
Si Si2 0.179330 0.815910 0.000260
Si Si3 0.834173 0.590950 0.992971
Si Si4 0.951413 0.216197 0.463204
Si Si5 0.754614 0.239613 0.739041
O O1 0.621013 0.396614 0.950207
O O2 0.569793 0.372576 0.688596
O O3 0.518062 0.253692 0.918015
O O4 0.540794 0.586932 0.901223
O O5 0.224327 0.846602 0.869716
O O6 0.167195 0.613194 0.006707
O O7 0.205554 0.877661 0.153845
O O8 0.900336 0.652181 0.995543
O O9 0.797796 0.661751 0.853940
O O10 0.798633 0.666566 0.130866
#
# Coordination Sequence:
#
# PCOD9295573 Si02
#       5
#     8   8   8   8   8
#     4  10  23  43  65  92 126 164 207 256 313 370
#     4  11  23  42  66  93 124 162 210 256 305 367
#     4  11  23  42  66  93 124 162 210 256 305 367
#     4  10  23  43  65  92 126 164 207 256 313 370
#     4  10  24  40  58  94 130 160 196 256 314 368
#
# _framework density 24.036624
#
# number of rings (size 3 to 8) (size 9 to 14) (size 15 to 20)
#    0.000    1.600    2.000    1.200    2.800   10.400 
#    0.000    0.000    0.000    0.000    0.000    0.000 
#    0.000    0.000    0.000    0.000    0.000    0.000 
#
# Total GULP energy -111688.077884 kJ/mol
# GULP energy per Si atom -5584.403894 kJ/mol
# Density = 2.398192 g / cm^3
# Si number density = 24.036624 Si / 1000 Ang^3
#
#
#
# Elastic Constant Matrix: (Units=GPa)
#
#
# Indices 1 2 3 4 5 6 
#
# 1 123.8504 8.0706 24.4638 0.0000 6.8490 0.0000
# 2 8.0706 43.5062 20.6965 0.0000 -17.1773 0.0000
# 3 24.4638 20.6965 129.1582 0.0000 1.4458 0.0000
# 4 0.0000 0.0000 0.0000 24.2417 0.0000 2.9836
# 5 6.8490 -17.1773 1.4458 0.0000 35.9137 0.0000
# 6 0.0000 0.0000 0.0000 2.9836 0.0000 40.4506
#
#
#
# Elastic Compliance Matrix: (Units=1/GPa)
#
#
# Indices 1 2 3 4 5 6 
#
# 1 0.008597 -0.001988 -0.001282 0.000000 -0.002539 0.000000
# 2 -0.001988 0.031958 -0.004922 0.000000 0.015863 0.000000
# 3 -0.001282 -0.004922 0.008801 0.000000 -0.002464 0.000000
# 4 0.000000 0.000000 0.000000 0.041629 0.000000 -0.003071
# 5 -0.002539 0.015863 -0.002464 0.000000 0.036015 0.000000
# 6 0.000000 0.000000 0.000000 -0.003071 0.000000 0.024948
#
#
# Mechanical properties :
#
#
# Convention : Reuss Voigt Hill
#
# Bulk Modulus (GPa) = 30.32616 44.77520 37.55068
# Shear Modulus (GPa) = 27.88259 36.34012 32.11135
#
# Velocity S-wave (km/s) = 3.40958 3.89249 3.65901
# Velocity P-wave (km/s) = 5.30512 6.23461 5.78855
#
# Compressibility (1/GPa) = 0.03297483
#
# Stress axis : x y z
#
# Youngs Moduli (GPa) = 116.31574 31.29064 113.61704
#
# Poissons Ratio (x) = 0.06219 0.14560
# Poissons Ratio (y) = 0.23118 0.55924
# Poissons Ratio (z) = 0.14906 0.15402
#
# Static dielectric constant tensor:
#      x y z
#    x 1.996600 0.000000 -0.013600 
#    y 0.000000 1.969670 0.000000 
#    z -0.013600 0.000000 1.897560 
# 
# From -- ./inp_files/60013.got.cif
#   From: 2010.05.17/outbox.cif.g08.bks.cpg/sg15_31_cif.got.tgz:60013.got - 2010.06.03 18:47:42.
