data_PCOD9295790
_publ_section_title
;
Structure prediction by ZEFSAII (Michael W. Deem and Ramdas Pophale) SiO2 
 PCOD9295790
Probable space group: C 2/C
;
_chemical_formula_sum "Si O2"
_cell_formula_units_Z 52
_cell_length_a 23.850446
_cell_length_b 9.843255
_cell_length_c 10.603391
_cell_angle_alpha 90.000000
_cell_angle_beta 124.342584
_cell_angle_gamma 90.000000
_cell_volume 2055.376470
_symmetry_space_group_name_H-M "C 2/C"
_symmetry_group_IT_number 15
_symmetry_cell_setting 'monoclinic'
loop_
_space_group_symop_operation_xyz
x,y,z
-x,y,1/2-z
-x,-y,-z
x,-y,1/2+z
1/2+x,1/2+y,z
1/2-x,1/2+y,1/2-z
1/2-x,1/2-y,-z
1/2+x,1/2-y,1/2+z
loop_
_atom_site_type_symbol
_atom_site_label
_atom_site_fract_x
_atom_site_fract_y
_atom_site_fract_z
Si Si1 0.091070 0.098948 0.512590
Si Si2 0.784181 0.022406 0.220702
Si Si3 0.581632 0.985275 0.971802
Si Si4 0.500000 0.615219 0.750000
Si Si5 0.686829 0.217069 0.662065
Si Si6 0.049791 0.675012 0.124726
Si Si7 0.161751 0.685134 0.925295
O O1 0.137786 0.032951 0.684112
O O2 0.040439 0.218136 0.497035
O O3 0.141265 0.178876 0.477810
O O4 0.046464 0.981479 0.394856
O O5 0.745300 0.887697 0.207564
O O6 0.791378 0.131856 0.342749
O O7 0.730808 0.104580 0.059512
O O8 0.507287 0.930191 0.902336
O O9 0.601158 0.080629 0.881020
O O10 0.624352 0.849512 0.014290
O O11 0.603956 0.075326 0.123911
O O12 0.450886 0.714425 0.766652
O O13 0.666835 0.217729 0.784700
#
# Coordination Sequence:
#
# PCOD9295790 Si02
#       7
#     8   8   8   4   8   8   8
#     4  11  25  42  66 100 138 177 225 278 342 401
#     4  11  23  43  65  98 136 175 223 282 332 396
#     4   9  22  44  66  94 134 173 226 286 334 394
#     4  12  26  38  68 100 134 182 222 276 344 404
#     4  11  23  41  71  93 133 175 223 280 338 404
#     4  10  23  44  62  97 138 173 227 283 328 409
#     4  10  23  43  69  98 126 186 224 270 349 409
#
# _framework density 25.299499999999998
#
# number of rings (size 3 to 8) (size 9 to 14) (size 15 to 20)
#    0.000    1.538    1.538    1.846    6.462    0.000 
#    0.000    3.077    0.000    0.000    0.000    0.000 
#    0.000    0.000    0.000    0.000    0.000    0.000 
#
# Total GULP energy -144755.508526 kJ/mol
# GULP energy per Si atom -5567.519559 kJ/mol
# Density = 2.524192 g / cm^3
# Si number density = 25.299500 Si / 1000 Ang^3
#
#
#
# Elastic Constant Matrix: (Units=GPa)
#
#
# Indices 1 2 3 4 5 6 
#
# 1 49.6942 12.7163 31.4827 0.0000 18.7837 0.0000
# 2 12.7163 102.6778 33.6459 0.0000 10.8867 0.0000
# 3 31.4827 33.6459 66.2497 0.0000 11.7696 0.0000
# 4 0.0000 0.0000 0.0000 21.0240 0.0000 -35.5914
# 5 18.7837 10.8867 11.7696 0.0000 28.5234 0.0000
# 6 0.0000 0.0000 0.0000 -35.5914 0.0000 -36.0767
#
#
#
# Elastic Compliance Matrix: (Units=1/GPa)
#
#
# Indices 1 2 3 4 5 6 
#
# 1 0.036018 0.002434 -0.015079 0.000000 -0.018426 0.000000
# 2 0.002434 0.011974 -0.006627 0.000000 -0.003439 0.000000
# 3 -0.015079 -0.006627 0.025264 0.000000 0.002035 0.000000
# 4 0.000000 0.000000 0.000000 0.017814 0.000000 -0.017574
# 5 -0.018426 -0.003439 0.002035 0.000000 0.047666 0.000000
# 6 0.000000 0.000000 0.000000 -0.017574 0.000000 -0.010381
#
#
# Mechanical properties :
#
#
# Convention : Reuss Voigt Hill
#
# Bulk Modulus (GPa) = 28.80804 41.59018 35.19911
# Shear Modulus (GPa) = 28.01608 12.07927 20.04768
#
# Velocity S-wave (km/s) = 3.33134 2.18744 2.81804
# Velocity P-wave (km/s) = 5.11943 4.78065 4.95294
#
# Compressibility (1/GPa) = 0.03471253
#
# Stress axis : x y z
#
# Youngs Moduli (GPa) = 27.76400 83.51507 39.58164
#
# Poissons Ratio (x) = -0.20329 0.59685
# Poissons Ratio (y) = -0.06758 0.26231
# Poissons Ratio (z) = 0.41865 0.55345
#
# Static dielectric constant tensor:
#      x y z
#    x 2.007570 0.000000 0.018090 
#    y 0.000000 2.013650 0.000000 
#    z 0.018090 0.000000 2.116130 
# 
# From -- ./inp_files/122077.got.cif
#   From: 2010.05.17/outbox.cif.g08.bks.cpg/sg15_62_cif.got.tgz:122077.got - 2010.06.03 18:47:42.
