data_PCOD9295163
_publ_section_title
;
Structure prediction by ZEFSAII (Michael W. Deem and Ramdas Pophale) SiO2 
 PCOD9295163
Probable space group: C 2/C
;
_chemical_formula_sum "Si O2"
_cell_formula_units_Z 56
_cell_length_a 8.683205
_cell_length_b 17.449848
_cell_length_c 25.544537
_cell_angle_alpha 90.000000
_cell_angle_beta 143.230685
_cell_angle_gamma 90.000000
_cell_volume 2316.874923
_symmetry_space_group_name_H-M "C 2/C"
_symmetry_group_IT_number 15
_symmetry_cell_setting 'monoclinic'
loop_
_space_group_symop_operation_xyz
x,y,z
-x,y,1/2-z
-x,-y,-z
x,-y,1/2+z
1/2+x,1/2+y,z
1/2-x,1/2+y,1/2-z
1/2-x,1/2-y,-z
1/2+x,1/2-y,1/2+z
loop_
_atom_site_type_symbol
_atom_site_label
_atom_site_fract_x
_atom_site_fract_y
_atom_site_fract_z
Si Si1 0.810701 0.891866 0.652952
Si Si2 0.846058 0.743704 0.609729
Si Si3 0.906834 0.096875 0.932905
Si Si4 0.901806 0.351580 0.623696
Si Si5 0.851655 0.703274 0.907324
Si Si6 0.887800 0.954086 0.122755
Si Si7 0.942522 0.492727 0.294070
O O1 0.949908 0.819203 0.665467
O O2 0.556194 0.857350 0.611013
O O3 0.000000 0.919414 0.750000
O O4 0.762902 0.963162 0.601517
O O5 0.736613 0.677700 0.617804
O O6 0.601771 0.774918 0.510088
O O7 0.054540 0.710562 0.626622
O O8 0.676884 0.042802 0.890430
O O9 0.045052 0.060182 0.920123
O O10 0.115025 0.117282 0.033344
O O11 0.862644 0.267286 0.636325
O O12 0.038440 0.415888 0.695980
O O13 0.764515 0.618496 0.897847
O O14 0.163706 0.958676 0.227415
O O15 0.000000 0.471587 0.250000
#
# Coordination Sequence:
#
# PCOD9295163 Si02
#       7
#     8   8   8   8   8   8   8
#     4  12  26  43  66  99 143 180 226 279 342 412
#     4  10  24  45  68 107 136 176 231 281 342 411
#     4  10  23  43  71  97 134 177 229 284 338 401
#     4  11  23  43  70  99 133 180 228 281 340 405
#     4  10  24  44  73 102 137 175 232 287 338 406
#     4  11  24  45  67 101 138 184 226 280 343 413
#     4  10  23  42  65  99 137 175 225 276 339 404
#
# _framework density 24.170489
#
# number of rings (size 3 to 8) (size 9 to 14) (size 15 to 20)
#    0.000    1.429    1.429    2.143    6.000    7.429 
#    0.000    2.143    0.000    0.000    0.000    0.000 
#    0.000    0.000    0.000    0.000    0.000    0.000 
#
# Total GULP energy -156600.149720 kJ/mol
# GULP energy per Si atom -5592.862490 kJ/mol
# Density = 2.411548 g / cm^3
# Si number density = 24.170489 Si / 1000 Ang^3
#
#
#
# Elastic Constant Matrix: (Units=GPa)
#
#
# Indices 1 2 3 4 5 6 
#
# 1 90.4053 44.1178 4.2496 0.0001 10.2611 -0.0003
# 2 44.1178 157.2585 4.3342 0.0002 1.8377 -0.0003
# 3 4.2496 4.3342 35.1651 -0.0003 7.0400 0.0000
# 4 0.0001 0.0002 -0.0003 41.1614 0.0000 2.3832
# 5 10.2611 1.8377 7.0400 0.0000 28.9293 -0.0002
# 6 -0.0003 -0.0003 0.0000 2.3832 -0.0002 45.9343
#
#
#
# Elastic Compliance Matrix: (Units=1/GPa)
#
#
# Indices 1 2 3 4 5 6 
#
# 1 0.013382 -0.003695 -0.000272 0.000000 -0.004446 0.000000
# 2 -0.003695 0.007402 -0.000667 0.000000 0.001002 0.000000
# 3 -0.000272 -0.000667 0.029985 0.000000 -0.007158 0.000000
# 4 0.000000 0.000000 0.000000 0.024368 0.000000 -0.001264
# 5 -0.004446 0.001002 -0.007158 0.000000 0.037822 0.000000
# 6 0.000000 0.000000 0.000000 -0.001264 0.000000 0.021836
#
#
# Mechanical properties :
#
#
# Convention : Reuss Voigt Hill
#
# Bulk Modulus (GPa) = 24.09454 43.13689 33.61572
# Shear Modulus (GPa) = 31.66655 38.54681 35.10668
#
# Velocity S-wave (km/s) = 3.62350 3.99781 3.81525
# Velocity P-wave (km/s) = 5.24372 6.26065 5.77461
#
# Compressibility (1/GPa) = 0.04150318
#
# Stress axis : x y z
#
# Youngs Moduli (GPa) = 74.72911 135.09614 33.34963
#
# Poissons Ratio (x) = 0.49914 0.00906
# Poissons Ratio (y) = 0.27610 0.02223
# Poissons Ratio (z) = 0.02031 0.09005
#
# Static dielectric constant tensor:
#      x y z
#    x 1.956940 0.000000 0.025790 
#    y 0.000000 1.929320 0.000000 
#    z 0.025790 0.000000 1.992750 
# 
# From -- ./inp_files/289752.got.cif
#   From: 2010.05.17/outbox.cif.g08.bks.cpg/sg15_145_cif.got.tgz:289752.got - 2010.06.03 18:47:42.
