data_PCOD9295159
_publ_section_title
;
Structure prediction by ZEFSAII (Michael W. Deem and Ramdas Pophale) SiO2 
 PCOD9295159
Probable space group: C 2/C
;
_chemical_formula_sum "Si O2"
_cell_formula_units_Z 52
_cell_length_a 26.630021
_cell_length_b 6.654784
_cell_length_c 16.761556
_cell_angle_alpha 90.000000
_cell_angle_beta 125.178113
_cell_angle_gamma 90.000000
_cell_volume 2427.928322
_symmetry_space_group_name_H-M "C 2/C"
_symmetry_group_IT_number 15
_symmetry_cell_setting 'monoclinic'
loop_
_space_group_symop_operation_xyz
x,y,z
-x,y,1/2-z
-x,-y,-z
x,-y,1/2+z
1/2+x,1/2+y,z
1/2-x,1/2+y,1/2-z
1/2-x,1/2-y,-z
1/2+x,1/2-y,1/2+z
loop_
_atom_site_type_symbol
_atom_site_label
_atom_site_fract_x
_atom_site_fract_y
_atom_site_fract_z
Si Si1 0.059247 0.007034 0.652630
Si Si2 0.386261 0.861299 0.576260
Si Si3 0.302978 0.854894 0.102015
Si Si4 0.188425 0.018949 0.257777
Si Si5 0.500000 0.393570 0.250000
Si Si6 0.220932 0.819869 0.612211
Si Si7 0.539708 0.182696 0.508353
O O1 0.125882 0.109452 0.709453
O O2 0.066750 0.808903 0.606229
O O3 0.032230 0.965665 0.714441
O O4 0.007268 0.157080 0.572937
O O5 0.443400 0.750492 0.671203
O O6 0.330857 0.709692 0.502937
O O7 0.412191 0.902730 0.511277
O O8 0.357115 0.047940 0.597513
O O9 0.321212 0.694884 0.186350
O O10 0.271731 0.037093 0.120910
O O11 0.250000 0.750000 0.000000
O O12 0.197076 0.088746 0.174178
O O13 0.247660 0.892015 0.337835
O O14 0.500000 0.000000 0.500000
#
# Coordination Sequence:
#
# PCOD9295159 Si02
#       7
#     8   8   8   8   4   8   8
#     4  10  23  42  65  98 134 177 232 277 347 408
#     4  11  24  47  69 101 142 179 231 294 346 416
#     4  12  27  43  72 105 140 186 231 287 362 410
#     4  12  25  43  71 104 137 191 228 287 352 422
#     4  10  24  44  72 100 136 188 232 292 352 402
#     4  12  25  46  69 102 145 179 237 287 346 428
#     4  10  23  43  69  97 133 181 229 282 341 409
#
# _framework density 21.417435000000001
#
# number of rings (size 3 to 8) (size 9 to 14) (size 15 to 20)
#    0.000    0.923    4.615    1.385    2.154    7.385 
#    0.000    0.769    0.000    0.000    0.000    0.000 
#    0.000    0.000    0.000    0.000    0.000    0.000 
#
# Total GULP energy -145141.502374 kJ/mol
# GULP energy per Si atom -5582.365476 kJ/mol
# Density = 2.136869 g / cm^3
# Si number density = 21.417435 Si / 1000 Ang^3
#
#
#
# Elastic Constant Matrix: (Units=GPa)
#
#
# Indices 1 2 3 4 5 6 
#
# 1 167.2668 43.3205 36.6173 0.0000 -22.0408 0.0000
# 2 43.3205 57.6259 17.9019 0.0000 -14.2586 0.0000
# 3 36.6173 17.9019 97.4905 0.0000 6.2081 0.0000
# 4 0.0000 0.0000 0.0000 3.4275 0.0000 -2.0713
# 5 -22.0408 -14.2586 6.2081 0.0000 45.5186 0.0000
# 6 0.0000 0.0000 0.0000 -2.0713 0.0000 41.9128
#
#
#
# Elastic Compliance Matrix: (Units=1/GPa)
#
#
# Indices 1 2 3 4 5 6 
#
# 1 0.008061 -0.004644 -0.002351 0.000000 0.002769 0.000000
# 2 -0.004644 0.023049 -0.002829 0.000000 0.005357 0.000000
# 3 -0.002351 -0.002829 0.011892 0.000000 -0.003647 0.000000
# 4 0.000000 0.000000 0.000000 0.300735 0.000000 0.014862
# 5 0.002769 0.005357 -0.003647 0.000000 0.025485 0.000000
# 6 0.000000 0.000000 0.000000 0.014862 0.000000 0.024594
#
#
# Mechanical properties :
#
#
# Convention : Reuss Voigt Hill
#
# Bulk Modulus (GPa) = 42.82115 57.56253 50.19184
# Shear Modulus (GPa) = 11.86944 33.14136 22.50540
#
# Velocity S-wave (km/s) = 2.35669 3.93797 3.24512
# Velocity P-wave (km/s) = 5.23854 6.90012 6.12593
#
# Compressibility (1/GPa) = 0.02335295
#
# Stress axis : x y z
#
# Youngs Moduli (GPa) = 124.05602 43.38575 84.08837
#
# Poissons Ratio (x) = 0.20149 0.19771
# Poissons Ratio (y) = 0.57614 0.23790
# Poissons Ratio (z) = 0.29168 0.12275
#
# Static dielectric constant tensor:
#      x y z
#    x 1.822170 0.000000 0.042640 
#    y 0.000000 1.754320 0.000000 
#    z 0.042640 0.000000 1.918000 
# 
# From -- ./inp_files/221352.got.cif
#   From: 2010.05.17/outbox.cif.g08.bks.cpg/sg15_111_cif.got.tgz:221352.got - 2010.06.03 18:47:42.
