data_PCOD9295006
_publ_section_title
;
Structure prediction by ZEFSAII (Michael W. Deem and Ramdas Pophale) SiO2 
 PCOD9295006
Probable space group: C 2/C
;
_chemical_formula_sum "Si O2"
_cell_formula_units_Z 44
_cell_length_a 10.383040
_cell_length_b 10.951071
_cell_length_c 28.325275
_cell_angle_alpha 90.000000
_cell_angle_beta 41.045534
_cell_angle_gamma 90.000000
_cell_volume 2114.924632
_symmetry_space_group_name_H-M "C 2/C"
_symmetry_group_IT_number 15
_symmetry_cell_setting 'monoclinic'
loop_
_space_group_symop_operation_xyz
x,y,z
-x,y,1/2-z
-x,-y,-z
x,-y,1/2+z
1/2+x,1/2+y,z
1/2-x,1/2+y,1/2-z
1/2-x,1/2-y,-z
1/2+x,1/2-y,1/2+z
loop_
_atom_site_type_symbol
_atom_site_label
_atom_site_fract_x
_atom_site_fract_y
_atom_site_fract_z
Si Si1 0.082923 0.188997 0.453552
Si Si2 0.409182 0.235036 0.654364
Si Si3 0.797821 0.469706 0.422742
Si Si4 0.889503 0.900537 0.826720
Si Si5 0.050656 0.405168 0.527461
Si Si6 0.000000 0.858088 0.250000
O O1 0.884247 0.123179 0.525579
O O2 0.141159 0.288550 0.476381
O O3 0.043685 0.249096 0.413986
O O4 0.244279 0.082888 0.404281
O O5 0.511454 0.108769 0.642042
O O6 0.503548 0.344932 0.657572
O O7 0.176422 0.220136 0.722042
O O8 0.822419 0.529498 0.467730
O O9 0.660047 0.871016 0.891690
O O10 0.000000 0.848682 0.750000
O O11 0.914083 0.046809 0.812748
O O12 0.000000 0.500000 0.500000
#
# Coordination Sequence:
#
# PCOD9295006 Si02
#       6
#     8   8   8   8   8   4
#     4  11  24  38  66 102 122 165 209 269 326 372
#     4  12  22  44  65  87 131 163 216 265 313 386
#     4  11  22  39  63  98 133 155 210 268 320 390
#     4  10  23  42  60  90 128 166 210 261 317 378
#     4  12  20  39  70  92 127 170 208 267 324 372
#     4  10  24  42  60  86 118 174 212 252 312 376
#
# _framework density 20.804525000000002
#
# number of rings (size 3 to 8) (size 9 to 14) (size 15 to 20)
#    0.545    0.364    5.455    2.182    0.000    2.909 
#    3.273    1.818    0.000    0.000    0.000    0.000 
#    0.000    0.000    0.000    0.000    0.000    0.000 
#
# Total GULP energy -122878.365234 kJ/mol
# GULP energy per Si atom -5585.380238 kJ/mol
# Density = 2.075717 g / cm^3
# Si number density = 20.804525 Si / 1000 Ang^3
#
#
#
# Elastic Constant Matrix: (Units=GPa)
#
#
# Indices 1 2 3 4 5 6 
#
# 1 51.1747 13.7245 -19.7525 0.0000 -2.3654 0.0000
# 2 13.7245 60.3946 -3.7725 0.0000 -4.5773 0.0000
# 3 -19.7525 -3.7725 39.6985 0.0000 0.3459 -0.0002
# 4 0.0000 0.0000 0.0000 12.9848 0.0000 -8.8774
# 5 -2.3654 -4.5773 0.3459 0.0000 29.9166 0.0000
# 6 0.0000 0.0000 -0.0002 -8.8774 0.0000 18.9440
#
#
#
# Elastic Compliance Matrix: (Units=1/GPa)
#
#
# Indices 1 2 3 4 5 6 
#
# 1 0.025673 -0.004981 0.012291 0.000000 0.001126 0.000000
# 2 -0.004981 0.017817 -0.000806 0.000000 0.002342 0.000000
# 3 0.012291 -0.000806 0.031224 0.000000 0.000487 0.000000
# 4 0.000000 0.000000 0.000000 0.113318 0.000000 0.053102
# 5 0.001126 0.002342 0.000487 0.000000 0.033868 0.000000
# 6 0.000000 0.000000 0.000000 0.053102 0.000000 0.077672
#
#
# Mechanical properties :
#
#
# Convention : Reuss Voigt Hill
#
# Bulk Modulus (GPa) = 11.39968 14.62967 13.01468
# Shear Modulus (GPa) = 15.83262 23.10696 19.46979
#
# Velocity S-wave (km/s) = 2.76165 3.33629 3.06248
# Velocity P-wave (km/s) = 3.95730 4.67849 4.33293
#
# Compressibility (1/GPa) = 0.08772177
#
# Stress axis : x y z
#
# Youngs Moduli (GPa) = 38.95182 56.12667 32.02624
#
# Poissons Ratio (x) = 0.27957 -0.39362
# Poissons Ratio (y) = 0.19402 0.02580
# Poissons Ratio (z) = -0.47874 0.04522
#
# Static dielectric constant tensor:
#      x y z
#    x 1.717220 0.000000 -0.016520 
#    y 0.000000 1.758840 0.000000 
#    z -0.016520 0.000000 1.768620 
# 
# From -- ./inp_files/230118.got.cif
#   From: 2010.05.17/outbox.cif.g08.bks.cpg/sg15_116_cif.got.tgz:230118.got - 2010.06.03 18:47:42.
