data_PCOD9295080
_publ_section_title
;
Structure prediction by ZEFSAII (Michael W. Deem and Ramdas Pophale) SiO2 
 PCOD9295080
Probable space group: C 2/C
;
_chemical_formula_sum "Si O2"
_cell_formula_units_Z 48
_cell_length_a 8.672556
_cell_length_b 25.616072
_cell_length_c 9.919468
_cell_angle_alpha 90.000000
_cell_angle_beta 90.277687
_cell_angle_gamma 90.000000
_cell_volume 2203.651575
_symmetry_space_group_name_H-M "C 2/C"
_symmetry_group_IT_number 15
_symmetry_cell_setting 'monoclinic'
loop_
_space_group_symop_operation_xyz
x,y,z
-x,y,1/2-z
-x,-y,-z
x,-y,1/2+z
1/2+x,1/2+y,z
1/2-x,1/2+y,1/2-z
1/2-x,1/2-y,-z
1/2+x,1/2-y,1/2+z
loop_
_atom_site_type_symbol
_atom_site_label
_atom_site_fract_x
_atom_site_fract_y
_atom_site_fract_z
Si Si1 0.833859 0.156597 0.239751
Si Si2 0.166968 0.512034 0.568990
Si Si3 0.336006 0.538790 0.299460
Si Si4 0.179006 0.624956 0.708776
Si Si5 0.204164 0.310321 0.471596
Si Si6 0.340767 0.197254 0.027570
O O1 0.854497 0.100886 0.310567
O O2 0.783912 0.154826 0.086289
O O3 0.697947 0.184370 0.319410
O O4 0.000000 0.184883 0.250000
O O5 0.279380 0.515628 0.440367
O O6 0.213317 0.468857 0.678405
O O7 0.189196 0.564326 0.661437
O O8 0.000000 0.500000 0.500000
O O9 0.500000 0.516504 0.250000
O O10 0.228751 0.655019 0.575022
O O11 0.000000 0.628555 0.750000
O O12 0.247944 0.659412 0.833221
O O13 0.250000 0.250000 0.500000
O O14 0.020354 0.306590 0.493968
O O15 0.250000 0.250000 0.000000
#
# Coordination Sequence:
#
# PCOD9295080 Si02
#       6
#     8   8   8   8   8   8
#     4  11  24  43  66  94 135 182 230 280 348 420
#     4  12  25  45  74 106 138 181 243 290 358 430
#     4  11  26  45  69 101 143 182 227 290 362 423
#     4  10  23  42  64 102 136 174 226 294 348 416
#     4  11  24  42  68 100 138 181 234 287 354 417
#     4  11  22  41  69  95 137 177 231 287 353 416
#
# _framework density 21.782028
#
# number of rings (size 3 to 8) (size 9 to 14) (size 15 to 20)
#    0.000    1.000    1.667    4.500    7.000    2.667 
#    0.000    2.500    0.000    0.000    0.000    0.000 
#    0.000    0.000    0.000    0.000    0.000    0.000 
#
# Total GULP energy -133723.000731 kJ/mol
# GULP energy per Si atom -5571.791697 kJ/mol
# Density = 2.173245 g / cm^3
# Si number density = 21.782028 Si / 1000 Ang^3
#
#
#
# Elastic Constant Matrix: (Units=GPa)
#
#
# Indices 1 2 3 4 5 6 
#
# 1 77.5856 9.3267 32.7346 0.0000 -5.0842 0.0000
# 2 9.3267 60.6469 16.7497 0.0000 -9.1617 0.0000
# 3 32.7346 16.7497 137.7836 0.0000 -5.7844 0.0000
# 4 0.0000 0.0000 0.0000 31.3758 0.0000 5.0160
# 5 -5.0842 -9.1617 -5.7844 0.0000 30.0045 0.0000
# 6 0.0000 0.0000 0.0000 5.0160 0.0000 17.1690
#
#
#
# Elastic Compliance Matrix: (Units=1/GPa)
#
#
# Indices 1 2 3 4 5 6 
#
# 1 0.014489 -0.001107 -0.003245 0.000000 0.001492 0.000000
# 2 -0.001107 0.017876 -0.001703 0.000000 0.004943 0.000000
# 3 -0.003245 -0.001703 0.008258 0.000000 0.000522 0.000000
# 4 0.000000 0.000000 0.000000 0.033433 0.000000 -0.009768
# 5 0.001492 0.004943 0.000522 0.000000 0.035191 0.000000
# 6 0.000000 0.000000 0.000000 -0.009768 0.000000 0.061098
#
#
# Mechanical properties :
#
#
# Convention : Reuss Voigt Hill
#
# Bulk Modulus (GPa) = 35.07091 43.73759 39.40425
# Shear Modulus (GPa) = 26.04732 30.19020 28.11876
#
# Velocity S-wave (km/s) = 3.46181 3.72696 3.59683
# Velocity P-wave (km/s) = 5.66698 6.21640 5.94803
#
# Compressibility (1/GPa) = 0.02851366
#
# Stress axis : x y z
#
# Youngs Moduli (GPa) = 69.01813 55.94097 121.09989
#
# Poissons Ratio (x) = 0.06191 0.39299
# Poissons Ratio (y) = 0.07638 0.20620
# Poissons Ratio (z) = 0.22397 0.09525
#
# Static dielectric constant tensor:
#      x y z
#    x 1.834030 0.000000 -0.004090 
#    y 0.000000 1.152830 0.000000 
#    z -0.004090 0.000000 1.619410 
# 
# From -- ./inp_files/26105.got.cif
#   From: 2010.05.17/outbox.cif.g08.bks.cpg/sg15_14_cif.got.tgz:26105.got - 2010.06.03 18:47:42.
