data_PCOD9295860
_publ_section_title
;
Structure prediction by ZEFSAII (Michael W. Deem and Ramdas Pophale) SiO2 
 PCOD9295860
Probable space group: C 2/C
;
_chemical_formula_sum "Si O2"
_cell_formula_units_Z 48
_cell_length_a 15.539637
_cell_length_b 10.753290
_cell_length_c 19.975472
_cell_angle_alpha 90.000000
_cell_angle_beta 38.281316
_cell_angle_gamma 90.000000
_cell_volume 2067.934468
_symmetry_space_group_name_H-M "C 2/C"
_symmetry_group_IT_number 15
_symmetry_cell_setting 'monoclinic'
loop_
_space_group_symop_operation_xyz
x,y,z
-x,y,1/2-z
-x,-y,-z
x,-y,1/2+z
1/2+x,1/2+y,z
1/2-x,1/2+y,1/2-z
1/2-x,1/2-y,-z
1/2+x,1/2-y,1/2+z
loop_
_atom_site_type_symbol
_atom_site_label
_atom_site_fract_x
_atom_site_fract_y
_atom_site_fract_z
Si Si1 0.126623 0.425990 0.275119
Si Si2 0.153097 0.552614 0.905396
Si Si3 0.857216 0.404112 0.943411
Si Si4 0.444632 0.365919 0.358641
Si Si5 0.885971 0.162340 0.262342
Si Si6 0.086754 0.016790 0.380132
O O1 0.153010 0.380221 0.334959
O O2 0.151742 0.307539 0.213543
O O3 0.252752 0.523759 0.193632
O O4 0.975078 0.490433 0.361290
O O5 0.259268 0.435858 0.846560
O O6 0.160369 0.632464 0.967343
O O7 0.000000 0.500000 0.000000
O O8 0.908719 0.279383 0.877564
O O9 0.696011 0.435244 0.029003
O O10 0.500000 0.396887 0.250000
O O11 0.555146 0.400471 0.348723
O O12 0.000000 0.146048 0.250000
O O13 0.945195 0.128270 0.152275
O O14 0.000000 0.000000 0.500000
#
# Coordination Sequence:
#
# PCOD9295860 Si02
#       6
#     8   8   8   8   8   8
#     4  10  24  41  70 101 139 180 238 292 348 423
#     4   9  20  41  66  95 138 180 230 281 352 415
#     4  10  23  43  71 101 136 186 233 294 347 426
#     4  11  24  43  70 102 142 183 232 292 355 418
#     4  11  24  44  70  99 140 185 226 292 360 426
#     4  11  26  42  67  99 140 181 236 289 349 423
#
# _framework density 23.211569000000001
#
# number of rings (size 3 to 8) (size 9 to 14) (size 15 to 20)
#    0.000    1.667    0.000    3.500    9.333    6.000 
#    0.000    5.000    0.000    0.000    0.000    0.000 
#    0.000    0.000    0.000    0.000    0.000    0.000 
#
# Total GULP energy -133720.377607 kJ/mol
# GULP energy per Si atom -5571.682400 kJ/mol
# Density = 2.315874 g / cm^3
# Si number density = 23.211569 Si / 1000 Ang^3
#
#
#
# Elastic Constant Matrix: (Units=GPa)
#
#
# Indices 1 2 3 4 5 6 
#
# 1 112.5075 50.3300 62.8844 0.0000 -22.8715 0.0000
# 2 50.3300 81.4528 24.6492 0.0000 -10.5212 0.0000
# 3 62.8844 24.6492 114.3969 -0.0001 -15.2121 0.0000
# 4 0.0000 0.0000 -0.0001 18.5596 0.0000 2.3261
# 5 -22.8715 -10.5212 -15.2121 0.0000 49.6729 0.0000
# 6 0.0000 0.0000 0.0000 2.3261 0.0000 33.0784
#
#
#
# Elastic Compliance Matrix: (Units=1/GPa)
#
#
# Indices 1 2 3 4 5 6 
#
# 1 0.017364 -0.008000 -0.007280 0.000000 0.004071 0.000000
# 2 -0.008000 0.017012 0.000752 0.000000 0.000150 0.000000
# 3 -0.007280 0.000752 0.012673 0.000000 0.000688 0.000000
# 4 0.000000 0.000000 0.000000 0.054359 0.000000 -0.003823
# 5 0.004071 0.000150 0.000688 0.000000 0.022249 0.000000
# 6 0.000000 0.000000 0.000000 -0.003823 0.000000 0.030500
#
#
# Mechanical properties :
#
#
# Convention : Reuss Voigt Hill
#
# Bulk Modulus (GPa) = 55.57777 64.89828 60.23803
# Shear Modulus (GPa) = 26.42565 31.62841 29.02703
#
# Velocity S-wave (km/s) = 3.37778 3.69537 3.54014
# Velocity P-wave (km/s) = 6.26167 6.79910 6.53591
#
# Compressibility (1/GPa) = 0.01799281
#
# Stress axis : x y z
#
# Youngs Moduli (GPa) = 57.59158 58.78130 78.91011
#
# Poissons Ratio (x) = 0.47026 0.57444
# Poissons Ratio (y) = 0.46075 -0.05935
# Poissons Ratio (z) = 0.41925 -0.04421
#
# Static dielectric constant tensor:
#      x y z
#    x 1.880120 0.000000 0.071600 
#    y 0.000000 1.883700 0.000000 
#    z 0.071600 0.000000 1.925570 
# 
# From -- ./inp_files/243929.got.cif
#   From: 2010.05.17/outbox.cif.g08.bks.cpg/sg15_122_cif.got.tgz:243929.got - 2010.06.03 18:47:42.
