data_PCOD9295382
_publ_section_title
;
Structure prediction by ZEFSAII (Michael W. Deem and Ramdas Pophale) SiO2 
 PCOD9295382
Probable space group: C 2/C
;
_chemical_formula_sum "Si O2"
_cell_formula_units_Z 56
_cell_length_a 9.684385
_cell_length_b 29.770963
_cell_length_c 7.730212
_cell_angle_alpha 90.000000
_cell_angle_beta 65.395205
_cell_angle_gamma 90.000000
_cell_volume 2026.358892
_symmetry_space_group_name_H-M "C 2/C"
_symmetry_group_IT_number 15
_symmetry_cell_setting 'monoclinic'
loop_
_space_group_symop_operation_xyz
x,y,z
-x,y,1/2-z
-x,-y,-z
x,-y,1/2+z
1/2+x,1/2+y,z
1/2-x,1/2+y,1/2-z
1/2-x,1/2-y,-z
1/2+x,1/2-y,1/2+z
loop_
_atom_site_type_symbol
_atom_site_label
_atom_site_fract_x
_atom_site_fract_y
_atom_site_fract_z
Si Si1 0.715882 0.083664 0.238627
Si Si2 0.387863 0.206474 0.063264
Si Si3 0.851289 0.011360 0.712817
Si Si4 0.797886 0.671203 0.466965
Si Si5 0.664349 0.602982 0.960436
Si Si6 0.358539 0.694178 0.609201
Si Si7 0.577823 0.066022 0.882705
O O1 0.707591 0.198683 0.210522
O O2 0.799095 0.036511 0.171415
O O3 0.549514 0.075783 0.410068
O O4 0.802533 0.105394 0.356275
O O5 0.536577 0.177814 0.030262
O O6 0.288761 0.195029 0.945368
O O7 0.435201 0.258649 0.027861
O O8 0.000000 0.009410 0.750000
O O9 0.882037 0.052367 0.562799
O O10 0.699548 0.030133 0.884480
O O11 0.685373 0.691029 0.667336
O O12 0.780688 0.619133 0.418305
O O13 0.564592 0.645870 0.964882
O O14 0.819534 0.605097 0.762627
O O15 0.500000 0.045932 0.750000
#
# Coordination Sequence:
#
# PCOD9295382 Si02
#       7
#     8   8   8   8   8   8   8
#     4  11  21  43  73 106 155 197 273 333 398 474
#     4  10  24  41  71 106 149 195 252 321 409 469
#     4  10  23  42  70 109 159 214 267 334 410 497
#     4  11  24  41  73 113 143 198 264 331 389 481
#     4   9  22  40  70 101 145 203 256 323 402 471
#     4  11  22  46  71 104 154 199 250 326 405 475
#     4   8  19  40  65 104 145 204 263 331 394 465
#
# _framework density 27.635774000000001
#
# number of rings (size 3 to 8) (size 9 to 14) (size 15 to 20)
#    0.857    1.143    1.429    1.286    4.000    2.857 
#    5.143    0.000    3.143    0.000    0.000    0.000 
#    0.000    0.000    0.000    0.000    0.000    0.000 
#
# Total GULP energy -156786.364550 kJ/mol
# GULP energy per Si atom -5599.513020 kJ/mol
# Density = 2.757287 g / cm^3
# Si number density = 27.635774 Si / 1000 Ang^3
#
#
#
# Elastic Constant Matrix: (Units=GPa)
#
#
# Indices 1 2 3 4 5 6 
#
# 1 142.5143 61.3723 61.1832 0.0000 9.9601 0.0000
# 2 61.3723 232.6759 37.8757 0.0000 1.2083 0.0000
# 3 61.1832 37.8757 138.6255 0.0000 23.4418 0.0000
# 4 0.0000 0.0000 0.0000 21.8213 0.0000 22.4921
# 5 9.9601 1.2083 23.4418 0.0000 52.6241 0.0000
# 6 0.0000 0.0000 0.0000 22.4921 0.0000 26.3597
#
#
#
# Elastic Compliance Matrix: (Units=1/GPa)
#
#
# Indices 1 2 3 4 5 6 
#
# 1 0.009387 -0.001888 -0.003605 0.000000 -0.000127 0.000000
# 2 -0.001888 0.004889 -0.000588 0.000000 0.000507 0.000000
# 3 -0.003605 -0.000588 0.009569 0.000000 -0.003567 0.000000
# 4 0.000000 0.000000 0.000000 0.380316 0.000000 -0.324514
# 5 -0.000127 0.000507 -0.003567 0.000000 0.020604 0.000000
# 6 0.000000 0.000000 0.000000 -0.324514 0.000000 0.314837
#
#
# Mechanical properties :
#
#
# Convention : Reuss Voigt Hill
#
# Bulk Modulus (GPa) = 85.61119 92.74199 89.17659
# Shear Modulus (GPa) = 6.61675 43.71997 25.16836
#
# Velocity S-wave (km/s) = 1.54902 3.98176 3.02108
# Velocity P-wave (km/s) = 5.85192 7.40073 6.67142
#
# Compressibility (1/GPa) = 0.01168072
#
# Stress axis : x y z
#
# Youngs Moduli (GPa) = 106.53245 204.54023 104.50653
#
# Poissons Ratio (x) = 0.38625 0.37680
# Poissons Ratio (y) = 0.20117 0.06146
# Poissons Ratio (z) = 0.38410 0.12029
#
# Static dielectric constant tensor:
#      x y z
#    x 2.201410 0.000000 -0.038570 
#    y 0.000000 2.155260 0.000000 
#    z -0.038570 0.000000 2.165640 
# 
# From -- ./inp_files/92347.got.cif
#   From: 2010.05.17/outbox.cif.g08.bks.cpg/sg15_47_cif.got.tgz:92347.got - 2010.06.03 18:47:42.
