data_PCOD9295495
_publ_section_title
;
Structure prediction by ZEFSAII (Michael W. Deem and Ramdas Pophale) SiO2 
 PCOD9295495
Probable space group: C 2/C
;
_chemical_formula_sum "Si O2"
_cell_formula_units_Z 32
_cell_length_a 11.639802
_cell_length_b 7.735840
_cell_length_c 24.102566
_cell_angle_alpha 90.000000
_cell_angle_beta 143.391347
_cell_angle_gamma 90.000000
_cell_volume 1294.239781
_symmetry_space_group_name_H-M "C 2/C"
_symmetry_group_IT_number 15
_symmetry_cell_setting 'monoclinic'
loop_
_space_group_symop_operation_xyz
x,y,z
-x,y,1/2-z
-x,-y,-z
x,-y,1/2+z
1/2+x,1/2+y,z
1/2-x,1/2+y,1/2-z
1/2-x,1/2-y,-z
1/2+x,1/2-y,1/2+z
loop_
_atom_site_type_symbol
_atom_site_label
_atom_site_fract_x
_atom_site_fract_y
_atom_site_fract_z
Si Si1 0.473733 0.447938 0.677442
Si Si2 0.018540 0.765779 0.407363
Si Si3 0.115039 0.243200 0.521215
Si Si4 0.503311 0.884556 0.132002
O O1 0.500000 0.505943 0.750000
O O2 0.539835 0.585546 0.658298
O O3 0.245308 0.415682 0.579395
O O4 0.561210 0.254806 0.701332
O O5 0.250000 0.750000 0.500000
O O6 0.939661 0.580933 0.354388
O O7 0.952242 0.806065 0.444265
O O8 0.271697 0.113322 0.555404
O O9 0.966567 0.286956 0.415111
#
# Coordination Sequence:
#
# PCOD9295495 Si02
#       4
#     8   8   8   8
#     4  10  23  43  54  87 128 153 202 245 293 364
#     4  12  21  37  68  91 114 159 202 246 300 349
#     4   9  20  42  57  94 116 149 207 239 293 360
#     4   9  20  40  62  85 119 154 194 249 293 345
#
# _framework density 24.72494
#
# number of rings (size 3 to 8) (size 9 to 14) (size 15 to 20)
#    1.500    0.500    2.500    0.750    0.000    5.000 
#    4.500    0.000    0.000    0.000    0.000    0.000 
#    0.000    0.000    0.000    0.000    0.000    0.000 
#
# Total GULP energy -89359.501356 kJ/mol
# GULP energy per Si atom -5584.968835 kJ/mol
# Density = 2.466866 g / cm^3
# Si number density = 24.724940 Si / 1000 Ang^3
#
#
#
# Elastic Constant Matrix: (Units=GPa)
#
#
# Indices 1 2 3 4 5 6 
#
# 1 130.3474 35.4948 53.9531 0.0000 -54.6087 0.0000
# 2 35.4948 122.2992 33.3557 0.0000 -22.1799 0.0000
# 3 53.9531 33.3557 51.5523 0.0000 -31.1573 0.0000
# 4 0.0000 0.0000 0.0000 32.8376 0.0000 -3.5421
# 5 -54.6087 -22.1799 -31.1573 0.0000 56.3218 0.0000
# 6 0.0000 0.0000 0.0000 -3.5421 0.0000 43.2203
#
#
#
# Elastic Compliance Matrix: (Units=1/GPa)
#
#
# Indices 1 2 3 4 5 6 
#
# 1 0.016402 0.000098 -0.011409 0.000000 0.009630 0.000000
# 2 0.000098 0.009940 -0.006175 0.000000 0.000593 0.000000
# 3 -0.011409 -0.006175 0.040829 0.000000 0.009093 0.000000
# 4 0.000000 0.000000 0.000000 0.030724 0.000000 0.002518
# 5 0.009630 0.000593 0.009093 0.000000 0.032356 0.000000
# 6 0.000000 0.000000 0.000000 0.002518 0.000000 0.023344
#
#
# Mechanical properties :
#
#
# Convention : Reuss Voigt Hill
#
# Bulk Modulus (GPa) = 31.05720 61.08954 46.07337
# Shear Modulus (GPa) = 25.08758 38.56897 31.82828
#
# Velocity S-wave (km/s) = 3.18884 3.95387 3.59178
# Velocity P-wave (km/s) = 5.11338 6.75318 5.98966
#
# Compressibility (1/GPa) = 0.03219865
#
# Stress axis : x y z
#
# Youngs Moduli (GPa) = 60.96786 100.60244 24.49221
#
# Poissons Ratio (x) = -0.00984 0.27943
# Poissons Ratio (y) = -0.00596 0.15125
# Poissons Ratio (z) = 0.69557 0.62126
#
# Static dielectric constant tensor:
#      x y z
#    x 1.975370 0.000000 0.107040 
#    y 0.000000 1.965850 0.000000 
#    z 0.107040 0.000000 2.041450 
# 
# From -- ./inp_files/194777.got.cif
#   From: 2010.05.17/outbox.cif.g08.bks.cpg/sg15_98_cif.got.tgz:194777.got - 2010.06.03 18:47:42.
