data_PCOD9295942
_publ_section_title
;
Structure prediction by ZEFSAII (Michael W. Deem and Ramdas Pophale) SiO2 
 PCOD9295942
Probable space group: C 2/C
;
_chemical_formula_sum "Si O2"
_cell_formula_units_Z 52
_cell_length_a 13.688478
_cell_length_b 9.423678
_cell_length_c 27.989225
_cell_angle_alpha 90.000000
_cell_angle_beta 138.056636
_cell_angle_gamma 90.000000
_cell_volume 2413.237782
_symmetry_space_group_name_H-M "C 2/C"
_symmetry_group_IT_number 15
_symmetry_cell_setting 'monoclinic'
loop_
_space_group_symop_operation_xyz
x,y,z
-x,y,1/2-z
-x,-y,-z
x,-y,1/2+z
1/2+x,1/2+y,z
1/2-x,1/2+y,1/2-z
1/2-x,1/2-y,-z
1/2+x,1/2-y,1/2+z
loop_
_atom_site_type_symbol
_atom_site_label
_atom_site_fract_x
_atom_site_fract_y
_atom_site_fract_z
Si Si1 0.010334 0.901655 0.956471
Si Si2 0.390979 0.203940 0.776181
Si Si3 0.448828 0.069628 0.932576
Si Si4 0.155766 0.579669 0.919726
Si Si5 0.500000 0.280669 0.250000
Si Si6 0.689308 0.476177 0.273378
Si Si7 0.708239 0.977212 0.833547
O O1 0.962483 0.738820 0.945079
O O2 0.877141 0.970190 0.878551
O O3 0.179260 0.893482 0.002503
O O4 0.000000 0.000000 0.000000
O O5 0.553063 0.201789 0.858704
O O6 0.336740 0.362351 0.749675
O O7 0.292818 0.112440 0.776411
O O8 0.364501 0.111314 0.718733
O O9 0.558296 0.026364 0.928660
O O10 0.284646 0.028491 0.857140
O O11 0.500000 0.000000 0.000000
O O12 0.181788 0.486080 0.881259
O O13 0.537108 0.391598 0.221736
O O14 0.367191 0.170898 0.206310
#
# Coordination Sequence:
#
# PCOD9295942 Si02
#       7
#     8   8   8   8   4   8   8
#     4  10  23  44  68  97 131 189 231 282 352 424
#     4  11  24  45  71 103 138 186 234 299 352 425
#     4  11  25  45  65  99 144 177 232 296 342 423
#     4  10  23  43  74  95 136 182 239 276 364 404
#     4  12  22  42  68 104 140 176 226 296 356 414
#     4  11  27  42  72 104 139 183 240 290 361 419
#     4  11  22  44  72  98 145 180 229 295 356 419
#
# _framework density 21.547813999999999
#
# number of rings (size 3 to 8) (size 9 to 14) (size 15 to 20)
#    0.000    1.231    3.077    1.385   10.769    0.000 
#    2.769    3.077    0.000    0.000    0.000    0.000 
#    0.000    0.000    0.000    0.000    0.000    0.000 
#
# Total GULP energy -144813.963472 kJ/mol
# GULP energy per Si atom -5569.767826 kJ/mol
# Density = 2.149877 g / cm^3
# Si number density = 21.547814 Si / 1000 Ang^3
#
#
#
# Elastic Constant Matrix: (Units=GPa)
#
#
# Indices 1 2 3 4 5 6 
#
# 1 92.7033 35.6271 41.7033 0.0000 11.1468 0.0000
# 2 35.6271 142.2005 42.4468 0.0000 8.1007 0.0000
# 3 41.7033 42.4468 107.0949 0.0000 19.4015 0.0000
# 4 0.0000 0.0000 0.0000 9.3269 0.0000 6.9902
# 5 11.1468 8.1007 19.4015 0.0000 52.0236 0.0000
# 6 0.0000 0.0000 0.0000 6.9902 0.0000 25.9559
#
#
#
# Elastic Compliance Matrix: (Units=1/GPa)
#
#
# Indices 1 2 3 4 5 6 
#
# 1 0.013643 -0.002075 -0.004310 0.000000 -0.000993 0.000000
# 2 -0.002075 0.008292 -0.002494 0.000000 0.000083 0.000000
# 3 -0.004310 -0.002494 0.012619 0.000000 -0.003394 0.000000
# 4 0.000000 0.000000 0.000000 0.134329 0.000000 -0.036176
# 5 -0.000993 0.000083 -0.003394 0.000000 0.020688 0.000000
# 6 0.000000 0.000000 0.000000 -0.036176 0.000000 0.048270
#
#
# Mechanical properties :
#
#
# Convention : Reuss Voigt Hill
#
# Bulk Modulus (GPa) = 59.53733 64.61701 62.07717
# Shear Modulus (GPa) = 19.14268 32.27605 25.70936
#
# Velocity S-wave (km/s) = 2.98381 3.87444 3.45792
# Velocity P-wave (km/s) = 6.28976 7.07587 6.69437
#
# Compressibility (1/GPa) = 0.01679618
#
# Stress axis : x y z
#
# Youngs Moduli (GPa) = 73.29794 120.60185 79.24400
#
# Poissons Ratio (x) = 0.25024 0.34158
# Poissons Ratio (y) = 0.15209 0.19760
# Poissons Ratio (z) = 0.31595 0.30073
#
# Static dielectric constant tensor:
#      x y z
#    x 2.140590 0.000000 -0.054210 
#    y 0.000000 1.738060 0.000000 
#    z -0.054210 0.000000 1.901290 
# 
# From -- ./inp_files/313202.got.cif
#   From: 2010.05.17/outbox.cif.g08.bks.cpg/sg15_157_cif.got.tgz:313202.got - 2010.06.03 18:47:42.
