data_PCOD9295853
_publ_section_title
;
Structure prediction by ZEFSAII (Michael W. Deem and Ramdas Pophale) SiO2 
 PCOD9295853
Probable space group: C 2/C
;
_chemical_formula_sum "Si O2"
_cell_formula_units_Z 40
_cell_length_a 22.515658
_cell_length_b 8.613419
_cell_length_c 9.192050
_cell_angle_alpha 90.000000
_cell_angle_beta 60.333298
_cell_angle_gamma 90.000000
_cell_volume 1549.002231
_symmetry_space_group_name_H-M "C 2/C"
_symmetry_group_IT_number 15
_symmetry_cell_setting 'monoclinic'
loop_
_space_group_symop_operation_xyz
x,y,z
-x,y,1/2-z
-x,-y,-z
x,-y,1/2+z
1/2+x,1/2+y,z
1/2-x,1/2+y,1/2-z
1/2-x,1/2-y,-z
1/2+x,1/2-y,1/2+z
loop_
_atom_site_type_symbol
_atom_site_label
_atom_site_fract_x
_atom_site_fract_y
_atom_site_fract_z
Si Si1 0.914442 0.843860 0.731456
Si Si2 0.447618 0.849171 0.944685
Si Si3 0.266734 0.406559 0.892320
Si Si4 0.861169 0.149044 0.855995
Si Si5 0.126065 0.646675 0.439442
O O1 0.964893 0.773302 0.551680
O O2 0.841437 0.869397 0.736952
O O3 0.920038 0.014618 0.793377
O O4 0.901861 0.723818 0.877673
O O5 0.500000 0.868016 0.750000
O O6 0.381420 0.784089 0.939161
O O7 0.425303 0.010811 0.043552
O O8 0.289408 0.556715 0.959465
O O9 0.200612 0.428688 0.876204
O O10 0.250000 0.250000 0.000000
O O11 0.863714 0.222329 0.692774
#
# Coordination Sequence:
#
# PCOD9295853 Si02
#       5
#     8   8   8   8   8
#     4   9  22  43  67  97 135 173 233 280 349 413
#     4  12  27  45  65  98 141 191 242 285 334 403
#     4   8  20  39  68  99 135 164 222 285 355 417
#     4  10  23  43  71 100 136 182 225 286 350 406
#     4  11  22  42  68 103 140 181 223 287 346 416
#
# _framework density 25.823073999999998
#
# number of rings (size 3 to 8) (size 9 to 14) (size 15 to 20)
#    1.200    0.800    0.000    2.400    2.800    4.800 
#    7.200    2.000    0.000    0.000    0.000    0.000 
#    0.000    0.000    0.000    0.000    0.000    0.000 
#
# Total GULP energy -111689.371294 kJ/mol
# GULP energy per Si atom -5584.468565 kJ/mol
# Density = 2.576430 g / cm^3
# Si number density = 25.823074 Si / 1000 Ang^3
#
#
#
# Elastic Constant Matrix: (Units=GPa)
#
#
# Indices 1 2 3 4 5 6 
#
# 1 83.8335 18.0025 -1.9728 0.0000 -6.1690 0.0000
# 2 18.0025 125.9714 23.2592 0.0000 -10.6985 0.0000
# 3 -1.9728 23.2592 79.1848 0.0000 -0.9398 0.0000
# 4 0.0000 0.0000 0.0000 39.7773 0.0000 -11.1838
# 5 -6.1690 -10.6985 -0.9398 0.0000 21.1448 0.0000
# 6 0.0000 0.0000 0.0000 -11.1838 0.0000 15.7820
#
#
#
# Elastic Compliance Matrix: (Units=1/GPa)
#
#
# Indices 1 2 3 4 5 6 
#
# 1 0.012523 -0.001706 0.000847 0.000000 0.002828 0.000000
# 2 -0.001706 0.009004 -0.002641 0.000000 0.003941 0.000000
# 3 0.000847 -0.002641 0.013420 0.000000 -0.000493 0.000000
# 4 0.000000 0.000000 0.000000 0.031395 0.000000 0.022248
# 5 0.002828 0.003941 -0.000493 0.000000 0.050090 0.000000
# 6 0.000000 0.000000 0.000000 0.022248 0.000000 0.079129
#
#
# Mechanical properties :
#
#
# Convention : Reuss Voigt Hill
#
# Bulk Modulus (GPa) = 35.78189 40.84083 38.31136
# Shear Modulus (GPa) = 23.59863 31.98753 27.79308
#
# Velocity S-wave (km/s) = 3.02629 3.52336 3.28424
# Velocity P-wave (km/s) = 5.10861 5.69228 5.40832
#
# Compressibility (1/GPa) = 0.02794710
#
# Stress axis : x y z
#
# Youngs Moduli (GPa) = 79.85485 111.05779 74.51814
#
# Poissons Ratio (x) = 0.18944 -0.06309
# Poissons Ratio (y) = 0.13621 0.19677
# Poissons Ratio (z) = -0.06760 0.29326
#
# Static dielectric constant tensor:
#      x y z
#    x 2.079750 0.000000 -0.026770 
#    y 0.000000 1.858570 0.000000 
#    z -0.026770 0.000000 1.998560 
# 
# From -- ./inp_files/68264.got.cif
#   From: 2010.05.17/outbox.cif.g08.bks.cpg/sg15_35_cif.got.tgz:68264.got - 2010.06.03 18:47:42.
