data_PCOD9295323
_publ_section_title
;
Structure prediction by ZEFSAII (Michael W. Deem and Ramdas Pophale) SiO2 
 PCOD9295323
Probable space group: C 2/C
;
_chemical_formula_sum "Si O2"
_cell_formula_units_Z 48
_cell_length_a 4.998676
_cell_length_b 23.356212
_cell_length_c 16.246388
_cell_angle_alpha 90.000000
_cell_angle_beta 89.012284
_cell_angle_gamma 90.000000
_cell_volume 1896.486181
_symmetry_space_group_name_H-M "C 2/C"
_symmetry_group_IT_number 15
_symmetry_cell_setting 'monoclinic'
loop_
_space_group_symop_operation_xyz
x,y,z
-x,y,1/2-z
-x,-y,-z
x,-y,1/2+z
1/2+x,1/2+y,z
1/2-x,1/2+y,1/2-z
1/2-x,1/2-y,-z
1/2+x,1/2-y,1/2+z
loop_
_atom_site_type_symbol
_atom_site_label
_atom_site_fract_x
_atom_site_fract_y
_atom_site_fract_z
Si Si1 0.193122 0.811828 0.429887
Si Si2 0.241328 0.787163 0.692548
Si Si3 0.756748 0.092223 0.696352
Si Si4 0.380033 0.090435 0.161122
Si Si5 0.626151 0.977367 0.416304
Si Si6 0.217646 0.632379 0.005910
O O1 0.210046 0.749686 0.389582
O O2 0.136332 0.852838 0.352173
O O3 0.468548 0.835755 0.464657
O O4 0.962082 0.824211 0.496985
O O5 0.500000 0.785786 0.750000
O O6 0.196483 0.853724 0.670530
O O7 0.000000 0.764916 0.750000
O O8 0.500000 0.111887 0.750000
O O9 0.617080 0.045624 0.638476
O O10 0.000000 0.069145 0.750000
O O11 0.500000 0.078013 0.250000
O O12 0.245815 0.032624 0.127354
O O13 0.609614 0.110041 0.094197
O O14 0.790199 0.922808 0.448054
O O15 0.500000 0.000000 0.500000
#
# Coordination Sequence:
#
# PCOD9295323 Si02
#       6
#     8   8   8   8   8   8
#     4  11  22  41  67  96 131 167 216 277 328 381
#     4  11  24  43  67  97 134 175 217 266 326 392
#     4  11  21  37  64  97 127 164 217 272 329 386
#     4  10  23  44  66  94 134 178 219 266 327 399
#     4   9  20  43  65  95 134 174 220 272 328 392
#     4  10  23  42  68  98 128 170 221 276 328 382
#
# _framework density 25.309967
#
# number of rings (size 3 to 8) (size 9 to 14) (size 15 to 20)
#    0.000    1.667    0.000    4.500    0.000    4.000 
#    0.000   50.833    0.000    0.000    0.000    0.000 
#    0.000    0.000    0.000    0.000    0.000    0.000 
#
# Total GULP energy -134416.001548 kJ/mol
# GULP energy per Si atom -5600.666731 kJ/mol
# Density = 2.525236 g / cm^3
# Si number density = 25.309967 Si / 1000 Ang^3
#
#
#
# Elastic Constant Matrix: (Units=GPa)
#
#
# Indices 1 2 3 4 5 6 
#
# 1 75.4742 8.8575 19.5619 0.0000 -11.8998 0.0000
# 2 8.8575 138.0208 49.9987 0.0000 2.2160 0.0000
# 3 19.5619 49.9987 125.1516 0.0000 4.4698 0.0000
# 4 0.0000 0.0000 0.0000 37.6665 0.0000 -14.9051
# 5 -11.8998 2.2160 4.4698 0.0000 35.1861 0.0000
# 6 0.0000 0.0000 0.0000 -14.9051 0.0000 -0.8127
#
#
#
# Elastic Compliance Matrix: (Units=1/GPa)
#
#
# Indices 1 2 3 4 5 6 
#
# 1 0.014733 -0.000149 -0.002433 0.000000 0.005301 0.000000
# 2 -0.000149 0.008473 -0.003356 0.000000 -0.000158 0.000000
# 3 -0.002433 -0.003356 0.009777 0.000000 -0.001853 0.000000
# 4 0.000000 0.000000 0.000000 0.003215 0.000000 -0.058966
# 5 0.005301 -0.000158 -0.001853 0.000000 0.030459 0.000000
# 6 0.000000 0.000000 0.000000 -0.058966 0.000000 -0.149012
#
#
# Mechanical properties :
#
#
# Convention : Reuss Voigt Hill
#
# Bulk Modulus (GPa) = 47.37550 55.05365 51.21457
# Shear Modulus (GPa) = -78.81226 31.75655 -23.52785
#
# Velocity S-wave (km/s) = -5.58627 3.54602 -3.05222
# Velocity P-wave (km/s) = 4.78015 6.21005 2.80311
#
# Compressibility (1/GPa) = 0.02110796
#
# Stress axis : x y z
#
# Youngs Moduli (GPa) = 67.87293 118.01968 102.27568
#
# Poissons Ratio (x) = 0.01764 0.24879
# Poissons Ratio (y) = 0.01014 0.34325
# Poissons Ratio (z) = 0.16510 0.39608
#
# Static dielectric constant tensor:
#      x y z
#    x 1.921100 0.000000 0.031530 
#    y 0.000000 2.020830 0.000000 
#    z 0.031530 0.000000 2.027510 
# 
# From -- ./inp_files/185470.got.cif
#   From: 2010.05.17/outbox.cif.g08.bks.cpg/sg15_93_cif.got.tgz:185470.got - 2010.06.03 18:47:42.
