data_PCOD9295369
_publ_section_title
;
Structure prediction by ZEFSAII (Michael W. Deem and Ramdas Pophale) SiO2 
 PCOD9295369
Probable space group: C 2/C
;
_chemical_formula_sum "Si O2"
_cell_formula_units_Z 48
_cell_length_a 13.855351
_cell_length_b 19.748763
_cell_length_c 14.316344
_cell_angle_alpha 90.000000
_cell_angle_beta 148.980075
_cell_angle_gamma 90.000000
_cell_volume 2018.738878
_symmetry_space_group_name_H-M "C 2/C"
_symmetry_group_IT_number 15
_symmetry_cell_setting 'monoclinic'
loop_
_space_group_symop_operation_xyz
x,y,z
-x,y,1/2-z
-x,-y,-z
x,-y,1/2+z
1/2+x,1/2+y,z
1/2-x,1/2+y,1/2-z
1/2-x,1/2-y,-z
1/2+x,1/2-y,1/2+z
loop_
_atom_site_type_symbol
_atom_site_label
_atom_site_fract_x
_atom_site_fract_y
_atom_site_fract_z
Si Si1 0.896136 0.656108 0.887741
Si Si2 0.249374 0.130918 0.231529
Si Si3 0.555052 0.511451 0.153652
Si Si4 0.533324 0.722125 0.387514
Si Si5 0.199489 0.597276 0.868559
Si Si6 0.528559 0.361744 0.169639
O O1 0.841615 0.593216 0.776197
O O2 0.693141 0.680209 0.754873
O O3 0.021909 0.704498 0.925494
O O4 0.030496 0.642986 0.086235
O O5 0.218417 0.065595 0.273543
O O6 0.128211 0.185184 0.188094
O O7 0.149912 0.131237 0.047582
O O8 0.597709 0.440078 0.235493
O O9 0.500000 0.500000 0.000000
O O10 0.368458 0.548222 0.040273
O O11 0.500000 0.723678 0.250000
O O12 0.713100 0.673100 0.548566
O O13 0.000000 0.587064 0.750000
O O14 0.500000 0.335325 0.250000
#
# Coordination Sequence:
#
# PCOD9295369 Si02
#       6
#     8   8   8   8   8   8
#     4  12  23  41  68  96 140 182 220 274 350 404
#     4  10  23  42  70 101 133 172 228 277 347 418
#     4   9  19  45  64  93 138 171 219 288 330 398
#     4  11  23  43  68 104 145 170 214 283 350 427
#     4  11  22  39  68 110 140 175 219 273 357 422
#     4  11  25  48  67  91 136 184 236 289 328 387
#
# _framework density 23.777218999999999
#
# number of rings (size 3 to 8) (size 9 to 14) (size 15 to 20)
#    0.000    1.333    5.000    2.500    0.000    7.333 
#    9.000    0.833    0.000    0.000    0.000    0.000 
#    0.000    0.000    0.000    0.000    0.000    0.000 
#
# Total GULP energy -133918.762330 kJ/mol
# GULP energy per Si atom -5579.948430 kJ/mol
# Density = 2.372310 g / cm^3
# Si number density = 23.777219 Si / 1000 Ang^3
#
#
#
# Elastic Constant Matrix: (Units=GPa)
#
#
# Indices 1 2 3 4 5 6 
#
# 1 116.7438 -4.6511 24.1877 0.0000 -12.7396 0.0000
# 2 -4.6511 44.3441 0.6006 0.0000 4.0502 0.0000
# 3 24.1877 0.6006 138.4700 0.0000 -1.8103 0.0000
# 4 0.0000 0.0000 0.0000 5.7521 0.0000 -4.2292
# 5 -12.7396 4.0502 -1.8103 0.0000 29.8527 0.0000
# 6 0.0000 0.0000 0.0000 -4.2292 0.0000 16.9108
#
#
#
# Elastic Compliance Matrix: (Units=1/GPa)
#
#
# Indices 1 2 3 4 5 6 
#
# 1 0.009334 0.000654 -0.001584 0.000000 0.003799 0.000000
# 2 0.000654 0.022882 -0.000251 0.000000 -0.002841 0.000000
# 3 -0.001584 -0.000251 0.007497 0.000000 -0.000187 0.000000
# 4 0.000000 0.000000 0.000000 0.213018 0.000000 0.053273
# 5 0.003799 -0.002841 -0.000187 0.000000 0.035493 0.000000
# 6 0.000000 0.000000 0.000000 0.053273 0.000000 0.072457
#
#
# Mechanical properties :
#
#
# Convention : Reuss Voigt Hill
#
# Bulk Modulus (GPa) = 26.77201 37.75916 32.26559
# Shear Modulus (GPa) = 13.31580 29.13116 21.22348
#
# Velocity S-wave (km/s) = 2.36905 3.50404 2.99088
# Velocity P-wave (km/s) = 4.33211 5.68207 5.05238
#
# Compressibility (1/GPa) = 0.03735244
#
# Stress axis : x y z
#
# Youngs Moduli (GPa) = 107.12987 43.70182 133.38569
#
# Poissons Ratio (x) = -0.02856 0.21124
# Poissons Ratio (y) = -0.07001 0.03342
# Poissons Ratio (z) = 0.16966 0.01095
#
# Static dielectric constant tensor:
#      x y z
#    x 1.951740 0.000000 -0.006960 
#    y 0.000000 2.062490 0.000000 
#    z -0.006960 0.000000 1.993040 
# 
# From -- ./inp_files/156844.got.cif
#   From: 2010.05.17/outbox.cif.g08.bks.cpg/sg15_79_cif.got.tgz:156844.got - 2010.06.03 18:47:42.
