data_PCOD9295626
_publ_section_title
;
Structure prediction by ZEFSAII (Michael W. Deem and Ramdas Pophale) SiO2 
 PCOD9295626
Probable space group: C 2/C
;
_chemical_formula_sum "Si O2"
_cell_formula_units_Z 60
_cell_length_a 7.520132
_cell_length_b 11.961467
_cell_length_c 30.439617
_cell_angle_alpha 90.000000
_cell_angle_beta 83.039695
_cell_angle_gamma 90.000000
_cell_volume 2717.919827
_symmetry_space_group_name_H-M "C 2/C"
_symmetry_group_IT_number 15
_symmetry_cell_setting 'monoclinic'
loop_
_space_group_symop_operation_xyz
x,y,z
-x,y,1/2-z
-x,-y,-z
x,-y,1/2+z
1/2+x,1/2+y,z
1/2-x,1/2+y,1/2-z
1/2-x,1/2-y,-z
1/2+x,1/2-y,1/2+z
loop_
_atom_site_type_symbol
_atom_site_label
_atom_site_fract_x
_atom_site_fract_y
_atom_site_fract_z
Si Si1 0.500000 0.869307 0.250000
Si Si2 0.430219 0.785086 0.564205
Si Si3 0.649533 0.498041 0.783296
Si Si4 0.980527 0.228259 0.421745
Si Si5 0.934938 0.873279 0.364372
Si Si6 0.137057 0.465146 0.435329
Si Si7 0.873064 0.108249 0.004047
Si Si8 0.130066 0.769366 0.825586
O O1 0.679427 0.940575 0.241257
O O2 0.484869 0.796113 0.206708
O O3 0.221664 0.787616 0.556687
O O4 0.461445 0.715608 0.607970
O O5 0.545094 0.712779 0.526130
O O6 0.461709 0.917536 0.568229
O O7 0.500000 0.487273 0.750000
O O8 0.564567 0.563830 0.827127
O O9 0.705788 0.377492 0.799351
O O10 0.019895 0.359673 0.424592
O O11 0.120820 0.158302 0.447108
O O12 0.008544 0.196363 0.370529
O O13 0.818746 0.954203 0.400210
O O14 0.787912 0.806383 0.340409
O O15 0.200901 0.437073 0.482974
O O16 0.000000 0.000000 0.000000
#
# Coordination Sequence:
#
# PCOD9295626 Si02
#       8
#     4   8   8   8   8   8   8   8
#     4  12  26  46  68 106 130 176 238 270 356 428
#     4  11  23  42  65  99 134 183 229 282 340 405
#     4  12  25  45  74  98 139 180 220 292 348 411
#     4  11  23  43  68  96 135 177 231 283 341 413
#     4  10  24  44  67  99 138 174 226 282 346 403
#     4  10  23  43  66  96 136 177 228 281 337 408
#     4  11  23  42  64  96 139 181 226 285 343 400
#     4  11  25  46  69 102 135 177 229 285 350 419
#
# _framework density 22.075704999999999
#
# number of rings (size 3 to 8) (size 9 to 14) (size 15 to 20)
#    0.000    1.067    3.333    2.400    1.867    4.800 
#    7.200    0.000    0.000    0.000    0.000    0.000 
#    0.000    0.000    0.000    0.000    0.000    0.000 
#
# Total GULP energy -167863.330103 kJ/mol
# GULP energy per Si atom -5595.444337 kJ/mol
# Density = 2.202546 g / cm^3
# Si number density = 22.075705 Si / 1000 Ang^3
#
#
#
# Elastic Constant Matrix: (Units=GPa)
#
#
# Indices 1 2 3 4 5 6 
#
# 1 51.4380 2.7078 15.8289 0.0000 3.6538 0.0000
# 2 2.7078 126.3786 32.0588 0.0000 3.3410 0.0000
# 3 15.8289 32.0588 124.6446 0.0000 13.2391 0.0000
# 4 0.0000 0.0000 0.0000 16.9603 0.0000 4.2063
# 5 3.6538 3.3410 13.2391 0.0000 36.1529 0.0000
# 6 0.0000 0.0000 0.0000 4.2063 0.0000 26.4805
#
#
#
# Elastic Compliance Matrix: (Units=1/GPa)
#
#
# Indices 1 2 3 4 5 6 
#
# 1 0.020284 0.000233 -0.002514 0.000000 -0.001151 0.000000
# 2 0.000233 0.008468 -0.002208 0.000000 0.000002 0.000000
# 3 -0.002514 -0.002208 0.009220 0.000000 -0.002918 0.000000
# 4 0.000000 0.000000 0.000000 0.061379 0.000000 -0.009750
# 5 -0.001151 0.000002 -0.002918 0.000000 0.028845 0.000000
# 6 0.000000 0.000000 0.000000 -0.009750 0.000000 0.039312
#
#
# Mechanical properties :
#
#
# Convention : Reuss Voigt Hill
#
# Bulk Modulus (GPa) = 34.48824 44.85024 39.66924
# Shear Modulus (GPa) = 26.86014 32.70976 29.78495
#
# Velocity S-wave (km/s) = 3.49195 3.85347 3.67716
# Velocity P-wave (km/s) = 5.64933 6.33717 6.00311
#
# Compressibility (1/GPa) = 0.02899539
#
# Stress axis : x y z
#
# Youngs Moduli (GPa) = 49.30028 118.09537 108.46175
#
# Poissons Ratio (x) = -0.02757 0.27264
# Poissons Ratio (y) = -0.01151 0.23946
# Poissons Ratio (z) = 0.12393 0.26073
#
# Static dielectric constant tensor:
#      x y z
#    x 1.842000 0.000000 -0.030600 
#    y 0.000000 1.793190 0.000000 
#    z -0.030600 0.000000 1.814640 
# 
# From -- ./inp_files/288010.got.cif
#   From: 2010.05.17/outbox.cif.g08.bks.cpg/sg15_145_cif.got.tgz:288010.got - 2010.06.03 18:47:42.
