data_PCOD9295313
_publ_section_title
;
Structure prediction by ZEFSAII (Michael W. Deem and Ramdas Pophale) SiO2 
 PCOD9295313
Probable space group: C 2/C
;
_chemical_formula_sum "Si O2"
_cell_formula_units_Z 48
_cell_length_a 16.563802
_cell_length_b 11.574246
_cell_length_c 14.037958
_cell_angle_alpha 90.000000
_cell_angle_beta 66.382418
_cell_angle_gamma 90.000000
_cell_volume 2465.845413
_symmetry_space_group_name_H-M "C 2/C"
_symmetry_group_IT_number 15
_symmetry_cell_setting 'monoclinic'
loop_
_space_group_symop_operation_xyz
x,y,z
-x,y,1/2-z
-x,-y,-z
x,-y,1/2+z
1/2+x,1/2+y,z
1/2-x,1/2+y,1/2-z
1/2-x,1/2-y,-z
1/2+x,1/2-y,1/2+z
loop_
_atom_site_type_symbol
_atom_site_label
_atom_site_fract_x
_atom_site_fract_y
_atom_site_fract_z
Si Si1 0.618713 0.599420 0.882439
Si Si2 0.185543 0.682614 0.460489
Si Si3 0.905134 0.344495 0.023830
Si Si4 0.080196 0.912181 0.060707
Si Si5 0.777650 0.957618 0.347361
Si Si6 0.024090 0.549919 0.628262
O O1 0.635944 0.727724 0.914539
O O2 0.524810 0.581996 0.874908
O O3 0.695795 0.567130 0.773382
O O4 0.612158 0.513452 0.975025
O O5 0.250000 0.750000 0.500000
O O6 0.243036 0.588146 0.377093
O O7 0.113377 0.617249 0.558867
O O8 0.803810 0.381493 0.077625
O O9 0.949250 0.385241 0.102060
O O10 0.908494 0.210695 0.996888
O O11 0.958438 0.421112 0.920765
O O12 0.138891 0.926909 0.126388
O O13 0.000000 0.549559 0.750000
#
# Coordination Sequence:
#
# PCOD9295313 Si02
#       6
#     8   8   8   8   8   8
#     4  11  25  42  68  95 137 176 214 278 339 396
#     4  11  23  46  64  97 134 168 227 278 321 409
#     4  10  23  43  63  99 133 167 227 276 320 407
#     4  11  23  46  62  98 137 168 221 277 332 402
#     4  11  25  40  70  96 129 180 226 265 342 393
#     4  10  23  42  68  95 130 179 217 275 340 385
#
# _framework density 19.46594
#
# number of rings (size 3 to 8) (size 9 to 14) (size 15 to 20)
#    0.000    1.333    3.333    1.000    4.667    1.333 
#    0.000    0.000    0.000    0.000    0.000    0.000 
#    0.000    0.000    0.000    0.000    0.000    0.000 
#
# Total GULP energy -134079.119006 kJ/mol
# GULP energy per Si atom -5586.629959 kJ/mol
# Density = 1.942163 g / cm^3
# Si number density = 19.465940 Si / 1000 Ang^3
#
#
#
# Elastic Constant Matrix: (Units=GPa)
#
#
# Indices 1 2 3 4 5 6 
#
# 1 64.6531 -0.8563 18.3474 0.0000 9.2528 0.0000
# 2 -0.8563 85.1891 30.2483 0.0000 -8.7347 0.0000
# 3 18.3474 30.2483 123.2800 0.0000 4.7528 0.0000
# 4 0.0000 0.0000 0.0000 13.2531 0.0000 -3.3754
# 5 9.2528 -8.7347 4.7528 0.0000 16.8026 0.0000
# 6 0.0000 0.0000 0.0000 -3.3754 0.0000 28.4213
#
#
#
# Elastic Compliance Matrix: (Units=1/GPa)
#
#
# Indices 1 2 3 4 5 6 
#
# 1 0.017383 0.000065 -0.002260 0.000000 -0.008900 0.000000
# 2 0.000065 0.013914 -0.003742 0.000000 0.008256 0.000000
# 3 -0.002260 -0.003742 0.009497 0.000000 -0.003387 0.000000
# 4 0.000000 0.000000 0.000000 0.077807 0.000000 0.009241
# 5 -0.008900 0.008256 -0.003387 0.000000 0.069665 0.000000
# 6 0.000000 0.000000 0.000000 0.009241 0.000000 0.036282
#
#
# Mechanical properties :
#
#
# Convention : Reuss Voigt Hill
#
# Bulk Modulus (GPa) = 34.57848 40.95566 37.76707
# Shear Modulus (GPa) = 20.31998 26.72095 23.52047
#
# Velocity S-wave (km/s) = 3.23441 3.70902 3.47982
# Velocity P-wave (km/s) = 5.63477 6.27915 5.96567
#
# Compressibility (1/GPa) = 0.02891972
#
# Stress axis : x y z
#
# Youngs Moduli (GPa) = 57.52748 71.86767 105.30018
#
# Poissons Ratio (x) = -0.00464 0.23796
# Poissons Ratio (y) = -0.00372 0.39403
# Poissons Ratio (z) = 0.13000 0.26893
#
# Static dielectric constant tensor:
#      x y z
#    x 1.693900 0.000000 -0.007720 
#    y 0.000000 1.676880 0.000000 
#    z -0.007720 0.000000 1.633780 
# 
# From -- ./inp_files/152478.got.cif
#   From: 2010.05.17/outbox.cif.g08.bks.cpg/sg15_77_cif.got.tgz:152478.got - 2010.06.03 18:47:42.
