data_PCOD9295970
_publ_section_title
;
Structure prediction by ZEFSAII (Michael W. Deem and Ramdas Pophale) SiO2 
 PCOD9295970
Probable space group: C 2/C
;
_chemical_formula_sum "Si O2"
_cell_formula_units_Z 24
_cell_length_a 7.042385
_cell_length_b 21.875460
_cell_length_c 8.025370
_cell_angle_alpha 90.000000
_cell_angle_beta 120.087154
_cell_angle_gamma 90.000000
_cell_volume 1069.770399
_symmetry_space_group_name_H-M "C 2/C"
_symmetry_group_IT_number 15
_symmetry_cell_setting 'monoclinic'
loop_
_space_group_symop_operation_xyz
x,y,z
-x,y,1/2-z
-x,-y,-z
x,-y,1/2+z
1/2+x,1/2+y,z
1/2-x,1/2+y,1/2-z
1/2-x,1/2-y,-z
1/2+x,1/2-y,1/2+z
loop_
_atom_site_type_symbol
_atom_site_label
_atom_site_fract_x
_atom_site_fract_y
_atom_site_fract_z
Si Si1 0.250528 0.919185 0.915521
Si Si2 0.000000 0.793056 0.250000
Si Si3 0.521609 0.798793 0.071769
Si Si4 0.000000 0.503689 0.250000
O O1 0.000000 0.919531 0.750000
O O2 0.400579 0.952439 0.844927
O O3 0.341113 0.851035 0.976449
O O4 0.305542 0.959130 0.102491
O O5 0.232913 0.826801 0.344737
O O6 0.000683 0.750696 0.415964
O O7 0.500000 0.773080 0.250000
#
# Coordination Sequence:
#
# PCOD9295970 Si02
#       4
#     8   4   8   4
#     4  11  23  42  68  97 130 170 216 268 328 392
#     4  10  25  44  64  96 134 174 221 276 324 392
#     4  11  23  43  67  97 130 177 220 270 333 388
#     4  10  23  44  62 100 130 170 213 268 330 384
#
# _framework density 22.434721
#
# number of rings (size 3 to 8) (size 9 to 14) (size 15 to 20)
#    0.000    1.333    1.667    3.000    0.000    9.333 
#   12.000    0.000    0.000    0.000    0.000    0.000 
#    0.000    0.000    0.000    0.000    0.000    0.000 
#
# Total GULP energy -67112.256260 kJ/mol
# GULP energy per Si atom -5592.688022 kJ/mol
# Density = 2.238366 g / cm^3
# Si number density = 22.434721 Si / 1000 Ang^3
#
#
#
# Elastic Constant Matrix: (Units=GPa)
#
#
# Indices 1 2 3 4 5 6 
#
# 1 73.3881 14.9109 34.3518 0.0000 13.0717 0.0000
# 2 14.9109 63.8634 41.3913 0.0000 -7.1554 0.0000
# 3 34.3518 41.3913 127.9745 0.0000 -1.8953 0.0000
# 4 0.0000 0.0000 0.0000 -2.7422 0.0000 28.5070
# 5 13.0717 -7.1554 -1.8953 0.0000 59.8739 0.0000
# 6 0.0000 0.0000 0.0000 28.5070 0.0000 5.9553
#
#
#
# Elastic Compliance Matrix: (Units=1/GPa)
#
#
# Indices 1 2 3 4 5 6 
#
# 1 0.016522 -0.001755 -0.003926 0.000000 -0.003941 0.000000
# 2 -0.001755 0.020282 -0.006050 0.000000 0.002615 0.000000
# 3 -0.003926 -0.006050 0.010832 0.000000 0.000477 0.000000
# 4 0.000000 0.000000 0.000000 -0.007184 0.000000 0.034388
# 5 -0.003941 0.002615 0.000477 0.000000 0.017890 0.000000
# 6 0.000000 0.000000 0.000000 0.034388 0.000000 0.003308
#
#
# Mechanical properties :
#
#
# Convention : Reuss Voigt Hill
#
# Bulk Modulus (GPa) = 41.36542 49.61488 45.49015
# Shear Modulus (GPa) = 53.66496 24.25553 38.96024
#
# Velocity S-wave (km/s) = 4.89616 3.29167 4.17178
# Velocity P-wave (km/s) = 7.10221 6.05062 6.59740
#
# Compressibility (1/GPa) = 0.02417478
#
# Stress axis : x y z
#
# Youngs Moduli (GPa) = 60.52413 49.30363 92.32086
#
# Poissons Ratio (x) = 0.08652 0.36244
# Poissons Ratio (y) = 0.10621 0.55857
# Poissons Ratio (z) = 0.23761 0.29830
#
# Static dielectric constant tensor:
#      x y z
#    x 1.823960 0.000000 0.005580 
#    y 0.000000 1.770680 0.000000 
#    z 0.005580 0.000000 1.920740 
# 
# From -- ./inp_files/19429.got.cif
#   From: 2010.05.17/outbox.cif.g08.bks.cpg/sg15_10_cif.got.tgz:19429.got - 2010.06.03 18:47:42.
