data_PCOD9295099
_publ_section_title
;
Structure prediction by ZEFSAII (Michael W. Deem and Ramdas Pophale) SiO2 
 PCOD9295099
Probable space group: C 2/C
;
_chemical_formula_sum "Si O2"
_cell_formula_units_Z 64
_cell_length_a 15.640141
_cell_length_b 23.033129
_cell_length_c 14.477415
_cell_angle_alpha 90.000000
_cell_angle_beta 36.745026
_cell_angle_gamma 90.000000
_cell_volume 3120.117815
_symmetry_space_group_name_H-M "C 2/C"
_symmetry_group_IT_number 15
_symmetry_cell_setting 'monoclinic'
loop_
_space_group_symop_operation_xyz
x,y,z
-x,y,1/2-z
-x,-y,-z
x,-y,1/2+z
1/2+x,1/2+y,z
1/2-x,1/2+y,1/2-z
1/2-x,1/2-y,-z
1/2+x,1/2-y,1/2+z
loop_
_atom_site_type_symbol
_atom_site_label
_atom_site_fract_x
_atom_site_fract_y
_atom_site_fract_z
Si Si1 0.826891 0.304215 0.891175
Si Si2 0.203771 0.984750 0.408888
Si Si3 0.021049 0.582505 0.840938
Si Si4 0.930231 0.075586 0.102298
Si Si5 0.702721 0.699711 0.296899
Si Si6 0.753833 0.018344 0.408418
Si Si7 0.486642 0.816402 0.025624
Si Si8 0.595381 0.097982 0.073171
O O1 0.771016 0.310903 0.837732
O O2 0.786318 0.360512 0.984620
O O3 0.000000 0.297563 0.750000
O O4 0.750000 0.250000 0.000000
O O5 0.364027 0.967964 0.240456
O O6 0.203770 0.980778 0.520209
O O7 0.098579 0.937048 0.454530
O O8 0.151165 0.046198 0.414154
O O9 0.000000 0.586292 0.750000
O O10 0.866296 0.565797 0.012562
O O11 0.063708 0.643276 0.846910
O O12 0.889179 0.142646 0.149031
O O13 0.880951 0.035115 0.231060
O O14 0.609669 0.758342 0.389415
O O15 0.846872 0.702455 0.110408
O O16 0.670317 0.958075 0.467488
O O17 0.470011 0.860899 0.951281
O O18 0.500000 0.083111 0.250000
#
# Coordination Sequence:
#
# PCOD9295099 Si02
#       8
#     8   8   8   8   8   8   8   8
#     4  11  20  39  59  92 133 170 210 254 311 388
#     4  10  23  42  64  95 133 166 211 265 333 388
#     4  10  23  43  67  93 122 160 223 276 321 379
#     4  11  24  42  64  94 136 171 209 266 330 394
#     4  12  24  42  64  94 130 173 214 265 320 387
#     4  11  22  40  69  97 125 169 216 273 323 384
#     4  12  25  41  66  93 131 168 224 262 326 386
#     4  11  21  36  66 100 132 166 209 263 317 392
#
# _framework density 20.512046000000002
#
# number of rings (size 3 to 8) (size 9 to 14) (size 15 to 20)
#    0.000    1.000    5.000    3.000    3.500    1.000 
#    0.000    3.125    0.000    0.000    0.000    0.000 
#    0.000    0.000    0.000    0.000    0.000    0.000 
#
# Total GULP energy -178428.656749 kJ/mol
# GULP energy per Si atom -5575.895523 kJ/mol
# Density = 2.046536 g / cm^3
# Si number density = 20.512046 Si / 1000 Ang^3
#
#
#
# Elastic Constant Matrix: (Units=GPa)
#
#
# Indices 1 2 3 4 5 6 
#
# 1 70.7940 32.7796 14.5052 0.0039 -11.5117 0.0003
# 2 32.7796 118.6708 7.6845 0.0054 -10.7244 -0.0049
# 3 14.5052 7.6845 37.3133 0.0007 -10.5818 -0.0037
# 4 0.0039 0.0054 0.0007 23.5169 -0.0014 6.3104
# 5 -11.5117 -10.7244 -10.5818 -0.0014 23.0282 0.0024
# 6 0.0003 -0.0049 -0.0037 6.3104 0.0024 26.6867
#
#
#
# Elastic Compliance Matrix: (Units=1/GPa)
#
#
# Indices 1 2 3 4 5 6 
#
# 1 0.017804 -0.004180 -0.004701 -0.000001 0.004793 -0.000002
# 2 -0.004180 0.009797 0.000355 -0.000002 0.002636 0.000002
# 3 -0.004701 0.000355 0.032121 -0.000001 0.012575 0.000004
# 4 -0.000001 -0.000002 -0.000001 0.045404 0.000002 -0.010736
# 5 0.004793 0.002636 0.012575 0.000002 0.052827 -0.000003
# 6 -0.000002 0.000002 0.000004 -0.010736 -0.000003 0.040011
#
#
# Mechanical properties :
#
#
# Convention : Reuss Voigt Hill
#
# Bulk Modulus (GPa) = 23.43641 37.41298 30.42470
# Shear Modulus (GPa) = 21.81149 26.10028 23.95589
#
# Velocity S-wave (km/s) = 3.26444 3.57099 3.42115
# Velocity P-wave (km/s) = 5.06550 5.93985 5.52001
#
# Compressibility (1/GPa) = 0.04266865
#
# Stress axis : x y z
#
# Youngs Moduli (GPa) = 56.16831 102.07673 31.13261
#
# Poissons Ratio (x) = 0.42670 0.14635
# Poissons Ratio (y) = 0.23480 -0.01105
# Poissons Ratio (z) = 0.26404 -0.03623
#
# Static dielectric constant tensor:
#      x y z
#    x 1.739420 0.000000 -0.032100 
#    y 0.000000 1.732660 0.000040 
#    z -0.032100 0.000040 1.405310 
# 
# From -- ./inp_files/156782.got.cif
#   From: 2010.05.17/outbox.cif.g08.bks.cpg/sg15_79_cif.got.tgz:156782.got - 2010.06.03 18:47:42.
