data_PCOD9295407
_publ_section_title
;
Structure prediction by ZEFSAII (Michael W. Deem and Ramdas Pophale) SiO2 
 PCOD9295407
Probable space group: C 2/C
;
_chemical_formula_sum "Si O2"
_cell_formula_units_Z 40
_cell_length_a 19.002014
_cell_length_b 10.207267
_cell_length_c 11.890598
_cell_angle_alpha 90.000000
_cell_angle_beta 130.731876
_cell_angle_gamma 90.000000
_cell_volume 1747.636202
_symmetry_space_group_name_H-M "C 2/C"
_symmetry_group_IT_number 15
_symmetry_cell_setting 'monoclinic'
loop_
_space_group_symop_operation_xyz
x,y,z
-x,y,1/2-z
-x,-y,-z
x,-y,1/2+z
1/2+x,1/2+y,z
1/2-x,1/2+y,1/2-z
1/2-x,1/2-y,-z
1/2+x,1/2-y,1/2+z
loop_
_atom_site_type_symbol
_atom_site_label
_atom_site_fract_x
_atom_site_fract_y
_atom_site_fract_z
Si Si1 0.150572 0.975520 0.160961
Si Si2 0.724901 0.853917 0.376875
Si Si3 0.557734 0.128853 0.532649
Si Si4 0.014978 0.870955 0.395358
Si Si5 0.290825 0.890394 0.496679
O O1 0.186333 0.863281 0.113172
O O2 0.229745 0.964735 0.337103
O O3 0.060142 0.976839 0.145912
O O4 0.118502 0.087989 0.039896
O O5 0.750000 0.750000 0.500000
O O6 0.705547 0.000688 0.402929
O O7 0.632943 0.829567 0.205712
O O8 0.486389 0.246127 0.438436
O O9 0.612406 0.124469 0.469927
O O10 0.500000 0.000000 0.500000
O O11 0.000000 0.849692 0.250000
O O12 0.250000 0.750000 0.500000
#
# Coordination Sequence:
#
# PCOD9295407 Si02
#       5
#     8   8   8   8   8
#     4  10  23  42  70  99 131 178 243 281 341 441
#     4  11  25  44  68  99 141 185 230 292 362 422
#     4  11  27  41  66 104 142 177 237 299 354 428
#     4  11  23  43  69  98 138 180 232 292 359 421
#     4  11  24  45  73  96 137 192 235 284 360 438
#
# _framework density 22.888058999999998
#
# number of rings (size 3 to 8) (size 9 to 14) (size 15 to 20)
#    0.000    1.200    0.000    4.800    8.400    4.800 
#    0.000    0.000    0.000    0.000    0.000    0.000 
#    0.000    0.000    0.000    0.000    0.000    0.000 
#
# Total GULP energy -111355.600916 kJ/mol
# GULP energy per Si atom -5567.780046 kJ/mol
# Density = 2.283596 g / cm^3
# Si number density = 22.888059 Si / 1000 Ang^3
#
#
#
# Elastic Constant Matrix: (Units=GPa)
#
#
# Indices 1 2 3 4 5 6 
#
# 1 97.3613 20.6476 32.0763 0.0000 -7.8338 0.0000
# 2 20.6476 82.7213 51.3232 0.0000 -8.9885 0.0000
# 3 32.0763 51.3232 123.5719 0.0000 -23.8289 0.0000
# 4 0.0000 0.0000 0.0000 36.2676 0.0000 -11.7049
# 5 -7.8338 -8.9885 -23.8289 0.0000 23.5732 0.0000
# 6 0.0000 0.0000 0.0000 -11.7049 0.0000 39.3399
#
#
#
# Elastic Compliance Matrix: (Units=1/GPa)
#
#
# Indices 1 2 3 4 5 6 
#
# 1 0.011364 -0.001371 -0.002177 0.000000 0.001053 0.000000
# 2 -0.001371 0.016462 -0.006656 0.000000 -0.000907 0.000000
# 3 -0.002177 -0.006656 0.013406 0.000000 0.010290 0.000000
# 4 0.000000 0.000000 0.000000 0.030502 0.000000 0.009075
# 5 0.001053 -0.000907 0.010290 0.000000 0.052827 0.000000
# 6 0.000000 0.000000 0.000000 0.009075 0.000000 0.028120
#
#
# Mechanical properties :
#
#
# Convention : Reuss Voigt Hill
#
# Bulk Modulus (GPa) = 48.02363 56.86097 52.44230
# Shear Modulus (GPa) = 27.77291 33.14328 30.45810
#
# Velocity S-wave (km/s) = 3.48720 3.80947 3.65189
# Velocity P-wave (km/s) = 6.10259 6.65180 6.38310
#
# Compressibility (1/GPa) = 0.02082308
#
# Stress axis : x y z
#
# Youngs Moduli (GPa) = 87.99844 60.74499 74.59071
#
# Poissons Ratio (x) = 0.08329 0.16240
# Poissons Ratio (y) = 0.12067 0.49649
# Poissons Ratio (z) = 0.19160 0.40433
#
# Static dielectric constant tensor:
#      x y z
#    x 1.939800 0.000000 -0.038020 
#    y 0.000000 2.118510 0.000000 
#    z -0.038020 0.000000 1.953260 
# 
# From -- ./inp_files/111882.got.cif
#   From: 2010.05.17/outbox.cif.g08.bks.cpg/sg15_56_cif.got.tgz:111882.got - 2010.06.03 18:47:42.
