data_PCOD9295703
_publ_section_title
;
Structure prediction by ZEFSAII (Michael W. Deem and Ramdas Pophale) SiO2 
 PCOD9295703
Probable space group: C 2/C
;
_chemical_formula_sum "Si O2"
_cell_formula_units_Z 52
_cell_length_a 8.459760
_cell_length_b 21.879009
_cell_length_c 16.606765
_cell_angle_alpha 90.000000
_cell_angle_beta 50.908153
_cell_angle_gamma 90.000000
_cell_volume 2385.660485
_symmetry_space_group_name_H-M "C 2/C"
_symmetry_group_IT_number 15
_symmetry_cell_setting 'monoclinic'
loop_
_space_group_symop_operation_xyz
x,y,z
-x,y,1/2-z
-x,-y,-z
x,-y,1/2+z
1/2+x,1/2+y,z
1/2-x,1/2+y,1/2-z
1/2-x,1/2-y,-z
1/2+x,1/2-y,1/2+z
loop_
_atom_site_type_symbol
_atom_site_label
_atom_site_fract_x
_atom_site_fract_y
_atom_site_fract_z
Si Si1 0.720199 0.470554 0.422434
Si Si2 0.284993 0.933173 0.579576
Si Si3 0.000000 0.832640 0.750000
Si Si4 0.380570 0.239162 0.202029
Si Si5 0.000000 0.028507 0.750000
Si Si6 0.932929 0.874359 0.130935
Si Si7 0.000000 0.435124 0.750000
Si Si8 0.604495 0.861783 0.560858
O O1 0.500000 0.500000 0.500000
O O2 0.795349 0.463391 0.488882
O O3 0.716387 0.403134 0.386584
O O4 0.825026 0.517981 0.329191
O O5 0.503603 0.902876 0.524858
O O6 0.127178 0.876929 0.648220
O O7 0.193073 0.985062 0.668106
O O8 0.837606 0.793299 0.748600
O O9 0.500000 0.231942 0.250000
O O10 0.363659 0.311069 0.191386
O O11 0.528902 0.207527 0.088371
O O12 0.955991 0.072805 0.689813
O O13 0.154685 0.865999 0.019025
O O14 0.003785 0.391466 0.825755
#
# Coordination Sequence:
#
# PCOD9295703 Si02
#       8
#     8   8   4   8   4   8   4   8
#     4  12  25  43  65 104 138 182 223 287 346 420
#     4  10  23  43  68 100 136 174 233 280 346 413
#     4   9  24  45  76  99 134 187 236 286 344 421
#     4  11  24  46  72  98 134 186 232 290 346 413
#     4  11  20  39  66  97 136 177 220 286 342 413
#     4  12  25  42  66 101 141 172 232 285 349 407
#     4  12  24  42  74  98 138 182 232 278 348 418
#     4  11  24  43  70  99 129 186 232 281 342 419
#
# _framework density 21.796900000000001
#
# number of rings (size 3 to 8) (size 9 to 14) (size 15 to 20)
#    0.000    0.923    4.615    1.385    6.462    4.308 
#    2.769    1.538    0.000    0.000    0.000    0.000 
#    0.000    0.000    0.000    0.000    0.000    0.000 
#
# Total GULP energy -145134.659264 kJ/mol
# GULP energy per Si atom -5582.102279 kJ/mol
# Density = 2.174729 g / cm^3
# Si number density = 21.796900 Si / 1000 Ang^3
#
#
#
# Elastic Constant Matrix: (Units=GPa)
#
#
# Indices 1 2 3 4 5 6 
#
# 1 54.7422 29.3351 10.0336 0.0000 4.7379 0.0000
# 2 29.3351 141.5296 17.2196 0.0000 -5.7149 0.0000
# 3 10.0336 17.2196 60.6807 0.0000 -5.4808 0.0000
# 4 0.0000 0.0000 0.0000 29.4088 0.0000 4.5143
# 5 4.7379 -5.7149 -5.4808 0.0000 30.7846 0.0000
# 6 0.0000 0.0000 0.0000 4.5143 0.0000 36.9016
#
#
#
# Elastic Compliance Matrix: (Units=1/GPa)
#
#
# Indices 1 2 3 4 5 6 
#
# 1 0.021473 -0.004302 -0.002745 0.000000 -0.004592 0.000000
# 2 -0.004302 0.008211 -0.001444 0.000000 0.001929 0.000000
# 3 -0.002745 -0.001444 0.017641 0.000000 0.003295 0.000000
# 4 0.000000 0.000000 0.000000 0.034654 0.000000 -0.004239
# 5 -0.004592 0.001929 0.003295 0.000000 0.034135 0.000000
# 6 0.000000 0.000000 0.000000 -0.004239 0.000000 0.027618
#
#
# Mechanical properties :
#
#
# Convention : Reuss Voigt Hill
#
# Bulk Modulus (GPa) = 32.95665 41.12548 37.04107
# Shear Modulus (GPa) = 29.26890 32.77661 31.02275
#
# Velocity S-wave (km/s) = 3.66840 3.88200 3.77671
# Velocity P-wave (km/s) = 5.75288 6.24514 6.00406
#
# Compressibility (1/GPa) = 0.03034289
#
# Stress axis : x y z
#
# Youngs Moduli (GPa) = 46.56911 121.78691 56.68610
#
# Poissons Ratio (x) = 0.52397 0.15558
# Poissons Ratio (y) = 0.20036 0.08188
# Poissons Ratio (z) = 0.12781 0.17591
#
# Static dielectric constant tensor:
#      x y z
#    x 1.868600 0.000000 0.015260 
#    y 0.000000 1.832660 0.000000 
#    z 0.015260 0.000000 1.771270 
# 
# From -- ./inp_files/192491.got.cif
#   From: 2010.05.17/outbox.cif.g08.bks.cpg/sg15_97_cif.got.tgz:192491.got - 2010.06.03 18:47:42.
