data_PCOD9295609
_publ_section_title
;
Structure prediction by ZEFSAII (Michael W. Deem and Ramdas Pophale) SiO2 
 PCOD9295609
Probable space group: C 2/C
;
_chemical_formula_sum "Si O2"
_cell_formula_units_Z 52
_cell_length_a 17.881709
_cell_length_b 10.091431
_cell_length_c 12.936207
_cell_angle_alpha 90.000000
_cell_angle_beta 101.438049
_cell_angle_gamma 90.000000
_cell_volume 2288.003656
_symmetry_space_group_name_H-M "C 2/C"
_symmetry_group_IT_number 15
_symmetry_cell_setting 'monoclinic'
loop_
_space_group_symop_operation_xyz
x,y,z
-x,y,1/2-z
-x,-y,-z
x,-y,1/2+z
1/2+x,1/2+y,z
1/2-x,1/2+y,1/2-z
1/2-x,1/2-y,-z
1/2+x,1/2-y,1/2+z
loop_
_atom_site_type_symbol
_atom_site_label
_atom_site_fract_x
_atom_site_fract_y
_atom_site_fract_z
Si Si1 0.216099 0.423799 0.391700
Si Si2 0.363185 0.896588 0.935710
Si Si3 0.000000 0.040079 0.250000
Si Si4 0.632038 0.634142 0.695016
Si Si5 0.716736 0.219432 0.380351
Si Si6 0.975439 0.706133 0.635465
Si Si7 0.140899 0.678560 0.679788
O O1 0.211053 0.381912 0.510015
O O2 0.298358 0.420772 0.357654
O O3 0.184393 0.573180 0.376607
O O4 0.156733 0.341083 0.305953
O O5 0.378718 0.778268 0.860391
O O6 0.353251 0.034666 0.873407
O O7 0.430437 0.877770 0.038945
O O8 0.942878 0.953273 0.305103
O O9 0.048116 0.144995 0.334593
O O10 0.663150 0.668949 0.818016
O O11 0.750000 0.250000 0.500000
O O12 0.790944 0.224268 0.329222
O O13 0.061374 0.733446 0.617918
O O14 0.000000 0.632553 0.750000
#
# Coordination Sequence:
#
# PCOD9295609 Si02
#       7
#     8   8   4   8   8   8   8
#     4  11  22  43  66  98 139 170 224 274 330 398
#     4  12  23  42  69 104 134 173 222 277 335 398
#     4  10  24  50  64  92 138 174 230 270 332 408
#     4  11  26  42  69 100 130 179 224 279 327 399
#     4  11  23  40  66  96 132 176 215 275 331 391
#     4  10  23  43  66  91 128 180 213 272 336 387
#     4  11  22  42  65 100 134 171 227 266 335 397
#
# _framework density 22.727236000000001
#
# number of rings (size 3 to 8) (size 9 to 14) (size 15 to 20)
#    0.462    0.615    4.615    1.846    0.000    3.077 
#    4.154    0.000    0.000    0.000    0.000    0.000 
#    0.000    0.000    0.000    0.000    0.000    0.000 
#
# Total GULP energy -144820.844580 kJ/mol
# GULP energy per Si atom -5570.032484 kJ/mol
# Density = 2.267551 g / cm^3
# Si number density = 22.727236 Si / 1000 Ang^3
#
#
#
# Elastic Constant Matrix: (Units=GPa)
#
#
# Indices 1 2 3 4 5 6 
#
# 1 61.2199 33.3249 2.9646 0.0000 -1.9329 0.0000
# 2 33.3249 104.4694 13.8571 0.0000 -11.8369 0.0000
# 3 2.9646 13.8571 93.7101 0.0000 -13.2598 0.0000
# 4 0.0000 0.0000 0.0000 11.6024 0.0000 0.5901
# 5 -1.9329 -11.8369 -13.2598 0.0000 28.1480 0.0000
# 6 0.0000 0.0000 0.0000 0.5901 0.0000 40.0105
#
#
#
# Elastic Compliance Matrix: (Units=1/GPa)
#
#
# Indices 1 2 3 4 5 6 
#
# 1 0.019819 -0.006489 0.000149 0.000000 -0.001298 0.000000
# 2 -0.006489 0.012255 -0.001008 0.000000 0.004233 0.000000
# 3 0.000149 -0.001008 0.011525 0.000000 0.005016 0.000000
# 4 0.000000 0.000000 0.000000 0.086254 0.000000 -0.001272
# 5 -0.001298 0.004233 0.005016 0.000000 0.039580 0.000000
# 6 0.000000 0.000000 0.000000 -0.001272 0.000000 0.025012
#
#
# Mechanical properties :
#
#
# Convention : Reuss Voigt Hill
#
# Bulk Modulus (GPa) = 34.59777 39.96585 37.28181
# Shear Modulus (GPa) = 22.85447 29.90237 26.37842
#
# Velocity S-wave (km/s) = 3.17456 3.63120 3.41053
# Velocity P-wave (km/s) = 5.35660 5.93330 5.65231
#
# Compressibility (1/GPa) = 0.02890360
#
# Stress axis : x y z
#
# Youngs Moduli (GPa) = 50.45790 81.59682 86.76613
#
# Poissons Ratio (x) = 0.52946 -0.01292
# Poissons Ratio (y) = 0.32741 0.08746
# Poissons Ratio (z) = -0.00751 0.08225
#
# Static dielectric constant tensor:
#      x y z
#    x 1.474930 0.000000 0.162180 
#    y 0.000000 1.807240 0.000000 
#    z 0.162180 0.000000 1.787080 
# 
# From -- ./inp_files/172040.got.cif
#   From: 2010.05.17/outbox.cif.g08.bks.cpg/sg15_87_cif.got.tgz:172040.got - 2010.06.03 18:47:42.
