data_PCOD9295778
_publ_section_title
;
Structure prediction by ZEFSAII (Michael W. Deem and Ramdas Pophale) SiO2 
 PCOD9295778
Probable space group: C 2/C
;
_chemical_formula_sum "Si O2"
_cell_formula_units_Z 28
_cell_length_a 11.622350
_cell_length_b 21.392103
_cell_length_c 5.773971
_cell_angle_alpha 90.000000
_cell_angle_beta 61.787260
_cell_angle_gamma 90.000000
_cell_volume 1265.015094
_symmetry_space_group_name_H-M "C 2/C"
_symmetry_group_IT_number 15
_symmetry_cell_setting 'monoclinic'
loop_
_space_group_symop_operation_xyz
x,y,z
-x,y,1/2-z
-x,-y,-z
x,-y,1/2+z
1/2+x,1/2+y,z
1/2-x,1/2+y,1/2-z
1/2-x,1/2-y,-z
1/2+x,1/2-y,1/2+z
loop_
_atom_site_type_symbol
_atom_site_label
_atom_site_fract_x
_atom_site_fract_y
_atom_site_fract_z
Si Si1 0.687511 0.509322 0.948761
Si Si2 0.630936 0.719694 0.473246
Si Si3 0.000000 0.309663 0.250000
Si Si4 0.707988 0.106493 0.349450
O O1 0.621708 0.506669 0.759093
O O2 0.795003 0.454257 0.811477
O O3 0.751379 0.576329 0.941723
O O4 0.500000 0.715662 0.750000
O O5 0.750000 0.750000 0.500000
O O6 0.599580 0.764981 0.288771
O O7 0.677585 0.652033 0.343901
O O8 0.921427 0.353460 0.501232
#
# Coordination Sequence:
#
# PCOD9295778 Si02
#       4
#     8   8   4   8
#     4   8  20  40  69 101 146 190 240 308 364 437
#     4  12  27  46  73 108 150 199 244 308 374 448
#     4  12  26  42  74 108 150 194 248 312 370 448
#     4  10  23  43  69 108 145 191 250 303 376 443
#
# _framework density 22.134122999999999
#
# number of rings (size 3 to 8) (size 9 to 14) (size 15 to 20)
#    1.714    0.000    2.857    0.857    4.000    1.143 
#    0.000    1.429    0.000    0.000    0.000    0.000 
#    0.000    0.000    0.000    0.000    0.000    0.000 
#
# Total GULP energy -78025.611233 kJ/mol
# GULP energy per Si atom -5573.257945 kJ/mol
# Density = 2.208374 g / cm^3
# Si number density = 22.134123 Si / 1000 Ang^3
#
#
#
# Elastic Constant Matrix: (Units=GPa)
#
#
# Indices 1 2 3 4 5 6 
#
# 1 86.4192 29.4350 14.4844 0.0000 11.2665 0.0000
# 2 29.4350 125.2654 13.2761 0.0000 -7.5818 0.0000
# 3 14.4844 13.2761 83.4940 0.0000 -3.5063 0.0000
# 4 0.0000 0.0000 0.0000 65.9831 0.0000 -13.6198
# 5 11.2665 -7.5818 -3.5063 0.0000 54.3107 0.0000
# 6 0.0000 0.0000 0.0000 -13.6198 0.0000 63.4214
#
#
#
# Elastic Compliance Matrix: (Units=1/GPa)
#
#
# Indices 1 2 3 4 5 6 
#
# 1 0.013409 -0.003145 -0.001967 0.000000 -0.003348 0.000000
# 2 -0.003145 0.008918 -0.000795 0.000000 0.001846 0.000000
# 3 -0.001967 -0.000795 0.012491 0.000000 0.001103 0.000000
# 4 0.000000 0.000000 0.000000 0.015858 0.000000 0.003406
# 5 -0.003348 0.001846 0.001103 0.000000 0.019436 0.000000
# 6 0.000000 0.000000 0.000000 0.003406 0.000000 0.016499
#
#
# Mechanical properties :
#
#
# Convention : Reuss Voigt Hill
#
# Bulk Modulus (GPa) = 43.46971 45.50774 44.48873
# Shear Modulus (GPa) = 47.12886 52.60858 49.86872
#
# Velocity S-wave (km/s) = 4.61937 4.88054 4.75175
# Velocity P-wave (km/s) = 6.93782 7.23631 7.08864
#
# Compressibility (1/GPa) = 0.02300452
#
# Stress axis : x y z
#
# Youngs Moduli (GPa) = 74.57809 112.13214 80.05889
#
# Poissons Ratio (x) = 0.35265 0.15745
# Poissons Ratio (y) = 0.23455 0.06364
# Poissons Ratio (z) = 0.14667 0.08914
#
# Static dielectric constant tensor:
#      x y z
#    x 1.769160 0.000000 0.017330 
#    y 0.000000 1.774040 0.000000 
#    z 0.017330 0.000000 1.844850 
# 
# From -- ./inp_files/3632.got.cif
#   From: 2010.05.17/outbox.cif.g08.bks.cpg/sg15_2_cif.got.tgz:3632.got - 2010.06.03 18:47:42.
