data_PCOD9295754
_publ_section_title
;
Structure prediction by ZEFSAII (Michael W. Deem and Ramdas Pophale) SiO2 
 PCOD9295754
Probable space group: C 2/C
;
_chemical_formula_sum "Si O2"
_cell_formula_units_Z 44
_cell_length_a 13.702771
_cell_length_b 5.145127
_cell_length_c 28.657053
_cell_angle_alpha 90.000000
_cell_angle_beta 108.241585
_cell_angle_gamma 90.000000
_cell_volume 1918.859127
_symmetry_space_group_name_H-M "C 2/C"
_symmetry_group_IT_number 15
_symmetry_cell_setting 'monoclinic'
loop_
_space_group_symop_operation_xyz
x,y,z
-x,y,1/2-z
-x,-y,-z
x,-y,1/2+z
1/2+x,1/2+y,z
1/2-x,1/2+y,1/2-z
1/2-x,1/2-y,-z
1/2+x,1/2-y,1/2+z
loop_
_atom_site_type_symbol
_atom_site_label
_atom_site_fract_x
_atom_site_fract_y
_atom_site_fract_z
Si Si1 0.808946 0.019241 0.773386
Si Si2 0.678324 0.611160 0.618457
Si Si3 0.647350 0.128584 0.410486
Si Si4 0.500000 0.550904 0.250000
Si Si5 0.485438 0.750180 0.529717
Si Si6 0.888307 0.861845 0.644702
O O1 0.724606 0.239145 0.750991
O O2 0.906789 0.108832 0.757872
O O3 0.834939 0.995281 0.832023
O O4 0.735847 0.419635 0.589776
O O5 0.767698 0.826362 0.637977
O O6 0.405416 0.151736 0.606407
O O7 0.621708 0.224791 0.458232
O O8 0.598716 0.344459 0.369320
O O9 0.575526 0.726097 0.581735
O O10 0.544956 0.706396 0.300547
O O11 0.500000 0.500000 0.500000
O O12 0.500000 0.000000 0.500000
#
# Coordination Sequence:
#
# PCOD9295754 Si02
#       6
#     8   8   8   4   8   8
#     4  12  26  44  71 108 141 192 237 280 353 423
#     4  10  26  46  70  97 147 179 233 290 352 414
#     4  10  23  47  67  97 137 180 226 288 360 405
#     4  12  24  44  70 106 150 182 246 280 340 426
#     4  12  28  45  72 104 129 181 239 294 359 422
#     4  10  23  43  68  99 138 191 218 291 340 412
#
# _framework density 22.930289999999999
#
# number of rings (size 3 to 8) (size 9 to 14) (size 15 to 20)
#    1.091    0.000    1.818    3.273    2.545    5.818 
#    0.000    0.000    0.000    0.000    0.000    0.000 
#    0.000    0.000    0.000    0.000    0.000    0.000 
#
# Total GULP energy -122818.893711 kJ/mol
# GULP energy per Si atom -5582.676987 kJ/mol
# Density = 2.287810 g / cm^3
# Si number density = 22.930290 Si / 1000 Ang^3
#
#
#
# Elastic Constant Matrix: (Units=GPa)
#
#
# Indices 1 2 3 4 5 6 
#
# 1 83.3302 5.1209 35.0118 0.0000 -18.3503 0.0000
# 2 5.1209 81.9195 8.2076 0.0000 -5.3717 0.0000
# 3 35.0118 8.2076 106.9840 0.0000 -27.2060 0.0000
# 4 0.0000 0.0000 0.0000 24.0207 0.0000 -5.7552
# 5 -18.3503 -5.3717 -27.2060 0.0000 51.4319 0.0000
# 6 0.0000 0.0000 0.0000 -5.7552 0.0000 15.8317
#
#
#
# Elastic Compliance Matrix: (Units=1/GPa)
#
#
# Indices 1 2 3 4 5 6 
#
# 1 0.014320 -0.000307 -0.003896 0.000000 0.003016 0.000000
# 2 -0.000307 0.012345 -0.000632 0.000000 0.000846 0.000000
# 3 -0.003896 -0.000632 0.011901 0.000000 0.004839 0.000000
# 4 0.000000 0.000000 0.000000 0.045603 0.000000 0.016578
# 5 0.003016 0.000846 0.004839 0.000000 0.023168 0.000000
# 6 0.000000 0.000000 0.000000 0.016578 0.000000 0.069191
#
#
# Mechanical properties :
#
#
# Convention : Reuss Voigt Hill
#
# Bulk Modulus (GPa) = 34.60470 40.99049 37.79759
# Shear Modulus (GPa) = 25.53239 33.18308 29.35774
#
# Velocity S-wave (km/s) = 3.34050 3.80824 3.58202
# Velocity P-wave (km/s) = 5.47747 6.10343 5.79890
#
# Compressibility (1/GPa) = 0.02889781
#
# Stress axis : x y z
#
# Youngs Moduli (GPa) = 69.83006 81.00428 84.02444
#
# Poissons Ratio (x) = 0.02487 0.32735
# Poissons Ratio (y) = 0.02144 0.05306
# Poissons Ratio (z) = 0.27205 0.05116
#
# Static dielectric constant tensor:
#      x y z
#    x 1.895550 0.000000 -0.026190 
#    y 0.000000 1.796970 0.000000 
#    z -0.026190 0.000000 1.861170 
# 
# From -- ./inp_files/294232.got.cif
#   From: 2010.05.17/outbox.cif.g08.bks.cpg/sg15_148_cif.got.tgz:294232.got - 2010.06.03 18:47:42.
