data_PCOD9295009
_publ_section_title
;
Structure prediction by ZEFSAII (Michael W. Deem and Ramdas Pophale) SiO2 
 PCOD9295009
Probable space group: C 2/C
;
_chemical_formula_sum "Si O2"
_cell_formula_units_Z 44
_cell_length_a 20.699330
_cell_length_b 19.121375
_cell_length_c 5.298577
_cell_angle_alpha 90.000000
_cell_angle_beta 81.893809
_cell_angle_gamma 90.000000
_cell_volume 2076.220852
_symmetry_space_group_name_H-M "C 2/C"
_symmetry_group_IT_number 15
_symmetry_cell_setting 'monoclinic'
loop_
_space_group_symop_operation_xyz
x,y,z
-x,y,1/2-z
-x,-y,-z
x,-y,1/2+z
1/2+x,1/2+y,z
1/2-x,1/2+y,1/2-z
1/2-x,1/2-y,-z
1/2+x,1/2-y,1/2+z
loop_
_atom_site_type_symbol
_atom_site_label
_atom_site_fract_x
_atom_site_fract_y
_atom_site_fract_z
Si Si1 0.718992 0.710596 0.288704
Si Si2 0.323727 0.853852 0.470741
Si Si3 0.455451 0.786205 0.526012
Si Si4 0.383864 0.353954 0.933082
Si Si5 0.272017 0.546807 0.692654
Si Si6 0.500000 0.454946 0.750000
O O1 0.750000 0.750000 0.500000
O O2 0.699454 0.778176 0.124046
O O3 0.650044 0.673166 0.305185
O O4 0.770930 0.647094 0.223668
O O5 0.397787 0.843824 0.517027
O O6 0.299021 0.915505 0.303776
O O7 0.500000 0.785876 0.250000
O O8 0.418057 0.711265 0.555018
O O9 0.500000 0.796252 0.750000
O O10 0.326625 0.391944 0.124325
O O11 0.437285 0.407474 0.815838
O O12 0.279912 0.505829 0.950028
O O13 0.500000 0.500000 0.500000
#
# Coordination Sequence:
#
# PCOD9295009 Si02
#       6
#     8   8   8   8   8   4
#     4   9  19  37  64  90 119 159 206 275 323 362
#     4   9  22  39  59  94 120 161 210 268 322 367
#     4  11  25  41  67  96 126 164 208 267 317 377
#     4  10  23  42  60  94 126 169 213 254 304 376
#     4  11  25  42  65  92 126 170 213 259 309 377
#     4  12  26  42  58  84 130 182 210 242 286 362
#
# _framework density 21.192350000000001
#
# number of rings (size 3 to 8) (size 9 to 14) (size 15 to 20)
#    0.000    1.818    0.909    2.182   11.455    1.455 
#    6.545    0.000    0.000    3.273    0.000    0.000 
#    0.000    0.000    0.000    0.000    0.000    0.000 
#
# Total GULP energy -122554.624670 kJ/mol
# GULP energy per Si atom -5570.664758 kJ/mol
# Density = 2.114411 g / cm^3
# Si number density = 21.192350 Si / 1000 Ang^3
#
#
#
# Elastic Constant Matrix: (Units=GPa)
#
#
# Indices 1 2 3 4 5 6 
#
# 1 123.4965 36.4072 20.2685 0.0000 19.1617 0.0000
# 2 36.4072 39.6977 8.0914 0.0000 -1.4249 0.0000
# 3 20.2685 8.0914 75.2970 0.0000 12.9376 0.0000
# 4 0.0000 0.0000 0.0000 14.3997 0.0000 -16.8533
# 5 19.1617 -1.4249 12.9376 0.0000 19.3349 0.0000
# 6 0.0000 0.0000 0.0000 -16.8533 0.0000 3.2166
#
#
#
# Elastic Compliance Matrix: (Units=1/GPa)
#
#
# Indices 1 2 3 4 5 6 
#
# 1 0.014629 -0.014035 0.000270 0.000000 -0.015713 0.000000
# 2 -0.014035 0.039531 -0.003797 0.000000 0.019364 0.000000
# 3 0.000270 -0.003797 0.015491 0.000000 -0.010913 0.000000
# 4 0.000000 0.000000 0.000000 -0.013531 0.000000 -0.070897
# 5 -0.015713 0.019364 -0.010913 0.000000 0.076022 0.000000
# 6 0.000000 0.000000 0.000000 -0.070897 0.000000 -0.060575
#
#
# Mechanical properties :
#
#
# Convention : Reuss Voigt Hill
#
# Bulk Modulus (GPa) = 28.96283 40.89171 34.92727
# Shear Modulus (GPa) = 42.30139 18.97183 30.63661
#
# Velocity S-wave (km/s) = 4.47259 2.99527 3.80629
# Velocity P-wave (km/s) = 6.35361 5.59460 5.98615
#
# Compressibility (1/GPa) = 0.03452701
#
# Stress axis : x y z
#
# Youngs Moduli (GPa) = 68.35885 25.29644 64.55294
#
# Poissons Ratio (x) = 0.35504 -0.01745
# Poissons Ratio (y) = 0.95943 0.24511
# Poissons Ratio (z) = -0.01847 0.09605
#
# Static dielectric constant tensor:
#      x y z
#    x 1.498080 0.000000 0.186860 
#    y 0.000000 1.619400 0.000000 
#    z 0.186860 0.000000 1.622440 
# 
# From -- ./inp_files/10391.got.cif
#   From: 2010.05.17/outbox.cif.g08.bks.cpg/sg15_6_cif.got.tgz:10391.got - 2010.06.03 18:47:42.
