data_PCOD9295408
_publ_section_title
;
Structure prediction by ZEFSAII (Michael W. Deem and Ramdas Pophale) SiO2 
 PCOD9295408
Probable space group: C 2/C
;
_chemical_formula_sum "Si O2"
_cell_formula_units_Z 44
_cell_length_a 18.256699
_cell_length_b 13.812371
_cell_length_c 9.088087
_cell_angle_alpha 90.000000
_cell_angle_beta 63.176112
_cell_angle_gamma 90.000000
_cell_volume 2045.132439
_symmetry_space_group_name_H-M "C 2/C"
_symmetry_group_IT_number 15
_symmetry_cell_setting 'monoclinic'
loop_
_space_group_symop_operation_xyz
x,y,z
-x,y,1/2-z
-x,-y,-z
x,-y,1/2+z
1/2+x,1/2+y,z
1/2-x,1/2+y,1/2-z
1/2-x,1/2-y,-z
1/2+x,1/2-y,1/2+z
loop_
_atom_site_type_symbol
_atom_site_label
_atom_site_fract_x
_atom_site_fract_y
_atom_site_fract_z
Si Si1 0.581055 0.937335 0.942694
Si Si2 0.569453 0.423284 0.388779
Si Si3 0.500000 0.798362 0.250000
Si Si4 0.345355 0.102832 0.440997
Si Si5 0.164104 0.954922 0.003403
Si Si6 0.925347 0.783884 0.547014
O O1 0.606950 0.903915 0.757760
O O2 0.554797 0.858387 0.085482
O O3 0.500000 0.000000 0.000000
O O4 0.643195 0.011564 0.961062
O O5 0.500000 0.500000 0.500000
O O6 0.605221 0.447647 0.197752
O O7 0.643549 0.443079 0.439399
O O8 0.517953 0.322755 0.422847
O O9 0.563228 0.741606 0.293721
O O10 0.251247 0.086521 0.478163
O O11 0.384534 0.195751 0.490956
O O12 0.134521 0.873828 0.916040
#
# Coordination Sequence:
#
# PCOD9295408 Si02
#       6
#     8   8   4   8   8   8
#     4  12  23  42  68  95 129 179 224 271 332 420
#     4  10  23  42  70  99 133 183 230 271 330 416
#     4  12  26  40  68  96 126 172 232 272 320 402
#     4  12  24  44  69 100 138 173 222 284 350 393
#     4  11  25  44  68 101 139 175 219 288 346 396
#     4  11  25  42  67 101 130 178 232 274 326 412
#
# _framework density 21.514499000000001
#
# number of rings (size 3 to 8) (size 9 to 14) (size 15 to 20)
#    0.000    0.727    3.636    3.818   10.182    0.000 
#    0.000    0.909    0.000    0.000    0.000    0.000 
#    0.000    0.000    0.000    0.000    0.000    0.000 
#
# Total GULP energy -122627.686638 kJ/mol
# GULP energy per Si atom -5573.985756 kJ/mol
# Density = 2.146553 g / cm^3
# Si number density = 21.514499 Si / 1000 Ang^3
#
#
#
# Elastic Constant Matrix: (Units=GPa)
#
#
# Indices 1 2 3 4 5 6 
#
# 1 176.9344 62.2259 33.9109 0.0000 28.7746 0.0000
# 2 62.2259 69.3145 9.2891 0.0000 18.3484 0.0000
# 3 33.9109 9.2891 66.7714 0.0000 18.2657 0.0000
# 4 0.0000 0.0000 0.0000 29.1710 0.0000 12.0267
# 5 28.7746 18.3484 18.2657 0.0000 37.3931 0.0000
# 6 0.0000 0.0000 0.0000 12.0267 0.0000 33.6072
#
#
#
# Elastic Compliance Matrix: (Units=1/GPa)
#
#
# Indices 1 2 3 4 5 6 
#
# 1 0.009109 -0.007249 -0.003085 0.000000 -0.001945 0.000000
# 2 -0.007249 0.022350 0.002362 0.000000 -0.006542 0.000000
# 3 -0.003085 0.002362 0.018332 0.000000 -0.007739 0.000000
# 4 0.000000 0.000000 0.000000 0.040214 0.000000 -0.014391
# 5 -0.001945 -0.006542 -0.007739 0.000000 0.035231 0.000000
# 6 0.000000 0.000000 0.000000 -0.014391 0.000000 0.034905
#
#
# Mechanical properties :
#
#
# Convention : Reuss Voigt Hill
#
# Bulk Modulus (GPa) = 29.54568 58.20801 43.87685
# Shear Modulus (GPa) = 26.68548 33.87387 30.27968
#
# Velocity S-wave (km/s) = 3.52568 3.97226 3.75561
# Velocity P-wave (km/s) = 5.50787 6.93920 6.26455
#
# Compressibility (1/GPa) = 0.03384589
#
# Stress axis : x y z
#
# Youngs Moduli (GPa) = 109.78273 44.74287 54.54925
#
# Poissons Ratio (x) = 0.32434 0.16831
# Poissons Ratio (y) = 0.79581 -0.12884
# Poissons Ratio (z) = 0.33873 -0.10568
#
# Static dielectric constant tensor:
#      x y z
#    x 1.842290 0.000000 0.000150 
#    y 0.000000 1.819970 0.000000 
#    z 0.000150 0.000000 1.743760 
# 
# From -- ./inp_files/46991.got.cif
#   From: 2010.05.17/outbox.cif.g08.bks.cpg/sg15_24_cif.got.tgz:46991.got - 2010.06.03 18:47:42.
