data_PCOD9295694
_publ_section_title
;
Structure prediction by ZEFSAII (Michael W. Deem and Ramdas Pophale) SiO2 
 PCOD9295694
Probable space group: C 2/C
;
_chemical_formula_sum "Si O2"
_cell_formula_units_Z 40
_cell_length_a 9.514858
_cell_length_b 23.940359
_cell_length_c 15.390326
_cell_angle_alpha 90.000000
_cell_angle_beta 147.254518
_cell_angle_gamma 90.000000
_cell_volume 1896.288078
_symmetry_space_group_name_H-M "C 2/C"
_symmetry_group_IT_number 15
_symmetry_cell_setting 'monoclinic'
loop_
_space_group_symop_operation_xyz
x,y,z
-x,y,1/2-z
-x,-y,-z
x,-y,1/2+z
1/2+x,1/2+y,z
1/2-x,1/2+y,1/2-z
1/2-x,1/2-y,-z
1/2+x,1/2-y,1/2+z
loop_
_atom_site_type_symbol
_atom_site_label
_atom_site_fract_x
_atom_site_fract_y
_atom_site_fract_z
Si Si1 0.515086 0.542416 0.653192
Si Si2 0.261530 0.634348 0.842759
Si Si3 0.291591 0.144270 0.220200
Si Si4 0.950871 0.757040 0.814620
Si Si5 0.953899 0.535463 0.385783
O O1 0.500000 0.542052 0.750000
O O2 0.640450 0.599986 0.688482
O O3 0.704961 0.494944 0.717528
O O4 0.220868 0.531951 0.471934
O O5 0.182343 0.697374 0.774624
O O6 0.000000 0.610422 0.750000
O O7 0.503231 0.630610 0.034228
O O8 0.500000 0.141864 0.250000
O O9 0.243819 0.206821 0.229335
O O10 0.381685 0.101218 0.342777
O O11 0.000000 0.789035 0.750000
O O12 0.250000 0.750000 0.000000
O O13 0.000000 0.500000 0.500000
#
# Coordination Sequence:
#
# PCOD9295694 Si02
#       5
#     8   8   8   8   8
#     4  10  23  43  67  98 139 182 239 289 356 430
#     4  11  24  45  68 104 141 188 236 294 360 420
#     4  12  25  46  73 106 143 185 243 301 356 420
#     4  11  24  46  72 105 146 191 243 289 362 433
#     4  10  24  44  67 101 138 183 235 292 360 424
#
# _framework density 21.093841999999999
#
# number of rings (size 3 to 8) (size 9 to 14) (size 15 to 20)
#    0.000    1.200    6.000    0.000    2.800    8.800 
#    0.000    0.000    0.000    0.000    0.000    0.000 
#    0.000    0.000    0.000    0.000    0.000    0.000 
#
# Total GULP energy -111398.251976 kJ/mol
# GULP energy per Si atom -5569.912599 kJ/mol
# Density = 2.104583 g / cm^3
# Si number density = 21.093842 Si / 1000 Ang^3
#
#
#
# Elastic Constant Matrix: (Units=GPa)
#
#
# Indices 1 2 3 4 5 6 
#
# 1 109.3019 49.9363 49.2110 0.0001 33.2191 0.0001
# 2 49.9363 108.3601 30.9178 -0.0001 19.3401 0.0000
# 3 49.2110 30.9178 105.9032 0.0001 38.9400 0.0000
# 4 0.0001 -0.0001 0.0001 28.6094 0.0002 -3.0408
# 5 33.2191 19.3401 38.9400 0.0002 45.6121 0.0001
# 6 0.0001 0.0000 0.0000 -3.0408 0.0001 25.6336
#
#
#
# Elastic Compliance Matrix: (Units=1/GPa)
#
#
# Indices 1 2 3 4 5 6 
#
# 1 0.014538 -0.004739 -0.003232 0.000000 -0.005819 0.000000
# 2 -0.004739 0.011822 -0.000984 0.000000 -0.000721 0.000000
# 3 -0.003232 -0.000984 0.014886 0.000000 -0.009937 0.000000
# 4 0.000000 0.000000 0.000000 0.035400 0.000000 0.004199
# 5 -0.005819 -0.000721 -0.009937 0.000000 0.034951 0.000000
# 6 0.000000 0.000000 0.000000 0.004199 0.000000 0.039509
#
#
# Mechanical properties :
#
#
# Convention : Reuss Voigt Hill
#
# Bulk Modulus (GPa) = 42.85450 64.85506 53.85478
# Shear Modulus (GPa) = 28.28154 32.87105 30.57629
#
# Velocity S-wave (km/s) = 3.66560 3.95184 3.81141
# Velocity P-wave (km/s) = 6.18673 7.18578 6.70489
#
# Compressibility (1/GPa) = 0.02333477
#
# Stress axis : x y z
#
# Youngs Moduli (GPa) = 68.78666 84.58974 67.17909
#
# Poissons Ratio (x) = 0.40084 0.21714
# Poissons Ratio (y) = 0.32596 0.06611
# Poissons Ratio (z) = 0.22234 0.08325
#
# Static dielectric constant tensor:
#      x y z
#    x 1.768190 0.000000 -0.025910 
#    y 0.000000 1.810980 0.000000 
#    z -0.025910 0.000000 1.925880 
# 
# From -- ./inp_files/137608.got.cif
#   From: 2010.05.17/outbox.cif.g08.bks.cpg/sg15_69_cif.got.tgz:137608.got - 2010.06.03 18:47:42.
