data_PCOD9295527
_publ_section_title
;
Structure prediction by ZEFSAII (Michael W. Deem and Ramdas Pophale) SiO2 
 PCOD9295527
Probable space group: C 2/C
;
_chemical_formula_sum "Si O2"
_cell_formula_units_Z 56
_cell_length_a 18.716401
_cell_length_b 16.615898
_cell_length_c 13.350728
_cell_angle_alpha 90.000000
_cell_angle_beta 137.187960
_cell_angle_gamma 90.000000
_cell_volume 2821.639877
_symmetry_space_group_name_H-M "C 2/C"
_symmetry_group_IT_number 15
_symmetry_cell_setting 'monoclinic'
loop_
_space_group_symop_operation_xyz
x,y,z
-x,y,1/2-z
-x,-y,-z
x,-y,1/2+z
1/2+x,1/2+y,z
1/2-x,1/2+y,1/2-z
1/2-x,1/2-y,-z
1/2+x,1/2-y,1/2+z
loop_
_atom_site_type_symbol
_atom_site_label
_atom_site_fract_x
_atom_site_fract_y
_atom_site_fract_z
Si Si1 0.622213 0.964577 0.392903
Si Si2 0.552800 0.438579 0.711457
Si Si3 0.292980 0.332269 0.505717
Si Si4 0.136022 0.879751 0.117288
Si Si5 0.755383 0.527437 0.285965
Si Si6 0.606525 0.701080 0.797728
Si Si7 0.290533 0.874634 0.620659
O O1 0.500000 0.946559 0.250000
O O2 0.702689 0.900002 0.427123
O O3 0.648864 0.964738 0.538807
O O4 0.651694 0.051748 0.376700
O O5 0.500000 0.487795 0.750000
O O6 0.607509 0.364648 0.827930
O O7 0.460739 0.423156 0.537890
O O8 0.650940 0.468103 0.748049
O O9 0.250000 0.250000 0.500000
O O10 0.328935 0.315928 0.429402
O O11 0.101714 0.845224 0.187494
O O12 0.237017 0.938081 0.226428
O O13 0.760807 0.590521 0.200203
O O14 0.500000 0.703910 0.750000
O O15 0.642099 0.792526 0.809061
O O16 0.690097 0.653190 0.952500
#
# Coordination Sequence:
#
# PCOD9295527 Si02
#       7
#     8   8   8   8   8   8   8
#     4  11  24  44  66  93 131 177 224 278 340 405
#     4   9  21  37  63  96 128 162 209 271 337 397
#     4  10  23  43  63  94 136 169 215 284 332 401
#     4  11  21  40  66  99 126 169 218 270 346 393
#     4  11  22  41  66  96 126 172 218 275 333 402
#     4  11  25  43  68  98 137 181 224 280 338 405
#     4  11  24  46  65  96 138 175 227 281 331 405
#
# _framework density 19.846615
#
# number of rings (size 3 to 8) (size 9 to 14) (size 15 to 20)
#    0.000    1.429    2.857    1.714    4.000    2.857 
#    0.000    0.000    0.000    0.000    0.000    0.000 
#    0.000    0.000    0.000    0.000    0.000    0.000 
#
# Total GULP energy -156144.553508 kJ/mol
# GULP energy per Si atom -5576.591197 kJ/mol
# Density = 1.980144 g / cm^3
# Si number density = 19.846615 Si / 1000 Ang^3
#
#
#
# Elastic Constant Matrix: (Units=GPa)
#
#
# Indices 1 2 3 4 5 6 
#
# 1 96.6934 31.0673 52.8406 0.0000 -21.0646 0.0000
# 2 31.0673 67.8054 25.6664 0.0000 -16.3638 0.0000
# 3 52.8406 25.6664 126.4277 0.0000 -15.7544 0.0000
# 4 0.0000 0.0000 0.0000 14.2905 0.0000 -10.1692
# 5 -21.0646 -16.3638 -15.7544 0.0000 44.9925 0.0000
# 6 0.0000 0.0000 0.0000 -10.1692 0.0000 18.2609
#
#
#
# Elastic Compliance Matrix: (Units=1/GPa)
#
#
# Indices 1 2 3 4 5 6 
#
# 1 0.015287 -0.004153 -0.005064 0.000000 0.003874 0.000000
# 2 -0.004153 0.018203 -0.001440 0.000000 0.004172 0.000000
# 3 -0.005064 -0.001440 0.010412 0.000000 0.000751 0.000000
# 4 0.000000 0.000000 0.000000 0.115909 0.000000 0.064548
# 5 0.003874 0.004172 0.000751 0.000000 0.025820 0.000000
# 6 0.000000 0.000000 0.000000 0.064548 0.000000 0.090707
#
#
# Mechanical properties :
#
#
# Convention : Reuss Voigt Hill
#
# Bulk Modulus (GPa) = 44.26834 56.67504 50.47169
# Shear Modulus (GPa) = 16.38377 27.59893 21.99135
#
# Velocity S-wave (km/s) = 2.87630 3.73314 3.33237
# Velocity P-wave (km/s) = 5.77793 6.87024 6.34763
#
# Compressibility (1/GPa) = 0.02258951
#
# Stress axis : x y z
#
# Youngs Moduli (GPa) = 65.41399 54.93700 96.04376
#
# Poissons Ratio (x) = 0.22814 0.48632
# Poissons Ratio (y) = 0.27165 0.13829
# Poissons Ratio (z) = 0.33123 0.07910
#
# Static dielectric constant tensor:
#      x y z
#    x 1.732580 0.000000 -0.010300 
#    y 0.000000 1.716510 0.000000 
#    z -0.010300 0.000000 1.719880 
# 
# From -- ./inp_files/106742.got.cif
#   From: 2010.05.17/outbox.cif.g08.bks.cpg/sg15_54_cif.got.tgz:106742.got - 2010.06.03 18:47:42.
