data_PCOD9295650
_publ_section_title
;
Structure prediction by ZEFSAII (Michael W. Deem and Ramdas Pophale) SiO2 
 PCOD9295650
Probable space group: C 2/C
;
_chemical_formula_sum "Si O2"
_cell_formula_units_Z 32
_cell_length_a 24.559339
_cell_length_b 7.009235
_cell_length_c 13.395172
_cell_angle_alpha 90.000000
_cell_angle_beta 27.676174
_cell_angle_gamma 90.000000
_cell_volume 1071.018150
_symmetry_space_group_name_H-M "C 2/C"
_symmetry_group_IT_number 15
_symmetry_cell_setting 'monoclinic'
loop_
_space_group_symop_operation_xyz
x,y,z
-x,y,1/2-z
-x,-y,-z
x,-y,1/2+z
1/2+x,1/2+y,z
1/2-x,1/2+y,1/2-z
1/2-x,1/2-y,-z
1/2+x,1/2-y,1/2+z
loop_
_atom_site_type_symbol
_atom_site_label
_atom_site_fract_x
_atom_site_fract_y
_atom_site_fract_z
Si Si1 0.624954 0.196997 0.148501
Si Si2 0.417498 0.286511 0.071095
Si Si3 0.205578 0.589323 0.826308
Si Si4 0.355056 0.754527 0.403787
O O1 0.545792 0.253474 0.372854
O O2 0.605889 0.973121 0.159329
O O3 0.750000 0.250000 0.000000
O O4 0.632365 0.241072 0.016216
O O5 0.313759 0.442694 0.230097
O O6 0.366068 0.080279 0.112215
O O7 0.529023 0.347028 0.824254
O O8 0.291527 0.673518 0.602898
O O9 0.250000 0.750000 0.500000
#
# Coordination Sequence:
#
# PCOD9295650 Si02
#       4
#     8   8   8   8
#     4  10  23  43  67 102 147 187 240 297 360 433
#     4  11  24  46  74 104 147 191 244 301 366 430
#     4  11  23  42  75 106 143 189 248 298 362 429
#     4  12  24  44  75 106 145 195 240 300 363 431
#
# _framework density 29.878112000000002
#
# number of rings (size 3 to 8) (size 9 to 14) (size 15 to 20)
#    0.000    1.000    5.000    1.500    0.000    0.000 
#    0.000    7.500   11.000    0.000    0.000    0.000 
#    0.000    0.000    0.000    0.000    0.000    0.000 
#
# Total GULP energy -89155.520196 kJ/mol
# GULP energy per Si atom -5572.220012 kJ/mol
# Density = 2.981011 g / cm^3
# Si number density = 29.878112 Si / 1000 Ang^3
#
#
#
# Elastic Constant Matrix: (Units=GPa)
#
#
# Indices 1 2 3 4 5 6 
#
# 1 177.7836 52.0131 77.6365 0.0000 48.5410 0.0000
# 2 52.0131 134.6956 35.6552 0.0000 13.7810 0.0000
# 3 77.6365 35.6552 251.6863 0.0000 34.7581 0.0000
# 4 0.0000 0.0000 0.0000 35.8106 0.0000 1.1668
# 5 48.5410 13.7810 34.7581 0.0000 73.1813 0.0000
# 6 0.0000 0.0000 0.0000 1.1668 0.0000 68.8740
#
#
#
# Elastic Compliance Matrix: (Units=1/GPa)
#
#
# Indices 1 2 3 4 5 6 
#
# 1 0.008145 -0.002289 -0.001607 0.000000 -0.004208 0.000000
# 2 -0.002289 0.008426 -0.000512 0.000000 0.000175 0.000000
# 3 -0.001607 -0.000512 0.004688 0.000000 -0.001064 0.000000
# 4 0.000000 0.000000 0.000000 0.027940 0.000000 -0.000473
# 5 -0.004208 0.000175 -0.001064 0.000000 0.016929 0.000000
# 6 0.000000 0.000000 0.000000 -0.000473 0.000000 0.014527
#
#
# Mechanical properties :
#
#
# Convention : Reuss Voigt Hill
#
# Bulk Modulus (GPa) = 80.36337 99.41945 89.89141
# Shear Modulus (GPa) = 53.40753 62.16389 57.78571
#
# Velocity S-wave (km/s) = 4.23249 4.56629 4.40255
# Velocity P-wave (km/s) = 7.13027 7.81976 7.48296
#
# Compressibility (1/GPa) = 0.01244348
#
# Stress axis : x y z
#
# Youngs Moduli (GPa) = 122.76775 118.68397 213.29207
#
# Poissons Ratio (x) = 0.27172 0.34278
# Poissons Ratio (y) = 0.28107 0.10912
# Poissons Ratio (z) = 0.19730 0.06072
#
# Static dielectric constant tensor:
#      x y z
#    x 2.211240 0.000000 0.455420 
#    y 0.000000 2.851990 0.000000 
#    z 0.455420 0.000000 2.505120 
# 
# From -- ./inp_files/176017.got.cif
#   From: 2010.05.17/outbox.cif.g08.bks.cpg/sg15_89_cif.got.tgz:176017.got - 2010.06.03 18:47:42.
