data_PCOD9295794
_publ_section_title
;
Structure prediction by ZEFSAII (Michael W. Deem and Ramdas Pophale) SiO2 
 PCOD9295794
Probable space group: C 2/C
;
_chemical_formula_sum "Si O2"
_cell_formula_units_Z 40
_cell_length_a 12.965902
_cell_length_b 13.108597
_cell_length_c 18.042618
_cell_angle_alpha 90.000000
_cell_angle_beta 34.223548
_cell_angle_gamma 90.000000
_cell_volume 1724.732585
_symmetry_space_group_name_H-M "C 2/C"
_symmetry_group_IT_number 15
_symmetry_cell_setting 'monoclinic'
loop_
_space_group_symop_operation_xyz
x,y,z
-x,y,1/2-z
-x,-y,-z
x,-y,1/2+z
1/2+x,1/2+y,z
1/2-x,1/2+y,1/2-z
1/2-x,1/2-y,-z
1/2+x,1/2-y,1/2+z
loop_
_atom_site_type_symbol
_atom_site_label
_atom_site_fract_x
_atom_site_fract_y
_atom_site_fract_z
Si Si1 0.760764 0.234762 0.317539
Si Si2 0.500000 0.086617 0.750000
Si Si3 0.926880 0.387279 0.027866
Si Si4 0.248264 0.936489 0.994701
Si Si5 0.500000 0.430082 0.750000
Si Si6 0.068225 0.794403 0.292104
O O1 0.568970 0.199252 0.471209
O O2 0.698616 0.232494 0.269645
O O3 0.868737 0.337174 0.279016
O O4 0.893194 0.143078 0.257800
O O5 0.642220 0.010219 0.624923
O O6 0.896240 0.378335 0.957399
O O7 0.722663 0.379062 0.180604
O O8 0.000000 0.500000 0.000000
O O9 0.137046 0.008319 0.116803
O O10 0.097009 0.850358 0.064829
O O11 0.000000 0.757680 0.250000
#
# Coordination Sequence:
#
# PCOD9295794 Si02
#       6
#     8   4   8   8   4   8
#     4  11  25  40  69 105 136 173 235 295 336 401
#     4  11  28  42  68 111 142 172 229 298 348 392
#     4  11  20  42  70  95 132 189 229 274 344 417
#     4  11  22  46  66  99 141 185 229 275 352 419
#     4  11  22  42  72  97 132 188 227 288 340 414
#     4  10  23  43  69  98 136 184 233 279 340 413
#
# _framework density 23.192001000000001
#
# number of rings (size 3 to 8) (size 9 to 14) (size 15 to 20)
#    0.000    1.200    5.000    1.200    2.800    5.600 
#    5.400    0.000    0.000    0.000    0.000    0.000 
#    0.000    0.000    0.000    0.000    0.000    0.000 
#
# Total GULP energy -111407.203789 kJ/mol
# GULP energy per Si atom -5570.360189 kJ/mol
# Density = 2.313921 g / cm^3
# Si number density = 23.192001 Si / 1000 Ang^3
#
#
#
# Elastic Constant Matrix: (Units=GPa)
#
#
# Indices 1 2 3 4 5 6 
#
# 1 144.4654 55.1660 41.1427 -0.0001 -32.9605 0.0001
# 2 55.1660 73.3170 23.3301 0.0008 -1.1219 -0.0001
# 3 41.1427 23.3301 103.9699 0.0015 -6.3812 -0.0004
# 4 -0.0001 0.0008 0.0015 -0.3237 -0.0001 -0.9854
# 5 -32.9605 -1.1219 -6.3812 -0.0001 25.8756 0.0000
# 6 0.0001 -0.0001 -0.0004 -0.9854 0.0000 15.2355
#
#
#
# Elastic Compliance Matrix: (Units=1/GPa)
#
#
# Indices 1 2 3 4 5 6 
#
# 1 0.016572 -0.011272 -0.002805 -0.000039 0.019929 -0.000003
# 2 -0.011272 0.022356 -0.001399 0.000044 -0.013734 0.000003
# 3 -0.002805 -0.001399 0.010985 0.000039 -0.000925 0.000003
# 4 -0.000039 0.000044 0.000039 -2.581001 -0.000044 -0.166936
# 5 0.019929 -0.013734 -0.000925 -0.000044 0.063209 -0.000003
# 6 -0.000003 0.000003 0.000003 -0.166936 -0.000003 0.054839
#
#
# Mechanical properties :
#
#
# Convention : Reuss Voigt Hill
#
# Bulk Modulus (GPa) = 52.73977 62.33666 57.53822
# Shear Modulus (GPa) = -2.10458 21.63171 9.76357
#
# Velocity S-wave (km/s) = -0.95364 3.05736 2.05403
# Velocity P-wave (km/s) = 4.64514 6.27696 5.52166
#
# Compressibility (1/GPa) = 0.01896102
#
# Stress axis : x y z
#
# Youngs Moduli (GPa) = 60.34139 44.73127 91.02938
#
# Poissons Ratio (x) = 0.50421 0.25538
# Poissons Ratio (y) = 0.68016 0.12734
# Poissons Ratio (z) = 0.16929 0.06258
#
# Static dielectric constant tensor:
#      x y z
#    x 1.912190 0.000000 0.048070 
#    y 0.000000 2.075580 0.000000 
#    z 0.048070 0.000000 1.941480 
# 
# From -- ./inp_files/143957.got.cif
#   From: 2010.05.17/outbox.cif.g08.bks.cpg/sg15_72_cif.got.tgz:143957.got - 2010.06.03 18:47:42.
