data_PCOD9295815
_publ_section_title
;
Structure prediction by ZEFSAII (Michael W. Deem and Ramdas Pophale) SiO2 
 PCOD9295815
Probable space group: C 2/C
;
_chemical_formula_sum "Si O2"
_cell_formula_units_Z 44
_cell_length_a 26.108178
_cell_length_b 5.259147
_cell_length_c 16.137801
_cell_angle_alpha 90.000000
_cell_angle_beta 58.860043
_cell_angle_gamma 90.000000
_cell_volume 1896.542740
_symmetry_space_group_name_H-M "C 2/C"
_symmetry_group_IT_number 15
_symmetry_cell_setting 'monoclinic'
loop_
_space_group_symop_operation_xyz
x,y,z
-x,y,1/2-z
-x,-y,-z
x,-y,1/2+z
1/2+x,1/2+y,z
1/2-x,1/2+y,1/2-z
1/2-x,1/2-y,-z
1/2+x,1/2-y,1/2+z
loop_
_atom_site_type_symbol
_atom_site_label
_atom_site_fract_x
_atom_site_fract_y
_atom_site_fract_z
Si Si1 0.515403 0.728911 0.568587
Si Si2 0.000000 0.455737 0.250000
Si Si3 0.281117 0.495772 0.438090
Si Si4 0.902642 0.153571 0.404433
Si Si5 0.599299 0.869684 0.924177
Si Si6 0.721042 0.692351 0.745052
O O1 0.546486 0.499664 0.589642
O O2 0.453995 0.696756 0.570019
O O3 0.500586 0.903829 0.661251
O O4 0.563577 0.865714 0.467532
O O5 0.061845 0.301798 0.195543
O O6 0.250000 0.250000 0.500000
O O7 0.349794 0.495753 0.409811
O O8 0.278136 0.455299 0.342591
O O9 0.250000 0.750000 0.500000
O O10 0.877969 0.320845 0.500861
O O11 0.656997 0.817728 0.820529
O O12 0.736992 0.447901 0.790939
#
# Coordination Sequence:
#
# PCOD9295815 Si02
#       6
#     8   4   8   8   8   8
#     4  10  23  43  70 101 145 185 236 299 362 433
#     4  10  24  38  68 104 144 184 236 292 368 428
#     4  12  29  50  77 107 147 196 248 305 370 435
#     4  11  24  44  71 102 145 184 240 301 363 438
#     4  10  24  44  70 103 141 188 241 293 369 427
#     4  12  28  49  75 109 146 197 247 306 363 444
#
# _framework density 23.200113000000002
#
# number of rings (size 3 to 8) (size 9 to 14) (size 15 to 20)
#    0.000    1.091    0.000    4.364   15.273    1.455 
#    0.000    0.000    0.000    0.000    0.000    0.000 
#    0.000    0.000    0.000    0.000    0.000    0.000 
#
# Total GULP energy -122802.863185 kJ/mol
# GULP energy per Si atom -5581.948327 kJ/mol
# Density = 2.314731 g / cm^3
# Si number density = 23.200113 Si / 1000 Ang^3
#
#
#
# Elastic Constant Matrix: (Units=GPa)
#
#
# Indices 1 2 3 4 5 6 
#
# 1 89.2762 19.4890 31.1110 -0.0055 -0.9315 0.0133
# 2 19.4890 95.9824 44.4355 0.0049 2.7089 -0.0064
# 3 31.1110 44.4355 138.6518 -0.0026 -3.6022 0.0055
# 4 -0.0055 0.0049 -0.0026 24.6024 0.0018 9.2275
# 5 -0.9315 2.7089 -3.6022 0.0018 26.3405 0.0022
# 6 0.0133 -0.0064 0.0055 9.2275 0.0022 27.7252
#
#
#
# Elastic Compliance Matrix: (Units=1/GPa)
#
#
# Indices 1 2 3 4 5 6 
#
# 1 0.012319 -0.001447 -0.002293 0.000006 0.000271 -0.000008
# 2 -0.001447 0.012489 -0.003726 -0.000005 -0.001845 0.000006
# 3 -0.002293 -0.003726 0.008961 0.000002 0.001527 -0.000002
# 4 0.000006 -0.000005 0.000002 0.046444 -0.000001 -0.015457
# 5 0.000271 -0.001845 0.001527 -0.000001 0.038373 -0.000004
# 6 -0.000008 0.000006 -0.000002 -0.015457 -0.000004 0.041213
#
#
# Mechanical properties :
#
#
# Convention : Reuss Voigt Hill
#
# Bulk Modulus (GPa) = 53.08905 57.10905 55.09905
# Shear Modulus (GPa) = 27.62274 30.99194 29.30734
#
# Velocity S-wave (km/s) = 3.45429 3.65890 3.55807
# Velocity P-wave (km/s) = 6.23236 6.52068 6.37815
#
# Compressibility (1/GPa) = 0.01883628
#
# Stress axis : x y z
#
# Youngs Moduli (GPa) = 81.17446 80.06782 111.59921
#
# Poissons Ratio (x) = 0.11588 0.25593
# Poissons Ratio (y) = 0.11748 0.41580
# Poissons Ratio (z) = 0.18616 0.29832
#
# Static dielectric constant tensor:
#      x y z
#    x 1.891660 -0.000010 0.021560 
#    y -0.000010 2.024430 0.000000 
#    z 0.021560 0.000000 1.896100 
# 
# From -- ./inp_files/221111.got.cif
#   From: 2010.05.17/outbox.cif.g08.bks.cpg/sg15_111_cif.got.tgz:221111.got - 2010.06.03 18:47:42.
