data_PCOD9295288
_publ_section_title
;
Structure prediction by ZEFSAII (Michael W. Deem and Ramdas Pophale) SiO2 
 PCOD9295288
Probable space group: C 2/C
;
_chemical_formula_sum "Si O2"
_cell_formula_units_Z 32
_cell_length_a 11.462721
_cell_length_b 11.603371
_cell_length_c 17.905861
_cell_angle_alpha 90.000000
_cell_angle_beta 145.260014
_cell_angle_gamma 90.000000
_cell_volume 1357.156907
_symmetry_space_group_name_H-M "C 2/C"
_symmetry_group_IT_number 15
_symmetry_cell_setting 'monoclinic'
loop_
_space_group_symop_operation_xyz
x,y,z
-x,y,1/2-z
-x,-y,-z
x,-y,1/2+z
1/2+x,1/2+y,z
1/2-x,1/2+y,1/2-z
1/2-x,1/2-y,-z
1/2+x,1/2-y,1/2+z
loop_
_atom_site_type_symbol
_atom_site_label
_atom_site_fract_x
_atom_site_fract_y
_atom_site_fract_z
Si Si1 0.661196 0.352129 0.783239
Si Si2 0.199689 0.928538 0.582763
Si Si3 0.495741 0.010685 0.374134
Si Si4 0.480621 0.242204 0.542656
O O1 0.500000 0.419366 0.750000
O O2 0.534748 0.317118 0.644022
O O3 0.870007 0.412298 0.866871
O O4 0.756808 0.250666 0.886004
O O5 0.356852 0.294569 0.931142
O O6 0.286253 0.950035 0.545309
O O7 0.356213 0.974090 0.727500
O O8 0.000000 0.000000 0.500000
O O9 0.501923 0.885280 0.413789
#
# Coordination Sequence:
#
# PCOD9295288 Si02
#       4
#     8   8   8   8
#     4  11  25  43  66 102 133 179 232 280 347 418
#     4  10  23  42  68 102 137 183 231 284 347 416
#     4  10  24  43  65 101 140 174 235 285 343 420
#     4  11  24  44  71  95 136 184 225 283 349 406
#
# _framework density 23.578703000000001
#
# number of rings (size 3 to 8) (size 9 to 14) (size 15 to 20)
#    0.000    1.500    0.000    3.000   14.000    1.000 
#    9.000    0.000    0.000    0.000    0.000    0.000 
#    0.000    0.000    0.000    0.000    0.000    0.000 
#
# Total GULP energy -89175.024008 kJ/mol
# GULP energy per Si atom -5573.439001 kJ/mol
# Density = 2.352504 g / cm^3
# Si number density = 23.578703 Si / 1000 Ang^3
#
#
#
# Elastic Constant Matrix: (Units=GPa)
#
#
# Indices 1 2 3 4 5 6 
#
# 1 227.4304 88.1021 26.6589 0.0000 29.2315 0.0000
# 2 88.1021 86.9140 5.4097 0.0000 2.9119 0.0000
# 3 26.6589 5.4097 94.0132 0.0001 -7.0662 0.0000
# 4 0.0000 0.0000 0.0001 27.1573 0.0000 -3.1217
# 5 29.2315 2.9119 -7.0662 0.0000 32.8877 0.0000
# 6 0.0000 0.0000 0.0000 -3.1217 0.0000 -5.1970
#
#
#
# Elastic Compliance Matrix: (Units=1/GPa)
#
#
# Indices 1 2 3 4 5 6 
#
# 1 0.009161 -0.008854 -0.002685 0.000000 -0.007936 0.000000
# 2 -0.008854 0.020149 0.001838 0.000000 0.006480 0.000000
# 3 -0.002685 0.001838 0.011648 0.000000 0.004726 0.000000
# 4 0.000000 0.000000 0.000000 0.034444 0.000000 -0.020690
# 5 -0.007936 0.006480 0.004726 0.000000 0.037902 0.000000
# 6 0.000000 0.000000 0.000000 -0.020690 0.000000 -0.179990
#
#
# Mechanical properties :
#
#
# Convention : Reuss Voigt Hill
#
# Bulk Modulus (GPa) = 46.38809 72.07766 59.23288
# Shear Modulus (GPa) = -124.68803 30.18207 -47.25298
#
# Velocity S-wave (km/s) = -7.27986 3.58167 -4.48152
# Velocity P-wave (km/s) = 7.13761 6.90940 1.26603
#
# Compressibility (1/GPa) = 0.02155726
#
# Stress axis : x y z
#
# Youngs Moduli (GPa) = 109.15401 49.63085 85.85466
#
# Poissons Ratio (x) = 0.43941 0.23051
# Poissons Ratio (y) = 0.96641 -0.15782
# Poissons Ratio (z) = 0.29306 -0.09123
#
# Static dielectric constant tensor:
#      x y z
#    x 2.040490 0.000000 0.049780 
#    y 0.000000 1.970610 0.000000 
#    z 0.049780 0.000000 1.928120 
# 
# From -- ./inp_files/198486.got.cif
#   From: 2010.05.17/outbox.cif.g08.bks.cpg/sg15_100_cif.got.tgz:198486.got - 2010.06.03 18:47:42.
