data_PCOD9295120
_publ_section_title
;
Structure prediction by ZEFSAII (Michael W. Deem and Ramdas Pophale) SiO2 
 PCOD9295120
Probable space group: C 2/C
;
_chemical_formula_sum "Si O2"
_cell_formula_units_Z 64
_cell_length_a 8.300951
_cell_length_b 31.291665
_cell_length_c 16.572165
_cell_angle_alpha 90.000000
_cell_angle_beta 37.053435
_cell_angle_gamma 90.000000
_cell_volume 2593.795714
_symmetry_space_group_name_H-M "C 2/C"
_symmetry_group_IT_number 15
_symmetry_cell_setting 'monoclinic'
loop_
_space_group_symop_operation_xyz
x,y,z
-x,y,1/2-z
-x,-y,-z
x,-y,1/2+z
1/2+x,1/2+y,z
1/2-x,1/2+y,1/2-z
1/2-x,1/2-y,-z
1/2+x,1/2-y,1/2+z
loop_
_atom_site_type_symbol
_atom_site_label
_atom_site_fract_x
_atom_site_fract_y
_atom_site_fract_z
Si Si1 0.614224 0.430613 0.979816
Si Si2 0.207536 0.204224 0.055798
Si Si3 0.274763 0.140066 0.894579
Si Si4 0.115214 0.283026 0.828690
Si Si5 0.255479 0.897913 0.096081
Si Si6 0.712187 0.504406 0.310070
Si Si7 0.074501 0.188116 0.590830
Si Si8 0.616386 0.967648 0.017704
O O1 0.463706 0.392471 0.995260
O O2 0.765140 0.414487 0.999517
O O3 0.392700 0.462248 0.103704
O O4 0.757169 0.458737 0.857183
O O5 0.319686 0.210204 0.101463
O O6 0.885122 0.198791 0.182675
O O7 0.250000 0.250000 0.000000
O O8 0.339888 0.167539 0.947780
O O9 0.500000 0.117352 0.750000
O O10 0.161297 0.171651 0.871379
O O11 0.039870 0.234060 0.835274
O O12 0.832634 0.305663 0.930313
O O13 0.180457 0.847741 0.111471
O O14 0.508966 0.919652 0.039890
O O15 0.000000 0.914715 0.250000
O O16 0.434303 0.524109 0.383725
O O17 0.954720 0.486430 0.159483
O O18 0.500000 0.000000 0.000000
#
# Coordination Sequence:
#
# PCOD9295120 Si02
#       8
#     8   8   8   8   8   8   8   8
#     4  10  24  43  66 102 136 182 240 296 353 433
#     4  11  22  42  70  96 140 183 233 287 356 434
#     4  11  24  43  70 101 139 188 238 298 356 426
#     4  10  23  44  66 100 137 183 230 291 361 430
#     4  11  22  44  69 102 140 183 237 303 352 430
#     4  11  25  44  72 101 140 192 235 299 366 439
#     4  10  23  42  65 101 137 178 237 289 358 427
#     4  12  23  46  72 104 140 185 241 298 366 434
#
# _framework density 24.674264000000001
#
# number of rings (size 3 to 8) (size 9 to 14) (size 15 to 20)
#    0.000    1.250    3.750    1.125    1.750    6.000 
#    2.250    1.250    0.000    0.000    0.000    0.000 
#    0.000    0.000    0.000    0.000    0.000    0.000 
#
# Total GULP energy -178479.134011 kJ/mol
# GULP energy per Si atom -5577.472938 kJ/mol
# Density = 2.461810 g / cm^3
# Si number density = 24.674264 Si / 1000 Ang^3
#
#
#
# Elastic Constant Matrix: (Units=GPa)
#
#
# Indices 1 2 3 4 5 6 
#
# 1 105.3801 36.4053 32.0371 0.0000 -4.1059 0.0000
# 2 36.4053 124.2751 6.4816 0.0000 16.9480 0.0000
# 3 32.0371 6.4816 38.1975 0.0000 2.2091 0.0000
# 4 0.0000 0.0000 0.0000 52.6528 0.0000 11.7134
# 5 -4.1059 16.9480 2.2091 0.0000 31.9849 0.0000
# 6 0.0000 0.0000 0.0000 11.7134 0.0000 42.0201
#
#
#
# Elastic Compliance Matrix: (Units=1/GPa)
#
#
# Indices 1 2 3 4 5 6 
#
# 1 0.014867 -0.004422 -0.012013 0.000000 0.005081 0.000000
# 2 -0.004422 0.010045 0.002354 0.000000 -0.006053 0.000000
# 3 -0.012013 0.002354 0.036161 0.000000 -0.005287 0.000000
# 4 0.000000 0.000000 0.000000 0.020248 0.000000 -0.005644
# 5 0.005081 -0.006053 -0.005287 0.000000 0.035489 0.000000
# 6 0.000000 0.000000 0.000000 -0.005644 0.000000 0.025372
#
#
# Mechanical properties :
#
#
# Convention : Reuss Voigt Hill
#
# Bulk Modulus (GPa) = 30.38374 46.41118 38.39746
# Shear Modulus (GPa) = 27.57659 38.19347 32.88503
#
# Velocity S-wave (km/s) = 3.34672 3.93861 3.65467
# Velocity P-wave (km/s) = 5.22252 6.28760 5.77965
#
# Compressibility (1/GPa) = 0.03291234
#
# Stress axis : x y z
#
# Youngs Moduli (GPa) = 67.26304 99.55645 27.65375
#
# Poissons Ratio (x) = 0.44019 0.33220
# Poissons Ratio (y) = 0.29741 -0.06510
# Poissons Ratio (z) = 0.80802 -0.23436
#
# Static dielectric constant tensor:
#      x y z
#    x 1.849690 0.000000 -0.111880 
#    y 0.000000 1.614650 0.000000 
#    z -0.111880 0.000000 2.085690 
# 
# From -- ./inp_files/194217.got.cif
#   From: 2010.05.17/outbox.cif.g08.bks.cpg/sg15_98_cif.got.tgz:194217.got - 2010.06.03 18:47:42.
