data_PCOD9295636
_publ_section_title
;
Structure prediction by ZEFSAII (Michael W. Deem and Ramdas Pophale) SiO2 
 PCOD9295636
Probable space group: C 2/C
;
_chemical_formula_sum "Si O2"
_cell_formula_units_Z 40
_cell_length_a 14.703190
_cell_length_b 7.839074
_cell_length_c 14.932627
_cell_angle_alpha 90.000000
_cell_angle_beta 107.501860
_cell_angle_gamma 90.000000
_cell_volume 1641.449805
_symmetry_space_group_name_H-M "C 2/C"
_symmetry_group_IT_number 15
_symmetry_cell_setting 'monoclinic'
loop_
_space_group_symop_operation_xyz
x,y,z
-x,y,1/2-z
-x,-y,-z
x,-y,1/2+z
1/2+x,1/2+y,z
1/2-x,1/2+y,1/2-z
1/2-x,1/2-y,-z
1/2+x,1/2-y,1/2+z
loop_
_atom_site_type_symbol
_atom_site_label
_atom_site_fract_x
_atom_site_fract_y
_atom_site_fract_z
Si Si1 0.272425 0.027457 0.811013
Si Si2 0.727251 0.848052 0.376971
Si Si3 0.092406 0.135843 0.453176
Si Si4 0.069786 0.659466 0.511036
Si Si5 0.088679 0.814102 0.332648
O O1 0.299021 0.035322 0.714777
O O2 0.348036 0.127296 0.893561
O O3 0.174772 0.131624 0.794794
O O4 0.259592 0.837776 0.846887
O O5 0.817298 0.920902 0.458936
O O6 0.639430 0.797933 0.415050
O O7 0.000665 0.188069 0.481980
O O8 0.064206 0.995257 0.372504
O O9 0.109593 0.693613 0.423640
O O10 0.000000 0.500000 0.500000
O O11 0.000000 0.747359 0.250000
#
# Coordination Sequence:
#
# PCOD9295636 Si02
#       5
#     8   8   8   8   8
#     4  11  25  42  68  97 134 175 220 272 332 389
#     4  10  23  43  66  99 133 173 223 269 329 392
#     4  10  23  44  67  94 134 173 221 269 328 395
#     4  12  25  44  66  99 134 172 219 275 330 388
#     4  11  26  45  69  96 132 176 223 269 331 396
#
# _framework density 24.368701999999999
#
# number of rings (size 3 to 8) (size 9 to 14) (size 15 to 20)
#    0.000    1.200    2.000    2.400    8.400    1.600 
#    0.000    0.000    0.000    0.000    0.000    0.000 
#    0.000    0.000    0.000    0.000    0.000    0.000 
#
# Total GULP energy -112069.541431 kJ/mol
# GULP energy per Si atom -5603.477072 kJ/mol
# Density = 2.431324 g / cm^3
# Si number density = 24.368702 Si / 1000 Ang^3
#
#
#
# Elastic Constant Matrix: (Units=GPa)
#
#
# Indices 1 2 3 4 5 6 
#
# 1 72.0373 -11.2188 14.0440 0.0000 -5.7389 0.0000
# 2 -11.2188 63.9139 -8.2983 0.0000 -2.0868 0.0000
# 3 14.0440 -8.2983 117.7885 0.0000 -4.5073 0.0000
# 4 0.0000 0.0000 0.0000 23.9768 0.0000 -7.6683
# 5 -5.7389 -2.0868 -4.5073 0.0000 37.8413 0.0000
# 6 0.0000 0.0000 0.0000 -7.6683 0.0000 21.6342
#
#
#
# Elastic Compliance Matrix: (Units=1/GPa)
#
#
# Indices 1 2 3 4 5 6 
#
# 1 0.014732 0.002463 -0.001499 0.000000 0.002191 0.000000
# 2 0.002463 0.016241 0.000903 0.000000 0.001377 0.000000
# 3 -0.001499 0.000903 0.008765 0.000000 0.000866 0.000000
# 4 0.000000 0.000000 0.000000 0.047039 0.000000 0.016673
# 5 0.002191 0.001377 0.000866 0.000000 0.026938 0.000000
# 6 0.000000 0.000000 0.000000 0.016673 0.000000 0.052133
#
#
# Mechanical properties :
#
#
# Convention : Reuss Voigt Hill
#
# Bulk Modulus (GPa) = 23.00345 26.97707 24.99026
# Shear Modulus (GPa) = 28.31182 33.97131 31.14156
#
# Velocity S-wave (km/s) = 3.41223 3.73776 3.57870
# Velocity P-wave (km/s) = 4.99847 5.45180 5.23005
#
# Compressibility (1/GPa) = 0.04347173
#
# Stress axis : x y z
#
# Youngs Moduli (GPa) = 67.87899 61.57418 114.08590
#
# Poissons Ratio (x) = -0.15165 0.17103
# Poissons Ratio (y) = -0.16717 -0.10304
# Poissons Ratio (z) = 0.10176 -0.05561
#
# Static dielectric constant tensor:
#      x y z
#    x 1.812030 0.000000 -0.030050 
#    y 0.000000 2.096420 0.000000 
#    z -0.030050 0.000000 1.871800 
# 
# From -- ./inp_files/150539.got.cif
#   From: 2010.05.17/outbox.cif.g08.bks.cpg/sg15_76_cif.got.tgz:150539.got - 2010.06.03 18:47:42.
