data_PCOD9295877
_publ_section_title
;
Structure prediction by ZEFSAII (Michael W. Deem and Ramdas Pophale) SiO2 
 PCOD9295877
Probable space group: C 2/C
;
_chemical_formula_sum "Si O2"
_cell_formula_units_Z 44
_cell_length_a 5.141203
_cell_length_b 21.484027
_cell_length_c 17.192759
_cell_angle_alpha 90.000000
_cell_angle_beta 74.194875
_cell_angle_gamma 90.000000
_cell_volume 1827.210141
_symmetry_space_group_name_H-M "C 2/C"
_symmetry_group_IT_number 15
_symmetry_cell_setting 'monoclinic'
loop_
_space_group_symop_operation_xyz
x,y,z
-x,y,1/2-z
-x,-y,-z
x,-y,1/2+z
1/2+x,1/2+y,z
1/2-x,1/2+y,1/2-z
1/2-x,1/2-y,-z
1/2+x,1/2-y,1/2+z
loop_
_atom_site_type_symbol
_atom_site_label
_atom_site_fract_x
_atom_site_fract_y
_atom_site_fract_z
Si Si1 0.897251 0.795337 0.592223
Si Si2 0.000000 0.035212 0.250000
Si Si3 0.897693 0.170315 0.916896
Si Si4 0.553947 0.069165 0.519901
Si Si5 0.236252 0.925971 0.325064
Si Si6 0.673713 0.135707 0.357938
O O1 0.000526 0.806264 0.493871
O O2 0.786037 0.725367 0.601058
O O3 0.629397 0.838553 0.626005
O O4 0.113671 0.808661 0.642491
O O5 0.240091 0.083472 0.210859
O O6 0.062719 0.985897 0.313078
O O7 0.711242 0.110911 0.949819
O O8 0.100183 0.142196 0.836789
O O9 0.694203 0.067165 0.590840
O O10 0.712373 0.100514 0.436859
O O11 0.500000 0.000000 0.500000
O O12 0.500000 0.927039 0.250000
#
# Coordination Sequence:
#
# PCOD9295877 Si02
#       6
#     8   4   8   8   8   8
#     4  10  24  45  78 104 144 185 246 296 365 433
#     4  12  30  46  66 104 148 192 244 304 374 434
#     4  10  23  43  71 111 138 187 240 305 358 437
#     4  11  24  42  73 106 140 191 242 297 362 429
#     4  12  25  44  69 102 148 187 240 304 368 435
#     4  11  25  47  72 105 140 193 240 302 360 437
#
# _framework density 24.080428999999999
#
# number of rings (size 3 to 8) (size 9 to 14) (size 15 to 20)
#    0.000    1.091    1.818    3.273   10.182    3.636 
#    1.636    1.818    0.000    0.000    0.000    0.000 
#    0.000    0.000    0.000    0.000    0.000    0.000 
#
# Total GULP energy -123056.402916 kJ/mol
# GULP energy per Si atom -5593.472860 kJ/mol
# Density = 2.402562 g / cm^3
# Si number density = 24.080429 Si / 1000 Ang^3
#
#
#
# Elastic Constant Matrix: (Units=GPa)
#
#
# Indices 1 2 3 4 5 6 
#
# 1 45.5217 -2.5692 10.2229 0.0000 4.0879 0.0000
# 2 -2.5692 113.6154 21.7567 0.0000 -16.9543 0.0000
# 3 10.2229 21.7567 57.6987 0.0000 -2.1017 0.0000
# 4 0.0000 0.0000 0.0000 46.0336 0.0000 -6.4229
# 5 4.0879 -16.9543 -2.1017 0.0000 31.3081 0.0000
# 6 0.0000 0.0000 0.0000 -6.4229 0.0000 28.0347
#
#
#
# Elastic Compliance Matrix: (Units=1/GPa)
#
#
# Indices 1 2 3 4 5 6 
#
# 1 0.023311 0.000989 -0.004606 0.000000 -0.002817 0.000000
# 2 0.000989 0.010346 -0.003887 0.000000 0.005213 0.000000
# 3 -0.004606 -0.003887 0.019606 0.000000 -0.000187 0.000000
# 4 0.000000 0.000000 0.000000 0.022441 0.000000 0.005141
# 5 -0.002817 0.005213 -0.000187 0.000000 0.035119 0.000000
# 6 0.000000 0.000000 0.000000 0.005141 0.000000 0.036848
#
#
# Mechanical properties :
#
#
# Convention : Reuss Voigt Hill
#
# Bulk Modulus (GPa) = 26.13974 30.62852 28.38413
# Shear Modulus (GPa) = 28.50154 33.57030 31.03592
#
# Velocity S-wave (km/s) = 3.44408 3.73780 3.59394
# Velocity P-wave (km/s) = 5.16665 5.60135 5.38839
#
# Compressibility (1/GPa) = 0.03825593
#
# Stress axis : x y z
#
# Youngs Moduli (GPa) = 42.89892 96.65482 51.00449
#
# Poissons Ratio (x) = -0.09556 0.23490
# Poissons Ratio (y) = -0.04241 0.19823
# Poissons Ratio (z) = 0.19757 0.37565
#
# Static dielectric constant tensor:
#      x y z
#    x 2.102340 0.000000 -0.046250 
#    y 0.000000 2.008460 0.000000 
#    z -0.046250 0.000000 1.962370 
# 
# From -- ./inp_files/184799.got.cif
#   From: 2010.05.17/outbox.cif.g08.bks.cpg/sg15_93_cif.got.tgz:184799.got - 2010.06.03 18:47:42.
