data_PCOD9295446
_publ_section_title
;
Structure prediction by ZEFSAII (Michael W. Deem and Ramdas Pophale) SiO2 
 PCOD9295446
Probable space group: C 2/C
;
_chemical_formula_sum "Si O2"
_cell_formula_units_Z 48
_cell_length_a 8.529181
_cell_length_b 15.388001
_cell_length_c 23.935261
_cell_angle_alpha 90.000000
_cell_angle_beta 137.163421
_cell_angle_gamma 90.000000
_cell_volume 2135.889965
_symmetry_space_group_name_H-M "C 2/C"
_symmetry_group_IT_number 15
_symmetry_cell_setting 'monoclinic'
loop_
_space_group_symop_operation_xyz
x,y,z
-x,y,1/2-z
-x,-y,-z
x,-y,1/2+z
1/2+x,1/2+y,z
1/2-x,1/2+y,1/2-z
1/2-x,1/2-y,-z
1/2+x,1/2-y,1/2+z
loop_
_atom_site_type_symbol
_atom_site_label
_atom_site_fract_x
_atom_site_fract_y
_atom_site_fract_z
Si Si1 0.165130 0.839225 0.508028
Si Si2 0.951956 0.941228 0.800058
Si Si3 0.481053 0.237498 0.931739
Si Si4 0.036090 0.592446 0.034795
Si Si5 0.198226 0.732944 0.256104
Si Si6 0.781126 0.111128 0.822129
O O1 0.250000 0.750000 0.500000
O O2 0.378175 0.900549 0.548431
O O3 0.129524 0.818790 0.563734
O O4 0.928399 0.873515 0.417655
O O5 0.775347 0.860412 0.753379
O O6 0.000000 0.974242 0.750000
O O7 0.193172 0.898631 0.883362
O O8 0.869493 0.021651 0.816595
O O9 0.397172 0.227132 0.847287
O O10 0.750000 0.250000 0.000000
O O11 0.442367 0.157013 0.962718
O O12 0.000000 0.500000 0.000000
O O13 0.148914 0.804076 0.196261
O O14 0.000000 0.722399 0.250000
O O15 0.500000 0.109963 0.750000
#
# Coordination Sequence:
#
# PCOD9295446 Si02
#       6
#     8   8   8   8   8   8
#     4  10  23  42  71  99 132 182 232 282 347 416
#     4  12  28  45  70 102 142 187 233 292 355 418
#     4  11  23  43  68 100 134 180 232 280 348 414
#     4  11  23  45  69  97 139 177 235 286 348 415
#     4  12  26  45  71 102 141 181 232 289 353 420
#     4  12  26  48  70 104 142 185 234 293 354 421
#
# _framework density 22.473067
#
# number of rings (size 3 to 8) (size 9 to 14) (size 15 to 20)
#    0.000    0.667    3.333    4.500   11.667    0.000 
#    0.000    1.667    0.000    0.000    0.000    0.000 
#    0.000    0.000    0.000    0.000    0.000    0.000 
#
# Total GULP energy -134137.361482 kJ/mol
# GULP energy per Si atom -5589.056728 kJ/mol
# Density = 2.242192 g / cm^3
# Si number density = 22.473067 Si / 1000 Ang^3
#
#
#
# Elastic Constant Matrix: (Units=GPa)
#
#
# Indices 1 2 3 4 5 6 
#
# 1 79.9151 29.3674 0.3227 0.0000 18.2888 0.0000
# 2 29.3674 97.6018 11.3729 0.0000 0.3694 0.0000
# 3 0.3227 11.3729 95.0825 -0.0001 5.2128 0.0000
# 4 0.0000 0.0000 -0.0001 29.2406 0.0000 -1.8628
# 5 18.2888 0.3694 5.2128 0.0000 45.8417 0.0000
# 6 0.0000 0.0000 0.0000 -1.8628 0.0000 38.3225
#
#
#
# Elastic Compliance Matrix: (Units=1/GPa)
#
#
# Indices 1 2 3 4 5 6 
#
# 1 0.015727 -0.004809 0.000869 0.000000 -0.006334 0.000000
# 2 -0.004809 0.011861 -0.001512 0.000000 0.001995 0.000000
# 3 0.000869 -0.001512 0.010781 0.000000 -0.001560 0.000000
# 4 0.000000 0.000000 0.000000 0.034305 0.000000 0.001667
# 5 -0.006334 0.001995 -0.001560 0.000000 0.024503 0.000000
# 6 0.000000 0.000000 0.000000 0.001667 0.000000 0.026175
#
#
# Mechanical properties :
#
#
# Convention : Reuss Voigt Hill
#
# Bulk Modulus (GPa) = 36.41027 39.41395 37.91211
# Shear Modulus (GPa) = 34.86484 38.11671 36.49077
#
# Velocity S-wave (km/s) = 3.94306 4.12285 4.03396
# Velocity P-wave (km/s) = 6.08007 6.34352 6.21319
#
# Compressibility (1/GPa) = 0.02746478
#
# Stress axis : x y z
#
# Youngs Moduli (GPa) = 63.58597 84.30706 92.75908
#
# Poissons Ratio (x) = 0.40546 -0.08062
# Poissons Ratio (y) = 0.30581 0.14023
# Poissons Ratio (z) = -0.05527 0.12746
#
# Static dielectric constant tensor:
#      x y z
#    x 1.855760 0.000000 0.037780 
#    y 0.000000 1.805280 0.000000 
#    z 0.037780 0.000000 1.936100 
# 
# From -- ./inp_files/289068.got.cif
#   From: 2010.05.17/outbox.cif.g08.bks.cpg/sg15_145_cif.got.tgz:289068.got - 2010.06.03 18:47:42.
