data_PCOD9295153
_publ_section_title
;
Structure prediction by ZEFSAII (Michael W. Deem and Ramdas Pophale) SiO2 
 PCOD9295153
Probable space group: C 2/C
;
_chemical_formula_sum "Si O2"
_cell_formula_units_Z 48
_cell_length_a 12.349468
_cell_length_b 18.258734
_cell_length_c 11.497254
_cell_angle_alpha 90.000000
_cell_angle_beta 52.893724
_cell_angle_gamma 90.000000
_cell_volume 2067.537757
_symmetry_space_group_name_H-M "C 2/C"
_symmetry_group_IT_number 15
_symmetry_cell_setting 'monoclinic'
loop_
_space_group_symop_operation_xyz
x,y,z
-x,y,1/2-z
-x,-y,-z
x,-y,1/2+z
1/2+x,1/2+y,z
1/2-x,1/2+y,1/2-z
1/2-x,1/2-y,-z
1/2+x,1/2-y,1/2+z
loop_
_atom_site_type_symbol
_atom_site_label
_atom_site_fract_x
_atom_site_fract_y
_atom_site_fract_z
Si Si1 0.723683 0.883241 0.216838
Si Si2 0.705586 0.044953 0.250266
Si Si3 0.438304 0.226900 0.522936
Si Si4 0.000000 0.151862 0.250000
Si Si5 0.000000 0.648739 0.250000
Si Si6 0.293098 0.842082 0.542847
Si Si7 0.526958 0.394879 0.981713
O O1 0.667407 0.819992 0.334860
O O2 0.657302 0.961673 0.288838
O O3 0.694902 0.863556 0.100270
O O4 0.884099 0.894691 0.138717
O O5 0.608474 0.095838 0.238577
O O6 0.712913 0.085452 0.370790
O O7 0.851060 0.048154 0.088220
O O8 0.440146 0.198479 0.390657
O O9 0.585324 0.207781 0.486427
O O10 0.413396 0.313170 0.541419
O O11 0.856578 0.193843 0.341243
O O12 0.011456 0.102628 0.129284
#
# Coordination Sequence:
#
# PCOD9295153 Si02
#       7
#     8   8   8   4   4   8   8
#     4  11  24  39  71  97 127 166 217 259 328 377
#     4  10  23  44  66  92 132 168 212 262 316 377
#     4  11  25  41  66  96 128 170 215 262 321 380
#     4   8  18  36  63  91 130 164 194 266 320 360
#     4  10  26  44  65  89 134 170 214 268 308 378
#     4   9  21  39  63  97 127 162 211 263 313 379
#     4  10  23  42  65  97 131 166 212 264 318 380
#
# _framework density 23.216021000000001
#
# number of rings (size 3 to 8) (size 9 to 14) (size 15 to 20)
#    0.000    2.000    0.000    1.000   14.000    3.333 
#    0.000    0.000    0.000    0.000    0.000    0.000 
#    0.000    0.000    0.000    0.000    0.000    0.000 
#
# Total GULP energy -134191.063869 kJ/mol
# GULP energy per Si atom -5591.294328 kJ/mol
# Density = 2.316318 g / cm^3
# Si number density = 23.216021 Si / 1000 Ang^3
#
#
#
# Elastic Constant Matrix: (Units=GPa)
#
#
# Indices 1 2 3 4 5 6 
#
# 1 34.3939 13.7407 22.6512 0.0000 11.1566 0.0000
# 2 13.7407 130.7558 24.5554 0.0000 16.3027 0.0000
# 3 22.6512 24.5554 102.2215 0.0000 14.0890 0.0000
# 4 0.0000 0.0000 0.0000 20.3262 0.0000 -1.2265
# 5 11.1566 16.3027 14.0890 0.0000 45.4421 0.0000
# 6 0.0000 0.0000 0.0000 -1.2265 0.0000 -0.6280
#
#
#
# Elastic Compliance Matrix: (Units=1/GPa)
#
#
# Indices 1 2 3 4 5 6 
#
# 1 0.036230 -0.001770 -0.006753 0.000000 -0.006166 0.000002
# 2 -0.001770 0.008350 -0.001317 0.000000 -0.002153 0.000000
# 3 -0.006753 -0.001317 0.011806 0.000000 -0.001530 0.000000
# 4 0.000000 0.000000 0.000000 0.044011 0.000000 -0.085957
# 5 -0.006166 -0.002153 -0.001530 0.000000 0.024767 -0.000001
# 6 0.000002 0.000000 0.000000 -0.085957 -0.000001 -1.424476
#
#
# Mechanical properties :
#
#
# Convention : Reuss Voigt Hill
#
# Bulk Modulus (GPa) = 27.24392 43.25175 35.24783
# Shear Modulus (GPa) = -3.94509 26.78964 11.42228
#
# Velocity S-wave (km/s) = -1.30498 3.40064 2.22051
# Velocity P-wave (km/s) = 3.08055 5.83864 4.66795
#
# Compressibility (1/GPa) = 0.03670544
#
# Stress axis : x y z
#
# Youngs Moduli (GPa) = 27.60170 119.76707 84.70076
#
# Poissons Ratio (x) = 0.21202 0.57198
# Poissons Ratio (y) = 0.04886 0.11153
# Poissons Ratio (z) = 0.18639 0.15770
#
# Static dielectric constant tensor:
#      x y z
#    x 1.906350 0.000000 -0.064390 
#    y 0.000000 1.848770 0.000000 
#    z -0.064390 0.000000 1.910060 
# 
# From -- ./inp_files/89454.got.cif
#   From: 2010.05.17/outbox.cif.g08.bks.cpg/sg15_45_cif.got.tgz:89454.got - 2010.06.03 18:47:42.
