data_PCOD9295661
_publ_section_title
;
Structure prediction by ZEFSAII (Michael W. Deem and Ramdas Pophale) SiO2 
 PCOD9295661
Probable space group: C 2/C
;
_chemical_formula_sum "Si O2"
_cell_formula_units_Z 36
_cell_length_a 20.158001
_cell_length_b 16.533822
_cell_length_c 5.424316
_cell_angle_alpha 90.000000
_cell_angle_beta 125.506939
_cell_angle_gamma 90.000000
_cell_volume 1471.682798
_symmetry_space_group_name_H-M "C 2/C"
_symmetry_group_IT_number 15
_symmetry_cell_setting 'monoclinic'
loop_
_space_group_symop_operation_xyz
x,y,z
-x,y,1/2-z
-x,-y,-z
x,-y,1/2+z
1/2+x,1/2+y,z
1/2-x,1/2+y,1/2-z
1/2-x,1/2-y,-z
1/2+x,1/2-y,1/2+z
loop_
_atom_site_type_symbol
_atom_site_label
_atom_site_fract_x
_atom_site_fract_y
_atom_site_fract_z
Si Si1 0.096906 0.552305 0.735620
Si Si2 0.409401 0.471852 0.131314
Si Si3 0.373748 0.295885 0.200658
Si Si4 0.705895 0.193931 0.097495
Si Si5 0.500000 0.824778 0.750000
O O1 0.097110 0.497279 0.490371
O O2 0.023123 0.615102 0.522984
O O3 0.174377 0.610926 0.920157
O O4 0.500000 0.501357 0.250000
O O5 0.369732 0.522450 0.271207
O O6 0.416784 0.381169 0.251983
O O7 0.366608 0.246882 0.439505
O O8 0.422156 0.231579 0.136593
O O9 0.279367 0.320406 0.947939
O O10 0.750000 0.250000 0.000000
#
# Coordination Sequence:
#
# PCOD9295661 Si02
#       5
#     8   8   8   8   4
#     4  12  28  50  78 113 154 199 254 322 390 453
#     4  10  23  43  67 107 147 183 243 311 374 442
#     4  11  25  46  77 106 149 205 254 312 387 457
#     4  11  26  49  71 106 150 200 257 305 373 475
#     4  12  24  50  78 116 148 202 254 330 378 468
#
# _framework density 24.461791999999999
#
# number of rings (size 3 to 8) (size 9 to 14) (size 15 to 20)
#    0.000    0.889    3.333    2.000    6.222    4.444 
#    4.000    0.000    0.000    0.000    0.000    0.000 
#    0.000    0.000    0.000    0.000    0.000    0.000 
#
# Total GULP energy -100454.076795 kJ/mol
# GULP energy per Si atom -5580.782044 kJ/mol
# Density = 2.440612 g / cm^3
# Si number density = 24.461792 Si / 1000 Ang^3
#
#
#
# Elastic Constant Matrix: (Units=GPa)
#
#
# Indices 1 2 3 4 5 6 
#
# 1 103.0776 75.0689 53.9432 0.0000 -30.5546 0.0000
# 2 75.0689 183.6248 75.1113 0.0000 -15.2263 0.0000
# 3 53.9432 75.1113 118.4660 0.0000 -22.2633 0.0000
# 4 0.0000 0.0000 0.0000 46.6931 0.0000 7.1472
# 5 -30.5546 -15.2263 -22.2633 0.0000 47.3992 0.0000
# 6 0.0000 0.0000 0.0000 7.1472 0.0000 39.0653
#
#
#
# Elastic Compliance Matrix: (Units=1/GPa)
#
#
# Indices 1 2 3 4 5 6 
#
# 1 0.017575 -0.005214 -0.003161 0.000000 0.008169 0.000000
# 2 -0.005214 0.008901 -0.003689 0.000000 -0.002235 0.000000
# 3 -0.003161 -0.003689 0.012739 0.000000 0.002760 0.000000
# 4 0.000000 0.000000 0.000000 0.022033 0.000000 -0.004031
# 5 0.008169 -0.002235 0.002760 0.000000 0.026942 0.000000
# 6 0.000000 0.000000 0.000000 -0.004031 0.000000 0.026336
#
#
# Mechanical properties :
#
#
# Convention : Reuss Voigt Hill
#
# Bulk Modulus (GPa) = 66.29215 90.37947 78.33581
# Shear Modulus (GPa) = 34.79835 40.03452 37.41644
#
# Velocity S-wave (km/s) = 3.77577 4.04990 3.91524
# Velocity P-wave (km/s) = 6.79469 7.67439 7.24790
#
# Compressibility (1/GPa) = 0.01508474
#
# Stress axis : x y z
#
# Youngs Moduli (GPa) = 56.89923 112.34115 78.50082
#
# Poissons Ratio (x) = 0.58579 0.24817
# Poissons Ratio (y) = 0.29669 0.28962
# Poissons Ratio (z) = 0.17988 0.41448
#
# Static dielectric constant tensor:
#      x y z
#    x 1.981620 0.000000 0.010520 
#    y 0.000000 1.952900 0.000000 
#    z 0.010520 0.000000 2.264630 
# 
# From -- ./inp_files/15063.got.cif
#   From: 2010.05.17/outbox.cif.g08.bks.cpg/sg15_8_cif.got.tgz:15063.got - 2010.06.03 18:47:42.
