data_PCOD9295915
_publ_section_title
;
Structure prediction by ZEFSAII (Michael W. Deem and Ramdas Pophale) SiO2 
 PCOD9295915
Probable space group: C 2/C
;
_chemical_formula_sum "Si O2"
_cell_formula_units_Z 60
_cell_length_a 20.143438
_cell_length_b 9.109096
_cell_length_c 22.104737
_cell_angle_alpha 90.000000
_cell_angle_beta 139.990970
_cell_angle_gamma 90.000000
_cell_volume 2607.613868
_symmetry_space_group_name_H-M "C 2/C"
_symmetry_group_IT_number 15
_symmetry_cell_setting 'monoclinic'
loop_
_space_group_symop_operation_xyz
x,y,z
-x,y,1/2-z
-x,-y,-z
x,-y,1/2+z
1/2+x,1/2+y,z
1/2-x,1/2+y,1/2-z
1/2-x,1/2-y,-z
1/2+x,1/2-y,1/2+z
loop_
_atom_site_type_symbol
_atom_site_label
_atom_site_fract_x
_atom_site_fract_y
_atom_site_fract_z
Si Si1 0.308354 0.816100 0.483098
Si Si2 0.637713 0.521211 0.710022
Si Si3 0.371169 0.764202 0.966438
Si Si4 0.000000 0.717696 0.750000
Si Si5 0.928244 0.943637 0.006837
Si Si6 0.307606 0.833436 0.782048
Si Si7 0.324705 0.415820 0.637149
Si Si8 0.005427 0.469772 0.134562
O O1 0.250000 0.750000 0.500000
O O2 0.354820 0.696071 0.468191
O O3 0.214984 0.919348 0.395690
O O4 0.407110 0.918842 0.568950
O O5 0.521454 0.573109 0.619228
O O6 0.700049 0.674066 0.753526
O O7 0.699225 0.420341 0.704843
O O8 0.637349 0.416884 0.767396
O O9 0.346047 0.803312 0.878660
O O10 0.279215 0.826519 0.941982
O O11 0.367252 0.592232 0.974550
O O12 0.473631 0.847798 0.061354
O O13 0.912514 0.829043 0.664136
O O14 0.026785 0.612695 0.712463
O O15 0.000000 0.000000 0.000000
O O16 0.395037 0.936462 0.814611
#
# Coordination Sequence:
#
# PCOD9295915 Si02
#       8
#     8   8   8   4   8   8   8   8
#     4  11  27  47  72 106 141 189 241 302 359 430
#     4  11  25  42  68 103 144 178 232 300 364 430
#     4  10  23  43  72  98 139 178 236 288 361 432
#     4  12  28  44  74 100 138 206 240 286 354 432
#     4  12  24  43  73 106 137 185 235 292 363 435
#     4  11  24  43  69 106 139 184 232 302 377 418
#     4  10  27  46  67  98 140 188 234 291 356 424
#     4  11  25  46  70  99 143 184 247 286 354 440
#
# _framework density 23.009540000000001
#
# number of rings (size 3 to 8) (size 9 to 14) (size 15 to 20)
#    0.000    1.067    2.667    1.200   13.067    3.200 
#    0.000    0.000    0.000    0.000    0.000    0.000 
#    0.000    0.000    0.000    0.000    0.000    0.000 
#
# Total GULP energy -167258.221287 kJ/mol
# GULP energy per Si atom -5575.274043 kJ/mol
# Density = 2.295717 g / cm^3
# Si number density = 23.009540 Si / 1000 Ang^3
#
#
#
# Elastic Constant Matrix: (Units=GPa)
#
#
# Indices 1 2 3 4 5 6 
#
# 1 75.9010 47.0184 21.4543 0.0000 8.7573 0.0000
# 2 47.0184 152.8630 21.8610 0.0000 3.8083 0.0000
# 3 21.4543 21.8610 24.5308 0.0000 -3.3222 0.0000
# 4 0.0000 0.0000 0.0000 30.7031 0.0000 -1.5131
# 5 8.7573 3.8083 -3.3222 0.0000 20.7259 0.0000
# 6 0.0000 0.0000 0.0000 -1.5131 0.0000 10.0231
#
#
#
# Elastic Compliance Matrix: (Units=1/GPa)
#
#
# Indices 1 2 3 4 5 6 
#
# 1 0.021723 -0.003977 -0.016967 0.000000 -0.011168 0.000000
# 2 -0.003977 0.008355 -0.004035 0.000000 -0.000501 0.000000
# 3 -0.016967 -0.004035 0.061609 0.000000 0.017786 0.000000
# 4 0.000000 0.000000 0.000000 0.032814 0.000000 0.004953
# 5 -0.011168 -0.000501 0.017786 0.000000 0.055910 0.000000
# 6 0.000000 0.000000 0.000000 0.004953 0.000000 0.100517
#
#
# Mechanical properties :
#
#
# Convention : Reuss Voigt Hill
#
# Bulk Modulus (GPa) = 23.96448 48.21801 36.09124
# Shear Modulus (GPa) = 14.50136 23.15451 18.82794
#
# Velocity S-wave (km/s) = 2.51317 3.17567 2.86364
# Velocity P-wave (km/s) = 4.34269 5.86921 5.16268
#
# Compressibility (1/GPa) = 0.04172843
#
# Stress axis : x y z
#
# Youngs Moduli (GPa) = 46.03399 119.69432 16.23150
#
# Poissons Ratio (x) = 0.47603 0.27540
# Poissons Ratio (y) = 0.18308 0.06549
# Poissons Ratio (z) = 0.78105 0.48296
#
# Static dielectric constant tensor:
#      x y z
#    x 1.625500 0.000000 0.116290 
#    y 0.000000 1.975920 0.000000 
#    z 0.116290 0.000000 1.897280 
# 
# From -- ./inp_files/279711.got.cif
#   From: 2010.05.17/outbox.cif.g08.bks.cpg/sg15_140_cif.got.tgz:279711.got - 2010.06.03 18:47:42.
