data_PCOD9295966
_publ_section_title
;
Structure prediction by ZEFSAII (Michael W. Deem and Ramdas Pophale) SiO2 
 PCOD9295966
Probable space group: C 2/C
;
_chemical_formula_sum "Si O2"
_cell_formula_units_Z 48
_cell_length_a 15.713686
_cell_length_b 13.914044
_cell_length_c 9.696388
_cell_angle_alpha 90.000000
_cell_angle_beta 61.410706
_cell_angle_gamma 90.000000
_cell_volume 1861.537365
_symmetry_space_group_name_H-M "C 2/C"
_symmetry_group_IT_number 15
_symmetry_cell_setting 'monoclinic'
loop_
_space_group_symop_operation_xyz
x,y,z
-x,y,1/2-z
-x,-y,-z
x,-y,1/2+z
1/2+x,1/2+y,z
1/2-x,1/2+y,1/2-z
1/2-x,1/2-y,-z
1/2+x,1/2-y,1/2+z
loop_
_atom_site_type_symbol
_atom_site_label
_atom_site_fract_x
_atom_site_fract_y
_atom_site_fract_z
Si Si1 0.679192 0.815529 0.255066
Si Si2 0.606345 0.330757 0.354185
Si Si3 0.000000 0.679086 0.250000
Si Si4 0.121950 0.476088 0.504117
Si Si5 0.902794 0.882026 0.623358
Si Si6 0.500000 0.875783 0.250000
Si Si7 0.335332 0.507253 0.912516
O O1 0.794035 0.811526 0.141554
O O2 0.656663 0.920609 0.339949
O O3 0.653253 0.718614 0.361047
O O4 0.593403 0.812432 0.210486
O O5 0.556859 0.239739 0.319574
O O6 0.516303 0.371092 0.508934
O O7 0.635866 0.400657 0.204605
O O8 0.080360 0.611846 0.122349
O O9 0.039863 0.557492 0.591890
O O10 0.221217 0.513297 0.492778
O O11 0.863583 0.960278 0.543516
O O12 0.116872 0.920682 0.708808
#
# Coordination Sequence:
#
# PCOD9295966 Si02
#       7
#     8   8   4   8   8   4   8
#     4  11  25  48  74 109 148 198 254 317 379 457
#     4  11  22  43  74 110 149 193 254 310 384 450
#     4  11  18  42  77 110 146 186 257 316 368 455
#     4  10  23  43  79 105 145 198 254 313 382 446
#     4  12  25  49  75 112 159 202 254 310 380 456
#     4  11  26  48  73 110 148 194 257 326 386 431
#     4  11  25  44  75 112 154 204 253 309 379 460
#
# _framework density 25.785138
#
# number of rings (size 3 to 8) (size 9 to 14) (size 15 to 20)
#    0.000    1.000    3.333    2.000    4.667    4.000 
#    9.000    1.667    0.000    0.000    0.000    0.000 
#    0.000    0.000    0.000    0.000    0.000    0.000 
#
# Total GULP energy -134303.468683 kJ/mol
# GULP energy per Si atom -5595.977862 kJ/mol
# Density = 2.572645 g / cm^3
# Si number density = 25.785138 Si / 1000 Ang^3
#
#
#
# Elastic Constant Matrix: (Units=GPa)
#
#
# Indices 1 2 3 4 5 6 
#
# 1 205.2424 37.8219 48.0163 0.0000 -41.6987 0.0000
# 2 37.8219 74.5454 22.5827 0.0000 -6.8499 0.0000
# 3 48.0163 22.5827 94.3252 0.0000 -19.6703 0.0000
# 4 0.0000 0.0000 0.0000 7.0032 0.0000 -9.3493
# 5 -41.6987 -6.8499 -19.6703 0.0000 52.3752 0.0000
# 6 0.0000 0.0000 0.0000 -9.3493 0.0000 24.5148
#
#
#
# Elastic Compliance Matrix: (Units=1/GPa)
#
#
# Indices 1 2 3 4 5 6 
#
# 1 0.006622 -0.002390 -0.001914 0.000000 0.004241 0.000000
# 2 -0.002390 0.015346 -0.002643 0.000000 -0.000888 0.000000
# 3 -0.001914 -0.002643 0.012823 0.000000 0.002946 0.000000
# 4 0.000000 0.000000 0.000000 0.290901 0.000000 0.110942
# 5 0.004241 -0.000888 0.002946 0.000000 0.023460 0.000000
# 6 0.000000 0.000000 0.000000 0.110942 0.000000 0.083102
#
#
# Mechanical properties :
#
#
# Convention : Reuss Voigt Hill
#
# Bulk Modulus (GPa) = 47.85349 65.66164 56.75757
# Shear Modulus (GPa) = 11.03473 34.49144 22.76308
#
# Velocity S-wave (km/s) = 2.07094 3.66135 2.97442
# Velocity P-wave (km/s) = 4.93125 6.58743 5.81857
#
# Compressibility (1/GPa) = 0.02089712
#
# Stress axis : x y z
#
# Youngs Moduli (GPa) = 151.00679 65.16232 77.98348
#
# Poissons Ratio (x) = 0.15576 0.14929
# Poissons Ratio (y) = 0.36095 0.20608
# Poissons Ratio (z) = 0.28909 0.17220
#
# Static dielectric constant tensor:
#      x y z
#    x 2.056240 0.000000 0.085830 
#    y 0.000000 2.050050 0.000000 
#    z 0.085830 0.000000 2.070360 
# 
# From -- ./inp_files/96254.got.cif
#   From: 2010.05.17/outbox.cif.g08.bks.cpg/sg15_49_cif.got.tgz:96254.got - 2010.06.03 18:47:42.
