data_PCOD9295738
_publ_section_title
;
Structure prediction by ZEFSAII (Michael W. Deem and Ramdas Pophale) SiO2 
 PCOD9295738
Probable space group: C 2/C
;
_chemical_formula_sum "Si O2"
_cell_formula_units_Z 56
_cell_length_a 15.803289
_cell_length_b 8.200436
_cell_length_c 19.121932
_cell_angle_alpha 90.000000
_cell_angle_beta 92.408192
_cell_angle_gamma 90.000000
_cell_volume 2475.896415
_symmetry_space_group_name_H-M "C 2/C"
_symmetry_group_IT_number 15
_symmetry_cell_setting 'monoclinic'
loop_
_space_group_symop_operation_xyz
x,y,z
-x,y,1/2-z
-x,-y,-z
x,-y,1/2+z
1/2+x,1/2+y,z
1/2-x,1/2+y,1/2-z
1/2-x,1/2-y,-z
1/2+x,1/2-y,1/2+z
loop_
_atom_site_type_symbol
_atom_site_label
_atom_site_fract_x
_atom_site_fract_y
_atom_site_fract_z
Si Si1 0.924743 0.690838 0.196142
Si Si2 0.756982 0.089105 0.309360
Si Si3 0.030568 0.653828 0.456412
Si Si4 0.823259 0.840756 0.959722
Si Si5 0.648767 0.730367 0.539355
Si Si6 0.190672 0.278575 0.388774
Si Si7 0.584716 0.567129 0.289130
O O1 0.829162 0.670735 0.221757
O O2 0.929165 0.616189 0.118133
O O3 0.000000 0.631287 0.250000
O O4 0.936561 0.884573 0.188083
O O5 0.797914 0.181049 0.377584
O O6 0.833699 0.065711 0.258872
O O7 0.719153 0.920614 0.338138
O O8 0.091836 0.759618 0.507656
O O9 0.000000 0.500000 0.500000
O O10 0.944980 0.752396 0.436270
O O11 0.830808 0.037376 0.969397
O O12 0.750000 0.750000 0.000000
O O13 0.719169 0.807926 0.592445
O O14 0.659942 0.820468 0.465772
O O15 0.116437 0.173117 0.354371
O O16 0.500000 0.634330 0.250000
#
# Coordination Sequence:
#
# PCOD9295738 Si02
#       7
#     8   8   8   8   8   8   8
#     4  11  26  46  70 102 144 183 231 285 358 424
#     4  11  24  45  67  98 137 182 228 287 344 420
#     4  12  26  44  73 107 140 181 238 293 352 422
#     4  11  24  44  68 100 138 179 233 286 347 410
#     4  10  24  41  74  96 136 179 227 288 347 411
#     4  10  23  43  68  97 130 173 233 277 345 406
#     4  11  26  42  68  98 137 182 232 280 350 422
#
# _framework density 22.618072000000002
#
# number of rings (size 3 to 8) (size 9 to 14) (size 15 to 20)
#    0.000    1.143    1.429    3.000   16.000    0.571 
#    2.571    0.000    0.000    0.000    0.000    0.000 
#    0.000    0.000    0.000    0.000    0.000    0.000 
#
# Total GULP energy -156448.472601 kJ/mol
# GULP energy per Si atom -5587.445450 kJ/mol
# Density = 2.256659 g / cm^3
# Si number density = 22.618072 Si / 1000 Ang^3
#
#
#
# Elastic Constant Matrix: (Units=GPa)
#
#
# Indices 1 2 3 4 5 6 
#
# 1 170.1821 21.5602 31.0458 0.0000 22.2442 0.0000
# 2 21.5602 48.1516 16.1180 0.0000 11.2712 0.0000
# 3 31.0458 16.1180 76.9796 0.0000 16.8441 0.0000
# 4 0.0000 0.0000 0.0000 29.5336 0.0000 -0.7039
# 5 22.2442 11.2712 16.8441 0.0000 53.6414 0.0000
# 6 0.0000 0.0000 0.0000 -0.7039 0.0000 36.2810
#
#
#
# Elastic Compliance Matrix: (Units=1/GPa)
#
#
# Indices 1 2 3 4 5 6 
#
# 1 0.006702 -0.001948 -0.001908 0.000000 -0.001771 0.000000
# 2 -0.001948 0.023514 -0.003472 0.000000 -0.003043 0.000000
# 3 -0.001908 -0.003472 0.015198 0.000000 -0.003252 0.000000
# 4 0.000000 0.000000 0.000000 0.033875 0.000000 0.000657
# 5 -0.001771 -0.003043 -0.003252 0.000000 0.021037 0.000000
# 6 0.000000 0.000000 0.000000 0.000657 0.000000 0.027575
#
#
# Mechanical properties :
#
#
# Convention : Reuss Voigt Hill
#
# Bulk Modulus (GPa) = 32.50995 48.08462 40.29728
# Shear Modulus (GPa) = 32.72003 38.99715 35.85859
#
# Velocity S-wave (km/s) = 3.80759 4.15680 3.98602
# Velocity P-wave (km/s) = 5.80818 6.65915 6.24817
#
# Compressibility (1/GPa) = 0.03075982
#
# Stress axis : x y z
#
# Youngs Moduli (GPa) = 149.20176 42.52712 65.79670
#
# Poissons Ratio (x) = 0.08284 0.12552
# Poissons Ratio (y) = 0.29063 0.22845
# Poissons Ratio (z) = 0.28463 0.14766
#
# Static dielectric constant tensor:
#      x y z
#    x 1.887490 0.000000 0.034340 
#    y 0.000000 1.859690 0.000000 
#    z 0.034340 0.000000 1.875460 
# 
# From -- ./inp_files/242810.got.cif
#   From: 2010.05.17/outbox.cif.g08.bks.cpg/sg15_122_cif.got.tgz:242810.got - 2010.06.03 18:47:42.
