data_PCOD9295615
_publ_section_title
;
Structure prediction by ZEFSAII (Michael W. Deem and Ramdas Pophale) SiO2 
 PCOD9295615
Probable space group: C 2/C
;
_chemical_formula_sum "Si O2"
_cell_formula_units_Z 44
_cell_length_a 17.692002
_cell_length_b 17.428117
_cell_length_c 14.181798
_cell_angle_alpha 90.000000
_cell_angle_beta 29.806845
_cell_angle_gamma 90.000000
_cell_volume 2173.616682
_symmetry_space_group_name_H-M "C 2/C"
_symmetry_group_IT_number 15
_symmetry_cell_setting 'monoclinic'
loop_
_space_group_symop_operation_xyz
x,y,z
-x,y,1/2-z
-x,-y,-z
x,-y,1/2+z
1/2+x,1/2+y,z
1/2-x,1/2+y,1/2-z
1/2-x,1/2-y,-z
1/2+x,1/2-y,1/2+z
loop_
_atom_site_type_symbol
_atom_site_label
_atom_site_fract_x
_atom_site_fract_y
_atom_site_fract_z
Si Si1 0.283818 0.836265 0.260006
Si Si2 0.000000 0.437375 0.250000
Si Si3 0.856409 0.499043 0.726147
Si Si4 0.932635 0.707124 0.920249
Si Si5 0.868182 0.811956 0.268014
Si Si6 0.205472 0.845770 0.942228
O O1 0.257094 0.924269 0.319244
O O2 0.447531 0.815045 0.127584
O O3 0.243811 0.839097 0.193189
O O4 0.181409 0.768406 0.414236
O O5 0.079686 0.489842 0.238683
O O6 0.887847 0.376868 0.425991
O O7 0.767730 0.419735 0.821813
O O8 0.000000 0.500000 0.500000
O O9 0.000000 0.743002 0.750000
O O10 0.832846 0.854188 0.405039
O O11 0.829253 0.721817 0.313261
O O12 0.049113 0.821023 0.059671
#
# Coordination Sequence:
#
# PCOD9295615 Si02
#       6
#     8   4   8   8   8   8
#     4  11  22  41  66  95 124 169 212 260 321 374
#     4   8  22  40  60  90 128 168 210 256 328 374
#     4  11  26  41  63  97 132 173 209 272 328 384
#     4   9  20  39  64  94 124 164 214 254 312 386
#     4  10  23  43  66  94 125 172 218 269 310 398
#     4  10  24  43  65  94 131 167 220 263 331 374
#
# _framework density 20.242760000000001
#
# number of rings (size 3 to 8) (size 9 to 14) (size 15 to 20)
#    0.545    1.455    0.000    1.636   10.182    2.182 
#    3.273    0.000    0.000    0.000    0.000    0.000 
#    0.000    0.000    0.000    0.000    0.000    0.000 
#
# Total GULP energy -122499.491351 kJ/mol
# GULP energy per Si atom -5568.158698 kJ/mol
# Density = 2.019669 g / cm^3
# Si number density = 20.242760 Si / 1000 Ang^3
#
#
#
# Elastic Constant Matrix: (Units=GPa)
#
#
# Indices 1 2 3 4 5 6 
#
# 1 129.0638 13.2886 28.2293 -0.0019 0.7037 0.0011
# 2 13.2886 87.4151 52.1491 -0.0016 -16.7149 0.0009
# 3 28.2293 52.1491 69.9246 -0.0023 -12.7575 0.0016
# 4 -0.0019 -0.0016 -0.0023 25.1563 0.0012 6.6972
# 5 0.7037 -16.7149 -12.7575 0.0012 12.8611 -0.0008
# 6 0.0011 0.0009 0.0016 6.6972 -0.0008 9.8717
#
#
#
# Elastic Compliance Matrix: (Units=1/GPa)
#
#
# Indices 1 2 3 4 5 6 
#
# 1 0.008765 0.000756 -0.004897 0.000001 -0.004354 -0.000001
# 2 0.000756 0.023001 -0.014667 -0.000001 0.015302 0.000002
# 3 -0.004897 -0.014667 0.029044 0.000002 0.010016 -0.000003
# 4 0.000001 -0.000001 0.000002 0.048514 -0.000006 -0.032913
# 5 -0.004354 0.015302 0.010016 -0.000006 0.107815 0.000010
# 6 -0.000001 0.000002 -0.000003 -0.032913 0.000010 0.123628
#
#
# Mechanical properties :
#
#
# Convention : Reuss Voigt Hill
#
# Bulk Modulus (GPa) = 43.11418 52.63750 47.87584
# Shear Modulus (GPa) = 12.94955 22.42693 17.68824
#
# Velocity S-wave (km/s) = 2.53200 3.33212 2.95923
# Velocity P-wave (km/s) = 5.46743 6.39247 5.94796
#
# Compressibility (1/GPa) = 0.02319423
#
# Stress axis : x y z
#
# Youngs Moduli (GPa) = 114.08923 43.47702 34.43039
#
# Poissons Ratio (x) = -0.03289 0.16861
# Poissons Ratio (y) = -0.08630 0.50500
# Poissons Ratio (z) = 0.55870 0.63768
#
# Static dielectric constant tensor:
#      x y z
#    x 1.743410 0.000000 0.028830 
#    y 0.000000 1.720580 0.000000 
#    z 0.028830 0.000000 1.783860 
# 
# From -- ./inp_files/47419.got.cif
#   From: 2010.05.17/outbox.cif.g08.bks.cpg/sg15_24_cif.got.tgz:47419.got - 2010.06.03 18:47:42.
