data_PCOD9295142
_publ_section_title
;
Structure prediction by ZEFSAII (Michael W. Deem and Ramdas Pophale) SiO2 
 PCOD9295142
Probable space group: C 2/C
;
_chemical_formula_sum "Si O2"
_cell_formula_units_Z 24
_cell_length_a 7.161657
_cell_length_b 7.493539
_cell_length_c 17.648300
_cell_angle_alpha 90.000000
_cell_angle_beta 113.088701
_cell_angle_gamma 90.000000
_cell_volume 871.251307
_symmetry_space_group_name_H-M "C 2/C"
_symmetry_group_IT_number 15
_symmetry_cell_setting 'monoclinic'
loop_
_space_group_symop_operation_xyz
x,y,z
-x,y,1/2-z
-x,-y,-z
x,-y,1/2+z
1/2+x,1/2+y,z
1/2-x,1/2+y,1/2-z
1/2-x,1/2-y,-z
1/2+x,1/2-y,1/2+z
loop_
_atom_site_type_symbol
_atom_site_label
_atom_site_fract_x
_atom_site_fract_y
_atom_site_fract_z
Si Si1 0.456702 0.749770 0.329456
Si Si2 0.141391 0.486003 0.950448
Si Si3 0.589851 0.366951 0.377871
O O1 0.500000 0.796275 0.250000
O O2 0.451766 0.535026 0.335225
O O3 0.265973 0.841637 0.341518
O O4 0.646950 0.828283 0.407546
O O5 0.036198 0.340320 0.878802
O O6 0.341057 0.415321 0.024407
O O7 0.000000 0.500000 0.000000
#
# Coordination Sequence:
#
# PCOD9295142 Si02
#       3
#     8   8   8
#     4  11  25  40  64  96 134 175 217 276 340 399
#     4   9  21  42  68  94 127 172 224 274 329 399
#     4  10  23  42  65  95 129 172 225 274 331 401
#
# _framework density 27.546583999999999
#
# number of rings (size 3 to 8) (size 9 to 14) (size 15 to 20)
#    0.000    2.000    0.000    1.000    4.667   18.667 
#    0.000    0.000    0.000    0.000    0.000    0.000 
#    0.000    0.000    0.000    0.000    0.000    0.000 
#
# Total GULP energy -67044.214080 kJ/mol
# GULP energy per Si atom -5587.017840 kJ/mol
# Density = 2.748389 g / cm^3
# Si number density = 27.546584 Si / 1000 Ang^3
#
#
#
# Elastic Constant Matrix: (Units=GPa)
#
#
# Indices 1 2 3 4 5 6 
#
# 1 65.8242 47.0456 26.7130 0.0000 -30.5371 0.0000
# 2 47.0456 131.3460 60.4657 0.0000 -17.1917 0.0000
# 3 26.7130 60.4657 163.6749 0.0000 -28.6852 0.0000
# 4 0.0000 0.0000 0.0000 51.7369 0.0000 -10.8895
# 5 -30.5371 -17.1917 -28.6852 0.0000 34.8646 0.0000
# 6 0.0000 0.0000 0.0000 -10.8895 0.0000 52.2936
#
#
#
# Elastic Compliance Matrix: (Units=1/GPa)
#
#
# Indices 1 2 3 4 5 6 
#
# 1 0.033495 -0.009798 0.002860 0.000000 0.026859 0.000000
# 2 -0.009798 0.012164 -0.003912 0.000000 -0.005802 0.000000
# 3 0.002860 -0.003912 0.008400 0.000000 0.007488 0.000000
# 4 0.000000 0.000000 0.000000 0.020215 0.000000 0.004209
# 5 0.026859 -0.005802 0.007488 0.000000 0.055507 0.000000
# 6 0.000000 0.000000 0.000000 0.004209 0.000000 0.019999
#
#
# Mechanical properties :
#
#
# Convention : Reuss Voigt Hill
#
# Bulk Modulus (GPa) = 30.90222 69.92152 50.41187
# Shear Modulus (GPa) = 27.43246 42.88709 35.15978
#
# Velocity S-wave (km/s) = 3.15914 3.95003 3.57652
# Velocity P-wave (km/s) = 4.95474 6.80013 5.94942
#
# Compressibility (1/GPa) = 0.03236013
#
# Stress axis : x y z
#
# Youngs Moduli (GPa) = 29.85556 82.20769 119.04536
#
# Poissons Ratio (x) = 0.80550 -0.34052
# Poissons Ratio (y) = 0.29254 0.46565
# Poissons Ratio (z) = -0.08540 0.32156
#
# Static dielectric constant tensor:
#      x y z
#    x 2.397300 0.000000 0.210240 
#    y 0.000000 2.162410 0.000000 
#    z 0.210240 0.000000 2.177180 
# 
# From -- ./inp_files/131194.got.cif
#   From: 2010.05.17/outbox.cif.g08.bks.cpg/sg15_66_cif.got.tgz:131194.got - 2010.06.03 18:47:42.
