data_PCOD9295864
_publ_section_title
;
Structure prediction by ZEFSAII (Michael W. Deem and Ramdas Pophale) SiO2 
 PCOD9295864
Probable space group: C 2/C
;
_chemical_formula_sum "Si O2"
_cell_formula_units_Z 36
_cell_length_a 24.127384
_cell_length_b 12.394465
_cell_length_c 10.300667
_cell_angle_alpha 90.000000
_cell_angle_beta 28.207803
_cell_angle_gamma 90.000000
_cell_volume 1456.002524
_symmetry_space_group_name_H-M "C 2/C"
_symmetry_group_IT_number 15
_symmetry_cell_setting 'monoclinic'
loop_
_space_group_symop_operation_xyz
x,y,z
-x,y,1/2-z
-x,-y,-z
x,-y,1/2+z
1/2+x,1/2+y,z
1/2-x,1/2+y,1/2-z
1/2-x,1/2-y,-z
1/2+x,1/2-y,1/2+z
loop_
_atom_site_type_symbol
_atom_site_label
_atom_site_fract_x
_atom_site_fract_y
_atom_site_fract_z
Si Si1 0.072867 0.214572 0.723215
Si Si2 0.357320 0.696907 0.349050
Si Si3 0.325540 0.463440 0.316286
Si Si4 0.000000 0.132423 0.250000
Si Si5 0.423371 0.035671 0.284402
O O1 0.168890 0.137243 0.592797
O O2 0.105622 0.337300 0.625032
O O3 0.000000 0.169228 0.750000
O O4 0.972783 0.232257 0.036285
O O5 0.250000 0.750000 0.500000
O O6 0.346032 0.568978 0.358902
O O7 0.394201 0.710828 0.420545
O O8 0.209164 0.497095 0.477149
O O9 0.430854 0.439023 0.998779
O O10 0.500000 0.997873 0.250000
O O11 0.500000 0.000000 0.000000
#
# Coordination Sequence:
#
# PCOD9295864 Si02
#       5
#     8   8   8   4   8
#     4  10  23  43  71 102 135 185 237 289 359 423
#     4  11  25  43  69 103 139 175 235 293 352 420
#     4  11  25  44  73 101 142 182 242 291 355 433
#     4  10  24  44  68 102 138 188 230 290 356 422
#     4  11  26  47  70 105 148 190 239 296 367 426
#
# _framework density 24.725231999999998
#
# number of rings (size 3 to 8) (size 9 to 14) (size 15 to 20)
#    0.000    1.333    0.000    4.667   15.556    0.000 
#   18.000    0.000    0.000    0.000    0.000    0.000 
#    0.000    0.000    0.000    0.000    0.000    0.000 
#
# Total GULP energy -100316.286171 kJ/mol
# GULP energy per Si atom -5573.127009 kJ/mol
# Density = 2.466896 g / cm^3
# Si number density = 24.725232 Si / 1000 Ang^3
#
#
#
# Elastic Constant Matrix: (Units=GPa)
#
#
# Indices 1 2 3 4 5 6 
#
# 1 166.4393 42.8628 44.5583 0.0000 -37.0378 0.0000
# 2 42.8628 31.8318 5.5285 0.0000 -8.3949 0.0000
# 3 44.5583 5.5285 84.7676 0.0000 -39.5403 0.0000
# 4 0.0000 0.0000 0.0000 31.6163 0.0000 -4.9869
# 5 -37.0378 -8.3949 -39.5403 0.0000 51.2957 0.0000
# 6 0.0000 0.0000 0.0000 -4.9869 0.0000 6.4286
#
#
#
# Elastic Compliance Matrix: (Units=1/GPa)
#
#
# Indices 1 2 3 4 5 6 
#
# 1 0.011134 -0.013562 -0.003519 0.000000 0.003108 0.000000
# 2 -0.013562 0.049369 0.004856 0.000000 0.002030 0.000000
# 3 -0.003519 0.004856 0.019542 0.000000 0.013318 0.000000
# 4 0.000000 0.000000 0.000000 0.036039 0.000000 0.027957
# 5 0.003108 0.002030 0.013318 0.000000 0.032337 0.000000
# 6 0.000000 0.000000 0.000000 0.027957 0.000000 0.177241
#
#
# Mechanical properties :
#
#
# Convention : Reuss Voigt Hill
#
# Bulk Modulus (GPa) = 17.98680 52.10421 35.04550
# Shear Modulus (GPa) = 13.56322 30.54073 22.05197
#
# Velocity S-wave (km/s) = 2.34467 3.51836 2.98968
# Velocity P-wave (km/s) = 3.82367 6.13386 5.11100
#
# Compressibility (1/GPa) = 0.05559633
#
# Stress axis : x y z
#
# Youngs Moduli (GPa) = 89.81154 20.25553 51.17195
#
# Poissons Ratio (x) = 0.27471 0.18006
# Poissons Ratio (y) = 1.21805 -0.24851
# Poissons Ratio (z) = 0.31602 -0.09837
#
# Static dielectric constant tensor:
#      x y z
#    x 2.283600 0.000000 -0.047940 
#    y 0.000000 2.049980 0.000000 
#    z -0.047940 0.000000 1.962950 
# 
# From -- ./inp_files/84451.got.cif
#   From: 2010.05.17/outbox.cif.g08.bks.cpg/sg15_43_cif.got.tgz:84451.got - 2010.06.03 18:47:42.
