data_PCOD9295659
_publ_section_title
;
Structure prediction by ZEFSAII (Michael W. Deem and Ramdas Pophale) SiO2 
 PCOD9295659
Probable space group: C 2/C
;
_chemical_formula_sum "Si O2"
_cell_formula_units_Z 36
_cell_length_a 5.271910
_cell_length_b 25.648728
_cell_length_c 12.124728
_cell_angle_alpha 90.000000
_cell_angle_beta 67.903331
_cell_angle_gamma 90.000000
_cell_volume 1519.059971
_symmetry_space_group_name_H-M "C 2/C"
_symmetry_group_IT_number 15
_symmetry_cell_setting 'monoclinic'
loop_
_space_group_symop_operation_xyz
x,y,z
-x,y,1/2-z
-x,-y,-z
x,-y,1/2+z
1/2+x,1/2+y,z
1/2-x,1/2+y,1/2-z
1/2-x,1/2-y,-z
1/2+x,1/2-y,1/2+z
loop_
_atom_site_type_symbol
_atom_site_label
_atom_site_fract_x
_atom_site_fract_y
_atom_site_fract_z
Si Si1 0.684642 0.325931 0.820418
Si Si2 0.000000 0.442431 0.250000
Si Si3 0.554803 0.227791 0.936275
Si Si4 0.279627 0.119554 0.975469
Si Si5 0.680970 0.956432 0.825267
O O1 0.500000 0.343927 0.750000
O O2 0.670716 0.262745 0.819469
O O3 0.857009 0.422716 0.557863
O O4 0.000000 0.336986 0.750000
O O5 0.789717 0.407087 0.353665
O O6 0.884646 0.481643 0.174278
O O7 0.504132 0.166402 0.939588
O O8 0.750000 0.250000 0.000000
O O9 0.516531 0.354086 0.947055
O O10 0.250000 0.250000 0.000000
O O11 0.500000 0.938067 0.750000
O O12 0.000000 0.953423 0.750000
#
# Coordination Sequence:
#
# PCOD9295659 Si02
#       5
#     8   4   8   8   8
#     4  11  24  45  73 108 150 190 244 301 360 451
#     4  10  26  52  72 112 156 196 252 326 366 456
#     4  10  23  43  67 105 145 185 239 297 353 443
#     4  11  24  47  81 109 153 203 251 301 394 441
#     4  10  25  48  74 108 143 197 254 319 373 437
#
# _framework density 23.698865000000001
#
# number of rings (size 3 to 8) (size 9 to 14) (size 15 to 20)
#    0.667    0.889    0.000    4.000    1.556    9.778 
#   12.000    0.000    0.000    0.000    0.000    0.000 
#    0.000    0.000    0.000    0.000    0.000    0.000 
#
# Total GULP energy -100226.930563 kJ/mol
# GULP energy per Si atom -5568.162809 kJ/mol
# Density = 2.364493 g / cm^3
# Si number density = 23.698865 Si / 1000 Ang^3
#
#
#
# Elastic Constant Matrix: (Units=GPa)
#
#
# Indices 1 2 3 4 5 6 
#
# 1 160.1119 38.6593 40.8314 0.0000 -21.6990 0.0000
# 2 38.6593 173.1196 87.6144 0.0000 -14.6228 0.0000
# 3 40.8314 87.6144 119.2375 0.0000 -17.2377 0.0000
# 4 0.0000 0.0000 0.0000 70.8443 0.0000 -13.5892
# 5 -21.6990 -14.6228 -17.2377 0.0000 35.5653 0.0000
# 6 0.0000 0.0000 0.0000 -13.5892 0.0000 31.3931
#
#
#
# Elastic Compliance Matrix: (Units=1/GPa)
#
#
# Indices 1 2 3 4 5 6 
#
# 1 0.007244 -0.000515 -0.001607 0.000000 0.003430 0.000000
# 2 -0.000515 0.009243 -0.006571 0.000000 0.000301 0.000000
# 3 -0.001607 -0.006571 0.014230 0.000000 0.003215 0.000000
# 4 0.000000 0.000000 0.000000 0.015394 0.000000 0.006663
# 5 0.003430 0.000301 0.003215 0.000000 0.031892 0.000000
# 6 0.000000 0.000000 0.000000 0.006663 0.000000 0.034739
#
#
# Mechanical properties :
#
#
# Convention : Reuss Voigt Hill
#
# Bulk Modulus (GPa) = 75.01237 87.40879 81.21058
# Shear Modulus (GPa) = 37.15514 46.58478 41.86996
#
# Velocity S-wave (km/s) = 3.96384 4.43843 4.20783
# Velocity P-wave (km/s) = 7.25744 7.95169 7.61248
#
# Compressibility (1/GPa) = 0.01333114
#
# Stress axis : x y z
#
# Youngs Moduli (GPa) = 138.03630 108.19538 70.27310
#
# Poissons Ratio (x) = 0.05572 0.11290
# Poissons Ratio (y) = 0.07109 0.46180
# Poissons Ratio (z) = 0.22176 0.71100
#
# Static dielectric constant tensor:
#      x y z
#    x 1.821110 0.000000 0.072100 
#    y 0.000000 2.098360 0.000000 
#    z 0.072100 0.000000 1.961650 
# 
# From -- ./inp_files/128980.got.cif
#   From: 2010.05.17/outbox.cif.g08.bks.cpg/sg15_65_cif.got.tgz:128980.got - 2010.06.03 18:47:42.
