data_PCOD9295923
_publ_section_title
;
Structure prediction by ZEFSAII (Michael W. Deem and Ramdas Pophale) SiO2 
 PCOD9295923
Probable space group: C 2/C
;
_chemical_formula_sum "Si O2"
_cell_formula_units_Z 36
_cell_length_a 25.094733
_cell_length_b 16.105208
_cell_length_c 10.456345
_cell_angle_alpha 90.000000
_cell_angle_beta 158.772649
_cell_angle_gamma 90.000000
_cell_volume 1530.103712
_symmetry_space_group_name_H-M "C 2/C"
_symmetry_group_IT_number 15
_symmetry_cell_setting 'monoclinic'
loop_
_space_group_symop_operation_xyz
x,y,z
-x,y,1/2-z
-x,-y,-z
x,-y,1/2+z
1/2+x,1/2+y,z
1/2-x,1/2+y,1/2-z
1/2-x,1/2-y,-z
1/2+x,1/2-y,1/2+z
loop_
_atom_site_type_symbol
_atom_site_label
_atom_site_fract_x
_atom_site_fract_y
_atom_site_fract_z
Si Si1 0.960383 0.938803 0.297846
Si Si2 0.500000 0.274193 0.750000
Si Si3 0.000000 0.213433 0.750000
Si Si4 0.500000 0.992064 0.750000
Si Si5 0.724038 0.855023 0.177416
Si Si6 0.660678 0.876415 0.740846
O O1 0.043752 0.850564 0.461254
O O2 0.000000 0.980958 0.250000
O O3 0.793196 0.907641 0.946437
O O4 0.000000 0.000000 0.500000
O O5 0.390020 0.332344 0.582657
O O6 0.403730 0.211854 0.447735
O O7 0.870392 0.273589 0.501503
O O8 0.359595 0.931992 0.446494
O O9 0.468844 0.055605 0.564599
O O10 0.716781 0.871662 0.009841
#
# Coordination Sequence:
#
# PCOD9295923 Si02
#       6
#     8   4   4   4   8   8
#     4  10  23  43  73 107 152 189 245 304 367 440
#     4  11  22  41  75  97 138 190 242 301 360 434
#     4   9  22  45  67 105 148 182 248 303 356 436
#     4  10  26  46  68 104 144 186 242 306 372 438
#     4  11  23  46  72 103 141 191 245 301 367 438
#     4  11  24  45  72 100 147 193 243 298 375 438
#
# _framework density 23.527818
#
# number of rings (size 3 to 8) (size 9 to 14) (size 15 to 20)
#    0.667    0.889    2.222    1.333    3.111    1.778 
#    4.000    2.222    0.000    0.000    0.000    0.000 
#    0.000    0.000    0.000    0.000    0.000    0.000 
#
# Total GULP energy -100554.926224 kJ/mol
# GULP energy per Si atom -5586.384790 kJ/mol
# Density = 2.347427 g / cm^3
# Si number density = 23.527818 Si / 1000 Ang^3
#
#
#
# Elastic Constant Matrix: (Units=GPa)
#
#
# Indices 1 2 3 4 5 6 
#
# 1 110.3705 52.9066 36.9965 0.0000 6.9441 0.0000
# 2 52.9066 176.2359 49.8958 0.0000 8.6614 0.0000
# 3 36.9965 49.8958 73.5010 0.0000 17.8725 0.0000
# 4 0.0000 0.0000 0.0000 23.5657 0.0000 -14.9637
# 5 6.9441 8.6614 17.8725 0.0000 39.7808 0.0000
# 6 0.0000 0.0000 0.0000 -14.9637 0.0000 22.3971
#
#
#
# Elastic Compliance Matrix: (Units=1/GPa)
#
#
# Indices 1 2 3 4 5 6 
#
# 1 0.011592 -0.002252 -0.004415 0.000000 0.000451 0.000000
# 2 -0.002252 0.007479 -0.004090 0.000000 0.000602 0.000000
# 3 -0.004415 -0.004090 0.020432 0.000000 -0.007518 0.000000
# 4 0.000000 0.000000 0.000000 0.073701 0.000000 0.049241
# 5 0.000451 0.000602 -0.007518 0.000000 0.028306 0.000000
# 6 0.000000 0.000000 0.000000 0.049241 0.000000 0.077547
#
#
# Mechanical properties :
#
#
# Convention : Reuss Voigt Hill
#
# Bulk Modulus (GPa) = 55.59204 71.07837 63.33520
# Shear Modulus (GPa) = 20.27852 31.83595 26.05723
#
# Velocity S-wave (km/s) = 2.93899 3.68247 3.33153
# Velocity P-wave (km/s) = 5.93266 6.95390 6.46348
#
# Compressibility (1/GPa) = 0.01798819
#
# Stress axis : x y z
#
# Youngs Moduli (GPa) = 86.26972 133.71640 48.94228
#
# Poissons Ratio (x) = 0.30111 0.21610
# Poissons Ratio (y) = 0.19427 0.20016
# Poissons Ratio (z) = 0.38092 0.54686
#
# Static dielectric constant tensor:
#      x y z
#    x 1.910010 0.000000 0.006590 
#    y 0.000000 1.880180 0.000000 
#    z 0.006590 0.000000 1.922900 
# 
# From -- ./inp_files/127202.got.cif
#   From: 2010.05.17/outbox.cif.g08.bks.cpg/sg15_64_cif.got.tgz:127202.got - 2010.06.03 18:47:42.
