data_PCOD9295243
_publ_section_title
;
Structure prediction by ZEFSAII (Michael W. Deem and Ramdas Pophale) SiO2 
 PCOD9295243
Probable space group: C 2/C
;
_chemical_formula_sum "Si O2"
_cell_formula_units_Z 52
_cell_length_a 5.201715
_cell_length_b 14.779146
_cell_length_c 27.303970
_cell_angle_alpha 90.000000
_cell_angle_beta 82.973726
_cell_angle_gamma 90.000000
_cell_volume 2083.281234
_symmetry_space_group_name_H-M "C 2/C"
_symmetry_group_IT_number 15
_symmetry_cell_setting 'monoclinic'
loop_
_space_group_symop_operation_xyz
x,y,z
-x,y,1/2-z
-x,-y,-z
x,-y,1/2+z
1/2+x,1/2+y,z
1/2-x,1/2+y,1/2-z
1/2-x,1/2-y,-z
1/2+x,1/2-y,1/2+z
loop_
_atom_site_type_symbol
_atom_site_label
_atom_site_fract_x
_atom_site_fract_y
_atom_site_fract_z
Si Si1 0.231626 0.796478 0.070204
Si Si2 0.000000 0.575690 0.750000
Si Si3 0.905915 0.392915 0.920307
Si Si4 0.162889 0.071958 0.951433
Si Si5 0.450009 0.832096 0.354730
Si Si6 0.750000 0.750000 0.000000
Si Si7 0.500000 0.453099 0.750000
Si Si8 0.420511 0.628855 0.358100
O O1 0.048259 0.710948 0.058927
O O2 0.270127 0.814852 0.126622
O O3 0.127212 0.890949 0.052469
O O4 0.497720 0.758346 0.042682
O O5 0.965290 0.631563 0.800345
O O6 0.750935 0.514301 0.749204
O O7 0.770795 0.471467 0.955279
O O8 0.686254 0.380697 0.882866
O O9 0.179764 0.421122 0.890109
O O10 0.302886 0.104746 0.897306
O O11 0.224023 0.137295 0.995144
O O12 0.330491 0.732714 0.357171
O O13 0.529566 0.399974 0.698559
#
# Coordination Sequence:
#
# PCOD9295243 Si02
#       8
#     8   4   8   8   8   4   4   8
#     4  10  23  45  66 100 134 182 226 289 344 421
#     4  12  27  40  65 106 132 182 232 277 338 417
#     4  11  25  41  72  96 134 179 232 274 353 407
#     4  11  22  43  69  96 134 181 220 291 336 420
#     4  10  23  42  67  93 137 179 230 277 347 401
#     4  10  24  42  68 102 136 172 234 280 354 412
#     4  12  25  40  61  96 140 170 236 283 336 405
#     4  11  23  44  63  98 132 182 227 288 335 411
#
# _framework density 24.960625
#
# number of rings (size 3 to 8) (size 9 to 14) (size 15 to 20)
#    0.000    1.231    1.538    3.692    8.615    0.615 
#    0.000    3.077    0.000    0.000    0.000    0.000 
#    0.000    0.000    0.000    0.000    0.000    0.000 
#
# Total GULP energy -144933.787892 kJ/mol
# GULP energy per Si atom -5574.376457 kJ/mol
# Density = 2.490381 g / cm^3
# Si number density = 24.960625 Si / 1000 Ang^3
#
#
#
# Elastic Constant Matrix: (Units=GPa)
#
#
# Indices 1 2 3 4 5 6 
#
# 1 77.7952 2.4345 18.1873 0.0000 -16.9268 0.0000
# 2 2.4345 124.9770 49.8306 0.0000 -12.9147 0.0000
# 3 18.1873 49.8306 153.4310 0.0000 8.9089 0.0000
# 4 0.0000 0.0000 0.0000 60.5112 0.0000 -6.2207
# 5 -16.9268 -12.9147 8.9089 0.0000 38.6255 0.0000
# 6 0.0000 0.0000 0.0000 -6.2207 0.0000 27.4885
#
#
#
# Elastic Compliance Matrix: (Units=1/GPa)
#
#
# Indices 1 2 3 4 5 6 
#
# 1 0.015155 0.001621 -0.002777 0.000000 0.007824 0.000000
# 2 0.001621 0.009955 -0.003709 0.000000 0.004894 0.000000
# 3 -0.002777 -0.003709 0.008305 0.000000 -0.004373 0.000000
# 4 0.000000 0.000000 0.000000 0.016919 0.000000 0.003829
# 5 0.007824 0.004894 -0.004373 0.000000 0.031963 0.000000
# 6 0.000000 0.000000 0.000000 0.003829 0.000000 0.037245
#
#
# Mechanical properties :
#
#
# Convention : Reuss Voigt Hill
#
# Bulk Modulus (GPa) = 42.22355 55.23422 48.72889
# Shear Modulus (GPa) = 36.45135 44.37510 40.41322
#
# Velocity S-wave (km/s) = 3.82560 4.22098 4.02814
# Velocity P-wave (km/s) = 6.03875 6.77732 6.41867
#
# Compressibility (1/GPa) = 0.02368346
#
# Stress axis : x y z
#
# Youngs Moduli (GPa) = 65.98446 100.45612 120.40427
#
# Poissons Ratio (x) = -0.16279 0.33437
# Poissons Ratio (y) = -0.10693 0.44661
# Poissons Ratio (z) = 0.18324 0.37262
#
# Static dielectric constant tensor:
#      x y z
#    x 1.964470 0.000000 -0.035410 
#    y 0.000000 2.066300 0.000000 
#    z -0.035410 0.000000 2.000280 
# 
# From -- ./inp_files/305368.got.cif
#   From: 2010.05.17/outbox.cif.g08.bks.cpg/sg15_153_cif.got.tgz:305368.got - 2010.06.03 18:47:42.
