data_PCOD9295417
_publ_section_title
;
Structure prediction by ZEFSAII (Michael W. Deem and Ramdas Pophale) SiO2 
 PCOD9295417
Probable space group: C 2/C
;
_chemical_formula_sum "Si O2"
_cell_formula_units_Z 48
_cell_length_a 21.444766
_cell_length_b 10.643205
_cell_length_c 11.149716
_cell_angle_alpha 90.000000
_cell_angle_beta 49.611465
_cell_angle_gamma 90.000000
_cell_volume 1938.310035
_symmetry_space_group_name_H-M "C 2/C"
_symmetry_group_IT_number 15
_symmetry_cell_setting 'monoclinic'
loop_
_space_group_symop_operation_xyz
x,y,z
-x,y,1/2-z
-x,-y,-z
x,-y,1/2+z
1/2+x,1/2+y,z
1/2-x,1/2+y,1/2-z
1/2-x,1/2-y,-z
1/2+x,1/2-y,1/2+z
loop_
_atom_site_type_symbol
_atom_site_label
_atom_site_fract_x
_atom_site_fract_y
_atom_site_fract_z
Si Si1 0.840493 0.256133 0.838709
Si Si2 0.557625 0.328099 0.078387
Si Si3 0.333930 0.134650 0.100110
Si Si4 0.664133 0.516492 0.261357
Si Si5 0.097884 0.211443 0.153767
Si Si6 0.510714 0.135683 0.932970
O O1 0.893765 0.266029 0.892843
O O2 0.840229 0.359722 0.735500
O O3 0.750000 0.250000 0.000000
O O4 0.854885 0.873813 0.248545
O O5 0.500000 0.391286 0.250000
O O6 0.511304 0.242508 0.036747
O O7 0.615580 0.426189 0.937009
O O8 0.261284 0.043093 0.155535
O O9 0.430829 0.131835 0.946467
O O10 0.327668 0.265432 0.034819
O O11 0.630535 0.596897 0.192868
O O12 0.000000 0.181011 0.250000
O O13 0.090675 0.327598 0.259001
O O14 0.500000 0.000000 0.000000
#
# Coordination Sequence:
#
# PCOD9295417 Si02
#       6
#     8   8   8   8   8   8
#     4  12  27  45  68 104 141 177 239 296 360 437
#     4  11  24  47  69 107 141 185 249 295 356 436
#     4  11  23  43  65 100 137 177 240 290 357 435
#     4  11  26  43  72  99 139 195 225 307 365 417
#     4   9  22  44  64 102 139 181 243 287 353 441
#     4  10  23  42  71 100 139 191 232 300 362 421
#
# _framework density 24.763839000000001
#
# number of rings (size 3 to 8) (size 9 to 14) (size 15 to 20)
#    0.000    1.333    3.333    0.500    4.667    4.667 
#    0.000    0.000    0.000    0.000    0.000    0.000 
#    0.000    0.000    0.000    0.000    0.000    0.000 
#
# Total GULP energy -133662.828076 kJ/mol
# GULP energy per Si atom -5569.284503 kJ/mol
# Density = 2.470748 g / cm^3
# Si number density = 24.763839 Si / 1000 Ang^3
#
#
#
# Elastic Constant Matrix: (Units=GPa)
#
#
# Indices 1 2 3 4 5 6 
#
# 1 130.3798 22.9684 14.4595 0.0000 -6.7205 0.0000
# 2 22.9684 73.7406 12.7482 0.0000 -2.0347 0.0000
# 3 14.4595 12.7482 102.9683 0.0000 17.2172 0.0000
# 4 0.0000 0.0000 0.0000 7.8595 0.0000 -13.8000
# 5 -6.7205 -2.0347 17.2172 0.0000 38.1208 0.0000
# 6 0.0000 0.0000 0.0000 -13.8000 0.0000 10.3567
#
#
#
# Elastic Compliance Matrix: (Units=1/GPa)
#
#
# Indices 1 2 3 4 5 6 
#
# 1 0.008310 -0.002330 -0.001193 0.000000 0.001879 0.000000
# 2 -0.002330 0.014606 -0.001669 0.000000 0.001123 0.000000
# 3 -0.001193 -0.001669 0.010964 0.000000 -0.005251 0.000000
# 4 0.000000 0.000000 0.000000 -0.094978 0.000000 -0.126556
# 5 0.001879 0.001123 -0.005251 0.000000 0.028995 0.000000
# 6 0.000000 0.000000 0.000000 -0.126556 0.000000 -0.072077
#
#
# Mechanical properties :
#
#
# Convention : Reuss Voigt Hill
#
# Bulk Modulus (GPa) = 42.55966 45.27122 43.91544
# Shear Modulus (GPa) = -58.16332 28.39491 -14.88421
#
# Velocity S-wave (km/s) = -4.85162 3.38986 -2.45428
# Velocity P-wave (km/s) = 3.76307 5.80021 3.12103
#
# Compressibility (1/GPa) = 0.02349643
#
# Stress axis : x y z
#
# Youngs Moduli (GPa) = 120.34385 68.46349 91.20886
#
# Poissons Ratio (x) = 0.15953 0.10878
# Poissons Ratio (y) = 0.28042 0.15221
# Poissons Ratio (z) = 0.14352 0.11425
#
# Static dielectric constant tensor:
#      x y z
#    x 1.702460 0.000000 -0.199540 
#    y 0.000000 1.951410 0.000000 
#    z -0.199540 0.000000 1.971120 
# 
# From -- ./inp_files/118295.got.cif
#   From: 2010.05.17/outbox.cif.g08.bks.cpg/sg15_60_cif.got.tgz:118295.got - 2010.06.03 18:47:42.
