data_PCOD9295485
_publ_section_title
;
Structure prediction by ZEFSAII (Michael W. Deem and Ramdas Pophale) SiO2 
 PCOD9295485
Probable space group: C 2/C
;
_chemical_formula_sum "Si O2"
_cell_formula_units_Z 32
_cell_length_a 28.147014
_cell_length_b 7.187345
_cell_length_c 8.899735
_cell_angle_alpha 90.000000
_cell_angle_beta 49.065153
_cell_angle_gamma 90.000000
_cell_volume 1360.149245
_symmetry_space_group_name_H-M "C 2/C"
_symmetry_group_IT_number 15
_symmetry_cell_setting 'monoclinic'
loop_
_space_group_symop_operation_xyz
x,y,z
-x,y,1/2-z
-x,-y,-z
x,-y,1/2+z
1/2+x,1/2+y,z
1/2-x,1/2+y,1/2-z
1/2-x,1/2-y,-z
1/2+x,1/2-y,1/2+z
loop_
_atom_site_type_symbol
_atom_site_label
_atom_site_fract_x
_atom_site_fract_y
_atom_site_fract_z
Si Si1 0.154080 0.113954 0.779399
Si Si2 0.263088 0.392414 0.109506
Si Si3 0.568771 0.071129 0.313385
Si Si4 0.126921 0.689997 0.899742
O O1 0.193239 0.172379 0.844732
O O2 0.100005 0.256123 0.840751
O O3 0.202471 0.066908 0.541972
O O4 0.127693 0.910827 0.879271
O O5 0.192510 0.400290 0.318680
O O6 0.250000 0.250000 0.000000
O O7 0.575814 0.126849 0.126482
O O8 0.500000 0.000000 0.500000
O O9 0.612476 0.898567 0.268939
#
# Coordination Sequence:
#
# PCOD9295485 Si02
#       4
#     8   8   8   8
#     4  11  24  47  74 110 157 199 244 321 388 446
#     4  10  23  42  74 115 147 191 247 308 396 457
#     4  12  28  48  72 107 155 209 262 301 367 469
#     4  11  26  45  74 113 150 198 252 316 385 453
#
# _framework density 23.526831000000001
#
# number of rings (size 3 to 8) (size 9 to 14) (size 15 to 20)
#    0.000    1.000    2.500    2.250   14.000    3.000 
#    0.000    2.500    0.000    0.000    0.000    0.000 
#    0.000    0.000    0.000    0.000    0.000    0.000 
#
# Total GULP energy -89441.279008 kJ/mol
# GULP energy per Si atom -5590.079938 kJ/mol
# Density = 2.347328 g / cm^3
# Si number density = 23.526831 Si / 1000 Ang^3
#
#
#
# Elastic Constant Matrix: (Units=GPa)
#
#
# Indices 1 2 3 4 5 6 
#
# 1 128.0556 56.4181 48.4831 0.0000 -5.1314 0.0000
# 2 56.4181 136.1347 44.3297 0.0000 -19.4183 0.0000
# 3 48.4831 44.3297 147.4406 0.0000 -18.7293 0.0000
# 4 0.0000 0.0000 0.0000 47.5856 0.0000 0.3059
# 5 -5.1314 -19.4183 -18.7293 0.0000 42.2432 0.0000
# 6 0.0000 0.0000 0.0000 0.3059 0.0000 44.2161
#
#
#
# Elastic Compliance Matrix: (Units=1/GPa)
#
#
# Indices 1 2 3 4 5 6 
#
# 1 0.010309 -0.003685 -0.002478 0.000000 -0.001540 0.000000
# 2 -0.003685 0.009789 -0.001289 0.000000 0.003481 0.000000
# 3 -0.002478 -0.001289 0.008341 0.000000 0.002805 0.000000
# 4 0.000000 0.000000 0.000000 0.021016 0.000000 -0.000145
# 5 -0.001540 0.003481 0.002805 0.000000 0.026329 0.000000
# 6 0.000000 0.000000 0.000000 -0.000145 0.000000 0.022617
#
#
# Mechanical properties :
#
#
# Convention : Reuss Voigt Hill
#
# Bulk Modulus (GPa) = 73.88237 78.89918 76.39077
# Shear Modulus (GPa) = 42.43872 44.30231 43.37052
#
# Velocity S-wave (km/s) = 4.25178 4.34413 4.29820
# Velocity P-wave (km/s) = 7.45487 7.66619 7.56127
#
# Compressibility (1/GPa) = 0.01353503
#
# Stress axis : x y z
#
# Youngs Moduli (GPa) = 97.00198 102.15275 119.88993
#
# Poissons Ratio (x) = 0.37646 0.29704
# Poissons Ratio (y) = 0.35748 0.15457
# Poissons Ratio (z) = 0.24033 0.13170
#
# Static dielectric constant tensor:
#      x y z
#    x 1.887460 0.000000 -0.037450 
#    y 0.000000 1.926100 0.000000 
#    z -0.037450 0.000000 1.960720 
# 
# From -- ./inp_files/64467.got.cif
#   From: 2010.05.17/outbox.cif.g08.bks.cpg/sg15_33_cif.got.tgz:64467.got - 2010.06.03 18:47:42.
