data_PCOD9295370
_publ_section_title
;
Structure prediction by ZEFSAII (Michael W. Deem and Ramdas Pophale) SiO2 
 PCOD9295370
Probable space group: C 2/C
;
_chemical_formula_sum "Si O2"
_cell_formula_units_Z 64
_cell_length_a 26.499567
_cell_length_b 18.994921
_cell_length_c 11.982863
_cell_angle_alpha 90.000000
_cell_angle_beta 27.861820
_cell_angle_gamma 90.000000
_cell_volume 2818.840870
_symmetry_space_group_name_H-M "C 2/C"
_symmetry_group_IT_number 15
_symmetry_cell_setting 'monoclinic'
loop_
_space_group_symop_operation_xyz
x,y,z
-x,y,1/2-z
-x,-y,-z
x,-y,1/2+z
1/2+x,1/2+y,z
1/2-x,1/2+y,1/2-z
1/2-x,1/2-y,-z
1/2+x,1/2-y,1/2+z
loop_
_atom_site_type_symbol
_atom_site_label
_atom_site_fract_x
_atom_site_fract_y
_atom_site_fract_z
Si Si1 0.502741 0.237429 0.069125
Si Si2 0.168323 0.900525 0.380744
Si Si3 0.597734 0.548723 0.474387
Si Si4 0.393872 0.095858 0.195704
Si Si5 0.925539 0.480966 0.302307
Si Si6 0.455573 0.376768 0.649353
Si Si7 0.722570 0.134172 0.287275
Si Si8 0.682723 0.772503 0.398788
O O1 0.453107 0.167715 0.112239
O O2 0.400886 0.258795 0.346496
O O3 0.538699 0.299673 0.917001
O O4 0.607130 0.218127 0.938991
O O5 0.131984 0.887053 0.580739
O O6 0.265366 0.846814 0.168463
O O7 0.069170 0.885472 0.490695
O O8 0.178706 0.983965 0.340801
O O9 0.500000 0.534392 0.750000
O O10 0.564095 0.567447 0.413482
O O11 0.659524 0.616823 0.397415
O O12 0.295475 0.113646 0.305889
O O13 0.366923 0.040082 0.344357
O O14 0.484803 0.055916 0.947931
O O15 0.857509 0.416001 0.486270
O O16 0.000000 0.518595 0.250000
O O17 0.717802 0.218127 0.310605
#
# Coordination Sequence:
#
# PCOD9295370 Si02
#       8
#     8   8   8   8   8   8   8   8
#     4  11  25  45  73  96 142 192 224 307 348 427
#     4  11  27  44  74 108 138 186 240 296 342 436
#     4  12  25  46  71 104 144 188 230 292 360 416
#     4  10  23  42  70 101 135 179 232 280 349 415
#     4   9  22  43  67 101 137 178 226 286 347 411
#     4  11  24  48  71 105 142 184 236 288 364 415
#     4  11  24  43  71 101 136 182 229 288 343 422
#     4  11  26  47  68 106 139 181 244 284 364 417
#
# _framework density 22.704367999999999
#
# number of rings (size 3 to 8) (size 9 to 14) (size 15 to 20)
#    0.000    1.250    2.500    1.875    5.250    7.500 
#    0.000    0.000    0.000    0.000    0.000    0.000 
#    0.000    0.000    0.000    0.000    0.000    0.000 
#
# Total GULP energy -178674.872638 kJ/mol
# GULP energy per Si atom -5583.589770 kJ/mol
# Density = 2.265269 g / cm^3
# Si number density = 22.704368 Si / 1000 Ang^3
#
#
#
# Elastic Constant Matrix: (Units=GPa)
#
#
# Indices 1 2 3 4 5 6 
#
# 1 124.6415 42.8627 34.5639 0.0000 19.7486 0.0000
# 2 42.8627 102.4991 29.6150 0.0000 20.0649 0.0000
# 3 34.5639 29.6150 79.6944 0.0000 9.6500 0.0000
# 4 0.0000 0.0000 0.0000 86.8363 0.0000 32.0912
# 5 19.7486 20.0649 9.6500 0.0000 19.4635 0.0000
# 6 0.0000 0.0000 0.0000 32.0912 0.0000 19.1853
#
#
#
# Elastic Compliance Matrix: (Units=1/GPa)
#
#
# Indices 1 2 3 4 5 6 
#
# 1 0.010744 -0.002243 -0.002964 0.000000 -0.007120 0.000000
# 2 -0.002243 0.013514 -0.002806 0.000000 -0.010265 0.000000
# 3 -0.002964 -0.002806 0.015066 0.000000 -0.001569 0.000000
# 4 0.000000 0.000000 0.000000 0.030159 0.000000 -0.050447
# 5 -0.007120 -0.010265 -0.001569 0.000000 0.069963 0.000000
# 6 0.000000 0.000000 0.000000 -0.050447 0.000000 0.136505
#
#
# Mechanical properties :
#
#
# Convention : Reuss Voigt Hill
#
# Bulk Modulus (GPa) = 42.92174 57.87980 50.40077
# Shear Modulus (GPa) = 16.68083 38.41657 27.54870
#
# Velocity S-wave (km/s) = 2.71347 4.11790 3.48712
# Velocity P-wave (km/s) = 5.36310 6.93957 6.20163
#
# Compressibility (1/GPa) = 0.02329822
#
# Stress axis : x y z
#
# Youngs Moduli (GPa) = 93.07153 73.99559 66.37263
#
# Poissons Ratio (x) = 0.16596 0.19675
# Poissons Ratio (y) = 0.20874 0.18627
# Poissons Ratio (z) = 0.27590 0.20766
#
# Static dielectric constant tensor:
#      x y z
#    x 1.853230 0.000000 0.040710 
#    y 0.000000 1.853630 0.000000 
#    z 0.040710 0.000000 1.856170 
# 
# From -- ./inp_files/124231.got.cif
#   From: 2010.05.17/outbox.cif.g08.bks.cpg/sg15_63_cif.got.tgz:124231.got - 2010.06.03 18:47:42.
