data_PCOD9295074
_publ_section_title
;
Structure prediction by ZEFSAII (Michael W. Deem and Ramdas Pophale) SiO2 
 PCOD9295074
Probable space group: C 2/C
;
_chemical_formula_sum "Si O2"
_cell_formula_units_Z 32
_cell_length_a 25.028411
_cell_length_b 6.620534
_cell_length_c 12.963305
_cell_angle_alpha 90.000000
_cell_angle_beta 143.470629
_cell_angle_gamma 90.000000
_cell_volume 1278.587159
_symmetry_space_group_name_H-M "C 2/C"
_symmetry_group_IT_number 15
_symmetry_cell_setting 'monoclinic'
loop_
_space_group_symop_operation_xyz
x,y,z
-x,y,1/2-z
-x,-y,-z
x,-y,1/2+z
1/2+x,1/2+y,z
1/2-x,1/2+y,1/2-z
1/2-x,1/2-y,-z
1/2+x,1/2-y,1/2+z
loop_
_atom_site_type_symbol
_atom_site_label
_atom_site_fract_x
_atom_site_fract_y
_atom_site_fract_z
Si Si1 0.376319 0.298957 0.481251
Si Si2 0.805066 0.476854 0.207444
Si Si3 0.888841 0.434227 0.642670
Si Si4 0.434589 0.286420 0.013660
O O1 0.287558 0.404611 0.388955
O O2 0.440943 0.474489 0.538650
O O3 0.346127 0.155098 0.340802
O O4 0.407884 0.151191 0.621407
O O5 0.805831 0.542784 0.090112
O O6 0.875998 0.290640 0.327648
O O7 0.879281 0.291445 0.528790
O O8 0.972219 0.334888 0.833356
#
# Coordination Sequence:
#
# PCOD9295074 Si02
#       4
#     8   8   8   8
#     4  11  23  42  68  96 138 168 222 273 324 395
#     4  11  22  42  67  98 133 173 218 273 330 389
#     4  10  24  41  67  97 132 174 220 269 332 390
#     4  10  23  42  63  97 132 171 220 271 325 393
#
# _framework density 25.027625
#
# number of rings (size 3 to 8) (size 9 to 14) (size 15 to 20)
#    0.000    1.500    2.500    1.500    0.000   12.000 
#    0.000    0.000    0.000    4.500    0.000    0.000 
#    0.000    0.000    0.000    0.000    0.000    0.000 
#
# Total GULP energy -89537.626061 kJ/mol
# GULP energy per Si atom -5596.101629 kJ/mol
# Density = 2.497066 g / cm^3
# Si number density = 25.027625 Si / 1000 Ang^3
#
#
#
# Elastic Constant Matrix: (Units=GPa)
#
#
# Indices 1 2 3 4 5 6 
#
# 1 87.8105 22.6277 2.4892 0.0000 -19.6826 0.0000
# 2 22.6277 171.4743 29.7950 0.0000 22.0294 0.0000
# 3 2.4892 29.7950 43.1388 0.0000 17.2059 0.0000
# 4 0.0000 0.0000 0.0000 33.0476 0.0000 8.2009
# 5 -19.6826 22.0294 17.2059 0.0000 20.5317 0.0000
# 6 0.0000 0.0000 0.0000 8.2009 0.0000 3.6575
#
#
#
# Elastic Compliance Matrix: (Units=1/GPa)
#
#
# Indices 1 2 3 4 5 6 
#
# 1 0.021175 -0.005355 -0.011883 0.000000 0.036002 0.000000
# 2 -0.005355 0.008329 0.000252 0.000000 -0.014282 0.000000
# 3 -0.011883 0.000252 0.042574 0.000000 -0.047340 0.000000
# 4 0.000000 0.000000 0.000000 0.068215 0.000000 -0.152950
# 5 0.036002 -0.014282 -0.047340 0.000000 0.138214 0.000000
# 6 0.000000 0.000000 0.000000 -0.152950 0.000000 0.616352
#
#
# Mechanical properties :
#
#
# Convention : Reuss Voigt Hill
#
# Bulk Modulus (GPa) = 26.24184 45.80527 36.02355
# Shear Modulus (GPa) = 5.31050 27.94814 16.62932
#
# Velocity S-wave (km/s) = 1.45824 3.34532 2.58047
# Velocity P-wave (km/s) = 3.65283 5.76742 4.82734
#
# Compressibility (1/GPa) = 0.03810709
#
# Stress axis : x y z
#
# Youngs Moduli (GPa) = 47.22605 120.05802 23.48860
#
# Poissons Ratio (x) = 0.64288 0.27912
# Poissons Ratio (y) = 0.25288 -0.00593
# Poissons Ratio (z) = 0.56119 -0.03029
#
# Static dielectric constant tensor:
#      x y z
#    x 1.969440 0.000000 0.006680 
#    y 0.000000 1.997250 0.000000 
#    z 0.006680 0.000000 1.981830 
# 
# From -- ./inp_files/164946.got.cif
#   From: 2010.05.17/outbox.cif.g08.bks.cpg/sg15_83_cif.got.tgz:164946.got - 2010.06.03 18:47:42.
