data_PCOD9295817
_publ_section_title
;
Structure prediction by ZEFSAII (Michael W. Deem and Ramdas Pophale) SiO2 
 PCOD9295817
Probable space group: C 2/C
;
_chemical_formula_sum "Si O2"
_cell_formula_units_Z 40
_cell_length_a 12.150481
_cell_length_b 25.775278
_cell_length_c 7.773252
_cell_angle_alpha 90.000000
_cell_angle_beta 39.023920
_cell_angle_gamma 90.000000
_cell_volume 1532.834209
_symmetry_space_group_name_H-M "C 2/C"
_symmetry_group_IT_number 15
_symmetry_cell_setting 'monoclinic'
loop_
_space_group_symop_operation_xyz
x,y,z
-x,y,1/2-z
-x,-y,-z
x,-y,1/2+z
1/2+x,1/2+y,z
1/2-x,1/2+y,1/2-z
1/2-x,1/2-y,-z
1/2+x,1/2-y,1/2+z
loop_
_atom_site_type_symbol
_atom_site_label
_atom_site_fract_x
_atom_site_fract_y
_atom_site_fract_z
Si Si1 0.631700 0.390449 0.757141
Si Si2 0.682201 0.029644 0.282901
Si Si3 0.297817 0.571669 0.781818
Si Si4 0.537386 0.282871 0.906198
Si Si5 0.662912 0.180419 0.922590
O O1 0.500000 0.392343 0.750000
O O2 0.789112 0.429945 0.595358
O O3 0.672571 0.331027 0.754993
O O4 0.494931 0.410108 0.065880
O O5 0.500000 0.177695 0.250000
O O6 0.291419 0.057805 0.430081
O O7 0.808512 0.980627 0.158392
O O8 0.196325 0.621167 0.822484
O O9 0.000000 0.500000 0.000000
O O10 0.500000 0.282221 0.750000
O O11 0.605005 0.226720 0.869850
O O12 0.361466 0.299316 0.226073
#
# Coordination Sequence:
#
# PCOD9295817 Si02
#       5
#     8   8   8   8   8
#     4  10  23  45  72 101 137 186 235 286 353 430
#     4  12  24  42  67  98 136 178 231 292 348 410
#     4  11  25  44  66  98 136 182 233 287 356 426
#     4  10  23  43  70 102 139 188 239 290 358 427
#     4  11  23  42  67 101 140 180 236 299 358 423
#
# _framework density 26.095451000000001
#
# number of rings (size 3 to 8) (size 9 to 14) (size 15 to 20)
#    0.000    1.200    0.000    5.400    0.000    6.400 
#    0.000    6.000    0.000    0.000    0.000    0.000 
#    0.000    0.000    0.000    0.000    0.000    0.000 
#
# Total GULP energy -111728.855799 kJ/mol
# GULP energy per Si atom -5586.442790 kJ/mol
# Density = 2.603606 g / cm^3
# Si number density = 26.095451 Si / 1000 Ang^3
#
#
#
# Elastic Constant Matrix: (Units=GPa)
#
#
# Indices 1 2 3 4 5 6 
#
# 1 70.8700 63.4468 20.5096 0.0000 -1.0021 0.0000
# 2 63.4468 242.4934 24.5766 0.0000 -10.7533 0.0000
# 3 20.5096 24.5766 101.1237 0.0000 -3.8570 0.0000
# 4 0.0000 0.0000 0.0000 42.5994 0.0000 1.8952
# 5 -1.0021 -10.7533 -3.8570 0.0000 25.0055 0.0000
# 6 0.0000 0.0000 0.0000 1.8952 0.0000 43.4866
#
#
#
# Elastic Compliance Matrix: (Units=1/GPa)
#
#
# Indices 1 2 3 4 5 6 
#
# 1 0.019208 -0.004820 -0.002791 0.000000 -0.001733 0.000000
# 2 -0.004820 0.005508 -0.000280 0.000000 0.002132 0.000000
# 3 -0.002791 -0.000280 0.010576 0.000000 0.001399 0.000000
# 4 0.000000 0.000000 0.000000 0.023520 0.000000 -0.001025
# 5 -0.001733 0.002132 0.001399 0.000000 0.041054 0.000000
# 6 0.000000 0.000000 0.000000 -0.001025 0.000000 0.023040
#
#
# Mechanical properties :
#
#
# Convention : Reuss Voigt Hill
#
# Bulk Modulus (GPa) = 51.24975 70.17256 60.71116
# Shear Modulus (GPa) = 34.43733 42.61524 38.52628
#
# Velocity S-wave (km/s) = 3.63666 4.04549 3.84651
# Velocity P-wave (km/s) = 6.10866 6.98358 6.56072
#
# Compressibility (1/GPa) = 0.01951229
#
# Stress axis : x y z
#
# Youngs Moduli (GPa) = 52.06076 181.56101 94.55201
#
# Poissons Ratio (x) = 0.87508 0.26385
# Poissons Ratio (y) = 0.25092 0.02645
# Poissons Ratio (z) = 0.14528 0.05079
#
# Static dielectric constant tensor:
#      x y z
#    x 2.136050 0.000000 0.001700 
#    y 0.000000 2.108280 0.000000 
#    z 0.001700 0.000000 2.175130 
# 
# From -- ./inp_files/90579.got.cif
#   From: 2010.05.17/outbox.cif.g08.bks.cpg/sg15_46_cif.got.tgz:90579.got - 2010.06.03 18:47:42.
