data_PCOD9295675
_publ_section_title
;
Structure prediction by ZEFSAII (Michael W. Deem and Ramdas Pophale) SiO2 
 PCOD9295675
Probable space group: C 2/C
;
_chemical_formula_sum "Si O2"
_cell_formula_units_Z 48
_cell_length_a 20.402511
_cell_length_b 21.388537
_cell_length_c 14.307802
_cell_angle_alpha 90.000000
_cell_angle_beta 160.853528
_cell_angle_gamma 90.000000
_cell_volume 2047.814356
_symmetry_space_group_name_H-M "C 2/C"
_symmetry_group_IT_number 15
_symmetry_cell_setting 'monoclinic'
loop_
_space_group_symop_operation_xyz
x,y,z
-x,y,1/2-z
-x,-y,-z
x,-y,1/2+z
1/2+x,1/2+y,z
1/2-x,1/2+y,1/2-z
1/2-x,1/2-y,-z
1/2+x,1/2-y,1/2+z
loop_
_atom_site_type_symbol
_atom_site_label
_atom_site_fract_x
_atom_site_fract_y
_atom_site_fract_z
Si Si1 0.969246 0.479555 0.614990
Si Si2 0.000000 0.757236 0.250000
Si Si3 0.294145 0.924894 0.728096
Si Si4 0.063608 0.065635 0.632186
Si Si5 0.911556 0.801985 0.328180
Si Si6 0.939760 0.693808 0.851487
Si Si7 0.500000 0.721257 0.250000
O O1 0.880531 0.523000 0.415406
O O2 0.801524 0.435167 0.435609
O O3 0.000000 0.521399 0.750000
O O4 0.139529 0.442470 0.787542
O O5 0.068513 0.800425 0.256982
O O6 0.180163 0.714831 0.529768
O O7 0.060034 0.929941 0.437910
O O8 0.409380 0.861907 0.916902
O O9 0.013210 0.134182 0.523602
O O10 0.000000 0.000000 0.500000
O O11 0.035776 0.744968 0.535065
O O12 0.702582 0.679869 0.525100
O O13 0.994429 0.731928 0.831292
#
# Coordination Sequence:
#
# PCOD9295675 Si02
#       7
#     8   4   8   8   8   8   4
#     4  10  24  42  68  96 130 178 227 279 335 414
#     4  10  24  38  64 110 134 182 218 272 366 422
#     4  10  23  45  65  97 134 174 225 278 346 399
#     4  10  23  43  67  95 133 185 228 271 343 406
#     4  11  23  41  66 100 141 173 223 282 343 417
#     4  11  23  43  67  97 136 174 220 295 335 409
#     4  10  24  40  64 102 124 178 228 264 360 404
#
# _framework density 23.439624999999999
#
# number of rings (size 3 to 8) (size 9 to 14) (size 15 to 20)
#    0.000    1.667    0.000    3.000    7.000    3.333 
#    3.000    0.000    0.000    1.000    0.000    0.000 
#    0.000    0.000    0.000    0.000    0.000    0.000 
#
# Total GULP energy -133674.144705 kJ/mol
# GULP energy per Si atom -5569.756029 kJ/mol
# Density = 2.338628 g / cm^3
# Si number density = 23.439625 Si / 1000 Ang^3
#
#
#
# Elastic Constant Matrix: (Units=GPa)
#
#
# Indices 1 2 3 4 5 6 
#
# 1 184.6076 34.3958 47.0621 0.0000 16.2209 0.0000
# 2 34.3958 110.0247 31.3534 0.0000 12.0067 0.0000
# 3 47.0621 31.3534 116.9093 0.0000 32.4223 0.0000
# 4 0.0000 0.0000 0.0000 27.2700 0.0000 7.2723
# 5 16.2209 12.0067 32.4223 0.0000 43.2595 0.0000
# 6 0.0000 0.0000 0.0000 7.2723 0.0000 5.0213
#
#
#
# Elastic Compliance Matrix: (Units=1/GPa)
#
#
# Indices 1 2 3 4 5 6 
#
# 1 0.006218 -0.001318 -0.002026 0.000000 -0.000448 0.000000
# 2 -0.001318 0.010151 -0.001954 0.000000 -0.000859 0.000000
# 3 -0.002026 -0.001954 0.012033 0.000000 -0.007717 0.000000
# 4 0.000000 0.000000 0.000000 0.059746 0.000000 -0.086530
# 5 -0.000448 -0.000859 -0.007717 0.000000 0.029306 0.000000
# 6 0.000000 0.000000 0.000000 -0.086530 0.000000 0.324473
#
#
# Mechanical properties :
#
#
# Convention : Reuss Voigt Hill
#
# Bulk Modulus (GPa) = 56.15318 70.79603 63.47461
# Shear Modulus (GPa) = 10.90611 35.02550 22.96581
#
# Velocity S-wave (km/s) = 2.15939 3.86979 3.13355
# Velocity P-wave (km/s) = 5.49780 7.08775 6.34279
#
# Compressibility (1/GPa) = 0.01780843
#
# Stress axis : x y z
#
# Youngs Moduli (GPa) = 160.81968 98.50920 83.10424
#
# Poissons Ratio (x) = 0.12982 0.16833
# Poissons Ratio (y) = 0.21193 0.16236
# Poissons Ratio (z) = 0.32575 0.19246
#
# Static dielectric constant tensor:
#      x y z
#    x 1.906050 0.000000 -0.039130 
#    y 0.000000 1.884590 0.000000 
#    z -0.039130 0.000000 2.133220 
# 
# From -- ./inp_files/169740.got.cif
#   From: 2010.05.17/outbox.cif.g08.bks.cpg/sg15_85_cif.got.tgz:169740.got - 2010.06.03 18:47:42.
