data_PCOD9295616
_publ_section_title
;
Structure prediction by ZEFSAII (Michael W. Deem and Ramdas Pophale) SiO2 
 PCOD9295616
Probable space group: C 2/C
;
_chemical_formula_sum "Si O2"
_cell_formula_units_Z 56
_cell_length_a 24.328609
_cell_length_b 12.474982
_cell_length_c 8.975787
_cell_angle_alpha 90.000000
_cell_angle_beta 65.163433
_cell_angle_gamma 90.000000
_cell_volume 2472.185011
_symmetry_space_group_name_H-M "C 2/C"
_symmetry_group_IT_number 15
_symmetry_cell_setting 'monoclinic'
loop_
_space_group_symop_operation_xyz
x,y,z
-x,y,1/2-z
-x,-y,-z
x,-y,1/2+z
1/2+x,1/2+y,z
1/2-x,1/2+y,1/2-z
1/2-x,1/2-y,-z
1/2+x,1/2-y,1/2+z
loop_
_atom_site_type_symbol
_atom_site_label
_atom_site_fract_x
_atom_site_fract_y
_atom_site_fract_z
Si Si1 0.307627 0.925754 0.812897
Si Si2 0.992225 0.385619 0.933310
Si Si3 0.903072 0.047233 0.143657
Si Si4 0.740914 0.735849 0.832769
Si Si5 0.855020 0.628750 0.575369
Si Si6 0.020149 0.838780 0.401501
Si Si7 0.318363 0.529630 0.507442
O O1 0.290650 0.833042 0.715941
O O2 0.338483 0.020788 0.684860
O O3 0.347281 0.889086 0.907703
O O4 0.244608 0.970604 0.955386
O O5 0.033748 0.284067 0.930135
O O6 0.000000 0.404532 0.750000
O O7 0.923729 0.344614 0.034684
O O8 0.000000 0.500000 0.000000
O O9 0.927138 0.925168 0.137209
O O10 0.855999 0.074303 0.326471
O O11 0.864286 0.048902 0.037966
O O12 0.963449 0.116994 0.062023
O O13 0.805758 0.714114 0.684688
O O14 0.750000 0.750000 0.000000
O O15 0.701447 0.627513 0.863794
O O16 0.000000 0.839090 0.250000
#
# Coordination Sequence:
#
# PCOD9295616 Si02
#       7
#     8   8   8   8   8   8   8
#     4  11  23  43  65  98 140 172 226 270 346 419
#     4  11  26  47  69  97 129 183 239 278 345 409
#     4  11  22  42  66  98 133 169 225 278 338 400
#     4  11  24  40  64 103 137 177 224 270 349 418
#     4  11  24  43  67  94 136 178 217 292 332 403
#     4  10  23  43  66  94 132 174 222 282 339 399
#     4  11  23  38  67  98 129 175 216 270 335 408
#
# _framework density 22.652025999999999
#
# number of rings (size 3 to 8) (size 9 to 14) (size 15 to 20)
#    0.000    1.143    1.429    5.571    4.000    3.429 
#    2.571    0.000    0.000    0.000    0.000    0.000 
#    0.000    0.000    0.000    0.000    0.000    0.000 
#
# Total GULP energy -156692.949474 kJ/mol
# GULP energy per Si atom -5596.176767 kJ/mol
# Density = 2.260047 g / cm^3
# Si number density = 22.652026 Si / 1000 Ang^3
#
#
#
# Elastic Constant Matrix: (Units=GPa)
#
#
# Indices 1 2 3 4 5 6 
#
# 1 62.2274 13.9043 10.3133 0.0000 -13.6199 0.0000
# 2 13.9043 124.0257 17.6181 0.0000 -2.1508 0.0000
# 3 10.3133 17.6181 96.4708 0.0000 -6.1536 0.0000
# 4 0.0000 0.0000 0.0000 23.8426 0.0000 4.2619
# 5 -13.6199 -2.1508 -6.1536 0.0000 34.6052 0.0000
# 6 0.0000 0.0000 0.0000 4.2619 0.0000 27.4552
#
#
#
# Elastic Compliance Matrix: (Units=1/GPa)
#
#
# Indices 1 2 3 4 5 6 
#
# 1 0.018151 -0.001748 -0.001186 0.000000 0.006824 0.000000
# 2 -0.001748 0.008448 -0.001382 0.000000 -0.000409 0.000000
# 3 -0.001186 -0.001382 0.010833 0.000000 0.001374 0.000000
# 4 0.000000 0.000000 0.000000 0.043139 0.000000 -0.006696
# 5 0.006824 -0.000409 0.001374 0.000000 0.031802 0.000000
# 6 0.000000 0.000000 0.000000 -0.006696 0.000000 0.037462
#
#
# Mechanical properties :
#
#
# Convention : Reuss Voigt Hill
#
# Bulk Modulus (GPa) = 34.72270 40.71058 37.71664
# Shear Modulus (GPa) = 29.75009 33.23982 31.49496
#
# Velocity S-wave (km/s) = 3.62795 3.83484 3.73283
# Velocity P-wave (km/s) = 5.73685 6.13344 5.93846
#
# Compressibility (1/GPa) = 0.02879960
#
# Stress axis : x y z
#
# Youngs Moduli (GPa) = 55.09373 118.37051 92.31367
#
# Poissons Ratio (x) = 0.20692 0.10947
# Poissons Ratio (y) = 0.09631 0.12758
# Poissons Ratio (z) = 0.06534 0.16359
#
# Static dielectric constant tensor:
#      x y z
#    x 1.814790 0.000000 0.004780 
#    y 0.000000 1.869960 0.000000 
#    z 0.004780 0.000000 1.861260 
# 
# From -- ./inp_files/65429.got.cif
#   From: 2010.05.17/outbox.cif.g08.bks.cpg/sg15_33_cif.got.tgz:65429.got - 2010.06.03 18:47:42.
