data_PCOD9295250
_publ_section_title
;
Structure prediction by ZEFSAII (Michael W. Deem and Ramdas Pophale) SiO2 
 PCOD9295250
Probable space group: C 2/C
;
_chemical_formula_sum "Si O2"
_cell_formula_units_Z 52
_cell_length_a 13.690646
_cell_length_b 14.695978
_cell_length_c 17.093657
_cell_angle_alpha 90.000000
_cell_angle_beta 40.594426
_cell_angle_gamma 90.000000
_cell_volume 2237.888574
_symmetry_space_group_name_H-M "C 2/C"
_symmetry_group_IT_number 15
_symmetry_cell_setting 'monoclinic'
loop_
_space_group_symop_operation_xyz
x,y,z
-x,y,1/2-z
-x,-y,-z
x,-y,1/2+z
1/2+x,1/2+y,z
1/2-x,1/2+y,1/2-z
1/2-x,1/2-y,-z
1/2+x,1/2-y,1/2+z
loop_
_atom_site_type_symbol
_atom_site_label
_atom_site_fract_x
_atom_site_fract_y
_atom_site_fract_z
Si Si1 0.978000 0.642417 0.463590
Si Si2 0.277839 0.509931 0.517576
Si Si3 0.799668 0.111182 0.658143
Si Si4 0.120288 0.168694 0.481194
Si Si5 0.001798 0.553590 0.603868
Si Si6 0.000000 0.072738 0.250000
Si Si7 0.811194 0.190068 0.240675
O O1 0.009888 0.635116 0.537160
O O2 0.140339 0.659349 0.330046
O O3 0.870801 0.724310 0.503498
O O4 0.931864 0.540358 0.471769
O O5 0.345740 0.565631 0.548879
O O6 0.266215 0.405354 0.553461
O O7 0.118561 0.561631 0.602830
O O8 0.384147 0.519332 0.377001
O O9 0.673995 0.044834 0.770804
O O10 0.711673 0.207411 0.712073
O O11 0.955572 0.131206 0.607029
O O12 0.119584 0.176309 0.387296
O O13 0.899244 0.132851 0.252104
#
# Coordination Sequence:
#
# PCOD9295250 Si02
#       7
#     8   8   8   8   8   4   8
#     4  10  23  42  67  94 135 179 233 278 350 415
#     4  12  26  42  69 100 139 175 234 285 355 409
#     4  11  24  40  71  97 134 181 227 278 349 414
#     4  11  24  45  70  99 133 189 229 283 343 427
#     4  11  23  42  66 101 135 177 226 294 346 413
#     4  12  26  40  66 100 138 178 228 294 346 410
#     4  11  23  42  66  98 136 175 231 285 347 414
#
# _framework density 23.236189
#
# number of rings (size 3 to 8) (size 9 to 14) (size 15 to 20)
#    0.000    0.923    4.615    1.846    4.308    1.231 
#    0.000    0.000    3.385    0.000    0.000    0.000 
#    0.000    0.000    0.000    0.000    0.000    0.000 
#
# Total GULP energy -144983.826338 kJ/mol
# GULP energy per Si atom -5576.301013 kJ/mol
# Density = 2.318330 g / cm^3
# Si number density = 23.236189 Si / 1000 Ang^3
#
#
#
# Elastic Constant Matrix: (Units=GPa)
#
#
# Indices 1 2 3 4 5 6 
#
# 1 26.0110 16.8564 -4.1702 0.0000 7.4932 0.0000
# 2 16.8564 116.0574 32.0732 0.0000 17.9798 0.0000
# 3 -4.1702 32.0732 96.7146 -0.0001 5.7308 0.0001
# 4 0.0000 0.0000 -0.0001 27.2113 0.0001 -0.8549
# 5 7.4932 17.9798 5.7308 0.0001 22.2696 0.0000
# 6 0.0000 0.0000 0.0001 -0.8549 0.0000 34.8236
#
#
#
# Elastic Compliance Matrix: (Units=1/GPa)
#
#
# Indices 1 2 3 4 5 6 
#
# 1 0.046700 -0.006267 0.004796 0.000000 -0.011888 0.000000
# 2 -0.006267 0.011521 -0.003721 0.000000 -0.006236 0.000000
# 3 0.004796 -0.003721 0.011879 0.000000 -0.001666 0.000000
# 4 0.000000 0.000000 0.000000 0.036778 0.000000 0.000903
# 5 -0.011888 -0.006236 -0.001666 0.000000 0.054367 0.000000
# 6 0.000000 0.000000 0.000000 0.000903 0.000000 0.028738
#
#
# Mechanical properties :
#
#
# Convention : Reuss Voigt Hill
#
# Bulk Modulus (GPa) = 16.74570 36.47801 26.61186
# Shear Modulus (GPa) = 22.69911 29.79581 26.24746
#
# Velocity S-wave (km/s) = 3.12891 3.58481 3.36459
# Velocity P-wave (km/s) = 4.50287 5.73301 5.15476
#
# Compressibility (1/GPa) = 0.05971681
#
# Stress axis : x y z
#
# Youngs Moduli (GPa) = 21.41333 86.79763 84.17964
#
# Poissons Ratio (x) = 0.54392 -0.40374
# Poissons Ratio (y) = 0.13419 0.31327
# Poissons Ratio (z) = -0.10270 0.32301
#
# Static dielectric constant tensor:
#      x y z
#    x 1.993950 0.000000 0.004360 
#    y 0.000000 1.934720 0.000000 
#    z 0.004360 0.000000 1.918350 
# 
# From -- ./inp_files/205659.got.cif
#   From: 2010.05.17/outbox.cif.g08.bks.cpg/sg15_103_cif.got.tgz:205659.got - 2010.06.03 18:47:42.
