data_PCOD9295335
_publ_section_title
;
Structure prediction by ZEFSAII (Michael W. Deem and Ramdas Pophale) SiO2 
 PCOD9295335
Probable space group: C 2/C
;
_chemical_formula_sum "Si O2"
_cell_formula_units_Z 52
_cell_length_a 6.937126
_cell_length_b 20.376393
_cell_length_c 14.290033
_cell_angle_alpha 90.000000
_cell_angle_beta 95.299004
_cell_angle_gamma 90.000000
_cell_volume 2011.315047
_symmetry_space_group_name_H-M "C 2/C"
_symmetry_group_IT_number 15
_symmetry_cell_setting 'monoclinic'
loop_
_space_group_symop_operation_xyz
x,y,z
-x,y,1/2-z
-x,-y,-z
x,-y,1/2+z
1/2+x,1/2+y,z
1/2-x,1/2+y,1/2-z
1/2-x,1/2-y,-z
1/2+x,1/2-y,1/2+z
loop_
_atom_site_type_symbol
_atom_site_label
_atom_site_fract_x
_atom_site_fract_y
_atom_site_fract_z
Si Si1 0.155984 0.097273 0.636627
Si Si2 0.500000 0.707698 0.750000
Si Si3 0.228484 0.475721 0.741948
Si Si4 0.662260 0.947691 0.540966
Si Si5 0.929238 0.231986 0.398836
Si Si6 0.998583 0.693922 0.082311
Si Si7 0.000000 0.671866 0.750000
Si Si8 0.500000 0.361501 0.750000
O O1 0.186642 0.076653 0.530757
O O2 0.357304 0.132090 0.678517
O O3 0.997119 0.148770 0.666268
O O4 0.166234 0.030523 0.694393
O O5 0.435425 0.763990 0.825081
O O6 0.260867 0.483038 0.632891
O O7 0.320692 0.406182 0.770242
O O8 0.000000 0.478764 0.750000
O O9 0.562864 0.881100 0.575212
O O10 0.500000 0.000000 0.500000
O O11 0.038983 0.267360 0.487097
O O12 0.735992 0.197649 0.424852
O O13 0.869595 0.284629 0.314567
O O14 0.050234 0.181325 0.342862
#
# Coordination Sequence:
#
# PCOD9295335 Si02
#       8
#     8   4   8   8   8   8   4   4
#     4  12  25  48  70 107 146 191 250 298 382 434
#     4  12  29  44  74 109 150 186 244 322 364 451
#     4  12  26  48  76 105 154 199 249 316 370 454
#     4  12  26  45  79 109 143 201 255 302 378 463
#     4  10  23  42  69 101 146 182 243 306 367 447
#     4  11  25  43  71 107 141 192 243 305 382 436
#     4  11  18  44  68  94 134 193 224 298 365 438
#     4  11  27  46  70 113 142 199 250 302 379 443
#
# _framework density 25.853729999999999
#
# number of rings (size 3 to 8) (size 9 to 14) (size 15 to 20)
#    0.000    0.615    5.385    1.385    5.385    0.615 
#    0.000    1.538    0.000    0.000    0.000    0.000 
#    0.000    0.000    0.000    0.000    0.000    0.000 
#
# Total GULP energy -145287.632110 kJ/mol
# GULP energy per Si atom -5587.985850 kJ/mol
# Density = 2.579489 g / cm^3
# Si number density = 25.853730 Si / 1000 Ang^3
#
#
#
# Elastic Constant Matrix: (Units=GPa)
#
#
# Indices 1 2 3 4 5 6 
#
# 1 103.6872 43.8664 21.3230 0.0000 -16.1951 0.0000
# 2 43.8664 169.3786 79.9915 0.0000 -14.2998 0.0000
# 3 21.3230 79.9915 200.8628 0.0000 -9.2860 0.0000
# 4 0.0000 0.0000 0.0000 58.0069 0.0000 -7.8318
# 5 -16.1951 -14.2998 -9.2860 0.0000 38.4827 0.0000
# 6 0.0000 0.0000 0.0000 -7.8318 0.0000 41.5501
#
#
#
# Elastic Compliance Matrix: (Units=1/GPa)
#
#
# Indices 1 2 3 4 5 6 
#
# 1 0.011346 -0.002625 0.000017 0.000000 0.003803 0.000000
# 2 -0.002625 0.008039 -0.002868 0.000000 0.001190 0.000000
# 3 0.000017 -0.002868 0.006138 0.000000 0.000423 0.000000
# 4 0.000000 0.000000 0.000000 0.017689 0.000000 0.003334
# 5 0.003803 0.001190 0.000423 0.000000 0.028131 0.000000
# 6 0.000000 0.000000 0.000000 0.003334 0.000000 0.024696
#
#
# Mechanical properties :
#
#
# Convention : Reuss Voigt Hill
#
# Bulk Modulus (GPa) = 68.63128 84.92116 76.77622
# Shear Modulus (GPa) = 44.70394 49.52445 47.11420
#
# Velocity S-wave (km/s) = 4.16277 4.38146 4.27351
# Velocity P-wave (km/s) = 7.05042 7.64947 7.35605
#
# Compressibility (1/GPa) = 0.01457062
#
# Stress axis : x y z
#
# Youngs Moduli (GPa) = 88.13988 124.40033 162.91292
#
# Poissons Ratio (x) = 0.32658 -0.00275
# Poissons Ratio (y) = 0.23139 0.46716
# Poissons Ratio (z) = -0.00149 0.35673
#
# Static dielectric constant tensor:
#      x y z
#    x 1.669060 0.000000 -0.140610 
#    y 0.000000 2.018460 0.000000 
#    z -0.140610 0.000000 1.986810 
# 
# From -- ./inp_files/136016.got.cif
#   From: 2010.05.17/outbox.cif.g08.bks.cpg/sg15_69_cif.got.tgz:136016.got - 2010.06.03 18:47:42.
