data_PCOD9295082
_publ_section_title
;
Structure prediction by ZEFSAII (Michael W. Deem and Ramdas Pophale) SiO2 
 PCOD9295082
Probable space group: C 2/C
;
_chemical_formula_sum "Si O2"
_cell_formula_units_Z 56
_cell_length_a 16.157258
_cell_length_b 18.036814
_cell_length_c 8.581178
_cell_angle_alpha 90.000000
_cell_angle_beta 65.183135
_cell_angle_gamma 90.000000
_cell_volume 2269.837207
_symmetry_space_group_name_H-M "C 2/C"
_symmetry_group_IT_number 15
_symmetry_cell_setting 'monoclinic'
loop_
_space_group_symop_operation_xyz
x,y,z
-x,y,1/2-z
-x,-y,-z
x,-y,1/2+z
1/2+x,1/2+y,z
1/2-x,1/2+y,1/2-z
1/2-x,1/2-y,-z
1/2+x,1/2-y,1/2+z
loop_
_atom_site_type_symbol
_atom_site_label
_atom_site_fract_x
_atom_site_fract_y
_atom_site_fract_z
Si Si1 0.341543 0.414601 0.170070
Si Si2 0.011349 0.257694 0.563088
Si Si3 0.188925 0.663236 0.907007
Si Si4 0.519066 0.610957 0.410511
Si Si5 0.204826 0.932815 0.655868
Si Si6 0.933945 0.458110 0.172766
Si Si7 0.134405 0.614281 0.277297
O O1 0.292747 0.339742 0.268382
O O2 0.298383 0.480139 0.305291
O O3 0.450505 0.426405 0.087042
O O4 0.315915 0.420266 0.008298
O O5 0.984568 0.195560 0.460830
O O6 0.953171 0.334461 0.612411
O O7 0.000000 0.229229 0.750000
O O8 0.117515 0.270965 0.441204
O O9 0.135438 0.597979 0.853049
O O10 0.185918 0.652606 0.094465
O O11 0.500000 0.585832 0.250000
O O12 0.626863 0.599954 0.333501
O O13 0.301357 0.898294 0.626185
O O14 0.885044 0.531979 0.276241
O O15 0.000000 0.422922 0.250000
O O16 0.000000 0.500000 0.000000
#
# Coordination Sequence:
#
# PCOD9295082 Si02
#       7
#     8   8   8   8   8   8   8
#     4  11  24  41  65  93 123 158 207 259 312 362
#     4  10  23  42  64  89 126 167 205 245 302 370
#     4  11  23  38  60  94 128 160 201 250 306 368
#     4  10  25  47  63  86 121 165 212 260 304 361
#     4  11  24  41  66  92 123 159 206 259 313 361
#     4  12  21  34  57  87 128 165 196 245 305 364
#     4  11  22  39  59  94 128 160 201 250 304 370
#
# _framework density 24.671372999999999
#
# number of rings (size 3 to 8) (size 9 to 14) (size 15 to 20)
#    0.000    1.143    4.286    1.714    2.000    5.143 
#    0.000    5.714    0.000    0.000    0.000    0.000 
#    0.000    0.000    0.000    0.000    0.000    0.000 
#
# Total GULP energy -156368.794011 kJ/mol
# GULP energy per Si atom -5584.599786 kJ/mol
# Density = 2.461522 g / cm^3
# Si number density = 24.671373 Si / 1000 Ang^3
#
#
#
# Elastic Constant Matrix: (Units=GPa)
#
#
# Indices 1 2 3 4 5 6 
#
# 1 52.5031 3.0926 13.0247 0.0000 -14.2221 0.0000
# 2 3.0926 35.0547 1.6135 0.0000 0.2755 0.0000
# 3 13.0247 1.6135 89.4243 0.0000 -25.4185 0.0000
# 4 0.0000 0.0000 0.0000 24.2997 0.0000 2.3627
# 5 -14.2221 0.2755 -25.4185 0.0000 44.0077 0.0000
# 6 0.0000 0.0000 0.0000 2.3627 0.0000 22.1251
#
#
#
# Elastic Compliance Matrix: (Units=1/GPa)
#
#
# Indices 1 2 3 4 5 6 
#
# 1 0.021129 -0.001851 -0.001316 0.000000 0.006080 0.000000
# 2 -0.001851 0.028725 -0.000562 0.000000 -0.001103 0.000000
# 3 -0.001316 -0.000562 0.013477 0.000000 0.007363 0.000000
# 4 0.000000 0.000000 0.000000 0.041584 0.000000 -0.004441
# 5 0.006080 -0.001103 0.007363 0.000000 0.028948 0.000000
# 6 0.000000 0.000000 0.000000 -0.004441 0.000000 0.045672
#
#
# Mechanical properties :
#
#
# Convention : Reuss Voigt Hill
#
# Bulk Modulus (GPa) = 17.89794 23.60488 20.75141
# Shear Modulus (GPa) = 24.31704 28.70327 26.51016
#
# Velocity S-wave (km/s) = 3.14289 3.41460 3.28156
# Velocity P-wave (km/s) = 4.52113 5.01343 4.77363
#
# Compressibility (1/GPa) = 0.05587234
#
# Stress axis : x y z
#
# Youngs Moduli (GPa) = 47.32860 34.81328 74.19922
#
# Poissons Ratio (x) = 0.06445 0.09764
# Poissons Ratio (y) = 0.08762 0.04171
# Poissons Ratio (z) = 0.06228 0.01957
#
# Static dielectric constant tensor:
#      x y z
#    x 2.034110 0.000000 -0.112820 
#    y 0.000000 2.071510 0.000000 
#    z -0.112820 0.000000 1.955630 
# 
# From -- ./inp_files/50112.got.cif
#   From: 2010.05.17/outbox.cif.g08.bks.cpg/sg15_26_cif.got.tgz:50112.got - 2010.06.03 18:47:42.
