data_PCOD9295802
_publ_section_title
;
Structure prediction by ZEFSAII (Michael W. Deem and Ramdas Pophale) SiO2 
 PCOD9295802
Probable space group: C 2/C
;
_chemical_formula_sum "Si O2"
_cell_formula_units_Z 44
_cell_length_a 7.696370
_cell_length_b 21.195332
_cell_length_c 12.018351
_cell_angle_alpha 90.000000
_cell_angle_beta 66.919552
_cell_angle_gamma 90.000000
_cell_volume 1803.589856
_symmetry_space_group_name_H-M "C 2/C"
_symmetry_group_IT_number 15
_symmetry_cell_setting 'monoclinic'
loop_
_space_group_symop_operation_xyz
x,y,z
-x,y,1/2-z
-x,-y,-z
x,-y,1/2+z
1/2+x,1/2+y,z
1/2-x,1/2+y,1/2-z
1/2-x,1/2-y,-z
1/2+x,1/2-y,1/2+z
loop_
_atom_site_type_symbol
_atom_site_label
_atom_site_fract_x
_atom_site_fract_y
_atom_site_fract_z
Si Si1 0.000000 0.424255 0.750000
Si Si2 0.338437 0.368270 0.025987
Si Si3 0.641105 0.368039 0.109872
Si Si4 0.798448 0.494356 0.990716
Si Si5 0.817286 0.300037 0.233629
Si Si6 0.773334 0.169422 0.312276
O O1 0.145400 0.466304 0.642914
O O2 0.132164 0.383035 0.798646
O O3 0.549026 0.350183 0.014871
O O4 0.311364 0.440142 0.994943
O O5 0.229151 0.356486 0.168409
O O6 0.256557 0.325543 0.949752
O O7 0.500000 0.355515 0.250000
O O8 0.817152 0.327877 0.110098
O O9 0.684026 0.441471 0.086840
O O10 0.000000 0.500000 0.000000
O O11 0.706184 0.234361 0.270619
O O12 0.000000 0.274486 0.250000
O O13 0.000000 0.149807 0.250000
#
# Coordination Sequence:
#
# PCOD9295802 Si02
#       6
#     4   8   8   8   8   8
#     4  12  28  44  74 102 148 182 240 288 356 420
#     4  11  23  42  68  96 137 177 236 286 347 412
#     4  10  24  42  70 101 135 183 229 289 354 421
#     4  12  25  44  66 104 137 187 227 292 351 417
#     4  10  23  43  69  99 138 180 233 286 348 422
#     4  11  25  46  67 102 140 186 236 290 349 417
#
# _framework density 24.395792
#
# number of rings (size 3 to 8) (size 9 to 14) (size 15 to 20)
#    0.000    1.091    1.818    3.273   10.182    0.727 
#    0.000    2.727    0.000    0.000    0.000    0.000 
#    0.000    0.000    0.000    0.000    0.000    0.000 
#
# Total GULP energy -122661.641170 kJ/mol
# GULP energy per Si atom -5575.529144 kJ/mol
# Density = 2.434027 g / cm^3
# Si number density = 24.395792 Si / 1000 Ang^3
#
#
#
# Elastic Constant Matrix: (Units=GPa)
#
#
# Indices 1 2 3 4 5 6 
#
# 1 91.0256 5.2897 31.7656 0.0000 30.3525 0.0000
# 2 5.2897 110.8536 26.7035 0.0000 14.6919 0.0000
# 3 31.7656 26.7035 68.2608 0.0000 32.3373 0.0000
# 4 0.0000 0.0000 0.0000 -20.7061 0.0000 -16.6701
# 5 30.3525 14.6919 32.3373 0.0000 37.2126 0.0000
# 6 0.0000 0.0000 0.0000 -16.6701 0.0000 15.1331
#
#
#
# Elastic Compliance Matrix: (Units=1/GPa)
#
#
# Indices 1 2 3 4 5 6 
#
# 1 0.015429 0.001318 -0.002528 0.000000 -0.010908 0.000000
# 2 0.001318 0.010091 -0.003679 0.000000 -0.001863 0.000000
# 3 -0.002528 -0.003679 0.026516 0.000000 -0.019528 0.000000
# 4 0.000000 0.000000 0.000000 -0.025596 0.000000 -0.028195
# 5 -0.010908 -0.001863 -0.019528 0.000000 0.053475 0.000000
# 6 0.000000 0.000000 0.000000 -0.028195 0.000000 0.035022
#
#
# Mechanical properties :
#
#
# Convention : Reuss Voigt Hill
#
# Bulk Modulus (GPa) = 23.66336 44.18417 33.92376
# Shear Modulus (GPa) = 36.02294 20.08667 28.05480
#
# Velocity S-wave (km/s) = 3.84683 2.87255 3.39482
# Velocity P-wave (km/s) = 5.42694 5.39933 5.41315
#
# Compressibility (1/GPa) = 0.04225943
#
# Stress axis : x y z
#
# Youngs Moduli (GPa) = 64.81334 99.09791 37.71264
#
# Poissons Ratio (x) = -0.13066 0.09534
# Poissons Ratio (y) = -0.08546 0.13874
# Poissons Ratio (z) = 0.16386 0.36456
#
# Static dielectric constant tensor:
#      x y z
#    x 2.507850 0.000000 -0.050310 
#    y 0.000000 1.889740 0.000000 
#    z -0.050310 0.000000 1.984680 
# 
# From -- ./inp_files/78195.got.cif
#   From: 2010.05.17/outbox.cif.g08.bks.cpg/sg15_40_cif.got.tgz:78195.got - 2010.06.03 18:47:42.
