data_PCOD9295578
_publ_section_title
;
Structure prediction by ZEFSAII (Michael W. Deem and Ramdas Pophale) SiO2 
 PCOD9295578
Probable space group: C 2/C
;
_chemical_formula_sum "Si O2"
_cell_formula_units_Z 48
_cell_length_a 27.491238
_cell_length_b 5.210224
_cell_length_c 16.071995
_cell_angle_alpha 90.000000
_cell_angle_beta 61.058695
_cell_angle_gamma 90.000000
_cell_volume 2014.587127
_symmetry_space_group_name_H-M "C 2/C"
_symmetry_group_IT_number 15
_symmetry_cell_setting 'monoclinic'
loop_
_space_group_symop_operation_xyz
x,y,z
-x,y,1/2-z
-x,-y,-z
x,-y,1/2+z
1/2+x,1/2+y,z
1/2-x,1/2+y,1/2-z
1/2-x,1/2-y,-z
1/2+x,1/2-y,1/2+z
loop_
_atom_site_type_symbol
_atom_site_label
_atom_site_fract_x
_atom_site_fract_y
_atom_site_fract_z
Si Si1 0.009393 0.443996 0.895683
Si Si2 0.451246 0.553629 0.222190
Si Si3 0.655698 0.535182 0.073970
Si Si4 0.710460 0.544454 0.685773
Si Si5 0.618408 0.041193 0.013767
Si Si6 0.824402 0.543453 0.695045
O O1 0.036374 0.169774 0.854228
O O2 0.946671 0.450140 0.909347
O O3 0.044519 0.669087 0.823756
O O4 0.000000 0.500000 0.000000
O O5 0.500000 0.538848 0.250000
O O6 0.394632 0.510514 0.318415
O O7 0.709162 0.503209 0.088333
O O8 0.647747 0.805138 0.035551
O O9 0.647343 0.306932 0.015651
O O10 0.770995 0.533941 0.677468
O O11 0.677070 0.315324 0.758478
O O12 0.684055 0.817252 0.731955
O O13 0.624880 0.005646 0.909450
#
# Coordination Sequence:
#
# PCOD9295578 Si02
#       6
#     8   8   8   8   8   8
#     4  12  26  41  62  92 124 164 207 250 305 355
#     4  12  23  44  62  87 129 164 199 253 301 365
#     4  12  25  39  66  92 123 164 206 245 309 361
#     4  10  23  43  65  93 118 166 201 247 313 366
#     4  12  24  41  61  95 124 160 204 258 299 357
#     4  10  23  43  66  89 128 155 203 256 303 364
#
# _framework density 23.826222000000001
#
# number of rings (size 3 to 8) (size 9 to 14) (size 15 to 20)
#    0.000    0.667    3.333    4.000    4.667    1.333 
#    0.000    0.000    0.000    0.000    0.000    0.000 
#    0.000    0.000    0.000    0.000    0.000    0.000 
#
# Total GULP energy -134569.612270 kJ/mol
# GULP energy per Si atom -5607.067178 kJ/mol
# Density = 2.377199 g / cm^3
# Si number density = 23.826222 Si / 1000 Ang^3
#
#
#
# Elastic Constant Matrix: (Units=GPa)
#
#
# Indices 1 2 3 4 5 6 
#
# 1 63.5483 -3.5665 -7.1207 -0.0070 16.7098 -0.0022
# 2 -3.5665 81.9270 -6.7358 -0.0317 -5.8764 -0.0452
# 3 -7.1207 -6.7358 56.9193 -0.0068 -5.7829 -0.0109
# 4 -0.0070 -0.0317 -0.0068 36.1005 -0.0023 9.9037
# 5 16.7098 -5.8764 -5.7829 -0.0023 32.7550 -0.0033
# 6 -0.0022 -0.0452 -0.0109 9.9037 -0.0033 14.7953
#
#
#
# Elastic Compliance Matrix: (Units=1/GPa)
#
#
# Indices 1 2 3 4 5 6 
#
# 1 0.018283 0.000263 0.001401 0.000003 -0.009032 0.000000
# 2 0.000263 0.012536 0.001763 0.000001 0.002426 0.000040
# 3 0.001401 0.001763 0.018239 0.000000 0.002822 0.000020
# 4 0.000003 0.000001 0.000000 0.033932 -0.000001 -0.022713
# 5 -0.009032 0.002426 0.002822 -0.000001 0.036071 0.000017
# 6 0.000000 0.000040 0.000020 -0.022713 0.000017 0.082793
#
#
# Mechanical properties :
#
#
# Convention : Reuss Voigt Hill
#
# Bulk Modulus (GPa) = 17.88517 18.61651 18.25084
# Shear Modulus (GPa) = 23.40407 31.38467 27.39437
#
# Velocity S-wave (km/s) = 3.13754 3.63331 3.39449
# Velocity P-wave (km/s) = 4.54404 5.04298 4.80000
#
# Compressibility (1/GPa) = 0.05591225
#
# Stress axis : x y z
#
# Youngs Moduli (GPa) = 54.69617 79.76751 54.82665
#
# Poissons Ratio (x) = -0.02099 -0.07680
# Poissons Ratio (y) = -0.01439 -0.09666
# Poissons Ratio (z) = -0.07661 -0.14063
#
# Static dielectric constant tensor:
#      x y z
#    x 2.002880 -0.000010 -0.000520 
#    y -0.000010 1.816080 -0.000010 
#    z -0.000520 -0.000010 1.848540 
# 
# From -- ./inp_files/179993.got.cif
#   From: 2010.05.17/outbox.cif.g08.bks.cpg/sg15_90_cif.got.tgz:179993.got - 2010.06.03 18:47:42.
