data_PCOD9295503
_publ_section_title
;
Structure prediction by ZEFSAII (Michael W. Deem and Ramdas Pophale) SiO2 
 PCOD9295503
Probable space group: C 2/C
;
_chemical_formula_sum "Si O2"
_cell_formula_units_Z 40
_cell_length_a 8.292848
_cell_length_b 28.814814
_cell_length_c 8.305876
_cell_angle_alpha 90.000000
_cell_angle_beta 77.899299
_cell_angle_gamma 90.000000
_cell_volume 1940.646428
_symmetry_space_group_name_H-M "C 2/C"
_symmetry_group_IT_number 15
_symmetry_cell_setting 'monoclinic'
loop_
_space_group_symop_operation_xyz
x,y,z
-x,y,1/2-z
-x,-y,-z
x,-y,1/2+z
1/2+x,1/2+y,z
1/2-x,1/2+y,1/2-z
1/2-x,1/2-y,-z
1/2+x,1/2-y,1/2+z
loop_
_atom_site_type_symbol
_atom_site_label
_atom_site_fract_x
_atom_site_fract_y
_atom_site_fract_z
Si Si1 0.916588 0.646778 0.436236
Si Si2 0.664100 0.437388 0.451104
Si Si3 0.500000 0.489341 0.750000
Si Si4 0.528228 0.652427 0.430925
Si Si5 0.552330 0.748195 0.560087
Si Si6 0.500000 0.093878 0.750000
O O1 0.720273 0.648215 0.441280
O O2 0.995682 0.698094 0.449283
O O3 0.943026 0.621531 0.601149
O O4 0.000000 0.629316 0.250000
O O5 0.634706 0.456344 0.637416
O O6 0.577448 0.475672 0.360577
O O7 0.579652 0.386523 0.455623
O O8 0.848153 0.434694 0.350818
O O9 0.500000 0.643168 0.250000
O O10 0.481764 0.706447 0.468800
O O11 0.500000 0.734720 0.750000
O O12 0.750000 0.750000 0.500000
#
# Coordination Sequence:
#
# PCOD9295503 Si02
#       6
#     8   8   4   8   8   4
#     4  10  23  43  61 102 145 177 226 278 322 391
#     4  11  24  44  67 102 123 179 217 277 343 406
#     4  10  24  46  71  90 136 162 225 278 340 420
#     4  11  22  40  69  96 131 182 227 272 332 397
#     4   9  21  38  59  92 132 177 223 268 321 377
#     4  12  26  42  73 102 138 176 223 272 344 394
#
# _framework density 20.611689999999999
#
# number of rings (size 3 to 8) (size 9 to 14) (size 15 to 20)
#    0.000    1.600    1.000    2.400    8.400    0.800 
#    0.000    4.000    0.000    0.000    0.000    0.000 
#    0.000    0.000    0.000    0.000    0.000    0.000 
#
# Total GULP energy -111494.360408 kJ/mol
# GULP energy per Si atom -5574.718020 kJ/mol
# Density = 2.056478 g / cm^3
# Si number density = 20.611690 Si / 1000 Ang^3
#
#
#
# Elastic Constant Matrix: (Units=GPa)
#
#
# Indices 1 2 3 4 5 6 
#
# 1 74.8933 30.1950 41.7804 0.0000 -11.3030 0.0000
# 2 30.1950 90.6587 39.3722 0.0000 -3.7539 0.0000
# 3 41.7804 39.3722 132.6208 0.0000 -14.1957 0.0000
# 4 0.0000 0.0000 0.0000 14.1743 0.0000 39.0215
# 5 -11.3030 -3.7539 -14.1957 0.0000 41.6939 0.0000
# 6 0.0000 0.0000 0.0000 39.0215 0.0000 33.9947
#
#
#
# Elastic Compliance Matrix: (Units=1/GPa)
#
#
# Indices 1 2 3 4 5 6 
#
# 1 0.017691 -0.004003 -0.004058 0.000000 0.003054 0.000000
# 2 -0.004003 0.013570 -0.002857 0.000000 -0.000836 0.000000
# 3 -0.004058 -0.002857 0.009882 0.000000 0.002007 0.000000
# 4 0.000000 0.000000 0.000000 -0.032661 0.000000 0.037491
# 5 0.003054 -0.000836 0.002007 0.000000 0.025420 0.000000
# 6 0.000000 0.000000 0.000000 0.037491 0.000000 -0.013618
#
#
# Mechanical properties :
#
#
# Convention : Reuss Voigt Hill
#
# Bulk Modulus (GPa) = 51.79699 57.87421 54.83560
# Shear Modulus (GPa) = 102.97541 30.42761 66.70151
#
# Velocity S-wave (km/s) = 7.07589 3.84634 5.69485
# Velocity P-wave (km/s) = 9.58864 6.91846 8.36084
#
# Compressibility (1/GPa) = 0.01930614
#
# Stress axis : x y z
#
# Youngs Moduli (GPa) = 56.52569 73.69266 101.19750
#
# Poissons Ratio (x) = 0.29503 0.41065
# Poissons Ratio (y) = 0.22630 0.28911
# Poissons Ratio (z) = 0.22938 0.21053
#
# Static dielectric constant tensor:
#      x y z
#    x 1.723570 0.000000 -0.022660 
#    y 0.000000 1.770120 0.000000 
#    z -0.022660 0.000000 1.776340 
# 
# From -- ./inp_files/24480.got.cif
#   From: 2010.05.17/outbox.cif.g08.bks.cpg/sg15_13_cif.got.tgz:24480.got - 2010.06.03 18:47:42.
