data_PCOD9295831
_publ_section_title
;
Structure prediction by ZEFSAII (Michael W. Deem and Ramdas Pophale) SiO2 
 PCOD9295831
Probable space group: C 2/C
;
_chemical_formula_sum "Si O2"
_cell_formula_units_Z 40
_cell_length_a 10.862911
_cell_length_b 18.776252
_cell_length_c 9.051712
_cell_angle_alpha 90.000000
_cell_angle_beta 106.667556
_cell_angle_gamma 90.000000
_cell_volume 1768.660964
_symmetry_space_group_name_H-M "C 2/C"
_symmetry_group_IT_number 15
_symmetry_cell_setting 'monoclinic'
loop_
_space_group_symop_operation_xyz
x,y,z
-x,y,1/2-z
-x,-y,-z
x,-y,1/2+z
1/2+x,1/2+y,z
1/2-x,1/2+y,1/2-z
1/2-x,1/2-y,-z
1/2+x,1/2-y,1/2+z
loop_
_atom_site_type_symbol
_atom_site_label
_atom_site_fract_x
_atom_site_fract_y
_atom_site_fract_z
Si Si1 0.369595 0.045690 0.954696
Si Si2 0.266878 0.077730 0.595029
Si Si3 0.226474 0.674356 0.409564
Si Si4 0.496446 0.341787 0.427435
Si Si5 0.359006 0.205383 0.452680
O O1 0.323062 0.061434 0.774534
O O2 0.371170 0.120307 0.043664
O O3 0.500000 0.000000 0.000000
O O4 0.268562 0.993267 0.999481
O O5 0.125490 0.111928 0.563477
O O6 0.362462 0.133810 0.548066
O O7 0.250000 0.750000 0.500000
O O8 0.365537 0.636215 0.464361
O O9 0.184076 0.688154 0.228436
O O10 0.500000 0.341126 0.250000
O O11 0.473956 0.261228 0.478198
O O12 0.250000 0.250000 0.500000
#
# Coordination Sequence:
#
# PCOD9295831 Si02
#       5
#     8   8   8   8   8
#     4  12  27  47  71 105 148 196 244 305 374 447
#     4  11  25  47  69 106 147 193 247 302 374 438
#     4  12  24  45  78 108 145 197 247 304 377 438
#     4  11  22  46  75 108 146 191 248 312 362 448
#     4  10  23  43  70 110 147 190 245 301 373 440
#
# _framework density 22.615981000000001
#
# number of rings (size 3 to 8) (size 9 to 14) (size 15 to 20)
#    0.000    0.800    4.000    3.000    2.800    4.000 
#    7.200    0.000    0.000    0.000    0.000    0.000 
#    0.000    0.000    0.000    0.000    0.000    0.000 
#
# Total GULP energy -111951.037117 kJ/mol
# GULP energy per Si atom -5597.551856 kJ/mol
# Density = 2.256451 g / cm^3
# Si number density = 22.615981 Si / 1000 Ang^3
#
#
#
# Elastic Constant Matrix: (Units=GPa)
#
#
# Indices 1 2 3 4 5 6 
#
# 1 139.8738 56.2520 27.3206 0.0000 -3.4752 0.0000
# 2 56.2520 172.8437 63.8739 0.0000 -23.1553 0.0000
# 3 27.3206 63.8739 150.2387 0.0000 -22.1828 0.0000
# 4 0.0000 0.0000 0.0000 46.0140 0.0000 -17.1552
# 5 -3.4752 -23.1553 -22.1828 0.0000 36.8623 0.0000
# 6 0.0000 0.0000 0.0000 -17.1552 0.0000 58.2418
#
#
#
# Elastic Compliance Matrix: (Units=1/GPa)
#
#
# Indices 1 2 3 4 5 6 
#
# 1 0.008297 -0.002657 -0.000560 0.000000 -0.001224 0.000000
# 2 -0.002657 0.007990 -0.002425 0.000000 0.003309 0.000000
# 3 -0.000560 -0.002425 0.008293 0.000000 0.003414 0.000000
# 4 0.000000 0.000000 0.000000 0.024414 0.000000 0.007191
# 5 -0.001224 0.003309 0.003414 0.000000 0.031146 0.000000
# 6 0.000000 0.000000 0.000000 0.007191 0.000000 0.019288
#
#
# Mechanical properties :
#
#
# Convention : Reuss Voigt Hill
#
# Bulk Modulus (GPa) = 75.21324 84.20550 79.70937
# Shear Modulus (GPa) = 43.42414 49.25758 46.34086
#
# Velocity S-wave (km/s) = 4.38661 4.67197 4.53153
# Velocity P-wave (km/s) = 7.68019 8.14964 7.91839
#
# Compressibility (1/GPa) = 0.01329553
#
# Stress axis : x y z
#
# Youngs Moduli (GPa) = 120.52692 125.15821 120.58331
#
# Poissons Ratio (x) = 0.33259 0.06749
# Poissons Ratio (y) = 0.32028 0.29243
# Poissons Ratio (z) = 0.06746 0.30352
#
# Static dielectric constant tensor:
#      x y z
#    x 1.856670 0.000000 -0.023050 
#    y 0.000000 1.834720 0.000000 
#    z -0.023050 0.000000 1.751470 
# 
# From -- ./inp_files/29337.got.cif
#   From: 2010.05.17/outbox.cif.g08.bks.cpg/sg15_15_cif.got.tgz:29337.got - 2010.06.03 18:47:42.
