data_PCOD9295423
_publ_section_title
;
Structure prediction by ZEFSAII (Michael W. Deem and Ramdas Pophale) SiO2 
 PCOD9295423
Probable space group: C 2/C
;
_chemical_formula_sum "Si O2"
_cell_formula_units_Z 32
_cell_length_a 7.173478
_cell_length_b 21.466956
_cell_length_c 9.850456
_cell_angle_alpha 90.000000
_cell_angle_beta 125.101446
_cell_angle_gamma 90.000000
_cell_volume 1241.028210
_symmetry_space_group_name_H-M "C 2/C"
_symmetry_group_IT_number 15
_symmetry_cell_setting 'monoclinic'
loop_
_space_group_symop_operation_xyz
x,y,z
-x,y,1/2-z
-x,-y,-z
x,-y,1/2+z
1/2+x,1/2+y,z
1/2-x,1/2+y,1/2-z
1/2-x,1/2-y,-z
1/2+x,1/2-y,1/2+z
loop_
_atom_site_type_symbol
_atom_site_label
_atom_site_fract_x
_atom_site_fract_y
_atom_site_fract_z
Si Si1 0.524292 0.100185 0.565288
Si Si2 0.244027 0.775023 0.346352
Si Si3 0.695512 0.362085 0.719348
Si Si4 0.887377 0.935906 0.408149
O O1 0.574190 0.173257 0.615893
O O2 0.417129 0.101337 0.369049
O O3 0.323913 0.076718 0.578356
O O4 0.757570 0.065736 0.707872
O O5 0.250000 0.750000 0.500000
O O6 0.252379 0.711659 0.263916
O O7 0.000000 0.807433 0.250000
O O8 0.500000 0.371217 0.750000
O O9 0.581059 0.385576 0.531999
O O10 0.000000 0.000000 0.500000
#
# Coordination Sequence:
#
# PCOD9295423 Si02
#       4
#     8   8   8   8
#     4  10  23  44  70 102 143 191 236 305 369 426
#     4  12  23  41  67 108 150 186 236 302 373 452
#     4  10  23  42  71 103 139 192 244 297 374 438
#     4  10  23  45  69 104 138 191 258 304 357 434
#
# _framework density 25.785072
#
# number of rings (size 3 to 8) (size 9 to 14) (size 15 to 20)
#    0.000    1.500    2.500    1.500    3.500    3.000 
#    4.500   11.250    0.000    0.000    0.000    0.000 
#    0.000    0.000    0.000    0.000    0.000    0.000 
#
# Total GULP energy -89393.156891 kJ/mol
# GULP energy per Si atom -5587.072306 kJ/mol
# Density = 2.572638 g / cm^3
# Si number density = 25.785072 Si / 1000 Ang^3
#
#
#
# Elastic Constant Matrix: (Units=GPa)
#
#
# Indices 1 2 3 4 5 6 
#
# 1 93.9249 37.2532 51.6018 0.0000 29.1907 0.0000
# 2 37.2532 136.5906 56.6619 0.0000 23.7892 0.0000
# 3 51.6018 56.6619 228.6042 0.0000 29.5832 0.0000
# 4 0.0000 0.0000 0.0000 48.9157 0.0000 20.4334
# 5 29.1907 23.7892 29.5832 0.0000 41.3975 0.0000
# 6 0.0000 0.0000 0.0000 20.4334 0.0000 65.5238
#
#
#
# Elastic Compliance Matrix: (Units=1/GPa)
#
#
# Indices 1 2 3 4 5 6 
#
# 1 0.014939 -0.001891 -0.001852 0.000000 -0.008124 0.000000
# 2 -0.001891 0.008910 -0.001423 0.000000 -0.002769 0.000000
# 3 -0.001852 -0.001423 0.005367 0.000000 -0.001711 0.000000
# 4 0.000000 0.000000 0.000000 0.023505 0.000000 -0.007330
# 5 -0.008124 -0.002769 -0.001711 0.000000 0.032699 0.000000
# 6 0.000000 0.000000 0.000000 -0.007330 0.000000 0.017547
#
#
# Mechanical properties :
#
#
# Convention : Reuss Voigt Hill
#
# Bulk Modulus (GPa) = 52.95885 83.35041 68.15463
# Shear Modulus (GPa) = 41.80806 52.07423 46.94114
#
# Velocity S-wave (km/s) = 4.03104 4.49882 4.27133
# Velocity P-wave (km/s) = 6.49991 7.70591 7.12846
#
# Compressibility (1/GPa) = 0.01888258
#
# Stress axis : x y z
#
# Youngs Moduli (GPa) = 66.93773 112.23818 186.33710
#
# Poissons Ratio (x) = 0.21228 0.34512
# Poissons Ratio (y) = 0.12660 0.26517
# Poissons Ratio (z) = 0.12398 0.15972
#
# Static dielectric constant tensor:
#      x y z
#    x 2.028250 0.000000 0.016050 
#    y 0.000000 2.023430 0.000000 
#    z 0.016050 0.000000 2.196140 
# 
# From -- ./inp_files/78037.got.cif
#   From: 2010.05.17/outbox.cif.g08.bks.cpg/sg15_40_cif.got.tgz:78037.got - 2010.06.03 18:47:42.
