data_PCOD9295651
_publ_section_title
;
Structure prediction by ZEFSAII (Michael W. Deem and Ramdas Pophale) SiO2 
 PCOD9295651
Probable space group: C 2/C
;
_chemical_formula_sum "Si O2"
_cell_formula_units_Z 40
_cell_length_a 18.442974
_cell_length_b 5.127181
_cell_length_c 18.219914
_cell_angle_alpha 90.000000
_cell_angle_beta 56.355208
_cell_angle_gamma 90.000000
_cell_volume 1434.280510
_symmetry_space_group_name_H-M "C 2/C"
_symmetry_group_IT_number 15
_symmetry_cell_setting 'monoclinic'
loop_
_space_group_symop_operation_xyz
x,y,z
-x,y,1/2-z
-x,-y,-z
x,-y,1/2+z
1/2+x,1/2+y,z
1/2-x,1/2+y,1/2-z
1/2-x,1/2-y,-z
1/2+x,1/2-y,1/2+z
loop_
_atom_site_type_symbol
_atom_site_label
_atom_site_fract_x
_atom_site_fract_y
_atom_site_fract_z
Si Si1 0.298409 0.249583 0.159213
Si Si2 0.032878 0.457490 0.660162
Si Si3 0.602764 0.400355 0.816019
Si Si4 0.080660 0.323065 0.476566
Si Si5 0.771024 0.496560 0.439744
O O1 0.362586 0.295944 0.194475
O O2 0.199624 0.209743 0.243599
O O3 0.337307 0.008983 0.090651
O O4 0.283362 0.470514 0.104275
O O5 0.059567 0.282941 0.574298
O O6 0.127923 0.542896 0.632831
O O7 0.000000 0.299948 0.750000
O O8 0.970615 0.710493 0.679143
O O9 0.575404 0.389777 0.916619
O O10 0.000000 0.500000 0.500000
O O11 0.750000 0.250000 0.500000
O O12 0.750000 0.750000 0.500000
#
# Coordination Sequence:
#
# PCOD9295651 Si02
#       5
#     8   8   8   8   8
#     4  12  23  43  77 104 150 203 253 317 386 470
#     4  11  23  46  70 107 154 196 259 321 388 452
#     4  11  24  42  71 110 148 197 256 313 389 462
#     4  10  23  43  67 102 148 185 254 301 383 450
#     4  12  27  51  78 110 153 204 257 321 391 459
#
# _framework density 27.888546000000002
#
# number of rings (size 3 to 8) (size 9 to 14) (size 15 to 20)
#    0.000    0.800    6.000    1.200    0.000    3.200 
#    7.200    1.000    0.000    0.000    0.000    0.000 
#    0.000    0.000    0.000    0.000    0.000    0.000 
#
# Total GULP energy -111405.378212 kJ/mol
# GULP energy per Si atom -5570.268911 kJ/mol
# Density = 2.782507 g / cm^3
# Si number density = 27.888546 Si / 1000 Ang^3
#
#
#
# Elastic Constant Matrix: (Units=GPa)
#
#
# Indices 1 2 3 4 5 6 
#
# 1 122.0044 21.9343 19.3161 0.0252 -10.3361 0.0423
# 2 21.9343 129.2975 30.8872 0.0701 -1.1721 0.1004
# 3 19.3161 30.8872 196.1126 -0.0152 10.5846 0.0156
# 4 0.0252 0.0701 -0.0152 22.4784 -0.0031 -7.3887
# 5 -10.3361 -1.1721 10.5846 -0.0031 62.1930 0.0152
# 6 0.0423 0.1004 0.0156 -7.3887 0.0152 33.0422
#
#
#
# Elastic Compliance Matrix: (Units=1/GPa)
#
#
# Indices 1 2 3 4 5 6 
#
# 1 0.008674 -0.001282 -0.000736 -0.000009 0.001543 -0.000010
# 2 -0.001282 0.008234 -0.001178 -0.000035 0.000143 -0.000031
# 3 -0.000736 -0.001178 0.005415 0.000010 -0.001066 0.000005
# 4 -0.000009 -0.000035 0.000010 0.048017 -0.000004 0.010737
# 5 0.001543 0.000143 -0.001066 -0.000004 0.016519 -0.000010
# 6 -0.000010 -0.000031 0.000005 0.010737 -0.000010 0.032665
#
#
# Mechanical properties :
#
#
# Convention : Reuss Voigt Hill
#
# Bulk Modulus (GPa) = 62.76887 65.74331 64.25609
# Shear Modulus (GPa) = 38.10197 48.56118 43.33157
#
# Velocity S-wave (km/s) = 3.70026 4.17737 3.94603
# Velocity P-wave (km/s) = 6.38841 6.84777 6.62207
#
# Compressibility (1/GPa) = 0.01593146
#
# Stress axis : x y z
#
# Youngs Moduli (GPa) = 115.28652 121.44232 184.68248
#
# Poissons Ratio (x) = 0.15566 0.13588
# Poissons Ratio (y) = 0.14777 0.21762
# Poissons Ratio (z) = 0.08482 0.14310
#
# Static dielectric constant tensor:
#      x y z
#    x 2.374850 -0.000140 0.010000 
#    y -0.000140 1.259320 -0.000830 
#    z 0.010000 -0.000830 1.463480 
# 
# From -- ./inp_files/250990.got.cif
#   From: 2010.05.17/outbox.cif.g08.bks.cpg/sg15_126_cif.got.tgz:250990.got - 2010.06.03 18:47:42.
