data_PCOD9295470
_publ_section_title
;
Structure prediction by ZEFSAII (Michael W. Deem and Ramdas Pophale) SiO2 
 PCOD9295470
Probable space group: C 2/C
;
_chemical_formula_sum "Si O2"
_cell_formula_units_Z 32
_cell_length_a 28.350337
_cell_length_b 5.137821
_cell_length_c 14.416795
_cell_angle_alpha 90.000000
_cell_angle_beta 141.430824
_cell_angle_gamma 90.000000
_cell_volume 1309.223709
_symmetry_space_group_name_H-M "C 2/C"
_symmetry_group_IT_number 15
_symmetry_cell_setting 'monoclinic'
loop_
_space_group_symop_operation_xyz
x,y,z
-x,y,1/2-z
-x,-y,-z
x,-y,1/2+z
1/2+x,1/2+y,z
1/2-x,1/2+y,1/2-z
1/2-x,1/2-y,-z
1/2+x,1/2-y,1/2+z
loop_
_atom_site_type_symbol
_atom_site_label
_atom_site_fract_x
_atom_site_fract_y
_atom_site_fract_z
Si Si1 0.917961 0.837638 0.605397
Si Si2 0.217749 0.000677 0.502472
Si Si3 0.075549 0.895462 0.569622
Si Si4 0.160243 0.391311 0.678417
O O1 0.871062 0.954148 0.618070
O O2 0.934107 0.065760 0.555773
O O3 0.863188 0.638902 0.465116
O O4 0.000000 0.718402 0.750000
O O5 0.250000 0.250000 0.500000
O O6 0.250000 0.750000 0.500000
O O7 0.256327 0.975351 0.664698
O O8 0.140767 0.108205 0.689710
O O9 0.103449 0.607168 0.633498
O O10 0.000000 0.000000 0.500000
#
# Coordination Sequence:
#
# PCOD9295470 Si02
#       4
#     8   8   8   8
#     4  10  28  45  75 106 145 188 249 300 363 433
#     4  12  29  46  74 108 149 190 246 300 369 434
#     4  10  23  42  73 102 142 183 239 296 367 422
#     4  10  25  44  74  97 147 188 244 285 370 425
#
# _framework density 24.441966000000001
#
# number of rings (size 3 to 8) (size 9 to 14) (size 15 to 20)
#    1.500    0.000    0.000    2.250   14.000    1.000 
#    0.000    0.000    0.000    0.000    0.000    0.000 
#    0.000    0.000    0.000    0.000    0.000    0.000 
#
# Total GULP energy -89343.309921 kJ/mol
# GULP energy per Si atom -5583.956870 kJ/mol
# Density = 2.438634 g / cm^3
# Si number density = 24.441966 Si / 1000 Ang^3
#
#
#
# Elastic Constant Matrix: (Units=GPa)
#
#
# Indices 1 2 3 4 5 6 
#
# 1 129.0569 32.3438 15.7770 -0.0001 27.1200 0.0000
# 2 32.3438 131.2845 12.1563 -0.0005 1.3390 0.0002
# 3 15.7770 12.1563 113.4906 -0.0001 8.1002 0.0001
# 4 -0.0001 -0.0005 -0.0001 29.7125 0.0000 -5.8266
# 5 27.1200 1.3390 8.1002 0.0000 37.4687 0.0000
# 6 0.0000 0.0002 0.0001 -5.8266 0.0000 31.2650
#
#
#
# Elastic Compliance Matrix: (Units=1/GPa)
#
#
# Indices 1 2 3 4 5 6 
#
# 1 0.009855 -0.002299 -0.000630 0.000000 -0.006915 0.000000
# 2 -0.002299 0.008230 -0.000670 0.000000 0.001515 0.000000
# 3 -0.000630 -0.000670 0.009076 0.000000 -0.001482 0.000000
# 4 0.000000 0.000000 0.000000 0.034932 0.000000 0.006510
# 5 -0.006915 0.001515 -0.001482 0.000000 0.031960 0.000000
# 6 0.000000 0.000000 0.000000 0.006510 0.000000 0.033198
#
#
# Mechanical properties :
#
#
# Convention : Reuss Voigt Hill
#
# Bulk Modulus (GPa) = 50.09332 54.93181 52.51256
# Shear Modulus (GPa) = 35.43479 40.59291 38.01385
#
# Velocity S-wave (km/s) = 3.81169 4.07970 3.94797
# Velocity P-wave (km/s) = 6.31754 6.68693 6.50486
#
# Compressibility (1/GPa) = 0.01996274
#
# Stress axis : x y z
#
# Youngs Moduli (GPa) = 101.47395 121.50634 110.17506
#
# Poissons Ratio (x) = 0.27934 0.06943
# Poissons Ratio (y) = 0.23329 0.07382
# Poissons Ratio (z) = 0.06395 0.08142
#
# Static dielectric constant tensor:
#      x y z
#    x 1.920400 0.000000 -0.100300 
#    y 0.000000 1.883010 0.000000 
#    z -0.100300 0.000000 2.078390 
# 
# From -- ./inp_files/256224.got.cif
#   From: 2010.05.17/outbox.cif.g08.bks.cpg/sg15_129_cif.got.tgz:256224.got - 2010.06.03 18:47:42.
