data_PCOD9295474
_publ_section_title
;
Structure prediction by ZEFSAII (Michael W. Deem and Ramdas Pophale) SiO2 
 PCOD9295474
Probable space group: C 2/C
;
_chemical_formula_sum "Si O2"
_cell_formula_units_Z 44
_cell_length_a 19.199630
_cell_length_b 13.694992
_cell_length_c 9.946616
_cell_angle_alpha 90.000000
_cell_angle_beta 50.166917
_cell_angle_gamma 90.000000
_cell_volume 2008.364155
_symmetry_space_group_name_H-M "C 2/C"
_symmetry_group_IT_number 15
_symmetry_cell_setting 'monoclinic'
loop_
_space_group_symop_operation_xyz
x,y,z
-x,y,1/2-z
-x,-y,-z
x,-y,1/2+z
1/2+x,1/2+y,z
1/2-x,1/2+y,1/2-z
1/2-x,1/2-y,-z
1/2+x,1/2-y,1/2+z
loop_
_atom_site_type_symbol
_atom_site_label
_atom_site_fract_x
_atom_site_fract_y
_atom_site_fract_z
Si Si1 0.939713 0.695217 0.013242
Si Si2 0.435162 0.889329 0.955370
Si Si3 0.854941 0.776053 0.389792
Si Si4 0.168007 0.992903 0.012078
Si Si5 0.211939 0.446575 0.893327
Si Si6 0.000000 0.138998 0.250000
O O1 0.902530 0.733460 0.200230
O O2 0.853645 0.647996 0.042368
O O3 0.011829 0.613724 0.969788
O O4 0.993586 0.783211 0.878715
O O5 0.500000 0.916724 0.750000
O O6 0.395661 0.782107 0.966059
O O7 0.352781 0.962558 0.056359
O O8 0.750000 0.750000 0.500000
O O9 0.866049 0.891317 0.382979
O O10 0.245446 0.038648 0.012498
O O11 0.209747 0.958704 0.817093
O O12 0.086532 0.070086 0.117641
#
# Coordination Sequence:
#
# PCOD9295474 Si02
#       6
#     8   8   8   8   8   4
#     4  11  26  44  69 103 147 184 231 292 365 416
#     4  10  23  42  73 105 136 184 238 294 346 425
#     4  11  21  46  70 100 133 193 243 278 340 443
#     4  12  28  46  74 103 144 187 242 289 359 426
#     4  12  25  46  76 104 140 190 238 294 349 434
#     4  12  32  44  66 112 150 184 222 316 364 408
#
# _framework density 21.908376000000001
#
# number of rings (size 3 to 8) (size 9 to 14) (size 15 to 20)
#    0.000    0.727    3.636    2.727   10.182    2.182 
#    0.000    0.000    0.000    0.000    0.000    0.000 
#    0.000    0.000    0.000    0.000    0.000    0.000 
#
# Total GULP energy -122944.754896 kJ/mol
# GULP energy per Si atom -5588.397950 kJ/mol
# Density = 2.185851 g / cm^3
# Si number density = 21.908376 Si / 1000 Ang^3
#
#
#
# Elastic Constant Matrix: (Units=GPa)
#
#
# Indices 1 2 3 4 5 6 
#
# 1 39.5111 -2.0685 0.1312 0.0000 -13.3100 0.0000
# 2 -2.0685 88.8298 -8.4233 0.0000 -3.5635 0.0000
# 3 0.1312 -8.4233 36.1493 0.0000 -9.1469 0.0000
# 4 0.0000 0.0000 0.0000 28.0267 0.0000 -6.6107
# 5 -13.3100 -3.5635 -9.1469 0.0000 26.7440 0.0000
# 6 0.0000 0.0000 0.0000 -6.6107 0.0000 31.4826
#
#
#
# Elastic Compliance Matrix: (Units=1/GPa)
#
#
# Indices 1 2 3 4 5 6 
#
# 1 0.031263 0.001876 0.004733 0.000000 0.017428 0.000000
# 2 0.001876 0.011803 0.003698 0.000000 0.003771 0.000000
# 3 0.004733 0.003698 0.031997 0.000000 0.013792 0.000000
# 4 0.000000 0.000000 0.000000 0.037540 0.000000 0.007883
# 5 0.017428 0.003771 0.013792 0.000000 0.051285 0.000000
# 6 0.000000 0.000000 0.000000 0.007883 0.000000 0.033419
#
#
# Mechanical properties :
#
#
# Convention : Reuss Voigt Hill
#
# Bulk Modulus (GPa) = 10.45180 15.97433 13.21307
# Shear Modulus (GPa) = 23.97111 28.90736 26.43924
#
# Velocity S-wave (km/s) = 3.31139 3.63639 3.47769
# Velocity P-wave (km/s) = 4.40470 4.99383 4.70849
#
# Compressibility (1/GPa) = 0.09567727
#
# Stress axis : x y z
#
# Youngs Moduli (GPa) = 31.98700 84.72372 31.25263
#
# Poissons Ratio (x) = -0.15894 -0.14793
# Poissons Ratio (y) = -0.06001 -0.11556
# Poissons Ratio (z) = -0.15141 -0.31328
#
# Static dielectric constant tensor:
#      x y z
#    x 1.622420 0.000000 -0.315340 
#    y 0.000000 1.725460 0.000000 
#    z -0.315340 0.000000 1.474120 
# 
# From -- ./inp_files/47385.got.cif
#   From: 2010.05.17/outbox.cif.g08.bks.cpg/sg15_24_cif.got.tgz:47385.got - 2010.06.03 18:47:42.
