data_PCOD9295442
_publ_section_title
;
Structure prediction by ZEFSAII (Michael W. Deem and Ramdas Pophale) SiO2 
 PCOD9295442
Probable space group: C 2/C
;
_chemical_formula_sum "Si O2"
_cell_formula_units_Z 36
_cell_length_a 11.618919
_cell_length_b 14.019711
_cell_length_c 16.432225
_cell_angle_alpha 90.000000
_cell_angle_beta 147.931504
_cell_angle_gamma 90.000000
_cell_volume 1421.152361
_symmetry_space_group_name_H-M "C 2/C"
_symmetry_group_IT_number 15
_symmetry_cell_setting 'monoclinic'
loop_
_space_group_symop_operation_xyz
x,y,z
-x,y,1/2-z
-x,-y,-z
x,-y,1/2+z
1/2+x,1/2+y,z
1/2-x,1/2+y,1/2-z
1/2-x,1/2-y,-z
1/2+x,1/2-y,1/2+z
loop_
_atom_site_type_symbol
_atom_site_label
_atom_site_fract_x
_atom_site_fract_y
_atom_site_fract_z
Si Si1 0.320539 0.852893 0.574264
Si Si2 0.000000 0.209603 0.250000
Si Si3 0.333197 0.001623 0.278335
Si Si4 0.480404 0.617864 0.999811
Si Si5 0.540495 0.823018 0.444119
O O1 0.500000 0.830910 0.750000
O O2 0.250000 0.750000 0.500000
O O3 0.451973 0.933722 0.602917
O O4 0.108659 0.893784 0.491680
O O5 0.211914 0.146985 0.393913
O O6 0.001929 0.278187 0.331186
O O7 0.387575 0.912769 0.368681
O O8 0.134880 0.076158 0.163443
O O9 0.241947 0.940191 0.144716
O O10 0.472829 0.730442 0.007350
#
# Coordination Sequence:
#
# PCOD9295442 Si02
#       5
#     8   4   8   8   8
#     4  10  24  44  70  98 138 184 229 284 341 415
#     4  10  24  36  68  90 142 164 228 286 346 386
#     4  10  23  42  71  97 138 185 234 271 355 414
#     4  10  23  42  73  98 138 184 235 274 349 424
#     4  11  22  42  66 102 132 180 231 290 333 414
#
# _framework density 25.331554000000001
#
# number of rings (size 3 to 8) (size 9 to 14) (size 15 to 20)
#    0.000    1.778    2.222    0.000   10.889    1.778 
#    2.000    4.444    0.000    0.000    0.000    0.000 
#    0.000    0.000    0.000    0.000    0.000    0.000 
#
# Total GULP energy -100285.263059 kJ/mol
# GULP energy per Si atom -5571.403503 kJ/mol
# Density = 2.527390 g / cm^3
# Si number density = 25.331554 Si / 1000 Ang^3
#
#
#
# Elastic Constant Matrix: (Units=GPa)
#
#
# Indices 1 2 3 4 5 6 
#
# 1 41.5428 11.9606 12.1361 0.0008 -4.3139 -0.0004
# 2 11.9606 177.4991 41.5263 0.0006 13.3089 0.0001
# 3 12.1361 41.5263 110.7562 0.0044 6.7336 0.0012
# 4 0.0008 0.0006 0.0044 57.4980 0.0019 -1.5611
# 5 -4.3139 13.3089 6.7336 0.0019 28.8077 -0.0001
# 6 -0.0004 0.0001 0.0012 -1.5611 -0.0001 23.3365
#
#
#
# Elastic Compliance Matrix: (Units=1/GPa)
#
#
# Indices 1 2 3 4 5 6 
#
# 1 0.025798 -0.001525 -0.002569 0.000000 0.005168 0.000001
# 2 -0.001525 0.006426 -0.002077 0.000000 -0.002711 0.000000
# 3 -0.002569 -0.002077 0.010199 -0.000001 -0.001809 -0.000001
# 4 0.000000 0.000000 -0.000001 0.017424 -0.000001 0.001166
# 5 0.005168 -0.002711 -0.001809 -0.000001 0.037162 0.000000
# 6 0.000001 0.000000 -0.000001 0.001166 0.000000 0.042929
#
#
# Mechanical properties :
#
#
# Convention : Reuss Voigt Hill
#
# Bulk Modulus (GPa) = 33.24466 51.22713 42.23589
# Shear Modulus (GPa) = 30.80568 39.54011 35.17290
#
# Velocity S-wave (km/s) = 3.49104 3.95511 3.73030
# Velocity P-wave (km/s) = 5.42238 6.41278 5.93826
#
# Compressibility (1/GPa) = 0.03008002
#
# Stress axis : x y z
#
# Youngs Moduli (GPa) = 38.76299 155.62053 98.04668
#
# Poissons Ratio (x) = 0.23729 0.25191
# Poissons Ratio (y) = 0.05910 0.20368
# Poissons Ratio (z) = 0.09959 0.32328
#
# Static dielectric constant tensor:
#      x y z
#    x 2.177490 0.000000 0.005190 
#    y 0.000000 2.036610 0.000000 
#    z 0.005190 0.000000 2.101290 
# 
# From -- ./inp_files/243872.got.cif
#   From: 2010.05.17/outbox.cif.g08.bks.cpg/sg15_122_cif.got.tgz:243872.got - 2010.06.03 18:47:42.
