data_PCOD9295291
_publ_section_title
;
Structure prediction by ZEFSAII (Michael W. Deem and Ramdas Pophale) SiO2 
 PCOD9295291
Probable space group: C 2/C
;
_chemical_formula_sum "Si O2"
_cell_formula_units_Z 56
_cell_length_a 8.957741
_cell_length_b 13.510536
_cell_length_c 25.715707
_cell_angle_alpha 90.000000
_cell_angle_beta 52.243438
_cell_angle_gamma 90.000000
_cell_volume 2460.577478
_symmetry_space_group_name_H-M "C 2/C"
_symmetry_group_IT_number 15
_symmetry_cell_setting 'monoclinic'
loop_
_space_group_symop_operation_xyz
x,y,z
-x,y,1/2-z
-x,-y,-z
x,-y,1/2+z
1/2+x,1/2+y,z
1/2-x,1/2+y,1/2-z
1/2-x,1/2-y,-z
1/2+x,1/2-y,1/2+z
loop_
_atom_site_type_symbol
_atom_site_label
_atom_site_fract_x
_atom_site_fract_y
_atom_site_fract_z
Si Si1 0.500000 0.760755 0.750000
Si Si2 0.704232 0.956942 0.446006
Si Si3 0.747564 0.919758 0.747211
Si Si4 0.196513 0.902490 0.652500
Si Si5 0.000000 0.590291 0.750000
Si Si6 0.557061 0.412168 0.524763
Si Si7 0.200482 0.730178 0.891109
Si Si8 0.356482 0.802316 0.386401
O O1 0.671091 0.831778 0.728958
O O2 0.407376 0.713712 0.820750
O O3 0.702285 0.838703 0.442590
O O4 0.500000 0.000000 0.500000
O O5 0.738942 0.991425 0.380265
O O6 0.848708 0.024916 0.448129
O O7 0.692839 0.891057 0.817433
O O8 0.971262 0.915105 0.702396
O O9 0.656690 0.019281 0.743734
O O10 0.221718 0.806985 0.610818
O O11 0.906331 0.650283 0.818631
O O12 0.500000 0.500000 0.500000
O O13 0.381808 0.340109 0.577119
O O14 0.707073 0.351311 0.457882
O O15 0.045864 0.698482 0.880706
#
# Coordination Sequence:
#
# PCOD9295291 Si02
#       8
#     4   8   8   8   4   8   8   8
#     4  11  24  42  75 106 152 184 247 318 365 438
#     4  12  25  44  75 102 143 193 248 303 372 449
#     4  10  23  42  68 102 146 186 233 307 373 437
#     4  11  23  45  71 101 142 193 240 298 375 445
#     4  11  26  40  71 110 140 188 247 308 369 438
#     4  12  29  49  74 108 150 196 246 316 379 454
#     4  12  26  49  76 112 146 199 254 313 377 457
#     4  12  24  45  75 102 147 196 247 302 379 445
#
# _framework density 22.758883999999998
#
# number of rings (size 3 to 8) (size 9 to 14) (size 15 to 20)
#    0.000    0.571    4.286    3.000    6.000    4.000 
#    0.000    0.000    0.000    0.000    0.000    0.000 
#    0.000    0.000    0.000    0.000    0.000    0.000 
#
# Total GULP energy -156041.333912 kJ/mol
# GULP energy per Si atom -5572.904783 kJ/mol
# Density = 2.270708 g / cm^3
# Si number density = 22.758884 Si / 1000 Ang^3
#
#
#
# Elastic Constant Matrix: (Units=GPa)
#
#
# Indices 1 2 3 4 5 6 
#
# 1 29.4046 34.6926 20.3699 0.0000 10.0007 0.0000
# 2 34.6926 123.0474 38.2529 -0.0001 9.0099 0.0000
# 3 20.3699 38.2529 88.6529 -0.0001 -6.8712 0.0001
# 4 0.0000 -0.0001 -0.0001 52.0936 0.0001 10.7522
# 5 10.0007 9.0099 -6.8712 0.0001 39.8360 -0.0001
# 6 0.0000 0.0000 0.0001 10.7522 -0.0001 29.9758
#
#
#
# Elastic Compliance Matrix: (Units=1/GPa)
#
#
# Indices 1 2 3 4 5 6 
#
# 1 0.060801 -0.013222 -0.009341 0.000000 -0.013885 0.000000
# 2 -0.013222 0.012594 -0.002392 0.000000 0.000058 0.000000
# 3 -0.009341 -0.002392 0.014881 0.000000 0.005453 0.000000
# 4 0.000000 0.000000 0.000000 0.020731 0.000000 -0.007436
# 5 -0.013885 0.000058 0.005453 0.000000 0.029516 0.000000
# 6 0.000000 0.000000 0.000000 -0.007436 0.000000 0.036028
#
#
# Mechanical properties :
#
#
# Convention : Reuss Voigt Hill
#
# Bulk Modulus (GPa) = 26.06451 47.52620 36.79535
# Shear Modulus (GPa) = 21.07481 34.23370 27.65426
#
# Velocity S-wave (km/s) = 3.04633 3.88260 3.48961
# Velocity P-wave (km/s) = 4.88373 6.40525 5.69553
#
# Compressibility (1/GPa) = 0.03836635
#
# Stress axis : x y z
#
# Youngs Moduli (GPa) = 16.44698 79.40259 67.19986
#
# Poissons Ratio (x) = 1.04985 0.62775
# Poissons Ratio (y) = 0.21746 0.16072
# Poissons Ratio (z) = 0.15364 0.18991
#
# Static dielectric constant tensor:
#      x y z
#    x 1.868600 0.000000 0.057660 
#    y 0.000000 1.653720 0.000000 
#    z 0.057660 0.000000 1.927820 
# 
# From -- ./inp_files/264630.got.cif
#   From: 2010.05.17/outbox.cif.g08.bks.cpg/sg15_133_cif.got.tgz:264630.got - 2010.06.03 18:47:42.
