data_PCOD9295214
_publ_section_title
;
Structure prediction by ZEFSAII (Michael W. Deem and Ramdas Pophale) SiO2 
 PCOD9295214
Probable space group: C 2/C
;
_chemical_formula_sum "Si O2"
_cell_formula_units_Z 64
_cell_length_a 28.136979
_cell_length_b 14.233417
_cell_length_c 13.516429
_cell_angle_alpha 90.000000
_cell_angle_beta 34.843016
_cell_angle_gamma 90.000000
_cell_volume 3092.684099
_symmetry_space_group_name_H-M "C 2/C"
_symmetry_group_IT_number 15
_symmetry_cell_setting 'monoclinic'
loop_
_space_group_symop_operation_xyz
x,y,z
-x,y,1/2-z
-x,-y,-z
x,-y,1/2+z
1/2+x,1/2+y,z
1/2-x,1/2+y,1/2-z
1/2-x,1/2-y,-z
1/2+x,1/2-y,1/2+z
loop_
_atom_site_type_symbol
_atom_site_label
_atom_site_fract_x
_atom_site_fract_y
_atom_site_fract_z
Si Si1 0.593292 0.038094 0.321894
Si Si2 0.378937 0.681883 0.307940
Si Si3 0.316779 0.003025 0.136919
Si Si4 0.592720 0.360618 0.135783
Si Si5 0.091411 0.658015 0.136671
Si Si6 0.959248 0.102149 0.554934
Si Si7 0.295613 0.116971 0.981447
Si Si8 0.642065 0.560901 0.969276
O O1 0.590872 0.126617 0.252185
O O2 0.500000 0.000000 0.500000
O O3 0.636717 0.053303 0.352883
O O4 0.652135 0.959973 0.169371
O O5 0.463260 0.671823 0.100329
O O6 0.347837 0.786928 0.382711
O O7 0.298395 0.632415 0.395926
O O8 0.395280 0.625602 0.381236
O O9 0.241350 0.935892 0.298795
O O10 0.375283 0.930131 0.980546
O O11 0.289014 0.079083 0.103958
O O12 0.500000 0.358712 0.250000
O O13 0.634412 0.259102 0.046782
O O14 0.586342 0.373559 0.264964
O O15 0.629006 0.452228 0.021741
O O16 0.000000 0.670482 0.250000
O O17 0.897896 0.090686 0.566440
O O18 0.000000 0.000000 0.500000
#
# Coordination Sequence:
#
# PCOD9295214 Si02
#       8
#     8   8   8   8   8   8   8   8
#     4  11  22  43  67  91 127 172 217 265 325 379
#     4  11  23  44  67  97 128 172 220 263 324 392
#     4  11  24  43  67  93 134 171 209 273 324 379
#     4  11  24  41  66  98 129 169 219 267 319 388
#     4  10  23  42  66  99 125 167 223 265 322 392
#     4  12  23  41  66  95 133 171 211 269 324 379
#     4  10  25  42  66  97 130 169 219 268 322 388
#     4  12  24  43  66  97 134 172 215 266 330 388
#
# _framework density 20.693998000000001
#
# number of rings (size 3 to 8) (size 9 to 14) (size 15 to 20)
#    0.000    1.000    5.000    1.125    1.750    2.000 
#    2.250    1.250    0.000    0.000    0.000    0.000 
#    0.000    0.000    0.000    0.000    0.000    0.000 
#
# Total GULP energy -178729.608306 kJ/mol
# GULP energy per Si atom -5585.300260 kJ/mol
# Density = 2.064690 g / cm^3
# Si number density = 20.693998 Si / 1000 Ang^3
#
#
#
# Elastic Constant Matrix: (Units=GPa)
#
#
# Indices 1 2 3 4 5 6 
#
# 1 125.1373 22.5086 18.3065 0.0000 26.4012 0.0000
# 2 22.5086 70.9026 -6.5344 0.0000 15.7606 0.0000
# 3 18.3065 -6.5344 50.2921 0.0000 6.8015 0.0000
# 4 0.0000 0.0000 0.0000 103.3711 0.0000 99.0181
# 5 26.4012 15.7606 6.8015 0.0000 32.5285 0.0000
# 6 0.0000 0.0000 0.0000 99.0181 0.0000 144.0404
#
#
#
# Elastic Compliance Matrix: (Units=1/GPa)
#
#
# Indices 1 2 3 4 5 6 
#
# 1 0.010215 -0.002048 -0.003084 0.000000 -0.006653 0.000000
# 2 -0.002048 0.016727 0.003900 0.000000 -0.007258 0.000000
# 3 -0.003084 0.003900 0.022054 0.000000 -0.003998 0.000000
# 4 0.000000 0.000000 0.000000 0.028326 0.000000 -0.019472
# 5 -0.006653 -0.007258 -0.003998 0.000000 0.040495 0.000000
# 6 0.000000 0.000000 0.000000 -0.019472 0.000000 0.020329
#
#
# Mechanical properties :
#
#
# Convention : Reuss Voigt Hill
#
# Bulk Modulus (GPa) = 21.49108 34.98816 28.23962
# Shear Modulus (GPa) = 32.02679 70.12476 51.07577
#
# Velocity S-wave (km/s) = 3.93827 5.82753 4.97343
# Velocity P-wave (km/s) = 5.57563 7.88823 6.83052
#
# Compressibility (1/GPa) = 0.04653093
#
# Stress axis : x y z
#
# Youngs Moduli (GPa) = 97.90002 59.78446 45.34326
#
# Poissons Ratio (x) = 0.12244 0.13986
# Poissons Ratio (y) = 0.20050 -0.17685
# Poissons Ratio (z) = 0.30197 -0.23318
#
# Static dielectric constant tensor:
#      x y z
#    x 1.729910 0.000000 0.009050 
#    y 0.000000 1.762320 0.000000 
#    z 0.009050 0.000000 1.834240 
# 
# From -- ./inp_files/123525.got.cif
#   From: 2010.05.17/outbox.cif.g08.bks.cpg/sg15_62_cif.got.tgz:123525.got - 2010.06.03 18:47:42.
