data_PCOD9295568
_publ_section_title
;
Structure prediction by ZEFSAII (Michael W. Deem and Ramdas Pophale) SiO2 
 PCOD9295568
Probable space group: C 2/C
;
_chemical_formula_sum "Si O2"
_cell_formula_units_Z 56
_cell_length_a 12.685181
_cell_length_b 13.149631
_cell_length_c 17.727229
_cell_angle_alpha 90.000000
_cell_angle_beta 119.092656
_cell_angle_gamma 90.000000
_cell_volume 2583.927373
_symmetry_space_group_name_H-M "C 2/C"
_symmetry_group_IT_number 15
_symmetry_cell_setting 'monoclinic'
loop_
_space_group_symop_operation_xyz
x,y,z
-x,y,1/2-z
-x,-y,-z
x,-y,1/2+z
1/2+x,1/2+y,z
1/2-x,1/2+y,1/2-z
1/2-x,1/2-y,-z
1/2+x,1/2-y,1/2+z
loop_
_atom_site_type_symbol
_atom_site_label
_atom_site_fract_x
_atom_site_fract_y
_atom_site_fract_z
Si Si1 0.649562 0.166095 0.454411
Si Si2 0.533902 0.567294 0.438582
Si Si3 0.140378 0.563223 0.295289
Si Si4 0.645613 0.233412 0.024742
Si Si5 0.777305 0.482815 0.934206
Si Si6 0.333715 0.524535 0.766295
Si Si7 0.611545 0.746778 0.677746
O O1 0.750000 0.250000 0.500000
O O2 0.677230 0.097520 0.390918
O O3 0.522894 0.220812 0.394667
O O4 0.655983 0.087915 0.525439
O O5 0.500000 0.500000 0.500000
O O6 0.543048 0.685853 0.465547
O O7 0.663830 0.533443 0.451120
O O8 0.436679 0.545135 0.339628
O O9 0.223794 0.479133 0.287412
O O10 0.152870 0.663193 0.246786
O O11 0.000000 0.534285 0.250000
O O12 0.631769 0.111724 0.023537
O O13 0.682107 0.260777 0.123258
O O14 0.750000 0.250000 0.000000
O O15 0.718278 0.486601 0.830912
O O16 0.384038 0.638920 0.779470
#
# Coordination Sequence:
#
# PCOD9295568 Si02
#       7
#     8   8   8   8   8   8   8
#     4  11  24  41  69 102 133 178 231 281 346 407
#     4  11  22  40  71 100 134 180 231 283 340 407
#     4  10  24  45  65  98 136 176 226 284 342 406
#     4  10  23  43  64  98 142 179 223 282 347 412
#     4  11  24  44  68 101 141 182 224 285 349 415
#     4  12  23  42  73 100 134 177 233 286 340 406
#     4  11  23  44  67  97 139 174 227 289 335 409
#
# _framework density 21.672435
#
# number of rings (size 3 to 8) (size 9 to 14) (size 15 to 20)
#    0.000    1.143    2.857    3.000    4.000    2.857 
#    0.000    0.000    0.000    0.000    0.000    0.000 
#    0.000    0.000    0.000    0.000    0.000    0.000 
#
# Total GULP energy -156525.102967 kJ/mol
# GULP energy per Si atom -5590.182249 kJ/mol
# Density = 2.162311 g / cm^3
# Si number density = 21.672435 Si / 1000 Ang^3
#
#
#
# Elastic Constant Matrix: (Units=GPa)
#
#
# Indices 1 2 3 4 5 6 
#
# 1 85.7382 33.0189 32.8174 0.0000 -10.3915 0.0000
# 2 33.0189 148.6343 40.9766 0.0000 28.0560 0.0000
# 3 32.8174 40.9766 108.9193 0.0000 6.7468 0.0000
# 4 0.0000 0.0000 0.0000 36.1686 0.0000 3.0909
# 5 -10.3915 28.0560 6.7468 0.0000 28.8221 0.0000
# 6 0.0000 0.0000 0.0000 3.0909 0.0000 33.9390
#
#
#
# Elastic Compliance Matrix: (Units=1/GPa)
#
#
# Indices 1 2 3 4 5 6 
#
# 1 0.016333 -0.004714 -0.003852 0.000000 0.011379 0.000000
# 2 -0.004714 0.010427 -0.001795 0.000000 -0.011430 0.000000
# 3 -0.003852 -0.001795 0.011157 0.000000 -0.002254 0.000000
# 4 0.000000 0.000000 0.000000 0.027865 0.000000 -0.002538
# 5 0.011379 -0.011430 -0.002254 0.000000 0.050452 0.000000
# 6 0.000000 0.000000 0.000000 -0.002538 0.000000 0.029696
#
#
# Mechanical properties :
#
#
# Convention : Reuss Voigt Hill
#
# Bulk Modulus (GPa) = 58.15826 61.87973 60.01899
# Shear Modulus (GPa) = 29.00524 35.55120 32.27822
#
# Velocity S-wave (km/s) = 3.66231 4.05456 3.86342
# Velocity P-wave (km/s) = 6.69154 7.10870 6.90327
#
# Compressibility (1/GPa) = 0.01719446
#
# Stress axis : x y z
#
# Youngs Moduli (GPa) = 61.22723 95.90170 89.63346
#
# Poissons Ratio (x) = 0.45209 0.34530
# Poissons Ratio (y) = 0.28863 0.16085
# Poissons Ratio (z) = 0.23587 0.17210
#
# Static dielectric constant tensor:
#      x y z
#    x 1.825150 0.000000 -0.026220 
#    y 0.000000 1.792320 0.000000 
#    z -0.026220 0.000000 1.759330 
# 
# From -- ./inp_files/204545.got.cif
#   From: 2010.05.17/outbox.cif.g08.bks.cpg/sg15_103_cif.got.tgz:204545.got - 2010.06.03 18:47:42.
