data_PCOD9295384
_publ_section_title
;
Structure prediction by ZEFSAII (Michael W. Deem and Ramdas Pophale) SiO2 
 PCOD9295384
Probable space group: C 2/C
;
_chemical_formula_sum "Si O2"
_cell_formula_units_Z 44
_cell_length_a 9.373919
_cell_length_b 22.163162
_cell_length_c 9.457018
_cell_angle_alpha 90.000000
_cell_angle_beta 116.803452
_cell_angle_gamma 90.000000
_cell_volume 1753.653948
_symmetry_space_group_name_H-M "C 2/C"
_symmetry_group_IT_number 15
_symmetry_cell_setting 'monoclinic'
loop_
_space_group_symop_operation_xyz
x,y,z
-x,y,1/2-z
-x,-y,-z
x,-y,1/2+z
1/2+x,1/2+y,z
1/2-x,1/2+y,1/2-z
1/2-x,1/2-y,-z
1/2+x,1/2-y,1/2+z
loop_
_atom_site_type_symbol
_atom_site_label
_atom_site_fract_x
_atom_site_fract_y
_atom_site_fract_z
Si Si1 0.186507 0.984847 0.581800
Si Si2 0.518931 0.178018 0.996689
Si Si3 0.499705 0.293693 0.406922
Si Si4 0.843889 0.134523 0.276226
Si Si5 0.632998 0.048253 0.611429
Si Si6 0.750000 0.250000 0.000000
O O1 0.108439 0.831740 0.560475
O O2 0.296984 0.036788 0.700286
O O3 0.231613 0.963944 0.445505
O O4 0.000000 0.000000 0.500000
O O5 0.566898 0.226127 0.901202
O O6 0.440330 0.223411 0.073497
O O7 0.708495 0.168730 0.126555
O O8 0.437084 0.115385 0.934640
O O9 0.500000 0.319307 0.250000
O O10 0.321689 0.291951 0.394235
O O11 0.779579 0.070054 0.295579
O O12 0.000000 0.127246 0.250000
O O13 0.500000 0.000000 0.500000
#
# Coordination Sequence:
#
# PCOD9295384 Si02
#       6
#     8   8   8   8   8   4
#     4  12  29  50  78 112 154 211 271 331 411 491
#     4  10  23  46  77 106 159 203 270 334 406 489
#     4  10  23  42  70 112 152 208 262 328 411 494
#     4  12  22  45  75 101 158 206 259 335 406 493
#     4  12  26  50  80 113 152 207 266 335 408 479
#     4   8  20  44  68 110 158 198 266 332 412 486
#
# _framework density 25.09047
#
# number of rings (size 3 to 8) (size 9 to 14) (size 15 to 20)
#    1.091    0.000    3.636    2.182    2.545    2.182 
#    3.273    5.455    0.000    0.000    0.000    0.000 
#    0.000    0.000    0.000    0.000    0.000    0.000 
#
# Total GULP energy -122509.300498 kJ/mol
# GULP energy per Si atom -5568.604568 kJ/mol
# Density = 2.503336 g / cm^3
# Si number density = 25.090470 Si / 1000 Ang^3
#
#
#
# Elastic Constant Matrix: (Units=GPa)
#
#
# Indices 1 2 3 4 5 6 
#
# 1 92.9102 0.6209 -1.4637 0.0000 -19.2892 0.0000
# 2 0.6209 77.0711 1.3877 0.0000 2.4049 0.0000
# 3 -1.4637 1.3877 99.7254 0.0000 -15.7285 0.0000
# 4 0.0000 0.0000 0.0000 164.9287 0.0000 -21.7119
# 5 -19.2892 2.4049 -15.7285 0.0000 38.4800 0.0000
# 6 0.0000 0.0000 0.0000 -21.7119 0.0000 45.8067
#
#
#
# Elastic Compliance Matrix: (Units=1/GPa)
#
#
# Indices 1 2 3 4 5 6 
#
# 1 0.012158 -0.000326 0.001227 0.000000 0.006616 0.000000
# 2 -0.000326 0.013019 -0.000364 0.000000 -0.001126 0.000000
# 3 0.001227 -0.000364 0.010851 0.000000 0.005073 0.000000
# 4 0.000000 0.000000 0.000000 0.006467 0.000000 0.003065
# 5 0.006616 -0.001126 0.005073 0.000000 0.031448 0.000000
# 6 0.000000 0.000000 0.000000 0.003065 0.000000 0.023284
#
#
# Mechanical properties :
#
#
# Convention : Reuss Voigt Hill
#
# Bulk Modulus (GPa) = 26.95331 30.08850 28.52090
# Shear Modulus (GPa) = 46.07413 67.78719 56.93066
#
# Velocity S-wave (km/s) = 4.28988 5.20344 4.76859
# Velocity P-wave (km/s) = 5.94165 6.93679 6.45841
#
# Compressibility (1/GPa) = 0.03710119
#
# Stress axis : x y z
#
# Youngs Moduli (GPa) = 82.24886 76.80876 92.16041
#
# Poissons Ratio (x) = 0.02508 -0.11304
# Poissons Ratio (y) = 0.02685 0.03350
# Poissons Ratio (z) = -0.10088 0.02792
#
# Static dielectric constant tensor:
#      x y z
#    x 1.847750 0.000000 0.178110 
#    y 0.000000 1.721510 0.000000 
#    z 0.178110 0.000000 1.679900 
# 
# From -- ./inp_files/25708.got.cif
#   From: 2010.05.17/outbox.cif.g08.bks.cpg/sg15_13_cif.got.tgz:25708.got - 2010.06.03 18:47:42.
