data_PCOD9295303
_publ_section_title
;
Structure prediction by ZEFSAII (Michael W. Deem and Ramdas Pophale) SiO2 
 PCOD9295303
Probable space group: C 2/C
;
_chemical_formula_sum "Si O2"
_cell_formula_units_Z 56
_cell_length_a 21.410202
_cell_length_b 14.080057
_cell_length_c 17.665564
_cell_angle_alpha 90.000000
_cell_angle_beta 26.923882
_cell_angle_gamma 90.000000
_cell_volume 2411.377648
_symmetry_space_group_name_H-M "C 2/C"
_symmetry_group_IT_number 15
_symmetry_cell_setting 'monoclinic'
loop_
_space_group_symop_operation_xyz
x,y,z
-x,y,1/2-z
-x,-y,-z
x,-y,1/2+z
1/2+x,1/2+y,z
1/2-x,1/2+y,1/2-z
1/2-x,1/2-y,-z
1/2+x,1/2-y,1/2+z
loop_
_atom_site_type_symbol
_atom_site_label
_atom_site_fract_x
_atom_site_fract_y
_atom_site_fract_z
Si Si1 0.250751 0.209969 0.161715
Si Si2 0.403524 0.864397 0.927553
Si Si3 0.585277 0.403289 0.727425
Si Si4 0.489229 0.706668 0.956092
Si Si5 0.874417 0.475993 0.580364
Si Si6 0.102664 0.884084 0.202418
Si Si7 0.154057 0.894380 0.397345
O O1 0.134128 0.204724 0.352318
O O2 0.269844 0.322046 0.128439
O O3 0.200160 0.163068 0.138500
O O4 0.364471 0.135042 0.070452
O O5 0.500000 0.871959 0.750000
O O6 0.470183 0.795832 0.920223
O O7 0.386766 0.963537 0.990183
O O8 0.248432 0.835820 0.066670
O O9 0.500000 0.361001 0.750000
O O10 0.635836 0.507122 0.646241
O O11 0.482632 0.420532 0.909601
O O12 0.504064 0.621043 0.881545
O O13 0.620036 0.682663 0.867749
O O14 0.739999 0.519915 0.768769
O O15 0.000000 0.500000 0.500000
O O16 0.000000 0.842549 0.250000
#
# Coordination Sequence:
#
# PCOD9295303 Si02
#       7
#     8   8   8   8   8   8   8
#     4  11  22  40  71  95 133 174 228 283 337 412
#     4  12  26  44  66 107 147 179 228 292 359 417
#     4  10  23  42  68  93 127 178 233 287 340 409
#     4  11  21  41  70  96 133 176 229 278 342 427
#     4  12  25  44  67 101 137 180 228 285 347 410
#     4  11  23  42  66  96 137 185 231 277 345 424
#     4  11  23  43  70 100 130 179 235 284 346 417
#
# _framework density 23.223240000000001
#
# number of rings (size 3 to 8) (size 9 to 14) (size 15 to 20)
#    0.000    0.857    4.286    2.143    2.000    9.714 
#    0.000    0.714    0.000    0.000    0.000    0.000 
#    0.000    0.000    0.000    0.000    0.000    0.000 
#
# Total GULP energy -156164.463116 kJ/mol
# GULP energy per Si atom -5577.302254 kJ/mol
# Density = 2.317038 g / cm^3
# Si number density = 23.223240 Si / 1000 Ang^3
#
#
#
# Elastic Constant Matrix: (Units=GPa)
#
#
# Indices 1 2 3 4 5 6 
#
# 1 90.8540 -19.2319 2.0690 0.0002 -1.8165 -0.0001
# 2 -19.2319 57.5695 -20.7420 0.0002 7.3142 -0.0001
# 3 2.0690 -20.7420 46.1026 0.0003 1.0854 -0.0001
# 4 0.0002 0.0002 0.0003 17.8899 -0.0002 6.0129
# 5 -1.8165 7.3142 1.0854 -0.0002 29.9666 0.0001
# 6 -0.0001 -0.0001 -0.0001 6.0129 0.0001 -0.1801
#
#
#
# Elastic Compliance Matrix: (Units=1/GPa)
#
#
# Indices 1 2 3 4 5 6 
#
# 1 0.011937 0.004602 0.001546 0.000000 -0.000456 -0.000001
# 2 0.004602 0.023418 0.010466 0.000001 -0.005816 -0.000003
# 3 0.001546 0.010466 0.026411 0.000001 -0.003418 -0.000004
# 4 0.000000 0.000001 0.000001 0.004573 -0.000001 0.152704
# 5 -0.000456 -0.005816 -0.003418 -0.000001 0.034886 0.000003
# 6 -0.000001 -0.000003 -0.000004 0.152704 0.000003 -0.454336
#
#
# Mechanical properties :
#
#
# Convention : Reuss Voigt Hill
#
# Bulk Modulus (GPa) = 10.52702 13.19069 11.85886
# Shear Modulus (GPa) = -14.09737 25.03068 5.46665
#
# Velocity S-wave (km/s) = -2.46649 3.28659 1.53593
# Velocity P-wave (km/s) = 1.88907 4.48269 2.87454
#
# Compressibility (1/GPa) = 0.09499363
#
# Stress axis : x y z
#
# Youngs Moduli (GPa) = 83.77597 42.70282 37.86342
#
# Poissons Ratio (x) = -0.19654 -0.05853
# Poissons Ratio (y) = -0.38557 -0.39629
# Poissons Ratio (z) = -0.12949 -0.44694
#
# Static dielectric constant tensor:
#      x y z
#    x 2.044530 0.000000 -0.056780 
#    y 0.000000 1.965440 0.000000 
#    z -0.056780 0.000000 1.879680 
# 
# From -- ./inp_files/215700.got.cif
#   From: 2010.05.17/outbox.cif.g08.bks.cpg/sg15_108_cif.got.tgz:215700.got - 2010.06.03 18:47:42.
