data_PCOD9295768
_publ_section_title
;
Structure prediction by ZEFSAII (Michael W. Deem and Ramdas Pophale) SiO2 
 PCOD9295768
Probable space group: C 2/C
;
_chemical_formula_sum "Si O2"
_cell_formula_units_Z 40
_cell_length_a 18.020309
_cell_length_b 5.341597
_cell_length_c 17.535444
_cell_angle_alpha 90.000000
_cell_angle_beta 67.542472
_cell_angle_gamma 90.000000
_cell_volume 1559.906884
_symmetry_space_group_name_H-M "C 2/C"
_symmetry_group_IT_number 15
_symmetry_cell_setting 'monoclinic'
loop_
_space_group_symop_operation_xyz
x,y,z
-x,y,1/2-z
-x,-y,-z
x,-y,1/2+z
1/2+x,1/2+y,z
1/2-x,1/2+y,1/2-z
1/2-x,1/2-y,-z
1/2+x,1/2-y,1/2+z
loop_
_atom_site_type_symbol
_atom_site_label
_atom_site_fract_x
_atom_site_fract_y
_atom_site_fract_z
Si Si1 0.676669 0.747801 0.673339
Si Si2 0.539231 0.013018 0.805489
Si Si3 0.595550 0.443313 0.460862
Si Si4 0.879981 0.433497 0.959609
Si Si5 0.670591 0.397390 0.790745
O O1 0.684035 0.458205 0.695724
O O2 0.587651 0.807094 0.739048
O O3 0.676876 0.863149 0.589593
O O4 0.744648 0.858897 0.701705
O O5 0.500000 0.168796 0.750000
O O6 0.470804 0.928395 0.890051
O O7 0.606728 0.175797 0.819423
O O8 0.500000 0.500000 0.500000
O O9 0.623178 0.207645 0.501264
O O10 0.627450 0.400681 0.363059
O O11 0.631418 0.705181 0.477798
#
# Coordination Sequence:
#
# PCOD9295768 Si02
#       5
#     8   8   8   8   8
#     4  11  26  44  70 105 143 189 240 296 361 424
#     4  10  23  43  69 103 135 187 240 296 348 421
#     4  12  26  45  74 105 142 189 241 294 359 426
#     4  11  27  47  72 104 145 189 238 297 356 428
#     4  12  25  42  75 100 146 184 243 295 359 424
#
# _framework density 25.642555999999999
#
# number of rings (size 3 to 8) (size 9 to 14) (size 15 to 20)
#    0.000    0.800    4.000    1.800    8.400    2.400 
#    0.000    0.000    0.000    0.000    0.000    0.000 
#    0.000    0.000    0.000    0.000    0.000    0.000 
#
# Total GULP energy -111702.696904 kJ/mol
# GULP energy per Si atom -5585.134845 kJ/mol
# Density = 2.558419 g / cm^3
# Si number density = 25.642556 Si / 1000 Ang^3
#
#
#
# Elastic Constant Matrix: (Units=GPa)
#
#
# Indices 1 2 3 4 5 6 
#
# 1 129.8247 28.1469 20.0092 0.0083 12.9823 0.0072
# 2 28.1469 115.3398 45.7877 0.0193 29.1338 0.0106
# 3 20.0092 45.7877 102.1981 0.0026 17.9401 0.0022
# 4 0.0083 0.0193 0.0026 47.2767 0.0033 4.8859
# 5 12.9823 29.1338 17.9401 0.0033 51.4470 0.0073
# 6 0.0072 0.0106 0.0022 4.8859 0.0073 28.9167
#
#
#
# Elastic Compliance Matrix: (Units=1/GPa)
#
#
# Indices 1 2 3 4 5 6 
#
# 1 0.008237 -0.001448 -0.000792 -0.000001 -0.000983 -0.000001
# 2 -0.001448 0.011935 -0.004199 -0.000004 -0.004929 -0.000002
# 3 -0.000792 -0.004199 0.012110 0.000001 -0.001645 0.000001
# 4 -0.000001 -0.000004 0.000001 0.021528 0.000001 -0.003637
# 5 -0.000983 -0.004929 -0.001645 0.000001 0.023051 -0.000004
# 6 -0.000001 -0.000002 0.000001 -0.003637 -0.000004 0.035197
#
#
# Mechanical properties :
#
#
# Convention : Reuss Voigt Hill
#
# Bulk Modulus (GPa) = 51.52968 59.47225 55.50097
# Shear Modulus (GPa) = 38.05132 42.42266 40.23699
#
# Velocity S-wave (km/s) = 3.85634 4.07183 3.96555
# Velocity P-wave (km/s) = 6.32198 6.73420 6.53135
#
# Compressibility (1/GPa) = 0.01940629
#
# Stress axis : x y z
#
# Youngs Moduli (GPa) = 121.40604 83.78606 82.57754
#
# Poissons Ratio (x) = 0.12129 0.06537
# Poissons Ratio (y) = 0.17575 0.34671
# Poissons Ratio (z) = 0.09611 0.35178
#
# Static dielectric constant tensor:
#      x y z
#    x 2.078750 -0.000010 0.020160 
#    y -0.000010 2.110780 0.000000 
#    z 0.020160 0.000000 2.047320 
# 
# From -- ./inp_files/207993.got.cif
#   From: 2010.05.17/outbox.cif.g08.bks.cpg/sg15_104_cif.got.tgz:207993.got - 2010.06.03 18:47:42.
