data_PCOD9295699
_publ_section_title
;
Structure prediction by ZEFSAII (Michael W. Deem and Ramdas Pophale) SiO2 
 PCOD9295699
Probable space group: C 2/C
;
_chemical_formula_sum "Si O2"
_cell_formula_units_Z 60
_cell_length_a 10.376998
_cell_length_b 20.728778
_cell_length_c 12.597172
_cell_angle_alpha 90.000000
_cell_angle_beta 81.943669
_cell_angle_gamma 90.000000
_cell_volume 2682.940526
_symmetry_space_group_name_H-M "C 2/C"
_symmetry_group_IT_number 15
_symmetry_cell_setting 'monoclinic'
loop_
_space_group_symop_operation_xyz
x,y,z
-x,y,1/2-z
-x,-y,-z
x,-y,1/2+z
1/2+x,1/2+y,z
1/2-x,1/2+y,1/2-z
1/2-x,1/2-y,-z
1/2+x,1/2-y,1/2+z
loop_
_atom_site_type_symbol
_atom_site_label
_atom_site_fract_x
_atom_site_fract_y
_atom_site_fract_z
Si Si1 0.522523 0.729454 0.394703
Si Si2 0.812649 0.414927 0.152803
Si Si3 0.465637 0.455834 0.363744
Si Si4 0.000000 0.487614 0.750000
Si Si5 0.446728 0.595136 0.088763
Si Si6 0.984155 0.252697 0.635990
Si Si7 0.702121 0.787570 0.207445
Si Si8 0.639906 0.116960 0.089222
O O1 0.481337 0.656493 0.370616
O O2 0.541812 0.726947 0.518711
O O3 0.651311 0.747545 0.315271
O O4 0.414066 0.779716 0.365352
O O5 0.689634 0.455292 0.123182
O O6 0.904833 0.465818 0.197358
O O7 0.781884 0.359049 0.243707
O O8 0.871026 0.384902 0.037871
O O9 0.500000 0.423183 0.250000
O O10 0.530933 0.526109 0.360004
O O11 0.503087 0.417660 0.464324
O O12 0.075728 0.443316 0.656728
O O13 0.294056 0.613679 0.098777
O O14 0.171257 0.245484 0.857370
O O15 0.058563 0.320872 0.636033
O O16 0.000000 0.220856 0.750000
#
# Coordination Sequence:
#
# PCOD9295699 Si02
#       8
#     8   8   8   4   8   8   8   8
#     4  11  25  45  71 102 143 192 243 305 367 432
#     4  11  25  45  71  99 146 185 238 301 359 432
#     4  10  23  43  67  99 133 181 236 288 356 427
#     4  12  24  44  70 100 136 192 236 290 366 434
#     4  10  24  43  67 100 138 177 234 302 358 420
#     4  12  26  43  71 105 142 188 246 298 370 436
#     4  11  26  46  71 105 141 196 239 301 371 434
#     4  11  24  45  67 102 140 181 241 299 363 436
#
# _framework density 22.363522
#
# number of rings (size 3 to 8) (size 9 to 14) (size 15 to 20)
#    0.000    1.067    2.000    3.200    7.467    2.133 
#    0.000    0.000    0.000    0.000    0.000    0.000 
#    0.000    0.000    0.000    0.000    0.000    0.000 
#
# Total GULP energy -167450.448936 kJ/mol
# GULP energy per Si atom -5581.681631 kJ/mol
# Density = 2.231262 g / cm^3
# Si number density = 22.363522 Si / 1000 Ang^3
#
#
#
# Elastic Constant Matrix: (Units=GPa)
#
#
# Indices 1 2 3 4 5 6 
#
# 1 55.9356 40.0925 5.3584 0.0000 -8.9010 0.0000
# 2 40.0925 126.2089 30.1955 0.0000 5.8390 0.0000
# 3 5.3584 30.1955 127.4524 0.0000 -7.0696 0.0000
# 4 0.0000 0.0000 0.0000 -106.2584 0.0000 9.1528
# 5 -8.9010 5.8390 -7.0696 0.0000 36.9428 0.0000
# 6 0.0000 0.0000 0.0000 9.1528 0.0000 30.9763
#
#
#
# Elastic Compliance Matrix: (Units=1/GPa)
#
#
# Indices 1 2 3 4 5 6 
#
# 1 0.025212 -0.008709 0.001432 0.000000 0.007725 0.000000
# 2 -0.008709 0.011518 -0.002608 0.000000 -0.004418 0.000000
# 3 0.001432 -0.002608 0.008536 0.000000 0.002391 0.000000
# 4 0.000000 0.000000 0.000000 -0.009177 0.000000 0.002712
# 5 0.007725 -0.004418 0.002391 0.000000 0.030086 0.000000
# 6 0.000000 0.000000 0.000000 0.002712 0.000000 0.031481
#
#
# Mechanical properties :
#
#
# Convention : Reuss Voigt Hill
#
# Bulk Modulus (GPa) = 39.22067 51.20994 45.21531
# Shear Modulus (GPa) = 39.70600 7.92885 23.81743
#
# Velocity S-wave (km/s) = 4.21822 1.88498 3.26699
# Velocity P-wave (km/s) = 6.42653 5.26176 5.87309
#
# Compressibility (1/GPa) = 0.02549676
#
# Stress axis : x y z
#
# Youngs Moduli (GPa) = 39.66341 86.81870 117.14676
#
# Poissons Ratio (x) = 0.75611 -0.16774
# Poissons Ratio (y) = 0.34543 0.30549
# Poissons Ratio (z) = -0.05679 0.22640
#
# Static dielectric constant tensor:
#      x y z
#    x 1.872630 0.000000 0.002870 
#    y 0.000000 1.819210 0.000000 
#    z 0.002870 0.000000 1.864220 
# 
# From -- ./inp_files/89631.got.cif
#   From: 2010.05.17/outbox.cif.g08.bks.cpg/sg15_45_cif.got.tgz:89631.got - 2010.06.03 18:47:42.
