data_PCOD9295660
_publ_section_title
;
Structure prediction by ZEFSAII (Michael W. Deem and Ramdas Pophale) SiO2 
 PCOD9295660
Probable space group: C 2/C
;
_chemical_formula_sum "Si O2"
_cell_formula_units_Z 40
_cell_length_a 25.287299
_cell_length_b 4.869177
_cell_length_c 16.173490
_cell_angle_alpha 90.000000
_cell_angle_beta 47.110673
_cell_angle_gamma 90.000000
_cell_volume 1459.049330
_symmetry_space_group_name_H-M "C 2/C"
_symmetry_group_IT_number 15
_symmetry_cell_setting 'monoclinic'
loop_
_space_group_symop_operation_xyz
x,y,z
-x,y,1/2-z
-x,-y,-z
x,-y,1/2+z
1/2+x,1/2+y,z
1/2-x,1/2+y,1/2-z
1/2-x,1/2-y,-z
1/2+x,1/2-y,1/2+z
loop_
_atom_site_type_symbol
_atom_site_label
_atom_site_fract_x
_atom_site_fract_y
_atom_site_fract_z
Si Si1 0.509708 0.154005 0.903539
Si Si2 0.334086 0.041746 0.827462
Si Si3 0.705496 0.726279 0.781861
Si Si4 0.673221 0.229141 0.489133
Si Si5 0.549857 0.641045 0.619052
O O1 0.468127 0.955071 0.882661
O O2 0.593259 0.167800 0.787132
O O3 0.478767 0.458284 0.927428
O O4 0.500000 0.000000 0.000000
O O5 0.258820 0.205279 0.899274
O O6 0.323378 0.777827 0.779140
O O7 0.342261 0.028584 0.917629
O O8 0.722303 0.413871 0.786898
O O9 0.660099 0.849445 0.906921
O O10 0.627546 0.505136 0.552530
O O11 0.500000 0.568715 0.750000
#
# Coordination Sequence:
#
# PCOD9295660 Si02
#       5
#     8   8   8   8   8
#     4  12  27  48  74 106 148 193 247 307 375 449
#     4  10  23  46  73 111 138 191 251 300 362 444
#     4  10  23  43  67 105 147 185 236 308 372 427
#     4  10  23  46  76 107 148 196 246 309 366 439
#     4  12  26  48  70 105 147 195 238 304 377 443
#
# _framework density 27.415112000000001
#
# number of rings (size 3 to 8) (size 9 to 14) (size 15 to 20)
#    0.000    1.200    2.000    2.400    0.000   13.600 
#    0.000    0.000    0.000    0.000    0.000    0.000 
#    0.000    0.000    0.000    0.000    0.000    0.000 
#
# Total GULP energy -111897.421101 kJ/mol
# GULP energy per Si atom -5594.871055 kJ/mol
# Density = 2.735271 g / cm^3
# Si number density = 27.415112 Si / 1000 Ang^3
#
#
#
# Elastic Constant Matrix: (Units=GPa)
#
#
# Indices 1 2 3 4 5 6 
#
# 1 118.5347 30.1505 56.2995 -0.0172 4.8224 -0.0278
# 2 30.1505 119.6786 17.5145 -0.0985 -0.4022 0.0829
# 3 56.2995 17.5145 190.7916 -0.1317 15.1377 0.1058
# 4 -0.0172 -0.0985 -0.1317 30.5423 0.1073 10.2300
# 5 4.8224 -0.4022 15.1377 0.1073 69.3147 -0.0393
# 6 -0.0278 0.0829 0.1058 10.2300 -0.0393 31.0370
#
#
#
# Elastic Compliance Matrix: (Units=1/GPa)
#
#
# Indices 1 2 3 4 5 6 
#
# 1 0.010349 -0.002191 -0.002844 -0.000024 -0.000112 0.000033
# 2 -0.002191 0.008937 -0.000193 0.000038 0.000246 -0.000038
# 3 -0.002844 -0.000193 0.006190 0.000041 -0.001155 -0.000038
# 4 -0.000024 0.000038 0.000041 0.036805 -0.000071 -0.012132
# 5 -0.000112 0.000246 -0.001155 -0.000071 0.014689 0.000045
# 6 0.000033 -0.000038 -0.000038 -0.012132 0.000045 0.036219
#
#
# Mechanical properties :
#
#
# Convention : Reuss Voigt Hill
#
# Bulk Modulus (GPa) = 66.58298 70.77044 68.67671
# Shear Modulus (GPa) = 38.86456 47.84816 43.35636
#
# Velocity S-wave (km/s) = 3.76923 4.18224 3.98109
# Velocity P-wave (km/s) = 6.57894 7.01369 6.79979
#
# Compressibility (1/GPa) = 0.01501885
#
# Stress axis : x y z
#
# Youngs Moduli (GPa) = 96.62749 111.89470 161.55262
#
# Poissons Ratio (x) = 0.24521 0.45943
# Poissons Ratio (y) = 0.21175 0.03122
# Poissons Ratio (z) = 0.27479 0.02162
#
# Static dielectric constant tensor:
#      x y z
#    x 2.260210 -0.000170 -0.016210 
#    y -0.000170 2.092850 0.000160 
#    z -0.016210 0.000160 2.134690 
# 
# From -- ./inp_files/223537.got.cif
#   From: 2010.05.17/outbox.cif.g08.bks.cpg/sg15_112_cif.got.tgz:223537.got - 2010.06.03 18:47:42.
