data_PCOD9295820
_publ_section_title
;
Structure prediction by ZEFSAII (Michael W. Deem and Ramdas Pophale) SiO2 
 PCOD9295820
Probable space group: C 2/C
;
_chemical_formula_sum "Si O2"
_cell_formula_units_Z 52
_cell_length_a 12.211175
_cell_length_b 8.519366
_cell_length_c 28.637096
_cell_angle_alpha 90.000000
_cell_angle_beta 136.493415
_cell_angle_gamma 90.000000
_cell_volume 2050.966196
_symmetry_space_group_name_H-M "C 2/C"
_symmetry_group_IT_number 15
_symmetry_cell_setting 'monoclinic'
loop_
_space_group_symop_operation_xyz
x,y,z
-x,y,1/2-z
-x,-y,-z
x,-y,1/2+z
1/2+x,1/2+y,z
1/2-x,1/2+y,1/2-z
1/2-x,1/2-y,-z
1/2+x,1/2-y,1/2+z
loop_
_atom_site_type_symbol
_atom_site_label
_atom_site_fract_x
_atom_site_fract_y
_atom_site_fract_z
Si Si1 0.798721 0.983828 0.545119
Si Si2 0.475252 0.622412 0.950572
Si Si3 0.134437 0.525992 0.829671
Si Si4 0.500000 0.538479 0.250000
Si Si5 0.040229 0.334872 0.401320
Si Si6 0.052969 0.199521 0.843583
Si Si7 0.149440 0.378278 0.637418
O O1 0.937682 0.851557 0.593155
O O2 0.651109 0.893261 0.478432
O O3 0.859232 0.101271 0.524015
O O4 0.803428 0.095544 0.590750
O O5 0.316912 0.562598 0.874584
O O6 0.430814 0.807213 0.934822
O O7 0.500000 0.500000 0.000000
O O8 0.102787 0.608495 0.870015
O O9 0.000000 0.561232 0.750000
O O10 0.121351 0.341169 0.835129
O O11 0.532447 0.425625 0.215887
O O12 0.661029 0.636809 0.306726
O O13 0.885132 0.438459 0.363063
O O14 0.939770 0.281919 0.847943
#
# Coordination Sequence:
#
# PCOD9295820 Si02
#       7
#     8   8   8   4   8   8   8
#     4  10  23  43  70 103 144 186 241 310 362 443
#     4  11  24  43  69 106 139 192 243 298 370 449
#     4  11  24  42  68 101 140 186 242 294 365 436
#     4  12  26  48  72 104 152 194 252 300 384 440
#     4  10  23  44  69 103 141 187 238 302 375 430
#     4  10  25  45  69 102 138 194 240 302 366 444
#     4  10  27  44  71 103 145 195 245 309 368 444
#
# _framework density 25.353902999999999
#
# number of rings (size 3 to 8) (size 9 to 14) (size 15 to 20)
#    0.000    1.538    2.308    0.000    7.538    8.000 
#    0.000    1.538    0.000    0.000    0.000    0.000 
#    0.000    0.000    0.000    0.000    0.000    0.000 
#
# Total GULP energy -145148.172627 kJ/mol
# GULP energy per Si atom -5582.622024 kJ/mol
# Density = 2.529620 g / cm^3
# Si number density = 25.353903 Si / 1000 Ang^3
#
#
#
# Elastic Constant Matrix: (Units=GPa)
#
#
# Indices 1 2 3 4 5 6 
#
# 1 53.2037 23.2858 12.0586 0.0000 3.6641 0.0000
# 2 23.2858 112.2721 33.9510 0.0000 6.8465 0.0000
# 3 12.0586 33.9510 87.5013 0.0000 -8.6053 0.0000
# 4 0.0000 0.0000 0.0000 48.4054 0.0000 -0.7506
# 5 3.6641 6.8465 -8.6053 0.0000 33.9218 0.0000
# 6 0.0000 0.0000 0.0000 -0.7506 0.0000 40.8245
#
#
#
# Elastic Compliance Matrix: (Units=1/GPa)
#
#
# Indices 1 2 3 4 5 6 
#
# 1 0.020930 -0.003733 -0.001625 0.000000 -0.001920 0.000000
# 2 -0.003733 0.011086 -0.004069 0.000000 -0.002867 0.000000
# 3 -0.001625 -0.004069 0.013670 0.000000 0.004465 0.000000
# 4 0.000000 0.000000 0.000000 0.020665 0.000000 0.000380
# 5 -0.001920 -0.002867 0.004465 0.000000 0.031398 0.000000
# 6 0.000000 0.000000 0.000000 0.000380 0.000000 0.024502
#
#
# Mechanical properties :
#
#
# Convention : Reuss Voigt Hill
#
# Bulk Modulus (GPa) = 37.26704 43.50754 40.38729
# Shear Modulus (GPa) = 33.32248 36.87580 35.09914
#
# Velocity S-wave (km/s) = 3.62925 3.81785 3.72475
# Velocity P-wave (km/s) = 5.68266 6.05244 5.87046
#
# Compressibility (1/GPa) = 0.02683336
#
# Stress axis : x y z
#
# Youngs Moduli (GPa) = 47.77882 90.20065 73.15155
#
# Poissons Ratio (x) = 0.33667 0.11886
# Poissons Ratio (y) = 0.17833 0.29766
# Poissons Ratio (z) = 0.07764 0.36704
#
# Static dielectric constant tensor:
#      x y z
#    x 2.039250 0.000000 -0.048440 
#    y 0.000000 2.073930 0.000000 
#    z -0.048440 0.000000 2.054490 
# 
# From -- ./inp_files/313221.got.cif
#   From: 2010.05.17/outbox.cif.g08.bks.cpg/sg15_157_cif.got.tgz:313221.got - 2010.06.03 18:47:42.
