data_PCOD9295904
_publ_section_title
;
Structure prediction by ZEFSAII (Michael W. Deem and Ramdas Pophale) SiO2 
 PCOD9295904
Probable space group: C 2/C
;
_chemical_formula_sum "Si O2"
_cell_formula_units_Z 32
_cell_length_a 23.566994
_cell_length_b 6.757222
_cell_length_c 13.045426
_cell_angle_alpha 90.000000
_cell_angle_beta 140.555610
_cell_angle_gamma 90.000000
_cell_volume 1319.864425
_symmetry_space_group_name_H-M "C 2/C"
_symmetry_group_IT_number 15
_symmetry_cell_setting 'monoclinic'
loop_
_space_group_symop_operation_xyz
x,y,z
-x,y,1/2-z
-x,-y,-z
x,-y,1/2+z
1/2+x,1/2+y,z
1/2-x,1/2+y,1/2-z
1/2-x,1/2-y,-z
1/2+x,1/2-y,1/2+z
loop_
_atom_site_type_symbol
_atom_site_label
_atom_site_fract_x
_atom_site_fract_y
_atom_site_fract_z
Si Si1 0.131357 0.267515 0.449580
Si Si2 0.820008 0.736440 0.781359
Si Si3 0.019884 0.326327 0.106761
Si Si4 0.220527 0.875117 0.556133
O O1 0.231474 0.340588 0.611867
O O2 0.079795 0.384560 0.289841
O O3 0.070901 0.254022 0.466604
O O4 0.146731 0.043891 0.429948
O O5 0.912749 0.810759 0.864645
O O6 0.800236 0.513122 0.713845
O O7 0.815990 0.754381 0.897336
O O8 0.000000 0.500000 0.000000
O O9 0.250000 0.750000 0.500000
#
# Coordination Sequence:
#
# PCOD9295904 Si02
#       4
#     8   8   8   8
#     4   9  24  42  68 113 147 201 251 312 388 460
#     4  10  23  43  72 105 152 202 255 314 391 449
#     4  11  22  43  74 107 153 194 256 315 385 458
#     4  10  24  43  72 108 150 204 259 313 384 455
#
# _framework density 24.244914999999999
#
# number of rings (size 3 to 8) (size 9 to 14) (size 15 to 20)
#    1.500    0.500    0.000    2.250    3.500    5.000 
#    0.000    5.000    0.000    0.000    0.000    0.000 
#    0.000    0.000    0.000    0.000    0.000    0.000 
#
# Total GULP energy -89215.818631 kJ/mol
# GULP energy per Si atom -5575.988664 kJ/mol
# Density = 2.418973 g / cm^3
# Si number density = 24.244915 Si / 1000 Ang^3
#
#
#
# Elastic Constant Matrix: (Units=GPa)
#
#
# Indices 1 2 3 4 5 6 
#
# 1 256.1659 59.3462 55.1091 0.0000 -10.5028 0.0000
# 2 59.3462 74.9024 34.4480 0.0000 -20.9097 0.0000
# 3 55.1091 34.4480 107.0869 0.0000 -9.5031 0.0000
# 4 0.0000 0.0000 0.0000 31.5739 0.0000 -18.3511
# 5 -10.5028 -20.9097 -9.5031 0.0000 56.4738 0.0000
# 6 0.0000 0.0000 0.0000 -18.3511 0.0000 45.9430
#
#
#
# Elastic Compliance Matrix: (Units=1/GPa)
#
#
# Indices 1 2 3 4 5 6 
#
# 1 0.005001 -0.003428 -0.001524 0.000000 -0.000596 0.000000
# 2 -0.003428 0.019564 -0.004003 0.000000 0.005933 0.000000
# 3 -0.001524 -0.004003 0.011424 0.000000 0.000157 0.000000
# 4 0.000000 0.000000 0.000000 0.041248 0.000000 0.016476
# 5 -0.000596 0.005933 0.000157 0.000000 0.019820 0.000000
# 6 0.000000 0.000000 0.000000 0.016476 0.000000 0.028347
#
#
# Mechanical properties :
#
#
# Convention : Reuss Voigt Hill
#
# Bulk Modulus (GPa) = 55.31045 81.77352 68.54198
# Shear Modulus (GPa) = 33.48089 46.08161 39.78125
#
# Velocity S-wave (km/s) = 3.72014 4.36440 4.05508
# Velocity P-wave (km/s) = 6.42770 7.69406 7.08922
#
# Compressibility (1/GPa) = 0.01807977
#
# Stress axis : x y z
#
# Youngs Moduli (GPa) = 199.94757 51.11492 87.53523
#
# Poissons Ratio (x) = 0.17522 0.13339
# Poissons Ratio (y) = 0.68542 0.35038
# Poissons Ratio (z) = 0.30470 0.20460
#
# Static dielectric constant tensor:
#      x y z
#    x 1.985300 0.000000 0.049140 
#    y 0.000000 2.013870 0.000000 
#    z 0.049140 0.000000 1.961070 
# 
# From -- ./inp_files/109877.got.cif
#   From: 2010.05.17/outbox.cif.g08.bks.cpg/sg15_55_cif.got.tgz:109877.got - 2010.06.03 18:47:42.
