data_PCOD9295700
_publ_section_title
;
Structure prediction by ZEFSAII (Michael W. Deem and Ramdas Pophale) SiO2 
 PCOD9295700
Probable space group: C 2/C
;
_chemical_formula_sum "Si O2"
_cell_formula_units_Z 60
_cell_length_a 18.002471
_cell_length_b 9.812741
_cell_length_c 18.357528
_cell_angle_alpha 90.000000
_cell_angle_beta 132.607695
_cell_angle_gamma 90.000000
_cell_volume 2386.811451
_symmetry_space_group_name_H-M "C 2/C"
_symmetry_group_IT_number 15
_symmetry_cell_setting 'monoclinic'
loop_
_space_group_symop_operation_xyz
x,y,z
-x,y,1/2-z
-x,-y,-z
x,-y,1/2+z
1/2+x,1/2+y,z
1/2-x,1/2+y,1/2-z
1/2-x,1/2-y,-z
1/2+x,1/2-y,1/2+z
loop_
_atom_site_type_symbol
_atom_site_label
_atom_site_fract_x
_atom_site_fract_y
_atom_site_fract_z
Si Si1 0.817218 0.340909 0.597671
Si Si2 0.477289 0.880643 0.927380
Si Si3 0.500000 0.349865 0.250000
Si Si4 0.840473 0.168156 0.021226
Si Si5 0.949593 0.578151 0.641199
Si Si6 0.833911 0.972225 0.662524
Si Si7 0.187494 0.700110 0.614747
Si Si8 0.231153 0.770057 0.175456
O O1 0.750000 0.250000 0.500000
O O2 0.849303 0.491674 0.596176
O O3 0.758170 0.323916 0.634405
O O4 0.918721 0.252685 0.664476
O O5 0.484561 0.966015 0.857388
O O6 0.370522 0.807723 0.865734
O O7 0.574270 0.784670 0.009260
O O8 0.500000 0.000000 0.000000
O O9 0.569559 0.444595 0.244740
O O10 0.926117 0.286893 0.079074
O O11 0.860557 0.053392 0.095090
O O12 0.750000 0.250000 0.000000
O O13 0.810064 0.136258 0.918305
O O14 0.000000 0.621215 0.750000
O O15 0.807770 0.834765 0.686723
O O16 0.736023 0.065802 0.609357
O O17 0.208463 0.677029 0.714260
#
# Coordination Sequence:
#
# PCOD9295700 Si02
#       8
#     8   8   4   8   8   8   8   8
#     4  11  23  43  73 104 138 189 241 292 353 420
#     4  12  22  42  70 102 146 182 234 297 354 427
#     4  10  24  42  70  96 146 180 234 296 350 416
#     4  10  23  43  67  99 139 185 238 292 347 429
#     4  12  24  42  72 109 137 185 247 293 354 426
#     4  10  23  45  67 101 137 190 234 293 358 419
#     4  11  24  44  71 101 143 189 234 297 368 418
#     4  11  24  44  71 104 147 187 237 293 365 431
#
# _framework density 25.138138999999999
#
# number of rings (size 3 to 8) (size 9 to 14) (size 15 to 20)
#    0.000    1.067    4.667    1.600    6.533    3.200 
#    4.800    0.000    0.000    4.800    0.000    0.000 
#    0.000    0.000    0.000    0.000    0.000    0.000 
#
# Total GULP energy -167674.390326 kJ/mol
# GULP energy per Si atom -5589.146344 kJ/mol
# Density = 2.508092 g / cm^3
# Si number density = 25.138139 Si / 1000 Ang^3
#
#
#
# Elastic Constant Matrix: (Units=GPa)
#
#
# Indices 1 2 3 4 5 6 
#
# 1 87.7985 23.5441 34.4096 0.0000 2.5004 0.0000
# 2 23.5441 89.0458 25.2074 0.0000 -3.0182 0.0000
# 3 34.4096 25.2074 144.2118 0.0000 -1.1551 0.0000
# 4 0.0000 0.0000 0.0000 28.3740 0.0000 -1.9495
# 5 2.5004 -3.0182 -1.1551 0.0000 60.3951 0.0000
# 6 0.0000 0.0000 0.0000 -1.9495 0.0000 42.7194
#
#
#
# Elastic Compliance Matrix: (Units=1/GPa)
#
#
# Indices 1 2 3 4 5 6 
#
# 1 0.013198 -0.002758 -0.002673 0.000000 -0.000735 0.000000
# 2 -0.002758 0.012409 -0.001505 0.000000 0.000706 0.000000
# 3 -0.002673 -0.001505 0.007837 0.000000 0.000185 0.000000
# 4 0.000000 0.000000 0.000000 0.035354 0.000000 0.001613
# 5 -0.000735 0.000706 0.000185 0.000000 0.016627 0.000000
# 6 0.000000 0.000000 0.000000 0.001613 0.000000 0.023482
#
#
# Mechanical properties :
#
#
# Convention : Reuss Voigt Hill
#
# Bulk Modulus (GPa) = 51.09453 54.15314 52.62384
# Shear Modulus (GPa) = 38.66874 42.15736 40.41305
#
# Velocity S-wave (km/s) = 3.92631 4.09960 4.01389
# Velocity P-wave (km/s) = 6.39720 6.63309 6.51621
#
# Compressibility (1/GPa) = 0.01957157
#
# Stress axis : x y z
#
# Youngs Moduli (GPa) = 75.77050 80.58390 127.60593
#
# Poissons Ratio (x) = 0.22224 0.34108
# Poissons Ratio (y) = 0.20896 0.19210
# Poissons Ratio (z) = 0.20253 0.12131
#
# Static dielectric constant tensor:
#      x y z
#    x 2.070380 0.000000 -0.017830 
#    y 0.000000 2.058260 0.000000 
#    z -0.017830 0.000000 2.033180 
# 
# From -- ./inp_files/215221.got.cif
#   From: 2010.05.17/outbox.cif.g08.bks.cpg/sg15_108_cif.got.tgz:215221.got - 2010.06.03 18:47:42.
