data_PCOD9295121
_publ_section_title
;
Structure prediction by ZEFSAII (Michael W. Deem and Ramdas Pophale) SiO2 
 PCOD9295121
Probable space group: C 2/C
;
_chemical_formula_sum "Si O2"
_cell_formula_units_Z 64
_cell_length_a 23.788653
_cell_length_b 17.399407
_cell_length_c 19.614938
_cell_angle_alpha 90.000000
_cell_angle_beta 21.402268
_cell_angle_gamma 90.000000
_cell_volume 2962.656726
_symmetry_space_group_name_H-M "C 2/C"
_symmetry_group_IT_number 15
_symmetry_cell_setting 'monoclinic'
loop_
_space_group_symop_operation_xyz
x,y,z
-x,y,1/2-z
-x,-y,-z
x,-y,1/2+z
1/2+x,1/2+y,z
1/2-x,1/2+y,1/2-z
1/2-x,1/2-y,-z
1/2+x,1/2-y,1/2+z
loop_
_atom_site_type_symbol
_atom_site_label
_atom_site_fract_x
_atom_site_fract_y
_atom_site_fract_z
Si Si1 0.203507 0.847535 0.082526
Si Si2 0.153895 0.300878 0.829475
Si Si3 0.427971 0.961157 0.647586
Si Si4 0.364836 0.013000 0.458513
Si Si5 0.803912 0.093666 0.545801
Si Si6 0.662428 0.252556 0.755965
Si Si7 0.128428 0.778728 0.033313
Si Si8 0.655059 0.618429 0.161206
O O1 0.343759 0.796350 0.951958
O O2 0.044328 0.806851 0.285651
O O3 0.232637 0.930729 0.079138
O O4 0.196553 0.843585 0.008309
O O5 0.124347 0.379238 0.822206
O O6 0.232070 0.305039 0.814879
O O7 0.276445 0.260786 0.641398
O O8 0.996788 0.257413 0.023673
O O9 0.556950 0.957052 0.560876
O O10 0.500000 0.000000 0.500000
O O11 0.294443 0.017865 0.826290
O O12 0.500000 0.010091 0.250000
O O13 0.283272 0.930893 0.555840
O O14 0.732573 0.167864 0.664660
O O15 0.802906 0.112607 0.466120
O O16 0.982690 0.084929 0.364049
O O17 0.646639 0.296278 0.701995
#
# Coordination Sequence:
#
# PCOD9295121 Si02
#       8
#     8   8   8   8   8   8   8   8
#     4  10  24  41  68 101 143 192 255 310 362 445
#     4  12  26  44  72 102 152 197 244 300 381 445
#     4  12  26  47  71 104 149 192 237 309 379 458
#     4  12  26  45  73 108 145 193 250 305 385 443
#     4  11  25  49  75 108 144 193 248 312 373 435
#     4  12  25  49  72 109 146 197 253 305 370 443
#     4  10  23  42  65 101 142 197 246 306 362 439
#     4  11  26  47  76 108 143 191 254 311 362 442
#
# _framework density 21.602232999999998
#
# number of rings (size 3 to 8) (size 9 to 14) (size 15 to 20)
#    0.000    0.750    3.750    2.625    8.750    1.000 
#    4.500    1.250    0.000    0.000    0.000    0.000 
#    0.000    0.000    0.000    0.000    0.000    0.000 
#
# Total GULP energy -178806.006716 kJ/mol
# GULP energy per Si atom -5587.687710 kJ/mol
# Density = 2.155307 g / cm^3
# Si number density = 21.602233 Si / 1000 Ang^3
#
#
#
# Elastic Constant Matrix: (Units=GPa)
#
#
# Indices 1 2 3 4 5 6 
#
# 1 93.6012 21.5644 33.4615 0.0014 -3.7204 0.0001
# 2 21.5644 78.8510 28.7740 0.0078 -3.6336 -0.0004
# 3 33.4615 28.7740 105.7950 0.0062 -7.4728 -0.0005
# 4 0.0014 0.0078 0.0062 28.1819 -0.0082 2.3829
# 5 -3.7204 -3.6336 -7.4728 -0.0082 22.8190 -0.0001
# 6 0.0001 -0.0004 -0.0005 2.3829 -0.0001 37.0582
#
#
#
# Elastic Compliance Matrix: (Units=1/GPa)
#
#
# Indices 1 2 3 4 5 6 
#
# 1 0.012379 -0.002159 -0.003286 0.000001 0.000598 0.000000
# 2 -0.002159 0.014479 -0.003191 -0.000003 0.000909 0.000000
# 3 -0.003286 -0.003191 0.011553 -0.000001 0.002740 0.000000
# 4 0.000001 -0.000003 -0.000001 0.035678 0.000012 -0.002294
# 5 0.000598 0.000909 0.002740 0.000012 0.044963 -0.000001
# 6 0.000000 0.000000 0.000000 -0.002294 -0.000001 0.027132
#
#
# Mechanical properties :
#
#
# Convention : Reuss Voigt Hill
#
# Bulk Modulus (GPa) = 47.30456 49.53855 48.42156
# Shear Modulus (GPa) = 29.32519 30.57498 29.95008
#
# Velocity S-wave (km/s) = 3.68843 3.76621 3.72753
# Velocity P-wave (km/s) = 6.33127 6.47259 6.40232
#
# Compressibility (1/GPa) = 0.02113961
#
# Stress axis : x y z
#
# Youngs Moduli (GPa) = 80.77871 69.06620 86.55808
#
# Poissons Ratio (x) = 0.14911 0.28443
# Poissons Ratio (y) = 0.17439 0.27620
# Poissons Ratio (z) = 0.26544 0.22039
#
# Static dielectric constant tensor:
#      x y z
#    x 1.757340 0.000000 0.004060 
#    y 0.000000 1.845480 0.000000 
#    z 0.004060 0.000000 1.804980 
# 
# From -- ./inp_files/255987.got.cif
#   From: 2010.05.17/outbox.cif.g08.bks.cpg/sg15_128_cif.got.tgz:255987.got - 2010.06.03 18:47:42.
