data_PCOD9295807
_publ_section_title
;
Structure prediction by ZEFSAII (Michael W. Deem and Ramdas Pophale) SiO2 
 PCOD9295807
Probable space group: C 2/C
;
_chemical_formula_sum "Si O2"
_cell_formula_units_Z 56
_cell_length_a 17.402215
_cell_length_b 8.886520
_cell_length_c 27.844846
_cell_angle_alpha 90.000000
_cell_angle_beta 38.589655
_cell_angle_gamma 90.000000
_cell_volume 2685.861477
_symmetry_space_group_name_H-M "C 2/C"
_symmetry_group_IT_number 15
_symmetry_cell_setting 'monoclinic'
loop_
_space_group_symop_operation_xyz
x,y,z
-x,y,1/2-z
-x,-y,-z
x,-y,1/2+z
1/2+x,1/2+y,z
1/2-x,1/2+y,1/2-z
1/2-x,1/2-y,-z
1/2+x,1/2-y,1/2+z
loop_
_atom_site_type_symbol
_atom_site_label
_atom_site_fract_x
_atom_site_fract_y
_atom_site_fract_z
Si Si1 0.869512 0.381608 0.166502
Si Si2 0.773166 0.719171 0.340518
Si Si3 0.271010 0.361615 0.446149
Si Si4 0.967901 0.957982 0.212062
Si Si5 0.352120 0.107158 0.828995
Si Si6 0.350672 0.878204 0.442488
Si Si7 0.759523 0.182069 0.296668
O O1 0.841334 0.275141 0.134866
O O2 0.771652 0.320293 0.253916
O O3 0.845214 0.556893 0.163506
O O4 0.004547 0.351884 0.121007
O O5 0.754485 0.781498 0.403270
O O6 0.889894 0.807425 0.260731
O O7 0.805751 0.544854 0.325893
O O8 0.250000 0.250000 0.500000
O O9 0.409923 0.424437 0.376658
O O10 0.181226 0.497287 0.502159
O O11 0.000000 0.014698 0.250000
O O12 0.880827 0.079401 0.230650
O O13 0.500000 0.125902 0.750000
O O14 0.332814 0.082202 0.895076
O O15 0.276342 0.244656 0.841447
O O16 0.250000 0.750000 0.500000
#
# Coordination Sequence:
#
# PCOD9295807 Si02
#       7
#     8   8   8   8   8   8   8
#     4  11  25  44  69 101 140 176 223 289 343 403
#     4  10  23  43  70 100 133 177 232 286 340 398
#     4  11  22  41  66 100 137 180 222 276 344 412
#     4   9  20  38  69  97 128 173 230 280 327 397
#     4  12  23  43  74 102 132 178 237 280 331 409
#     4  12  28  44  69 100 141 182 228 278 345 419
#     4  11  23  41  69  99 132 174 229 283 337 391
#
# _framework density 20.849920999999998
#
# number of rings (size 3 to 8) (size 9 to 14) (size 15 to 20)
#    0.000    1.143    2.857    3.429    6.000    1.714 
#    0.000    2.143    0.000    0.000    0.000    0.000 
#    0.000    0.000    0.000    0.000    0.000    0.000 
#
# Total GULP energy -156307.191708 kJ/mol
# GULP energy per Si atom -5582.399704 kJ/mol
# Density = 2.080247 g / cm^3
# Si number density = 20.849921 Si / 1000 Ang^3
#
#
#
# Elastic Constant Matrix: (Units=GPa)
#
#
# Indices 1 2 3 4 5 6 
#
# 1 101.2433 40.2793 14.6997 -0.0001 -0.2101 -0.0003
# 2 40.2793 107.6321 18.3553 -0.0005 -12.2735 -0.0006
# 3 14.6997 18.3553 77.6914 -0.0001 5.4127 0.0001
# 4 -0.0001 -0.0005 -0.0001 12.4530 -0.0001 9.8760
# 5 -0.2101 -12.2735 5.4127 -0.0001 14.4518 0.0001
# 6 -0.0003 -0.0006 0.0001 9.8760 0.0001 32.5024
#
#
#
# Elastic Compliance Matrix: (Units=1/GPa)
#
#
# Indices 1 2 3 4 5 6 
#
# 1 0.011863 -0.004682 -0.000897 0.000000 -0.003468 0.000000
# 2 -0.004682 0.012929 -0.003007 0.000001 0.012038 0.000000
# 3 -0.000897 -0.003007 0.014304 0.000000 -0.007924 0.000000
# 4 0.000000 0.000001 0.000000 0.105796 0.000002 -0.032147
# 5 -0.003468 0.012038 -0.007924 0.000002 0.082337 0.000000
# 6 0.000000 0.000000 0.000000 -0.032147 0.000000 0.040535
#
#
# Mechanical properties :
#
#
# Convention : Reuss Voigt Hill
#
# Bulk Modulus (GPa) = 45.61406 48.13728 46.87567
# Shear Modulus (GPa) = 17.10903 26.09692 21.60298
#
# Velocity S-wave (km/s) = 2.86768 3.54171 3.22237
# Velocity P-wave (km/s) = 5.73495 6.31368 6.03126
#
# Compressibility (1/GPa) = 0.02192306
#
# Stress axis : x y z
#
# Youngs Moduli (GPa) = 84.29623 77.34739 69.91193
#
# Poissons Ratio (x) = 0.36214 0.06269
# Poissons Ratio (y) = 0.39468 0.21025
# Poissons Ratio (z) = 0.07559 0.23261
#
# Static dielectric constant tensor:
#      x y z
#    x 1.545870 0.000010 -0.251970 
#    y 0.000010 1.751250 0.000010 
#    z -0.251970 0.000010 1.427830 
# 
# From -- ./inp_files/298493.got.cif
#   From: 2010.05.17/outbox.cif.g08.bks.cpg/sg15_150_cif.got.tgz:298493.got - 2010.06.03 18:47:42.
