data_PCOD9295023
_publ_section_title
;
Structure prediction by ZEFSAII (Michael W. Deem and Ramdas Pophale) SiO2 
 PCOD9295023
Probable space group: C 2/C
;
_chemical_formula_sum "Si O2"
_cell_formula_units_Z 48
_cell_length_a 16.365457
_cell_length_b 8.788160
_cell_length_c 20.650871
_cell_angle_alpha 90.000000
_cell_angle_beta 117.542838
_cell_angle_gamma 90.000000
_cell_volume 2633.444709
_symmetry_space_group_name_H-M "C 2/C"
_symmetry_group_IT_number 15
_symmetry_cell_setting 'monoclinic'
loop_
_space_group_symop_operation_xyz
x,y,z
-x,y,1/2-z
-x,-y,-z
x,-y,1/2+z
1/2+x,1/2+y,z
1/2-x,1/2+y,1/2-z
1/2-x,1/2-y,-z
1/2+x,1/2-y,1/2+z
loop_
_atom_site_type_symbol
_atom_site_label
_atom_site_fract_x
_atom_site_fract_y
_atom_site_fract_z
Si Si1 0.525477 0.380342 0.917071
Si Si2 0.716220 0.342589 0.925000
Si Si3 0.817962 0.159255 0.333194
Si Si4 0.510967 0.727909 0.554196
Si Si5 0.705755 0.703199 0.674905
Si Si6 0.688761 0.169086 0.532400
O O1 0.607855 0.364298 0.897395
O O2 0.426172 0.327444 0.855466
O O3 0.519140 0.557926 0.935053
O O4 0.541437 0.289373 0.990244
O O5 0.737659 0.256872 0.866727
O O6 0.769536 0.502705 0.942518
O O7 0.750000 0.250000 0.000000
O O8 0.753420 0.238497 0.257228
O O9 0.805627 0.233788 0.399294
O O10 0.799396 0.979237 0.328486
O O11 0.601673 0.767739 0.628043
O O12 0.419925 0.830566 0.525889
O O13 0.750000 0.250000 0.500000
#
# Coordination Sequence:
#
# PCOD9295023 Si02
#       6
#     8   8   8   8   8   8
#     4   9  18  37  61  86 118 161 193 234 302 366
#     4  12  22  36  61  95 119 150 200 251 297 351
#     4  10  23  42  62  84 120 164 200 240 305 363
#     4   9  18  37  62  86 117 157 198 239 298 358
#     4  11  22  40  62  86 123 158 199 246 299 361
#     4  11  21  38  65  91 115 152 203 251 290 356
#
# _framework density 18.227077000000001
#
# number of rings (size 3 to 8) (size 9 to 14) (size 15 to 20)
#    0.000    1.667    3.333    3.000    0.000    1.333 
#    3.000    0.833    3.667    0.000    0.000    0.000 
#    0.000    0.000    0.000    0.000    0.000    0.000 
#
# Total GULP energy -134032.136595 kJ/mol
# GULP energy per Si atom -5584.672358 kJ/mol
# Density = 1.818559 g / cm^3
# Si number density = 18.227077 Si / 1000 Ang^3
#
#
#
# Elastic Constant Matrix: (Units=GPa)
#
#
# Indices 1 2 3 4 5 6 
#
# 1 161.9031 51.1099 71.2492 0.0000 11.9178 0.0000
# 2 51.1099 76.9086 43.6963 0.0000 9.9285 0.0000
# 3 71.2492 43.6963 124.6035 0.0000 20.0026 0.0000
# 4 0.0000 0.0000 0.0000 32.0896 0.0000 -2.0479
# 5 11.9178 9.9285 20.0026 0.0000 29.6857 0.0000
# 6 0.0000 0.0000 0.0000 -2.0479 0.0000 26.9166
#
#
#
# Elastic Compliance Matrix: (Units=1/GPa)
#
#
# Indices 1 2 3 4 5 6 
#
# 1 0.009086 -0.003867 -0.003881 0.000000 0.000261 0.000000
# 2 -0.003867 0.017968 -0.003784 0.000000 -0.001908 0.000000
# 3 -0.003881 -0.003784 0.012467 0.000000 -0.005577 0.000000
# 4 0.000000 0.000000 0.000000 0.031315 0.000000 0.002382
# 5 0.000261 -0.001908 -0.005577 0.000000 0.037977 0.000000
# 6 0.000000 0.000000 0.000000 0.002382 0.000000 0.037333
#
#
# Mechanical properties :
#
#
# Convention : Reuss Voigt Hill
#
# Bulk Modulus (GPa) = 60.76303 77.28064 69.02183
# Shear Modulus (GPa) = 28.62117 30.89570 29.75844
#
# Velocity S-wave (km/s) = 3.96694 4.12156 4.04499
# Velocity P-wave (km/s) = 7.37504 8.07097 7.73084
#
# Compressibility (1/GPa) = 0.01645738
#
# Stress axis : x y z
#
# Youngs Moduli (GPa) = 110.05897 55.65406 80.21146
#
# Poissons Ratio (x) = 0.21519 0.31133
# Poissons Ratio (y) = 0.42555 0.30352
# Poissons Ratio (z) = 0.42718 0.21059
#
# Static dielectric constant tensor:
#      x y z
#    x 1.625030 0.000000 0.029900 
#    y 0.000000 1.449230 0.000000 
#    z 0.029900 0.000000 1.605260 
# 
# From -- ./inp_files/242591.got.cif
#   From: 2010.05.17/outbox.cif.g08.bks.cpg/sg15_122_cif.got.tgz:242591.got - 2010.06.03 18:47:42.
