data_PCOD9295586
_publ_section_title
;
Structure prediction by ZEFSAII (Michael W. Deem and Ramdas Pophale) SiO2 
 PCOD9295586
Probable space group: C 2/C
;
_chemical_formula_sum "Si O2"
_cell_formula_units_Z 52
_cell_length_a 25.607755
_cell_length_b 13.648844
_cell_length_c 19.863989
_cell_angle_alpha 90.000000
_cell_angle_beta 158.957607
_cell_angle_gamma 90.000000
_cell_volume 2492.867419
_symmetry_space_group_name_H-M "C 2/C"
_symmetry_group_IT_number 15
_symmetry_cell_setting 'monoclinic'
loop_
_space_group_symop_operation_xyz
x,y,z
-x,y,1/2-z
-x,-y,-z
x,-y,1/2+z
1/2+x,1/2+y,z
1/2-x,1/2+y,1/2-z
1/2-x,1/2-y,-z
1/2+x,1/2-y,1/2+z
loop_
_atom_site_type_symbol
_atom_site_label
_atom_site_fract_x
_atom_site_fract_y
_atom_site_fract_z
Si Si1 0.037235 0.860622 0.039886
Si Si2 0.743689 0.471299 0.825519
Si Si3 0.964144 0.108823 0.606563
Si Si4 0.317419 0.994374 0.203270
Si Si5 0.452047 0.135152 0.469230
Si Si6 0.000000 0.725586 0.250000
Si Si7 0.792261 0.551361 0.026178
O O1 0.978914 0.862611 0.046662
O O2 0.177992 0.930771 0.211571
O O3 0.069595 0.750435 0.058637
O O4 0.903749 0.908677 0.838194
O O5 0.849287 0.414914 0.901974
O O6 0.819163 0.500310 0.986517
O O7 0.845746 0.024695 0.474369
O O8 0.929486 0.204570 0.608887
O O9 0.120949 0.073485 0.820098
O O10 0.410337 0.083142 0.348668
O O11 0.384346 0.896915 0.315641
O O12 0.331093 0.992404 0.139577
O O13 0.122276 0.653705 0.368285
#
# Coordination Sequence:
#
# PCOD9295586 Si02
#       7
#     8   8   8   8   8   4   8
#     4  10  23  43  65  94 132 173 225 270 341 389
#     4  10  23  43  65  97 132 174 219 282 331 395
#     4  11  22  38  62  96 134 169 215 278 337 405
#     4  11  23  41  61  99 134 168 226 270 333 397
#     4  11  24  41  69  96 133 180 222 279 327 404
#     4  12  22  34  64  98 130 172 218 264 360 406
#     4  11  23  40  62  94 137 172 214 284 333 394
#
# _framework density 20.859513
#
# number of rings (size 3 to 8) (size 9 to 14) (size 15 to 20)
#    0.000    1.231    3.077    2.308    4.308    3.692 
#    0.000    0.769    0.000    1.846    0.000    0.000 
#    0.000    0.000    0.000    0.000    0.000    0.000 
#
# Total GULP energy -145423.216287 kJ/mol
# GULP energy per Si atom -5593.200626 kJ/mol
# Density = 2.081204 g / cm^3
# Si number density = 20.859513 Si / 1000 Ang^3
#
#
#
# Elastic Constant Matrix: (Units=GPa)
#
#
# Indices 1 2 3 4 5 6 
#
# 1 99.0569 37.8578 30.1686 0.0000 -8.0409 0.0000
# 2 37.8578 119.8580 22.2255 -0.0001 5.1157 -0.0002
# 3 30.1686 22.2255 89.1603 0.0000 6.6196 -0.0002
# 4 0.0000 -0.0001 0.0000 19.4847 0.0000 5.5519
# 5 -8.0409 5.1157 6.6196 0.0000 34.4036 -0.0001
# 6 0.0000 -0.0002 -0.0002 5.5519 -0.0001 16.4368
#
#
#
# Elastic Compliance Matrix: (Units=1/GPa)
#
#
# Indices 1 2 3 4 5 6 
#
# 1 0.012972 -0.003573 -0.003818 0.000000 0.004298 0.000000
# 2 -0.003573 0.009759 -0.001069 0.000000 -0.002080 0.000000
# 3 -0.003818 -0.001069 0.013014 0.000000 -0.003237 0.000000
# 4 0.000000 0.000000 0.000000 0.056788 0.000000 -0.019182
# 5 0.004298 -0.002080 -0.003237 0.000000 0.031003 0.000000
# 6 0.000000 0.000000 0.000000 -0.019182 0.000000 0.067318
#
#
# Mechanical properties :
#
#
# Convention : Reuss Voigt Hill
#
# Bulk Modulus (GPa) = 53.11883 54.28654 53.70268
# Shear Modulus (GPa) = 23.35901 28.58657 25.97279
#
# Velocity S-wave (km/s) = 3.35001 3.70595 3.53247
# Velocity P-wave (km/s) = 6.36268 6.66284 6.51449
#
# Compressibility (1/GPa) = 0.01882572
#
# Stress axis : x y z
#
# Youngs Moduli (GPa) = 77.08724 102.47174 76.83760
#
# Poissons Ratio (x) = 0.36612 0.29335
# Poissons Ratio (y) = 0.27542 0.08216
# Poissons Ratio (z) = 0.29430 0.10957
#
# Static dielectric constant tensor:
#      x y z
#    x 1.792740 0.000000 0.015520 
#    y 0.000000 1.711240 0.000000 
#    z 0.015520 0.000000 1.791730 
# 
# From -- ./inp_files/257820.got.cif
#   From: 2010.05.17/outbox.cif.g08.bks.cpg/sg15_129_cif.got.tgz:257820.got - 2010.06.03 18:47:42.
