data_PCOD9295606
_publ_section_title
;
Structure prediction by ZEFSAII (Michael W. Deem and Ramdas Pophale) SiO2 
 PCOD9295606
Probable space group: C 2/C
;
_chemical_formula_sum "Si O2"
_cell_formula_units_Z 56
_cell_length_a 23.628694
_cell_length_b 13.428847
_cell_length_c 13.539865
_cell_angle_alpha 90.000000
_cell_angle_beta 32.506092
_cell_angle_gamma 90.000000
_cell_volume 2308.775878
_symmetry_space_group_name_H-M "C 2/C"
_symmetry_group_IT_number 15
_symmetry_cell_setting 'monoclinic'
loop_
_space_group_symop_operation_xyz
x,y,z
-x,y,1/2-z
-x,-y,-z
x,-y,1/2+z
1/2+x,1/2+y,z
1/2-x,1/2+y,1/2-z
1/2-x,1/2-y,-z
1/2+x,1/2-y,1/2+z
loop_
_atom_site_type_symbol
_atom_site_label
_atom_site_fract_x
_atom_site_fract_y
_atom_site_fract_z
Si Si1 0.928833 0.074618 0.505583
Si Si2 0.875004 0.480957 0.195707
Si Si3 0.669679 0.832930 0.075217
Si Si4 0.232882 0.339562 0.755169
Si Si5 0.979111 0.138892 0.932320
Si Si6 0.000000 0.213310 0.250000
Si Si7 0.500000 0.193496 0.250000
Si Si8 0.711982 0.123231 0.861569
O O1 0.917685 0.140533 0.424378
O O2 0.812758 0.050148 0.720729
O O3 0.991179 0.135430 0.497156
O O4 0.997212 0.977153 0.378037
O O5 0.836786 0.435602 0.355608
O O6 0.816384 0.580534 0.246098
O O7 0.837479 0.396581 0.173293
O O8 0.000000 0.500000 0.000000
O O9 0.555388 0.781922 0.248535
O O10 0.750000 0.750000 0.000000
O O11 0.685132 0.847706 0.935238
O O12 0.356855 0.350204 0.588909
O O13 0.228642 0.228601 0.717798
O O14 0.026071 0.229758 0.801364
O O15 0.394569 0.128089 0.418058
#
# Coordination Sequence:
#
# PCOD9295606 Si02
#       8
#     8   8   8   8   8   4   4   8
#     4  11  22  42  72 104 144 184 254 310 372 438
#     4  12  27  46  74 112 154 197 254 322 387 454
#     4  12  24  45  76 108 144 206 252 305 381 453
#     4  11  23  46  71 106 151 189 256 318 375 454
#     4  10  23  43  66 104 146 191 240 308 372 458
#     4  12  23  38  75 106 134 186 250 311 371 442
#     4  10  25  44  71  98 156 198 244 295 395 452
#     4  11  24  47  72 106 149 198 250 322 368 468
#
# _framework density 24.255278000000001
#
# number of rings (size 3 to 8) (size 9 to 14) (size 15 to 20)
#    0.000    0.857    4.286    2.143    2.000    1.714 
#   10.286    0.000    0.000    0.000    0.000    0.000 
#    0.000    0.000    0.000    0.000    0.000    0.000 
#
# Total GULP energy -156363.153205 kJ/mol
# GULP energy per Si atom -5584.398329 kJ/mol
# Density = 2.420007 g / cm^3
# Si number density = 24.255278 Si / 1000 Ang^3
#
#
#
# Elastic Constant Matrix: (Units=GPa)
#
#
# Indices 1 2 3 4 5 6 
#
# 1 65.7694 21.6118 6.1160 0.0000 -21.9811 0.0000
# 2 21.6118 89.3979 15.1502 0.0000 4.4186 0.0000
# 3 6.1160 15.1502 81.5900 0.0000 -12.1876 0.0000
# 4 0.0000 0.0000 0.0000 18.7211 0.0000 31.5770
# 5 -21.9811 4.4186 -12.1876 0.0000 35.4276 0.0000
# 6 0.0000 0.0000 0.0000 31.5770 0.0000 13.9001
#
#
#
# Elastic Compliance Matrix: (Units=1/GPa)
#
#
# Indices 1 2 3 4 5 6 
#
# 1 0.022238 -0.006433 0.001801 0.000000 0.015219 0.000000
# 2 -0.006433 0.013591 -0.003047 0.000000 -0.006735 0.000000
# 3 0.001801 -0.003047 0.013610 0.000000 0.006180 0.000000
# 4 0.000000 0.000000 0.000000 -0.018863 0.000000 0.042852
# 5 0.015219 -0.006735 0.006180 0.000000 0.040635 0.000000
# 6 0.000000 0.000000 0.000000 0.042852 0.000000 -0.025406
#
#
# Mechanical properties :
#
#
# Convention : Reuss Voigt Hill
#
# Bulk Modulus (GPa) = 29.34344 35.83479 32.58912
# Shear Modulus (GPa) = 68.94296 26.53505 47.73901
#
# Velocity S-wave (km/s) = 5.33719 3.31114 4.44124
# Velocity P-wave (km/s) = 7.07848 5.42442 6.30592
#
# Compressibility (1/GPa) = 0.03407917
#
# Stress axis : x y z
#
# Youngs Moduli (GPa) = 44.96875 73.58072 73.47354
#
# Poissons Ratio (x) = 0.47337 -0.13233
# Poissons Ratio (y) = 0.28930 0.22390
# Poissons Ratio (z) = -0.08099 0.22423
#
# Static dielectric constant tensor:
#      x y z
#    x 1.938560 0.000000 0.018900 
#    y 0.000000 2.118920 0.000000 
#    z 0.018900 0.000000 2.003960 
# 
# From -- ./inp_files/178396.got.cif
#   From: 2010.05.17/outbox.cif.g08.bks.cpg/sg15_90_cif.got.tgz:178396.got - 2010.06.03 18:47:42.
