data_PCOD9295842
_publ_section_title
;
Structure prediction by ZEFSAII (Michael W. Deem and Ramdas Pophale) SiO2 
 PCOD9295842
Probable space group: C 2/C
;
_chemical_formula_sum "Si O2"
_cell_formula_units_Z 40
_cell_length_a 22.794935
_cell_length_b 5.371145
_cell_length_c 21.093697
_cell_angle_alpha 90.000000
_cell_angle_beta 140.761083
_cell_angle_gamma 90.000000
_cell_volume 1633.640869
_symmetry_space_group_name_H-M "C 2/C"
_symmetry_group_IT_number 15
_symmetry_cell_setting 'monoclinic'
loop_
_space_group_symop_operation_xyz
x,y,z
-x,y,1/2-z
-x,-y,-z
x,-y,1/2+z
1/2+x,1/2+y,z
1/2-x,1/2+y,1/2-z
1/2-x,1/2-y,-z
1/2+x,1/2-y,1/2+z
loop_
_atom_site_type_symbol
_atom_site_label
_atom_site_fract_x
_atom_site_fract_y
_atom_site_fract_z
Si Si1 0.694978 0.383570 0.360630
Si Si2 0.630936 0.915240 0.913004
Si Si3 0.913509 0.892286 0.555701
Si Si4 0.226200 0.984129 0.662547
Si Si5 0.888656 0.172298 0.316526
O O1 0.636296 0.163206 0.344432
O O2 0.763082 0.464470 0.473933
O O3 0.629110 0.568627 0.269130
O O4 0.761100 0.280331 0.360542
O O5 0.592294 0.669058 0.917966
O O6 0.582333 0.172464 0.889290
O O7 0.823462 0.861172 0.434995
O O8 0.002048 0.844373 0.585292
O O9 0.328404 0.076069 0.766672
O O10 0.160575 0.978631 0.668163
#
# Coordination Sequence:
#
# PCOD9295842 Si02
#       5
#     8   8   8   8   8
#     4  10  23  43  70  95 137 185 229 286 350 409
#     4  10  24  46  69 100 137 180 232 289 346 410
#     4  11  26  45  71 103 138 182 230 291 345 411
#     4  11  24  45  68  99 139 180 237 282 351 411
#     4  12  24  43  69 103 137 189 229 291 345 416
#
# _framework density 24.485185000000001
#
# number of rings (size 3 to 8) (size 9 to 14) (size 15 to 20)
#    0.000    1.200    4.000    0.600    5.600    3.200 
#    0.000    4.000    0.000    0.000    0.000    0.000 
#    0.000    0.000    0.000    0.000    0.000    0.000 
#
# Total GULP energy -111691.326867 kJ/mol
# GULP energy per Si atom -5584.566343 kJ/mol
# Density = 2.442946 g / cm^3
# Si number density = 24.485185 Si / 1000 Ang^3
#
#
#
# Elastic Constant Matrix: (Units=GPa)
#
#
# Indices 1 2 3 4 5 6 
#
# 1 80.6340 11.9997 2.0754 -0.0042 -5.2971 -0.0036
# 2 11.9997 90.0740 7.4284 0.0014 -3.3747 0.0017
# 3 2.0754 7.4284 38.3186 -0.0021 1.0870 -0.0016
# 4 -0.0042 0.0014 -0.0021 25.3426 0.0013 -7.3300
# 5 -5.2971 -3.3747 1.0870 0.0013 43.6214 0.0008
# 6 -0.0036 0.0017 -0.0016 -7.3300 0.0008 35.8033
#
#
#
# Elastic Compliance Matrix: (Units=1/GPa)
#
#
# Indices 1 2 3 4 5 6 
#
# 1 0.012746 -0.001610 -0.000419 0.000003 0.001434 0.000002
# 2 -0.001610 0.011523 -0.002168 -0.000001 0.000750 -0.000001
# 3 -0.000419 -0.002168 0.026565 0.000003 -0.000881 0.000002
# 4 0.000003 -0.000001 0.000003 0.041943 -0.000001 0.008587
# 5 0.001434 0.000750 -0.000881 -0.000001 0.023179 -0.000001
# 6 0.000002 -0.000001 0.000002 0.008587 -0.000001 0.029688
#
#
# Mechanical properties :
#
#
# Convention : Reuss Voigt Hill
#
# Bulk Modulus (GPa) = 23.56209 28.00373 25.78291
# Shear Modulus (GPa) = 29.72920 33.45500 31.59210
#
# Velocity S-wave (km/s) = 3.48828 3.70041 3.59591
# Velocity P-wave (km/s) = 5.08606 5.45153 5.27196
#
# Compressibility (1/GPa) = 0.04244106
#
# Stress axis : x y z
#
# Youngs Moduli (GPa) = 78.45444 86.78043 37.64362
#
# Poissons Ratio (x) = 0.13970 0.01577
# Poissons Ratio (y) = 0.12630 0.08161
# Poissons Ratio (z) = 0.03287 0.18814
#
# Static dielectric constant tensor:
#      x y z
#    x 1.963740 0.000000 0.010060 
#    y 0.000000 2.033210 0.000000 
#    z 0.010060 0.000000 1.989760 
# 
# From -- ./inp_files/170926.got.cif
#   From: 2010.05.17/outbox.cif.g08.bks.cpg/sg15_86_cif.got.tgz:170926.got - 2010.06.03 18:47:42.
