data_PCOD9295801
_publ_section_title
;
Structure prediction by ZEFSAII (Michael W. Deem and Ramdas Pophale) SiO2 
 PCOD9295801
Probable space group: C 2/C
;
_chemical_formula_sum "Si O2"
_cell_formula_units_Z 60
_cell_length_a 14.475463
_cell_length_b 20.218100
_cell_length_c 14.377484
_cell_angle_alpha 90.000000
_cell_angle_beta 135.344511
_cell_angle_gamma 90.000000
_cell_volume 2957.423952
_symmetry_space_group_name_H-M "C 2/C"
_symmetry_group_IT_number 15
_symmetry_cell_setting 'monoclinic'
loop_
_space_group_symop_operation_xyz
x,y,z
-x,y,1/2-z
-x,-y,-z
x,-y,1/2+z
1/2+x,1/2+y,z
1/2-x,1/2+y,1/2-z
1/2-x,1/2-y,-z
1/2+x,1/2-y,1/2+z
loop_
_atom_site_type_symbol
_atom_site_label
_atom_site_fract_x
_atom_site_fract_y
_atom_site_fract_z
Si Si1 0.341143 0.942566 0.988102
Si Si2 0.853395 0.057219 0.622277
Si Si3 0.374023 0.758146 0.335539
Si Si4 0.000000 0.485526 0.750000
Si Si5 0.183053 0.711390 0.034956
Si Si6 0.212330 0.891149 0.224499
Si Si7 0.208497 0.536897 0.260519
Si Si8 0.408508 0.635880 0.476966
O O1 0.318019 0.866137 0.986927
O O2 0.355037 0.953592 0.887039
O O3 0.227651 0.990240 0.946549
O O4 0.459919 0.968283 0.135315
O O5 0.796869 0.092071 0.672910
O O6 0.864782 0.108557 0.546209
O O7 0.000000 0.035780 0.750000
O O8 0.278765 0.723389 0.191569
O O9 0.531218 0.764708 0.433033
O O10 0.316518 0.832275 0.293395
O O11 0.364421 0.709833 0.418463
O O12 0.885838 0.444362 0.720112
O O13 0.250000 0.750000 0.000000
O O14 0.249828 0.960055 0.201901
O O15 0.066970 0.869394 0.086910
O O16 0.336828 0.583670 0.357058
#
# Coordination Sequence:
#
# PCOD9295801 Si02
#       8
#     8   8   8   4   8   8   8   8
#     4  11  24  43  66 100 135 175 226 285 344 412
#     4   9  21  42  71 100 131 173 229 287 342 402
#     4  12  25  46  69  98 138 185 226 284 348 412
#     4  12  24  38  68  98 136 170 220 280 356 408
#     4  12  28  45  66  97 140 183 230 275 346 423
#     4  10  23  43  69  99 138 180 226 287 342 411
#     4  11  23  43  68 100 136 177 230 291 341 408
#     4  11  21  44  69  99 135 177 234 281 349 410
#
# _framework density 20.287925999999999
#
# number of rings (size 3 to 8) (size 9 to 14) (size 15 to 20)
#    0.000    1.067    4.000    2.000    3.733    2.667 
#    2.400    0.000    4.400    0.000    0.000    0.000 
#    0.000    0.000    0.000    0.000    0.000    0.000 
#
# Total GULP energy -167357.722696 kJ/mol
# GULP energy per Si atom -5578.590757 kJ/mol
# Density = 2.024175 g / cm^3
# Si number density = 20.287926 Si / 1000 Ang^3
#
#
#
# Elastic Constant Matrix: (Units=GPa)
#
#
# Indices 1 2 3 4 5 6 
#
# 1 65.9445 -39.3781 16.5222 0.0000 70.3204 0.0000
# 2 -39.3781 -43.3718 -22.8352 0.0000 152.8495 0.0000
# 3 16.5222 -22.8352 101.4496 0.0000 51.8536 0.0000
# 4 0.0000 0.0000 0.0000 35.5490 0.0000 3.0426
# 5 70.3204 152.8495 51.8536 0.0000 -85.8214 0.0000
# 6 0.0000 0.0000 0.0000 3.0426 0.0000 0.4735
#
#
#
# Elastic Compliance Matrix: (Units=1/GPa)
#
#
# Indices 1 2 3 4 5 6 
#
# 1 0.012249 -0.003499 -0.003612 0.000000 0.001623 0.000000
# 2 -0.003499 0.006195 -0.001689 0.000000 0.007147 0.000000
# 3 -0.003612 -0.001689 0.010021 0.000000 0.000087 0.000000
# 4 0.000000 0.000000 0.000000 0.062510 0.000000 -0.401691
# 5 0.001623 0.007147 0.000087 0.000000 0.002459 0.000000
# 6 0.000000 0.000000 0.000000 -0.401691 0.000000 4.693286
#
#
# Mechanical properties :
#
#
# Convention : Reuss Voigt Hill
#
# Bulk Modulus (GPa) = 92.02727 3.62667 47.82697
# Shear Modulus (GPa) = 1.03995 1.35445 1.19720
#
# Velocity S-wave (km/s) = 0.71673 0.81796 0.76902
# Velocity P-wave (km/s) = 6.79294 1.63816 4.94103
#
# Compressibility (1/GPa) = 0.01086634
#
# Stress axis : x y z
#
# Youngs Moduli (GPa) = 81.63861 161.41803 99.79389
#
# Poissons Ratio (x) = 0.56472 0.36047
# Poissons Ratio (y) = 0.28561 0.16852
# Poissons Ratio (z) = 0.29489 0.27258
#
# Static dielectric constant tensor:
#      x y z
#    x 1.743330 0.000000 0.016410 
#    y 0.000000 1.707410 0.000000 
#    z 0.016410 0.000000 1.804160 
# 
# From -- ./inp_files/156396.got.cif
#   From: 2010.05.17/outbox.cif.g08.bks.cpg/sg15_79_cif.got.tgz:156396.got - 2010.06.03 18:47:42.
