data_PCOD9295709
_publ_section_title
;
Structure prediction by ZEFSAII (Michael W. Deem and Ramdas Pophale) SiO2 
 PCOD9295709
Probable space group: C 2/C
;
_chemical_formula_sum "Si O2"
_cell_formula_units_Z 28
_cell_length_a 12.783284
_cell_length_b 6.376942
_cell_length_c 17.669047
_cell_angle_alpha 90.000000
_cell_angle_beta 119.302216
_cell_angle_gamma 90.000000
_cell_volume 1256.057695
_symmetry_space_group_name_H-M "C 2/C"
_symmetry_group_IT_number 15
_symmetry_cell_setting 'monoclinic'
loop_
_space_group_symop_operation_xyz
x,y,z
-x,y,1/2-z
-x,-y,-z
x,-y,1/2+z
1/2+x,1/2+y,z
1/2-x,1/2+y,1/2-z
1/2-x,1/2-y,-z
1/2+x,1/2-y,1/2+z
loop_
_atom_site_type_symbol
_atom_site_label
_atom_site_fract_x
_atom_site_fract_y
_atom_site_fract_z
Si Si1 0.500000 0.461793 0.250000
Si Si2 0.419103 0.422221 0.872780
Si Si3 0.595904 0.810659 0.534646
Si Si4 0.768412 0.834292 0.091165
O O1 0.574248 0.594401 0.214629
O O2 0.403546 0.328869 0.168632
O O3 0.405806 0.664242 0.892491
O O4 0.315331 0.294481 0.879507
O O5 0.545891 0.340458 0.951371
O O6 0.500000 0.000000 0.500000
O O7 0.721339 0.926485 0.572058
O O8 0.750000 0.750000 0.000000
#
# Coordination Sequence:
#
# PCOD9295709 Si02
#       4
#     4   8   8   8
#     4  12  26  42  70 108 138 188 240 290 354 418
#     4  10  23  43  68 100 139 179 238 291 355 420
#     4   9  19  43  71  94 132 180 229 292 351 419
#     4  11  25  46  69 103 145 186 239 293 354 430
#
# _framework density 22.291971
#
# number of rings (size 3 to 8) (size 9 to 14) (size 15 to 20)
#    0.000    1.714    0.000    5.143    4.000    4.571 
#    0.000    7.143    0.000    0.000    0.000    0.000 
#    0.000    0.000    0.000    0.000    0.000    0.000 
#
# Total GULP energy -78210.017336 kJ/mol
# GULP energy per Si atom -5586.429810 kJ/mol
# Density = 2.224123 g / cm^3
# Si number density = 22.291971 Si / 1000 Ang^3
#
#
#
# Elastic Constant Matrix: (Units=GPa)
#
#
# Indices 1 2 3 4 5 6 
#
# 1 142.7665 45.4020 77.1642 0.0000 -10.3864 0.0000
# 2 45.4020 98.6149 23.1971 0.0000 -5.8815 0.0000
# 3 77.1642 23.1971 143.0311 0.0000 -7.7858 0.0000
# 4 0.0000 0.0000 0.0000 15.9937 0.0000 3.1947
# 5 -10.3864 -5.8815 -7.7858 0.0000 60.3756 0.0000
# 6 0.0000 0.0000 0.0000 3.1947 0.0000 37.2587
#
#
#
# Elastic Compliance Matrix: (Units=1/GPa)
#
#
# Indices 1 2 3 4 5 6 
#
# 1 0.011188 -0.003837 -0.005367 0.000000 0.000859 0.000000
# 2 -0.003837 0.011898 0.000169 0.000000 0.000521 0.000000
# 3 -0.005367 0.000169 0.009879 0.000000 0.000367 0.000000
# 4 0.000000 0.000000 0.000000 0.063614 0.000000 -0.005455
# 5 0.000859 0.000521 0.000367 0.000000 0.016809 0.000000
# 6 0.000000 0.000000 0.000000 -0.005455 0.000000 0.027307
#
#
# Mechanical properties :
#
#
# Convention : Reuss Voigt Hill
#
# Bulk Modulus (GPa) = 67.13465 75.10433 71.11949
# Shear Modulus (GPa) = 30.53787 38.63554 34.58670
#
# Velocity S-wave (km/s) = 3.70524 4.16764 3.94322
# Velocity P-wave (km/s) = 6.96322 7.54475 7.25981
#
# Compressibility (1/GPa) = 0.01489544
#
# Stress axis : x y z
#
# Youngs Moduli (GPa) = 89.38234 84.04449 101.22068
#
# Poissons Ratio (x) = 0.32250 0.54322
# Poissons Ratio (y) = 0.34298 -0.01709
# Poissons Ratio (z) = 0.47969 -0.01419
#
# Static dielectric constant tensor:
#      x y z
#    x 1.981960 0.000000 -0.061190 
#    y 0.000000 1.823850 0.000000 
#    z -0.061190 0.000000 1.873190 
# 
# From -- ./inp_files/201661.got.cif
#   From: 2010.05.17/outbox.cif.g08.bks.cpg/sg15_101_cif.got.tgz:201661.got - 2010.06.03 18:47:42.
