data_PCOD9295682
_publ_section_title
;
Structure prediction by ZEFSAII (Michael W. Deem and Ramdas Pophale) SiO2 
 PCOD9295682
Probable space group: C 2/C
;
_chemical_formula_sum "Si O2"
_cell_formula_units_Z 48
_cell_length_a 26.963291
_cell_length_b 8.653405
_cell_length_c 20.491845
_cell_angle_alpha 90.000000
_cell_angle_beta 149.997511
_cell_angle_gamma 90.000000
_cell_volume 2390.802335
_symmetry_space_group_name_H-M "C 2/C"
_symmetry_group_IT_number 15
_symmetry_cell_setting 'monoclinic'
loop_
_space_group_symop_operation_xyz
x,y,z
-x,y,1/2-z
-x,-y,-z
x,-y,1/2+z
1/2+x,1/2+y,z
1/2-x,1/2+y,1/2-z
1/2-x,1/2-y,-z
1/2+x,1/2-y,1/2+z
loop_
_atom_site_type_symbol
_atom_site_label
_atom_site_fract_x
_atom_site_fract_y
_atom_site_fract_z
Si Si1 0.882369 0.328858 0.938729
Si Si2 0.792485 0.663512 0.825311
Si Si3 0.742380 0.005421 0.971688
Si Si4 0.511282 0.329717 0.483362
Si Si5 0.670686 0.707138 0.817422
Si Si6 0.108151 0.738928 0.900615
O O1 0.838574 0.494655 0.869406
O O2 0.798104 0.202643 0.825631
O O3 0.974996 0.286375 0.998873
O O4 0.903649 0.321458 0.039328
O O5 0.747766 0.676203 0.846763
O O6 0.878257 0.787978 0.911100
O O7 0.660839 0.109258 0.915798
O O8 0.689665 0.877530 0.867124
O O9 0.816821 0.116387 0.017348
O O10 0.806307 0.913818 0.099017
O O11 0.500000 0.500000 0.500000
O O12 0.436937 0.310943 0.337660
O O13 0.000000 0.779072 0.750000
#
# Coordination Sequence:
#
# PCOD9295682 Si02
#       6
#     8   8   8   8   8   8
#     4  11  25  43  67  98 130 172 220 272 339 386
#     4  11  23  44  67  95 133 170 216 279 329 393
#     4  10  24  44  65  95 134 174 216 273 314 402
#     4  11  26  40  70  99 130 172 223 278 325 400
#     4  10  23  43  67  96 130 174 221 261 335 379
#     4  11  26  42  69  96 133 173 219 268 331 389
#
# _framework density 20.076941000000001
#
# number of rings (size 3 to 8) (size 9 to 14) (size 15 to 20)
#    0.000    1.333    1.667    2.500   11.667    1.333 
#    0.000    3.333    0.000    0.000    0.000    0.000 
#    0.000    0.000    0.000    0.000    0.000    0.000 
#
# Total GULP energy -134246.080285 kJ/mol
# GULP energy per Si atom -5593.586679 kJ/mol
# Density = 2.003125 g / cm^3
# Si number density = 20.076941 Si / 1000 Ang^3
#
#
#
# Elastic Constant Matrix: (Units=GPa)
#
#
# Indices 1 2 3 4 5 6 
#
# 1 16.8492 -10.8791 7.4855 0.0000 -1.7871 0.0000
# 2 -10.8791 72.4355 -7.6084 0.0000 -9.4956 0.0000
# 3 7.4855 -7.6084 63.2100 0.0000 -3.1421 0.0000
# 4 0.0000 0.0000 0.0000 20.1797 0.0000 3.8831
# 5 -1.7871 -9.4956 -3.1421 0.0000 25.4918 0.0000
# 6 0.0000 0.0000 0.0000 3.8831 0.0000 23.1467
#
#
#
# Elastic Compliance Matrix: (Units=1/GPa)
#
#
# Indices 1 2 3 4 5 6 
#
# 1 0.070198 0.010923 -0.006592 0.000000 0.008177 0.000000
# 2 0.010923 0.016477 0.001039 0.000000 0.007031 0.000000
# 3 -0.006592 0.001039 0.016825 0.000000 0.001999 0.000000
# 4 0.000000 0.000000 0.000000 0.051208 0.000000 -0.008591
# 5 0.008177 0.007031 0.001999 0.000000 0.042667 0.000000
# 6 0.000000 0.000000 0.000000 -0.008591 0.000000 0.044644
#
#
# Mechanical properties :
#
#
# Convention : Reuss Voigt Hill
#
# Bulk Modulus (GPa) = 8.75345 14.49897 11.62621
# Shear Modulus (GPa) = 18.56255 24.66340 21.61298
#
# Velocity S-wave (km/s) = 3.04397 3.50872 3.28458
# Velocity P-wave (km/s) = 4.08947 4.86335 4.49310
#
# Compressibility (1/GPa) = 0.11424061
#
# Stress axis : x y z
#
# Youngs Moduli (GPa) = 14.24536 60.69151 59.43406
#
# Poissons Ratio (x) = -0.66291 0.39178
# Poissons Ratio (y) = -0.15560 -0.06177
# Poissons Ratio (z) = 0.09390 -0.06308
#
# Static dielectric constant tensor:
#      x y z
#    x 1.685080 0.000000 -0.008260 
#    y 0.000000 1.706670 0.000000 
#    z -0.008260 0.000000 1.681410 
# 
# From -- ./inp_files/251784.got.cif
#   From: 2010.05.17/outbox.cif.g08.bks.cpg/sg15_126_cif.got.tgz:251784.got - 2010.06.03 18:47:42.
