data_PCOD9295277
_publ_section_title
;
Structure prediction by ZEFSAII (Michael W. Deem and Ramdas Pophale) SiO2 
 PCOD9295277
Probable space group: C 2/C
;
_chemical_formula_sum "Si O2"
_cell_formula_units_Z 28
_cell_length_a 28.215561
_cell_length_b 9.480141
_cell_length_c 22.064862
_cell_angle_alpha 90.000000
_cell_angle_beta 169.146483
_cell_angle_gamma 90.000000
_cell_volume 1111.353206
_symmetry_space_group_name_H-M "C 2/C"
_symmetry_group_IT_number 15
_symmetry_cell_setting 'monoclinic'
loop_
_space_group_symop_operation_xyz
x,y,z
-x,y,1/2-z
-x,-y,-z
x,-y,1/2+z
1/2+x,1/2+y,z
1/2-x,1/2+y,1/2-z
1/2-x,1/2-y,-z
1/2+x,1/2-y,1/2+z
loop_
_atom_site_type_symbol
_atom_site_label
_atom_site_fract_x
_atom_site_fract_y
_atom_site_fract_z
Si Si1 0.061822 0.214362 0.118084
Si Si2 0.735422 0.458590 0.717992
Si Si3 0.352644 0.591112 0.627253
Si Si4 0.500000 0.885288 0.250000
O O1 0.156622 0.131342 0.178522
O O2 0.276713 0.201914 0.439000
O O3 0.991646 0.377601 0.022616
O O4 0.818275 0.119401 0.830504
O O5 0.541147 0.427507 0.420072
O O6 0.500000 0.564971 0.750000
O O7 0.250000 0.750000 0.500000
O O8 0.124066 0.484576 0.354300
#
# Coordination Sequence:
#
# PCOD9295277 Si02
#       4
#     8   8   8   4
#     4  10  23  45  67  98 139 173 228 275 339 405
#     4  10  23  42  67  99 132 179 217 283 334 400
#     4  11  21  38  67  99 134 177 228 279 330 395
#     4  10  24  44  64  98 138 178 222 280 336 408
#
# _framework density 25.194512
#
# number of rings (size 3 to 8) (size 9 to 14) (size 15 to 20)
#    0.000    1.714    1.429    1.714    8.000    2.286 
#   10.286    0.000    0.000    1.714    0.000    0.000 
#    0.000    0.000    0.000    0.000    0.000    0.000 
#
# Total GULP energy -78430.811419 kJ/mol
# GULP energy per Si atom -5602.200816 kJ/mol
# Density = 2.513717 g / cm^3
# Si number density = 25.194512 Si / 1000 Ang^3
#
#
#
# Elastic Constant Matrix: (Units=GPa)
#
#
# Indices 1 2 3 4 5 6 
#
# 1 92.6799 5.0241 -9.2727 -0.0210 14.6023 0.0145
# 2 5.0241 175.1573 51.1793 -0.0017 -18.5602 0.0094
# 3 -9.2727 51.1793 57.6052 0.0100 5.2769 -0.0089
# 4 -0.0210 -0.0017 0.0100 45.1590 0.0051 -2.4051
# 5 14.6023 -18.5602 5.2769 0.0051 46.4538 0.0114
# 6 0.0145 0.0094 -0.0089 -2.4051 0.0114 4.1751
#
#
#
# Elastic Compliance Matrix: (Units=1/GPa)
#
#
# Indices 1 2 3 4 5 6 
#
# 1 0.012161 -0.002174 0.004364 0.000005 -0.005187 -0.000011
# 2 -0.002174 0.008868 -0.008706 -0.000002 0.005215 -0.000046
# 3 0.004364 -0.008706 0.026518 0.000001 -0.007863 0.000083
# 4 0.000005 -0.000002 0.000001 0.022845 -0.000008 0.013160
# 5 -0.005187 0.005215 -0.007863 -0.000008 0.026134 -0.000086
# 6 -0.000011 -0.000046 0.000083 0.013160 -0.000086 0.247096
#
#
# Mechanical properties :
#
#
# Convention : Reuss Voigt Hill
#
# Bulk Modulus (GPa) = 28.97310 46.58931 37.78120
# Shear Modulus (GPa) = 13.58108 37.72504 25.65306
#
# Velocity S-wave (km/s) = 2.32426 3.87376 3.19439
# Velocity P-wave (km/s) = 4.32755 6.20806 5.35106
#
# Compressibility (1/GPa) = 0.03451477
#
# Stress axis : x y z
#
# Youngs Moduli (GPa) = 82.22672 112.76386 37.71094
#
# Poissons Ratio (x) = 0.24510 -0.16456
# Poissons Ratio (y) = 0.17872 0.32833
# Poissons Ratio (z) = -0.35882 0.98178
#
# Static dielectric constant tensor:
#      x y z
#    x 1.900350 -0.001900 -0.009920 
#    y -0.001900 2.168750 -0.002200 
#    z -0.009920 -0.002200 1.848750 
# 
# From -- ./inp_files/36619.got.cif
#   From: 2010.05.17/outbox.cif.g08.bks.cpg/sg15_19_cif.got.tgz:36619.got - 2010.06.03 18:47:42.
