data_PCOD9295856
_publ_section_title
;
Structure prediction by ZEFSAII (Michael W. Deem and Ramdas Pophale) SiO2 
 PCOD9295856
Probable space group: C 2/C
;
_chemical_formula_sum "Si O2"
_cell_formula_units_Z 44
_cell_length_a 25.266380
_cell_length_b 13.523752
_cell_length_c 18.722177
_cell_angle_alpha 90.000000
_cell_angle_beta 162.058592
_cell_angle_gamma 90.000000
_cell_volume 1970.650871
_symmetry_space_group_name_H-M "C 2/C"
_symmetry_group_IT_number 15
_symmetry_cell_setting 'monoclinic'
loop_
_space_group_symop_operation_xyz
x,y,z
-x,y,1/2-z
-x,-y,-z
x,-y,1/2+z
1/2+x,1/2+y,z
1/2-x,1/2+y,1/2-z
1/2-x,1/2-y,-z
1/2+x,1/2-y,1/2+z
loop_
_atom_site_type_symbol
_atom_site_label
_atom_site_fract_x
_atom_site_fract_y
_atom_site_fract_z
Si Si1 0.364718 0.226819 0.216248
Si Si2 0.628153 0.231253 0.756476
Si Si3 0.670127 0.565335 0.224020
Si Si4 0.000000 0.225389 0.250000
Si Si5 0.625022 0.905665 0.652007
Si Si6 0.643867 0.876557 0.996337
O O1 0.298333 0.131841 0.174864
O O2 0.556257 0.193064 0.443436
O O3 0.250000 0.250000 0.000000
O O4 0.323504 0.324302 0.208234
O O5 0.655703 0.342815 0.760753
O O6 0.551475 0.225711 0.738876
O O7 0.500627 0.179095 0.538897
O O8 0.814787 0.177850 0.995228
O O9 0.727598 0.589509 0.217561
O O10 0.820380 0.489451 0.440699
O O11 0.500000 0.500000 0.000000
O O12 0.500000 0.000000 0.500000
O O13 0.500000 0.873604 0.750000
#
# Coordination Sequence:
#
# PCOD9295856 Si02
#       6
#     8   8   8   4   8   8
#     4  10  23  45  70 105 146 192 245 303 370 436
#     4  11  25  47  74 103 151 190 246 310 368 451
#     4  12  27  44  71 110 143 192 249 303 369 444
#     4  10  24  46  72 104 138 200 236 296 380 430
#     4  12  26  45  76 105 149 199 249 307 381 443
#     4  10  23  43  71 100 143 195 243 306 367 442
#
# _framework density 22.327649000000001
#
# number of rings (size 3 to 8) (size 9 to 14) (size 15 to 20)
#    0.000    1.091    3.636    1.091    8.909    0.000 
#    0.000    0.000    2.000    0.000    0.000    0.000 
#    0.000    0.000    0.000    0.000    0.000    0.000 
#
# Total GULP energy -122607.517603 kJ/mol
# GULP energy per Si atom -5573.068982 kJ/mol
# Density = 2.227683 g / cm^3
# Si number density = 22.327649 Si / 1000 Ang^3
#
#
#
# Elastic Constant Matrix: (Units=GPa)
#
#
# Indices 1 2 3 4 5 6 
#
# 1 148.3048 55.8773 45.2303 -0.0003 12.7807 -0.0001
# 2 55.8773 120.1342 30.0109 -0.0002 2.6378 -0.0001
# 3 45.2303 30.0109 93.0892 -0.0003 18.0109 -0.0002
# 4 -0.0003 -0.0002 -0.0003 40.7572 -0.0003 0.4432
# 5 12.7807 2.6378 18.0109 -0.0003 37.6485 -0.0001
# 6 -0.0001 -0.0001 -0.0002 0.4432 -0.0001 31.4231
#
#
#
# Elastic Compliance Matrix: (Units=1/GPa)
#
#
# Indices 1 2 3 4 5 6 
#
# 1 0.009083 -0.003436 -0.003037 0.000000 -0.001390 0.000000
# 2 -0.003436 0.010377 -0.001941 0.000000 0.001368 0.000000
# 3 -0.003037 -0.001941 0.013905 0.000000 -0.005485 0.000000
# 4 0.000000 0.000000 0.000000 0.024539 0.000000 -0.000346
# 5 -0.001390 0.001368 -0.005485 0.000000 0.029562 0.000000
# 6 0.000000 0.000000 0.000000 -0.000346 0.000000 0.031829
#
#
# Mechanical properties :
#
#
# Convention : Reuss Voigt Hill
#
# Bulk Modulus (GPa) = 60.46467 69.30724 64.88595
# Shear Modulus (GPa) = 35.30231 37.32640 36.31435
#
# Velocity S-wave (km/s) = 3.98062 4.09315 4.03728
# Velocity P-wave (km/s) = 6.94741 7.31074 7.13139
#
# Compressibility (1/GPa) = 0.01653858
#
# Stress axis : x y z
#
# Youngs Moduli (GPa) = 110.09178 96.36869 71.91745
#
# Poissons Ratio (x) = 0.33110 0.21840
# Poissons Ratio (y) = 0.37824 0.13957
# Poissons Ratio (z) = 0.33433 0.18702
#
# Static dielectric constant tensor:
#      x y z
#    x 2.039910 0.000000 -0.039690 
#    y 0.000000 1.829350 0.000000 
#    z -0.039690 0.000000 1.856780 
# 
# From -- ./inp_files/219756.got.cif
#   From: 2010.05.17/outbox.cif.g08.bks.cpg/sg15_110_cif.got.tgz:219756.got - 2010.06.03 18:47:42.
