data_PCOD9295859
_publ_section_title
;
Structure prediction by ZEFSAII (Michael W. Deem and Ramdas Pophale) SiO2 
 PCOD9295859
Probable space group: C 2/C
;
_chemical_formula_sum "Si O2"
_cell_formula_units_Z 48
_cell_length_a 24.353129
_cell_length_b 5.254999
_cell_length_c 17.801081
_cell_angle_alpha 90.000000
_cell_angle_beta 50.837758
_cell_angle_gamma 90.000000
_cell_volume 1766.353568
_symmetry_space_group_name_H-M "C 2/C"
_symmetry_group_IT_number 15
_symmetry_cell_setting 'monoclinic'
loop_
_space_group_symop_operation_xyz
x,y,z
-x,y,1/2-z
-x,-y,-z
x,-y,1/2+z
1/2+x,1/2+y,z
1/2-x,1/2+y,1/2-z
1/2-x,1/2-y,-z
1/2+x,1/2-y,1/2+z
loop_
_atom_site_type_symbol
_atom_site_label
_atom_site_fract_x
_atom_site_fract_y
_atom_site_fract_z
Si Si1 0.176204 0.874710 0.887692
Si Si2 0.302023 0.225842 0.787705
Si Si3 0.941461 0.203013 0.574644
Si Si4 0.948676 0.413441 0.929923
Si Si5 0.807008 0.079749 0.907937
Si Si6 0.110885 0.585083 0.662952
O O1 0.195120 0.686311 0.803394
O O2 0.119617 0.771283 0.997384
O O3 0.243089 0.020671 0.863332
O O4 0.134069 0.075673 0.869660
O O5 0.279527 0.484375 0.850066
O O6 0.379264 0.178720 0.759295
O O7 0.942107 0.413295 0.509290
O O8 0.975148 0.283707 0.624654
O O9 0.000000 0.000000 0.500000
O O10 0.945422 0.570442 0.855828
O O11 0.868818 0.287452 0.848378
O O12 0.834235 0.805888 0.916834
O O13 0.750000 0.250000 0.000000
#
# Coordination Sequence:
#
# PCOD9295859 Si02
#       6
#     8   8   8   8   8   8
#     4  11  25  42  67 103 153 191 234 297 372 456
#     4  10  28  40  65 107 150 190 232 290 387 435
#     4   9  22  42  70  99 131 185 249 302 354 421
#     4  10  23  43  71 101 134 186 251 308 347 426
#     4  10  24  41  62 100 142 184 236 285 356 428
#     4  10  25  40  69 101 141 180 245 297 356 431
#
# _framework density 27.174630000000001
#
# number of rings (size 3 to 8) (size 9 to 14) (size 15 to 20)
#    1.000    1.000    0.000    0.500   14.000    0.000 
#    0.000    0.000    0.000   24.000    0.000    0.000 
#    0.000    0.000    0.000    0.000    0.000    0.000 
#
# Total GULP energy -133749.982295 kJ/mol
# GULP energy per Si atom -5572.915929 kJ/mol
# Density = 2.711278 g / cm^3
# Si number density = 27.174630 Si / 1000 Ang^3
#
#
#
# Elastic Constant Matrix: (Units=GPa)
#
#
# Indices 1 2 3 4 5 6 
#
# 1 145.9929 28.8120 15.2272 0.0751 47.8040 -0.0759
# 2 28.8120 122.6142 28.4309 0.1476 2.1261 -0.2010
# 3 15.2272 28.4309 111.5787 0.0125 14.4482 -0.0201
# 4 0.0751 0.1476 0.0125 34.1144 0.0021 8.1701
# 5 47.8040 2.1261 14.4482 0.0021 39.1384 0.0199
# 6 -0.0759 -0.2010 -0.0201 8.1701 0.0199 54.9998
#
#
#
# Elastic Compliance Matrix: (Units=1/GPa)
#
#
# Indices 1 2 3 4 5 6 
#
# 1 0.012300 -0.002864 0.001025 -0.000018 -0.015246 0.000015
# 2 -0.002864 0.009339 -0.002495 -0.000042 0.003912 0.000034
# 3 0.001025 -0.002495 0.010085 0.000006 -0.004840 -0.000003
# 4 -0.000018 -0.000042 0.000006 0.030395 0.000022 -0.004515
# 5 -0.015246 0.003912 -0.004840 0.000022 0.045747 -0.000028
# 6 0.000015 0.000034 -0.000003 -0.004515 -0.000028 0.018853
#
#
# Mechanical properties :
#
#
# Convention : Reuss Voigt Hill
#
# Bulk Modulus (GPa) = 43.37069 58.34732 50.85901
# Shear Modulus (GPa) = 34.94747 46.16491 40.55619
#
# Velocity S-wave (km/s) = 3.59002 4.12615 3.86739
# Velocity P-wave (km/s) = 5.76012 6.64966 6.22081
#
# Compressibility (1/GPa) = 0.02305705
#
# Stress axis : x y z
#
# Youngs Moduli (GPa) = 81.29963 107.07251 99.15822
#
# Poissons Ratio (x) = 0.30662 -0.10167
# Poissons Ratio (y) = 0.23281 0.24744
# Poissons Ratio (z) = -0.08336 0.26719
#
# Static dielectric constant tensor:
#      x y z
#    x 2.290710 -0.000300 -0.100540 
#    y -0.000300 2.278500 0.000210 
#    z -0.100540 0.000210 2.559000 
# 
# From -- ./inp_files/253962.got.cif
#   From: 2010.05.17/outbox.cif.g08.bks.cpg/sg15_127_cif.got.tgz:253962.got - 2010.06.03 18:47:42.
