data_PCOD9295855
_publ_section_title
;
Structure prediction by ZEFSAII (Michael W. Deem and Ramdas Pophale) SiO2 
 PCOD9295855
Probable space group: C 2/C
;
_chemical_formula_sum "Si O2"
_cell_formula_units_Z 48
_cell_length_a 13.857583
_cell_length_b 16.733209
_cell_length_c 16.991795
_cell_angle_alpha 90.000000
_cell_angle_beta 33.590784
_cell_angle_gamma 90.000000
_cell_volume 2179.883813
_symmetry_space_group_name_H-M "C 2/C"
_symmetry_group_IT_number 15
_symmetry_cell_setting 'monoclinic'
loop_
_space_group_symop_operation_xyz
x,y,z
-x,y,1/2-z
-x,-y,-z
x,-y,1/2+z
1/2+x,1/2+y,z
1/2-x,1/2+y,1/2-z
1/2-x,1/2-y,-z
1/2+x,1/2-y,1/2+z
loop_
_atom_site_type_symbol
_atom_site_label
_atom_site_fract_x
_atom_site_fract_y
_atom_site_fract_z
Si Si1 0.500000 0.286375 0.250000
Si Si2 0.662474 0.445603 0.419987
Si Si3 0.935319 0.329955 0.202140
Si Si4 0.000000 0.539220 0.250000
Si Si5 0.585110 0.914010 0.957771
Si Si6 0.116038 0.661515 0.040508
Si Si7 0.455566 0.356770 0.689062
O O1 0.316994 0.332299 0.376942
O O2 0.531684 0.232816 0.149916
O O3 0.500000 0.500000 0.500000
O O4 0.747763 0.372165 0.312771
O O5 0.836072 0.495491 0.321513
O O6 0.599131 0.400004 0.540348
O O7 0.066327 0.380481 0.058575
O O8 0.932338 0.236392 0.182059
O O9 0.000000 0.334382 0.250000
O O10 0.912201 0.589109 0.379989
O O11 0.488728 0.851419 0.967384
O O12 0.783341 0.909780 0.796404
O O13 0.500000 0.000000 0.000000
O O14 0.500000 0.356159 0.750000
#
# Coordination Sequence:
#
# PCOD9295855 Si02
#       7
#     4   8   8   4   8   8   8
#     4   9  22  46  70 102 133 192 228 290 377 418
#     4  12  25  46  73 104 141 194 238 294 377 429
#     4  11  24  47  73 101 145 189 237 306 360 423
#     4  11  24  46  68 102 151 184 234 308 355 442
#     4  12  26  43  68 107 139 182 240 294 349 433
#     4  10  23  43  71 100 143 181 238 294 360 429
#     4  11  26  45  72 104 138 189 240 291 365 432
#
# _framework density 22.019521000000001
#
# number of rings (size 3 to 8) (size 9 to 14) (size 15 to 20)
#    0.000    1.000    0.833    5.000    4.667    5.333 
#    9.000    0.000    0.000    0.000    0.000    0.000 
#    0.000    0.000    0.000    0.000    0.000    0.000 
#
# Total GULP energy -133988.118907 kJ/mol
# GULP energy per Si atom -5582.838288 kJ/mol
# Density = 2.196940 g / cm^3
# Si number density = 22.019521 Si / 1000 Ang^3
#
#
#
# Elastic Constant Matrix: (Units=GPa)
#
#
# Indices 1 2 3 4 5 6 
#
# 1 76.3368 29.4152 28.3772 -0.0001 -9.6098 0.0000
# 2 29.4152 89.2499 40.1794 -0.0005 -16.2844 0.0001
# 3 28.3772 40.1794 169.3022 -0.0027 -19.1886 0.0009
# 4 -0.0001 -0.0005 -0.0027 44.8084 0.0013 0.6537
# 5 -9.6098 -16.2844 -19.1886 0.0013 44.4778 -0.0005
# 6 0.0000 0.0001 0.0009 0.6537 -0.0005 13.7829
#
#
#
# Elastic Compliance Matrix: (Units=1/GPa)
#
#
# Indices 1 2 3 4 5 6 
#
# 1 0.015409 -0.004213 -0.001451 0.000000 0.001161 0.000000
# 2 -0.004213 0.014231 -0.002296 0.000000 0.003309 0.000000
# 3 -0.001451 -0.002296 0.006901 0.000000 0.001823 0.000000
# 4 0.000000 0.000000 0.000000 0.022333 -0.000001 -0.001059
# 5 0.001161 0.003309 0.001823 -0.000001 0.024732 0.000001
# 6 0.000000 0.000000 0.000000 -0.001059 0.000001 0.072604
#
#
# Mechanical properties :
#
#
# Convention : Reuss Voigt Hill
#
# Bulk Modulus (GPa) = 48.49745 58.98139 53.73942
# Shear Modulus (GPa) = 27.93232 36.40828 32.17030
#
# Velocity S-wave (km/s) = 3.56550 4.07068 3.82644
# Velocity P-wave (km/s) = 6.24684 6.99557 6.63178
#
# Compressibility (1/GPa) = 0.02061964
#
# Stress axis : x y z
#
# Youngs Moduli (GPa) = 64.89710 70.27113 144.89859
#
# Poissons Ratio (x) = 0.29608 0.21029
# Poissons Ratio (y) = 0.27344 0.33268
# Poissons Ratio (z) = 0.09418 0.16134
#
# Static dielectric constant tensor:
#      x y z
#    x 1.827670 0.000000 -0.007800 
#    y 0.000000 1.898050 0.000000 
#    z -0.007800 0.000000 1.787950 
# 
# From -- ./inp_files/206420.got.cif
#   From: 2010.05.17/outbox.cif.g08.bks.cpg/sg15_104_cif.got.tgz:206420.got - 2010.06.03 18:47:42.
