data_PCOD9295054
_publ_section_title
;
Structure prediction by ZEFSAII (Michael W. Deem and Ramdas Pophale) SiO2 
 PCOD9295054
Probable space group: C 2/C
;
_chemical_formula_sum "Si O2"
_cell_formula_units_Z 48
_cell_length_a 11.057622
_cell_length_b 14.236296
_cell_length_c 14.567556
_cell_angle_alpha 90.000000
_cell_angle_beta 54.315911
_cell_angle_gamma 90.000000
_cell_volume 1862.656546
_symmetry_space_group_name_H-M "C 2/C"
_symmetry_group_IT_number 15
_symmetry_cell_setting 'monoclinic'
loop_
_space_group_symop_operation_xyz
x,y,z
-x,y,1/2-z
-x,-y,-z
x,-y,1/2+z
1/2+x,1/2+y,z
1/2-x,1/2+y,1/2-z
1/2-x,1/2-y,-z
1/2+x,1/2-y,1/2+z
loop_
_atom_site_type_symbol
_atom_site_label
_atom_site_fract_x
_atom_site_fract_y
_atom_site_fract_z
Si Si1 0.336289 0.473457 0.033897
Si Si2 0.028053 0.670734 0.937175
Si Si3 0.777479 0.889867 0.860406
Si Si4 0.500000 0.285609 0.250000
Si Si5 0.186784 0.924306 0.261752
Si Si6 0.000000 0.724400 0.750000
Si Si7 0.223278 0.183682 0.424660
O O1 0.267701 0.420679 0.152427
O O2 0.262747 0.575798 0.057807
O O3 0.500000 0.500000 0.000000
O O4 0.327812 0.422022 0.940521
O O5 0.184352 0.615687 0.862196
O O6 0.071380 0.776649 0.947835
O O7 0.974631 0.671318 0.856115
O O8 0.900240 0.626204 0.055916
O O9 0.859077 0.793686 0.799931
O O10 0.827331 0.968923 0.765999
O O11 0.538433 0.362029 0.312451
O O12 0.361661 0.215903 0.301913
O O13 0.250000 0.250000 0.500000
#
# Coordination Sequence:
#
# PCOD9295054 Si02
#       7
#     8   8   8   4   8   4   8
#     4  12  24  41  67  98 131 179 231 279 344 416
#     4  11  25  43  65  97 132 174 223 281 345 408
#     4  12  25  44  68  97 136 177 224 283 342 411
#     4  10  23  42  63  90 130 170 216 274 333 394
#     4  11  23  43  66  94 132 174 221 280 339 403
#     4  12  25  44  67  96 132 178 222 276 341 406
#     4  11  24  41  64  93 128 171 220 276 336 402
#
# _framework density 25.769645000000001
#
# number of rings (size 3 to 8) (size 9 to 14) (size 15 to 20)
#    0.000    0.667    0.000    9.500    0.000    6.667 
#    0.000    0.000    0.000    0.000    0.000    0.000 
#    0.000    0.000    0.000    0.000    0.000    0.000 
#
# Total GULP energy -134405.846634 kJ/mol
# GULP energy per Si atom -5600.243610 kJ/mol
# Density = 2.571099 g / cm^3
# Si number density = 25.769645 Si / 1000 Ang^3
#
#
#
# Elastic Constant Matrix: (Units=GPa)
#
#
# Indices 1 2 3 4 5 6 
#
# 1 78.9210 2.1310 19.8658 0.0000 3.8242 0.0000
# 2 2.1310 71.9427 13.9331 0.0000 -3.3000 0.0000
# 3 19.8658 13.9331 93.5539 0.0000 9.7077 0.0000
# 4 0.0000 0.0000 0.0000 37.7068 0.0000 4.1618
# 5 3.8242 -3.3000 9.7077 0.0000 59.8412 0.0000
# 6 0.0000 0.0000 0.0000 4.1618 0.0000 34.3234
#
#
#
# Elastic Compliance Matrix: (Units=1/GPa)
#
#
# Indices 1 2 3 4 5 6 
#
# 1 0.013397 0.000132 -0.002824 0.000000 -0.000391 0.000000
# 2 0.000132 0.014393 -0.002292 0.000000 0.001157 0.000000
# 3 -0.002824 -0.002292 0.011823 0.000000 -0.001864 0.000000
# 4 0.000000 0.000000 0.000000 0.026880 0.000000 -0.003259
# 5 -0.000391 0.001157 -0.001864 0.000000 0.017102 0.000000
# 6 0.000000 0.000000 0.000000 -0.003259 0.000000 0.029530
#
#
# Mechanical properties :
#
#
# Convention : Reuss Voigt Hill
#
# Bulk Modulus (GPa) = 33.73081 35.14192 34.43637
# Shear Modulus (GPa) = 37.60118 40.27347 38.93732
#
# Velocity S-wave (km/s) = 3.82400 3.95755 3.89134
# Velocity P-wave (km/s) = 5.71096 5.87788 5.79502
#
# Compressibility (1/GPa) = 0.02964648
#
# Stress axis : x y z
#
# Youngs Moduli (GPa) = 74.64303 69.47855 84.57804
#
# Poissons Ratio (x) = -0.00918 0.23884
# Poissons Ratio (y) = -0.00986 0.19383
# Poissons Ratio (z) = 0.21079 0.15922
#
# Static dielectric constant tensor:
#      x y z
#    x 2.082080 0.000000 -0.125940 
#    y 0.000000 1.996920 0.000000 
#    z -0.125940 0.000000 2.240880 
# 
# From -- ./inp_files/144106.got.cif
#   From: 2010.05.17/outbox.cif.g08.bks.cpg/sg15_73_cif.got.tgz:144106.got - 2010.06.03 18:47:42.
