data_PCOD9295517
_publ_section_title
;
Structure prediction by ZEFSAII (Michael W. Deem and Ramdas Pophale) SiO2 
 PCOD9295517
Probable space group: C 2/C
;
_chemical_formula_sum "Si O2"
_cell_formula_units_Z 48
_cell_length_a 11.945367
_cell_length_b 13.234778
_cell_length_c 13.458836
_cell_angle_alpha 90.000000
_cell_angle_beta 85.788644
_cell_angle_gamma 90.000000
_cell_volume 2122.019903
_symmetry_space_group_name_H-M "C 2/C"
_symmetry_group_IT_number 15
_symmetry_cell_setting 'monoclinic'
loop_
_space_group_symop_operation_xyz
x,y,z
-x,y,1/2-z
-x,-y,-z
x,-y,1/2+z
1/2+x,1/2+y,z
1/2-x,1/2+y,1/2-z
1/2-x,1/2-y,-z
1/2+x,1/2-y,1/2+z
loop_
_atom_site_type_symbol
_atom_site_label
_atom_site_fract_x
_atom_site_fract_y
_atom_site_fract_z
Si Si1 0.222078 0.504785 0.709406
Si Si2 0.042318 0.599570 0.583887
Si Si3 0.671369 0.863793 0.895030
Si Si4 0.145487 0.123131 0.441999
Si Si5 0.394421 0.687808 0.482130
Si Si6 0.287762 0.842761 0.129040
O O1 0.112513 0.529493 0.651495
O O2 0.190763 0.415590 0.789095
O O3 0.319522 0.469319 0.629238
O O4 0.256440 0.603571 0.769583
O O5 0.074776 0.581837 0.466567
O O6 0.090879 0.715023 0.592568
O O7 0.912416 0.612088 0.611414
O O8 0.788071 0.872435 0.948715
O O9 0.634877 0.746343 0.912864
O O10 0.211770 0.124655 0.541294
O O11 0.191830 0.223166 0.381217
O O12 0.013268 0.132957 0.471543
#
# Coordination Sequence:
#
# PCOD9295517 Si02
#       6
#     8   8   8   8   8   8
#     4  12  23  35  65 106 128 170 235 278 326 403
#     4   9  20  40  64  92 130 169 221 275 326 391
#     4   9  20  39  68  93 129 172 228 269 332 399
#     4  10  23  43  67  93 140 179 216 282 345 392
#     4   8  19  44  68  87 130 189 214 267 342 408
#     4  10  23  43  62  97 137 177 221 277 339 404
#
# _framework density 22.619956999999999
#
# number of rings (size 3 to 8) (size 9 to 14) (size 15 to 20)
#    1.000    1.333    0.000    1.500    2.333    4.667 
#    0.000    5.000    0.000    2.000    0.000    0.000 
#    0.000    0.000    0.000    0.000    0.000    0.000 
#
# Total GULP energy -133989.113787 kJ/mol
# GULP energy per Si atom -5582.879741 kJ/mol
# Density = 2.256847 g / cm^3
# Si number density = 22.619957 Si / 1000 Ang^3
#
#
#
# Elastic Constant Matrix: (Units=GPa)
#
#
# Indices 1 2 3 4 5 6 
#
# 1 128.0001 30.4519 52.5293 0.0000 -12.4251 0.0000
# 2 30.4519 59.9965 29.1733 0.0000 1.3612 0.0000
# 3 52.5293 29.1733 93.8364 0.0000 -0.3707 0.0000
# 4 0.0000 0.0000 0.0000 61.2165 0.0000 -0.3012
# 5 -12.4251 1.3612 -0.3707 0.0000 24.0199 0.0000
# 6 0.0000 0.0000 0.0000 -0.3012 0.0000 27.3601
#
#
#
# Elastic Compliance Matrix: (Units=1/GPa)
#
#
# Indices 1 2 3 4 5 6 
#
# 1 0.011360 -0.003323 -0.005302 0.000000 0.005983 0.000000
# 2 -0.003323 0.020643 -0.004569 0.000000 -0.002959 0.000000
# 3 -0.005302 -0.004569 0.015037 0.000000 -0.002252 0.000000
# 4 0.000000 0.000000 0.000000 0.016336 0.000000 0.000180
# 5 0.005983 -0.002959 -0.002252 0.000000 0.044860 0.000000
# 6 0.000000 0.000000 0.000000 0.000180 0.000000 0.036552
#
#
# Mechanical properties :
#
#
# Convention : Reuss Voigt Hill
#
# Bulk Modulus (GPa) = 48.42579 56.23798 52.33188
# Shear Modulus (GPa) = 28.08026 33.83120 30.95573
#
# Velocity S-wave (km/s) = 3.52716 3.87154 3.70336
# Velocity P-wave (km/s) = 6.16788 6.70083 6.43987
#
# Compressibility (1/GPa) = 0.02065015
#
# Stress axis : x y z
#
# Youngs Moduli (GPa) = 88.02896 48.44178 66.50366
#
# Poissons Ratio (x) = 0.16099 0.35263
# Poissons Ratio (y) = 0.29254 0.30387
# Poissons Ratio (z) = 0.46676 0.22134
#
# Static dielectric constant tensor:
#      x y z
#    x 1.770910 0.000000 -0.025620 
#    y 0.000000 1.983740 0.000000 
#    z -0.025620 0.000000 1.834730 
# 
# From -- ./inp_files/143561.got.cif
#   From: 2010.05.17/outbox.cif.g08.bks.cpg/sg15_72_cif.got.tgz:143561.got - 2010.06.03 18:47:42.
