data_PCOD9295813
_publ_section_title
;
Structure prediction by ZEFSAII (Michael W. Deem and Ramdas Pophale) SiO2 
 PCOD9295813
Probable space group: C 2/C
;
_chemical_formula_sum "Si O2"
_cell_formula_units_Z 40
_cell_length_a 14.303015
_cell_length_b 15.651904
_cell_length_c 8.176821
_cell_angle_alpha 90.000000
_cell_angle_beta 69.911077
_cell_angle_gamma 90.000000
_cell_volume 1719.171327
_symmetry_space_group_name_H-M "C 2/C"
_symmetry_group_IT_number 15
_symmetry_cell_setting 'monoclinic'
loop_
_space_group_symop_operation_xyz
x,y,z
-x,y,1/2-z
-x,-y,-z
x,-y,1/2+z
1/2+x,1/2+y,z
1/2-x,1/2+y,1/2-z
1/2-x,1/2-y,-z
1/2+x,1/2-y,1/2+z
loop_
_atom_site_type_symbol
_atom_site_label
_atom_site_fract_x
_atom_site_fract_y
_atom_site_fract_z
Si Si1 0.307517 0.619566 0.035009
Si Si2 0.872619 0.688466 0.506463
Si Si3 0.266587 0.844269 0.420237
Si Si4 0.459038 0.089878 0.957777
Si Si5 0.118135 0.046592 0.167811
O O1 0.188877 0.633121 0.087617
O O2 0.345225 0.548911 0.886512
O O3 0.356542 0.712309 0.978951
O O4 0.339255 0.586146 0.192072
O O5 0.814405 0.666814 0.712257
O O6 0.985915 0.661011 0.465595
O O7 0.250000 0.750000 0.500000
O O8 0.343011 0.895176 0.493967
O O9 0.163857 0.895796 0.494472
O O10 0.500000 0.099215 0.750000
O O11 0.500000 0.000000 0.000000
O O12 0.000000 0.049962 0.250000
#
# Coordination Sequence:
#
# PCOD9295813 Si02
#       5
#     8   8   8   8   8
#     4  11  24  44  67 100 140 184 229 291 352 428
#     4  10  23  45  70 102 143 173 235 293 351 424
#     4  11  23  43  73  99 135 186 231 289 355 418
#     4  10  23  43  70 101 134 181 226 288 349 419
#     4  12  26  44  69  98 144 186 236 288 356 429
#
# _framework density 23.267022999999998
#
# number of rings (size 3 to 8) (size 9 to 14) (size 15 to 20)
#    0.000    1.200    2.000    3.000    2.800    4.800 
#    0.000    0.000    0.000    0.000    0.000    0.000 
#    0.000    0.000    0.000    0.000    0.000    0.000 
#
# Total GULP energy -111942.238699 kJ/mol
# GULP energy per Si atom -5597.111935 kJ/mol
# Density = 2.321407 g / cm^3
# Si number density = 23.267023 Si / 1000 Ang^3
#
#
#
# Elastic Constant Matrix: (Units=GPa)
#
#
# Indices 1 2 3 4 5 6 
#
# 1 83.3418 47.1114 20.9678 0.0000 -6.9095 0.0000
# 2 47.1114 135.9512 13.3744 0.0000 -4.6253 0.0000
# 3 20.9678 13.3744 49.0867 0.0000 6.4876 0.0000
# 4 0.0000 0.0000 0.0000 30.4421 0.0000 13.4141
# 5 -6.9095 -4.6253 6.4876 0.0000 44.7716 0.0000
# 6 0.0000 0.0000 0.0000 13.4141 0.0000 38.5807
#
#
#
# Elastic Compliance Matrix: (Units=1/GPa)
#
#
# Indices 1 2 3 4 5 6 
#
# 1 0.016645 -0.005066 -0.006117 0.000000 0.002932 0.000000
# 2 -0.005066 0.009154 -0.000358 0.000000 0.000216 0.000000
# 3 -0.006117 -0.000358 0.023666 0.000000 -0.004410 0.000000
# 4 0.000000 0.000000 0.000000 0.038793 0.000000 -0.013488
# 5 0.002932 0.000216 -0.004410 0.000000 0.023449 0.000000
# 6 0.000000 0.000000 0.000000 -0.013488 0.000000 0.030609
#
#
# Mechanical properties :
#
#
# Convention : Reuss Voigt Hill
#
# Bulk Modulus (GPa) = 37.90682 47.92076 42.91379
# Shear Modulus (GPa) = 28.70386 35.22063 31.96225
#
# Velocity S-wave (km/s) = 3.51618 3.89492 3.71039
# Velocity P-wave (km/s) = 5.72819 6.39281 6.06960
#
# Compressibility (1/GPa) = 0.02638048
#
# Stress axis : x y z
#
# Youngs Moduli (GPa) = 60.07902 109.24348 42.25543
#
# Poissons Ratio (x) = 0.55347 0.25848
# Poissons Ratio (y) = 0.30439 0.01515
# Poissons Ratio (z) = 0.36750 0.03916
#
# Static dielectric constant tensor:
#      x y z
#    x 1.636430 0.000000 0.028350 
#    y 0.000000 1.817830 0.000000 
#    z 0.028350 0.000000 1.911670 
# 
# From -- ./inp_files/37808.got.cif
#   From: 2010.05.17/outbox.cif.g08.bks.cpg/sg15_19_cif.got.tgz:37808.got - 2010.06.03 18:47:42.
