data_PCOD9295932
_publ_section_title
;
Structure prediction by ZEFSAII (Michael W. Deem and Ramdas Pophale) SiO2 
 PCOD9295932
Probable space group: C 2/C
;
_chemical_formula_sum "Si O2"
_cell_formula_units_Z 60
_cell_length_a 17.050805
_cell_length_b 12.750817
_cell_length_c 19.798399
_cell_angle_alpha 90.000000
_cell_angle_beta 141.631493
_cell_angle_gamma 90.000000
_cell_volume 2671.816083
_symmetry_space_group_name_H-M "C 2/C"
_symmetry_group_IT_number 15
_symmetry_cell_setting 'monoclinic'
loop_
_space_group_symop_operation_xyz
x,y,z
-x,y,1/2-z
-x,-y,-z
x,-y,1/2+z
1/2+x,1/2+y,z
1/2-x,1/2+y,1/2-z
1/2-x,1/2-y,-z
1/2+x,1/2-y,1/2+z
loop_
_atom_site_type_symbol
_atom_site_label
_atom_site_fract_x
_atom_site_fract_y
_atom_site_fract_z
Si Si1 0.984953 0.099539 0.356811
Si Si2 0.263461 0.866379 0.040302
Si Si3 0.931973 0.350434 0.775355
Si Si4 0.000000 0.728379 0.750000
Si Si5 0.641588 0.349411 0.589528
Si Si6 0.853210 0.384726 0.365955
Si Si7 0.427123 0.619848 0.835559
Si Si8 0.084481 0.515689 0.965752
O O1 0.130112 0.101156 0.479770
O O2 0.978894 0.191590 0.297882
O O3 0.893906 0.119282 0.358335
O O4 0.952285 0.983762 0.307924
O O5 0.380834 0.849110 0.168188
O O6 0.307114 0.943875 0.010425
O O7 0.250000 0.750000 0.000000
O O8 0.784727 0.382691 0.670104
O O9 0.938851 0.229578 0.804427
O O10 0.000000 0.361777 0.750000
O O11 0.006052 0.421632 0.879025
O O12 0.641596 0.222987 0.589301
O O13 0.531539 0.384780 0.464784
O O14 0.718482 0.385949 0.238040
O O15 0.861412 0.478975 0.425773
O O16 0.979112 0.394569 0.406490
#
# Coordination Sequence:
#
# PCOD9295932 Si02
#       8
#     8   8   8   4   8   8   8   8
#     4  11  25  42  70 101 139 182 224 288 346 416
#     4  10  24  41  64 100 135 175 225 283 336 410
#     4  11  27  45  70 101 137 185 231 288 345 419
#     4  10  24  44  64 104 138 182 228 276 356 414
#     4  11  24  47  67 102 140 179 235 287 351 408
#     4  10  23  43  73  99 133 187 232 287 347 420
#     4  11  25  44  68 101 136 182 236 286 347 416
#     4  11  23  45  69 101 137 182 235 283 352 417
#
# _framework density 22.456637000000001
#
# number of rings (size 3 to 8) (size 9 to 14) (size 15 to 20)
#    0.000    1.333    1.333    2.800    7.467    4.800 
#    0.000    0.000    0.000    0.000    0.000    0.000 
#    0.000    0.000    0.000    0.000    0.000    0.000 
#
# Total GULP energy -167764.638493 kJ/mol
# GULP energy per Si atom -5592.154616 kJ/mol
# Density = 2.240552 g / cm^3
# Si number density = 22.456637 Si / 1000 Ang^3
#
#
#
# Elastic Constant Matrix: (Units=GPa)
#
#
# Indices 1 2 3 4 5 6 
#
# 1 127.9718 3.9791 44.4345 0.0000 20.3623 0.0000
# 2 3.9791 50.5482 2.8164 0.0000 10.3252 0.0000
# 3 44.4345 2.8164 90.8963 0.0000 13.6769 0.0000
# 4 0.0000 0.0000 0.0000 26.5216 0.0000 6.3135
# 5 20.3623 10.3252 13.6769 0.0000 35.4247 0.0000
# 6 0.0000 0.0000 0.0000 6.3135 0.0000 21.2754
#
#
#
# Elastic Compliance Matrix: (Units=1/GPa)
#
#
# Indices 1 2 3 4 5 6 
#
# 1 0.009940 0.000305 -0.004242 0.000000 -0.004165 0.000000
# 2 0.000305 0.021052 0.000158 0.000000 -0.006372 0.000000
# 3 -0.004242 0.000158 0.013494 0.000000 -0.002818 0.000000
# 4 0.000000 0.000000 0.000000 0.040571 0.000000 -0.012040
# 5 -0.004165 -0.006372 -0.002818 0.000000 0.033568 0.000000
# 6 0.000000 0.000000 0.000000 -0.012040 0.000000 0.050575
#
#
# Mechanical properties :
#
#
# Convention : Reuss Voigt Hill
#
# Bulk Modulus (GPa) = 27.08064 41.31958 34.20011
# Shear Modulus (GPa) = 26.44525 31.19009 28.81767
#
# Velocity S-wave (km/s) = 3.43536 3.73084 3.58615
# Velocity P-wave (km/s) = 5.27455 6.08265 5.69295
#
# Compressibility (1/GPa) = 0.03692675
#
# Stress axis : x y z
#
# Youngs Moduli (GPa) = 100.59982 47.50160 74.10509
#
# Poissons Ratio (x) = -0.01447 0.31436
# Poissons Ratio (y) = -0.03064 -0.01168
# Poissons Ratio (z) = 0.42676 -0.00749
#
# Static dielectric constant tensor:
#      x y z
#    x 1.794570 0.000000 0.036900 
#    y 0.000000 1.861540 0.000000 
#    z 0.036900 0.000000 1.956530 
# 
# From -- ./inp_files/248780.got.cif
#   From: 2010.05.17/outbox.cif.g08.bks.cpg/sg15_125_cif.got.tgz:248780.got - 2010.06.03 18:47:42.
