data_PCOD9295620
_publ_section_title
;
Structure prediction by ZEFSAII (Michael W. Deem and Ramdas Pophale) SiO2 
 PCOD9295620
Probable space group: C 2/C
;
_chemical_formula_sum "Si O2"
_cell_formula_units_Z 40
_cell_length_a 11.836686
_cell_length_b 13.848959
_cell_length_c 18.067885
_cell_angle_alpha 90.000000
_cell_angle_beta 34.726665
_cell_angle_gamma 90.000000
_cell_volume 1687.220666
_symmetry_space_group_name_H-M "C 2/C"
_symmetry_group_IT_number 15
_symmetry_cell_setting 'monoclinic'
loop_
_space_group_symop_operation_xyz
x,y,z
-x,y,1/2-z
-x,-y,-z
x,-y,1/2+z
1/2+x,1/2+y,z
1/2-x,1/2+y,1/2-z
1/2-x,1/2-y,-z
1/2+x,1/2-y,1/2+z
loop_
_atom_site_type_symbol
_atom_site_label
_atom_site_fract_x
_atom_site_fract_y
_atom_site_fract_z
Si Si1 0.661769 0.142355 0.770286
Si Si2 0.198146 0.502364 0.533138
Si Si3 0.590759 0.370384 0.973383
Si Si4 0.761975 0.835246 0.385908
Si Si5 0.941557 0.178738 0.390634
O O1 0.668735 0.148553 0.855367
O O2 0.601624 0.247974 0.770127
O O3 0.879415 0.120511 0.626103
O O4 0.497767 0.062266 0.842768
O O5 0.284214 0.459339 0.562981
O O6 0.177452 0.413195 0.488620
O O7 0.349365 0.578617 0.412379
O O8 0.700907 0.273084 0.940179
O O9 0.543699 0.355513 0.912506
O O10 0.000000 0.843426 0.250000
O O11 0.750000 0.250000 0.500000
#
# Coordination Sequence:
#
# PCOD9295620 Si02
#       5
#     8   8   8   8   8
#     4  10  23  43  66  95 137 173 218 276 336 403
#     4  11  22  41  65  98 128 172 228 271 329 398
#     4  11  23  43  66  96 134 178 220 274 338 395
#     4  11  23  44  65  96 135 172 223 276 337 404
#     4   9  22  43  62  95 136 171 220 268 335 402
#
# _framework density 23.707626999999999
#
# number of rings (size 3 to 8) (size 9 to 14) (size 15 to 20)
#    0.000    1.600    2.000    1.800    0.000    4.800 
#   18.000    0.000    0.000    0.000    0.000    0.000 
#    0.000    0.000    0.000    0.000    0.000    0.000 
#
# Total GULP energy -111850.704362 kJ/mol
# GULP energy per Si atom -5592.535218 kJ/mol
# Density = 2.365367 g / cm^3
# Si number density = 23.707627 Si / 1000 Ang^3
#
#
#
# Elastic Constant Matrix: (Units=GPa)
#
#
# Indices 1 2 3 4 5 6 
#
# 1 101.7713 39.7876 22.2835 -0.0003 -4.8081 -0.0001
# 2 39.7876 153.7142 32.8111 -0.0009 -11.1856 0.0001
# 3 22.2835 32.8111 74.2117 -0.0033 -12.9093 0.0008
# 4 -0.0003 -0.0009 -0.0033 33.4695 0.0010 -19.6095
# 5 -4.8081 -11.1856 -12.9093 0.0010 31.5432 -0.0001
# 6 -0.0001 0.0001 0.0008 -19.6095 -0.0001 56.4678
#
#
#
# Elastic Compliance Matrix: (Units=1/GPa)
#
#
# Indices 1 2 3 4 5 6 
#
# 1 0.011281 -0.002430 -0.002330 0.000000 -0.000095 0.000000
# 2 -0.002430 0.007760 -0.002462 0.000000 0.001374 0.000000
# 3 -0.002330 -0.002462 0.016203 0.000002 0.005403 0.000000
# 4 0.000000 0.000000 0.000002 0.037510 -0.000001 0.013026
# 5 -0.000095 0.001374 0.005403 -0.000001 0.034386 0.000000
# 6 0.000000 0.000000 0.000000 0.013026 0.000000 0.022233
#
#
# Mechanical properties :
#
#
# Convention : Reuss Voigt Hill
#
# Bulk Modulus (GPa) = 48.07536 57.71794 52.89665
# Shear Modulus (GPa) = 33.16730 39.95045 36.55887
#
# Velocity S-wave (km/s) = 3.74440 4.10949 3.93118
# Velocity P-wave (km/s) = 6.24632 6.84951 6.55485
#
# Compressibility (1/GPa) = 0.02080067
#
# Stress axis : x y z
#
# Youngs Moduli (GPa) = 88.64085 128.86472 61.71659
#
# Poissons Ratio (x) = 0.31311 0.14379
# Poissons Ratio (y) = 0.21537 0.15197
# Poissons Ratio (z) = 0.20652 0.31732
#
# Static dielectric constant tensor:
#      x y z
#    x 1.865790 0.000000 0.072570 
#    y 0.000000 1.907340 0.000000 
#    z 0.072570 0.000000 1.845630 
# 
# From -- ./inp_files/197579.got.cif
#   From: 2010.05.17/outbox.cif.g08.bks.cpg/sg15_99_cif.got.tgz:197579.got - 2010.06.03 18:47:42.
