data_PCOD9295014
_publ_section_title
;
Structure prediction by ZEFSAII (Michael W. Deem and Ramdas Pophale) SiO2 
 PCOD9295014
Probable space group: C 2/C
;
_chemical_formula_sum "Si O2"
_cell_formula_units_Z 36
_cell_length_a 23.154375
_cell_length_b 6.643476
_cell_length_c 9.982040
_cell_angle_alpha 90.000000
_cell_angle_beta 83.840925
_cell_angle_gamma 90.000000
_cell_volume 1526.629548
_symmetry_space_group_name_H-M "C 2/C"
_symmetry_group_IT_number 15
_symmetry_cell_setting 'monoclinic'
loop_
_space_group_symop_operation_xyz
x,y,z
-x,y,1/2-z
-x,-y,-z
x,-y,1/2+z
1/2+x,1/2+y,z
1/2-x,1/2+y,1/2-z
1/2-x,1/2-y,-z
1/2+x,1/2-y,1/2+z
loop_
_atom_site_type_symbol
_atom_site_label
_atom_site_fract_x
_atom_site_fract_y
_atom_site_fract_z
Si Si1 0.205421 0.529813 0.595286
Si Si2 0.058362 0.656887 0.414803
Si Si3 0.415094 0.190891 0.799173
Si Si4 0.000000 0.051159 0.750000
Si Si5 0.314339 0.768498 0.662017
O O1 0.154290 0.679637 0.662093
O O2 0.268325 0.606413 0.623785
O O3 0.193567 0.327923 0.681264
O O4 0.198750 0.542037 0.436492
O O5 0.056928 0.606039 0.570521
O O6 0.068003 0.459608 0.323366
O O7 0.118828 0.780124 0.380234
O O8 0.008302 0.801719 0.373964
O O9 0.444608 0.406038 0.775146
#
# Coordination Sequence:
#
# PCOD9295014 Si02
#       5
#     8   8   8   4   8
#     4   9  19  36  58  84 116 150 189 238 292 347
#     4  10  23  42  61  88 123 159 200 247 298 353
#     4  10  23  42  61  88 123 159 200 247 298 353
#     4  12  24  36  64  92 118 160 202 248 290 358
#     4   9  19  36  58  84 116 150 189 238 292 347
#
# _framework density 23.581356
#
# number of rings (size 3 to 8) (size 9 to 14) (size 15 to 20)
#    0.000    2.222    0.000    1.333    3.111    6.222 
#    0.000    0.000    0.000    0.000    0.000    0.000 
#    0.000    0.000    0.000    0.000    0.000    0.000 
#
# Total GULP energy -100579.785791 kJ/mol
# GULP energy per Si atom -5587.765877 kJ/mol
# Density = 2.352768 g / cm^3
# Si number density = 23.581356 Si / 1000 Ang^3
#
#
#
# Elastic Constant Matrix: (Units=GPa)
#
#
# Indices 1 2 3 4 5 6 
#
# 1 112.4456 33.0132 -13.1898 0.0000 -0.5993 0.0000
# 2 33.0132 47.6685 11.4098 0.0000 7.2597 0.0000
# 3 -13.1898 11.4098 90.0454 0.0000 12.6872 0.0000
# 4 0.0000 0.0000 0.0000 21.6740 0.0000 5.1527
# 5 -0.5993 7.2597 12.6872 0.0000 32.3308 0.0000
# 6 0.0000 0.0000 0.0000 5.1527 0.0000 32.3460
#
#
#
# Elastic Compliance Matrix: (Units=1/GPa)
#
#
# Indices 1 2 3 4 5 6 
#
# 1 0.011878 -0.009058 0.002720 0.000000 0.001187 0.000000
# 2 -0.009058 0.029043 -0.004302 0.000000 -0.005001 0.000000
# 3 0.002720 -0.004302 0.012603 0.000000 -0.003929 0.000000
# 4 0.000000 0.000000 0.000000 0.047954 0.000000 -0.007639
# 5 0.001187 -0.005001 -0.003929 0.000000 0.033617 0.000000
# 6 0.000000 0.000000 0.000000 -0.007639 0.000000 0.032133
#
#
# Mechanical properties :
#
#
# Convention : Reuss Voigt Hill
#
# Bulk Modulus (GPa) = 31.01366 34.73623 32.87495
# Shear Modulus (GPa) = 25.09342 31.86524 28.47933
#
# Velocity S-wave (km/s) = 3.26563 3.67998 3.47898
# Velocity P-wave (km/s) = 5.23444 5.72876 5.48717
#
# Compressibility (1/GPa) = 0.03224385
#
# Stress axis : x y z
#
# Youngs Moduli (GPa) = 84.18913 34.43181 79.34775
#
# Poissons Ratio (x) = 0.31189 -0.21586
# Poissons Ratio (y) = 0.76259 0.34138
# Poissons Ratio (z) = -0.22903 0.14814
#
# Static dielectric constant tensor:
#      x y z
#    x 1.916500 0.000000 -0.017450 
#    y 0.000000 1.865090 0.000000 
#    z -0.017450 0.000000 1.893390 
# 
# From -- ./inp_files/59736.got.cif
#   From: 2010.05.17/outbox.cif.g08.bks.cpg/sg15_30_cif.got.tgz:59736.got - 2010.06.03 18:47:42.
