data_PCOD9295185
_publ_section_title
;
Structure prediction by ZEFSAII (Michael W. Deem and Ramdas Pophale) SiO2 
 PCOD9295185
Probable space group: C 2/C
;
_chemical_formula_sum "Si O2"
_cell_formula_units_Z 44
_cell_length_a 26.425939
_cell_length_b 11.501592
_cell_length_c 12.058277
_cell_angle_alpha 90.000000
_cell_angle_beta 144.370698
_cell_angle_gamma 90.000000
_cell_volume 2135.002778
_symmetry_space_group_name_H-M "C 2/C"
_symmetry_group_IT_number 15
_symmetry_cell_setting 'monoclinic'
loop_
_space_group_symop_operation_xyz
x,y,z
-x,y,1/2-z
-x,-y,-z
x,-y,1/2+z
1/2+x,1/2+y,z
1/2-x,1/2+y,1/2-z
1/2-x,1/2-y,-z
1/2+x,1/2-y,1/2+z
loop_
_atom_site_type_symbol
_atom_site_label
_atom_site_fract_x
_atom_site_fract_y
_atom_site_fract_z
Si Si1 0.597553 0.963487 0.194984
Si Si2 0.381637 0.481831 0.678966
Si Si3 0.000000 0.846202 0.250000
Si Si4 0.238482 0.630300 0.545022
Si Si5 0.767349 0.653718 0.707177
Si Si6 0.908760 0.218518 0.367540
O O1 0.651486 0.055941 0.362414
O O2 0.658699 0.941317 0.195854
O O3 0.585846 0.827595 0.206575
O O4 0.500000 0.000000 0.000000
O O5 0.429142 0.568978 0.680388
O O6 0.318838 0.552082 0.649005
O O7 0.320383 0.392837 0.502225
O O8 0.437479 0.397163 0.856659
O O9 0.039113 0.773433 0.423059
O O10 0.250000 0.750000 0.500000
O O11 0.240314 0.660436 0.676605
O O12 0.807490 0.772029 0.726261
#
# Coordination Sequence:
#
# PCOD9295185 Si02
#       6
#     8   8   4   8   8   8
#     4   9  23  41  62  93 132 170 213 270 321 387
#     4  11  23  44  63  97 128 170 219 273 326 387
#     4  12  24  40  72  96 132 174 218 274 332 390
#     4  11  23  39  66  98 128 170 222 266 324 394
#     4   9  22  40  67  89 129 171 210 266 331 378
#     4  10  23  42  66  93 132 170 216 267 331 383
#
# _framework density 20.608872999999999
#
# number of rings (size 3 to 8) (size 9 to 14) (size 15 to 20)
#    1.091    0.727    0.000    3.273    5.091    2.182 
#    0.000    0.000    0.000    0.000    0.000    0.000 
#    0.000    0.000    0.000    0.000    0.000    0.000 
#
# Total GULP energy -122501.247395 kJ/mol
# GULP energy per Si atom -5568.238518 kJ/mol
# Density = 2.056197 g / cm^3
# Si number density = 20.608873 Si / 1000 Ang^3
#
#
#
# Elastic Constant Matrix: (Units=GPa)
#
#
# Indices 1 2 3 4 5 6 
#
# 1 52.3406 -3.9969 8.9235 0.0000 -8.1363 0.0000
# 2 -3.9969 94.3824 17.5880 0.0000 -6.2127 0.0000
# 3 8.9235 17.5880 50.1087 0.0000 -3.0002 0.0000
# 4 0.0000 0.0000 0.0000 29.3935 0.0000 8.9202
# 5 -8.1363 -6.2127 -3.0002 0.0000 36.7766 0.0000
# 6 0.0000 0.0000 0.0000 8.9202 0.0000 28.1654
#
#
#
# Elastic Compliance Matrix: (Units=1/GPa)
#
#
# Indices 1 2 3 4 5 6 
#
# 1 0.020660 0.001937 -0.004086 0.000000 0.004565 0.000000
# 2 0.001937 0.011613 -0.004299 0.000000 0.002040 0.000000
# 3 -0.004086 -0.004299 0.022204 0.000000 0.000181 0.000000
# 4 0.000000 0.000000 0.000000 0.037639 0.000000 -0.011920
# 5 0.004565 0.002040 0.000181 0.000000 0.028560 0.000000
# 6 0.000000 0.000000 0.000000 -0.011920 0.000000 0.039280
#
#
# Mechanical properties :
#
#
# Convention : Reuss Voigt Hill
#
# Bulk Modulus (GPa) = 24.04957 26.87341 25.46149
# Shear Modulus (GPa) = 26.77943 30.48824 28.63384
#
# Velocity S-wave (km/s) = 3.60865 3.85044 3.73150
# Velocity P-wave (km/s) = 5.39054 5.73026 5.56299
#
# Compressibility (1/GPa) = 0.04158078
#
# Stress axis : x y z
#
# Youngs Moduli (GPa) = 48.40354 86.11390 45.03713
#
# Poissons Ratio (x) = -0.16678 0.18400
# Poissons Ratio (y) = -0.09374 0.19360
# Poissons Ratio (z) = 0.19776 0.37018
#
# Static dielectric constant tensor:
#      x y z
#    x 1.706080 0.000000 0.027330 
#    y 0.000000 1.792660 0.000000 
#    z 0.027330 0.000000 1.771950 
# 
# From -- ./inp_files/122734.got.cif
#   From: 2010.05.17/outbox.cif.g08.bks.cpg/sg15_62_cif.got.tgz:122734.got - 2010.06.03 18:47:42.
