data_PCOD9295785
_publ_section_title
;
Structure prediction by ZEFSAII (Michael W. Deem and Ramdas Pophale) SiO2 
 PCOD9295785
Probable space group: C 2/C
;
_chemical_formula_sum "Si O2"
_cell_formula_units_Z 48
_cell_length_a 22.241955
_cell_length_b 7.257122
_cell_length_c 16.058768
_cell_angle_alpha 90.000000
_cell_angle_beta 54.632264
_cell_angle_gamma 90.000000
_cell_volume 2113.727523
_symmetry_space_group_name_H-M "C 2/C"
_symmetry_group_IT_number 15
_symmetry_cell_setting 'monoclinic'
loop_
_space_group_symop_operation_xyz
x,y,z
-x,y,1/2-z
-x,-y,-z
x,-y,1/2+z
1/2+x,1/2+y,z
1/2-x,1/2+y,1/2-z
1/2-x,1/2-y,-z
1/2+x,1/2-y,1/2+z
loop_
_atom_site_type_symbol
_atom_site_label
_atom_site_fract_x
_atom_site_fract_y
_atom_site_fract_z
Si Si1 0.768689 0.524621 0.643430
Si Si2 0.728942 0.935944 0.666148
Si Si3 0.425724 0.873601 0.960491
Si Si4 0.352432 0.258314 0.828040
Si Si5 0.017020 0.278881 0.401148
Si Si6 0.611197 0.521154 0.035683
O O1 0.785358 0.498131 0.727656
O O2 0.844928 0.538153 0.533142
O O3 0.718748 0.359341 0.652661
O O4 0.725457 0.715918 0.664171
O O5 0.671867 0.044629 0.653527
O O6 0.813275 0.986624 0.575066
O O7 0.419806 0.681549 0.916526
O O8 0.483146 0.031726 0.890937
O O9 0.447935 0.817379 0.037272
O O10 0.420815 0.288250 0.711752
O O11 0.370129 0.353450 0.900399
O O12 0.951048 0.133265 0.463671
#
# Coordination Sequence:
#
# PCOD9295785 Si02
#       6
#     8   8   8   8   8   8
#     4  11  22  41  69  96 131 170 231 273 329 394
#     4  11  22  40  67  95 129 177 221 279 327 394
#     4  10  23  43  69  96 127 177 226 276 330 400
#     4  12  24  41  63 100 136 174 220 276 340 400
#     4  11  23  43  68  94 132 178 224 273 335 402
#     4  11  25  41  64  98 137 173 217 276 340 403
#
# _framework density 22.7087
#
# number of rings (size 3 to 8) (size 9 to 14) (size 15 to 20)
#    0.000    1.000    3.333    3.500    0.000    5.333 
#    0.000    1.667    0.000    0.000    0.000    0.000 
#    0.000    0.000    0.000    0.000    0.000    0.000 
#
# Total GULP energy -134425.686160 kJ/mol
# GULP energy per Si atom -5601.070257 kJ/mol
# Density = 2.265701 g / cm^3
# Si number density = 22.708700 Si / 1000 Ang^3
#
#
#
# Elastic Constant Matrix: (Units=GPa)
#
#
# Indices 1 2 3 4 5 6 
#
# 1 43.2507 11.7549 12.3317 0.0001 11.5335 -0.0009
# 2 11.7549 85.8605 -3.7790 -0.0004 0.8838 -0.0023
# 3 12.3317 -3.7790 17.0906 -0.0007 -2.2462 -0.0006
# 4 0.0001 -0.0004 -0.0007 25.1820 0.0002 -1.8761
# 5 11.5335 0.8838 -2.2462 0.0002 19.9169 -0.0001
# 6 -0.0009 -0.0023 -0.0006 -1.8761 -0.0001 20.3441
#
#
#
# Elastic Compliance Matrix: (Units=1/GPa)
#
#
# Indices 1 2 3 4 5 6 
#
# 1 0.043187 -0.007225 -0.036546 -0.000001 -0.028810 0.000000
# 2 -0.007225 0.012971 0.008684 0.000001 0.004588 0.000001
# 3 -0.036546 0.008684 0.090880 0.000003 0.031027 0.000002
# 4 -0.000001 0.000001 0.000003 0.039986 0.000000 0.003687
# 5 -0.028810 0.004588 0.031027 0.000000 0.070188 0.000001
# 6 0.000000 0.000001 0.000002 0.003687 0.000001 0.049494
#
#
# Mechanical properties :
#
#
# Convention : Reuss Voigt Hill
#
# Bulk Modulus (GPa) = 13.00985 20.75743 16.88364
# Shear Modulus (GPa) = 12.42231 21.48153 16.95192
#
# Velocity S-wave (km/s) = 2.34140 3.07898 2.73517
# Velocity P-wave (km/s) = 3.61262 4.66913 4.17443
#
# Compressibility (1/GPa) = 0.07686486
#
# Stress axis : x y z
#
# Youngs Moduli (GPa) = 23.15485 77.09558 11.00352
#
# Poissons Ratio (x) = 0.55699 0.40214
# Poissons Ratio (y) = 0.16729 -0.09555
# Poissons Ratio (z) = 0.84622 -0.66950
#
# Static dielectric constant tensor:
#      x y z
#    x 1.844920 0.000000 0.012530 
#    y 0.000000 1.853810 0.000000 
#    z 0.012530 0.000000 1.789950 
# 
# From -- ./inp_files/218151.got.cif
#   From: 2010.05.17/outbox.cif.g08.bks.cpg/sg15_110_cif.got.tgz:218151.got - 2010.06.03 18:47:42.
