data_PCOD9295751
_publ_section_title
;
Structure prediction by ZEFSAII (Michael W. Deem and Ramdas Pophale) SiO2 
 PCOD9295751
Probable space group: C 2/C
;
_chemical_formula_sum "Si O2"
_cell_formula_units_Z 64
_cell_length_a 10.619156
_cell_length_b 11.293893
_cell_length_c 25.103776
_cell_angle_alpha 90.000000
_cell_angle_beta 62.426990
_cell_angle_gamma 90.000000
_cell_volume 2668.782071
_symmetry_space_group_name_H-M "C 2/C"
_symmetry_group_IT_number 15
_symmetry_cell_setting 'monoclinic'
loop_
_space_group_symop_operation_xyz
x,y,z
-x,y,1/2-z
-x,-y,-z
x,-y,1/2+z
1/2+x,1/2+y,z
1/2-x,1/2+y,1/2-z
1/2-x,1/2-y,-z
1/2+x,1/2-y,1/2+z
loop_
_atom_site_type_symbol
_atom_site_label
_atom_site_fract_x
_atom_site_fract_y
_atom_site_fract_z
Si Si1 0.638639 0.667386 0.991207
Si Si2 0.595986 0.847503 0.626650
Si Si3 0.673938 0.779665 0.349379
Si Si4 0.757793 0.965420 0.851330
Si Si5 0.507199 0.567895 0.114691
Si Si6 0.491925 0.877585 0.534130
Si Si7 0.219242 0.268299 0.787545
Si Si8 0.774485 0.568895 0.856687
O O1 0.511862 0.757245 0.998958
O O2 0.714609 0.614868 0.924687
O O3 0.750000 0.750000 0.000000
O O4 0.584786 0.566461 0.042298
O O5 0.729132 0.775461 0.622958
O O6 0.599441 0.869801 0.562560
O O7 0.449487 0.779303 0.667881
O O8 0.602030 0.974411 0.655574
O O9 0.528683 0.707234 0.370877
O O10 0.756663 0.762578 0.277918
O O11 0.665240 0.917962 0.361720
O O12 0.662819 0.880934 0.907323
O O13 0.780604 0.896720 0.792024
O O14 0.898998 0.985537 0.856946
O O15 0.357193 0.504240 0.141915
O O16 0.500000 0.000000 0.500000
O O17 0.296885 0.174714 0.811020
#
# Coordination Sequence:
#
# PCOD9295751 Si02
#       8
#     8   8   8   8   8   8   8   8
#     4  12  21  42  68  96 141 179 223 286 340 417
#     4  10  23  43  68  99 136 178 232 281 349 411
#     4  11  26  45  68 100 140 182 235 289 347 420
#     4  11  24  43  69  98 136 177 230 286 340 417
#     4  11  25  43  66 105 137 178 232 274 356 413
#     4  11  22  41  67  99 139 183 228 278 349 411
#     4  11  24  47  69 100 135 184 234 289 353 406
#     4  11  23  43  69 102 137 178 228 289 345 421
#
# _framework density 23.980975999999998
#
# number of rings (size 3 to 8) (size 9 to 14) (size 15 to 20)
#    0.000    1.000    3.750    3.000    3.500    3.500 
#    0.000    1.875    0.000    0.000    0.000    0.000 
#    0.000    0.000    0.000    0.000    0.000    0.000 
#
# Total GULP energy -179120.260227 kJ/mol
# GULP energy per Si atom -5597.508132 kJ/mol
# Density = 2.392639 g / cm^3
# Si number density = 23.980976 Si / 1000 Ang^3
#
#
#
# Elastic Constant Matrix: (Units=GPa)
#
#
# Indices 1 2 3 4 5 6 
#
# 1 62.6308 0.0797 16.2151 0.0000 21.5311 0.0000
# 2 0.0797 78.4697 5.8026 0.0000 10.2111 0.0000
# 3 16.2151 5.8026 70.9337 0.0000 10.6010 0.0000
# 4 0.0000 0.0000 0.0000 23.1499 0.0000 6.2627
# 5 21.5311 10.2111 10.6010 0.0000 29.2018 0.0000
# 6 0.0000 0.0000 0.0000 6.2627 0.0000 31.1762
#
#
#
# Elastic Compliance Matrix: (Units=1/GPa)
#
#
# Indices 1 2 3 4 5 6 
#
# 1 0.022267 0.002295 -0.002859 0.000000 -0.016182 0.000000
# 2 0.002295 0.013599 -0.000712 0.000000 -0.006189 0.000000
# 3 -0.002859 -0.000712 0.015287 0.000000 -0.003192 0.000000
# 4 0.000000 0.000000 0.000000 0.045679 0.000000 -0.009176
# 5 -0.016182 -0.006189 -0.003192 0.000000 0.049499 0.000000
# 6 0.000000 0.000000 0.000000 -0.009176 0.000000 0.033919
#
#
# Mechanical properties :
#
#
# Convention : Reuss Voigt Hill
#
# Bulk Modulus (GPa) = 20.57644 28.46989 24.52316
# Shear Modulus (GPa) = 25.12515 29.36803 27.24659
#
# Velocity S-wave (km/s) = 3.24035 3.50328 3.37438
# Velocity P-wave (km/s) = 4.75382 5.31616 5.04283
#
# Compressibility (1/GPa) = 0.04859928
#
# Stress axis : x y z
#
# Youngs Moduli (GPa) = 44.90928 73.53250 65.41667
#
# Poissons Ratio (x) = -0.16873 0.18705
# Poissons Ratio (y) = -0.10305 0.04658
# Poissons Ratio (z) = 0.12842 0.05236
#
# Static dielectric constant tensor:
#      x y z
#    x 1.903670 0.000000 -0.001130 
#    y 0.000000 1.976810 0.000000 
#    z -0.001130 0.000000 1.947820 
# 
# From -- ./inp_files/268835.got.cif
#   From: 2010.05.17/outbox.cif.g08.bks.cpg/sg15_135_cif.got.tgz:268835.got - 2010.06.03 18:47:42.
