data_PCOD9295431
_publ_section_title
;
Structure prediction by ZEFSAII (Michael W. Deem and Ramdas Pophale) SiO2 
 PCOD9295431
Probable space group: C 2/C
;
_chemical_formula_sum "Si O2"
_cell_formula_units_Z 32
_cell_length_a 7.559294
_cell_length_b 24.065418
_cell_length_c 8.630355
_cell_angle_alpha 90.000000
_cell_angle_beta 111.490236
_cell_angle_gamma 90.000000
_cell_volume 1460.865909
_symmetry_space_group_name_H-M "C 2/C"
_symmetry_group_IT_number 15
_symmetry_cell_setting 'monoclinic'
loop_
_space_group_symop_operation_xyz
x,y,z
-x,y,1/2-z
-x,-y,-z
x,-y,1/2+z
1/2+x,1/2+y,z
1/2-x,1/2+y,1/2-z
1/2-x,1/2-y,-z
1/2+x,1/2-y,1/2+z
loop_
_atom_site_type_symbol
_atom_site_label
_atom_site_fract_x
_atom_site_fract_y
_atom_site_fract_z
Si Si1 0.000000 0.741994 0.750000
Si Si2 0.029234 0.343990 0.513741
Si Si3 0.185594 0.158140 0.128140
Si Si4 0.500000 0.930067 0.250000
Si Si5 0.064799 0.057562 0.592574
O O1 0.892526 0.784196 0.828924
O O2 0.900433 0.700632 0.592931
O O3 0.841163 0.326553 0.547307
O O4 0.189216 0.362896 0.685749
O O5 0.961516 0.394708 0.390735
O O6 0.030113 0.112379 0.022487
O O7 0.708643 0.952243 0.347597
O O8 0.000000 0.062515 0.750000
O O9 0.000000 0.000000 0.500000
#
# Coordination Sequence:
#
# PCOD9295431 Si02
#       5
#     4   8   8   4   8
#     4  11  22  40  70 112 148 194 238 295 358 428
#     4  10  23  42  71 106 146 196 235 292 360 433
#     4  11  23  45  69 104 150 189 245 296 357 431
#     4  11  24  48  74 104 148 180 240 295 358 432
#     4  12  29  49  75 106 141 192 243 302 365 421
#
# _framework density 21.904817999999999
#
# number of rings (size 3 to 8) (size 9 to 14) (size 15 to 20)
#    0.000    1.000    2.500    3.000    5.250    5.000 
#    4.500    0.000    0.000    0.000    0.000    0.000 
#    0.000    0.000    0.000    0.000    0.000    0.000 
#
# Total GULP energy -89098.644027 kJ/mol
# GULP energy per Si atom -5568.665252 kJ/mol
# Density = 2.185496 g / cm^3
# Si number density = 21.904818 Si / 1000 Ang^3
#
#
#
# Elastic Constant Matrix: (Units=GPa)
#
#
# Indices 1 2 3 4 5 6 
#
# 1 141.7707 46.6012 61.4872 0.0000 8.0827 0.0000
# 2 46.6012 81.6872 65.7556 0.0000 16.8705 0.0000
# 3 61.4872 65.7556 141.1023 0.0000 4.4237 0.0000
# 4 0.0000 0.0000 0.0000 59.0092 0.0000 20.7938
# 5 8.0827 16.8705 4.4237 0.0000 46.3846 0.0000
# 6 0.0000 0.0000 0.0000 20.7938 0.0000 17.0716
#
#
#
# Elastic Compliance Matrix: (Units=1/GPa)
#
#
# Indices 1 2 3 4 5 6 
#
# 1 0.009204 -0.003176 -0.002524 0.000000 -0.000208 0.000000
# 2 -0.003176 0.022693 -0.008977 0.000000 -0.006844 0.000000
# 3 -0.002524 -0.008977 0.012291 0.000000 0.002533 0.000000
# 4 0.000000 0.000000 0.000000 0.029690 0.000000 -0.036163
# 5 -0.000208 -0.006844 0.002533 0.000000 0.023843 0.000000
# 6 0.000000 0.000000 0.000000 -0.036163 0.000000 0.102625
#
#
# Mechanical properties :
#
#
# Convention : Reuss Voigt Hill
#
# Bulk Modulus (GPa) = 67.41135 79.13871 73.27503
# Shear Modulus (GPa) = 21.30880 37.20748 29.25814
#
# Velocity S-wave (km/s) = 3.12234 4.12588 3.65868
# Velocity P-wave (km/s) = 6.62119 7.67490 7.16743
#
# Compressibility (1/GPa) = 0.01483430
#
# Stress axis : x y z
#
# Youngs Moduli (GPa) = 108.64505 44.06615 81.36035
#
# Poissons Ratio (x) = 0.13995 0.20538
# Poissons Ratio (y) = 0.34505 0.73036
# Poissons Ratio (z) = 0.27426 0.39557
#
# Static dielectric constant tensor:
#      x y z
#    x 1.775180 0.000000 0.003990 
#    y 0.000000 1.801420 0.000000 
#    z 0.003990 0.000000 1.814620 
# 
# From -- ./inp_files/23045.got.cif
#   From: 2010.05.17/outbox.cif.g08.bks.cpg/sg15_12_cif.got.tgz:23045.got - 2010.06.03 18:47:42.
