data_PCOD9295414
_publ_section_title
;
Structure prediction by ZEFSAII (Michael W. Deem and Ramdas Pophale) SiO2 
 PCOD9295414
Probable space group: C 2/C
;
_chemical_formula_sum "Si O2"
_cell_formula_units_Z 56
_cell_length_a 9.765605
_cell_length_b 27.557706
_cell_length_c 11.433168
_cell_angle_alpha 90.000000
_cell_angle_beta 117.741864
_cell_angle_gamma 90.000000
_cell_volume 2723.193150
_symmetry_space_group_name_H-M "C 2/C"
_symmetry_group_IT_number 15
_symmetry_cell_setting 'monoclinic'
loop_
_space_group_symop_operation_xyz
x,y,z
-x,y,1/2-z
-x,-y,-z
x,-y,1/2+z
1/2+x,1/2+y,z
1/2-x,1/2+y,1/2-z
1/2-x,1/2-y,-z
1/2+x,1/2-y,1/2+z
loop_
_atom_site_type_symbol
_atom_site_label
_atom_site_fract_x
_atom_site_fract_y
_atom_site_fract_z
Si Si1 0.456901 0.159094 0.870240
Si Si2 0.306257 0.905832 0.885566
Si Si3 0.500000 0.339388 0.750000
Si Si4 0.079031 0.237512 0.475358
Si Si5 0.500000 0.052845 0.250000
Si Si6 0.028928 0.936943 0.122914
Si Si7 0.757411 0.009928 0.956582
Si Si8 0.392177 0.335886 0.315064
O O1 0.500000 0.160188 0.750000
O O2 0.484025 0.212767 0.933460
O O3 0.275390 0.147720 0.797984
O O4 0.567198 0.122264 0.983860
O O5 0.386223 0.917871 0.792453
O O6 0.254839 0.953911 0.937836
O O7 0.153913 0.872473 0.811226
O O8 0.494940 0.302811 0.638195
O O9 0.250000 0.250000 0.500000
O O10 0.108794 0.212151 0.609947
O O11 0.599630 0.017846 0.372288
O O12 0.037301 0.881324 0.085623
O O13 0.000000 0.936069 0.250000
O O14 0.186060 0.960553 0.135709
O O15 0.887832 0.968788 0.021291
O O16 0.500000 0.326632 0.250000
#
# Coordination Sequence:
#
# PCOD9295414 Si02
#       8
#     8   8   4   8   4   8   8   8
#     4  12  24  46  74 104 136 183 242 281 351 424
#     4  12  29  44  73 104 142 190 233 296 350 418
#     4  12  24  44  75 100 142 175 242 290 352 418
#     4  12  22  46  73 105 132 186 234 290 342 427
#     4  12  30  46  67 102 150 179 232 300 350 414
#     4  10  23  42  71 100 136 180 235 285 343 419
#     4  11  25  45  69  99 137 189 236 283 350 417
#     4  11  26  43  71 102 140 183 226 290 356 412
#
# _framework density 20.564094000000001
#
# number of rings (size 3 to 8) (size 9 to 14) (size 15 to 20)
#    0.000    0.571    3.571    3.000   14.000    0.571 
#    1.286    0.000    0.000    0.000    0.000    0.000 
#    0.000    0.000    0.000    0.000    0.000    0.000 
#
# Total GULP energy -156499.534697 kJ/mol
# GULP energy per Si atom -5589.269096 kJ/mol
# Density = 2.051729 g / cm^3
# Si number density = 20.564094 Si / 1000 Ang^3
#
#
#
# Elastic Constant Matrix: (Units=GPa)
#
#
# Indices 1 2 3 4 5 6 
#
# 1 108.4816 38.2877 22.9193 0.0000 3.8985 0.0000
# 2 38.2877 115.0366 31.9775 0.0000 3.3216 0.0000
# 3 22.9193 31.9775 59.9821 0.0000 14.8128 0.0000
# 4 0.0000 0.0000 0.0000 44.0288 0.0000 -0.5197
# 5 3.8985 3.3216 14.8128 0.0000 25.7925 0.0000
# 6 0.0000 0.0000 0.0000 -0.5197 0.0000 26.8333
#
#
#
# Elastic Compliance Matrix: (Units=1/GPa)
#
#
# Indices 1 2 3 4 5 6 
#
# 1 0.010779 -0.002855 -0.002663 0.000000 0.000268 0.000000
# 2 -0.002855 0.011061 -0.005314 0.000000 0.002059 0.000000
# 3 -0.002663 -0.005314 0.023601 0.000000 -0.012467 0.000000
# 4 0.000000 0.000000 0.000000 0.022718 0.000000 0.000440
# 5 0.000268 0.002059 -0.012467 0.000000 0.045625 0.000000
# 6 0.000000 0.000000 0.000000 0.000440 0.000000 0.037276
#
#
# Mechanical properties :
#
#
# Convention : Reuss Voigt Hill
#
# Bulk Modulus (GPa) = 42.05797 52.20769 47.13283
# Shear Modulus (GPa) = 27.67797 32.01864 29.84830
#
# Velocity S-wave (km/s) = 3.67268 3.95019 3.81396
# Velocity P-wave (km/s) = 6.20333 6.80060 6.50882
#
# Compressibility (1/GPa) = 0.02377671
#
# Stress axis : x y z
#
# Youngs Moduli (GPa) = 92.77515 90.40807 42.37091
#
# Poissons Ratio (x) = 0.25812 0.11282
# Poissons Ratio (y) = 0.26488 0.22517
# Poissons Ratio (z) = 0.24702 0.48046
#
# Static dielectric constant tensor:
#      x y z
#    x 1.713190 0.000000 0.018050 
#    y 0.000000 1.818920 0.000000 
#    z 0.018050 0.000000 1.712910 
# 
# From -- ./inp_files/82720.got.cif
#   From: 2010.05.17/outbox.cif.g08.bks.cpg/sg15_42_cif.got.tgz:82720.got - 2010.06.03 18:47:42.
