data_PCOD9295990
_publ_section_title
;
Structure prediction by ZEFSAII (Michael W. Deem and Ramdas Pophale) SiO2 
 PCOD9295990
Probable space group: C 2/C
;
_chemical_formula_sum "Si O2"
_cell_formula_units_Z 56
_cell_length_a 17.961916
_cell_length_b 12.973102
_cell_length_c 20.481839
_cell_angle_alpha 90.000000
_cell_angle_beta 151.538876
_cell_angle_gamma 90.000000
_cell_volume 2274.496014
_symmetry_space_group_name_H-M "C 2/C"
_symmetry_group_IT_number 15
_symmetry_cell_setting 'monoclinic'
loop_
_space_group_symop_operation_xyz
x,y,z
-x,y,1/2-z
-x,-y,-z
x,-y,1/2+z
1/2+x,1/2+y,z
1/2-x,1/2+y,1/2-z
1/2-x,1/2-y,-z
1/2+x,1/2-y,1/2+z
loop_
_atom_site_type_symbol
_atom_site_label
_atom_site_fract_x
_atom_site_fract_y
_atom_site_fract_z
Si Si1 0.848500 0.164335 0.158922
Si Si2 0.907211 0.845717 0.979775
Si Si3 0.158414 0.529331 0.208096
Si Si4 0.836714 0.630511 0.991422
Si Si5 0.878463 0.019097 0.765881
Si Si6 0.324941 0.960493 0.084665
Si Si7 0.804380 0.847704 0.391563
O O1 0.761291 0.237662 0.141142
O O2 0.000000 0.225918 0.250000
O O3 0.932284 0.070560 0.260340
O O4 0.723452 0.116483 0.011964
O O5 0.881492 0.747802 0.007419
O O6 0.999693 0.931228 0.091825
O O7 0.026117 0.831254 0.010081
O O8 0.750684 0.893385 0.828234
O O9 0.239633 0.532320 0.200851
O O10 0.195250 0.412258 0.258078
O O11 0.980828 0.561998 0.075653
O O12 0.805202 0.576607 0.038114
O O13 0.688309 0.607224 0.832231
O O14 0.500000 0.959454 0.250000
O O15 0.217526 0.915504 0.059895
#
# Coordination Sequence:
#
# PCOD9295990 Si02
#       7
#     8   8   8   8   8   8   8
#     4  11  26  41  72 103 142 182 235 292 357 431
#     4  11  25  45  73 103 140 187 239 298 356 422
#     4  11  23  42  73  95 142 184 232 297 354 428
#     4  11  23  44  70 101 142 185 244 289 358 429
#     4  10  23  44  64 106 142 179 234 298 352 418
#     4  11  24  47  68 100 142 189 232 293 361 437
#     4  11  23  44  69 103 140 183 235 292 362 425
#
# _framework density 24.620837000000002
#
# number of rings (size 3 to 8) (size 9 to 14) (size 15 to 20)
#    0.000    1.143    1.429    4.714    4.000    2.286 
#    2.571    1.429    0.000    0.000    0.000    0.000 
#    0.000    0.000    0.000    0.000    0.000    0.000 
#
# Total GULP energy -156511.992754 kJ/mol
# GULP energy per Si atom -5589.714027 kJ/mol
# Density = 2.456480 g / cm^3
# Si number density = 24.620837 Si / 1000 Ang^3
#
#
#
# Elastic Constant Matrix: (Units=GPa)
#
#
# Indices 1 2 3 4 5 6 
#
# 1 90.7419 63.2722 14.5327 -0.0003 -13.6100 -0.0003
# 2 63.2722 118.5481 22.2987 -0.0002 5.3160 0.0001
# 3 14.5327 22.2987 111.5381 -0.0003 -7.0038 0.0001
# 4 -0.0003 -0.0002 -0.0003 14.8606 0.0000 7.0587
# 5 -13.6100 5.3160 -7.0038 0.0000 22.6956 0.0003
# 6 -0.0003 0.0001 0.0001 7.0587 0.0003 40.1996
#
#
#
# Elastic Compliance Matrix: (Units=1/GPa)
#
#
# Indices 1 2 3 4 5 6 
#
# 1 0.022308 -0.012780 0.000690 0.000000 0.016584 0.000000
# 2 -0.012780 0.016245 -0.002348 0.000000 -0.012193 0.000000
# 3 0.000690 -0.002348 0.009592 0.000000 0.003924 0.000000
# 4 0.000000 0.000000 0.000000 0.073415 0.000000 -0.012891
# 5 0.016584 -0.012193 0.003924 0.000000 0.058073 0.000000
# 6 0.000000 0.000000 0.000000 -0.012891 0.000000 0.027139
#
#
# Mechanical properties :
#
#
# Convention : Reuss Voigt Hill
#
# Bulk Modulus (GPa) = 51.89999 57.89281 54.89640
# Shear Modulus (GPa) = 20.65502 30.26612 25.46057
#
# Velocity S-wave (km/s) = 2.89956 3.50993 3.21924
# Velocity P-wave (km/s) = 5.68642 6.32384 6.01358
#
# Compressibility (1/GPa) = 0.01926783
#
# Stress axis : x y z
#
# Youngs Moduli (GPa) = 44.82630 61.55795 104.25893
#
# Poissons Ratio (x) = 0.78671 -0.07191
# Poissons Ratio (y) = 0.57288 0.24482
# Poissons Ratio (z) = -0.03092 0.14455
#
# Static dielectric constant tensor:
#      x y z
#    x 2.039520 0.000000 0.006020 
#    y 0.000000 1.942290 0.000000 
#    z 0.006020 0.000000 1.931600 
# 
# From -- ./inp_files/249292.got.cif
#   From: 2010.05.17/outbox.cif.g08.bks.cpg/sg15_125_cif.got.tgz:249292.got - 2010.06.03 18:47:42.
