data_PCOD9295232
_publ_section_title
;
Structure prediction by ZEFSAII (Michael W. Deem and Ramdas Pophale) SiO2 
 PCOD9295232
Probable space group: C 2/C
;
_chemical_formula_sum "Si O2"
_cell_formula_units_Z 48
_cell_length_a 27.157210
_cell_length_b 12.638786
_cell_length_c 11.503790
_cell_angle_alpha 90.000000
_cell_angle_beta 31.070862
_cell_angle_gamma 90.000000
_cell_volume 2037.808959
_symmetry_space_group_name_H-M "C 2/C"
_symmetry_group_IT_number 15
_symmetry_cell_setting 'monoclinic'
loop_
_space_group_symop_operation_xyz
x,y,z
-x,y,1/2-z
-x,-y,-z
x,-y,1/2+z
1/2+x,1/2+y,z
1/2-x,1/2+y,1/2-z
1/2-x,1/2-y,-z
1/2+x,1/2-y,1/2+z
loop_
_atom_site_type_symbol
_atom_site_label
_atom_site_fract_x
_atom_site_fract_y
_atom_site_fract_z
Si Si1 0.415489 0.587945 0.829319
Si Si2 0.775501 0.843406 0.287601
Si Si3 0.597447 0.784344 0.799259
Si Si4 0.554947 0.864682 0.255318
Si Si5 0.144120 0.144177 0.115514
Si Si6 0.275119 0.583565 0.310001
O O1 0.500000 0.584337 0.750000
O O2 0.438651 0.677480 0.689295
O O3 0.400556 0.471656 0.808631
O O4 0.319721 0.617517 0.096263
O O5 0.675376 0.828872 0.552980
O O6 0.846426 0.756161 0.199015
O O7 0.775759 0.844115 0.147551
O O8 0.808585 0.961754 0.255261
O O9 0.519192 0.872017 0.988387
O O10 0.500000 0.896338 0.250000
O O11 0.572810 0.737599 0.225909
O O12 0.660575 0.912153 0.045767
O O13 0.184619 0.149700 0.163297
#
# Coordination Sequence:
#
# PCOD9295232 Si02
#       6
#     8   8   8   8   8   8
#     4  11  24  40  68  99 133 170 222 280 333 387
#     4  10  23  42  67  91 129 181 216 270 327 394
#     4  11  23  42  65  92 132 173 226 263 329 401
#     4  12  25  40  66  99 136 176 221 273 337 400
#     4  11  22  42  66  96 133 169 226 274 336 388
#     4  11  25  43  67 101 133 173 221 283 327 395
#
# _framework density 23.55471
#
# number of rings (size 3 to 8) (size 9 to 14) (size 15 to 20)
#    0.000    1.000    3.333    3.000    4.667    3.333 
#    0.000    0.833    0.000    0.000    0.000    0.000 
#    0.000    0.000    0.000    0.000    0.000    0.000 
#
# Total GULP energy -134282.943897 kJ/mol
# GULP energy per Si atom -5595.122662 kJ/mol
# Density = 2.350110 g / cm^3
# Si number density = 23.554710 Si / 1000 Ang^3
#
#
#
# Elastic Constant Matrix: (Units=GPa)
#
#
# Indices 1 2 3 4 5 6 
#
# 1 76.8057 -0.1228 -1.1090 0.0000 -9.3096 0.0000
# 2 -0.1228 53.8545 -5.3583 0.0000 7.6657 0.0000
# 3 -1.1090 -5.3583 112.1242 0.0000 -4.4635 0.0000
# 4 0.0000 0.0000 0.0000 23.3073 0.0000 0.3053
# 5 -9.3096 7.6657 -4.4635 0.0000 35.6006 0.0000
# 6 0.0000 0.0000 0.0000 0.3053 0.0000 22.9897
#
#
#
# Elastic Compliance Matrix: (Units=1/GPa)
#
#
# Indices 1 2 3 4 5 6 
#
# 1 0.013466 -0.000464 0.000256 0.000000 0.003653 0.000000
# 2 -0.000464 0.019235 0.000749 0.000000 -0.004169 0.000000
# 3 0.000256 0.000749 0.008998 0.000000 0.001034 0.000000
# 4 0.000000 0.000000 0.000000 0.042913 0.000000 -0.000570
# 5 0.003653 -0.004169 0.001034 0.000000 0.030072 0.000000
# 6 0.000000 0.000000 0.000000 -0.000570 0.000000 0.043505
#
#
# Mechanical properties :
#
#
# Convention : Reuss Voigt Hill
#
# Bulk Modulus (GPa) = 23.37434 25.51158 24.44296
# Shear Modulus (GPa) = 29.17713 33.00449 31.09081
#
# Velocity S-wave (km/s) = 3.52333 3.74730 3.63704
# Velocity P-wave (km/s) = 5.14750 5.43850 5.29500
#
# Compressibility (1/GPa) = 0.04278195
#
# Stress axis : x y z
#
# Youngs Moduli (GPa) = 74.26312 51.98734 111.13387
#
# Poissons Ratio (x) = 0.02411 -0.02850
# Poissons Ratio (y) = 0.03444 -0.08320
# Poissons Ratio (z) = -0.01904 -0.03892
#
# Static dielectric constant tensor:
#      x y z
#    x 1.855220 0.000000 0.026290 
#    y 0.000000 1.902990 0.000000 
#    z 0.026290 0.000000 1.985240 
# 
# From -- ./inp_files/96380.got.cif
#   From: 2010.05.17/outbox.cif.g08.bks.cpg/sg15_49_cif.got.tgz:96380.got - 2010.06.03 18:47:42.
