data_PCOD9295780
_publ_section_title
;
Structure prediction by ZEFSAII (Michael W. Deem and Ramdas Pophale) SiO2 
 PCOD9295780
Probable space group: C 2/C
;
_chemical_formula_sum "Si O2"
_cell_formula_units_Z 56
_cell_length_a 18.118817
_cell_length_b 15.233534
_cell_length_c 21.553615
_cell_angle_alpha 90.000000
_cell_angle_beta 152.466923
_cell_angle_gamma 90.000000
_cell_volume 2750.030521
_symmetry_space_group_name_H-M "C 2/C"
_symmetry_group_IT_number 15
_symmetry_cell_setting 'monoclinic'
loop_
_space_group_symop_operation_xyz
x,y,z
-x,y,1/2-z
-x,-y,-z
x,-y,1/2+z
1/2+x,1/2+y,z
1/2-x,1/2+y,1/2-z
1/2-x,1/2-y,-z
1/2+x,1/2-y,1/2+z
loop_
_atom_site_type_symbol
_atom_site_label
_atom_site_fract_x
_atom_site_fract_y
_atom_site_fract_z
Si Si1 0.500000 0.079370 0.250000
Si Si2 0.000000 0.881071 0.250000
Si Si3 0.583513 0.793545 0.132532
Si Si4 0.895576 0.316354 0.867265
Si Si5 0.741817 0.986029 0.507808
Si Si6 0.431567 0.236154 0.112880
Si Si7 0.087860 0.197070 0.380666
Si Si8 0.454419 0.987845 0.393614
O O1 0.650889 0.019248 0.378388
O O2 0.502065 0.147781 0.195259
O O3 0.853442 0.940253 0.120689
O O4 0.030097 0.816755 0.214663
O O5 0.740788 0.738885 0.233421
O O6 0.512399 0.739609 0.138025
O O7 0.634985 0.895254 0.182487
O O8 0.446258 0.804544 0.977165
O O9 0.872039 0.416835 0.826320
O O10 0.046646 0.276266 0.943096
O O11 0.854169 0.904112 0.574573
O O12 0.603945 0.974288 0.457598
O O13 0.250000 0.250000 0.000000
O O14 0.250000 0.250000 0.500000
O O15 0.000000 0.209359 0.250000
O O16 0.500000 0.000000 0.500000
#
# Coordination Sequence:
#
# PCOD9295780 Si02
#       8
#     4   4   8   8   8   8   8   8
#     4  11  24  38  65 104 136 170 231 286 354 397
#     4  11  24  38  67  98 132 172 239 280 354 411
#     4  11  26  46  68 102 137 184 234 288 354 417
#     4  11  25  44  71  98 143 185 228 286 361 425
#     4  12  24  43  68 100 135 183 229 299 344 422
#     4  11  23  41  69 100 141 181 236 288 351 422
#     4  12  26  46  74 101 138 181 242 299 348 415
#     4  10  23  43  69  92 137 183 229 267 362 422
#
# _framework density 20.363412
#
# number of rings (size 3 to 8) (size 9 to 14) (size 15 to 20)
#    0.000    0.857    5.000    0.857   11.000    1.143 
#    0.000    0.714    0.000    0.000    0.000    0.000 
#    0.000    0.000    0.000    0.000    0.000    0.000 
#
# Total GULP energy -156020.509505 kJ/mol
# GULP energy per Si atom -5572.161054 kJ/mol
# Density = 2.031706 g / cm^3
# Si number density = 20.363412 Si / 1000 Ang^3
#
#
#
# Elastic Constant Matrix: (Units=GPa)
#
#
# Indices 1 2 3 4 5 6 
#
# 1 85.1281 51.9879 12.0301 -0.0001 -1.3878 -0.0001
# 2 51.9879 171.5030 51.2698 0.0023 0.1508 0.0014
# 3 12.0301 51.2698 102.8948 0.0020 -6.6123 0.0014
# 4 -0.0001 0.0023 0.0020 46.5292 0.0014 -1.2077
# 5 -1.3878 0.1508 -6.6123 0.0014 28.9416 0.0008
# 6 -0.0001 0.0014 0.0014 -1.2077 0.0008 20.5201
#
#
#
# Elastic Compliance Matrix: (Units=1/GPa)
#
#
# Indices 1 2 3 4 5 6 
#
# 1 0.014466 -0.004579 0.000646 0.000000 0.000865 0.000000
# 2 -0.004579 0.008320 -0.003681 0.000000 -0.001104 0.000000
# 3 0.000646 -0.003681 0.011652 0.000000 0.002712 -0.000001
# 4 0.000000 0.000000 0.000000 0.021525 -0.000001 0.001267
# 5 0.000865 -0.001104 0.002712 -0.000001 0.035219 -0.000002
# 6 0.000000 0.000000 -0.000001 0.001267 -0.000002 0.048807
#
#
# Mechanical properties :
#
#
# Convention : Reuss Voigt Hill
#
# Bulk Modulus (GPa) = 52.05817 65.56683 58.81250
# Shear Modulus (GPa) = 30.93644 35.48075 33.20859
#
# Velocity S-wave (km/s) = 3.90194 4.17871 4.04269
# Velocity P-wave (km/s) = 6.77645 7.45321 7.12287
#
# Compressibility (1/GPa) = 0.01920928
#
# Stress axis : x y z
#
# Youngs Moduli (GPa) = 69.12648 120.18740 85.82373
#
# Poissons Ratio (x) = 0.55034 -0.05543
# Poissons Ratio (y) = 0.31653 0.31595
# Poissons Ratio (z) = -0.04465 0.44246
#
# Static dielectric constant tensor:
#      x y z
#    x 1.817240 0.000030 0.084800 
#    y 0.000030 1.903590 0.000020 
#    z 0.084800 0.000020 1.730800 
# 
# From -- ./inp_files/249306.got.cif
#   From: 2010.05.17/outbox.cif.g08.bks.cpg/sg15_125_cif.got.tgz:249306.got - 2010.06.03 18:47:42.
