data_PCOD9295933
_publ_section_title
;
Structure prediction by ZEFSAII (Michael W. Deem and Ramdas Pophale) SiO2 
 PCOD9295933
Probable space group: C 2/C
;
_chemical_formula_sum "Si O2"
_cell_formula_units_Z 36
_cell_length_a 6.904622
_cell_length_b 18.051727
_cell_length_c 14.832411
_cell_angle_alpha 90.000000
_cell_angle_beta 135.642294
_cell_angle_gamma 90.000000
_cell_volume 1292.504086
_symmetry_space_group_name_H-M "C 2/C"
_symmetry_group_IT_number 15
_symmetry_cell_setting 'monoclinic'
loop_
_space_group_symop_operation_xyz
x,y,z
-x,y,1/2-z
-x,-y,-z
x,-y,1/2+z
1/2+x,1/2+y,z
1/2-x,1/2+y,1/2-z
1/2-x,1/2-y,-z
1/2+x,1/2-y,1/2+z
loop_
_atom_site_type_symbol
_atom_site_label
_atom_site_fract_x
_atom_site_fract_y
_atom_site_fract_z
Si Si1 0.214120 0.838314 0.495414
Si Si2 0.500000 0.702042 0.750000
Si Si3 0.982706 0.190015 0.089832
Si Si4 0.977964 0.472640 0.649752
Si Si5 0.462379 0.529548 0.148028
O O1 0.250000 0.750000 0.500000
O O2 0.115497 0.854175 0.363323
O O3 0.454525 0.883931 0.621128
O O4 0.977404 0.847780 0.489102
O O5 0.746978 0.757885 0.803045
O O6 0.936708 0.119969 0.136385
O O7 0.750000 0.250000 0.000000
O O8 0.753369 0.501648 0.500571
O O9 0.774396 0.482215 0.682583
O O10 0.275990 0.489447 0.685871
#
# Coordination Sequence:
#
# PCOD9295933 Si02
#       5
#     8   4   8   8   8
#     4  10  23  43  74 101 140 189 238 298 369 425
#     4  10  24  44  72 106 148 186 242 306 368 430
#     4  11  25  44  72 109 145 190 242 305 369 439
#     4  12  26  51  73 103 147 198 242 302 366 436
#     4  12  28  47  75 107 148 192 248 303 363 437
#
# _framework density 27.852909
#
# number of rings (size 3 to 8) (size 9 to 14) (size 15 to 20)
#    0.000    0.889    2.222    4.000   12.444    1.778 
#    0.000    0.000    0.000    0.000    0.000    0.000 
#    0.000    0.000    0.000    0.000    0.000    0.000 
#
# Total GULP energy -100241.911862 kJ/mol
# GULP energy per Si atom -5568.995103 kJ/mol
# Density = 2.778951 g / cm^3
# Si number density = 27.852909 Si / 1000 Ang^3
#
#
#
# Elastic Constant Matrix: (Units=GPa)
#
#
# Indices 1 2 3 4 5 6 
#
# 1 173.7414 45.2130 128.4008 0.0000 -10.1295 0.0000
# 2 45.2130 108.9754 94.0822 0.0000 -4.0165 0.0000
# 3 128.4008 94.0822 306.2114 0.0001 -13.9011 0.0001
# 4 0.0000 0.0000 0.0001 74.0498 0.0001 3.9706
# 5 -10.1295 -4.0165 -13.9011 0.0001 115.8859 0.0000
# 6 0.0000 0.0000 0.0001 3.9706 0.0000 41.9583
#
#
#
# Elastic Compliance Matrix: (Units=1/GPa)
#
#
# Indices 1 2 3 4 5 6 
#
# 1 0.008381 -0.000604 -0.003314 0.000000 0.000314 0.000000
# 2 -0.000604 0.012533 -0.003600 0.000000 -0.000050 0.000000
# 3 -0.003314 -0.003600 0.005774 0.000000 0.000278 0.000000
# 4 0.000000 0.000000 0.000000 0.013573 0.000000 -0.001284
# 5 0.000314 -0.000050 0.000278 0.000000 0.008688 0.000000
# 6 0.000000 0.000000 0.000000 -0.001284 0.000000 0.023955
#
#
# Mechanical properties :
#
#
# Convention : Reuss Voigt Hill
#
# Bulk Modulus (GPa) = 85.82634 124.92447 105.37541
# Shear Modulus (GPa) = 54.45221 67.79428 61.12324
#
# Velocity S-wave (km/s) = 4.42633 4.93892 4.68963
# Velocity P-wave (km/s) = 7.55011 8.80186 8.19991
#
# Compressibility (1/GPa) = 0.01165143
#
# Stress axis : x y z
#
# Youngs Moduli (GPa) = 119.32374 79.79023 173.18832
#
# Poissons Ratio (x) = 0.04820 0.57399
# Poissons Ratio (y) = 0.07209 0.62341
# Poissons Ratio (z) = 0.39547 0.28722
#
# Static dielectric constant tensor:
#      x y z
#    x 2.757480 0.000000 -0.043560 
#    y 0.000000 2.253080 0.000000 
#    z -0.043560 0.000000 2.303260 
# 
# From -- ./inp_files/191841.got.cif
#   From: 2010.05.17/outbox.cif.g08.bks.cpg/sg15_96_cif.got.tgz:191841.got - 2010.06.03 18:47:42.
