data_PCOD9295834
_publ_section_title
;
Structure prediction by ZEFSAII (Michael W. Deem and Ramdas Pophale) SiO2 
 PCOD9295834
Probable space group: C 2/C
;
_chemical_formula_sum "Si O2"
_cell_formula_units_Z 40
_cell_length_a 28.186382
_cell_length_b 8.697590
_cell_length_c 10.668294
_cell_angle_alpha 90.000000
_cell_angle_beta 133.603040
_cell_angle_gamma 90.000000
_cell_volume 1893.882110
_symmetry_space_group_name_H-M "C 2/C"
_symmetry_group_IT_number 15
_symmetry_cell_setting 'monoclinic'
loop_
_space_group_symop_operation_xyz
x,y,z
-x,y,1/2-z
-x,-y,-z
x,-y,1/2+z
1/2+x,1/2+y,z
1/2-x,1/2+y,1/2-z
1/2-x,1/2-y,-z
1/2+x,1/2-y,1/2+z
loop_
_atom_site_type_symbol
_atom_site_label
_atom_site_fract_x
_atom_site_fract_y
_atom_site_fract_z
Si Si1 0.180512 0.669308 0.366610
Si Si2 0.853139 0.477020 0.946090
Si Si3 0.535874 0.138582 0.494994
Si Si4 0.941533 0.897828 0.318320
Si Si5 0.571184 0.704547 0.312648
O O1 0.250000 0.750000 0.500000
O O2 0.172562 0.570408 0.480725
O O3 0.182357 0.552301 0.251378
O O4 0.121957 0.800602 0.244972
O O5 0.917650 0.568454 0.022483
O O6 0.874636 0.305392 0.022237
O O7 0.484203 0.257726 0.349668
O O8 0.571657 0.227972 0.672951
O O9 0.500000 0.000000 0.500000
O O10 0.916918 0.022891 0.174358
O O11 0.000000 0.000000 0.500000
O O12 0.500000 0.728178 0.250000
#
# Coordination Sequence:
#
# PCOD9295834 Si02
#       5
#     8   8   8   8   8
#     4  12  29  52  74 106 150 205 256 306 381 468
#     4  12  24  48  75 104 149 202 248 303 380 462
#     4  11  19  39  70 107 143 189 241 306 374 447
#     4  10  23  43  70 113 150 184 248 320 377 436
#     4  11  21  36  68 110 151 185 240 309 379 442
#
# _framework density 21.120639000000001
#
# number of rings (size 3 to 8) (size 9 to 14) (size 15 to 20)
#    0.000    0.800    6.000    1.200    2.800    1.600 
#    7.200    2.000    0.000    0.000    0.000    0.000 
#    0.000    0.000    0.000    0.000    0.000    0.000 
#
# Total GULP energy -111363.085207 kJ/mol
# GULP energy per Si atom -5568.154260 kJ/mol
# Density = 2.107257 g / cm^3
# Si number density = 21.120639 Si / 1000 Ang^3
#
#
#
# Elastic Constant Matrix: (Units=GPa)
#
#
# Indices 1 2 3 4 5 6 
#
# 1 117.1568 65.4160 69.3044 0.0000 -21.7499 0.0000
# 2 65.4160 154.5541 52.6269 0.0000 -6.0613 0.0000
# 3 69.3044 52.6269 79.0020 0.0000 -2.2922 0.0000
# 4 0.0000 0.0000 0.0000 20.5347 0.0000 -18.5044
# 5 -21.7499 -6.0613 -2.2922 0.0000 30.2986 0.0000
# 6 0.0000 0.0000 0.0000 -18.5044 0.0000 25.6325
#
#
#
# Elastic Compliance Matrix: (Units=1/GPa)
#
#
# Indices 1 2 3 4 5 6 
#
# 1 0.024249 -0.003324 -0.018613 0.000000 0.015334 0.000000
# 2 -0.003324 0.008872 -0.003018 0.000000 -0.000840 0.000000
# 3 -0.018613 -0.003018 0.030659 0.000000 -0.011646 0.000000
# 4 0.000000 0.000000 0.000000 0.139351 0.000000 0.100599
# 5 0.015334 -0.000840 -0.011646 0.000000 0.042963 0.000000
# 6 0.000000 0.000000 0.000000 0.100599 0.000000 0.111637
#
#
# Mechanical properties :
#
#
# Convention : Reuss Voigt Hill
#
# Bulk Modulus (GPa) = 72.10423 80.60083 76.35253
# Shear Modulus (GPa) = 12.12810 26.18418 19.15614
#
# Velocity S-wave (km/s) = 2.39891 3.52482 3.01489
# Velocity P-wave (km/s) = 6.47197 7.40343 6.95331
#
# Compressibility (1/GPa) = 0.01386881
#
# Stress axis : x y z
#
# Youngs Moduli (GPa) = 41.23857 112.71359 32.61695
#
# Poissons Ratio (x) = 0.37470 0.60710
# Poissons Ratio (y) = 0.13709 0.09844
# Poissons Ratio (z) = 0.76758 0.34019
#
# Static dielectric constant tensor:
#      x y z
#    x 1.751630 0.000000 -0.047680 
#    y 0.000000 2.076740 0.000000 
#    z -0.047680 0.000000 1.816570 
# 
# From -- ./inp_files/125738.got.cif
#   From: 2010.05.17/outbox.cif.g08.bks.cpg/sg15_63_cif.got.tgz:125738.got - 2010.06.03 18:47:42.
