data_PCOD9295345
_publ_section_title
;
Structure prediction by ZEFSAII (Michael W. Deem and Ramdas Pophale) SiO2 
 PCOD9295345
Probable space group: C 2/C
;
_chemical_formula_sum "Si O2"
_cell_formula_units_Z 40
_cell_length_a 31.751900
_cell_length_b 7.527660
_cell_length_c 24.153311
_cell_angle_alpha 90.000000
_cell_angle_beta 162.590557
_cell_angle_gamma 90.000000
_cell_volume 1727.289595
_symmetry_space_group_name_H-M "C 2/C"
_symmetry_group_IT_number 15
_symmetry_cell_setting 'monoclinic'
loop_
_space_group_symop_operation_xyz
x,y,z
-x,y,1/2-z
-x,-y,-z
x,-y,1/2+z
1/2+x,1/2+y,z
1/2-x,1/2+y,1/2-z
1/2-x,1/2-y,-z
1/2+x,1/2-y,1/2+z
loop_
_atom_site_type_symbol
_atom_site_label
_atom_site_fract_x
_atom_site_fract_y
_atom_site_fract_z
Si Si1 0.995121 0.200642 0.065271
Si Si2 0.363770 0.951199 0.748694
Si Si3 0.505953 0.148221 0.193958
Si Si4 0.191388 0.091580 0.760445
Si Si5 0.454706 0.560143 0.134282
O O1 0.020808 0.407498 0.087416
O O2 0.119498 0.086618 0.192699
O O3 0.995732 0.166918 0.131395
O O4 0.853857 0.127108 0.859425
O O5 0.375821 0.930219 0.697476
O O6 0.376868 0.756522 0.791315
O O7 0.212131 0.027658 0.573962
O O8 0.500000 0.089467 0.250000
O O9 0.520328 0.362039 0.212501
O O10 0.356274 0.100648 0.978529
O O11 0.500000 0.639698 0.250000
#
# Coordination Sequence:
#
# PCOD9295345 Si02
#       5
#     8   8   8   8   8
#     4  11  24  42  66  95 130 170 219 272 325 379
#     4  11  24  43  67  96 129 176 218 265 327 386
#     4  10  23  42  69  94 133 177 215 267 326 384
#     4  10  24  44  64  94 131 171 217 272 323 383
#     4  10  24  43  67  98 132 172 219 271 319 391
#
# _framework density 23.157668000000001
#
# number of rings (size 3 to 8) (size 9 to 14) (size 15 to 20)
#    0.000    1.600    2.000    0.600    5.600    8.800 
#    0.000    0.000    0.000    0.000    0.000    0.000 
#    0.000    0.000    0.000    0.000    0.000    0.000 
#
# Total GULP energy -111954.017393 kJ/mol
# GULP energy per Si atom -5597.700870 kJ/mol
# Density = 2.310496 g / cm^3
# Si number density = 23.157668 Si / 1000 Ang^3
#
#
#
# Elastic Constant Matrix: (Units=GPa)
#
#
# Indices 1 2 3 4 5 6 
#
# 1 87.8375 23.5371 2.0728 -0.0001 -21.4808 0.0000
# 2 23.5371 88.4363 6.6358 -0.0002 3.4413 -0.0001
# 3 2.0728 6.6358 53.4612 -0.0001 -16.8579 -0.0001
# 4 -0.0001 -0.0002 -0.0001 48.8134 -0.0002 13.6503
# 5 -21.4808 3.4413 -16.8579 -0.0002 35.4458 -0.0001
# 6 0.0000 -0.0001 -0.0001 13.6503 -0.0001 25.2104
#
#
#
# Elastic Compliance Matrix: (Units=1/GPa)
#
#
# Indices 1 2 3 4 5 6 
#
# 1 0.015414 -0.004825 0.003640 0.000000 0.011541 0.000000
# 2 -0.004825 0.013058 -0.003242 0.000000 -0.005733 0.000000
# 3 0.003640 -0.003242 0.023248 0.000000 0.013577 0.000000
# 4 0.000000 0.000000 0.000000 0.024142 0.000000 -0.013072
# 5 0.011541 -0.005733 0.013577 0.000000 0.042220 0.000000
# 6 0.000000 0.000000 0.000000 -0.013072 0.000000 0.046744
#
#
# Mechanical properties :
#
#
# Convention : Reuss Voigt Hill
#
# Bulk Modulus (GPa) = 23.32746 32.69182 28.00964
# Shear Modulus (GPa) = 26.60057 35.05987 30.83022
#
# Velocity S-wave (km/s) = 3.39288 3.89519 3.65268
# Velocity P-wave (km/s) = 5.04421 5.86325 5.46908
#
# Compressibility (1/GPa) = 0.04286793
#
# Stress axis : x y z
#
# Youngs Moduli (GPa) = 64.87656 76.58163 43.01496
#
# Poissons Ratio (x) = 0.36948 -0.15659
# Poissons Ratio (y) = 0.31300 0.13944
# Poissons Ratio (z) = -0.23618 0.24825
#
# Static dielectric constant tensor:
#      x y z
#    x 1.866260 0.000000 -0.021550 
#    y 0.000000 1.862320 0.000000 
#    z -0.021550 0.000000 1.857700 
# 
# From -- ./inp_files/102814.got.cif
#   From: 2010.05.17/outbox.cif.g08.bks.cpg/sg15_52_cif.got.tgz:102814.got - 2010.06.03 18:47:42.
