data_PCOD9295360
_publ_section_title
;
Structure prediction by ZEFSAII (Michael W. Deem and Ramdas Pophale) SiO2 
 PCOD9295360
Probable space group: C 2/C
;
_chemical_formula_sum "Si O2"
_cell_formula_units_Z 52
_cell_length_a 9.667091
_cell_length_b 21.117313
_cell_length_c 15.063968
_cell_angle_alpha 90.000000
_cell_angle_beta 126.015315
_cell_angle_gamma 90.000000
_cell_volume 2487.408580
_symmetry_space_group_name_H-M "C 2/C"
_symmetry_group_IT_number 15
_symmetry_cell_setting 'monoclinic'
loop_
_space_group_symop_operation_xyz
x,y,z
-x,y,1/2-z
-x,-y,-z
x,-y,1/2+z
1/2+x,1/2+y,z
1/2-x,1/2+y,1/2-z
1/2-x,1/2-y,-z
1/2+x,1/2-y,1/2+z
loop_
_atom_site_type_symbol
_atom_site_label
_atom_site_fract_x
_atom_site_fract_y
_atom_site_fract_z
Si Si1 0.086488 0.974706 0.876384
Si Si2 0.789024 0.303777 0.087994
Si Si3 0.288184 0.613210 0.561178
Si Si4 0.000000 0.784172 0.250000
Si Si5 0.411848 0.112174 0.489552
Si Si6 0.755459 0.291442 0.785291
Si Si7 0.065893 0.870218 0.566487
O O1 0.277164 0.944860 0.949242
O O2 0.000000 0.958742 0.750000
O O3 0.976732 0.939283 0.910364
O O4 0.097946 0.049891 0.889480
O O5 0.825620 0.266572 0.191381
O O6 0.750000 0.250000 0.000000
O O7 0.916075 0.351425 0.085759
O O8 0.612020 0.341819 0.036028
O O9 0.367633 0.670111 0.648525
O O10 0.296698 0.630892 0.460341
O O11 0.100291 0.597380 0.526413
O O12 0.904535 0.739499 0.283569
O O13 0.328996 0.159160 0.384859
O O14 0.626642 0.326999 0.671242
#
# Coordination Sequence:
#
# PCOD9295360 Si02
#       7
#     8   8   8   4   8   8   8
#     4  11  22  46  71  95 127 177 229 273 323 387
#     4   9  21  38  60  96 130 169 213 264 322 389
#     4  12  25  44  65  98 137 174 219 275 334 391
#     4  12  26  38  62  98 144 174 202 278 344 388
#     4  10  23  42  69  98 128 175 223 273 331 383
#     4  11  22  40  64  98 133 171 226 259 322 413
#     4  11  23  42  71  93 130 181 221 269 327 393
#
# _framework density 20.905290000000001
#
# number of rings (size 3 to 8) (size 9 to 14) (size 15 to 20)
#    0.000    1.231    3.846    1.846    4.308    1.231 
#    0.000    0.000    0.000    0.000    0.000    0.000 
#    0.000    0.000    0.000    0.000    0.000    0.000 
#
# Total GULP energy -145344.679014 kJ/mol
# GULP energy per Si atom -5590.179962 kJ/mol
# Density = 2.085771 g / cm^3
# Si number density = 20.905290 Si / 1000 Ang^3
#
#
#
# Elastic Constant Matrix: (Units=GPa)
#
#
# Indices 1 2 3 4 5 6 
#
# 1 91.5102 -3.6383 8.7562 0.0000 -15.0582 0.0000
# 2 -3.6383 66.3228 3.4906 0.0000 -5.6678 0.0000
# 3 8.7562 3.4906 50.6883 0.0000 -10.8571 0.0000
# 4 0.0000 0.0000 0.0000 26.3550 0.0000 -1.6849
# 5 -15.0582 -5.6678 -10.8571 0.0000 31.0915 0.0000
# 6 0.0000 0.0000 0.0000 -1.6849 0.0000 29.0487
#
#
#
# Elastic Compliance Matrix: (Units=1/GPa)
#
#
# Indices 1 2 3 4 5 6 
#
# 1 0.012003 0.001195 -0.000934 0.000000 0.005705 0.000000
# 2 0.001195 0.015447 -0.000587 0.000000 0.003190 0.000000
# 3 -0.000934 -0.000587 0.021412 0.000000 0.006918 0.000000
# 4 0.000000 0.000000 0.000000 0.038085 0.000000 0.002209
# 5 0.005705 0.003190 0.006918 0.000000 0.037923 0.000000
# 6 0.000000 0.000000 0.000000 0.002209 0.000000 0.034553
#
#
# Mechanical properties :
#
#
# Convention : Reuss Voigt Hill
#
# Bulk Modulus (GPa) = 20.74218 25.08202 22.91210
# Shear Modulus (GPa) = 28.38574 30.62657 29.50615
#
# Velocity S-wave (km/s) = 3.68887 3.83170 3.76096
# Velocity P-wave (km/s) = 5.29973 5.62138 5.46292
#
# Compressibility (1/GPa) = 0.04821095
#
# Stress axis : x y z
#
# Youngs Moduli (GPa) = 83.30959 64.73827 46.70297
#
# Poissons Ratio (x) = -0.07737 0.04361
# Poissons Ratio (y) = -0.09957 0.02741
# Poissons Ratio (z) = 0.07780 0.03800
#
# Static dielectric constant tensor:
#      x y z
#    x 1.755460 0.000000 0.000940 
#    y 0.000000 1.736690 0.000000 
#    z 0.000940 0.000000 1.758400 
# 
# From -- ./inp_files/136008.got.cif
#   From: 2010.05.17/outbox.cif.g08.bks.cpg/sg15_69_cif.got.tgz:136008.got - 2010.06.03 18:47:42.
