data_PCOD9295310
_publ_section_title
;
Structure prediction by ZEFSAII (Michael W. Deem and Ramdas Pophale) SiO2 
 PCOD9295310
Probable space group: C 2/C
;
_chemical_formula_sum "Si O2"
_cell_formula_units_Z 48
_cell_length_a 10.072494
_cell_length_b 24.641887
_cell_length_c 16.081027
_cell_angle_alpha 90.000000
_cell_angle_beta 33.623181
_cell_angle_gamma 90.000000
_cell_volume 2210.149392
_symmetry_space_group_name_H-M "C 2/C"
_symmetry_group_IT_number 15
_symmetry_cell_setting 'monoclinic'
loop_
_space_group_symop_operation_xyz
x,y,z
-x,y,1/2-z
-x,-y,-z
x,-y,1/2+z
1/2+x,1/2+y,z
1/2-x,1/2+y,1/2-z
1/2-x,1/2-y,-z
1/2+x,1/2-y,1/2+z
loop_
_atom_site_type_symbol
_atom_site_label
_atom_site_fract_x
_atom_site_fract_y
_atom_site_fract_z
Si Si1 0.254489 0.334231 0.164509
Si Si2 0.049133 0.629171 0.933412
Si Si3 0.500000 0.170980 0.250000
Si Si4 0.886877 0.253517 0.016162
Si Si5 0.500000 0.985583 0.250000
Si Si6 0.081919 0.578142 0.340120
Si Si7 0.874504 0.094347 0.462905
O O1 0.424914 0.363742 0.010714
O O2 0.000000 0.331788 0.250000
O O3 0.233040 0.368515 0.260389
O O4 0.357025 0.275142 0.127185
O O5 0.796635 0.620283 0.017713
O O6 0.080789 0.687589 0.960947
O O7 0.059344 0.583540 0.999199
O O8 0.715493 0.212837 0.156450
O O9 0.487747 0.129247 0.334019
O O10 0.750000 0.250000 0.000000
O O11 0.559669 0.024902 0.295646
O O12 0.284612 0.949775 0.402150
O O13 0.367236 0.580555 0.208109
#
# Coordination Sequence:
#
# PCOD9295310 Si02
#       7
#     8   8   4   8   4   8   8
#     4  10  23  42  68  94 139 181 224 275 339 405
#     4  11  24  41  67 102 135 175 227 279 329 413
#     4  11  22  42  62 100 140 186 224 271 336 416
#     4  12  23  41  67  98 143 185 224 273 338 412
#     4  11  24  46  74  94 128 180 234 289 362 396
#     4  11  24  42  70  98 133 177 231 285 347 407
#     4  11  22  47  68  95 135 177 226 291 342 409
#
# _framework density 21.717987999999998
#
# number of rings (size 3 to 8) (size 9 to 14) (size 15 to 20)
#    0.000    1.000    5.833    2.000    0.000    4.667 
#    0.000    0.000    0.000    0.000    0.000    0.000 
#    0.000    0.000    0.000    0.000    0.000    0.000 
#
# Total GULP energy -133778.870983 kJ/mol
# GULP energy per Si atom -5574.119624 kJ/mol
# Density = 2.166856 g / cm^3
# Si number density = 21.717988 Si / 1000 Ang^3
#
#
#
# Elastic Constant Matrix: (Units=GPa)
#
#
# Indices 1 2 3 4 5 6 
#
# 1 92.2545 46.9090 26.6346 0.0004 29.0848 0.0004
# 2 46.9090 87.6866 14.7606 0.0001 -3.5237 0.0003
# 3 26.6346 14.7606 52.3808 -0.0002 9.2511 -0.0018
# 4 0.0004 0.0001 -0.0002 19.1006 -0.0003 -4.5549
# 5 29.0848 -3.5237 9.2511 -0.0003 32.6181 0.0004
# 6 0.0004 0.0003 -0.0018 -4.5549 0.0004 20.0855
#
#
#
# Elastic Compliance Matrix: (Units=1/GPa)
#
#
# Indices 1 2 3 4 5 6 
#
# 1 0.027962 -0.015024 -0.005573 -0.000001 -0.024975 -0.000001
# 2 -0.015024 0.020221 -0.000853 0.000000 0.015823 0.000000
# 3 -0.005573 -0.000853 0.022427 0.000001 -0.001483 0.000002
# 4 -0.000001 0.000000 0.000001 0.055348 0.000001 0.012552
# 5 -0.024975 0.015823 -0.001483 0.000001 0.055058 -0.000001
# 6 -0.000001 0.000000 0.000002 0.012552 -0.000001 0.052634
#
#
# Mechanical properties :
#
#
# Convention : Reuss Voigt Hill
#
# Bulk Modulus (GPa) = 36.08961 45.43669 40.76315
# Shear Modulus (GPa) = 17.49556 23.96202 20.72879
#
# Velocity S-wave (km/s) = 2.84135 3.32524 3.09277
# Velocity P-wave (km/s) = 5.23620 5.97575 5.61816
#
# Compressibility (1/GPa) = 0.02770881
#
# Stress axis : x y z
#
# Youngs Moduli (GPa) = 35.76305 49.45355 44.58833
#
# Poissons Ratio (x) = 0.74299 0.24851
# Poissons Ratio (y) = 0.53730 0.03805
# Poissons Ratio (z) = 0.19932 0.04220
#
# Static dielectric constant tensor:
#      x y z
#    x 1.802040 0.000000 0.039910 
#    y 0.000000 1.820710 0.000000 
#    z 0.039910 0.000000 1.913060 
# 
# From -- ./inp_files/138963.got.cif
#   From: 2010.05.17/outbox.cif.g08.bks.cpg/sg15_70_cif.got.tgz:138963.got - 2010.06.03 18:47:42.
