data_PCOD9295656
_publ_section_title
;
Structure prediction by ZEFSAII (Michael W. Deem and Ramdas Pophale) SiO2 
 PCOD9295656
Probable space group: C 2/C
;
_chemical_formula_sum "Si O2"
_cell_formula_units_Z 32
_cell_length_a 15.178741
_cell_length_b 13.681108
_cell_length_c 8.330781
_cell_angle_alpha 90.000000
_cell_angle_beta 44.541809
_cell_angle_gamma 90.000000
_cell_volume 1213.463706
_symmetry_space_group_name_H-M "C 2/C"
_symmetry_group_IT_number 15
_symmetry_cell_setting 'monoclinic'
loop_
_space_group_symop_operation_xyz
x,y,z
-x,y,1/2-z
-x,-y,-z
x,-y,1/2+z
1/2+x,1/2+y,z
1/2-x,1/2+y,1/2-z
1/2-x,1/2-y,-z
1/2+x,1/2-y,1/2+z
loop_
_atom_site_type_symbol
_atom_site_label
_atom_site_fract_x
_atom_site_fract_y
_atom_site_fract_z
Si Si1 0.587931 0.563995 0.998283
Si Si2 0.237657 0.609791 0.173190
Si Si3 0.863535 0.670363 0.869236
Si Si4 0.818733 0.673093 0.578760
O O1 0.500000 0.605333 0.250000
O O2 0.500000 0.500000 0.000000
O O3 0.681545 0.486349 0.958303
O O4 0.671754 0.642461 0.796568
O O5 0.180965 0.602241 0.425581
O O6 0.322334 0.709159 0.067120
O O7 0.147508 0.628866 0.137759
O O8 0.879883 0.635927 0.664048
O O9 0.000000 0.701813 0.750000
O O10 0.750000 0.750000 0.000000
#
# Coordination Sequence:
#
# PCOD9295656 Si02
#       4
#     8   8   8   8
#     4  12  23  42  75 112 150 194 263 321 366 446
#     4  10  23  43  68 106 150 192 247 307 389 439
#     4  10  23  44  70 105 145 195 248 306 373 450
#     4  10  23  43  67 104 150 193 242 312 380 444
#
# _framework density 26.370791000000001
#
# number of rings (size 3 to 8) (size 9 to 14) (size 15 to 20)
#    0.000    1.500    2.500    1.500    0.000   13.000 
#    0.000    1.250    0.000    0.000    0.000    0.000 
#    0.000    0.000    0.000    0.000    0.000    0.000 
#
# Total GULP energy -89483.400771 kJ/mol
# GULP energy per Si atom -5592.712548 kJ/mol
# Density = 2.631077 g / cm^3
# Si number density = 26.370791 Si / 1000 Ang^3
#
#
#
# Elastic Constant Matrix: (Units=GPa)
#
#
# Indices 1 2 3 4 5 6 
#
# 1 231.1366 10.8346 42.9164 0.0000 34.7921 0.0000
# 2 10.8346 83.5416 27.5884 0.0000 3.7387 0.0000
# 3 42.9164 27.5884 124.8691 0.0000 18.6327 0.0000
# 4 0.0000 0.0000 0.0000 17.5461 0.0000 15.2872
# 5 34.7921 3.7387 18.6327 0.0000 64.7755 0.0000
# 6 0.0000 0.0000 0.0000 15.2872 0.0000 22.8765
#
#
#
# Elastic Compliance Matrix: (Units=1/GPa)
#
#
# Indices 1 2 3 4 5 6 
#
# 1 0.004917 -0.000097 -0.001333 0.000000 -0.002252 0.000000
# 2 -0.000097 0.012914 -0.002838 0.000000 0.000123 0.000000
# 3 -0.001333 -0.002838 0.009364 0.000000 -0.001814 0.000000
# 4 0.000000 0.000000 0.000000 0.136416 0.000000 -0.091160
# 5 -0.002252 0.000123 -0.001814 0.000000 0.017162 0.000000
# 6 0.000000 0.000000 0.000000 -0.091160 0.000000 0.104630
#
#
# Mechanical properties :
#
#
# Convention : Reuss Voigt Hill
#
# Bulk Modulus (GPa) = 53.58941 66.91402 60.25172
# Shear Modulus (GPa) = 16.65773 44.92013 30.78893
#
# Velocity S-wave (km/s) = 2.51604 4.13171 3.42063
# Velocity P-wave (km/s) = 5.36714 6.94196 6.20471
#
# Compressibility (1/GPa) = 0.01866040
#
# Stress axis : x y z
#
# Youngs Moduli (GPa) = 203.35724 77.43249 106.78999
#
# Poissons Ratio (x) = 0.00750 0.14231
# Poissons Ratio (y) = 0.01970 0.30311
# Poissons Ratio (z) = 0.27099 0.21978
#
# Static dielectric constant tensor:
#      x y z
#    x 2.123520 0.000000 0.017070 
#    y 0.000000 2.020060 0.000000 
#    z 0.017070 0.000000 2.088970 
# 
# From -- ./inp_files/105109.got.cif
#   From: 2010.05.17/outbox.cif.g08.bks.cpg/sg15_53_cif.got.tgz:105109.got - 2010.06.03 18:47:42.
