data_PCOD9295512
_publ_section_title
;
Structure prediction by ZEFSAII (Michael W. Deem and Ramdas Pophale) SiO2 
 PCOD9295512
Probable space group: C 2/C
;
_chemical_formula_sum "Si O2"
_cell_formula_units_Z 52
_cell_length_a 12.473870
_cell_length_b 28.770224
_cell_length_c 12.434762
_cell_angle_alpha 90.000000
_cell_angle_beta 36.712259
_cell_angle_gamma 90.000000
_cell_volume 2667.690448
_symmetry_space_group_name_H-M "C 2/C"
_symmetry_group_IT_number 15
_symmetry_cell_setting 'monoclinic'
loop_
_space_group_symop_operation_xyz
x,y,z
-x,y,1/2-z
-x,-y,-z
x,-y,1/2+z
1/2+x,1/2+y,z
1/2-x,1/2+y,1/2-z
1/2-x,1/2-y,-z
1/2+x,1/2-y,1/2+z
loop_
_atom_site_type_symbol
_atom_site_label
_atom_site_fract_x
_atom_site_fract_y
_atom_site_fract_z
Si Si1 0.927340 0.228471 0.912525
Si Si2 0.163861 0.119239 0.204312
Si Si3 0.680469 0.184704 0.265745
Si Si4 0.702718 0.441914 0.132631
Si Si5 0.676092 0.038568 0.540491
Si Si6 0.062337 0.947037 0.472938
Si Si7 0.000000 0.388101 0.750000
O O1 0.000000 0.201275 0.750000
O O2 0.054480 0.269707 0.853955
O O3 0.750000 0.250000 0.000000
O O4 0.866211 0.196954 0.057806
O O5 0.263055 0.165471 0.164382
O O6 0.000000 0.126267 0.250000
O O7 0.085927 0.090543 0.370362
O O8 0.315707 0.085522 0.033513
O O9 0.586614 0.144916 0.270749
O O10 0.500000 0.438968 0.250000
O O11 0.678062 0.429061 0.278093
O O12 0.769276 0.495215 0.076124
O O13 0.844274 0.416206 0.939768
O O14 0.500000 0.029120 0.750000
O O15 0.825512 0.045994 0.509899
O O16 0.000000 0.000000 0.500000
#
# Coordination Sequence:
#
# PCOD9295512 Si02
#       7
#     8   8   8   8   8   8   4
#     4   9  18  40  65  93 127 153 192 263 350 401
#     4  10  23  43  62  89 131 176 229 268 313 392
#     4  11  22  42  65  95 128 163 205 272 341 398
#     4  12  23  39  58  92 134 175 221 270 319 370
#     4  11  23  39  59  87 131 177 224 269 318 366
#     4  11  21  39  61  83 122 187 220 263 321 366
#     4  12  26  36  62 110 132 162 224 272 316 412
#
# _framework density 19.492515999999998
#
# number of rings (size 3 to 8) (size 9 to 14) (size 15 to 20)
#    0.000    1.231    6.154    1.385    2.154    2.462 
#    0.000    0.769    0.000    0.000    0.000    0.000 
#    0.000    0.000    0.000    0.000    0.000    0.000 
#
# Total GULP energy -144872.773706 kJ/mol
# GULP energy per Si atom -5572.029758 kJ/mol
# Density = 1.944815 g / cm^3
# Si number density = 19.492516 Si / 1000 Ang^3
#
#
#
# Elastic Constant Matrix: (Units=GPa)
#
#
# Indices 1 2 3 4 5 6 
#
# 1 46.7951 30.1639 11.0516 0.0000 5.7602 0.0000
# 2 30.1639 64.7384 27.3770 0.0000 -1.7187 0.0000
# 3 11.0516 27.3770 107.2919 0.0000 7.3756 0.0000
# 4 0.0000 0.0000 0.0000 45.6083 0.0000 4.9248
# 5 5.7602 -1.7187 7.3756 0.0000 27.1740 0.0000
# 6 0.0000 0.0000 0.0000 4.9248 0.0000 29.1648
#
#
#
# Elastic Compliance Matrix: (Units=1/GPa)
#
#
# Indices 1 2 3 4 5 6 
#
# 1 0.032248 -0.015778 0.001266 0.000000 -0.008177 0.000000
# 2 -0.015778 0.025182 -0.005237 0.000000 0.006359 0.000000
# 3 0.001266 -0.005237 0.010768 0.000000 -0.003523 0.000000
# 4 0.000000 0.000000 0.000000 0.022333 0.000000 -0.003771
# 5 -0.008177 0.006359 -0.003523 0.000000 0.039892 0.000000
# 6 0.000000 0.000000 0.000000 -0.003771 0.000000 0.034925
#
#
# Mechanical properties :
#
#
# Convention : Reuss Voigt Hill
#
# Bulk Modulus (GPa) = 34.84304 39.55672 37.19988
# Shear Modulus (GPa) = 23.31959 30.40493 26.86226
#
# Velocity S-wave (km/s) = 3.46256 3.95375 3.71628
# Velocity P-wave (km/s) = 5.82234 6.41718 6.12698
#
# Compressibility (1/GPa) = 0.02870014
#
# Stress axis : x y z
#
# Youngs Moduli (GPa) = 31.01005 39.71100 92.86360
#
# Poissons Ratio (x) = 0.62656 -0.11761
# Poissons Ratio (y) = 0.48927 0.48637
# Poissons Ratio (z) = -0.03927 0.20798
#
# Static dielectric constant tensor:
#      x y z
#    x 1.688030 0.000000 0.006600 
#    y 0.000000 1.731730 0.000000 
#    z 0.006600 0.000000 1.790360 
# 
# From -- ./inp_files/92554.got.cif
#   From: 2010.05.17/outbox.cif.g08.bks.cpg/sg15_47_cif.got.tgz:92554.got - 2010.06.03 18:47:42.
