data_PCOD9295105
_publ_section_title
;
Structure prediction by ZEFSAII (Michael W. Deem and Ramdas Pophale) SiO2 
 PCOD9295105
Probable space group: C 2/C
;
_chemical_formula_sum "Si O2"
_cell_formula_units_Z 56
_cell_length_a 12.436312
_cell_length_b 8.170012
_cell_length_c 30.846226
_cell_angle_alpha 90.000000
_cell_angle_beta 57.869157
_cell_angle_gamma 90.000000
_cell_volume 2654.089224
_symmetry_space_group_name_H-M "C 2/C"
_symmetry_group_IT_number 15
_symmetry_cell_setting 'monoclinic'
loop_
_space_group_symop_operation_xyz
x,y,z
-x,y,1/2-z
-x,-y,-z
x,-y,1/2+z
1/2+x,1/2+y,z
1/2-x,1/2+y,1/2-z
1/2-x,1/2-y,-z
1/2+x,1/2-y,1/2+z
loop_
_atom_site_type_symbol
_atom_site_label
_atom_site_fract_x
_atom_site_fract_y
_atom_site_fract_z
Si Si1 0.677599 0.178876 0.473620
Si Si2 0.224349 0.769413 0.292346
Si Si3 0.726158 0.690239 0.553605
Si Si4 0.944694 0.133803 0.045352
Si Si5 0.991411 0.011677 0.629728
Si Si6 0.444994 0.984890 0.213803
Si Si7 0.340352 0.760302 0.361167
O O1 0.750000 0.250000 0.500000
O O2 0.531470 0.209387 0.515133
O O3 0.729408 0.275639 0.420538
O O4 0.715353 0.992186 0.457863
O O5 0.134497 0.925540 0.320540
O O6 0.345970 0.833302 0.239727
O O7 0.136323 0.631574 0.289481
O O8 0.278777 0.721526 0.327905
O O9 0.750000 0.750000 0.500000
O O10 0.801534 0.814260 0.567656
O O11 0.580710 0.666007 0.598175
O O12 0.964887 0.077170 0.089905
O O13 0.000000 0.000000 0.000000
O O14 0.071713 0.889702 0.642273
O O15 0.500000 0.026286 0.250000
O O16 0.567353 0.917065 0.161845
#
# Coordination Sequence:
#
# PCOD9295105 Si02
#       7
#     8   8   8   8   8   8   8
#     4  11  21  41  63  92 134 178 220 268 317 384
#     4  11  24  43  71  96 127 167 212 270 341 388
#     4  11  23  38  58  88 125 175 227 266 318 374
#     4  12  22  40  60  86 134 179 221 272 314 375
#     4  11  24  42  61  95 131 170 218 269 319 387
#     4  10  24  45  69  98 125 163 212 272 337 401
#     4  10  23  42  64  97 132 165 218 269 320 388
#
# _framework density 21.099516999999999
#
# number of rings (size 3 to 8) (size 9 to 14) (size 15 to 20)
#    0.000    1.143    4.286    2.143    0.000    8.000 
#    0.000    0.000    0.000    0.000    0.000    0.000 
#    0.000    0.000    0.000    0.000    0.000    0.000 
#
# Total GULP energy -156519.732978 kJ/mol
# GULP energy per Si atom -5589.990464 kJ/mol
# Density = 2.105149 g / cm^3
# Si number density = 21.099517 Si / 1000 Ang^3
#
#
#
# Elastic Constant Matrix: (Units=GPa)
#
#
# Indices 1 2 3 4 5 6 
#
# 1 117.6818 37.9787 28.8357 0.0000 12.5308 0.0000
# 2 37.9787 76.3982 26.5903 0.0000 13.1410 0.0000
# 3 28.8357 26.5903 67.3263 0.0000 -7.2808 0.0000
# 4 0.0000 0.0000 0.0000 23.9178 0.0000 -11.4284
# 5 12.5308 13.1410 -7.2808 0.0000 35.1603 0.0000
# 6 0.0000 0.0000 0.0000 -11.4284 0.0000 48.8853
#
#
#
# Elastic Compliance Matrix: (Units=1/GPa)
#
#
# Indices 1 2 3 4 5 6 
#
# 1 0.010889 -0.003596 -0.003598 0.000000 -0.003282 0.000000
# 2 -0.003596 0.018301 -0.006433 0.000000 -0.006890 0.000000
# 3 -0.003598 -0.006433 0.019776 0.000000 0.007782 0.000000
# 4 0.000000 0.000000 0.000000 0.047068 0.000000 0.011003
# 5 -0.003282 -0.006890 0.007782 0.000000 0.033798 0.000000
# 6 0.000000 0.000000 0.000000 0.011003 0.000000 0.023028
#
#
# Mechanical properties :
#
#
# Convention : Reuss Voigt Hill
#
# Bulk Modulus (GPa) = 46.05800 49.80177 47.92988
# Shear Modulus (GPa) = 26.68761 32.79278 29.74020
#
# Velocity S-wave (km/s) = 3.56032 3.94661 3.75843
# Velocity P-wave (km/s) = 6.22716 6.66499 6.44979
#
# Compressibility (1/GPa) = 0.02171176
#
# Stress axis : x y z
#
# Youngs Moduli (GPa) = 91.83344 54.64111 50.56526
#
# Poissons Ratio (x) = 0.19651 0.18195
# Poissons Ratio (y) = 0.33026 0.32528
# Poissons Ratio (z) = 0.33045 0.35150
#
# Static dielectric constant tensor:
#      x y z
#    x 1.813200 0.000000 -0.004330 
#    y 0.000000 1.766220 0.000000 
#    z -0.004330 0.000000 1.706220 
# 
# From -- ./inp_files/309911.got.cif
#   From: 2010.05.17/outbox.cif.g08.bks.cpg/sg15_155_cif.got.tgz:309911.got - 2010.06.03 18:47:42.
