data_PCOD9295667
_publ_section_title
;
Structure prediction by ZEFSAII (Michael W. Deem and Ramdas Pophale) SiO2 
 PCOD9295667
Probable space group: C 2/C
;
_chemical_formula_sum "Si O2"
_cell_formula_units_Z 56
_cell_length_a 17.273186
_cell_length_b 8.752551
_cell_length_c 26.254704
_cell_angle_alpha 90.000000
_cell_angle_beta 138.794056
_cell_angle_gamma 90.000000
_cell_volume 2614.847710
_symmetry_space_group_name_H-M "C 2/C"
_symmetry_group_IT_number 15
_symmetry_cell_setting 'monoclinic'
loop_
_space_group_symop_operation_xyz
x,y,z
-x,y,1/2-z
-x,-y,-z
x,-y,1/2+z
1/2+x,1/2+y,z
1/2-x,1/2+y,1/2-z
1/2-x,1/2-y,-z
1/2+x,1/2-y,1/2+z
loop_
_atom_site_type_symbol
_atom_site_label
_atom_site_fract_x
_atom_site_fract_y
_atom_site_fract_z
Si Si1 0.120648 0.900528 0.901879
Si Si2 0.880117 0.662979 0.512867
Si Si3 0.377916 0.717058 0.586601
Si Si4 0.158892 0.506538 0.768627
Si Si5 0.000000 0.752174 0.750000
Si Si6 0.500000 0.230506 0.250000
Si Si7 0.947871 0.417126 0.885200
Si Si8 0.898278 0.882485 0.430593
O O1 0.097252 0.751161 0.923569
O O2 0.067611 0.861163 0.821694
O O3 0.078232 0.050865 0.910563
O O4 0.259109 0.926420 0.961241
O O5 0.855751 0.795351 0.460300
O O6 0.990088 0.555718 0.554079
O O7 0.250000 0.750000 0.500000
O O8 0.412164 0.699613 0.663422
O O9 0.451773 0.858778 0.603428
O O10 0.086715 0.648426 0.758126
O O11 0.093782 0.365650 0.763484
O O12 0.148480 0.483201 0.702190
O O13 0.292905 0.524403 0.852390
O O14 0.922682 0.266312 0.906203
O O15 0.000000 0.000000 0.500000
#
# Coordination Sequence:
#
# PCOD9295667 Si02
#       8
#     8   8   8   8   4   4   8   8
#     4  11  22  36  69  99 129 165 219 279 333 398
#     4  11  23  40  65 101 129 170 223 270 330 401
#     4  11  22  39  66  99 135 168 216 285 345 393
#     4  10  23  43  67  94 126 176 220 277 338 395
#     4  11  19  42  70  94 130 164 222 284 334 396
#     4   9  23  38  66 100 128 162 224 282 340 398
#     4  11  24  46  64  95 136 182 221 273 336 409
#     4  12  27  44  67  97 136 182 226 274 336 410
#
# _framework density 21.416160999999999
#
# number of rings (size 3 to 8) (size 9 to 14) (size 15 to 20)
#    0.000    1.143    4.286    1.714    4.000    1.143 
#    2.571    1.429    0.000    0.000    0.000    0.000 
#    0.000    0.000    0.000    0.000    0.000    0.000 
#
# Total GULP energy -155914.589917 kJ/mol
# GULP energy per Si atom -5568.378211 kJ/mol
# Density = 2.136742 g / cm^3
# Si number density = 21.416161 Si / 1000 Ang^3
#
#
#
# Elastic Constant Matrix: (Units=GPa)
#
#
# Indices 1 2 3 4 5 6 
#
# 1 28.3698 4.9771 30.2208 0.0000 -9.0087 0.0000
# 2 4.9771 80.7774 64.9134 0.0000 3.1045 0.0000
# 3 30.2208 64.9134 173.9033 0.0000 -7.9075 0.0000
# 4 0.0000 0.0000 0.0000 34.5600 0.0000 -4.1044
# 5 -9.0087 3.1045 -7.9075 0.0000 30.6598 0.0000
# 6 0.0000 0.0000 0.0000 -4.1044 0.0000 24.8636
#
#
#
# Elastic Compliance Matrix: (Units=1/GPa)
#
#
# Indices 1 2 3 4 5 6 
#
# 1 0.048119 0.004154 -0.009399 0.000000 0.011294 0.000000
# 2 0.004154 0.018430 -0.007721 0.000000 -0.002637 0.000000
# 3 -0.009399 -0.007721 0.010297 0.000000 0.000676 0.000000
# 4 0.000000 0.000000 0.000000 0.029514 0.000000 0.004872
# 5 0.011294 -0.002637 0.000676 0.000000 0.036376 0.000000
# 6 0.000000 0.000000 0.000000 0.004872 0.000000 0.041024
#
#
# Mechanical properties :
#
#
# Convention : Reuss Voigt Hill
#
# Bulk Modulus (GPa) = 19.64135 53.69702 36.66918
# Shear Modulus (GPa) = 22.05934 30.21264 26.13599
#
# Velocity S-wave (km/s) = 3.21289 3.76006 3.49719
# Velocity P-wave (km/s) = 4.79111 6.63161 5.78503
#
# Compressibility (1/GPa) = 0.05091301
#
# Stress axis : x y z
#
# Youngs Moduli (GPa) = 20.78195 54.25964 97.11976
#
# Poissons Ratio (x) = -0.22542 0.91285
# Poissons Ratio (y) = -0.08634 0.74988
# Poissons Ratio (z) = 0.19533 0.41895
#
# Static dielectric constant tensor:
#      x y z
#    x 1.849870 0.000000 0.066280 
#    y 0.000000 1.789880 0.000000 
#    z 0.066280 0.000000 1.965600 
# 
# From -- ./inp_files/276662.got.cif
#   From: 2010.05.17/outbox.cif.g08.bks.cpg/sg15_139_cif.got.tgz:276662.got - 2010.06.03 18:47:42.
