data_PCOD9295618
_publ_section_title
;
Structure prediction by ZEFSAII (Michael W. Deem and Ramdas Pophale) SiO2 
 PCOD9295618
Probable space group: C 2/C
;
_chemical_formula_sum "Si O2"
_cell_formula_units_Z 48
_cell_length_a 9.661627
_cell_length_b 28.188880
_cell_length_c 8.346745
_cell_angle_alpha 90.000000
_cell_angle_beta 89.625651
_cell_angle_gamma 90.000000
_cell_volume 2273.191187
_symmetry_space_group_name_H-M "C 2/C"
_symmetry_group_IT_number 15
_symmetry_cell_setting 'monoclinic'
loop_
_space_group_symop_operation_xyz
x,y,z
-x,y,1/2-z
-x,-y,-z
x,-y,1/2+z
1/2+x,1/2+y,z
1/2-x,1/2+y,1/2-z
1/2-x,1/2-y,-z
1/2+x,1/2-y,1/2+z
loop_
_atom_site_type_symbol
_atom_site_label
_atom_site_fract_x
_atom_site_fract_y
_atom_site_fract_z
Si Si1 0.960509 0.948512 0.064897
Si Si2 0.462771 0.052005 0.564882
Si Si3 0.158227 0.206286 0.443933
Si Si4 0.838484 0.205242 0.442857
Si Si5 0.711059 0.602226 0.435438
Si Si6 0.286743 0.103874 0.061615
O O1 0.000000 0.944488 0.250000
O O2 0.802620 0.934990 0.033886
O O3 0.051889 0.911652 0.961791
O O4 0.000000 0.000000 0.000000
O O5 0.500000 0.054087 0.750000
O O6 0.304610 0.065755 0.533324
O O7 0.554772 0.091402 0.472670
O O8 0.500000 0.000000 0.500000
O O9 0.250000 0.250000 0.500000
O O10 0.156860 0.205595 0.250577
O O11 0.225080 0.156192 0.493952
O O12 0.997798 0.208181 0.499745
O O13 0.750000 0.250000 0.500000
O O14 0.763819 0.155992 0.490874
O O15 0.752881 0.598706 0.249676
#
# Coordination Sequence:
#
# PCOD9295618 Si02
#       6
#     8   8   8   8   8   8
#     4  12  24  40  65  96 127 166 211 262 320 380
#     4  12  26  44  65  96 131 170 217 266 320 384
#     4  10  23  43  66  95 129 168 211 261 319 380
#     4  10  23  43  66  95 129 168 211 261 319 380
#     4  11  23  44  67  92 129 171 214 265 320 379
#     4  11  23  44  67  92 129 171 214 265 320 379
#
# _framework density 21.115689
#
# number of rings (size 3 to 8) (size 9 to 14) (size 15 to 20)
#    0.000    1.000    1.667    5.000    2.333    3.333 
#    0.000    0.000    0.000    0.000    0.000    0.000 
#    0.000    0.000    0.000    0.000    0.000    0.000 
#
# Total GULP energy -134303.297549 kJ/mol
# GULP energy per Si atom -5595.970731 kJ/mol
# Density = 2.106763 g / cm^3
# Si number density = 21.115689 Si / 1000 Ang^3
#
#
#
# Elastic Constant Matrix: (Units=GPa)
#
#
# Indices 1 2 3 4 5 6 
#
# 1 73.5021 17.3465 -0.8690 0.0000 0.4320 0.0000
# 2 17.3465 131.6423 5.5615 0.0000 2.3595 0.0000
# 3 -0.8690 5.5615 65.4132 0.0000 -1.7883 0.0000
# 4 0.0000 0.0000 0.0000 28.4330 0.0000 0.7380
# 5 0.4320 2.3595 -1.7883 0.0000 38.4447 0.0000
# 6 0.0000 0.0000 0.0000 0.7380 0.0000 40.8523
#
#
#
# Elastic Compliance Matrix: (Units=1/GPa)
#
#
# Indices 1 2 3 4 5 6 
#
# 1 0.014050 -0.001865 0.000344 0.000000 -0.000027 0.000000
# 2 -0.001865 0.007881 -0.000708 0.000000 -0.000496 0.000000
# 3 0.000344 -0.000708 0.015373 0.000000 0.000755 0.000000
# 4 0.000000 0.000000 0.000000 0.035187 0.000000 -0.000636
# 5 -0.000027 -0.000496 0.000755 0.000000 0.026077 0.000000
# 6 0.000000 0.000000 0.000000 -0.000636 0.000000 0.024490
#
#
# Mechanical properties :
#
#
# Convention : Reuss Voigt Hill
#
# Bulk Modulus (GPa) = 30.44618 34.95951 32.70285
# Shear Modulus (GPa) = 36.11045 38.11393 37.11219
#
# Velocity S-wave (km/s) = 4.13985 4.25314 4.19688
# Velocity P-wave (km/s) = 6.10747 6.38053 6.24549
#
# Compressibility (1/GPa) = 0.03284484
#
# Stress axis : x y z
#
# Youngs Moduli (GPa) = 71.17682 126.88825 65.04964
#
# Poissons Ratio (x) = 0.23669 -0.02241
# Poissons Ratio (y) = 0.13277 0.04608
# Poissons Ratio (z) = -0.02452 0.08989
#
# Static dielectric constant tensor:
#      x y z
#    x 1.711270 0.000000 -0.006810 
#    y 0.000000 1.765490 0.000000 
#    z -0.006810 0.000000 1.736860 
# 
# From -- ./inp_files/26081.got.cif
#   From: 2010.05.17/outbox.cif.g08.bks.cpg/sg15_14_cif.got.tgz:26081.got - 2010.06.03 18:47:42.
