data_PCOD9295036
_publ_section_title
;
Structure prediction by ZEFSAII (Michael W. Deem and Ramdas Pophale) SiO2 
 PCOD9295036
Probable space group: C 2/C
;
_chemical_formula_sum "Si O2"
_cell_formula_units_Z 40
_cell_length_a 21.569279
_cell_length_b 10.690302
_cell_length_c 9.898800
_cell_angle_alpha 90.000000
_cell_angle_beta 48.049451
_cell_angle_gamma 90.000000
_cell_volume 1697.535314
_symmetry_space_group_name_H-M "C 2/C"
_symmetry_group_IT_number 15
_symmetry_cell_setting 'monoclinic'
loop_
_space_group_symop_operation_xyz
x,y,z
-x,y,1/2-z
-x,-y,-z
x,-y,1/2+z
1/2+x,1/2+y,z
1/2-x,1/2+y,1/2-z
1/2-x,1/2-y,-z
1/2+x,1/2-y,1/2+z
loop_
_atom_site_type_symbol
_atom_site_label
_atom_site_fract_x
_atom_site_fract_y
_atom_site_fract_z
Si Si1 0.547839 0.295582 0.045979
Si Si2 0.363933 0.082395 0.236125
Si Si3 0.966578 0.620351 0.667710
Si Si4 0.374242 0.369024 0.201684
Si Si5 0.318610 0.509073 0.040147
O O1 0.500000 0.243869 0.250000
O O2 0.473245 0.370821 0.081116
O O3 0.574525 0.197952 0.893642
O O4 0.622995 0.380998 0.984607
O O5 0.348217 0.229199 0.287336
O O6 0.279112 0.029641 0.300438
O O7 0.401849 0.990962 0.296086
O O8 0.444043 0.079097 0.022395
O O9 0.000000 0.692985 0.750000
O O10 0.347503 0.391129 0.086452
O O11 0.335403 0.475372 0.355400
#
# Coordination Sequence:
#
# PCOD9295036 Si02
#       5
#     8   8   8   8   8
#     4   9  21  43  68  95 130 175 208 257 326 385
#     4  10  24  40  62  95 132 169 209 262 327 378
#     4  10  23  42  67  94 128 168 217 267 314 375
#     4  10  23  42  62  95 127 172 212 260 319 382
#     4  11  23  39  68  93 132 167 216 261 317 385
#
# _framework density 23.563575
#
# number of rings (size 3 to 8) (size 9 to 14) (size 15 to 20)
#    0.000    2.000    0.000    1.200    5.600   15.200 
#    0.000    3.000    0.000    2.400    0.000    0.000 
#    0.000    0.000    0.000    0.000    0.000    0.000 
#
# Total GULP energy -111475.761928 kJ/mol
# GULP energy per Si atom -5573.788096 kJ/mol
# Density = 2.350994 g / cm^3
# Si number density = 23.563575 Si / 1000 Ang^3
#
#
#
# Elastic Constant Matrix: (Units=GPa)
#
#
# Indices 1 2 3 4 5 6 
#
# 1 93.6718 13.3755 20.7989 0.0000 -20.9356 0.0000
# 2 13.3755 59.6255 9.3507 0.0000 9.5809 0.0000
# 3 20.7989 9.3507 39.4967 0.0000 -13.2434 0.0000
# 4 0.0000 0.0000 0.0000 -14.5237 0.0000 26.9253
# 5 -20.9356 9.5809 -13.2434 0.0000 49.3183 0.0000
# 6 0.0000 0.0000 0.0000 26.9253 0.0000 17.8052
#
#
#
# Elastic Compliance Matrix: (Units=1/GPa)
#
#
# Indices 1 2 3 4 5 6 
#
# 1 0.013242 -0.003054 -0.004579 0.000000 0.004985 0.000000
# 2 -0.003054 0.019288 -0.005110 0.000000 -0.006415 0.000000
# 3 -0.004579 -0.005110 0.031453 0.000000 0.007495 0.000000
# 4 0.000000 0.000000 0.000000 -0.018103 0.000000 0.027375
# 5 0.004985 -0.006415 0.007495 0.000000 0.025651 0.000000
# 6 0.000000 0.000000 0.000000 0.027375 0.000000 0.014766
#
#
# Mechanical properties :
#
#
# Convention : Reuss Voigt Hill
#
# Bulk Modulus (GPa) = 25.97458 31.09381 28.53419
# Shear Modulus (GPa) = 40.12324 20.47123 30.29723
#
# Velocity S-wave (km/s) = 4.13093 2.95068 3.58965
# Velocity P-wave (km/s) = 5.81377 4.98328 5.41447
#
# Compressibility (1/GPa) = 0.03849918
#
# Stress axis : x y z
#
# Youngs Moduli (GPa) = 75.51459 51.84440 31.79389
#
# Poissons Ratio (x) = 0.15831 0.14559
# Poissons Ratio (y) = 0.23059 0.16245
# Poissons Ratio (z) = 0.34579 0.26490
#
# Static dielectric constant tensor:
#      x y z
#    x 1.914170 0.000000 0.109080 
#    y 0.000000 2.023030 0.000000 
#    z 0.109080 0.000000 1.946190 
# 
# From -- ./inp_files/110466.got.cif
#   From: 2010.05.17/outbox.cif.g08.bks.cpg/sg15_56_cif.got.tgz:110466.got - 2010.06.03 18:47:42.
