data_PCOD9295550
_publ_section_title
;
Structure prediction by ZEFSAII (Michael W. Deem and Ramdas Pophale) SiO2 
 PCOD9295550
Probable space group: C 2/C
;
_chemical_formula_sum "Si O2"
_cell_formula_units_Z 32
_cell_length_a 9.054299
_cell_length_b 21.067266
_cell_length_c 12.651269
_cell_angle_alpha 90.000000
_cell_angle_beta 146.282483
_cell_angle_gamma 90.000000
_cell_volume 1339.575987
_symmetry_space_group_name_H-M "C 2/C"
_symmetry_group_IT_number 15
_symmetry_cell_setting 'monoclinic'
loop_
_space_group_symop_operation_xyz
x,y,z
-x,y,1/2-z
-x,-y,-z
x,-y,1/2+z
1/2+x,1/2+y,z
1/2-x,1/2+y,1/2-z
1/2-x,1/2-y,-z
1/2+x,1/2-y,1/2+z
loop_
_atom_site_type_symbol
_atom_site_label
_atom_site_fract_x
_atom_site_fract_y
_atom_site_fract_z
Si Si1 0.481219 0.743411 0.346329
Si Si2 0.267125 0.641826 0.686753
Si Si3 0.819019 0.375969 0.745867
Si Si4 0.298000 0.500383 0.724196
O O1 0.781934 0.762794 0.603505
O O2 0.326961 0.806739 0.287353
O O3 0.384642 0.680954 0.351469
O O4 0.500000 0.667279 0.750000
O O5 0.354556 0.573901 0.786079
O O6 0.024278 0.628364 0.464638
O O7 0.694325 0.446263 0.682613
O O8 0.000000 0.368084 0.750000
O O9 0.500000 0.483066 0.750000
O O10 0.000000 0.500000 0.500000
#
# Coordination Sequence:
#
# PCOD9295550 Si02
#       4
#     8   8   8   8
#     4  12  25  41  65  95 129 172 215 264 320 383
#     4  10  23  43  64  94 130 168 214 265 320 384
#     4  11  24  41  66  95 131 172 213 265 325 383
#     4   9  20  41  66  90 127 169 212 267 319 377
#
# _framework density 23.888155999999999
#
# number of rings (size 3 to 8) (size 9 to 14) (size 15 to 20)
#    0.000    1.500    2.500    1.500    7.000    3.000 
#    0.000   11.250    0.000    0.000    0.000    0.000 
#    0.000    0.000    0.000    0.000    0.000    0.000 
#
# Total GULP energy -89316.530425 kJ/mol
# GULP energy per Si atom -5582.283152 kJ/mol
# Density = 2.383379 g / cm^3
# Si number density = 23.888156 Si / 1000 Ang^3
#
#
#
# Elastic Constant Matrix: (Units=GPa)
#
#
# Indices 1 2 3 4 5 6 
#
# 1 202.3020 133.1019 45.9879 0.0000 7.7933 0.0000
# 2 133.1019 162.7980 18.9488 0.0001 -15.7022 0.0000
# 3 45.9879 18.9488 118.9790 0.0001 1.8194 0.0001
# 4 0.0000 0.0001 0.0001 28.7202 0.0001 0.0090
# 5 7.7933 -15.7022 1.8194 0.0001 47.4895 0.0001
# 6 0.0000 0.0000 0.0001 0.0090 0.0001 45.6297
#
#
#
# Elastic Compliance Matrix: (Units=1/GPa)
#
#
# Indices 1 2 3 4 5 6 
#
# 1 0.012975 -0.010771 -0.003215 0.000000 -0.005568 0.000000
# 2 -0.010771 0.015419 0.001604 0.000000 0.006804 0.000000
# 3 -0.003215 0.001604 0.009381 0.000000 0.000698 0.000000
# 4 0.000000 0.000000 0.000000 0.034819 0.000000 -0.000007
# 5 -0.005568 0.006804 0.000698 0.000000 0.024194 0.000000
# 6 0.000000 0.000000 0.000000 -0.000007 0.000000 0.021916
#
#
# Mechanical properties :
#
#
# Convention : Reuss Voigt Hill
#
# Bulk Modulus (GPa) = 76.85939 97.79513 87.32726
# Shear Modulus (GPa) = 33.82861 43.43725 38.63293
#
# Velocity S-wave (km/s) = 3.76723 4.26885 4.02586
# Velocity P-wave (km/s) = 7.15312 8.08239 7.63191
#
# Compressibility (1/GPa) = 0.01301077
#
# Stress axis : x y z
#
# Youngs Moduli (GPa) = 77.07132 64.85708 106.59546
#
# Poissons Ratio (x) = 0.69858 0.34266
# Poissons Ratio (y) = 0.83014 -0.17094
# Poissons Ratio (z) = 0.24775 -0.10401
#
# Static dielectric constant tensor:
#      x y z
#    x 1.872340 0.000000 -0.378100 
#    y 0.000000 1.869280 0.000000 
#    z -0.378100 0.000000 4.244670 
# 
# From -- ./inp_files/146919.got.cif
#   From: 2010.05.17/outbox.cif.g08.bks.cpg/sg15_74_cif.got.tgz:146919.got - 2010.06.03 18:47:42.
