data_PCOD9295060
_publ_section_title
;
Structure prediction by ZEFSAII (Michael W. Deem and Ramdas Pophale) SiO2 
 PCOD9295060
Probable space group: C 2/C
;
_chemical_formula_sum "Si O2"
_cell_formula_units_Z 48
_cell_length_a 10.230217
_cell_length_b 26.576594
_cell_length_c 8.883797
_cell_angle_alpha 90.000000
_cell_angle_beta 92.857594
_cell_angle_gamma 90.000000
_cell_volume 2412.361702
_symmetry_space_group_name_H-M "C 2/C"
_symmetry_group_IT_number 15
_symmetry_cell_setting 'monoclinic'
loop_
_space_group_symop_operation_xyz
x,y,z
-x,y,1/2-z
-x,-y,-z
x,-y,1/2+z
1/2+x,1/2+y,z
1/2-x,1/2+y,1/2-z
1/2-x,1/2-y,-z
1/2+x,1/2-y,1/2+z
loop_
_atom_site_type_symbol
_atom_site_label
_atom_site_fract_x
_atom_site_fract_y
_atom_site_fract_z
Si Si1 0.391438 0.698372 0.627292
Si Si2 0.896472 0.719227 0.875515
Si Si3 0.737082 0.935491 0.534221
Si Si4 0.980282 0.376624 0.572188
Si Si5 0.260423 0.040848 0.111347
Si Si6 0.481234 0.584238 0.579643
O O1 0.500000 0.716827 0.750000
O O2 0.249021 0.706866 0.689768
O O3 0.393761 0.730423 0.474967
O O4 0.422048 0.640184 0.595082
O O5 0.000000 0.723892 0.750000
O O6 0.934053 0.672707 0.984340
O O7 0.617807 0.896601 0.516052
O O8 0.746530 0.951844 0.709724
O O9 0.876617 0.914337 0.488681
O O10 0.704931 0.984268 0.432344
O O11 0.870486 0.420406 0.557401
O O12 0.000000 0.365911 0.750000
O O13 0.121906 0.053093 0.024580
O O14 0.500000 0.563064 0.750000
#
# Coordination Sequence:
#
# PCOD9295060 Si02
#       6
#     8   8   8   8   8   8
#     4  10  24  45  64  95 131 161 207 258 308 371
#     4  11  24  42  69  96 125 165 207 256 310 372
#     4  11  24  38  65  90 125 167 210 256 314 368
#     4  10  23  42  63  92 126 165 206 260 312 368
#     4  11  22  42  61  92 126 164 211 260 309 371
#     4  11  23  41  63  91 125 166 206 260 308 366
#
# _framework density 19.897514999999999
#
# number of rings (size 3 to 8) (size 9 to 14) (size 15 to 20)
#    0.000    1.333    1.667    3.000    4.667    3.333 
#    3.000    0.000    0.000    0.000    0.000    0.000 
#    0.000    0.000    0.000    0.000    0.000    0.000 
#
# Total GULP energy -134248.706768 kJ/mol
# GULP energy per Si atom -5593.696115 kJ/mol
# Density = 1.985223 g / cm^3
# Si number density = 19.897515 Si / 1000 Ang^3
#
#
#
# Elastic Constant Matrix: (Units=GPa)
#
#
# Indices 1 2 3 4 5 6 
#
# 1 123.7798 -7.8439 33.4192 0.0000 -8.6394 0.0000
# 2 -7.8439 17.0857 -3.2929 0.0000 1.2919 0.0000
# 3 33.4192 -3.2929 40.7081 0.0000 -3.8249 0.0000
# 4 0.0000 0.0000 0.0000 11.3305 0.0000 -5.2465
# 5 -8.6394 1.2919 -3.8249 0.0000 39.9768 0.0000
# 6 0.0000 0.0000 0.0000 -5.2465 0.0000 15.3112
#
#
#
# Elastic Compliance Matrix: (Units=1/GPa)
#
#
# Indices 1 2 3 4 5 6 
#
# 1 0.010628 0.003167 -0.008338 0.000000 0.001397 0.000000
# 2 0.003167 0.060485 0.002193 0.000000 -0.001060 0.000000
# 3 -0.008338 0.002193 0.031696 0.000000 0.001160 0.000000
# 4 0.000000 0.000000 0.000000 0.104902 0.000000 0.035946
# 5 0.001397 -0.001060 0.001160 0.000000 0.025462 0.000000
# 6 0.000000 0.000000 0.000000 0.035946 0.000000 0.077629
#
#
# Mechanical properties :
#
#
# Convention : Reuss Voigt Hill
#
# Bulk Modulus (GPa) = 10.32478 25.12648 17.72563
# Shear Modulus (GPa) = 14.32493 23.94311 19.13402
#
# Velocity S-wave (km/s) = 2.68607 3.47266 3.10438
# Velocity P-wave (km/s) = 3.84970 5.36046 4.66662
#
# Compressibility (1/GPa) = 0.09685435
#
# Stress axis : x y z
#
# Youngs Moduli (GPa) = 94.09009 16.53300 31.54936
#
# Poissons Ratio (x) = -0.05236 0.26305
# Poissons Ratio (y) = -0.29796 -0.06920
# Poissons Ratio (z) = 0.78450 -0.03626
#
# Static dielectric constant tensor:
#      x y z
#    x 1.692490 0.000000 0.008520 
#    y 0.000000 1.680190 0.000000 
#    z 0.008520 0.000000 1.674010 
# 
# From -- ./inp_files/26129.got.cif
#   From: 2010.05.17/outbox.cif.g08.bks.cpg/sg15_14_cif.got.tgz:26129.got - 2010.06.03 18:47:42.
