data_PCOD9295547
_publ_section_title
;
Structure prediction by ZEFSAII (Michael W. Deem and Ramdas Pophale) SiO2 
 PCOD9295547
Probable space group: C 2/C
;
_chemical_formula_sum "Si O2"
_cell_formula_units_Z 40
_cell_length_a 8.241186
_cell_length_b 23.404114
_cell_length_c 14.596627
_cell_angle_alpha 90.000000
_cell_angle_beta 138.067078
_cell_angle_gamma 90.000000
_cell_volume 1881.394970
_symmetry_space_group_name_H-M "C 2/C"
_symmetry_group_IT_number 15
_symmetry_cell_setting 'monoclinic'
loop_
_space_group_symop_operation_xyz
x,y,z
-x,y,1/2-z
-x,-y,-z
x,-y,1/2+z
1/2+x,1/2+y,z
1/2-x,1/2+y,1/2-z
1/2-x,1/2-y,-z
1/2+x,1/2-y,1/2+z
loop_
_atom_site_type_symbol
_atom_site_label
_atom_site_fract_x
_atom_site_fract_y
_atom_site_fract_z
Si Si1 0.768909 0.233993 0.900939
Si Si2 0.935582 0.127155 0.061420
Si Si3 0.264934 0.525428 0.084012
Si Si4 0.797010 0.560254 0.096825
Si Si5 0.930212 0.678339 0.324926
O O1 0.500000 0.235932 0.750000
O O2 0.941187 0.274237 0.910048
O O3 0.750000 0.250000 0.000000
O O4 0.847703 0.168527 0.944078
O O5 0.748239 0.092175 0.045361
O O6 0.086907 0.079023 0.075202
O O7 0.146106 0.160564 0.204647
O O8 0.500000 0.523277 0.250000
O O9 0.310427 0.482073 0.020889
O O10 0.000000 0.500000 0.000000
O O11 0.000000 0.534227 0.250000
O O12 0.917232 0.618862 0.104703
O O13 0.000000 0.699472 0.250000
#
# Coordination Sequence:
#
# PCOD9295547 Si02
#       5
#     8   8   8   8   8
#     4  12  25  40  67  97 136 184 230 290 352 427
#     4  10  23  43  64  92 137 178 227 280 356 412
#     4  12  26  42  71 102 138 180 232 295 354 424
#     4   9  21  43  70  92 133 181 228 285 351 420
#     4   9  21  44  69  96 137 188 230 286 359 424
#
# _framework density 21.260821
#
# number of rings (size 3 to 8) (size 9 to 14) (size 15 to 20)
#    0.000    2.000    2.000    3.000    5.600    5.600 
#    0.000    0.000    0.000    0.000    0.000    0.000 
#    0.000    0.000    0.000    0.000    0.000    0.000 
#
# Total GULP energy -111356.514342 kJ/mol
# GULP energy per Si atom -5567.825717 kJ/mol
# Density = 2.121243 g / cm^3
# Si number density = 21.260821 Si / 1000 Ang^3
#
#
#
# Elastic Constant Matrix: (Units=GPa)
#
#
# Indices 1 2 3 4 5 6 
#
# 1 79.9267 48.3644 37.0668 0.0000 -2.0362 0.0000
# 2 48.3644 104.2757 61.0230 0.0000 -7.3085 0.0000
# 3 37.0668 61.0230 105.8816 0.0000 -16.3015 0.0000
# 4 0.0000 0.0000 0.0000 35.7701 0.0000 -26.3067
# 5 -2.0362 -7.3085 -16.3015 0.0000 36.4967 0.0000
# 6 0.0000 0.0000 0.0000 -26.3067 0.0000 48.9851
#
#
#
# Elastic Compliance Matrix: (Units=1/GPa)
#
#
# Indices 1 2 3 4 5 6 
#
# 1 0.017806 -0.006912 -0.002481 0.000000 -0.001499 0.000000
# 2 -0.006912 0.017181 -0.007529 0.000000 -0.000308 0.000000
# 3 -0.002481 -0.007529 0.015462 0.000000 0.005260 0.000000
# 4 0.000000 0.000000 0.000000 0.046205 0.000000 0.024814
# 5 -0.001499 -0.000308 0.005260 0.000000 0.029604 0.000000
# 6 0.000000 0.000000 0.000000 0.024814 0.000000 0.033740
#
#
# Mechanical properties :
#
#
# Convention : Reuss Voigt Hill
#
# Bulk Modulus (GPa) = 60.22379 64.77692 62.50036
# Shear Modulus (GPa) = 25.07799 33.82570 29.45185
#
# Velocity S-wave (km/s) = 3.43817 3.99305 3.72595
# Velocity P-wave (km/s) = 6.64447 7.19674 6.92611
#
# Compressibility (1/GPa) = 0.01660473
#
# Stress axis : x y z
#
# Youngs Moduli (GPa) = 56.15981 58.20530 64.67388
#
# Poissons Ratio (x) = 0.40232 0.16043
# Poissons Ratio (y) = 0.38819 0.48695
# Poissons Ratio (z) = 0.13931 0.43825
#
# Static dielectric constant tensor:
#      x y z
#    x 2.044230 0.000000 0.223360 
#    y 0.000000 2.036370 0.000000 
#    z 0.223360 0.000000 1.788420 
# 
# From -- ./inp_files/137627.got.cif
#   From: 2010.05.17/outbox.cif.g08.bks.cpg/sg15_69_cif.got.tgz:137627.got - 2010.06.03 18:47:42.
