data_PCOD9295520
_publ_section_title
;
Structure prediction by ZEFSAII (Michael W. Deem and Ramdas Pophale) SiO2 
 PCOD9295520
Probable space group: C 2/C
;
_chemical_formula_sum "Si O2"
_cell_formula_units_Z 40
_cell_length_a 13.625619
_cell_length_b 11.566812
_cell_length_c 11.474300
_cell_angle_alpha 90.000000
_cell_angle_beta 72.027602
_cell_angle_gamma 90.000000
_cell_volume 1720.166033
_symmetry_space_group_name_H-M "C 2/C"
_symmetry_group_IT_number 15
_symmetry_cell_setting 'monoclinic'
loop_
_space_group_symop_operation_xyz
x,y,z
-x,y,1/2-z
-x,-y,-z
x,-y,1/2+z
1/2+x,1/2+y,z
1/2-x,1/2+y,1/2-z
1/2-x,1/2-y,-z
1/2+x,1/2-y,1/2+z
loop_
_atom_site_type_symbol
_atom_site_label
_atom_site_fract_x
_atom_site_fract_y
_atom_site_fract_z
Si Si1 0.019952 0.363654 0.492998
Si Si2 0.810201 0.228448 0.621411
Si Si3 0.110716 0.204282 0.654726
Si Si4 0.123116 0.977221 0.958107
Si Si5 0.106498 0.201833 0.267703
O O1 0.908250 0.302230 0.544841
O O2 0.000000 0.500000 0.500000
O O3 0.086020 0.312650 0.578288
O O4 0.075229 0.313665 0.357161
O O5 0.819027 0.228293 0.760314
O O6 0.695390 0.273162 0.642512
O O7 0.821762 0.098037 0.574947
O O8 0.148878 0.098897 0.561538
O O9 0.000000 0.170301 0.750000
O O10 0.144612 0.897791 0.839301
O O11 0.000000 0.000000 0.000000
O O12 0.000000 0.161771 0.250000
#
# Coordination Sequence:
#
# PCOD9295520 Si02
#       5
#     8   8   8   8   8
#     4  10  23  43  63 100 137 172 227 279 336 408
#     4  11  24  44  70 101 135 186 223 276 350 399
#     4   9  19  40  71  94 131 173 228 280 331 402
#     4  11  21  42  70 101 128 174 231 282 333 407
#     4  11  27  44  64  98 141 179 226 284 335 394
#
# _framework density 23.25357
#
# number of rings (size 3 to 8) (size 9 to 14) (size 15 to 20)
#    0.000    1.600    6.000    0.000    5.600    6.400 
#    3.600    0.000    0.000    0.000    0.000    0.000 
#    0.000    0.000    0.000    0.000    0.000    0.000 
#
# Total GULP energy -112005.126689 kJ/mol
# GULP energy per Si atom -5600.256334 kJ/mol
# Density = 2.320064 g / cm^3
# Si number density = 23.253570 Si / 1000 Ang^3
#
#
#
# Elastic Constant Matrix: (Units=GPa)
#
#
# Indices 1 2 3 4 5 6 
#
# 1 84.9144 26.4202 24.1153 0.0000 -8.3538 0.0000
# 2 26.4202 188.8432 53.9422 0.0000 -7.6288 0.0000
# 3 24.1153 53.9422 63.5324 0.0000 0.2679 0.0000
# 4 0.0000 0.0000 0.0000 27.1331 0.0000 -13.5457
# 5 -8.3538 -7.6288 0.2679 0.0000 56.0592 0.0000
# 6 0.0000 0.0000 0.0000 -13.5457 0.0000 14.6665
#
#
#
# Elastic Compliance Matrix: (Units=1/GPa)
#
#
# Indices 1 2 3 4 5 6 
#
# 1 0.013454 -0.000451 -0.004732 0.000000 0.001966 0.000000
# 2 -0.000451 0.007060 -0.005827 0.000000 0.000921 0.000000
# 3 -0.004732 -0.005827 0.022490 0.000000 -0.001606 0.000000
# 4 0.000000 0.000000 0.000000 0.068388 0.000000 0.063162
# 5 0.001966 0.000921 -0.001606 0.000000 0.018264 0.000000
# 6 0.000000 0.000000 0.000000 0.063162 0.000000 0.126517
#
#
# Mechanical properties :
#
#
# Convention : Reuss Voigt Hill
#
# Bulk Modulus (GPa) = 47.65501 60.69393 54.17447
# Shear Modulus (GPa) = 17.53216 35.09258 26.31237
#
# Velocity S-wave (km/s) = 2.74880 3.88896 3.36749
# Velocity P-wave (km/s) = 5.53287 6.80610 6.20224
#
# Compressibility (1/GPa) = 0.02098415
#
# Stress axis : x y z
#
# Youngs Moduli (GPa) = 74.32582 141.63836 44.46325
#
# Poissons Ratio (x) = 0.06391 0.21040
# Poissons Ratio (y) = 0.03354 0.25909
# Poissons Ratio (z) = 0.35172 0.82534
#
# Static dielectric constant tensor:
#      x y z
#    x 1.923320 0.000000 0.071630 
#    y 0.000000 1.836560 0.000000 
#    z 0.071630 0.000000 1.920340 
# 
# From -- ./inp_files/94906.got.cif
#   From: 2010.05.17/outbox.cif.g08.bks.cpg/sg15_48_cif.got.tgz:94906.got - 2010.06.03 18:47:42.
