data_PCOD9295533
_publ_section_title
;
Structure prediction by ZEFSAII (Michael W. Deem and Ramdas Pophale) SiO2 
 PCOD9295533
Probable space group: C 2/C
;
_chemical_formula_sum "Si O2"
_cell_formula_units_Z 56
_cell_length_a 16.718946
_cell_length_b 26.846054
_cell_length_c 7.861311
_cell_angle_alpha 90.000000
_cell_angle_beta 40.383228
_cell_angle_gamma 90.000000
_cell_volume 2286.073915
_symmetry_space_group_name_H-M "C 2/C"
_symmetry_group_IT_number 15
_symmetry_cell_setting 'monoclinic'
loop_
_space_group_symop_operation_xyz
x,y,z
-x,y,1/2-z
-x,-y,-z
x,-y,1/2+z
1/2+x,1/2+y,z
1/2-x,1/2+y,1/2-z
1/2-x,1/2-y,-z
1/2+x,1/2-y,1/2+z
loop_
_atom_site_type_symbol
_atom_site_label
_atom_site_fract_x
_atom_site_fract_y
_atom_site_fract_z
Si Si1 0.519108 0.097586 0.917068
Si Si2 0.271277 0.962389 0.311547
Si Si3 0.119746 0.310168 0.429580
Si Si4 0.385162 0.299856 0.568852
Si Si5 0.228942 0.348513 0.575184
Si Si6 0.925326 0.097475 0.192474
Si Si7 0.355073 0.557159 0.839199
O O1 0.500000 0.088067 0.750000
O O2 0.584975 0.050307 0.898207
O O3 0.603899 0.145812 0.820944
O O4 0.389980 0.116839 0.202369
O O5 0.204481 0.928434 0.561236
O O6 0.225126 0.945316 0.203446
O O7 0.210469 0.016179 0.439649
O O8 0.124177 0.255789 0.341288
O O9 0.226084 0.324806 0.392519
O O10 0.000000 0.310538 0.750000
O O11 0.257654 0.307526 0.669653
O O12 0.408294 0.346364 0.655088
O O13 0.500000 0.298081 0.250000
O O14 0.338699 0.387022 0.430391
O O15 0.000000 0.098412 0.250000
O O16 0.002155 0.058719 0.948067
#
# Coordination Sequence:
#
# PCOD9295533 Si02
#       7
#     8   8   8   8   8   8   8
#     4  11  24  43  64  93 138 170 217 266 322 392
#     4  11  25  43  65  94 130 175 217 264 337 384
#     4   9  21  41  65  95 131 174 216 269 329 382
#     4  11  21  38  71  99 125 172 223 265 327 398
#     4  11  22  43  64  95 133 168 213 277 317 386
#     4  10  23  43  63  98 138 162 211 279 327 385
#     4  11  24  42  68  94 129 171 215 274 322 385
#
# _framework density 24.496147000000001
#
# number of rings (size 3 to 8) (size 9 to 14) (size 15 to 20)
#    0.000    1.429    2.857    1.714    4.000    1.143 
#    0.000    2.857    0.000    0.000    0.000    0.000 
#    0.000    0.000    0.000    0.000    0.000    0.000 
#
# Total GULP energy -156484.899537 kJ/mol
# GULP energy per Si atom -5588.746412 kJ/mol
# Density = 2.444039 g / cm^3
# Si number density = 24.496147 Si / 1000 Ang^3
#
#
#
# Elastic Constant Matrix: (Units=GPa)
#
#
# Indices 1 2 3 4 5 6 
#
# 1 86.1246 20.3750 7.8358 0.0000 -7.6182 0.0000
# 2 20.3750 118.0937 3.9879 0.0000 -4.4015 0.0000
# 3 7.8358 3.9879 44.6668 0.0000 -12.8658 0.0000
# 4 0.0000 0.0000 0.0000 25.4228 0.0000 4.6953
# 5 -7.6182 -4.4015 -12.8658 0.0000 30.5638 0.0000
# 6 0.0000 0.0000 0.0000 4.6953 0.0000 29.5414
#
#
#
# Elastic Compliance Matrix: (Units=1/GPa)
#
#
# Indices 1 2 3 4 5 6 
#
# 1 0.012408 -0.002012 -0.001354 0.000000 0.002233 0.000000
# 2 -0.002012 0.008848 -0.000244 0.000000 0.000670 0.000000
# 3 -0.001354 -0.000244 0.025650 0.000000 0.010425 0.000000
# 4 0.000000 0.000000 0.000000 0.040524 0.000000 -0.006441
# 5 0.002233 0.000670 0.010425 0.000000 0.037760 0.000000
# 6 0.000000 0.000000 0.000000 -0.006441 0.000000 0.034874
#
#
# Mechanical properties :
#
#
# Convention : Reuss Voigt Hill
#
# Bulk Modulus (GPa) = 25.19742 34.80916 30.00329
# Shear Modulus (GPa) = 27.69887 31.55137 29.62512
#
# Velocity S-wave (km/s) = 3.36630 3.59278 3.48139
# Velocity P-wave (km/s) = 5.04162 5.60818 5.33243
#
# Compressibility (1/GPa) = 0.03968660
#
# Stress axis : x y z
#
# Youngs Moduli (GPa) = 80.59490 113.01773 38.98630
#
# Poissons Ratio (x) = 0.22737 0.05278
# Poissons Ratio (y) = 0.16214 0.00951
# Poissons Ratio (z) = 0.10911 0.02758
#
# Static dielectric constant tensor:
#      x y z
#    x 1.963680 0.000000 -0.022570 
#    y 0.000000 1.930090 0.000000 
#    z -0.022570 0.000000 2.032470 
# 
# From -- ./inp_files/52285.got.cif
#   From: 2010.05.17/outbox.cif.g08.bks.cpg/sg15_27_cif.got.tgz:52285.got - 2010.06.03 18:47:42.
