data_PCOD9295559
_publ_section_title
;
Structure prediction by ZEFSAII (Michael W. Deem and Ramdas Pophale) SiO2 
 PCOD9295559
Probable space group: C 2/C
;
_chemical_formula_sum "Si O2"
_cell_formula_units_Z 56
_cell_length_a 24.537044
_cell_length_b 12.293831
_cell_length_c 8.643737
_cell_angle_alpha 90.000000
_cell_angle_beta 66.086891
_cell_angle_gamma 90.000000
_cell_volume 2383.602469
_symmetry_space_group_name_H-M "C 2/C"
_symmetry_group_IT_number 15
_symmetry_cell_setting 'monoclinic'
loop_
_space_group_symop_operation_xyz
x,y,z
-x,y,1/2-z
-x,-y,-z
x,-y,1/2+z
1/2+x,1/2+y,z
1/2-x,1/2+y,1/2-z
1/2-x,1/2-y,-z
1/2+x,1/2-y,1/2+z
loop_
_atom_site_type_symbol
_atom_site_label
_atom_site_fract_x
_atom_site_fract_y
_atom_site_fract_z
Si Si1 0.500000 0.831706 0.250000
Si Si2 0.083598 0.099396 0.902891
Si Si3 0.597588 0.987465 0.210660
Si Si4 0.500000 0.478935 0.750000
Si Si5 0.667371 0.130277 0.894772
Si Si6 0.214993 0.162759 0.428875
Si Si7 0.969128 0.302040 0.620646
Si Si8 0.714002 0.481147 0.219261
O O1 0.558616 0.905008 0.155647
O O2 0.507615 0.785685 0.418202
O O3 0.087712 0.223913 0.844034
O O4 0.146278 0.040482 0.848803
O O5 0.048664 0.090980 0.103592
O O6 0.039065 0.046599 0.827800
O O7 0.627383 0.914660 0.305486
O O8 0.551611 0.075217 0.330765
O O9 0.647131 0.057365 0.063832
O O10 0.661728 0.257956 0.936559
O O11 0.735559 0.100574 0.774603
O O12 0.250000 0.250000 0.500000
O O13 0.208723 0.057986 0.546838
O O14 0.234851 0.101766 0.247465
O O15 0.000000 0.272820 0.750000
#
# Coordination Sequence:
#
# PCOD9295559 Si02
#       8
#     4   8   8   4   8   8   8   8
#     4  12  25  45  66 108 146 190 253 311 376 452
#     4  11  23  43  68 100 140 188 244 304 376 442
#     4  12  23  45  69 101 147 187 247 307 369 455
#     4  10  23  43  64  96 140 184 245 311 360 444
#     4  11  24  44  70 104 144 192 238 305 375 444
#     4  10  23  46  70 101 143 187 241 295 364 439
#     4  12  24  44  74 104 146 196 247 312 388 447
#     4  11  23  45  72 103 142 187 243 300 362 453
#
# _framework density 23.493849000000001
#
# number of rings (size 3 to 8) (size 9 to 14) (size 15 to 20)
#    0.000    0.857    2.857    5.143    0.000    1.143 
#   10.286    3.571    0.000    0.000    0.000    0.000 
#    0.000    0.000    0.000    0.000    0.000    0.000 
#
# Total GULP energy -156000.708796 kJ/mol
# GULP energy per Si atom -5571.453886 kJ/mol
# Density = 2.344038 g / cm^3
# Si number density = 23.493849 Si / 1000 Ang^3
#
#
#
# Elastic Constant Matrix: (Units=GPa)
#
#
# Indices 1 2 3 4 5 6 
#
# 1 75.7880 19.9249 24.7133 0.0000 8.2864 0.0000
# 2 19.9249 82.4180 31.8396 0.0000 25.2256 0.0000
# 3 24.7133 31.8396 121.2640 0.0000 17.6695 0.0000
# 4 0.0000 0.0000 0.0000 23.9873 0.0000 13.3388
# 5 8.2864 25.2256 17.6695 0.0000 39.7785 0.0000
# 6 0.0000 0.0000 0.0000 13.3388 0.0000 35.6414
#
#
#
# Elastic Compliance Matrix: (Units=1/GPa)
#
#
# Indices 1 2 3 4 5 6 
#
# 1 0.014644 -0.002534 -0.002255 0.000000 -0.000442 0.000000
# 2 -0.002534 0.016396 -0.002513 0.000000 -0.008753 0.000000
# 3 -0.002255 -0.002513 0.009693 0.000000 -0.002242 0.000000
# 4 0.000000 0.000000 0.000000 0.052645 0.000000 -0.019702
# 5 -0.000442 -0.008753 -0.002242 0.000000 0.031778 0.000000
# 6 0.000000 0.000000 0.000000 -0.019702 0.000000 0.035431
#
#
# Mechanical properties :
#
#
# Convention : Reuss Voigt Hill
#
# Bulk Modulus (GPa) = 38.27141 48.04729 43.15935
# Shear Modulus (GPa) = 27.18871 33.41425 30.30148
#
# Velocity S-wave (km/s) = 3.40556 3.77537 3.59522
# Velocity P-wave (km/s) = 5.63818 6.28490 5.97030
#
# Compressibility (1/GPa) = 0.02612917
#
# Stress axis : x y z
#
# Youngs Moduli (GPa) = 68.28516 60.99117 103.17244
#
# Poissons Ratio (x) = 0.15455 0.23263
# Poissons Ratio (y) = 0.17303 0.25928
# Poissons Ratio (z) = 0.15397 0.15328
#
# Static dielectric constant tensor:
#      x y z
#    x 1.934920 0.000000 -0.070830 
#    y 0.000000 1.968810 0.000000 
#    z -0.070830 0.000000 2.033370 
# 
# From -- ./inp_files/65466.got.cif
#   From: 2010.05.17/outbox.cif.g08.bks.cpg/sg15_33_cif.got.tgz:65466.got - 2010.06.03 18:47:42.
