data_PCOD9295188
_publ_section_title
;
Structure prediction by ZEFSAII (Michael W. Deem and Ramdas Pophale) SiO2 
 PCOD9295188
Probable space group: C 2/C
;
_chemical_formula_sum "Si O2"
_cell_formula_units_Z 40
_cell_length_a 10.112156
_cell_length_b 16.305593
_cell_length_c 14.688970
_cell_angle_alpha 90.000000
_cell_angle_beta 124.212432
_cell_angle_gamma 90.000000
_cell_volume 2002.882480
_symmetry_space_group_name_H-M "C 2/C"
_symmetry_group_IT_number 15
_symmetry_cell_setting 'monoclinic'
loop_
_space_group_symop_operation_xyz
x,y,z
-x,y,1/2-z
-x,-y,-z
x,-y,1/2+z
1/2+x,1/2+y,z
1/2-x,1/2+y,1/2-z
1/2-x,1/2-y,-z
1/2+x,1/2-y,1/2+z
loop_
_atom_site_type_symbol
_atom_site_label
_atom_site_fract_x
_atom_site_fract_y
_atom_site_fract_z
Si Si1 0.566586 0.323226 0.871196
Si Si2 0.640193 0.655591 0.739671
Si Si3 0.619382 0.923676 0.026788
Si Si4 0.947259 0.006900 0.582706
Si Si5 0.407140 0.224332 0.443279
O O1 0.500000 0.289161 0.750000
O O2 0.526351 0.418400 0.863508
O O3 0.757738 0.318052 0.935409
O O4 0.515353 0.278153 0.944752
O O5 0.500000 0.692416 0.750000
O O6 0.794342 0.622211 0.853789
O O7 0.559952 0.573135 0.671946
O O8 0.657207 0.716825 0.661455
O O9 0.766411 0.960388 0.025858
O O10 0.519115 0.847469 0.947509
O O11 0.500000 0.000000 0.000000
O O12 0.000000 0.000000 0.500000
#
# Coordination Sequence:
#
# PCOD9295188 Si02
#       5
#     8   8   8   8   8
#     4  11  22  40  66  92 130 176 218 268 333 392
#     4  10  23  42  66  93 136 174 212 273 335 390
#     4  11  23  43  67  98 134 171 223 276 327 393
#     4  11  22  43  66  93 132 177 218 266 334 398
#     4  11  23  41  65  99 128 168 224 277 324 389
#
# _framework density 19.971216999999999
#
# number of rings (size 3 to 8) (size 9 to 14) (size 15 to 20)
#    0.000    1.200    4.000    3.000    0.000    3.200 
#    3.600    3.000    0.000    0.000    0.000    0.000 
#    0.000    0.000    0.000    0.000    0.000    0.000 
#
# Total GULP energy -111517.588214 kJ/mol
# GULP energy per Si atom -5575.879411 kJ/mol
# Density = 1.992576 g / cm^3
# Si number density = 19.971217 Si / 1000 Ang^3
#
#
#
# Elastic Constant Matrix: (Units=GPa)
#
#
# Indices 1 2 3 4 5 6 
#
# 1 67.7021 40.5779 35.7844 0.0000 -5.6885 0.0000
# 2 40.5779 110.0166 29.7397 0.0000 0.5814 0.0000
# 3 35.7844 29.7397 82.5022 0.0000 -11.0617 0.0000
# 4 0.0000 0.0000 0.0000 15.7277 0.0000 -6.5551
# 5 -5.6885 0.5814 -11.0617 0.0000 37.9108 0.0000
# 6 0.0000 0.0000 0.0000 -6.5551 0.0000 29.0300
#
#
#
# Elastic Compliance Matrix: (Units=1/GPa)
#
#
# Indices 1 2 3 4 5 6 
#
# 1 0.022555 -0.006349 -0.007314 0.000000 0.001348 0.000000
# 2 -0.006349 0.011917 -0.001763 0.000000 -0.001650 0.000000
# 3 -0.007314 -0.001763 0.016428 0.000000 0.003723 0.000000
# 4 0.000000 0.000000 0.000000 0.070187 0.000000 0.015849
# 5 0.001348 -0.001650 0.003723 0.000000 0.027692 0.000000
# 6 0.000000 0.000000 0.000000 0.015849 0.000000 0.038026
#
#
# Mechanical properties :
#
#
# Convention : Reuss Voigt Hill
#
# Bulk Modulus (GPa) = 49.88038 52.49166 51.18602
# Shear Modulus (GPa) = 22.28781 26.80831 24.54806
#
# Velocity S-wave (km/s) = 3.34428 3.66778 3.50976
# Velocity P-wave (km/s) = 6.32002 6.65414 6.48923
#
# Compressibility (1/GPa) = 0.02004796
#
# Stress axis : x y z
#
# Youngs Moduli (GPa) = 44.33631 83.91663 60.87273
#
# Poissons Ratio (x) = 0.53280 0.44520
# Poissons Ratio (y) = 0.28150 0.10731
# Poissons Ratio (z) = 0.32426 0.14794
#
# Static dielectric constant tensor:
#      x y z
#    x 1.761180 0.000000 0.013220 
#    y 0.000000 1.696350 0.000000 
#    z 0.013220 0.000000 1.731790 
# 
# From -- ./inp_files/77863.got.cif
#   From: 2010.05.17/outbox.cif.g08.bks.cpg/sg15_39_cif.got.tgz:77863.got - 2010.06.03 18:47:42.
