data_PCOD9295721
_publ_section_title
;
Structure prediction by ZEFSAII (Michael W. Deem and Ramdas Pophale) SiO2 
 PCOD9295721
Probable space group: C 2/C
;
_chemical_formula_sum "Si O2"
_cell_formula_units_Z 32
_cell_length_a 20.702569
_cell_length_b 17.089857
_cell_length_c 8.234074
_cell_angle_alpha 90.000000
_cell_angle_beta 32.336363
_cell_angle_gamma 90.000000
_cell_volume 1558.263330
_symmetry_space_group_name_H-M "C 2/C"
_symmetry_group_IT_number 15
_symmetry_cell_setting 'monoclinic'
loop_
_space_group_symop_operation_xyz
x,y,z
-x,y,1/2-z
-x,-y,-z
x,-y,1/2+z
1/2+x,1/2+y,z
1/2-x,1/2+y,1/2-z
1/2-x,1/2-y,-z
1/2+x,1/2-y,1/2+z
loop_
_atom_site_type_symbol
_atom_site_label
_atom_site_fract_x
_atom_site_fract_y
_atom_site_fract_z
Si Si1 0.603281 0.558724 0.845285
Si Si2 0.000000 0.200006 0.250000
Si Si3 0.923301 0.348560 0.255819
Si Si4 0.500000 0.910577 0.750000
Si Si5 0.772007 0.526834 0.209269
O O1 0.721810 0.564343 0.479974
O O2 0.657427 0.520101 0.890144
O O3 0.500000 0.500000 0.000000
O O4 0.556867 0.643729 0.994431
O O5 0.911195 0.258937 0.339604
O O6 0.806930 0.403739 0.511417
O O7 0.000000 0.379980 0.250000
O O8 0.985597 0.361705 0.948920
O O9 0.617411 0.966498 0.510995
#
# Coordination Sequence:
#
# PCOD9295721 Si02
#       5
#     8   4   8   4   8
#     4  12  24  45  67  98 141 189 236 279 349 430
#     4  10  25  48  63 104 146 186 232 286 365 416
#     4  10  23  43  68 105 144 174 232 293 357 403
#     4  12  21  44  73 112 134 180 242 298 351 410
#     4  12  22  42  76  98 136 187 239 293 342 420
#
# _framework density 20.535679999999999
#
# number of rings (size 3 to 8) (size 9 to 14) (size 15 to 20)
#    0.750    0.000    6.250    2.250    0.000    1.000 
#    4.500    2.500    0.000    0.000    0.000    0.000 
#    0.000    0.000    0.000    0.000    0.000    0.000 
#
# Total GULP energy -89083.851326 kJ/mol
# GULP energy per Si atom -5567.740708 kJ/mol
# Density = 2.048894 g / cm^3
# Si number density = 20.535680 Si / 1000 Ang^3
#
#
#
# Elastic Constant Matrix: (Units=GPa)
#
#
# Indices 1 2 3 4 5 6 
#
# 1 72.3511 26.3280 23.9853 0.0000 3.3575 0.0000
# 2 26.3280 129.3191 29.8582 0.0000 2.4309 0.0000
# 3 23.9853 29.8582 114.3486 0.0000 31.8385 0.0000
# 4 0.0000 0.0000 0.0000 195.6065 0.0000 2.1587
# 5 3.3575 2.4309 31.8385 0.0000 49.3936 0.0000
# 6 0.0000 0.0000 0.0000 2.1587 0.0000 20.9623
#
#
#
# Elastic Compliance Matrix: (Units=1/GPa)
#
#
# Indices 1 2 3 4 5 6 
#
# 1 0.015657 -0.002541 -0.002875 0.000000 0.000914 0.000000
# 2 -0.002541 0.008700 -0.002032 0.000000 0.001054 0.000000
# 3 -0.002875 -0.002032 0.011939 0.000000 -0.007401 0.000000
# 4 0.000000 0.000000 0.000000 0.005118 0.000000 -0.000527
# 5 0.000914 0.001054 -0.007401 0.000000 0.024902 0.000000
# 6 0.000000 0.000000 0.000000 -0.000527 0.000000 0.047759
#
#
# Mechanical properties :
#
#
# Convention : Reuss Voigt Hill
#
# Bulk Modulus (GPa) = 46.73061 52.92911 49.82986
# Shear Modulus (GPa) = 36.73648 68.91562 52.82605
#
# Velocity S-wave (km/s) = 4.23414 5.79929 5.07739
# Velocity P-wave (km/s) = 6.83441 8.40670 7.66100
#
# Compressibility (1/GPa) = 0.02139925
#
# Stress axis : x y z
#
# Youngs Moduli (GPa) = 63.86984 114.94909 83.75577
#
# Poissons Ratio (x) = 0.29208 0.24081
# Poissons Ratio (y) = 0.16229 0.17021
# Poissons Ratio (z) = 0.18364 0.23360
#
# Static dielectric constant tensor:
#      x y z
#    x 1.846210 0.000000 0.036830 
#    y 0.000000 1.734970 0.000000 
#    z 0.036830 0.000000 1.828870 
# 
# From -- ./inp_files/28347.got.cif
#   From: 2010.05.17/outbox.cif.g08.bks.cpg/sg15_15_cif.got.tgz:28347.got - 2010.06.03 18:47:42.
