data_PCOD9295705
_publ_section_title
;
Structure prediction by ZEFSAII (Michael W. Deem and Ramdas Pophale) SiO2 
 PCOD9295705
Probable space group: C 2/C
;
_chemical_formula_sum "Si O2"
_cell_formula_units_Z 36
_cell_length_a 18.667849
_cell_length_b 11.750652
_cell_length_c 14.263659
_cell_angle_alpha 90.000000
_cell_angle_beta 155.908694
_cell_angle_gamma 90.000000
_cell_volume 1277.178562
_symmetry_space_group_name_H-M "C 2/C"
_symmetry_group_IT_number 15
_symmetry_cell_setting 'monoclinic'
loop_
_space_group_symop_operation_xyz
x,y,z
-x,y,1/2-z
-x,-y,-z
x,-y,1/2+z
1/2+x,1/2+y,z
1/2-x,1/2+y,1/2-z
1/2-x,1/2-y,-z
1/2+x,1/2-y,1/2+z
loop_
_atom_site_type_symbol
_atom_site_label
_atom_site_fract_x
_atom_site_fract_y
_atom_site_fract_z
Si Si1 0.363328 0.586101 0.886872
Si Si2 0.996329 0.246599 0.574965
Si Si3 0.138608 0.507249 0.275673
Si Si4 0.594714 0.761192 0.240734
Si Si5 0.500000 0.416895 0.250000
O O1 0.334705 0.680850 0.771949
O O2 0.210689 0.516751 0.755724
O O3 0.500000 0.500000 0.000000
O O4 0.458844 0.657204 0.084758
O O5 0.045507 0.371836 0.667665
O O6 0.874957 0.249609 0.336218
O O7 0.953617 0.164252 0.608231
O O8 0.034614 0.392810 0.179276
O O9 0.317747 0.518133 0.550069
O O10 0.750000 0.750000 0.500000
#
# Coordination Sequence:
#
# PCOD9295705 Si02
#       5
#     8   8   8   8   4
#     4  10  23  43  68 100 138 181 231 284 353 406
#     4  10  26  44  70 108 137 191 230 285 359 418
#     4  12  23  46  71  98 147 177 238 292 348 420
#     4  10  24  43  70 102 135 181 239 287 355 405
#     4  12  24  46  70 102 144 188 232 284 354 432
#
# _framework density 28.187131000000001
#
# number of rings (size 3 to 8) (size 9 to 14) (size 15 to 20)
#    1.333    0.000    2.222    2.667    6.222    0.000 
#    0.000    2.222    0.000    0.000    0.000    0.000 
#    0.000    0.000    0.000    0.000    0.000    0.000 
#
# Total GULP energy -100587.905535 kJ/mol
# GULP energy per Si atom -5588.216974 kJ/mol
# Density = 2.812298 g / cm^3
# Si number density = 28.187131 Si / 1000 Ang^3
#
#
#
# Elastic Constant Matrix: (Units=GPa)
#
#
# Indices 1 2 3 4 5 6 
#
# 1 84.8146 11.3796 1.6030 -0.0001 -14.0240 -0.0001
# 2 11.3796 182.8857 40.5188 -0.0001 -1.6813 -0.0001
# 3 1.6030 40.5188 150.2175 -0.0001 -18.3111 -0.0001
# 4 -0.0001 -0.0001 -0.0001 75.2954 -0.0001 -0.4556
# 5 -14.0240 -1.6813 -18.3111 -0.0001 37.4734 -0.0001
# 6 -0.0001 -0.0001 -0.0001 -0.4556 -0.0001 42.1901
#
#
#
# Elastic Compliance Matrix: (Units=1/GPa)
#
#
# Indices 1 2 3 4 5 6 
#
# 1 0.012739 -0.000907 0.000728 0.000000 0.005083 0.000000
# 2 -0.000907 0.005890 -0.001689 0.000000 -0.000901 0.000000
# 3 0.000728 -0.001689 0.007580 0.000000 0.003901 0.000000
# 4 0.000000 0.000000 0.000000 0.013282 0.000000 0.000143
# 5 0.005083 -0.000901 0.003901 0.000000 0.030453 0.000000
# 6 0.000000 0.000000 0.000000 0.000143 0.000000 0.023704
#
#
# Mechanical properties :
#
#
# Convention : Reuss Voigt Hill
#
# Bulk Modulus (GPa) = 44.49656 58.32452 51.41054
# Shear Modulus (GPa) = 47.67565 55.28620 51.48093
#
# Velocity S-wave (km/s) = 4.11712 4.43357 4.27827
# Velocity P-wave (km/s) = 6.19849 6.85168 6.53326
#
# Compressibility (1/GPa) = 0.02247365
#
# Stress axis : x y z
#
# Youngs Moduli (GPa) = 78.50042 169.77215 131.92098
#
# Poissons Ratio (x) = 0.15403 -0.09608
# Poissons Ratio (y) = 0.07122 0.22280
# Poissons Ratio (z) = -0.05717 0.28673
#
# Static dielectric constant tensor:
#      x y z
#    x 2.374580 0.000000 0.201050 
#    y 0.000000 2.214850 0.000000 
#    z 0.201050 0.000000 2.346670 
# 
# From -- ./inp_files/222499.got.cif
#   From: 2010.05.17/outbox.cif.g08.bks.cpg/sg15_112_cif.got.tgz:222499.got - 2010.06.03 18:47:42.
