data_PCOD9295998
_publ_section_title
;
Structure prediction by ZEFSAII (Michael W. Deem and Ramdas Pophale) SiO2 
 PCOD9295998
Probable space group: C 2/C
;
_chemical_formula_sum "Si O2"
_cell_formula_units_Z 44
_cell_length_a 20.512319
_cell_length_b 10.099387
_cell_length_c 11.175480
_cell_angle_alpha 90.000000
_cell_angle_beta 79.387469
_cell_angle_gamma 90.000000
_cell_volume 2275.532954
_symmetry_space_group_name_H-M "C 2/C"
_symmetry_group_IT_number 15
_symmetry_cell_setting 'monoclinic'
loop_
_space_group_symop_operation_xyz
x,y,z
-x,y,1/2-z
-x,-y,-z
x,-y,1/2+z
1/2+x,1/2+y,z
1/2-x,1/2+y,1/2-z
1/2-x,1/2-y,-z
1/2+x,1/2-y,1/2+z
loop_
_atom_site_type_symbol
_atom_site_label
_atom_site_fract_x
_atom_site_fract_y
_atom_site_fract_z
Si Si1 0.000000 0.233206 0.250000
Si Si2 0.820519 0.922626 0.527596
Si Si3 0.939831 0.409835 0.476679
Si Si4 0.164689 0.375269 0.557739
Si Si5 0.069862 0.726340 0.281081
Si Si6 0.385875 0.479666 0.760113
O O1 0.034825 0.330477 0.145139
O O2 0.060097 0.136809 0.268981
O O3 0.842817 0.767702 0.505274
O O4 0.741112 0.914733 0.541685
O O5 0.841207 0.970535 0.653908
O O6 0.849173 0.007757 0.403704
O O7 0.877438 0.505999 0.483344
O O8 0.926769 0.302036 0.581656
O O9 0.000000 0.500000 0.500000
O O10 0.130250 0.347678 0.696617
O O11 0.000000 0.678349 0.250000
O O12 0.076403 0.881108 0.257269
#
# Coordination Sequence:
#
# PCOD9295998 Si02
#       6
#     4   8   8   8   8   8
#     4  12  26  40  68 100 130 172 224 280 330 388
#     4  10  24  45  68  94 133 181 217 269 333 399
#     4  12  23  39  64  98 133 166 218 276 332 387
#     4  10  23  44  64  94 134 176 216 273 333 402
#     4  11  22  40  65  94 129 174 218 275 332 383
#     4  11  24  44  67  95 130 176 227 271 327 399
#
# _framework density 19.336129
#
# number of rings (size 3 to 8) (size 9 to 14) (size 15 to 20)
#    0.000    1.091    2.727    3.273    5.091    1.455 
#    6.545    1.818    0.000    0.000    0.000    0.000 
#    0.000    0.000    0.000    0.000    0.000    0.000 
#
# Total GULP energy -122721.916722 kJ/mol
# GULP energy per Si atom -5578.268942 kJ/mol
# Density = 1.929212 g / cm^3
# Si number density = 19.336129 Si / 1000 Ang^3
#
#
#
# Elastic Constant Matrix: (Units=GPa)
#
#
# Indices 1 2 3 4 5 6 
#
# 1 106.2223 45.3682 47.5638 0.0000 -4.5059 0.0000
# 2 45.3682 55.2204 18.6599 0.0000 -0.9986 0.0000
# 3 47.5638 18.6599 105.3227 0.0000 0.8980 0.0000
# 4 0.0000 0.0000 0.0000 72.8519 0.0000 -82.2007
# 5 -4.5059 -0.9986 0.8980 0.0000 27.8932 0.0000
# 6 0.0000 0.0000 0.0000 -82.2007 0.0000 171.4752
#
#
#
# Elastic Compliance Matrix: (Units=1/GPa)
#
#
# Indices 1 2 3 4 5 6 
#
# 1 0.017284 -0.012243 -0.005658 0.000000 0.002536 0.000000
# 2 -0.012243 0.027952 0.000585 0.000000 -0.000996 0.000000
# 3 -0.005658 0.000585 0.011957 0.000000 -0.001278 0.000000
# 4 0.000000 0.000000 0.000000 0.029898 0.000000 0.014332
# 5 0.002536 -0.000996 -0.001278 0.000000 0.036266 0.000000
# 6 0.000000 0.000000 0.000000 0.014332 0.000000 0.012702
#
#
# Mechanical properties :
#
#
# Convention : Reuss Voigt Hill
#
# Bulk Modulus (GPa) = 44.32279 54.43882 49.38080
# Shear Modulus (GPa) = 28.05644 64.78895 46.42270
#
# Velocity S-wave (km/s) = 3.81331 5.79478 4.90514
# Velocity P-wave (km/s) = 6.50849 8.54328 7.59434
#
# Compressibility (1/GPa) = 0.02256176
#
# Stress axis : x y z
#
# Youngs Moduli (GPa) = 57.85584 35.77570 83.63213
#
# Poissons Ratio (x) = 0.43799 0.47321
# Poissons Ratio (y) = 0.70831 -0.04893
# Poissons Ratio (z) = 0.32736 -0.02093
#
# Static dielectric constant tensor:
#      x y z
#    x 1.653460 0.000000 0.001780 
#    y 0.000000 1.951430 0.000000 
#    z 0.001780 0.000000 1.690500 
# 
# From -- ./inp_files/110025.got.cif
#   From: 2010.05.17/outbox.cif.g08.bks.cpg/sg15_56_cif.got.tgz:110025.got - 2010.06.03 18:47:42.
