data_PCOD9295293
_publ_section_title
;
Structure prediction by ZEFSAII (Michael W. Deem and Ramdas Pophale) SiO2 
 PCOD9295293
Probable space group: C 2/C
;
_chemical_formula_sum "Si O2"
_cell_formula_units_Z 48
_cell_length_a 20.935803
_cell_length_b 11.107419
_cell_length_c 11.800615
_cell_angle_alpha 90.000000
_cell_angle_beta 135.092739
_cell_angle_gamma 90.000000
_cell_volume 1937.261882
_symmetry_space_group_name_H-M "C 2/C"
_symmetry_group_IT_number 15
_symmetry_cell_setting 'monoclinic'
loop_
_space_group_symop_operation_xyz
x,y,z
-x,y,1/2-z
-x,-y,-z
x,-y,1/2+z
1/2+x,1/2+y,z
1/2-x,1/2+y,1/2-z
1/2-x,1/2-y,-z
1/2+x,1/2-y,1/2+z
loop_
_atom_site_type_symbol
_atom_site_label
_atom_site_fract_x
_atom_site_fract_y
_atom_site_fract_z
Si Si1 0.587456 0.937576 0.167891
Si Si2 0.918115 0.662013 0.222462
Si Si3 0.194997 0.087351 0.319174
Si Si4 0.877431 0.730270 0.586771
Si Si5 0.383690 0.668311 0.854531
Si Si6 0.318677 0.237891 0.885744
O O1 0.569036 0.844362 0.247580
O O2 0.648992 0.876008 0.149994
O O3 0.633827 0.051812 0.286039
O O4 0.500000 0.000000 0.000000
O O5 0.950176 0.756034 0.357383
O O6 0.000000 0.610661 0.250000
O O7 0.860136 0.733871 0.060391
O O8 0.165527 0.160404 0.393777
O O9 0.302375 0.128061 0.453681
O O10 0.155821 0.150559 0.158136
O O11 0.149041 0.956851 0.244557
O O12 0.913056 0.804532 0.521359
O O13 0.287584 0.734738 0.732790
#
# Coordination Sequence:
#
# PCOD9295293 Si02
#       6
#     8   8   8   8   8   8
#     4  11  23  43  70  95 144 187 225 301 353 426
#     4  12  26  42  64 101 143 181 235 287 359 425
#     4   9  20  41  68  99 141 176 229 300 346 415
#     4   9  21  41  68 104 136 180 238 285 361 417
#     4  11  24  39  73 103 135 186 233 301 352 418
#     4  10  23  42  68 103 134 182 241 287 356 419
#
# _framework density 24.777239000000002
#
# number of rings (size 3 to 8) (size 9 to 14) (size 15 to 20)
#    0.000    1.667    1.667    2.500    9.333    0.000 
#    0.000    0.833    0.000    0.000    0.000    0.000 
#    0.000    0.000    0.000    0.000    0.000    0.000 
#
# Total GULP energy -133759.920002 kJ/mol
# GULP energy per Si atom -5573.330000 kJ/mol
# Density = 2.472084 g / cm^3
# Si number density = 24.777239 Si / 1000 Ang^3
#
#
#
# Elastic Constant Matrix: (Units=GPa)
#
#
# Indices 1 2 3 4 5 6 
#
# 1 61.1024 34.9058 15.4943 0.0000 -24.4629 0.0000
# 2 34.9058 148.2392 21.2596 0.0000 -23.4708 0.0000
# 3 15.4943 21.2596 111.0787 0.0000 -30.3973 0.0000
# 4 0.0000 0.0000 0.0000 46.4299 0.0000 -6.7311
# 5 -24.4629 -23.4708 -30.3973 0.0000 42.0116 0.0000
# 6 0.0000 0.0000 0.0000 -6.7311 0.0000 19.7288
#
#
#
# Elastic Compliance Matrix: (Units=1/GPa)
#
#
# Indices 1 2 3 4 5 6 
#
# 1 0.023027 -0.003643 0.000745 0.000000 0.011912 0.000000
# 2 -0.003643 0.007988 -0.000474 0.000000 0.001999 0.000000
# 3 0.000745 -0.000474 0.011266 0.000000 0.008321 0.000000
# 4 0.000000 0.000000 0.000000 0.022659 0.000000 0.007731
# 5 0.011912 0.001999 0.008321 0.000000 0.037877 0.000000
# 6 0.000000 0.000000 0.000000 0.007731 0.000000 0.053325
#
#
# Mechanical properties :
#
#
# Convention : Reuss Voigt Hill
#
# Bulk Modulus (GPa) = 28.13845 51.52665 39.83255
# Shear Modulus (GPa) = 28.61532 38.21810 33.41671
#
# Velocity S-wave (km/s) = 3.40207 3.93169 3.67643
# Velocity P-wave (km/s) = 5.17816 6.43832 5.84232
#
# Compressibility (1/GPa) = 0.03553856
#
# Stress axis : x y z
#
# Youngs Moduli (GPa) = 43.42648 125.18678 88.75921
#
# Poissons Ratio (x) = 0.45606 -0.06613
# Poissons Ratio (y) = 0.15820 0.04205
# Poissons Ratio (z) = -0.03236 0.05931
#
# Static dielectric constant tensor:
#      x y z
#    x 2.014190 0.000000 0.038100 
#    y 0.000000 1.976490 0.000000 
#    z 0.038100 0.000000 2.064590 
# 
# From -- ./inp_files/117720.got.cif
#   From: 2010.05.17/outbox.cif.g08.bks.cpg/sg15_59_cif.got.tgz:117720.got - 2010.06.03 18:47:42.
