data_PCOD9295267
_publ_section_title
;
Structure prediction by ZEFSAII (Michael W. Deem and Ramdas Pophale) SiO2 
 PCOD9295267
Probable space group: C 2/C
;
_chemical_formula_sum "Si O2"
_cell_formula_units_Z 48
_cell_length_a 8.171863
_cell_length_b 20.342341
_cell_length_c 15.472318
_cell_angle_alpha 90.000000
_cell_angle_beta 60.330767
_cell_angle_gamma 90.000000
_cell_volume 2234.837291
_symmetry_space_group_name_H-M "C 2/C"
_symmetry_group_IT_number 15
_symmetry_cell_setting 'monoclinic'
loop_
_space_group_symop_operation_xyz
x,y,z
-x,y,1/2-z
-x,-y,-z
x,-y,1/2+z
1/2+x,1/2+y,z
1/2-x,1/2+y,1/2-z
1/2-x,1/2-y,-z
1/2+x,1/2-y,1/2+z
loop_
_atom_site_type_symbol
_atom_site_label
_atom_site_fract_x
_atom_site_fract_y
_atom_site_fract_z
Si Si1 0.065847 0.082341 0.332730
Si Si2 0.923366 0.347074 0.140243
Si Si3 0.640309 0.354337 0.462611
Si Si4 0.634897 0.564049 0.798155
Si Si5 0.201972 0.786196 0.748895
Si Si6 0.545802 0.223711 0.028062
O O1 0.201383 0.145751 0.302191
O O2 0.000000 0.079012 0.250000
O O3 0.901856 0.100418 0.443567
O O4 0.146018 0.010295 0.329708
O O5 0.830143 0.409131 0.209120
O O6 0.805101 0.282685 0.199214
O O7 0.139816 0.342663 0.110592
O O8 0.928840 0.341502 0.035440
O O9 0.567923 0.389188 0.394125
O O10 0.547355 0.283470 0.502340
O O11 0.500000 0.567823 0.750000
O O12 0.388628 0.786677 0.641995
O O13 0.000000 0.786601 0.750000
O O14 0.750000 0.250000 0.000000
#
# Coordination Sequence:
#
# PCOD9295267 Si02
#       6
#     8   8   8   8   8   8
#     4  10  23  42  67  97 135 172 222 279 337 398
#     4  12  22  40  71  97 130 177 232 273 328 415
#     4  12  22  44  71  99 130 180 231 276 335 412
#     4  11  24  43  65  97 137 177 217 278 342 398
#     4  11  20  40  67  96 132 170 226 276 330 400
#     4  12  25  39  63 105 136 171 220 287 344 390
#
# _framework density 21.478073999999999
#
# number of rings (size 3 to 8) (size 9 to 14) (size 15 to 20)
#    0.000    0.667    5.000    4.500    0.000    0.000 
#    0.000   12.500    0.000    0.000    0.000    0.000 
#    0.000    0.000    0.000    0.000    0.000    0.000 
#
# Total GULP energy -134018.485540 kJ/mol
# GULP energy per Si atom -5584.103564 kJ/mol
# Density = 2.142919 g / cm^3
# Si number density = 21.478074 Si / 1000 Ang^3
#
#
#
# Elastic Constant Matrix: (Units=GPa)
#
#
# Indices 1 2 3 4 5 6 
#
# 1 55.2452 -8.2121 14.5167 0.0000 -12.0129 0.0000
# 2 -8.2121 97.8318 33.6222 0.0000 -7.6496 0.0000
# 3 14.5167 33.6222 140.8211 0.0000 -9.5267 0.0000
# 4 0.0000 0.0000 0.0000 12.8134 0.0000 -3.0304
# 5 -12.0129 -7.6496 -9.5267 0.0000 33.3774 0.0000
# 6 0.0000 0.0000 0.0000 -3.0304 0.0000 16.5531
#
#
#
# Elastic Compliance Matrix: (Units=1/GPa)
#
#
# Indices 1 2 3 4 5 6 
#
# 1 0.020840 0.003161 -0.002393 0.000000 0.007542 0.000000
# 2 0.003161 0.011725 -0.002923 0.000000 0.002991 0.000000
# 3 -0.002393 -0.002923 0.008099 0.000000 0.000780 0.000000
# 4 0.000000 0.000000 0.000000 0.081575 0.000000 0.014934
# 5 0.007542 0.002991 0.000780 0.000000 0.033583 0.000000
# 6 0.000000 0.000000 0.000000 0.014934 0.000000 0.063146
#
#
# Mechanical properties :
#
#
# Convention : Reuss Voigt Hill
#
# Bulk Modulus (GPa) = 27.50673 41.52795 34.51734
# Shear Modulus (GPa) = 21.24086 29.48018 25.36052
#
# Velocity S-wave (km/s) = 3.14818 3.70884 3.43995
# Velocity P-wave (km/s) = 5.10386 6.14147 5.64655
#
# Compressibility (1/GPa) = 0.03635473
#
# Stress axis : x y z
#
# Youngs Moduli (GPa) = 47.98500 85.28451 123.47821
#
# Poissons Ratio (x) = -0.26962 0.29547
# Poissons Ratio (y) = -0.15170 0.36094
# Poissons Ratio (z) = 0.11482 0.24930
#
# Static dielectric constant tensor:
#      x y z
#    x 1.845140 0.000000 0.042750 
#    y 0.000000 1.792890 0.000000 
#    z 0.042750 0.000000 1.821780 
# 
# From -- ./inp_files/191935.got.cif
#   From: 2010.05.17/outbox.cif.g08.bks.cpg/sg15_96_cif.got.tgz:191935.got - 2010.06.03 18:47:42.
