data_PCOD9295227
_publ_section_title
;
Structure prediction by ZEFSAII (Michael W. Deem and Ramdas Pophale) SiO2 
 PCOD9295227
Probable space group: C 2/C
;
_chemical_formula_sum "Si O2"
_cell_formula_units_Z 52
_cell_length_a 11.164991
_cell_length_b 19.076861
_cell_length_c 14.904875
_cell_angle_alpha 90.000000
_cell_angle_beta 47.607860
_cell_angle_gamma 90.000000
_cell_volume 2344.618897
_symmetry_space_group_name_H-M "C 2/C"
_symmetry_group_IT_number 15
_symmetry_cell_setting 'monoclinic'
loop_
_space_group_symop_operation_xyz
x,y,z
-x,y,1/2-z
-x,-y,-z
x,-y,1/2+z
1/2+x,1/2+y,z
1/2-x,1/2+y,1/2-z
1/2-x,1/2-y,-z
1/2+x,1/2-y,1/2+z
loop_
_atom_site_type_symbol
_atom_site_label
_atom_site_fract_x
_atom_site_fract_y
_atom_site_fract_z
Si Si1 0.153696 0.324993 0.125077
Si Si2 0.645932 0.427496 0.112411
Si Si3 0.832547 0.035272 0.548422
Si Si4 0.156192 0.701694 0.417407
Si Si5 0.000000 0.468830 0.750000
Si Si6 0.929561 0.221974 0.888562
Si Si7 0.010250 0.573541 0.045419
O O1 0.302427 0.381083 0.053681
O O2 0.192017 0.253254 0.157928
O O3 0.000000 0.359153 0.250000
O O4 0.110756 0.303289 0.045481
O O5 0.500000 0.445775 0.250000
O O6 0.579254 0.361632 0.089649
O O7 0.686134 0.497287 0.037945
O O8 0.811214 0.399253 0.075261
O O9 0.670759 0.008592 0.681562
O O10 0.000000 0.000000 0.500000
O O11 0.039134 0.738705 0.405392
O O12 0.145379 0.620601 0.396675
O O13 0.975035 0.427057 0.854410
O O14 0.000000 0.230837 0.750000
O O15 0.750000 0.250000 0.000000
O O16 0.000000 0.500000 0.000000
#
# Coordination Sequence:
#
# PCOD9295227 Si02
#       7
#     8   8   8   8   4   8   8
#     4  11  26  49  72 105 151 201 251 311 394 465
#     4  10  23  42  67 106 141 182 246 309 374 448
#     4  11  23  44  74 102 143 194 250 307 376 456
#     4  11  25  45  70 104 143 195 248 302 383 460
#     4  10  24  44  66 108 142 182 244 314 376 444
#     4  11  24  43  72 110 149 189 253 315 382 460
#     4  11  24  43  70 101 143 188 242 314 376 442
#
# _framework density 22.178443000000001
#
# number of rings (size 3 to 8) (size 9 to 14) (size 15 to 20)
#    0.000    1.231    2.308    2.769    5.385    0.000 
#    5.538    1.538    0.000    0.000    0.000    0.000 
#    0.000    0.000    0.000    0.000    0.000    0.000 
#
# Total GULP energy -144751.248444 kJ/mol
# GULP energy per Si atom -5567.355709 kJ/mol
# Density = 2.212796 g / cm^3
# Si number density = 22.178443 Si / 1000 Ang^3
#
#
#
# Elastic Constant Matrix: (Units=GPa)
#
#
# Indices 1 2 3 4 5 6 
#
# 1 116.1236 33.0947 35.1345 0.0000 4.8102 0.0000
# 2 33.0947 121.2753 21.5245 0.0000 -2.7895 0.0000
# 3 35.1345 21.5245 89.2395 -0.0001 -21.1986 0.0000
# 4 0.0000 0.0000 -0.0001 15.9514 0.0000 -9.1171
# 5 4.8102 -2.7895 -21.1986 0.0000 26.6487 0.0000
# 6 0.0000 0.0000 0.0000 -9.1171 0.0000 40.5715
#
#
#
# Elastic Compliance Matrix: (Units=1/GPa)
#
#
# Indices 1 2 3 4 5 6 
#
# 1 0.011157 -0.002235 -0.005410 0.000000 -0.006551 0.000000
# 2 -0.002235 0.009081 -0.001219 0.000000 0.000384 0.000000
# 3 -0.005410 -0.001219 0.017054 0.000000 0.014415 0.000000
# 4 0.000000 0.000000 0.000000 0.071929 0.000000 0.016164
# 5 -0.006551 0.000384 0.014415 0.000000 0.050215 0.000000
# 6 0.000000 0.000000 0.000000 0.016164 0.000000 0.028280
#
#
# Mechanical properties :
#
#
# Convention : Reuss Voigt Hill
#
# Bulk Modulus (GPa) = 51.11437 56.23842 53.67640
# Shear Modulus (GPa) = 23.58897 32.42662 28.00779
#
# Velocity S-wave (km/s) = 3.26482 3.82786 3.55750
# Velocity P-wave (km/s) = 6.10811 6.70440 6.41319
#
# Compressibility (1/GPa) = 0.01956397
#
# Stress axis : x y z
#
# Youngs Moduli (GPa) = 89.63323 110.12207 58.63786
#
# Poissons Ratio (x) = 0.24613 0.31720
# Poissons Ratio (y) = 0.20034 0.07148
# Poissons Ratio (z) = 0.48487 0.13424
#
# Static dielectric constant tensor:
#      x y z
#    x 1.918440 0.000000 -0.051790 
#    y 0.000000 1.895770 0.000000 
#    z -0.051790 0.000000 1.867730 
# 
# From -- ./inp_files/147048.got.cif
#   From: 2010.05.17/outbox.cif.g08.bks.cpg/sg15_74_cif.got.tgz:147048.got - 2010.06.03 18:47:42.
