data_PCOD9295553
_publ_section_title
;
Structure prediction by ZEFSAII (Michael W. Deem and Ramdas Pophale) SiO2 
 PCOD9295553
Probable space group: C 2/C
;
_chemical_formula_sum "Si O2"
_cell_formula_units_Z 44
_cell_length_a 28.123330
_cell_length_b 5.097186
_cell_length_c 14.415216
_cell_angle_alpha 90.000000
_cell_angle_beta 72.601846
_cell_angle_gamma 90.000000
_cell_volume 1971.880220
_symmetry_space_group_name_H-M "C 2/C"
_symmetry_group_IT_number 15
_symmetry_cell_setting 'monoclinic'
loop_
_space_group_symop_operation_xyz
x,y,z
-x,y,1/2-z
-x,-y,-z
x,-y,1/2+z
1/2+x,1/2+y,z
1/2-x,1/2+y,1/2-z
1/2-x,1/2-y,-z
1/2+x,1/2-y,1/2+z
loop_
_atom_site_type_symbol
_atom_site_label
_atom_site_fract_x
_atom_site_fract_y
_atom_site_fract_z
Si Si1 0.353086 0.753773 0.581167
Si Si2 0.597721 0.063583 0.639463
Si Si3 0.242792 0.999776 0.942972
Si Si4 0.595521 0.423204 0.260434
Si Si5 0.281266 0.091240 0.739550
Si Si6 0.500000 0.826735 0.750000
O O1 0.381399 0.852481 0.472593
O O2 0.311151 0.548197 0.571013
O O3 0.384008 0.628227 0.648366
O O4 0.323947 0.999329 0.645930
O O5 0.605484 0.292103 0.711428
O O6 0.538094 0.006090 0.669486
O O7 0.616078 0.789078 0.673365
O O8 0.286018 0.997201 0.841400
O O9 0.250000 0.250000 0.000000
O O10 0.250000 0.750000 0.000000
O O11 0.536540 0.352547 0.290577
O O12 0.235231 0.893123 0.739274
#
# Coordination Sequence:
#
# PCOD9295553 Si02
#       6
#     8   8   8   8   8   4
#     4  11  26  44  74 105 139 193 239 290 356 418
#     4  10  24  43  72 104 141 185 234 295 356 428
#     4  11  25  42  68  96 140 187 230 290 348 408
#     4  10  24  44  71 102 146 177 238 295 344 445
#     4  10  23  43  64  94 138 178 233 284 343 411
#     4   8  22  48  70 100 152 174 234 294 376 400
#
# _framework density 22.313728000000001
#
# number of rings (size 3 to 8) (size 9 to 14) (size 15 to 20)
#    1.091    0.727    0.000    2.727    5.091    9.455 
#    0.000    1.818    0.000    0.000    0.000    0.000 
#    0.000    0.000    0.000    0.000    0.000    0.000 
#
# Total GULP energy -122681.728333 kJ/mol
# GULP energy per Si atom -5576.442197 kJ/mol
# Density = 2.226294 g / cm^3
# Si number density = 22.313728 Si / 1000 Ang^3
#
#
#
# Elastic Constant Matrix: (Units=GPa)
#
#
# Indices 1 2 3 4 5 6 
#
# 1 124.7394 15.6592 38.0049 0.0000 13.6851 0.0000
# 2 15.6592 115.6786 32.5643 0.0000 12.8778 0.0000
# 3 38.0049 32.5643 137.3371 0.0000 1.9169 0.0000
# 4 0.0000 0.0000 0.0000 41.0106 0.0000 1.7201
# 5 13.6851 12.8778 1.9169 0.0000 47.0886 0.0000
# 6 0.0000 0.0000 0.0000 1.7201 0.0000 18.1985
#
#
#
# Elastic Compliance Matrix: (Units=1/GPa)
#
#
# Indices 1 2 3 4 5 6 
#
# 1 0.009054 -0.000275 -0.002406 0.000000 -0.002458 0.000000
# 2 -0.000275 0.009561 -0.002157 0.000000 -0.002447 0.000000
# 3 -0.002406 -0.002157 0.008445 0.000000 0.000945 0.000000
# 4 0.000000 0.000000 0.000000 0.024481 0.000000 -0.002314
# 5 -0.002458 -0.002447 0.000945 0.000000 0.022582 0.000000
# 6 0.000000 0.000000 0.000000 -0.002314 0.000000 0.055168
#
#
# Mechanical properties :
#
#
# Convention : Reuss Voigt Hill
#
# Bulk Modulus (GPa) = 57.51919 61.13467 59.32693
# Shear Modulus (GPa) = 34.53939 40.69467 37.61703
#
# Velocity S-wave (km/s) = 3.93860 4.27517 4.11033
# Velocity P-wave (km/s) = 6.82033 7.19908 7.01226
#
# Compressibility (1/GPa) = 0.01738550
#
# Stress axis : x y z
#
# Youngs Moduli (GPa) = 110.44916 104.58655 118.40732
#
# Poissons Ratio (x) = 0.02872 0.28489
# Poissons Ratio (y) = 0.03033 0.25540
# Poissons Ratio (z) = 0.26575 0.22559
#
# Static dielectric constant tensor:
#      x y z
#    x 1.954140 0.000000 0.016340 
#    y 0.000000 1.886860 0.000000 
#    z 0.016340 0.000000 1.840570 
# 
# From -- ./inp_files/179455.got.cif
#   From: 2010.05.17/outbox.cif.g08.bks.cpg/sg15_90_cif.got.tgz:179455.got - 2010.06.03 18:47:42.
