data_PCOD9295183
_publ_section_title
;
Structure prediction by ZEFSAII (Michael W. Deem and Ramdas Pophale) SiO2 
 PCOD9295183
Probable space group: C 2/C
;
_chemical_formula_sum "Si O2"
_cell_formula_units_Z 48
_cell_length_a 13.969599
_cell_length_b 13.382171
_cell_length_c 13.937348
_cell_angle_alpha 90.000000
_cell_angle_beta 117.587356
_cell_angle_gamma 90.000000
_cell_volume 2309.267530
_symmetry_space_group_name_H-M "C 2/C"
_symmetry_group_IT_number 15
_symmetry_cell_setting 'monoclinic'
loop_
_space_group_symop_operation_xyz
x,y,z
-x,y,1/2-z
-x,-y,-z
x,-y,1/2+z
1/2+x,1/2+y,z
1/2-x,1/2+y,1/2-z
1/2-x,1/2-y,-z
1/2+x,1/2-y,1/2+z
loop_
_atom_site_type_symbol
_atom_site_label
_atom_site_fract_x
_atom_site_fract_y
_atom_site_fract_z
Si Si1 0.461247 0.357905 0.022327
Si Si2 0.788440 0.647712 0.470971
Si Si3 0.058308 0.058809 0.377072
Si Si4 0.218204 0.664637 0.413221
Si Si5 0.949254 0.492338 0.583455
Si Si6 0.093138 0.322098 0.671072
O O1 0.526990 0.373662 0.954609
O O2 0.336078 0.370534 0.933525
O O3 0.477060 0.447897 0.105448
O O4 0.501808 0.255040 0.090719
O O5 0.750000 0.750000 0.500000
O O6 0.686511 0.572983 0.423716
O O7 0.892706 0.599138 0.573162
O O8 0.825205 0.666453 0.379104
O O9 0.000000 0.084930 0.250000
O O10 0.250000 0.750000 0.500000
O O11 0.149005 0.582729 0.438256
O O12 0.151726 0.710848 0.294352
O O13 0.000000 0.500000 0.500000
O O14 0.048106 0.432753 0.677406
#
# Coordination Sequence:
#
# PCOD9295183 Si02
#       6
#     8   8   8   8   8   8
#     4  11  24  42  68 104 133 176 231 275 342 402
#     4  11  22  45  69  93 135 179 225 274 335 409
#     4  11  24  42  68  97 139 180 221 280 335 403
#     4  12  24  41  68 102 134 174 225 281 340 403
#     4  10  23  42  66  93 129 178 220 280 340 405
#     4  11  24  43  70 100 136 179 226 285 337 408
#
# _framework density 20.785810999999999
#
# number of rings (size 3 to 8) (size 9 to 14) (size 15 to 20)
#    0.000    1.000    5.000    1.500    2.333    0.000 
#    0.000    6.667    0.000    0.000    0.000    0.000 
#    0.000    0.000    0.000    0.000    0.000    0.000 
#
# Total GULP energy -133712.730236 kJ/mol
# GULP energy per Si atom -5571.363760 kJ/mol
# Density = 2.073850 g / cm^3
# Si number density = 20.785811 Si / 1000 Ang^3
#
#
#
# Elastic Constant Matrix: (Units=GPa)
#
#
# Indices 1 2 3 4 5 6 
#
# 1 138.7487 26.0202 36.2835 0.0000 -18.5805 0.0000
# 2 26.0202 81.1567 34.3147 0.0000 -10.8946 0.0000
# 3 36.2835 34.3147 111.3200 0.0000 -6.1800 0.0000
# 4 0.0000 0.0000 0.0000 20.2031 0.0000 -0.4155
# 5 -18.5805 -10.8946 -6.1800 0.0000 34.3577 0.0000
# 6 0.0000 0.0000 0.0000 -0.4155 0.0000 39.7575
#
#
#
# Elastic Compliance Matrix: (Units=1/GPa)
#
#
# Indices 1 2 3 4 5 6 
#
# 1 0.008529 -0.001308 -0.002165 0.000000 0.003808 0.000000
# 2 -0.001308 0.014863 -0.003972 0.000000 0.003291 0.000000
# 3 -0.002165 -0.003972 0.010887 0.000000 -0.000472 0.000000
# 4 0.000000 0.000000 0.000000 0.049508 0.000000 0.000517
# 5 0.003808 0.003291 -0.000472 0.000000 0.032124 0.000000
# 6 0.000000 0.000000 0.000000 0.000517 0.000000 0.025158
#
#
# Mechanical properties :
#
#
# Convention : Reuss Voigt Hill
#
# Bulk Modulus (GPa) = 51.57981 58.27359 54.92670
# Shear Modulus (GPa) = 30.78409 34.50412 32.64410
#
# Velocity S-wave (km/s) = 3.85257 4.07871 3.96725
# Velocity P-wave (km/s) = 6.68270 7.09065 6.88970
#
# Compressibility (1/GPa) = 0.01938743
#
# Stress axis : x y z
#
# Youngs Moduli (GPa) = 117.25083 67.28312 91.85113
#
# Poissons Ratio (x) = 0.08799 0.19889
# Poissons Ratio (y) = 0.15333 0.36488
# Poissons Ratio (z) = 0.25389 0.26728
#
# Static dielectric constant tensor:
#      x y z
#    x 1.765790 0.000000 -0.014690 
#    y 0.000000 1.786310 0.000000 
#    z -0.014690 0.000000 1.730180 
# 
# From -- ./inp_files/96546.got.cif
#   From: 2010.05.17/outbox.cif.g08.bks.cpg/sg15_49_cif.got.tgz:96546.got - 2010.06.03 18:47:42.
