data_PCOD9295628
_publ_section_title
;
Structure prediction by ZEFSAII (Michael W. Deem and Ramdas Pophale) SiO2 
 PCOD9295628
Probable space group: C 2/C
;
_chemical_formula_sum "Si O2"
_cell_formula_units_Z 52
_cell_length_a 14.761372
_cell_length_b 14.854330
_cell_length_c 12.083212
_cell_angle_alpha 90.000000
_cell_angle_beta 63.966059
_cell_angle_gamma 90.000000
_cell_volume 2380.656862
_symmetry_space_group_name_H-M "C 2/C"
_symmetry_group_IT_number 15
_symmetry_cell_setting 'monoclinic'
loop_
_space_group_symop_operation_xyz
x,y,z
-x,y,1/2-z
-x,-y,-z
x,-y,1/2+z
1/2+x,1/2+y,z
1/2-x,1/2+y,1/2-z
1/2-x,1/2-y,-z
1/2+x,1/2-y,1/2+z
loop_
_atom_site_type_symbol
_atom_site_label
_atom_site_fract_x
_atom_site_fract_y
_atom_site_fract_z
Si Si1 0.370862 0.863057 0.117364
Si Si2 0.951775 0.664241 0.124571
Si Si3 0.142364 0.159063 0.784124
Si Si4 0.000000 0.720028 0.750000
Si Si5 0.500000 0.003416 0.250000
Si Si6 0.500000 0.482325 0.250000
Si Si7 0.662726 0.943891 0.984116
Si Si8 0.882308 0.123676 0.441684
O O1 0.259574 0.828450 0.197054
O O2 0.436585 0.838149 0.192357
O O3 0.352732 0.965998 0.083283
O O4 0.437029 0.820177 0.983937
O O5 0.912720 0.748106 0.211876
O O6 0.947711 0.573248 0.195196
O O7 0.880346 0.640890 0.059744
O O8 0.091431 0.079697 0.741944
O O9 0.125727 0.140910 0.923571
O O10 0.921351 0.787180 0.855366
O O11 0.409823 0.960716 0.371737
O O12 0.464033 0.547297 0.367826
O O13 0.775570 0.917029 0.957395
#
# Coordination Sequence:
#
# PCOD9295628 Si02
#       8
#     8   8   8   4   4   4   8   8
#     4  11  24  44  69 107 139 184 229 294 356 420
#     4  11  25  44  64 105 138 182 233 287 353 419
#     4  12  25  47  73 101 141 183 237 295 354 425
#     4  11  24  45  74 106 148 178 239 305 346 414
#     4  10  23  43  66  96 148 182 228 290 346 424
#     4  11  25  50  70 102 138 186 233 299 356 430
#     4  11  25  43  69 104 139 188 236 285 359 424
#     4  11  25  45  74 104 135 186 243 291 356 422
#
# _framework density 21.842711000000001
#
# number of rings (size 3 to 8) (size 9 to 14) (size 15 to 20)
#    0.000    0.923    3.077    3.692    6.462    1.846 
#    2.769    2.308    0.000    0.000    0.000    0.000 
#    0.000    0.000    0.000    0.000    0.000    0.000 
#
# Total GULP energy -145205.681298 kJ/mol
# GULP energy per Si atom -5584.833896 kJ/mol
# Density = 2.179300 g / cm^3
# Si number density = 21.842711 Si / 1000 Ang^3
#
#
#
# Elastic Constant Matrix: (Units=GPa)
#
#
# Indices 1 2 3 4 5 6 
#
# 1 124.8858 29.9135 29.8123 0.0000 -14.3082 0.0000
# 2 29.9135 46.5942 17.4364 0.0000 -7.9991 0.0000
# 3 29.8123 17.4364 74.0009 0.0000 -2.4698 0.0000
# 4 0.0000 0.0000 0.0000 28.2175 0.0000 1.1124
# 5 -14.3082 -7.9991 -2.4698 0.0000 34.2247 0.0000
# 6 0.0000 0.0000 0.0000 1.1124 0.0000 35.7995
#
#
#
# Elastic Compliance Matrix: (Units=1/GPa)
#
#
# Indices 1 2 3 4 5 6 
#
# 1 0.010214 -0.004997 -0.002841 0.000000 0.002897 0.000000
# 2 -0.004997 0.026910 -0.004197 0.000000 0.003897 0.000000
# 3 -0.002841 -0.004197 0.015612 0.000000 -0.001042 0.000000
# 4 0.000000 0.000000 0.000000 0.035482 0.000000 -0.001103
# 5 0.002897 0.003897 -0.001042 0.000000 0.031266 0.000000
# 6 0.000000 0.000000 0.000000 -0.001103 0.000000 0.027968
#
#
# Mechanical properties :
#
#
# Convention : Reuss Voigt Hill
#
# Bulk Modulus (GPa) = 34.88503 44.42279 39.65391
# Shear Modulus (GPa) = 27.61240 30.86958 29.24099
#
# Velocity S-wave (km/s) = 3.55934 3.76342 3.66280
# Velocity P-wave (km/s) = 5.73564 6.26627 6.00682
#
# Compressibility (1/GPa) = 0.02866559
#
# Stress axis : x y z
#
# Youngs Moduli (GPa) = 97.90123 37.16102 64.05306
#
# Poissons Ratio (x) = 0.18570 0.18197
# Poissons Ratio (y) = 0.48923 0.26885
# Poissons Ratio (z) = 0.27812 0.15598
#
# Static dielectric constant tensor:
#      x y z
#    x 1.821110 0.000000 0.057360 
#    y 0.000000 1.853850 0.000000 
#    z 0.057360 0.000000 1.814890 
# 
# From -- ./inp_files/96987.got.cif
#   From: 2010.05.17/outbox.cif.g08.bks.cpg/sg15_49_cif.got.tgz:96987.got - 2010.06.03 18:47:42.
