data_PCOD9295244
_publ_section_title
;
Structure prediction by ZEFSAII (Michael W. Deem and Ramdas Pophale) SiO2 
 PCOD9295244
Probable space group: C 2/C
;
_chemical_formula_sum "Si O2"
_cell_formula_units_Z 44
_cell_length_a 12.823970
_cell_length_b 24.994036
_cell_length_c 9.222732
_cell_angle_alpha 90.000000
_cell_angle_beta 133.171626
_cell_angle_gamma 90.000000
_cell_volume 2155.902799
_symmetry_space_group_name_H-M "C 2/C"
_symmetry_group_IT_number 15
_symmetry_cell_setting 'monoclinic'
loop_
_space_group_symop_operation_xyz
x,y,z
-x,y,1/2-z
-x,-y,-z
x,-y,1/2+z
1/2+x,1/2+y,z
1/2-x,1/2+y,1/2-z
1/2-x,1/2-y,-z
1/2+x,1/2-y,1/2+z
loop_
_atom_site_type_symbol
_atom_site_label
_atom_site_fract_x
_atom_site_fract_y
_atom_site_fract_z
Si Si1 0.197751 0.487138 0.678351
Si Si2 0.191117 0.690545 0.094682
Si Si3 0.000000 0.492031 0.250000
Si Si4 0.803033 0.105784 0.706358
Si Si5 0.853319 0.301306 0.285046
Si Si6 0.125267 0.897331 0.566123
O O1 0.116545 0.463303 0.460810
O O2 0.228835 0.549799 0.682091
O O3 0.342385 0.456526 0.845591
O O4 0.093571 0.478118 0.717063
O O5 0.281194 0.743058 0.225459
O O6 0.268388 0.642130 0.249129
O O7 0.189180 0.681299 0.919294
O O8 0.023935 0.700265 0.968365
O O9 0.707793 0.155674 0.661754
O O10 0.834359 0.104339 0.564994
O O11 0.958365 0.113899 0.926934
#
# Coordination Sequence:
#
# PCOD9295244 Si02
#       6
#     8   8   4   8   8   8
#     4  11  23  42  62  94 128 166 206 258 308 374
#     4  10  23  42  67  94 123 159 206 257 311 369
#     4  10  24  38  66  90 132 158 214 254 312 360
#     4  11  25  42  62  90 128 167 208 254 308 368
#     4  10  23  42  67  94 123 159 206 257 311 369
#     4  11  25  42  62  90 128 167 208 254 308 368
#
# _framework density 20.409082000000001
#
# number of rings (size 3 to 8) (size 9 to 14) (size 15 to 20)
#    0.000    1.455    1.818    1.636    7.636    3.636 
#    0.000    0.000    0.000    0.000    0.000    0.000 
#    0.000    0.000    0.000    0.000    0.000    0.000 
#
# Total GULP energy -122820.283149 kJ/mol
# GULP energy per Si atom -5582.740143 kJ/mol
# Density = 2.036263 g / cm^3
# Si number density = 20.409082 Si / 1000 Ang^3
#
#
#
# Elastic Constant Matrix: (Units=GPa)
#
#
# Indices 1 2 3 4 5 6 
#
# 1 67.9831 11.0707 24.8588 0.0000 7.2028 0.0000
# 2 11.0707 56.1947 23.3268 0.0000 -3.3298 0.0000
# 3 24.8588 23.3268 103.3459 0.0000 11.6567 0.0000
# 4 0.0000 0.0000 0.0000 33.3264 0.0000 3.8650
# 5 7.2028 -3.3298 11.6567 0.0000 26.8954 0.0000
# 6 0.0000 0.0000 0.0000 3.8650 0.0000 13.5026
#
#
#
# Elastic Compliance Matrix: (Units=1/GPa)
#
#
# Indices 1 2 3 4 5 6 
#
# 1 0.016557 -0.002167 -0.003115 0.000000 -0.003352 0.000000
# 2 -0.002167 0.020469 -0.004679 0.000000 0.005143 0.000000
# 3 -0.003115 -0.004679 0.012042 0.000000 -0.004964 0.000000
# 4 0.000000 0.000000 0.000000 0.031037 0.000000 -0.008884
# 5 -0.003352 0.005143 -0.004964 0.000000 0.040867 0.000000
# 6 0.000000 0.000000 0.000000 -0.008884 0.000000 0.076603
#
#
# Mechanical properties :
#
#
# Convention : Reuss Voigt Hill
#
# Bulk Modulus (GPa) = 34.31163 38.44846 36.38004
# Shear Modulus (GPa) = 22.00592 25.96269 23.98431
#
# Velocity S-wave (km/s) = 3.28722 3.57054 3.43181
# Velocity P-wave (km/s) = 5.59072 5.98984 5.79372
#
# Compressibility (1/GPa) = 0.02914463
#
# Stress axis : x y z
#
# Youngs Moduli (GPa) = 60.39824 48.85386 83.04546
#
# Poissons Ratio (x) = 0.10588 0.25871
# Poissons Ratio (y) = 0.13090 0.38857
# Poissons Ratio (z) = 0.18816 0.22858
#
# Static dielectric constant tensor:
#      x y z
#    x 1.705780 0.000000 -0.000600 
#    y 0.000000 1.700100 0.000000 
#    z -0.000600 0.000000 1.733210 
# 
# From -- ./inp_files/34502.got.cif
#   From: 2010.05.17/outbox.cif.g08.bks.cpg/sg15_18_cif.got.tgz:34502.got - 2010.06.03 18:47:42.
