data_PCOD9295810
_publ_section_title
;
Structure prediction by ZEFSAII (Michael W. Deem and Ramdas Pophale) SiO2 
 PCOD9295810
Probable space group: C 2/C
;
_chemical_formula_sum "Si O2"
_cell_formula_units_Z 56
_cell_length_a 22.597737
_cell_length_b 8.448106
_cell_length_c 16.719506
_cell_angle_alpha 90.000000
_cell_angle_beta 48.782674
_cell_angle_gamma 90.000000
_cell_volume 2400.988796
_symmetry_space_group_name_H-M "C 2/C"
_symmetry_group_IT_number 15
_symmetry_cell_setting 'monoclinic'
loop_
_space_group_symop_operation_xyz
x,y,z
-x,y,1/2-z
-x,-y,-z
x,-y,1/2+z
1/2+x,1/2+y,z
1/2-x,1/2+y,1/2-z
1/2-x,1/2-y,-z
1/2+x,1/2-y,1/2+z
loop_
_atom_site_type_symbol
_atom_site_label
_atom_site_fract_x
_atom_site_fract_y
_atom_site_fract_z
Si Si1 0.071384 0.194351 0.392616
Si Si2 0.344566 0.480297 0.060488
Si Si3 0.625490 0.097632 0.618329
Si Si4 0.584909 0.137074 0.480748
Si Si5 0.215481 0.077185 0.547839
Si Si6 0.162348 0.472240 0.259390
Si Si7 0.575305 0.447994 0.727831
O O1 0.096795 0.085005 0.441078
O O2 0.147520 0.288620 0.293290
O O3 0.042000 0.094612 0.344186
O O4 0.002220 0.317728 0.470586
O O5 0.367188 0.298367 0.046239
O O6 0.254179 0.505765 0.167585
O O7 0.343999 0.538755 0.970693
O O8 0.581862 0.057858 0.572863
O O9 0.600794 0.277115 0.664832
O O10 0.715900 0.054313 0.514251
O O11 0.620250 0.005416 0.709258
O O12 0.628628 0.056490 0.367721
O O13 0.250000 0.250000 0.500000
O O14 0.153807 0.052797 0.673904
O O15 0.500000 0.518146 0.750000
#
# Coordination Sequence:
#
# PCOD9295810 Si02
#       7
#     8   8   8   8   8   8   8
#     4  11  24  40  69 103 139 179 235 291 364 427
#     4  11  24  43  65  99 138 182 239 290 351 433
#     4  10  23  43  70 100 139 188 248 288 362 448
#     4  12  23  44  72  99 145 187 233 301 364 428
#     4  11  25  42  66 100 141 188 241 300 364 427
#     4  10  25  40  67 106 135 182 239 294 358 428
#     4  11  21  43  71 102 135 189 241 294 360 441
#
# _framework density 23.323725
#
# number of rings (size 3 to 8) (size 9 to 14) (size 15 to 20)
#    0.000    1.143    2.857    2.143    8.000    2.286 
#    0.000    0.714    0.000    0.000    0.000    0.000 
#    0.000    0.000    0.000    0.000    0.000    0.000 
#
# Total GULP energy -156247.902197 kJ/mol
# GULP energy per Si atom -5580.282221 kJ/mol
# Density = 2.327064 g / cm^3
# Si number density = 23.323725 Si / 1000 Ang^3
#
#
#
# Elastic Constant Matrix: (Units=GPa)
#
#
# Indices 1 2 3 4 5 6 
#
# 1 103.2429 31.8089 24.2904 0.0000 8.2714 0.0000
# 2 31.8089 45.9261 19.5653 0.0002 3.6854 -0.0001
# 3 24.2904 19.5653 79.0613 0.0001 -7.0137 0.0000
# 4 0.0000 0.0002 0.0001 22.5582 0.0000 2.4704
# 5 8.2714 3.6854 -7.0137 0.0000 46.7076 0.0000
# 6 0.0000 -0.0001 0.0000 2.4704 0.0000 36.2063
#
#
#
# Elastic Compliance Matrix: (Units=1/GPa)
#
#
# Indices 1 2 3 4 5 6 
#
# 1 0.012740 -0.007739 -0.002174 0.000000 -0.001972 0.000000
# 2 -0.007739 0.029426 -0.005056 0.000000 -0.001710 0.000000
# 3 -0.002174 -0.005056 0.014835 0.000000 0.003011 0.000000
# 4 0.000000 0.000000 0.000000 0.044664 0.000000 -0.003047
# 5 -0.001972 -0.001710 0.003011 0.000000 0.022346 0.000000
# 6 0.000000 0.000000 0.000000 -0.003047 0.000000 0.027827
#
#
# Mechanical properties :
#
#
# Convention : Reuss Voigt Hill
#
# Bulk Modulus (GPa) = 36.95225 42.17325 39.56275
# Shear Modulus (GPa) = 26.20600 31.26546 28.73573
#
# Velocity S-wave (km/s) = 3.35562 3.66526 3.51385
# Velocity P-wave (km/s) = 5.55798 6.00276 5.78464
#
# Compressibility (1/GPa) = 0.02706195
#
# Stress axis : x y z
#
# Youngs Moduli (GPa) = 78.49419 33.98392 67.40994
#
# Poissons Ratio (x) = 0.26302 0.14653
# Poissons Ratio (y) = 0.60750 0.34082
# Poissons Ratio (z) = 0.17063 0.17182
#
# Static dielectric constant tensor:
#      x y z
#    x 1.887060 0.000000 0.005330 
#    y 0.000000 1.883890 0.000000 
#    z 0.005330 0.000000 2.058950 
# 
# From -- ./inp_files/218514.got.cif
#   From: 2010.05.17/outbox.cif.g08.bks.cpg/sg15_110_cif.got.tgz:218514.got - 2010.06.03 18:47:42.
