data_PCOD9295279
_publ_section_title
;
Structure prediction by ZEFSAII (Michael W. Deem and Ramdas Pophale) SiO2 
 PCOD9295279
Probable space group: C 2/C
;
_chemical_formula_sum "Si O2"
_cell_formula_units_Z 52
_cell_length_a 20.273756
_cell_length_b 21.510944
_cell_length_c 5.812455
_cell_angle_alpha 90.000000
_cell_angle_beta 64.669438
_cell_angle_gamma 90.000000
_cell_volume 2291.140891
_symmetry_space_group_name_H-M "C 2/C"
_symmetry_group_IT_number 15
_symmetry_cell_setting 'monoclinic'
loop_
_space_group_symop_operation_xyz
x,y,z
-x,y,1/2-z
-x,-y,-z
x,-y,1/2+z
1/2+x,1/2+y,z
1/2-x,1/2+y,1/2-z
1/2-x,1/2-y,-z
1/2+x,1/2-y,1/2+z
loop_
_atom_site_type_symbol
_atom_site_label
_atom_site_fract_x
_atom_site_fract_y
_atom_site_fract_z
Si Si1 0.916525 0.650156 0.417375
Si Si2 0.500000 0.534504 0.750000
Si Si3 0.921855 0.233137 0.244898
Si Si4 0.830751 0.747513 0.280365
Si Si5 0.732401 0.469470 0.788109
Si Si6 0.604977 0.014787 0.955052
Si Si7 0.623646 0.632856 0.510420
O O1 0.923872 0.708404 0.574084
O O2 0.871740 0.683088 0.280611
O O3 0.877874 0.588448 0.565397
O O4 0.000000 0.630410 0.250000
O O5 0.500000 0.500000 0.500000
O O6 0.570661 0.578198 0.662894
O O7 0.846084 0.243591 0.491910
O O8 0.000000 0.235480 0.250000
O O9 0.913629 0.165409 0.150691
O O10 0.750000 0.750000 0.500000
O O11 0.869543 0.808839 0.328953
O O12 0.709575 0.498301 0.570024
O O13 0.819802 0.475587 0.658402
O O14 0.700605 0.400008 0.846347
O O15 0.570436 0.999832 0.257322
#
# Coordination Sequence:
#
# PCOD9295279 Si02
#       7
#     8   4   8   8   8   8   8
#     4  11  25  46  72 108 143 190 253 304 379 448
#     4  12  28  46  72 114 148 200 256 308 374 462
#     4  11  24  46  77 102 148 196 247 315 378 449
#     4  11  27  43  74 110 143 192 250 319 377 443
#     4  10  23  42  67  99 139 195 235 293 369 434
#     4  10  25  43  72 104 144 190 242 299 369 439
#     4  11  26  43  71 103 147 191 252 303 379 447
#
# _framework density 22.696114999999999
#
# number of rings (size 3 to 8) (size 9 to 14) (size 15 to 20)
#    0.000    1.231    1.538    1.846   14.000    5.538 
#    0.000    0.000    0.000    0.000    0.000    0.000 
#    0.000    0.000    0.000    0.000    0.000    0.000 
#
# Total GULP energy -144971.542388 kJ/mol
# GULP energy per Si atom -5575.828553 kJ/mol
# Density = 2.264446 g / cm^3
# Si number density = 22.696115 Si / 1000 Ang^3
#
#
#
# Elastic Constant Matrix: (Units=GPa)
#
#
# Indices 1 2 3 4 5 6 
#
# 1 52.1471 28.4778 36.9285 0.0000 -11.0014 0.0000
# 2 28.4778 126.7290 40.8950 0.0000 9.6458 0.0000
# 3 36.9285 40.8950 96.7920 0.0000 12.1208 0.0000
# 4 0.0000 0.0000 0.0000 22.6736 0.0000 -7.5169
# 5 -11.0014 9.6458 12.1208 0.0000 41.4846 0.0000
# 6 0.0000 0.0000 0.0000 -7.5169 0.0000 24.9448
#
#
#
# Elastic Compliance Matrix: (Units=1/GPa)
#
#
# Indices 1 2 3 4 5 6 
#
# 1 0.033355 -0.004484 -0.012528 0.000000 0.013548 0.000000
# 2 -0.004484 0.009782 -0.002064 0.000000 -0.002861 0.000000
# 3 -0.012528 -0.002064 0.016960 0.000000 -0.007798 0.000000
# 4 0.000000 0.000000 0.000000 0.048999 0.000000 0.014766
# 5 0.013548 -0.002861 -0.007798 0.000000 0.030642 0.000000
# 6 0.000000 0.000000 0.000000 0.014766 0.000000 0.044538
#
#
# Mechanical properties :
#
#
# Convention : Reuss Voigt Hill
#
# Bulk Modulus (GPa) = 45.56791 54.25231 49.91011
# Shear Modulus (GPa) = 21.76342 29.11174 25.43758
#
# Velocity S-wave (km/s) = 3.09998 3.58533 3.35145
# Velocity P-wave (km/s) = 5.73883 6.41055 6.08397
#
# Compressibility (1/GPa) = 0.02194527
#
# Stress axis : x y z
#
# Youngs Moduli (GPa) = 29.98020 102.22595 58.96319
#
# Poissons Ratio (x) = 0.45837 0.73869
# Poissons Ratio (y) = 0.13443 0.12171
# Poissons Ratio (z) = 0.37559 0.21101
#
# Static dielectric constant tensor:
#      x y z
#    x 1.972700 0.000000 -0.069100 
#    y 0.000000 1.782740 0.000000 
#    z -0.069100 0.000000 2.006940 
# 
# From -- ./inp_files/15795.got.cif
#   From: 2010.05.17/outbox.cif.g08.bks.cpg/sg15_8_cif.got.tgz:15795.got - 2010.06.03 18:47:42.
