data_PCOD9295032
_publ_section_title
;
Structure prediction by ZEFSAII (Michael W. Deem and Ramdas Pophale) SiO2 
 PCOD9295032
Probable space group: C 2/C
;
_chemical_formula_sum "Si O2"
_cell_formula_units_Z 40
_cell_length_a 14.010648
_cell_length_b 22.919824
_cell_length_c 5.109296
_cell_angle_alpha 90.000000
_cell_angle_beta 106.115884
_cell_angle_gamma 90.000000
_cell_volume 1576.229192
_symmetry_space_group_name_H-M "C 2/C"
_symmetry_group_IT_number 15
_symmetry_cell_setting 'monoclinic'
loop_
_space_group_symop_operation_xyz
x,y,z
-x,y,1/2-z
-x,-y,-z
x,-y,1/2+z
1/2+x,1/2+y,z
1/2-x,1/2+y,1/2-z
1/2-x,1/2-y,-z
1/2+x,1/2-y,1/2+z
loop_
_atom_site_type_symbol
_atom_site_label
_atom_site_fract_x
_atom_site_fract_y
_atom_site_fract_z
Si Si1 0.392988 0.195725 0.098304
Si Si2 0.389627 0.026722 0.477844
Si Si3 0.271217 0.870079 0.878101
Si Si4 0.890277 0.224923 0.098013
Si Si5 0.101123 0.962533 0.733895
O O1 0.500000 0.168075 0.250000
O O2 0.305818 0.152902 0.119639
O O3 0.388632 0.249149 0.304464
O O4 0.385828 0.221404 0.803798
O O5 0.370922 0.093864 0.548512
O O6 0.500000 0.000000 0.500000
O O7 0.342929 0.015085 0.159245
O O8 0.203772 0.816821 0.934581
O O9 0.193203 0.921529 0.841901
O O10 0.000000 0.199810 0.250000
O O11 0.000000 0.931555 0.750000
O O12 0.101589 0.983479 0.436041
#
# Coordination Sequence:
#
# PCOD9295032 Si02
#       5
#     8   8   8   8   8
#     4  10  24  42  62  95 131 166 213 273 318 389
#     4  10  24  43  60  90 133 162 213 266 301 387
#     4  12  23  40  71  93 124 179 212 257 340 377
#     4  10  23  44  63  94 131 161 218 274 316 385
#     4  10  23  42  62  93 130 163 214 268 314 381
#
# _framework density 25.377019000000001
#
# number of rings (size 3 to 8) (size 9 to 14) (size 15 to 20)
#    0.000    1.600    0.000    3.000    2.800    6.400 
#    7.200    6.000    0.000    0.000    0.000    0.000 
#    0.000    0.000    0.000    0.000    0.000    0.000 
#
# Total GULP energy -111547.560275 kJ/mol
# GULP energy per Si atom -5577.378014 kJ/mol
# Density = 2.531926 g / cm^3
# Si number density = 25.377019 Si / 1000 Ang^3
#
#
#
# Elastic Constant Matrix: (Units=GPa)
#
#
# Indices 1 2 3 4 5 6 
#
# 1 180.1704 49.4308 12.3158 0.0000 -2.2405 0.0000
# 2 49.4308 86.7145 1.0935 0.0000 0.4487 0.0000
# 3 12.3158 1.0935 76.6629 0.0000 -10.3131 0.0000
# 4 0.0000 0.0000 0.0000 7.6824 0.0000 -7.5726
# 5 -2.2405 0.4487 -10.3131 0.0000 34.1647 0.0000
# 6 0.0000 0.0000 0.0000 -7.5726 0.0000 46.1683
#
#
#
# Elastic Compliance Matrix: (Units=1/GPa)
#
#
# Indices 1 2 3 4 5 6 
#
# 1 0.006659 -0.003784 -0.000991 0.000000 0.000187 0.000000
# 2 -0.003784 0.013686 0.000370 0.000000 -0.000316 0.000000
# 3 -0.000991 0.000370 0.013747 0.000000 0.004080 0.000000
# 4 0.000000 0.000000 0.000000 0.155272 0.000000 0.025468
# 5 0.000187 -0.000316 0.004080 0.000000 0.030518 0.000000
# 6 0.000000 0.000000 0.000000 0.025468 0.000000 0.025837
#
#
# Mechanical properties :
#
#
# Convention : Reuss Voigt Hill
#
# Bulk Modulus (GPa) = 39.55290 52.13643 45.84466
# Shear Modulus (GPa) = 19.01469 36.31694 27.66581
#
# Velocity S-wave (km/s) = 2.74028 3.78709 3.30539
# Velocity P-wave (km/s) = 5.06282 6.30175 5.71595
#
# Compressibility (1/GPa) = 0.02528260
#
# Stress axis : x y z
#
# Youngs Moduli (GPa) = 150.18328 73.06653 72.74419
#
# Poissons Ratio (x) = 0.27649 0.07205
# Poissons Ratio (y) = 0.56831 -0.02693
# Poissons Ratio (z) = 0.14876 -0.02705
#
# Static dielectric constant tensor:
#      x y z
#    x 1.806370 0.000000 -0.209730 
#    y 0.000000 2.059050 0.000000 
#    z -0.209730 0.000000 1.801310 
# 
# From -- ./inp_files/7345.got.cif
#   From: 2010.05.17/outbox.cif.g08.bks.cpg/sg15_4_cif.got.tgz:7345.got - 2010.06.03 18:47:42.
