data_PCOD9295927
_publ_section_title
;
Structure prediction by ZEFSAII (Michael W. Deem and Ramdas Pophale) SiO2 
 PCOD9295927
Probable space group: C 2/C
;
_chemical_formula_sum "Si O2"
_cell_formula_units_Z 44
_cell_length_a 17.489811
_cell_length_b 20.172995
_cell_length_c 5.417657
_cell_angle_alpha 90.000000
_cell_angle_beta 65.375388
_cell_angle_gamma 90.000000
_cell_volume 1737.633647
_symmetry_space_group_name_H-M "C 2/C"
_symmetry_group_IT_number 15
_symmetry_cell_setting 'monoclinic'
loop_
_space_group_symop_operation_xyz
x,y,z
-x,y,1/2-z
-x,-y,-z
x,-y,1/2+z
1/2+x,1/2+y,z
1/2-x,1/2+y,1/2-z
1/2-x,1/2-y,-z
1/2+x,1/2-y,1/2+z
loop_
_atom_site_type_symbol
_atom_site_label
_atom_site_fract_x
_atom_site_fract_y
_atom_site_fract_z
Si Si1 0.741793 0.690640 0.200454
Si Si2 0.293785 0.541794 0.792414
Si Si3 0.951216 0.860234 0.069714
Si Si4 0.148093 0.387614 0.276463
Si Si5 0.112990 0.263579 0.631679
Si Si6 0.000000 0.541126 0.750000
O O1 0.809757 0.705733 0.318058
O O2 0.649336 0.701491 0.425274
O O3 0.750000 0.750000 0.000000
O O4 0.771706 0.629916 0.002101
O O5 0.306807 0.494161 0.538173
O O6 0.360898 0.602384 0.683708
O O7 0.195600 0.566471 0.911181
O O8 0.945128 0.778740 0.106656
O O9 0.000000 0.883993 0.250000
O O10 0.000000 0.874856 0.750000
O O11 0.098164 0.325979 0.471962
O O12 0.083016 0.416539 0.171102
O O13 0.000000 0.500000 0.500000
#
# Coordination Sequence:
#
# PCOD9295927 Si02
#       6
#     8   8   8   8   8   4
#     4   9  19  38  70 106 149 189 247 308 382 455
#     4  12  28  49  80 109 148 210 269 317 384 459
#     4  12  29  48  75 114 162 203 257 322 390 468
#     4  11  26  46  82 110 154 197 261 321 395 462
#     4  10  23  43  73 114 154 196 247 321 395 468
#     4  12  30  54  76 112 160 208 264 324 376 458
#
# _framework density 25.321793
#
# number of rings (size 3 to 8) (size 9 to 14) (size 15 to 20)
#    0.000    1.091    0.000    5.455   15.273    3.636 
#    0.000    0.000    0.000    0.000    0.000    0.000 
#    0.000    0.000    0.000    0.000    0.000    0.000 
#
# Total GULP energy -122895.968761 kJ/mol
# GULP energy per Si atom -5586.180398 kJ/mol
# Density = 2.526416 g / cm^3
# Si number density = 25.321793 Si / 1000 Ang^3
#
#
#
# Elastic Constant Matrix: (Units=GPa)
#
#
# Indices 1 2 3 4 5 6 
#
# 1 149.9103 49.2391 35.4191 0.0000 22.3837 0.0000
# 2 49.2391 93.2907 51.6886 0.0000 10.1939 0.0000
# 3 35.4191 51.6886 132.3653 0.0000 21.9795 0.0000
# 4 0.0000 0.0000 0.0000 39.7090 0.0000 6.3091
# 5 22.3837 10.1939 21.9795 0.0000 40.2329 0.0000
# 6 0.0000 0.0000 0.0000 6.3091 0.0000 48.0790
#
#
#
# Elastic Compliance Matrix: (Units=1/GPa)
#
#
# Indices 1 2 3 4 5 6 
#
# 1 0.008582 -0.004075 -0.000092 0.000000 -0.003692 0.000000
# 2 -0.004075 0.015627 -0.005203 0.000000 0.001150 0.000000
# 3 -0.000092 -0.005203 0.010320 0.000000 -0.004268 0.000000
# 4 0.000000 0.000000 0.000000 0.025719 0.000000 -0.003375
# 5 -0.003692 0.001150 -0.004268 0.000000 0.028950 0.000000
# 6 0.000000 0.000000 0.000000 -0.003375 0.000000 0.021242
#
#
# Mechanical properties :
#
#
# Convention : Reuss Voigt Hill
#
# Bulk Modulus (GPa) = 63.33572 72.02889 67.68231
# Shear Modulus (GPa) = 37.19020 41.55213 39.37116
#
# Velocity S-wave (km/s) = 3.83652 4.05528 3.94742
# Velocity P-wave (km/s) = 6.68520 7.10170 6.89659
#
# Compressibility (1/GPa) = 0.01578888
#
# Stress axis : x y z
#
# Youngs Moduli (GPa) = 116.51995 63.99105 96.89932
#
# Poissons Ratio (x) = 0.26078 0.00892
# Poissons Ratio (y) = 0.47486 0.50416
# Poissons Ratio (z) = 0.01072 0.33294
#
# Static dielectric constant tensor:
#      x y z
#    x 2.060470 0.000000 -0.058560 
#    y 0.000000 2.073180 0.000000 
#    z -0.058560 0.000000 1.998940 
# 
# From -- ./inp_files/10280.got.cif
#   From: 2010.05.17/outbox.cif.g08.bks.cpg/sg15_6_cif.got.tgz:10280.got - 2010.06.03 18:47:42.
