data_PCOD9295129
_publ_section_title
;
Structure prediction by ZEFSAII (Michael W. Deem and Ramdas Pophale) SiO2 
 PCOD9295129
Probable space group: C 2/C
;
_chemical_formula_sum "Si O2"
_cell_formula_units_Z 44
_cell_length_a 11.518493
_cell_length_b 19.571377
_cell_length_c 14.863920
_cell_angle_alpha 90.000000
_cell_angle_beta 140.130863
_cell_angle_gamma 90.000000
_cell_volume 2147.993810
_symmetry_space_group_name_H-M "C 2/C"
_symmetry_group_IT_number 15
_symmetry_cell_setting 'monoclinic'
loop_
_space_group_symop_operation_xyz
x,y,z
-x,y,1/2-z
-x,-y,-z
x,-y,1/2+z
1/2+x,1/2+y,z
1/2-x,1/2+y,1/2-z
1/2-x,1/2-y,-z
1/2+x,1/2-y,1/2+z
loop_
_atom_site_type_symbol
_atom_site_label
_atom_site_fract_x
_atom_site_fract_y
_atom_site_fract_z
Si Si1 0.796131 0.424785 0.625868
Si Si2 0.903934 0.212662 0.533954
Si Si3 0.316081 0.588804 0.248730
Si Si4 0.500000 0.836350 0.250000
Si Si5 0.744698 0.438218 0.986620
Si Si6 0.702482 0.747729 0.220537
O O1 0.658385 0.365389 0.515860
O O2 0.750833 0.447559 0.700506
O O3 0.784888 0.488179 0.552625
O O4 0.000000 0.395952 0.750000
O O5 0.750000 0.250000 0.500000
O O6 0.913493 0.245001 0.439606
O O7 0.103668 0.221241 0.691192
O O8 0.226755 0.563429 0.103595
O O9 0.532581 0.579480 0.372984
O O10 0.274926 0.669137 0.235888
O O11 0.634640 0.883532 0.388299
O O12 0.610917 0.789905 0.245844
#
# Coordination Sequence:
#
# PCOD9295129 Si02
#       6
#     8   8   8   4   8   8
#     4  11  23  43  64  91 130 168 210 264 314 378
#     4  11  23  44  66  92 128 167 218 264 319 374
#     4  10  23  42  65  88 130 168 209 260 326 369
#     4  12  22  38  64 100 130 156 224 254 322 392
#     4  11  23  42  62  95 127 172 206 260 319 385
#     4  11  23  40  67  97 126 169 206 273 319 374
#
# _framework density 20.484231000000001
#
# number of rings (size 3 to 8) (size 9 to 14) (size 15 to 20)
#    0.000    1.091    0.909    7.636    0.000    2.909 
#    9.818    0.000    0.000    0.000    0.000    0.000 
#    0.000    0.000    0.000    0.000    0.000    0.000 
#
# Total GULP energy -123058.229132 kJ/mol
# GULP energy per Si atom -5593.555870 kJ/mol
# Density = 2.043761 g / cm^3
# Si number density = 20.484231 Si / 1000 Ang^3
#
#
#
# Elastic Constant Matrix: (Units=GPa)
#
#
# Indices 1 2 3 4 5 6 
#
# 1 64.0227 2.2525 -1.4381 0.0000 -16.1690 -0.0005
# 2 2.2525 73.1084 22.5973 -0.0001 -9.1709 -0.0002
# 3 -1.4381 22.5973 77.1683 -0.0003 -14.2584 -0.0003
# 4 0.0000 -0.0001 -0.0003 18.7096 -0.0001 0.9351
# 5 -16.1690 -9.1709 -14.2584 -0.0001 46.6122 -0.0001
# 6 -0.0005 -0.0002 -0.0003 0.9351 -0.0001 78.4994
#
#
#
# Elastic Compliance Matrix: (Units=1/GPa)
#
#
# Indices 1 2 3 4 5 6 
#
# 1 0.017288 -0.000212 0.001573 0.000000 0.006437 0.000000
# 2 -0.000212 0.015172 -0.004143 0.000000 0.001644 0.000000
# 3 0.001573 -0.004143 0.014999 0.000000 0.004319 0.000000
# 4 0.000000 0.000000 0.000000 0.053480 0.000000 -0.000637
# 5 0.006437 0.001644 0.004319 0.000000 0.025331 0.000000
# 6 0.000000 0.000000 0.000000 -0.000637 0.000000 0.012747
#
#
# Mechanical properties :
#
#
# Convention : Reuss Voigt Hill
#
# Bulk Modulus (GPa) = 23.86827 29.01364 26.44095
# Shear Modulus (GPa) = 31.53699 41.49011 36.51355
#
# Velocity S-wave (km/s) = 3.92800 4.50540 4.22657
# Velocity P-wave (km/s) = 5.67887 6.42335 6.06255
#
# Compressibility (1/GPa) = 0.04189662
#
# Stress axis : x y z
#
# Youngs Moduli (GPa) = 57.84425 65.91245 66.67040
#
# Poissons Ratio (x) = 0.01394 -0.10490
# Poissons Ratio (y) = 0.01224 0.27621
# Poissons Ratio (z) = -0.09101 0.27307
#
# Static dielectric constant tensor:
#      x y z
#    x 1.759980 0.000000 0.009930 
#    y 0.000000 1.690230 0.000000 
#    z 0.009930 0.000000 1.715420 
# 
# From -- ./inp_files/147276.got.cif
#   From: 2010.05.17/outbox.cif.g08.bks.cpg/sg15_74_cif.got.tgz:147276.got - 2010.06.03 18:47:42.
