data_PCOD9295649
_publ_section_title
;
Structure prediction by ZEFSAII (Michael W. Deem and Ramdas Pophale) SiO2 
 PCOD9295649
Probable space group: C 2/C
;
_chemical_formula_sum "Si O2"
_cell_formula_units_Z 48
_cell_length_a 15.145479
_cell_length_b 13.016172
_cell_length_c 11.590775
_cell_angle_alpha 90.000000
_cell_angle_beta 81.222666
_cell_angle_gamma 90.000000
_cell_volume 2258.201294
_symmetry_space_group_name_H-M "C 2/C"
_symmetry_group_IT_number 15
_symmetry_cell_setting 'monoclinic'
loop_
_space_group_symop_operation_xyz
x,y,z
-x,y,1/2-z
-x,-y,-z
x,-y,1/2+z
1/2+x,1/2+y,z
1/2-x,1/2+y,1/2-z
1/2-x,1/2-y,-z
1/2+x,1/2-y,1/2+z
loop_
_atom_site_type_symbol
_atom_site_label
_atom_site_fract_x
_atom_site_fract_y
_atom_site_fract_z
Si Si1 0.500000 0.016493 0.750000
Si Si2 0.000000 0.823164 0.250000
Si Si3 0.272383 0.559514 0.147415
Si Si4 0.089387 0.028290 0.552498
Si Si5 0.604192 0.653637 0.197910
Si Si6 0.158331 0.633500 0.599875
Si Si7 0.877493 0.348634 0.664705
O O1 0.443222 0.944742 0.675348
O O2 0.564509 0.083183 0.657257
O O3 0.941904 0.897138 0.340750
O O4 0.935835 0.751190 0.184590
O O5 0.355015 0.576541 0.216430
O O6 0.230685 0.446867 0.135437
O O7 0.197506 0.631041 0.221417
O O8 0.323516 0.582748 0.018984
O O9 0.116608 0.913618 0.582295
O O10 0.000000 0.000000 0.500000
O O11 0.500000 0.672302 0.250000
O O12 0.657223 0.758564 0.167240
O O13 0.157866 0.648304 0.460534
#
# Coordination Sequence:
#
# PCOD9295649 Si02
#       7
#     4   4   8   8   8   8   8
#     4   9  20  41  70 102 134 185 232 283 342 416
#     4  11  24  41  70 102 140 183 226 295 344 416
#     4  11  26  43  65 103 138 180 233 290 340 414
#     4  12  23  42  67  92 139 181 225 285 348 406
#     4  12  24  43  70 104 133 183 238 273 346 422
#     4  11  23  43  72  97 141 182 231 290 347 408
#     4  10  23  43  67 102 140 180 234 282 352 414
#
# _framework density 21.255856000000001
#
# number of rings (size 3 to 8) (size 9 to 14) (size 15 to 20)
#    0.000    1.000    3.333    2.500    0.000    6.000 
#    0.000    1.667    0.000    0.000    0.000    0.000 
#    0.000    0.000    0.000    0.000    0.000    0.000 
#
# Total GULP energy -133783.428231 kJ/mol
# GULP energy per Si atom -5574.309510 kJ/mol
# Density = 2.120748 g / cm^3
# Si number density = 21.255856 Si / 1000 Ang^3
#
#
#
# Elastic Constant Matrix: (Units=GPa)
#
#
# Indices 1 2 3 4 5 6 
#
# 1 89.0218 60.1536 47.4595 0.0000 -14.7864 0.0000
# 2 60.1536 110.7277 59.2421 0.0000 -1.9521 0.0000
# 3 47.4595 59.2421 114.5275 0.0000 -29.1702 0.0000
# 4 0.0000 0.0000 0.0000 16.6663 0.0000 9.7314
# 5 -14.7864 -1.9521 -29.1702 0.0000 46.5000 0.0000
# 6 0.0000 0.0000 0.0000 9.7314 0.0000 13.4724
#
#
#
# Elastic Compliance Matrix: (Units=1/GPa)
#
#
# Indices 1 2 3 4 5 6 
#
# 1 0.019398 -0.009360 -0.002054 0.000000 0.004487 0.000000
# 2 -0.009360 0.017733 -0.006977 0.000000 -0.006609 0.000000
# 3 -0.002054 -0.006977 0.015413 0.000000 0.008723 0.000000
# 4 0.000000 0.000000 0.000000 0.103765 0.000000 -0.074952
# 5 0.004487 -0.006609 0.008723 0.000000 0.028127 0.000000
# 6 0.000000 0.000000 0.000000 -0.074952 0.000000 0.128365
#
#
# Mechanical properties :
#
#
# Convention : Reuss Voigt Hill
#
# Bulk Modulus (GPa) = 63.44370 71.99860 67.72115
# Shear Modulus (GPa) = 14.09093 25.15587 19.62340
#
# Velocity S-wave (km/s) = 2.57752 3.44391 3.04172
# Velocity P-wave (km/s) = 6.22660 7.05407 6.65321
#
# Compressibility (1/GPa) = 0.01576201
#
# Stress axis : x y z
#
# Youngs Moduli (GPa) = 51.55065 56.39326 64.87839
#
# Poissons Ratio (x) = 0.52786 0.13325
# Poissons Ratio (y) = 0.48253 0.45266
# Poissons Ratio (z) = 0.10588 0.39346
#
# Static dielectric constant tensor:
#      x y z
#    x 1.705790 0.000000 -0.170480 
#    y 0.000000 1.783340 0.000000 
#    z -0.170480 0.000000 1.549970 
# 
# From -- ./inp_files/96230.got.cif
#   From: 2010.05.17/outbox.cif.g08.bks.cpg/sg15_49_cif.got.tgz:96230.got - 2010.06.03 18:47:42.
