data_PCOD9295218
_publ_section_title
;
Structure prediction by ZEFSAII (Michael W. Deem and Ramdas Pophale) SiO2 
 PCOD9295218
Probable space group: C 2/C
;
_chemical_formula_sum "Si O2"
_cell_formula_units_Z 44
_cell_length_a 5.358533
_cell_length_b 26.956345
_cell_length_c 12.202975
_cell_angle_alpha 90.000000
_cell_angle_beta 90.151784
_cell_angle_gamma 90.000000
_cell_volume 1762.670407
_symmetry_space_group_name_H-M "C 2/C"
_symmetry_group_IT_number 15
_symmetry_cell_setting 'monoclinic'
loop_
_space_group_symop_operation_xyz
x,y,z
-x,y,1/2-z
-x,-y,-z
x,-y,1/2+z
1/2+x,1/2+y,z
1/2-x,1/2+y,1/2-z
1/2-x,1/2-y,-z
1/2+x,1/2-y,1/2+z
loop_
_atom_site_type_symbol
_atom_site_label
_atom_site_fract_x
_atom_site_fract_y
_atom_site_fract_z
Si Si1 0.332555 0.129962 0.061165
Si Si2 0.000000 0.605738 0.750000
Si Si3 0.553631 0.717874 0.069623
Si Si4 0.201484 0.463222 0.061656
Si Si5 0.500000 0.924074 0.750000
Si Si6 0.675211 0.183797 0.889357
Si Si7 0.000000 0.013432 0.250000
O O1 0.184282 0.171841 0.128097
O O2 0.539695 0.108714 0.142655
O O3 0.196489 0.080866 0.016146
O O4 0.454452 0.158011 0.958835
O O5 0.047359 0.568092 0.651497
O O6 0.209577 0.645857 0.789387
O O7 0.398232 0.759057 0.135605
O O8 0.750000 0.750000 0.000000
O O9 0.392403 0.690268 0.976678
O O10 0.426167 0.485444 0.135964
O O11 0.000000 0.500000 0.000000
O O12 0.746729 0.956099 0.766846
#
# Coordination Sequence:
#
# PCOD9295218 Si02
#       7
#     8   4   8   8   4   8   4
#     4  10  23  42  66  99 135 190 234 306 367 446
#     4  10  23  42  69 106 136 191 248 291 374 454
#     4   9  19  40  65  93 134 180 234 307 373 429
#     4  11  24  45  71 105 146 193 246 315 371 444
#     4  12  27  46  70 105 146 191 254 293 380 446
#     4   9  20  42  65  95 138 181 240 306 369 441
#     4  12  28  48  69 107 144 196 250 302 374 440
#
# _framework density 24.962123999999999
#
# number of rings (size 3 to 8) (size 9 to 14) (size 15 to 20)
#    0.000    1.818    1.818    0.545    5.091    0.727 
#    9.818    0.000    0.000    0.000    0.000    0.000 
#    0.000    0.000    0.000    0.000    0.000    0.000 
#
# Total GULP energy -122650.908509 kJ/mol
# GULP energy per Si atom -5575.041296 kJ/mol
# Density = 2.490531 g / cm^3
# Si number density = 24.962124 Si / 1000 Ang^3
#
#
#
# Elastic Constant Matrix: (Units=GPa)
#
#
# Indices 1 2 3 4 5 6 
#
# 1 76.0265 54.6619 19.8167 0.0000 29.4404 0.0000
# 2 54.6619 184.5603 70.2435 0.0000 30.0649 0.0000
# 3 19.8167 70.2435 118.5444 0.0000 29.5353 0.0000
# 4 0.0000 0.0000 0.0000 -34.5748 0.0000 -79.2833
# 5 29.4404 30.0649 29.5353 0.0000 38.5272 0.0000
# 6 0.0000 0.0000 0.0000 -79.2833 0.0000 -157.1367
#
#
#
# Elastic Compliance Matrix: (Units=1/GPa)
#
#
# Indices 1 2 3 4 5 6 
#
# 1 0.021963 -0.005264 0.003221 0.000000 -0.015144 0.000000
# 2 -0.005264 0.008514 -0.004341 0.000000 0.000706 0.000000
# 3 0.003221 -0.004341 0.012656 0.000000 -0.008776 0.000000
# 4 0.000000 0.000000 0.000000 0.184246 0.000000 -0.092961
# 5 -0.015144 0.000706 -0.008776 0.000000 0.043705 0.000000
# 6 0.000000 0.000000 0.000000 -0.092961 0.000000 0.040540
#
#
# Mechanical properties :
#
#
# Convention : Reuss Voigt Hill
#
# Bulk Modulus (GPa) = 32.93262 74.28615 53.60939
# Shear Modulus (GPa) = 14.94706 -15.00960 -0.03127
#
# Velocity S-wave (km/s) = 2.44967 -2.45479 -0.11204
# Velocity P-wave (km/s) = 4.60683 4.66792 4.63748
#
# Compressibility (1/GPa) = 0.03036503
#
# Stress axis : x y z
#
# Youngs Moduli (GPa) = 45.53182 117.44672 79.01323
#
# Poissons Ratio (x) = 0.61819 -0.25447
# Poissons Ratio (y) = 0.23966 0.34301
# Poissons Ratio (z) = -0.14664 0.50986
#
# Static dielectric constant tensor:
#      x y z
#    x 2.025330 0.000000 -0.099470 
#    y 0.000000 2.033550 0.000000 
#    z -0.099470 0.000000 2.098870 
# 
# From -- ./inp_files/129905.got.cif
#   From: 2010.05.17/outbox.cif.g08.bks.cpg/sg15_65_cif.got.tgz:129905.got - 2010.06.03 18:47:42.
