data_PCOD9295717
_publ_section_title
;
Structure prediction by ZEFSAII (Michael W. Deem and Ramdas Pophale) SiO2 
 PCOD9295717
Probable space group: C 2/C
;
_chemical_formula_sum "Si O2"
_cell_formula_units_Z 36
_cell_length_a 9.863743
_cell_length_b 19.124189
_cell_length_c 11.078813
_cell_angle_alpha 90.000000
_cell_angle_beta 132.530519
_cell_angle_gamma 90.000000
_cell_volume 1540.057029
_symmetry_space_group_name_H-M "C 2/C"
_symmetry_group_IT_number 15
_symmetry_cell_setting 'monoclinic'
loop_
_space_group_symop_operation_xyz
x,y,z
-x,y,1/2-z
-x,-y,-z
x,-y,1/2+z
1/2+x,1/2+y,z
1/2-x,1/2+y,1/2-z
1/2-x,1/2-y,-z
1/2+x,1/2-y,1/2+z
loop_
_atom_site_type_symbol
_atom_site_label
_atom_site_fract_x
_atom_site_fract_y
_atom_site_fract_z
Si Si1 0.321839 0.201816 0.781766
Si Si2 0.688962 0.843719 0.633962
Si Si3 0.197198 0.923402 0.583729
Si Si4 0.298150 0.421132 0.466145
Si Si5 0.500000 0.655735 0.750000
O O1 0.325834 0.277897 0.725425
O O2 0.294170 0.139684 0.669280
O O3 0.139256 0.200193 0.753911
O O4 0.498831 0.185928 0.967685
O O5 0.669026 0.877358 0.753809
O O6 0.761591 0.900223 0.581438
O O7 0.125927 0.890819 0.415262
O O8 0.011677 0.923847 0.554998
O O9 0.269493 0.001205 0.605330
#
# Coordination Sequence:
#
# PCOD9295717 Si02
#       5
#     8   8   8   8   4
#     4  11  25  44  71 102 140 182 231 291 351 407
#     4  12  25  44  70 104 139 181 234 289 343 416
#     4  10  24  42  71  99 139 188 222 281 346 413
#     4  10  23  43  68 103 139 179 230 280 345 415
#     4  10  24  48  68 100 140 182 238 280 354 426
#
# _framework density 23.375755999999999
#
# number of rings (size 3 to 8) (size 9 to 14) (size 15 to 20)
#    0.000    1.333    0.000    4.667    9.333    7.111 
#    4.000    0.000    0.000    0.000    0.000    0.000 
#    0.000    0.000    0.000    0.000    0.000    0.000 
#
# Total GULP energy -100833.045051 kJ/mol
# GULP energy per Si atom -5601.835836 kJ/mol
# Density = 2.332255 g / cm^3
# Si number density = 23.375756 Si / 1000 Ang^3
#
#
#
# Elastic Constant Matrix: (Units=GPa)
#
#
# Indices 1 2 3 4 5 6 
#
# 1 97.9853 34.8597 29.6990 0.0000 -10.1275 0.0000
# 2 34.8597 184.0539 74.8094 0.0000 -28.3270 0.0000
# 3 29.6990 74.8094 137.0611 0.0000 -44.0264 0.0000
# 4 0.0000 0.0000 0.0000 21.8642 0.0000 -24.8101
# 5 -10.1275 -28.3270 -44.0264 0.0000 35.4140 0.0000
# 6 0.0000 0.0000 0.0000 -24.8101 0.0000 9.7654
#
#
#
# Elastic Compliance Matrix: (Units=1/GPa)
#
#
# Indices 1 2 3 4 5 6 
#
# 1 0.011221 -0.001461 -0.001629 0.000000 0.000015 0.000000
# 2 -0.001461 0.007215 -0.003166 0.000000 0.001417 0.000000
# 3 -0.001629 -0.003166 0.014008 0.000000 0.014416 0.000000
# 4 0.000000 0.000000 0.000000 -0.024290 0.000000 -0.061712
# 5 0.000015 0.001417 0.014416 0.000000 0.047297 0.000000
# 6 0.000000 0.000000 0.000000 -0.061712 0.000000 -0.054385
#
#
# Mechanical properties :
#
#
# Convention : Reuss Voigt Hill
#
# Bulk Modulus (GPa) = 50.17322 77.53738 63.85530
# Shear Modulus (GPa) = 247.26253 32.05753 139.66003
#
# Velocity S-wave (km/s) = 10.29597 3.70726 7.73792
# Velocity P-wave (km/s) = 12.76139 7.18102 10.35423
#
# Compressibility (1/GPa) = 0.01993095
#
# Stress axis : x y z
#
# Youngs Moduli (GPa) = 89.12144 138.60256 71.38843
#
# Poissons Ratio (x) = 0.20245 0.11631
# Poissons Ratio (y) = 0.13018 0.22603
# Poissons Ratio (z) = 0.14521 0.43885
#
# Static dielectric constant tensor:
#      x y z
#    x 1.892040 0.000000 0.018850 
#    y 0.000000 1.843200 0.000000 
#    z 0.018850 0.000000 1.882490 
# 
# From -- ./inp_files/134661.got.cif
#   From: 2010.05.17/outbox.cif.g08.bks.cpg/sg15_68_cif.got.tgz:134661.got - 2010.06.03 18:47:42.
