data_PCOD9295501
_publ_section_title
;
Structure prediction by ZEFSAII (Michael W. Deem and Ramdas Pophale) SiO2 
 PCOD9295501
Probable space group: C 2/C
;
_chemical_formula_sum "Si O2"
_cell_formula_units_Z 60
_cell_length_a 8.856220
_cell_length_b 11.905812
_cell_length_c 30.615681
_cell_angle_alpha 90.000000
_cell_angle_beta 80.549244
_cell_angle_gamma 90.000000
_cell_volume 3184.317269
_symmetry_space_group_name_H-M "C 2/C"
_symmetry_group_IT_number 15
_symmetry_cell_setting 'monoclinic'
loop_
_space_group_symop_operation_xyz
x,y,z
-x,y,1/2-z
-x,-y,-z
x,-y,1/2+z
1/2+x,1/2+y,z
1/2-x,1/2+y,1/2-z
1/2-x,1/2-y,-z
1/2+x,1/2-y,1/2+z
loop_
_atom_site_type_symbol
_atom_site_label
_atom_site_fract_x
_atom_site_fract_y
_atom_site_fract_z
Si Si1 0.982689 0.823929 0.701858
Si Si2 0.719523 0.982573 0.678455
Si Si3 0.159360 0.187981 0.042918
Si Si4 0.253608 0.778089 0.368418
Si Si5 0.607651 0.006865 0.952009
Si Si6 0.951656 0.637586 0.386316
Si Si7 0.500000 0.892755 0.250000
Si Si8 0.819321 0.239435 0.045123
O O1 0.935308 0.694616 0.716357
O O2 0.000000 0.874050 0.750000
O O3 0.139371 0.799683 0.668065
O O4 0.863876 0.902493 0.681939
O O5 0.751319 0.093849 0.647890
O O6 0.636279 0.032190 0.725041
O O7 0.596108 0.910405 0.657792
O O8 0.178838 0.260827 0.086219
O O9 0.982499 0.177669 0.038487
O O10 0.243985 0.070252 0.046938
O O11 0.250000 0.250000 0.000000
O O12 0.082142 0.731001 0.376701
O O13 0.649934 0.134088 0.941554
O O14 0.520213 0.956665 0.914876
O O15 0.500000 0.000000 0.000000
O O16 0.801176 0.682301 0.417486
O O17 0.750000 0.250000 0.000000
#
# Coordination Sequence:
#
# PCOD9295501 Si02
#       8
#     8   8   8   8   8   8   4   8
#     4   9  21  44  63  91 126 157 206 257 317 388
#     4  11  22  41  69  91 125 165 206 260 327 372
#     4  11  22  39  67  89 128 176 208 261 320 370
#     4  10  23  43  60  95 131 160 215 263 311 381
#     4  11  22  43  61  88 130 173 208 268 320 359
#     4  11  25  39  63  95 125 164 217 261 305 378
#     4   8  22  40  64  94 124 156 200 260 318 392
#     4  12  23  39  60  93 127 167 226 259 302 379
#
# _framework density 18.842345000000002
#
# number of rings (size 3 to 8) (size 9 to 14) (size 15 to 20)
#    0.400    1.067    2.667    2.400    1.867    4.800 
#    2.400    0.000    0.000    0.000    0.000    0.000 
#    0.000    0.000    0.000    0.000    0.000    0.000 
#
# Total GULP energy -167398.423726 kJ/mol
# GULP energy per Si atom -5579.947458 kJ/mol
# Density = 1.879946 g / cm^3
# Si number density = 18.842345 Si / 1000 Ang^3
#
#
#
# Elastic Constant Matrix: (Units=GPa)
#
#
# Indices 1 2 3 4 5 6 
#
# 1 138.3271 37.8500 32.8767 0.0000 -2.2939 0.0000
# 2 37.8500 66.7277 -0.9231 0.0000 -1.5514 0.0000
# 3 32.8767 -0.9231 75.7501 0.0000 -5.4249 0.0000
# 4 0.0000 0.0000 0.0000 24.4913 0.0000 -0.4424
# 5 -2.2939 -1.5514 -5.4249 0.0000 32.1275 0.0000
# 6 0.0000 0.0000 0.0000 -0.4424 0.0000 22.6530
#
#
#
# Elastic Compliance Matrix: (Units=1/GPa)
#
#
# Indices 1 2 3 4 5 6 
#
# 1 0.009795 -0.005623 -0.004341 0.000000 -0.000305 0.000000
# 2 -0.005623 0.018235 0.002730 0.000000 0.000940 0.000000
# 3 -0.004341 0.002730 0.015291 0.000000 0.002404 0.000000
# 4 0.000000 0.000000 0.000000 0.040845 0.000000 0.000798
# 5 -0.000305 0.000940 0.002404 0.000000 0.031555 0.000000
# 6 0.000000 0.000000 0.000000 0.000798 0.000000 0.044160
#
#
# Mechanical properties :
#
#
# Convention : Reuss Voigt Hill
#
# Bulk Modulus (GPa) = 34.65935 46.71248 40.68591
# Shear Modulus (GPa) = 27.17868 29.92110 28.54989
#
# Velocity S-wave (km/s) = 3.80205 3.98926 3.89678
# Velocity P-wave (km/s) = 6.14072 6.78704 6.47195
#
# Compressibility (1/GPa) = 0.02885224
#
# Stress axis : x y z
#
# Youngs Moduli (GPa) = 102.09698 54.83833 65.39816
#
# Poissons Ratio (x) = 0.30835 0.28392
# Poissons Ratio (y) = 0.57409 -0.17854
# Poissons Ratio (z) = 0.44324 -0.14971
#
# Static dielectric constant tensor:
#      x y z
#    x 1.639900 0.000000 -0.009400 
#    y 0.000000 1.625510 0.000000 
#    z -0.009400 0.000000 1.666940 
# 
# From -- ./inp_files/307116.got.cif
#   From: 2010.05.17/outbox.cif.g08.bks.cpg/sg15_154_cif.got.tgz:307116.got - 2010.06.03 18:47:42.
