data_PCOD9295886
_publ_section_title
;
Structure prediction by ZEFSAII (Michael W. Deem and Ramdas Pophale) SiO2 
 PCOD9295886
Probable space group: C 2/C
;
_chemical_formula_sum "Si O2"
_cell_formula_units_Z 40
_cell_length_a 9.927541
_cell_length_b 10.726616
_cell_length_c 25.645783
_cell_angle_alpha 90.000000
_cell_angle_beta 36.576339
_cell_angle_gamma 90.000000
_cell_volume 1627.379653
_symmetry_space_group_name_H-M "C 2/C"
_symmetry_group_IT_number 15
_symmetry_cell_setting 'monoclinic'
loop_
_space_group_symop_operation_xyz
x,y,z
-x,y,1/2-z
-x,-y,-z
x,-y,1/2+z
1/2+x,1/2+y,z
1/2-x,1/2+y,1/2-z
1/2-x,1/2-y,-z
1/2+x,1/2-y,1/2+z
loop_
_atom_site_type_symbol
_atom_site_label
_atom_site_fract_x
_atom_site_fract_y
_atom_site_fract_z
Si Si1 0.834316 0.126875 0.613937
Si Si2 0.251868 0.144325 0.325305
Si Si3 0.837794 0.553218 0.479839
Si Si4 0.720655 0.636538 0.213723
Si Si5 0.569264 0.799699 0.001618
O O1 0.765960 0.219887 0.681873
O O2 0.104977 0.104661 0.529668
O O3 0.780917 0.202118 0.577800
O O4 0.732768 0.990984 0.652004
O O5 0.500000 0.203382 0.250000
O O6 0.186342 0.125157 0.285616
O O7 0.083877 0.229390 0.409717
O O8 0.911536 0.634120 0.507120
O O9 0.052759 0.564960 0.374936
O O10 0.804332 0.412965 0.509958
O O11 0.500000 0.594043 0.250000
#
# Coordination Sequence:
#
# PCOD9295886 Si02
#       5
#     8   8   8   8   8
#     4  11  24  46  69 102 147 190 246 300 360 445
#     4  12  26  43  71 106 144 188 239 309 368 425
#     4  10  23  46  72  99 142 194 242 295 364 443
#     4  11  26  46  70 104 149 187 239 304 371 433
#     4  10  23  43  71  97 138 188 245 287 363 433
#
# _framework density 24.579388999999999
#
# number of rings (size 3 to 8) (size 9 to 14) (size 15 to 20)
#    0.000    1.200    0.000    6.000   11.200    1.600 
#    3.600    0.000    0.000    0.000    0.000    0.000 
#    0.000    0.000    0.000    0.000    0.000    0.000 
#
# Total GULP energy -112209.920034 kJ/mol
# GULP energy per Si atom -5610.496002 kJ/mol
# Density = 2.452345 g / cm^3
# Si number density = 24.579389 Si / 1000 Ang^3
#
#
#
# Elastic Constant Matrix: (Units=GPa)
#
#
# Indices 1 2 3 4 5 6 
#
# 1 93.4049 28.1293 45.8739 0.0004 17.1331 0.0000
# 2 28.1293 134.5691 59.8361 -0.0003 24.4354 0.0001
# 3 45.8739 59.8361 138.9578 0.0021 18.5470 -0.0017
# 4 0.0004 -0.0003 0.0021 11.5887 -0.0011 -8.0770
# 5 17.1331 24.4354 18.5470 -0.0011 51.8480 -0.0001
# 6 0.0000 0.0001 -0.0017 -8.0770 -0.0001 20.7938
#
#
#
# Elastic Compliance Matrix: (Units=1/GPa)
#
#
# Indices 1 2 3 4 5 6 
#
# 1 0.013229 -0.000603 -0.003741 0.000000 -0.002749 0.000000
# 2 -0.000603 0.009706 -0.003567 0.000000 -0.003099 0.000000
# 3 -0.003741 -0.003567 0.010058 -0.000002 -0.000681 0.000000
# 4 0.000000 0.000000 -0.000002 0.118324 0.000003 0.045961
# 5 -0.002749 -0.003099 -0.000681 0.000003 0.021900 0.000001
# 6 0.000000 0.000000 0.000000 0.045961 0.000001 0.065944
#
#
# Mechanical properties :
#
#
# Convention : Reuss Voigt Hill
#
# Bulk Modulus (GPa) = 58.23274 70.51225 64.37250
# Shear Modulus (GPa) = 19.17870 32.38561 25.78215
#
# Velocity S-wave (km/s) = 2.79637 3.63380 3.24224
# Velocity P-wave (km/s) = 5.84546 6.80851 6.34528
#
# Compressibility (1/GPa) = 0.01717247
#
# Stress axis : x y z
#
# Youngs Moduli (GPa) = 75.59088 103.03093 99.42221
#
# Poissons Ratio (x) = 0.06210 0.37192
# Poissons Ratio (y) = 0.04556 0.35461
# Poissons Ratio (z) = 0.28277 0.36749
#
# Static dielectric constant tensor:
#      x y z
#    x 1.929830 0.000000 -0.016360 
#    y 0.000000 1.925180 0.000000 
#    z -0.016360 0.000000 1.923870 
# 
# From -- ./inp_files/292362.got.cif
#   From: 2010.05.17/outbox.cif.g08.bks.cpg/sg15_147_cif.got.tgz:292362.got - 2010.06.03 18:47:42.
