data_PCOD9295622
_publ_section_title
;
Structure prediction by ZEFSAII (Michael W. Deem and Ramdas Pophale) SiO2 
 PCOD9295622
Probable space group: C 2/C
;
_chemical_formula_sum "Si O2"
_cell_formula_units_Z 64
_cell_length_a 16.700194
_cell_length_b 14.246340
_cell_length_c 17.148115
_cell_angle_alpha 90.000000
_cell_angle_beta 44.465231
_cell_angle_gamma 90.000000
_cell_volume 2857.818618
_symmetry_space_group_name_H-M "C 2/C"
_symmetry_group_IT_number 15
_symmetry_cell_setting 'monoclinic'
loop_
_space_group_symop_operation_xyz
x,y,z
-x,y,1/2-z
-x,-y,-z
x,-y,1/2+z
1/2+x,1/2+y,z
1/2-x,1/2+y,1/2-z
1/2-x,1/2-y,-z
1/2+x,1/2-y,1/2+z
loop_
_atom_site_type_symbol
_atom_site_label
_atom_site_fract_x
_atom_site_fract_y
_atom_site_fract_z
Si Si1 0.486011 0.723372 0.457797
Si Si2 0.268155 0.588706 0.818372
Si Si3 0.231785 0.138811 0.507492
Si Si4 0.580173 0.893238 0.311170
Si Si5 0.793231 0.121130 0.259330
Si Si6 0.991654 0.788030 0.135688
Si Si7 0.246291 0.282289 0.090920
Si Si8 0.609939 0.100687 0.249254
O O1 0.485950 0.821098 0.409195
O O2 0.591017 0.663496 0.354320
O O3 0.505981 0.736609 0.535118
O O4 0.367216 0.670128 0.526821
O O5 0.233598 0.598207 0.932675
O O6 0.170322 0.605717 0.821452
O O7 0.310692 0.483732 0.775640
O O8 0.370832 0.661058 0.732910
O O9 0.250000 0.250000 0.500000
O O10 0.307697 0.098931 0.383948
O O11 0.093807 0.141338 0.589649
O O12 0.643167 0.846435 0.193079
O O13 0.552629 0.999911 0.307164
O O14 0.756933 0.189996 0.353269
O O15 0.696523 0.120173 0.260581
O O16 0.978384 0.687262 0.186780
O O17 0.250000 0.250000 0.000000
#
# Coordination Sequence:
#
# PCOD9295622 Si02
#       8
#     8   8   8   8   8   8   8   8
#     4  11  21  43  70  93 128 171 216 271 328 386
#     4  11  23  42  64 100 134 170 219 268 322 393
#     4  12  25  41  66  95 137 176 213 271 324 381
#     4  10  24  44  67  96 132 172 221 268 327 395
#     4  10  23  43  66  96 130 169 220 270 325 391
#     4  12  22  42  67  97 131 174 219 263 328 395
#     4  11  24  44  66  91 127 172 219 274 329 379
#     4  11  23  43  67  98 131 173 218 265 327 392
#
# _framework density 22.394703
#
# number of rings (size 3 to 8) (size 9 to 14) (size 15 to 20)
#    0.000    1.000    5.000    1.875    1.750    4.000 
#    4.500    1.250    0.000    0.000    0.000    0.000 
#    0.000    0.000    0.000    0.000    0.000    0.000 
#
# Total GULP energy -179027.755312 kJ/mol
# GULP energy per Si atom -5594.617353 kJ/mol
# Density = 2.234373 g / cm^3
# Si number density = 22.394703 Si / 1000 Ang^3
#
#
#
# Elastic Constant Matrix: (Units=GPa)
#
#
# Indices 1 2 3 4 5 6 
#
# 1 75.8603 10.6104 34.6904 0.0000 29.7411 0.0000
# 2 10.6104 90.6255 24.6505 0.0000 15.8632 0.0000
# 3 34.6904 24.6505 124.0294 0.0000 36.5928 0.0000
# 4 0.0000 0.0000 0.0000 -3.1655 0.0000 3.7607
# 5 29.7411 15.8632 36.5928 0.0000 50.9730 0.0000
# 6 0.0000 0.0000 0.0000 3.7607 0.0000 -10.5624
#
#
#
# Elastic Compliance Matrix: (Units=1/GPa)
#
#
# Indices 1 2 3 4 5 6 
#
# 1 0.017641 0.000096 -0.002420 0.000000 -0.008586 0.000000
# 2 0.000096 0.011921 -0.001630 0.000000 -0.002595 0.000000
# 3 -0.002420 -0.001630 0.010781 0.000000 -0.005820 0.000000
# 4 0.000000 0.000000 0.000000 -0.547516 0.000000 -0.194944
# 5 -0.008586 -0.002595 -0.005820 0.000000 0.029613 0.000000
# 6 0.000000 0.000000 0.000000 -0.194944 0.000000 -0.164086
#
#
# Mechanical properties :
#
#
# Convention : Reuss Voigt Hill
#
# Bulk Modulus (GPa) = 30.83245 47.82420 39.32832
# Shear Modulus (GPa) = -8.02665 22.15330 7.06333
#
# Velocity S-wave (km/s) = -1.89525 3.14860 1.77788
# Velocity P-wave (km/s) = 3.00139 5.88385 4.67055
#
# Compressibility (1/GPa) = 0.03243336
#
# Stress axis : x y z
#
# Youngs Moduli (GPa) = 56.68456 83.88585 92.75961
#
# Poissons Ratio (x) = -0.00803 0.22450
# Poissons Ratio (y) = -0.00542 0.15123
# Poissons Ratio (z) = 0.13719 0.13676
#
# Static dielectric constant tensor:
#      x y z
#    x 1.921460 0.000000 0.002770 
#    y 0.000000 1.800300 0.000000 
#    z 0.002770 0.000000 1.923610 
# 
# From -- ./inp_files/211358.got.cif
#   From: 2010.05.17/outbox.cif.g08.bks.cpg/sg15_106_cif.got.tgz:211358.got - 2010.06.03 18:47:42.
