data_PCOD9295283
_publ_section_title
;
Structure prediction by ZEFSAII (Michael W. Deem and Ramdas Pophale) SiO2 
 PCOD9295283
Probable space group: C 2/C
;
_chemical_formula_sum "Si O2"
_cell_formula_units_Z 44
_cell_length_a 18.513747
_cell_length_b 7.091317
_cell_length_c 15.883541
_cell_angle_alpha 90.000000
_cell_angle_beta 113.209678
_cell_angle_gamma 90.000000
_cell_volume 1916.534178
_symmetry_space_group_name_H-M "C 2/C"
_symmetry_group_IT_number 15
_symmetry_cell_setting 'monoclinic'
loop_
_space_group_symop_operation_xyz
x,y,z
-x,y,1/2-z
-x,-y,-z
x,-y,1/2+z
1/2+x,1/2+y,z
1/2-x,1/2+y,1/2-z
1/2-x,1/2-y,-z
1/2+x,1/2-y,1/2+z
loop_
_atom_site_type_symbol
_atom_site_label
_atom_site_fract_x
_atom_site_fract_y
_atom_site_fract_z
Si Si1 0.500000 0.769554 0.250000
Si Si2 0.110527 0.531511 0.534398
Si Si3 0.684610 0.139471 0.417148
Si Si4 0.171251 0.666796 0.801921
Si Si5 0.225021 0.935854 0.309391
Si Si6 0.002913 0.814901 0.942183
O O1 0.420891 0.889332 0.233712
O O2 0.484100 0.661989 0.152803
O O3 0.109190 0.628187 0.441838
O O4 0.200344 0.501917 0.600219
O O5 0.075646 0.688490 0.580673
O O6 0.066559 0.333602 0.508744
O O7 0.750000 0.250000 0.500000
O O8 0.683143 0.253879 0.329437
O O9 0.705442 0.925563 0.402571
O O10 0.166945 0.890081 0.787605
O O11 0.233602 0.603863 0.759978
O O12 0.000000 0.000000 0.000000
#
# Coordination Sequence:
#
# PCOD9295283 Si02
#       6
#     4   8   8   8   8   8
#     4  12  26  48  72 104 148 194 240 300 368 442
#     4  10  23  44  67 101 137 183 234 295 357 431
#     4  10  23  42  68 101 135 179 235 294 363 428
#     4  12  24  45  70 106 143 186 240 298 360 435
#     4  11  24  41  72 102 139 182 239 298 353 428
#     4  11  25  45  71 101 144 189 239 293 366 435
#
# _framework density 22.958109
#
# number of rings (size 3 to 8) (size 9 to 14) (size 15 to 20)
#    0.000    1.091    5.455    0.000    2.545    7.273 
#    0.000    4.545    0.000    0.000    0.000    0.000 
#    0.000    0.000    0.000    0.000    0.000    0.000 
#
# Total GULP energy -122549.878699 kJ/mol
# GULP energy per Si atom -5570.449032 kJ/mol
# Density = 2.290586 g / cm^3
# Si number density = 22.958109 Si / 1000 Ang^3
#
#
#
# Elastic Constant Matrix: (Units=GPa)
#
#
# Indices 1 2 3 4 5 6 
#
# 1 93.5347 34.5294 22.9624 0.0000 -27.1197 0.0000
# 2 34.5294 109.5770 33.7554 0.0000 -23.1855 0.0000
# 3 22.9624 33.7554 104.4299 0.0000 -46.5587 0.0000
# 4 0.0000 0.0000 0.0000 36.4421 0.0000 -14.4479
# 5 -27.1197 -23.1855 -46.5587 0.0000 50.0442 0.0000
# 6 0.0000 0.0000 0.0000 -14.4479 0.0000 29.1446
#
#
#
# Elastic Compliance Matrix: (Units=1/GPa)
#
#
# Indices 1 2 3 4 5 6 
#
# 1 0.013598 -0.003162 0.001135 0.000000 0.006960 0.000000
# 2 -0.003162 0.011108 -0.002332 0.000000 0.001263 0.000000
# 3 0.001135 -0.002332 0.016870 0.000000 0.015230 0.000000
# 4 0.000000 0.000000 0.000000 0.034153 0.000000 0.016931
# 5 0.006960 0.001263 0.015230 0.000000 0.038508 0.000000
# 6 0.000000 0.000000 0.000000 0.016931 0.000000 0.042705
#
#
# Mechanical properties :
#
#
# Convention : Reuss Voigt Hill
#
# Bulk Modulus (GPa) = 30.43376 54.44844 42.44110
# Shear Modulus (GPa) = 28.31053 37.54580 32.92817
#
# Velocity S-wave (km/s) = 3.51542 4.04840 3.79129
# Velocity P-wave (km/s) = 5.45551 6.75431 6.13935
#
# Compressibility (1/GPa) = 0.03285824
#
# Stress axis : x y z
#
# Youngs Moduli (GPa) = 73.54131 90.02482 59.27689
#
# Poissons Ratio (x) = 0.28465 -0.06729
# Poissons Ratio (y) = 0.23253 0.13824
# Poissons Ratio (z) = -0.08348 0.20994
#
# Static dielectric constant tensor:
#      x y z
#    x 2.096730 0.000000 0.299060 
#    y 0.000000 1.889620 0.000000 
#    z 0.299060 0.000000 2.442610 
# 
# From -- ./inp_files/212925.got.cif
#   From: 2010.05.17/outbox.cif.g08.bks.cpg/sg15_107_cif.got.tgz:212925.got - 2010.06.03 18:47:42.
