data_PCOD9295530
_publ_section_title
;
Structure prediction by ZEFSAII (Michael W. Deem and Ramdas Pophale) SiO2 
 PCOD9295530
Probable space group: C 2/C
;
_chemical_formula_sum "Si O2"
_cell_formula_units_Z 52
_cell_length_a 28.902689
_cell_length_b 6.694797
_cell_length_c 14.484954
_cell_angle_alpha 90.000000
_cell_angle_beta 114.214204
_cell_angle_gamma 90.000000
_cell_volume 2556.209323
_symmetry_space_group_name_H-M "C 2/C"
_symmetry_group_IT_number 15
_symmetry_cell_setting 'monoclinic'
loop_
_space_group_symop_operation_xyz
x,y,z
-x,y,1/2-z
-x,-y,-z
x,-y,1/2+z
1/2+x,1/2+y,z
1/2-x,1/2+y,1/2-z
1/2-x,1/2-y,-z
1/2+x,1/2-y,1/2+z
loop_
_atom_site_type_symbol
_atom_site_label
_atom_site_fract_x
_atom_site_fract_y
_atom_site_fract_z
Si Si1 0.419316 0.034125 0.116072
Si Si2 0.026280 0.152891 0.417664
Si Si3 0.305725 0.013537 0.094325
Si Si4 0.815356 0.767506 0.777051
Si Si5 0.245498 0.094161 0.874159
Si Si6 0.425608 0.309022 0.940087
Si Si7 0.500000 0.320421 0.250000
O O1 0.363170 0.003027 0.106687
O O2 0.451880 0.173778 0.211284
O O3 0.446766 0.823493 0.119540
O O4 0.418485 0.158824 0.019884
O O5 0.978238 0.242277 0.432174
O O6 0.065713 0.036329 0.516370
O O7 0.004427 0.970261 0.339174
O O8 0.289611 0.236747 0.109713
O O9 0.302032 0.882402 0.183023
O O10 0.269495 0.966469 0.977439
O O11 0.791225 0.692213 0.853224
O O12 0.875587 0.792696 0.837337
O O13 0.787928 0.969922 0.724507
#
# Coordination Sequence:
#
# PCOD9295530 Si02
#       7
#     8   8   8   8   8   8   4
#     4  11  23  43  68  97 135 175 223 273 335 409
#     4  10  23  43  63  97 137 176 216 278 330 399
#     4  11  26  44  68  99 134 176 223 280 340 392
#     4  12  24  43  71  97 133 178 224 276 343 397
#     4  11  25  47  66  99 136 173 226 283 331 404
#     4  10  24  42  66  97 131 177 224 269 337 400
#     4  10  24  38  62 100 136 172 222 268 332 398
#
# _framework density 20.342621000000001
#
# number of rings (size 3 to 8) (size 9 to 14) (size 15 to 20)
#    0.000    1.231    3.077    1.385    6.462    3.692 
#    0.000    0.000    0.000    0.000    0.000    0.000 
#    0.000    0.000    0.000    0.000    0.000    0.000 
#
# Total GULP energy -145265.873020 kJ/mol
# GULP energy per Si atom -5587.148962 kJ/mol
# Density = 2.029632 g / cm^3
# Si number density = 20.342621 Si / 1000 Ang^3
#
#
#
# Elastic Constant Matrix: (Units=GPa)
#
#
# Indices 1 2 3 4 5 6 
#
# 1 82.1106 45.3743 13.2736 0.0000 -4.3754 0.0000
# 2 45.3743 76.8649 26.1574 0.0000 6.3320 0.0000
# 3 13.2736 26.1574 88.9294 0.0000 15.3446 0.0000
# 4 0.0000 0.0000 0.0000 25.3309 0.0000 -1.0397
# 5 -4.3754 6.3320 15.3446 0.0000 36.2520 0.0000
# 6 0.0000 0.0000 0.0000 -1.0397 0.0000 3.0801
#
#
#
# Elastic Compliance Matrix: (Units=1/GPa)
#
#
# Indices 1 2 3 4 5 6 
#
# 1 0.018701 -0.011325 -0.000206 0.000000 0.004322 0.000000
# 2 -0.011325 0.021336 -0.003998 0.000000 -0.003401 0.000000
# 3 -0.000206 -0.003998 0.013307 0.000000 -0.004959 0.000000
# 4 0.000000 0.000000 0.000000 0.040032 0.000000 0.013513
# 5 0.004322 -0.003401 -0.004959 0.000000 0.030799 0.000000
# 6 0.000000 0.000000 0.000000 0.013513 0.000000 0.329227
#
#
# Mechanical properties :
#
#
# Convention : Reuss Voigt Hill
#
# Bulk Modulus (GPa) = 44.87330 46.39060 45.63195
# Shear Modulus (GPa) = 10.16487 23.80590 16.98539
#
# Velocity S-wave (km/s) = 2.23779 3.42460 2.89271
# Velocity P-wave (km/s) = 5.36503 6.20414 5.79978
#
# Compressibility (1/GPa) = 0.02228497
#
# Stress axis : x y z
#
# Youngs Moduli (GPa) = 53.47420 46.86884 75.14612
#
# Poissons Ratio (x) = 0.53080 0.01547
# Poissons Ratio (y) = 0.60561 0.30047
# Poissons Ratio (z) = 0.01101 0.18740
#
# Static dielectric constant tensor:
#      x y z
#    x 1.673300 0.000000 -0.003690 
#    y 0.000000 1.712890 0.000000 
#    z -0.003690 0.000000 1.766880 
# 
# From -- ./inp_files/180177.got.cif
#   From: 2010.05.17/outbox.cif.g08.bks.cpg/sg15_91_cif.got.tgz:180177.got - 2010.06.03 18:47:42.
