data_PCOD9295467
_publ_section_title
;
Structure prediction by ZEFSAII (Michael W. Deem and Ramdas Pophale) SiO2 
 PCOD9295467
Probable space group: C 2/C
;
_chemical_formula_sum "Si O2"
_cell_formula_units_Z 64
_cell_length_a 7.328600
_cell_length_b 25.793627
_cell_length_c 20.584780
_cell_angle_alpha 90.000000
_cell_angle_beta 43.122567
_cell_angle_gamma 90.000000
_cell_volume 2659.849940
_symmetry_space_group_name_H-M "C 2/C"
_symmetry_group_IT_number 15
_symmetry_cell_setting 'monoclinic'
loop_
_space_group_symop_operation_xyz
x,y,z
-x,y,1/2-z
-x,-y,-z
x,-y,1/2+z
1/2+x,1/2+y,z
1/2-x,1/2+y,1/2-z
1/2-x,1/2-y,-z
1/2+x,1/2-y,1/2+z
loop_
_atom_site_type_symbol
_atom_site_label
_atom_site_fract_x
_atom_site_fract_y
_atom_site_fract_z
Si Si1 0.950012 0.604849 0.434687
Si Si2 0.963708 0.058307 0.345722
Si Si3 0.241875 0.505204 0.522040
Si Si4 0.699497 0.839874 0.260710
Si Si5 0.752178 0.361163 0.844531
Si Si6 0.625615 0.302890 0.059607
Si Si7 0.807874 0.459900 0.236462
Si Si8 0.742930 0.692828 0.970811
O O1 0.807311 0.551893 0.493195
O O2 0.840341 0.618788 0.391966
O O3 0.857324 0.653597 0.501498
O O4 0.261086 0.589543 0.352788
O O5 0.210626 0.091941 0.305563
O O6 0.792421 0.047346 0.454739
O O7 0.073549 0.001837 0.299785
O O8 0.500000 0.500000 0.500000
O O9 0.994594 0.523265 0.628756
O O10 0.500000 0.837782 0.250000
O O11 0.780525 0.900290 0.245365
O O12 0.535722 0.823703 0.368074
O O13 0.950416 0.805390 0.170858
O O14 0.000000 0.328684 0.750000
O O15 0.456978 0.336969 0.927964
O O16 0.422873 0.314336 0.053132
O O17 0.750000 0.250000 0.000000
O O18 0.000000 0.464448 0.250000
O O19 0.750000 0.750000 0.000000
#
# Coordination Sequence:
#
# PCOD9295467 Si02
#       8
#     8   8   8   8   8   8   8   8
#     4  11  25  43  66 103 141 181 237 294 348 428
#     4  12  24  41  69  99 145 187 233 288 347 428
#     4  12  22  38  66  98 140 186 233 285 350 415
#     4   9  20  40  68 100 135 181 231 284 355 432
#     4  11  24  43  66 101 139 185 231 291 356 417
#     4  10  23  44  71  99 139 180 234 297 360 420
#     4  11  21  38  68 101 139 190 235 282 352 430
#     4  10  23  42  72  99 133 179 237 295 362 426
#
# _framework density 24.061509000000001
#
# number of rings (size 3 to 8) (size 9 to 14) (size 15 to 20)
#    0.000    1.250    2.500    3.000    5.250    4.000 
#    0.000    0.000    2.750    0.000    0.000    0.000 
#    0.000    0.000    0.000    0.000    0.000    0.000 
#
# Total GULP energy -178822.887836 kJ/mol
# GULP energy per Si atom -5588.215245 kJ/mol
# Density = 2.400674 g / cm^3
# Si number density = 24.061509 Si / 1000 Ang^3
#
#
#
# Elastic Constant Matrix: (Units=GPa)
#
#
# Indices 1 2 3 4 5 6 
#
# 1 107.1696 14.2365 25.4350 0.0000 -14.0081 0.0000
# 2 14.2365 129.2709 86.7905 0.0000 -17.6956 0.0000
# 3 25.4350 86.7905 181.9313 0.0000 -19.1904 -0.0001
# 4 0.0000 0.0000 0.0000 32.2161 0.0000 -9.6084
# 5 -14.0081 -17.6956 -19.1904 0.0000 34.3955 0.0000
# 6 0.0000 0.0000 -0.0001 -9.6084 0.0000 28.1781
#
#
#
# Elastic Compliance Matrix: (Units=1/GPa)
#
#
# Indices 1 2 3 4 5 6 
#
# 1 0.010036 0.000104 -0.001079 0.000000 0.003538 0.000000
# 2 0.000104 0.011681 -0.005258 0.000000 0.003118 0.000000
# 3 -0.001079 -0.005258 0.008313 0.000000 0.001494 0.000000
# 4 0.000000 0.000000 0.000000 0.034555 0.000000 0.011783
# 5 0.003538 0.003118 0.001494 0.000000 0.032952 0.000000
# 6 0.000000 0.000000 0.000000 0.011783 0.000000 0.039506
#
#
# Mechanical properties :
#
#
# Convention : Reuss Voigt Hill
#
# Bulk Modulus (GPa) = 56.93724 74.58844 65.76284
# Shear Modulus (GPa) = 32.18211 38.41858 35.30035
#
# Velocity S-wave (km/s) = 3.66114 4.00019 3.83441
# Velocity P-wave (km/s) = 6.44876 7.23890 6.85522
#
# Compressibility (1/GPa) = 0.01756320
#
# Stress axis : x y z
#
# Youngs Moduli (GPa) = 99.64242 85.60611 120.28689
#
# Poissons Ratio (x) = -0.00888 0.12983
# Poissons Ratio (y) = -0.01034 0.63249
# Poissons Ratio (z) = 0.10755 0.45014
#
# Static dielectric constant tensor:
#      x y z
#    x 2.144910 0.000000 -0.186270 
#    y 0.000000 1.894150 0.000000 
#    z -0.186270 0.000000 2.177570 
# 
# From -- ./inp_files/293922.got.cif
#   From: 2010.05.17/outbox.cif.g08.bks.cpg/sg15_147_cif.got.tgz:293922.got - 2010.06.03 18:47:42.
