data_PCOD9295045
_publ_section_title
;
Structure prediction by ZEFSAII (Michael W. Deem and Ramdas Pophale) SiO2 
 PCOD9295045
Probable space group: C 2/C
;
_chemical_formula_sum "Si O2"
_cell_formula_units_Z 32
_cell_length_a 8.487011
_cell_length_b 11.255083
_cell_length_c 15.186689
_cell_angle_alpha 90.000000
_cell_angle_beta 56.672149
_cell_angle_gamma 90.000000
_cell_volume 1212.087615
_symmetry_space_group_name_H-M "C 2/C"
_symmetry_group_IT_number 15
_symmetry_cell_setting 'monoclinic'
loop_
_space_group_symop_operation_xyz
x,y,z
-x,y,1/2-z
-x,-y,-z
x,-y,1/2+z
1/2+x,1/2+y,z
1/2-x,1/2+y,1/2-z
1/2-x,1/2-y,-z
1/2+x,1/2-y,1/2+z
loop_
_atom_site_type_symbol
_atom_site_label
_atom_site_fract_x
_atom_site_fract_y
_atom_site_fract_z
Si Si1 0.004573 0.184133 0.459575
Si Si2 0.103966 0.405326 0.311443
Si Si3 0.997740 0.819118 0.157776
Si Si4 0.724421 0.972780 0.519369
O O1 0.964647 0.235457 0.571053
O O2 0.054375 0.279186 0.371618
O O3 0.182371 0.098489 0.427107
O O4 0.832275 0.099114 0.485037
O O5 0.325615 0.410377 0.224500
O O6 0.005265 0.504370 0.098553
O O7 0.000000 0.408361 0.250000
O O8 0.000000 0.750950 0.250000
O O9 0.192888 0.891347 0.084113
#
# Coordination Sequence:
#
# PCOD9295045 Si02
#       4
#     8   8   8   8
#     4   9  20  41  61 100 142 159 244 295 316 437
#     4  12  21  38  76  97 132 198 223 275 376 402
#     4  10  23  42  62  98 140 177 227 290 350 406
#     4   9  20  43  60  99 144 162 243 301 313 436
#
# _framework density 26.400734
#
# number of rings (size 3 to 8) (size 9 to 14) (size 15 to 20)
#    1.500    0.500    2.500    0.750    0.000    3.000 
#    0.000    3.750    0.000    0.000    0.000    0.000 
#    0.000    0.000    0.000    0.000    0.000    0.000 
#
# Total GULP energy -89410.648816 kJ/mol
# GULP energy per Si atom -5588.165551 kJ/mol
# Density = 2.634064 g / cm^3
# Si number density = 26.400734 Si / 1000 Ang^3
#
#
#
# Elastic Constant Matrix: (Units=GPa)
#
#
# Indices 1 2 3 4 5 6 
#
# 1 68.6896 0.2971 25.3942 0.0000 -37.4166 0.0000
# 2 0.2971 95.7426 40.2892 0.0000 -10.8019 0.0000
# 3 25.3942 40.2892 164.3705 0.0000 -1.8005 0.0000
# 4 0.0000 0.0000 0.0000 52.2118 0.0000 -12.0602
# 5 -37.4166 -10.8019 -1.8005 0.0000 72.6114 0.0000
# 6 0.0000 0.0000 0.0000 -12.0602 0.0000 18.6959
#
#
#
# Elastic Compliance Matrix: (Units=1/GPa)
#
#
# Indices 1 2 3 4 5 6 
#
# 1 0.022588 0.003005 -0.004095 0.000000 0.011985 0.000000
# 2 0.003005 0.012250 -0.003431 0.000000 0.003286 0.000000
# 3 -0.004095 -0.003431 0.007531 0.000000 -0.002434 0.000000
# 4 0.000000 0.000000 0.000000 0.022506 0.000000 0.014518
# 5 0.011985 0.003286 -0.002434 0.000000 0.020376 0.000000
# 6 0.000000 0.000000 0.000000 0.014518 0.000000 0.062853
#
#
# Mechanical properties :
#
#
# Convention : Reuss Voigt Hill
#
# Bulk Modulus (GPa) = 30.00578 51.19595 40.60087
# Shear Modulus (GPa) = 29.71707 46.22531 37.97119
#
# Velocity S-wave (km/s) = 3.35866 4.18893 3.79656
# Velocity P-wave (km/s) = 5.14111 6.54447 5.88477
#
# Compressibility (1/GPa) = 0.03332691
#
# Stress axis : x y z
#
# Youngs Moduli (GPa) = 44.27223 81.63397 132.78887
#
# Poissons Ratio (x) = -0.24533 0.54377
# Poissons Ratio (y) = -0.13305 0.45558
# Poissons Ratio (z) = 0.18129 0.28008
#
# Static dielectric constant tensor:
#      x y z
#    x 2.133670 0.000000 0.028640 
#    y 0.000000 2.052560 0.000000 
#    z 0.028640 0.000000 2.053630 
# 
# From -- ./inp_files/141558.got.cif
#   From: 2010.05.17/outbox.cif.g08.bks.cpg/sg15_71_cif.got.tgz:141558.got - 2010.06.03 18:47:42.
