data_PCOD9295246
_publ_section_title
;
Structure prediction by ZEFSAII (Michael W. Deem and Ramdas Pophale) SiO2 
 PCOD9295246
Probable space group: C 2/C
;
_chemical_formula_sum "Si O2"
_cell_formula_units_Z 60
_cell_length_a 13.862652
_cell_length_b 17.377795
_cell_length_c 10.330716
_cell_angle_alpha 90.000000
_cell_angle_beta 88.504925
_cell_angle_gamma 90.000000
_cell_volume 2487.846277
_symmetry_space_group_name_H-M "C 2/C"
_symmetry_group_IT_number 15
_symmetry_cell_setting 'monoclinic'
loop_
_space_group_symop_operation_xyz
x,y,z
-x,y,1/2-z
-x,-y,-z
x,-y,1/2+z
1/2+x,1/2+y,z
1/2-x,1/2+y,1/2-z
1/2-x,1/2-y,-z
1/2+x,1/2-y,1/2+z
loop_
_atom_site_type_symbol
_atom_site_label
_atom_site_fract_x
_atom_site_fract_y
_atom_site_fract_z
Si Si1 0.747261 0.906321 0.867948
Si Si2 0.376858 0.684654 0.194536
Si Si3 0.912718 0.398509 0.845631
Si Si4 0.064899 0.987159 0.874060
Si Si5 0.894706 0.429885 0.391941
Si Si6 0.500000 0.801996 0.250000
Si Si7 0.280955 0.565389 0.777808
Si Si8 0.701837 0.805345 0.439540
O O1 0.821548 0.838309 0.831183
O O2 0.678606 0.904652 0.745276
O O3 0.796844 0.990558 0.866612
O O4 0.675951 0.905666 0.990417
O O5 0.500000 0.703182 0.250000
O O6 0.398200 0.600599 0.131545
O O7 0.287956 0.710669 0.072184
O O8 0.936949 0.483924 0.898206
O O9 0.000000 0.371074 0.750000
O O10 0.875081 0.346827 0.964251
O O11 0.000000 0.997973 0.750000
O O12 0.149453 0.049733 0.845993
O O13 0.000000 0.000000 0.000000
O O14 0.827958 0.437306 0.268022
O O15 0.963774 0.359092 0.364360
O O16 0.614466 0.781083 0.316131
O O17 0.278902 0.644318 0.855149
#
# Coordination Sequence:
#
# PCOD9295246 Si02
#       8
#     8   8   8   8   8   4   8   8
#     4  10  23  42  67  94 131 183 226 270 342 425
#     4  11  25  46  65  98 139 179 226 290 349 401
#     4  11  24  41  66 105 137 178 230 282 350 421
#     4  11  27  48  75 103 141 188 245 292 347 427
#     4  11  23  41  70  99 137 177 230 276 346 427
#     4  12  24  42  66 102 138 174 220 296 348 392
#     4  10  24  42  72  96 132 185 228 278 351 422
#     4  12  24  46  68  96 142 179 230 289 351 418
#
# _framework density 24.117245
#
# number of rings (size 3 to 8) (size 9 to 14) (size 15 to 20)
#    0.000    1.067    5.333    0.000    7.467    1.067 
#    4.800    0.000    0.000    0.000    0.000    0.000 
#    0.000    0.000    0.000    0.000    0.000    0.000 
#
# Total GULP energy -167198.842670 kJ/mol
# GULP energy per Si atom -5573.294756 kJ/mol
# Density = 2.406235 g / cm^3
# Si number density = 24.117245 Si / 1000 Ang^3
#
#
#
# Elastic Constant Matrix: (Units=GPa)
#
#
# Indices 1 2 3 4 5 6 
#
# 1 106.4570 44.5973 28.8867 0.0000 -4.7947 0.0000
# 2 44.5973 156.1142 79.0350 0.0000 -32.1893 0.0000
# 3 28.8867 79.0350 147.9201 0.0000 -47.4340 0.0000
# 4 0.0000 0.0000 0.0000 36.9260 0.0000 -8.8409
# 5 -4.7947 -32.1893 -47.4340 0.0000 65.6876 0.0000
# 6 0.0000 0.0000 0.0000 -8.8409 0.0000 33.0039
#
#
#
# Elastic Compliance Matrix: (Units=1/GPa)
#
#
# Indices 1 2 3 4 5 6 
#
# 1 0.010802 -0.002847 -0.001019 0.000000 -0.001342 0.000000
# 2 -0.002847 0.009603 -0.004077 0.000000 0.001554 0.000000
# 3 -0.001019 -0.004077 0.011026 0.000000 0.005890 0.000000
# 4 0.000000 0.000000 0.000000 0.028937 0.000000 0.007751
# 5 -0.001342 0.001554 0.005890 0.000000 0.020141 0.000000
# 6 0.000000 0.000000 0.000000 0.007751 0.000000 0.032376
#
#
# Mechanical properties :
#
#
# Convention : Reuss Voigt Hill
#
# Bulk Modulus (GPa) = 64.32134 79.50325 71.91230
# Shear Modulus (GPa) = 37.32671 44.32165 40.82418
#
# Velocity S-wave (km/s) = 3.93837 4.29156 4.11875
# Velocity P-wave (km/s) = 6.88543 7.58904 7.24578
#
# Compressibility (1/GPa) = 0.01554694
#
# Stress axis : x y z
#
# Youngs Moduli (GPa) = 92.57496 104.13212 90.69112
#
# Poissons Ratio (x) = 0.29644 0.09240
# Poissons Ratio (y) = 0.26354 0.36972
# Poissons Ratio (z) = 0.09432 0.42452
#
# Static dielectric constant tensor:
#      x y z
#    x 2.858220 0.000000 0.476850 
#    y 0.000000 1.852500 0.000000 
#    z 0.476850 0.000000 2.129310 
# 
# From -- ./inp_files/98740.got.cif
#   From: 2010.05.17/outbox.cif.g08.bks.cpg/sg15_50_cif.got.tgz:98740.got - 2010.06.03 18:47:42.
