data_PCOD9295368
_publ_section_title
;
Structure prediction by ZEFSAII (Michael W. Deem and Ramdas Pophale) SiO2 
 PCOD9295368
Probable space group: C 2/C
;
_chemical_formula_sum "Si O2"
_cell_formula_units_Z 64
_cell_length_a 26.679738
_cell_length_b 8.597561
_cell_length_c 15.326073
_cell_angle_alpha 90.000000
_cell_angle_beta 128.735691
_cell_angle_gamma 90.000000
_cell_volume 2742.237225
_symmetry_space_group_name_H-M "C 2/C"
_symmetry_group_IT_number 15
_symmetry_cell_setting 'monoclinic'
loop_
_space_group_symop_operation_xyz
x,y,z
-x,y,1/2-z
-x,-y,-z
x,-y,1/2+z
1/2+x,1/2+y,z
1/2-x,1/2+y,1/2-z
1/2-x,1/2-y,-z
1/2+x,1/2-y,1/2+z
loop_
_atom_site_type_symbol
_atom_site_label
_atom_site_fract_x
_atom_site_fract_y
_atom_site_fract_z
Si Si1 0.909630 0.606493 0.104646
Si Si2 0.728625 0.177562 0.611067
Si Si3 0.650977 0.809513 0.280428
Si Si4 0.533510 0.831728 0.016804
Si Si5 0.850841 0.666515 0.206402
Si Si6 0.570436 0.255280 0.855263
Si Si7 0.090084 0.838318 0.072323
Si Si8 0.698054 0.572466 0.212557
O O1 0.944063 0.679760 0.058845
O O2 0.908979 0.683712 0.199975
O O3 0.934882 0.431398 0.138035
O O4 0.833530 0.607378 0.001212
O O5 0.792361 0.215422 0.625077
O O6 0.709123 0.339140 0.634982
O O7 0.751169 0.060791 0.711552
O O8 0.620757 0.728071 0.332100
O O9 0.703418 0.698637 0.295311
O O10 0.669653 0.986617 0.320806
O O11 0.594484 0.824834 0.146805
O O12 0.483630 0.695257 0.984819
O O13 0.500000 0.000000 0.000000
O O14 0.873607 0.708015 0.329119
O O15 0.500000 0.314154 0.750000
O O16 0.594467 0.319470 0.973375
O O17 0.127568 0.994331 0.138381
#
# Coordination Sequence:
#
# PCOD9295368 Si02
#       8
#     8   8   8   8   8   8   8   8
#     4  11  23  39  69 104 134 182 232 278 343 407
#     4  11  24  46  69  96 143 178 235 289 347 413
#     4  11  21  42  65 102 133 178 229 281 335 416
#     4  12  20  38  71  97 142 175 223 277 337 407
#     4  10  23  42  70 100 139 181 233 286 340 409
#     4  11  22  41  69  99 138 180 232 274 343 422
#     4  11  24  43  67 102 138 184 225 284 347 414
#     4  11  26  43  72  97 137 184 233 285 360 406
#
# _framework density 23.338608000000001
#
# number of rings (size 3 to 8) (size 9 to 14) (size 15 to 20)
#    0.000    1.000    5.000    1.125    5.250    0.500 
#    6.750    1.250    0.000    0.750    0.000    0.000 
#    0.000    0.000    0.000    0.000    0.000    0.000 
#
# Total GULP energy -178939.193918 kJ/mol
# GULP energy per Si atom -5591.849810 kJ/mol
# Density = 2.328549 g / cm^3
# Si number density = 23.338608 Si / 1000 Ang^3
#
#
#
# Elastic Constant Matrix: (Units=GPa)
#
#
# Indices 1 2 3 4 5 6 
#
# 1 81.2242 21.6956 16.1578 0.0000 -29.5272 0.0000
# 2 21.6956 70.1783 22.2276 0.0000 -0.5530 0.0000
# 3 16.1578 22.2276 93.6321 0.0000 -4.9615 0.0000
# 4 0.0000 0.0000 0.0000 5.5925 0.0000 7.1175
# 5 -29.5272 -0.5530 -4.9615 0.0000 49.9814 0.0000
# 6 0.0000 0.0000 0.0000 7.1175 0.0000 35.6545
#
#
#
# Elastic Compliance Matrix: (Units=1/GPa)
#
#
# Indices 1 2 3 4 5 6 
#
# 1 0.017610 -0.004944 -0.001324 0.000000 0.010217 0.000000
# 2 -0.004944 0.016798 -0.003297 0.000000 -0.003062 0.000000
# 3 -0.001324 -0.003297 0.011709 0.000000 0.000344 0.000000
# 4 0.000000 0.000000 0.000000 0.239712 0.000000 -0.047853
# 5 0.010217 -0.003062 0.000344 0.000000 0.026044 0.000000
# 6 0.000000 0.000000 0.000000 -0.047853 0.000000 0.037599
#
#
# Mechanical properties :
#
#
# Convention : Reuss Voigt Hill
#
# Bulk Modulus (GPa) = 37.05410 40.57742 38.81576
# Shear Modulus (GPa) = 13.24159 30.57593 21.90876
#
# Velocity S-wave (km/s) = 2.38453 3.62346 3.06720
# Velocity P-wave (km/s) = 4.84691 5.91017 5.40475
#
# Compressibility (1/GPa) = 0.02698756
#
# Stress axis : x y z
#
# Youngs Moduli (GPa) = 56.78661 59.53084 85.40160
#
# Poissons Ratio (x) = 0.29434 0.11305
# Poissons Ratio (y) = 0.28077 0.28155
# Poissons Ratio (z) = 0.07517 0.19626
#
# Static dielectric constant tensor:
#      x y z
#    x 1.907220 0.000000 -0.018220 
#    y 0.000000 1.865850 0.000000 
#    z -0.018220 0.000000 1.913690 
# 
# From -- ./inp_files/181180.got.cif
#   From: 2010.05.17/outbox.cif.g08.bks.cpg/sg15_91_cif.got.tgz:181180.got - 2010.06.03 18:47:42.
