data_PCOD9295569
_publ_section_title
;
Structure prediction by ZEFSAII (Michael W. Deem and Ramdas Pophale) SiO2 
 PCOD9295569
Probable space group: C 2/C
;
_chemical_formula_sum "Si O2"
_cell_formula_units_Z 56
_cell_length_a 8.835425
_cell_length_b 27.144064
_cell_length_c 12.757481
_cell_angle_alpha 90.000000
_cell_angle_beta 63.217119
_cell_angle_gamma 90.000000
_cell_volume 2731.383930
_symmetry_space_group_name_H-M "C 2/C"
_symmetry_group_IT_number 15
_symmetry_cell_setting 'monoclinic'
loop_
_space_group_symop_operation_xyz
x,y,z
-x,y,1/2-z
-x,-y,-z
x,-y,1/2+z
1/2+x,1/2+y,z
1/2-x,1/2+y,1/2-z
1/2-x,1/2-y,-z
1/2+x,1/2-y,1/2+z
loop_
_atom_site_type_symbol
_atom_site_label
_atom_site_fract_x
_atom_site_fract_y
_atom_site_fract_z
Si Si1 0.853931 0.117021 0.230719
Si Si2 0.475146 0.616244 0.636305
Si Si3 0.949356 0.389139 0.528989
Si Si4 0.758311 0.557309 0.435197
Si Si5 0.548435 0.694363 0.029185
Si Si6 0.175080 0.554726 0.632510
Si Si7 0.957425 0.301647 0.387934
O O1 0.697400 0.132966 0.351460
O O2 0.774899 0.085005 0.163264
O O3 0.000000 0.088571 0.250000
O O4 0.960168 0.161125 0.145508
O O5 0.500000 0.625329 0.750000
O O6 0.609357 0.575299 0.557374
O O7 0.502435 0.666515 0.561991
O O8 0.297429 0.591583 0.657556
O O9 0.858968 0.422584 0.470632
O O10 0.035075 0.346110 0.432593
O O11 0.072965 0.422117 0.561184
O O12 0.757209 0.499889 0.409711
O O13 0.495404 0.749961 0.072481
O O14 0.753272 0.693277 0.963595
O O15 0.000000 0.550762 0.750000
O O16 0.000000 0.303149 0.250000
#
# Coordination Sequence:
#
# PCOD9295569 Si02
#       7
#     8   8   8   8   8   8   8
#     4  11  21  43  65  90 134 170 218 270 332 398
#     4  11  24  44  68  97 138 174 223 281 333 396
#     4  12  23  41  66  99 129 176 220 281 328 398
#     4  11  26  42  64  98 134 175 222 276 339 394
#     4  10  23  43  65 101 128 176 218 277 330 405
#     4  12  24  43  65  97 132 179 227 275 334 400
#     4  11  23  39  72  98 131 172 228 268 339 400
#
# _framework density 20.502427000000001
#
# number of rings (size 3 to 8) (size 9 to 14) (size 15 to 20)
#    0.000    0.857    2.857    4.714    4.000    1.714 
#    0.000    4.286    0.000    0.000    0.000    0.000 
#    0.000    0.000    0.000    0.000    0.000    0.000 
#
# Total GULP energy -156450.493883 kJ/mol
# GULP energy per Si atom -5587.517639 kJ/mol
# Density = 2.045576 g / cm^3
# Si number density = 20.502427 Si / 1000 Ang^3
#
#
#
# Elastic Constant Matrix: (Units=GPa)
#
#
# Indices 1 2 3 4 5 6 
#
# 1 73.8705 23.1503 32.3792 0.0000 28.4580 0.0000
# 2 23.1503 134.5354 57.0966 0.0000 18.4229 0.0000
# 3 32.3792 57.0966 148.8968 0.0000 20.3945 0.0000
# 4 0.0000 0.0000 0.0000 3.8095 0.0000 -10.7730
# 5 28.4580 18.4229 20.3945 0.0000 40.7424 0.0000
# 6 0.0000 0.0000 0.0000 -10.7730 0.0000 22.3297
#
#
#
# Elastic Compliance Matrix: (Units=1/GPa)
#
#
# Indices 1 2 3 4 5 6 
#
# 1 0.019427 -0.000712 -0.002294 0.000000 -0.012099 0.000000
# 2 -0.000712 0.009144 -0.003063 0.000000 -0.002104 0.000000
# 3 -0.002294 -0.003063 0.008568 0.000000 -0.001301 0.000000
# 4 0.000000 0.000000 0.000000 -0.720496 0.000000 -0.347604
# 5 -0.012099 -0.002104 -0.001301 0.000000 0.034598 0.000000
# 6 0.000000 0.000000 0.000000 -0.347604 0.000000 -0.122918
#
#
# Mechanical properties :
#
#
# Convention : Reuss Voigt Hill
#
# Bulk Modulus (GPa) = 40.00188 64.72833 52.36511
# Shear Modulus (GPa) = -6.65597 29.68809 11.51606
#
# Velocity S-wave (km/s) = -1.80374 3.80942 2.37258
# Velocity P-wave (km/s) = 3.90067 7.14063 5.75342
#
# Compressibility (1/GPa) = 0.02499882
#
# Stress axis : x y z
#
# Youngs Moduli (GPa) = 51.47433 109.36534 116.71579
#
# Poissons Ratio (x) = 0.07792 0.26777
# Poissons Ratio (y) = 0.03667 0.35752
# Poissons Ratio (z) = 0.11809 0.33501
#
# Static dielectric constant tensor:
#      x y z
#    x 1.759160 0.000000 -0.013020 
#    y 0.000000 1.736230 0.000000 
#    z -0.013020 0.000000 1.743400 
# 
# From -- ./inp_files/81249.got.cif
#   From: 2010.05.17/outbox.cif.g08.bks.cpg/sg15_41_cif.got.tgz:81249.got - 2010.06.03 18:47:42.
