data_PCOD9295274
_publ_section_title
;
Structure prediction by ZEFSAII (Michael W. Deem and Ramdas Pophale) SiO2 
 PCOD9295274
Probable space group: C 2/C
;
_chemical_formula_sum "Si O2"
_cell_formula_units_Z 48
_cell_length_a 13.522060
_cell_length_b 10.067931
_cell_length_c 14.676085
_cell_angle_alpha 90.000000
_cell_angle_beta 102.167157
_cell_angle_gamma 90.000000
_cell_volume 1953.108877
_symmetry_space_group_name_H-M "C 2/C"
_symmetry_group_IT_number 15
_symmetry_cell_setting 'monoclinic'
loop_
_space_group_symop_operation_xyz
x,y,z
-x,y,1/2-z
-x,-y,-z
x,-y,1/2+z
1/2+x,1/2+y,z
1/2-x,1/2+y,1/2-z
1/2-x,1/2-y,-z
1/2+x,1/2-y,1/2+z
loop_
_atom_site_type_symbol
_atom_site_label
_atom_site_fract_x
_atom_site_fract_y
_atom_site_fract_z
Si Si1 0.919986 0.155916 0.467222
Si Si2 0.392576 0.847893 0.990056
Si Si3 0.783409 0.880023 0.668425
Si Si4 0.503296 0.989072 0.154670
Si Si5 0.305458 0.170427 0.821207
Si Si6 0.973326 0.991283 0.150362
O O1 0.833568 0.259017 0.422190
O O2 0.910343 0.092967 0.564526
O O3 0.030787 0.225094 0.488936
O O4 0.931688 0.046355 0.389262
O O5 0.280031 0.833984 0.931419
O O6 0.443876 0.929222 0.915819
O O7 0.404143 0.930522 0.086176
O O8 0.759888 0.778685 0.744838
O O9 0.753563 0.032460 0.685028
O O10 0.901593 0.889238 0.669870
O O11 0.500000 0.063886 0.250000
O O12 0.582394 0.871038 0.191251
O O13 0.000000 0.919236 0.250000
#
# Coordination Sequence:
#
# PCOD9295274 Si02
#       6
#     8   8   8   8   8   8
#     4  10  23  44  67  93 136 174 225 271 325 406
#     4   9  21  39  61  94 126 162 220 275 314 388
#     4  11  24  43  67  99 136 169 225 277 331 388
#     4   9  19  40  64  90 127 172 211 265 335 385
#     4  10  23  42  67  98 136 172 217 281 324 393
#     4  11  24  42  67  97 133 184 214 265 343 401
#
# _framework density 24.576204000000001
#
# number of rings (size 3 to 8) (size 9 to 14) (size 15 to 20)
#    0.000    2.000    1.667    1.000    7.000    2.000 
#    9.000    0.000    0.000    0.000    0.000    0.000 
#    0.000    0.000    0.000    0.000    0.000    0.000 
#
# Total GULP energy -134018.820771 kJ/mol
# GULP energy per Si atom -5584.117532 kJ/mol
# Density = 2.452027 g / cm^3
# Si number density = 24.576204 Si / 1000 Ang^3
#
#
#
# Elastic Constant Matrix: (Units=GPa)
#
#
# Indices 1 2 3 4 5 6 
#
# 1 38.1206 10.0972 26.5371 0.0000 7.5232 0.0000
# 2 10.0972 114.7050 64.9773 0.0000 -7.9483 0.0000
# 3 26.5371 64.9773 199.6191 0.0000 -11.6218 0.0000
# 4 0.0000 0.0000 0.0000 45.8508 0.0000 7.1504
# 5 7.5232 -7.9483 -11.6218 0.0000 30.9119 0.0000
# 6 0.0000 0.0000 0.0000 7.1504 0.0000 25.5045
#
#
#
# Elastic Compliance Matrix: (Units=1/GPa)
#
#
# Indices 1 2 3 4 5 6 
#
# 1 0.031452 -0.000916 -0.004440 0.000000 -0.009559 0.000000
# 2 -0.000916 0.010782 -0.003285 0.000000 0.001760 0.000000
# 3 -0.004440 -0.003285 0.006832 0.000000 0.002805 0.000000
# 4 0.000000 0.000000 0.000000 0.022807 0.000000 -0.006394
# 5 -0.009559 0.001760 0.002805 0.000000 0.036184 0.000000
# 6 0.000000 0.000000 0.000000 -0.006394 0.000000 0.041001
#
#
# Mechanical properties :
#
#
# Convention : Reuss Voigt Hill
#
# Bulk Modulus (GPa) = 31.46202 61.74090 46.60146
# Shear Modulus (GPa) = 28.25896 37.17563 32.71730
#
# Velocity S-wave (km/s) = 3.39462 3.89352 3.65260
# Velocity P-wave (km/s) = 5.30982 6.73717 6.06563
#
# Compressibility (1/GPa) = 0.03178436
#
# Stress axis : x y z
#
# Youngs Moduli (GPa) = 31.79417 92.75044 146.36211
#
# Poissons Ratio (x) = 0.08498 0.64978
# Poissons Ratio (y) = 0.02913 0.48083
# Poissons Ratio (z) = 0.14115 0.30471
#
# Static dielectric constant tensor:
#      x y z
#    x 1.994260 0.000000 -0.002300 
#    y 0.000000 2.015240 0.000000 
#    z -0.002300 0.000000 2.043410 
# 
# From -- ./inp_files/152201.got.cif
#   From: 2010.05.17/outbox.cif.g08.bks.cpg/sg15_77_cif.got.tgz:152201.got - 2010.06.03 18:47:42.
