data_PCOD9295144
_publ_section_title
;
Structure prediction by ZEFSAII (Michael W. Deem and Ramdas Pophale) SiO2 
 PCOD9295144
Probable space group: C 2/C
;
_chemical_formula_sum "Si O2"
_cell_formula_units_Z 48
_cell_length_a 9.354145
_cell_length_b 16.572816
_cell_length_c 13.347751
_cell_angle_alpha 90.000000
_cell_angle_beta 87.076781
_cell_angle_gamma 90.000000
_cell_volume 2066.536207
_symmetry_space_group_name_H-M "C 2/C"
_symmetry_group_IT_number 15
_symmetry_cell_setting 'monoclinic'
loop_
_space_group_symop_operation_xyz
x,y,z
-x,y,1/2-z
-x,-y,-z
x,-y,1/2+z
1/2+x,1/2+y,z
1/2-x,1/2+y,1/2-z
1/2-x,1/2-y,-z
1/2+x,1/2-y,1/2+z
loop_
_atom_site_type_symbol
_atom_site_label
_atom_site_fract_x
_atom_site_fract_y
_atom_site_fract_z
Si Si1 0.845821 0.411594 0.558940
Si Si2 0.000000 0.281163 0.250000
Si Si3 0.041238 0.718193 0.965762
Si Si4 0.262574 0.083208 0.782793
Si Si5 0.763785 0.917596 0.447809
Si Si6 0.937825 0.881107 0.025134
Si Si7 0.500000 0.049670 0.250000
O O1 0.840296 0.506454 0.532105
O O2 0.679102 0.386963 0.559034
O O3 0.928584 0.402537 0.660964
O O4 0.925061 0.353386 0.479164
O O5 0.035904 0.242085 0.355254
O O6 0.136874 0.338158 0.226055
O O7 0.185905 0.666775 0.975253
O O8 0.990258 0.788852 0.040031
O O9 0.202081 0.077665 0.672060
O O10 0.146064 0.089586 0.873264
O O11 0.372069 0.008464 0.792853
O O12 0.912509 0.925514 0.499669
#
# Coordination Sequence:
#
# PCOD9295144 Si02
#       7
#     8   4   8   8   8   8   4
#     4  11  23  42  68  95 128 173 227 270 317 397
#     4   9  18  38  60  90 122 175 214 256 327 382
#     4  11  23  41  69  94 133 176 221 265 324 402
#     4   9  19  37  67  89 128 170 223 257 323 401
#     4  10  23  42  65  95 135 177 214 268 331 394
#     4  12  23  39  66 103 129 170 219 279 330 380
#     4   9  22  42  64 100 128 179 222 272 331 386
#
# _framework density 23.227271999999999
#
# number of rings (size 3 to 8) (size 9 to 14) (size 15 to 20)
#    0.000    1.667    1.667    3.500    2.333    0.000 
#    3.000    1.667    3.667    0.000    0.000    0.000 
#    0.000    0.000    0.000    0.000    0.000    0.000 
#
# Total GULP energy -134015.528895 kJ/mol
# GULP energy per Si atom -5583.980371 kJ/mol
# Density = 2.317441 g / cm^3
# Si number density = 23.227272 Si / 1000 Ang^3
#
#
#
# Elastic Constant Matrix: (Units=GPa)
#
#
# Indices 1 2 3 4 5 6 
#
# 1 155.9685 27.6528 43.0254 0.0000 17.8980 0.0000
# 2 27.6528 80.6311 24.0878 0.0000 -9.0714 0.0000
# 3 43.0254 24.0878 103.2304 0.0000 0.1366 0.0000
# 4 0.0000 0.0000 0.0000 11.0583 0.0000 -4.0795
# 5 17.8980 -9.0714 0.1366 0.0000 38.7834 0.0000
# 6 0.0000 0.0000 0.0000 -4.0795 0.0000 25.4273
#
#
#
# Elastic Compliance Matrix: (Units=1/GPa)
#
#
# Indices 1 2 3 4 5 6 
#
# 1 0.008110 -0.002426 -0.002808 0.000000 -0.004300 0.000000
# 2 -0.002426 0.014448 -0.002366 0.000000 0.004507 0.000000
# 3 -0.002808 -0.002366 0.011409 0.000000 0.000702 0.000000
# 4 0.000000 0.000000 0.000000 0.096119 0.000000 0.015421
# 5 -0.004300 0.004507 0.000702 0.000000 0.028821 0.000000
# 6 0.000000 0.000000 0.000000 0.015421 0.000000 0.041802
#
#
# Mechanical properties :
#
#
# Convention : Reuss Voigt Hill
#
# Bulk Modulus (GPa) = 53.28891 58.81801 56.05346
# Shear Modulus (GPa) = 22.50587 31.39140 26.94864
#
# Velocity S-wave (km/s) = 3.11616 3.68025 3.40989
# Velocity P-wave (km/s) = 5.99495 6.59066 6.29985
#
# Compressibility (1/GPa) = 0.01876563
#
# Stress axis : x y z
#
# Youngs Moduli (GPa) = 123.30666 69.21289 87.65225
#
# Poissons Ratio (x) = 0.16792 0.24615
# Poissons Ratio (y) = 0.29916 0.20740
# Poissons Ratio (z) = 0.34628 0.16377
#
# Static dielectric constant tensor:
#      x y z
#    x 1.884630 0.000000 0.055610 
#    y 0.000000 1.899570 0.000000 
#    z 0.055610 0.000000 1.941530 
# 
# From -- ./inp_files/134905.got.cif
#   From: 2010.05.17/outbox.cif.g08.bks.cpg/sg15_68_cif.got.tgz:134905.got - 2010.06.03 18:47:42.
