data_PCOD9295632
_publ_section_title
;
Structure prediction by ZEFSAII (Michael W. Deem and Ramdas Pophale) SiO2 
 PCOD9295632
Probable space group: C 2/C
;
_chemical_formula_sum "Si O2"
_cell_formula_units_Z 60
_cell_length_a 19.851180
_cell_length_b 23.957985
_cell_length_c 8.422214
_cell_angle_alpha 90.000000
_cell_angle_beta 137.873231
_cell_angle_gamma 90.000000
_cell_volume 2686.820122
_symmetry_space_group_name_H-M "C 2/C"
_symmetry_group_IT_number 15
_symmetry_cell_setting 'monoclinic'
loop_
_space_group_symop_operation_xyz
x,y,z
-x,y,1/2-z
-x,-y,-z
x,-y,1/2+z
1/2+x,1/2+y,z
1/2-x,1/2+y,1/2-z
1/2-x,1/2-y,-z
1/2+x,1/2-y,1/2+z
loop_
_atom_site_type_symbol
_atom_site_label
_atom_site_fract_x
_atom_site_fract_y
_atom_site_fract_z
Si Si1 0.295350 0.121390 0.335284
Si Si2 0.273369 0.496240 0.815523
Si Si3 0.586795 0.457385 0.193686
Si Si4 0.582957 0.660722 0.526667
Si Si5 0.500000 0.186314 0.750000
Si Si6 0.766910 0.617249 0.644910
Si Si7 0.924990 0.292185 0.467942
Si Si8 0.884599 0.809295 0.090364
O O1 0.403343 0.150583 0.522058
O O2 0.249025 0.128682 0.429410
O O3 0.302522 0.055088 0.321660
O O4 0.209523 0.148633 0.075881
O O5 0.311783 0.523127 0.719225
O O6 0.233464 0.550933 0.834115
O O7 0.375983 0.467789 0.063335
O O8 0.556234 0.396765 0.075260
O O9 0.500000 0.500000 0.000000
O O10 0.681075 0.644778 0.600359
O O11 0.605033 0.705127 0.704339
O O12 0.500000 0.673998 0.250000
O O13 0.539322 0.214710 0.653401
O O14 0.867500 0.649290 0.866006
O O15 0.861117 0.238903 0.419971
O O16 0.000000 0.294915 0.750000
O O17 0.000000 0.828063 0.250000
#
# Coordination Sequence:
#
# PCOD9295632 Si02
#       8
#     8   8   8   8   4   8   8   8
#     4  11  23  46  69 103 146 180 250 289 372 431
#     4  11  21  36  62  95 142 184 234 292 351 432
#     4  11  21  33  56  94 141 192 225 283 355 428
#     4  11  23  39  63 103 142 185 239 284 368 431
#     4  10  26  48  78 102 138 194 232 318 354 430
#     4  10  23  43  66  97 141 190 233 302 348 428
#     4  10  25  51  71 103 140 182 252 295 371 419
#     4  11  25  44  71 105 139 189 235 304 354 445
#
# _framework density 22.331230999999999
#
# number of rings (size 3 to 8) (size 9 to 14) (size 15 to 20)
#    0.000    1.333    2.667    2.800    3.733    2.667 
#   13.200    1.333    0.000    0.000    0.000    0.000 
#    0.000    0.000    0.000    0.000    0.000    0.000 
#
# Total GULP energy -167253.148561 kJ/mol
# GULP energy per Si atom -5575.104952 kJ/mol
# Density = 2.228040 g / cm^3
# Si number density = 22.331231 Si / 1000 Ang^3
#
#
#
# Elastic Constant Matrix: (Units=GPa)
#
#
# Indices 1 2 3 4 5 6 
#
# 1 79.3597 27.9567 25.6686 0.0000 -23.1914 0.0000
# 2 27.9567 97.5475 38.7841 0.0000 0.9433 0.0000
# 3 25.6686 38.7841 87.5740 0.0000 -13.8225 0.0000
# 4 0.0000 0.0000 0.0000 28.8588 0.0000 -13.9203
# 5 -23.1914 0.9433 -13.8225 0.0000 35.7017 0.0000
# 6 0.0000 0.0000 0.0000 -13.9203 0.0000 9.6329
#
#
#
# Elastic Compliance Matrix: (Units=1/GPa)
#
#
# Indices 1 2 3 4 5 6 
#
# 1 0.018013 -0.004709 -0.001414 0.000000 0.011278 0.000000
# 2 -0.004709 0.013908 -0.005666 0.000000 -0.005620 0.000000
# 3 -0.001414 -0.005666 0.015147 0.000000 0.005096 0.000000
# 4 0.000000 0.000000 0.000000 0.114378 0.000000 0.165286
# 5 0.011278 -0.005620 0.005096 0.000000 0.037457 0.000000
# 6 0.000000 0.000000 0.000000 0.165286 0.000000 0.342662
#
#
# Mechanical properties :
#
#
# Convention : Reuss Voigt Hill
#
# Bulk Modulus (GPa) = 42.57311 49.92223 46.24767
# Shear Modulus (GPa) = 8.72638 26.31012 17.51825
#
# Velocity S-wave (km/s) = 1.97894 3.43618 2.80388
# Velocity P-wave (km/s) = 4.93228 6.17632 5.58902
#
# Compressibility (1/GPa) = 0.02348900
#
# Stress axis : x y z
#
# Youngs Moduli (GPa) = 55.51554 71.89924 66.01892
#
# Poissons Ratio (x) = 0.33859 0.09335
# Poissons Ratio (y) = 0.26144 0.37409
# Poissons Ratio (z) = 0.07850 0.40741
#
# Static dielectric constant tensor:
#      x y z
#    x 1.862360 0.000000 -0.022540 
#    y 0.000000 1.889960 0.000000 
#    z -0.022540 0.000000 1.850840 
# 
# From -- ./inp_files/58784.got.cif
#   From: 2010.05.17/outbox.cif.g08.bks.cpg/sg15_30_cif.got.tgz:58784.got - 2010.06.03 18:47:42.
