data_PCOD9295198
_publ_section_title
;
Structure prediction by ZEFSAII (Michael W. Deem and Ramdas Pophale) SiO2 
 PCOD9295198
Probable space group: C 2/C
;
_chemical_formula_sum "Si O2"
_cell_formula_units_Z 64
_cell_length_a 31.122088
_cell_length_b 10.743317
_cell_length_c 18.024187
_cell_angle_alpha 90.000000
_cell_angle_beta 150.671132
_cell_angle_gamma 90.000000
_cell_volume 2951.894886
_symmetry_space_group_name_H-M "C 2/C"
_symmetry_group_IT_number 15
_symmetry_cell_setting 'monoclinic'
loop_
_space_group_symop_operation_xyz
x,y,z
-x,y,1/2-z
-x,-y,-z
x,-y,1/2+z
1/2+x,1/2+y,z
1/2-x,1/2+y,1/2-z
1/2-x,1/2-y,-z
1/2+x,1/2-y,1/2+z
loop_
_atom_site_type_symbol
_atom_site_label
_atom_site_fract_x
_atom_site_fract_y
_atom_site_fract_z
Si Si1 0.246837 0.510785 0.173411
Si Si2 0.325564 0.268019 0.223624
Si Si3 0.450560 0.235253 0.044478
Si Si4 0.539896 0.978306 0.385477
Si Si5 0.010987 0.295043 0.062612
Si Si6 0.108952 0.895137 0.312977
Si Si7 0.817171 0.152184 0.139656
Si Si8 0.815751 0.883069 0.918220
O O1 0.267556 0.383212 0.162893
O O2 0.280863 0.615525 0.166617
O O3 0.297547 0.514839 0.328367
O O4 0.144721 0.528567 0.036510
O O5 0.418552 0.271990 0.406062
O O6 0.343908 0.284984 0.163818
O O7 0.273951 0.147492 0.173249
O O8 0.508868 0.361585 0.138629
O O9 0.487536 0.122946 0.149198
O O10 0.453031 0.179720 0.965768
O O11 0.354331 0.269758 0.927582
O O12 0.500000 0.923942 0.250000
O O13 0.507362 0.907076 0.409311
O O14 0.087285 0.213385 0.212364
O O15 0.116462 0.895811 0.412469
O O16 0.159286 0.020488 0.364086
O O17 0.750000 0.250000 0.000000
#
# Coordination Sequence:
#
# PCOD9295198 Si02
#       8
#     8   8   8   8   8   8   8   8
#     4  11  24  41  68  97 131 183 223 279 346 404
#     4  10  23  42  66  95 136 175 223 277 342 402
#     4  11  24  43  71  99 136 176 227 283 348 405
#     4  12  24  43  65 100 140 177 229 285 341 405
#     4  11  24  45  68  97 135 182 226 280 343 411
#     4  10  25  42  68 100 129 178 221 279 341 399
#     4  11  25  48  68  95 136 179 229 277 340 407
#     4  12  21  42  66 100 136 169 231 276 337 406
#
# _framework density 21.680989
#
# number of rings (size 3 to 8) (size 9 to 14) (size 15 to 20)
#    0.000    1.000    3.750    2.625    1.750    3.500 
#    9.000    0.000    0.000    0.000    0.000    0.000 
#    0.000    0.000    0.000    0.000    0.000    0.000 
#
# Total GULP energy -178437.221068 kJ/mol
# GULP energy per Si atom -5576.163158 kJ/mol
# Density = 2.163164 g / cm^3
# Si number density = 21.680989 Si / 1000 Ang^3
#
#
#
# Elastic Constant Matrix: (Units=GPa)
#
#
# Indices 1 2 3 4 5 6 
#
# 1 106.6763 16.1955 -0.2396 0.0000 -13.4036 0.0000
# 2 16.1955 43.0344 1.3063 0.0000 0.1266 0.0000
# 3 -0.2396 1.3063 61.5445 0.0000 -3.3941 0.0000
# 4 0.0000 0.0000 0.0000 24.0287 0.0000 5.5442
# 5 -13.4036 0.1266 -3.3941 0.0000 44.3317 0.0000
# 6 0.0000 0.0000 0.0000 5.5442 0.0000 28.2016
#
#
#
# Elastic Compliance Matrix: (Units=1/GPa)
#
#
# Indices 1 2 3 4 5 6 
#
# 1 0.010368 -0.003920 0.000298 0.000000 0.003169 0.000000
# 2 -0.003920 0.024735 -0.000612 0.000000 -0.001303 0.000000
# 3 0.000298 -0.000612 0.016337 0.000000 0.001343 0.000000
# 4 0.000000 0.000000 0.000000 0.043594 0.000000 -0.008570
# 5 0.003169 -0.001303 0.001343 0.000000 0.023622 0.000000
# 6 0.000000 0.000000 0.000000 -0.008570 0.000000 0.037144
#
#
# Mechanical properties :
#
#
# Convention : Reuss Voigt Hill
#
# Bulk Modulus (GPa) = 23.27120 27.30884 25.29002
# Shear Modulus (GPa) = 27.99680 32.24527 30.12103
#
# Velocity S-wave (km/s) = 3.59737 3.86068 3.73135
# Velocity P-wave (km/s) = 5.29259 5.70055 5.50036
#
# Compressibility (1/GPa) = 0.04297157
#
# Stress axis : x y z
#
# Youngs Moduli (GPa) = 96.44913 40.42852 61.21223
#
# Poissons Ratio (x) = 0.15849 -0.01826
# Poissons Ratio (y) = 0.37811 0.03747
# Poissons Ratio (z) = -0.02877 0.02475
#
# Static dielectric constant tensor:
#      x y z
#    x 1.819880 0.000000 -0.010800 
#    y 0.000000 1.820240 0.000000 
#    z -0.010800 0.000000 1.809180 
# 
# From -- ./inp_files/225204.got.cif
#   From: 2010.05.17/outbox.cif.g08.bks.cpg/sg15_113_cif.got.tgz:225204.got - 2010.06.03 18:47:42.
