data_PCOD9295203
_publ_section_title
;
Structure prediction by ZEFSAII (Michael W. Deem and Ramdas Pophale) SiO2 
 PCOD9295203
Probable space group: C 2/C
;
_chemical_formula_sum "Si O2"
_cell_formula_units_Z 56
_cell_length_a 11.239813
_cell_length_b 22.666623
_cell_length_c 8.700618
_cell_angle_alpha 90.000000
_cell_angle_beta 111.835588
_cell_angle_gamma 90.000000
_cell_volume 2057.611113
_symmetry_space_group_name_H-M "C 2/C"
_symmetry_group_IT_number 15
_symmetry_cell_setting 'monoclinic'
loop_
_space_group_symop_operation_xyz
x,y,z
-x,y,1/2-z
-x,-y,-z
x,-y,1/2+z
1/2+x,1/2+y,z
1/2-x,1/2+y,1/2-z
1/2-x,1/2-y,-z
1/2+x,1/2-y,1/2+z
loop_
_atom_site_type_symbol
_atom_site_label
_atom_site_fract_x
_atom_site_fract_y
_atom_site_fract_z
Si Si1 0.082055 0.124358 0.419409
Si Si2 0.357292 0.340894 0.985862
Si Si3 0.898650 0.007491 0.586294
Si Si4 0.862682 0.531773 0.601868
Si Si5 0.755390 0.634681 0.744331
Si Si6 0.107639 0.627486 0.167283
Si Si7 0.524756 0.779017 0.083433
O O1 0.123381 0.061688 0.372793
O O2 0.192062 0.160185 0.557423
O O3 0.000000 0.154249 0.250000
O O4 0.975848 0.118137 0.498722
O O5 0.240386 0.361258 0.821694
O O6 0.403178 0.274291 0.969106
O O7 0.329539 0.352228 0.149644
O O8 0.745765 0.019556 0.484339
O O9 0.000000 0.036077 0.750000
O O10 0.000000 0.000000 0.500000
O O11 0.788424 0.569499 0.699350
O O12 0.890347 0.574721 0.464083
O O13 0.000000 0.516442 0.750000
O O14 0.884003 0.664700 0.855427
O O15 0.000000 0.618802 0.250000
O O16 0.084609 0.690857 0.071792
O O17 0.500000 0.766593 0.250000
#
# Coordination Sequence:
#
# PCOD9295203 Si02
#       7
#     8   8   8   8   8   8   8
#     4  10  23  42  66  96 128 174 225 276 343 418
#     4  12  25  37  60  93 129 181 230 294 340 404
#     4  10  23  44  74 104 141 174 223 284 354 441
#     4  11  21  45  73 100 138 185 235 290 358 423
#     4  11  21  41  62  88 132 171 226 280 342 400
#     4  12  23  40  63  92 133 179 239 288 347 406
#     4  12  25  40  58  88 132 179 239 289 337 394
#
# _framework density 27.21603
#
# number of rings (size 3 to 8) (size 9 to 14) (size 15 to 20)
#    0.000    0.857    4.286    3.857    2.000    2.857 
#    0.000    2.143    0.000    0.857    0.000    0.000 
#    0.000    0.000    0.000    0.000    0.000    0.000 
#
# Total GULP energy -156154.467038 kJ/mol
# GULP energy per Si atom -5576.945251 kJ/mol
# Density = 2.715408 g / cm^3
# Si number density = 27.216030 Si / 1000 Ang^3
#
#
#
# Elastic Constant Matrix: (Units=GPa)
#
#
# Indices 1 2 3 4 5 6 
#
# 1 133.3290 12.7957 53.8017 0.0000 3.5419 0.0000
# 2 12.7957 105.6879 45.8873 0.0000 0.3606 0.0000
# 3 53.8017 45.8873 189.1923 0.0000 0.7203 0.0000
# 4 0.0000 0.0000 0.0000 -37.2094 0.0000 -58.6371
# 5 3.5419 0.3606 0.7203 0.0000 68.0050 0.0000
# 6 0.0000 0.0000 0.0000 -58.6371 0.0000 168.6489
#
#
#
# Elastic Compliance Matrix: (Units=1/GPa)
#
#
# Indices 1 2 3 4 5 6 
#
# 1 0.008484 0.000024 -0.002417 0.000000 -0.000416 0.000000
# 2 0.000024 0.010576 -0.002572 0.000000 -0.000030 0.000000
# 3 -0.002417 -0.002572 0.006596 0.000000 0.000070 0.000000
# 4 0.000000 0.000000 0.000000 -0.017362 0.000000 -0.006037
# 5 -0.000416 -0.000030 0.000070 0.000000 0.014726 0.000000
# 6 0.000000 0.000000 0.000000 -0.006037 0.000000 0.003831
#
#
# Mechanical properties :
#
#
# Convention : Reuss Voigt Hill
#
# Bulk Modulus (GPa) = 63.58709 72.57539 68.08124
# Shear Modulus (GPa) = 118.98314 60.93722 89.96018
#
# Velocity S-wave (km/s) = 6.61913 4.73696 5.75551
# Velocity P-wave (km/s) = 9.04609 7.52613 8.32089
#
# Compressibility (1/GPa) = 0.01572646
#
# Stress axis : x y z
#
# Youngs Moduli (GPa) = 117.86465 94.55716 151.59814
#
# Poissons Ratio (x) = -0.00223 0.36639
# Poissons Ratio (y) = -0.00278 0.38985
# Poissons Ratio (z) = 0.28486 0.24317
#
# Static dielectric constant tensor:
#      x y z
#    x 2.090150 0.000000 0.355940 
#    y 0.000000 2.207740 0.000000 
#    z 0.355940 0.000000 2.431440 
# 
# From -- ./inp_files/34311.got.cif
#   From: 2010.05.17/outbox.cif.g08.bks.cpg/sg15_18_cif.got.tgz:34311.got - 2010.06.03 18:47:42.
