data_PCOD9295371
_publ_section_title
;
Structure prediction by ZEFSAII (Michael W. Deem and Ramdas Pophale) SiO2 
 PCOD9295371
Probable space group: C 2/C
;
_chemical_formula_sum "Si O2"
_cell_formula_units_Z 44
_cell_length_a 10.340397
_cell_length_b 19.180534
_cell_length_c 8.792298
_cell_angle_alpha 90.000000
_cell_angle_beta 80.507866
_cell_angle_gamma 90.000000
_cell_volume 1719.938717
_symmetry_space_group_name_H-M "C 2/C"
_symmetry_group_IT_number 15
_symmetry_cell_setting 'monoclinic'
loop_
_space_group_symop_operation_xyz
x,y,z
-x,y,1/2-z
-x,-y,-z
x,-y,1/2+z
1/2+x,1/2+y,z
1/2-x,1/2+y,1/2-z
1/2-x,1/2-y,-z
1/2+x,1/2-y,1/2+z
loop_
_atom_site_type_symbol
_atom_site_label
_atom_site_fract_x
_atom_site_fract_y
_atom_site_fract_z
Si Si1 0.677602 0.912491 0.531529
Si Si2 0.362819 0.592457 0.549519
Si Si3 0.926320 0.363359 0.420677
Si Si4 0.750000 0.250000 0.000000
Si Si5 0.317371 0.480532 0.775167
Si Si6 0.121286 0.755967 0.334321
O O1 0.527438 0.905240 0.507534
O O2 0.735213 0.834665 0.508368
O O3 0.710082 0.941125 0.692193
O O4 0.751057 0.964047 0.401843
O O5 0.204490 0.595540 0.593967
O O6 0.403816 0.527832 0.645335
O O7 0.384792 0.576472 0.369724
O O8 0.411024 0.666677 0.599139
O O9 0.878794 0.295919 0.524180
O O10 0.000000 0.346117 0.250000
O O11 0.759971 0.246109 0.806762
O O12 0.000000 0.734234 0.250000
#
# Coordination Sequence:
#
# PCOD9295371 Si02
#       6
#     8   8   8   4   8   8
#     4  11  23  42  70 105 144 192 231 297 360 431
#     4  11  24  43  66 101 138 185 235 295 351 432
#     4  12  24  42  67 108 143 183 235 288 366 428
#     4  12  22  46  72 100 140 192 240 290 350 420
#     4  10  23  42  70 101 147 186 233 293 370 421
#     4  12  26  46  73 100 145 186 243 296 354 419
#
# _framework density 25.582307
#
# number of rings (size 3 to 8) (size 9 to 14) (size 15 to 20)
#    0.000    0.727    5.455    1.636    0.000    5.818 
#    0.000    0.909    0.000    0.000    0.000    0.000 
#    0.000    0.000    0.000    0.000    0.000    0.000 
#
# Total GULP energy -122786.410750 kJ/mol
# GULP energy per Si atom -5581.200489 kJ/mol
# Density = 2.552408 g / cm^3
# Si number density = 25.582307 Si / 1000 Ang^3
#
#
#
# Elastic Constant Matrix: (Units=GPa)
#
#
# Indices 1 2 3 4 5 6 
#
# 1 58.8522 14.8291 38.6664 0.0000 2.8882 0.0000
# 2 14.8291 129.4799 66.7798 0.0000 -3.3677 0.0000
# 3 38.6664 66.7798 211.6922 0.0000 3.6002 0.0000
# 4 0.0000 0.0000 0.0000 63.0676 0.0000 11.3897
# 5 2.8882 -3.3677 3.6002 0.0000 38.8654 0.0000
# 6 0.0000 0.0000 0.0000 11.3897 0.0000 38.0620
#
#
#
# Elastic Compliance Matrix: (Units=1/GPa)
#
#
# Indices 1 2 3 4 5 6 
#
# 1 0.019386 -0.000519 -0.003357 0.000000 -0.001175 0.000000
# 2 -0.000519 0.009283 -0.002852 0.000000 0.001107 0.000000
# 3 -0.003357 -0.002852 0.006247 0.000000 -0.000576 0.000000
# 4 0.000000 0.000000 0.000000 0.016762 0.000000 -0.005016
# 5 -0.001175 0.001107 -0.000576 0.000000 0.025966 0.000000
# 6 0.000000 0.000000 0.000000 -0.005016 0.000000 0.027774
#
#
# Mechanical properties :
#
#
# Convention : Reuss Voigt Hill
#
# Bulk Modulus (GPa) = 46.60339 71.17500 58.88920
# Shear Modulus (GPa) = 39.67404 46.64893 43.16148
#
# Velocity S-wave (km/s) = 3.94234 4.27486 4.11196
# Velocity P-wave (km/s) = 6.24334 7.22830 6.75380
#
# Compressibility (1/GPa) = 0.02145767
#
# Stress axis : x y z
#
# Youngs Moduli (GPa) = 51.58396 107.72935 160.08772
#
# Poissons Ratio (x) = 0.05595 0.53743
# Poissons Ratio (y) = 0.02679 0.45660
# Poissons Ratio (z) = 0.17317 0.30727
#
# Static dielectric constant tensor:
#      x y z
#    x 2.149370 0.000000 -0.051830 
#    y 0.000000 1.943920 0.000000 
#    z -0.051830 0.000000 2.037450 
# 
# From -- ./inp_files/39138.got.cif
#   From: 2010.05.17/outbox.cif.g08.bks.cpg/sg15_20_cif.got.tgz:39138.got - 2010.06.03 18:47:42.
