data_PCOD9295555
_publ_section_title
;
Structure prediction by ZEFSAII (Michael W. Deem and Ramdas Pophale) SiO2 
 PCOD9295555
Probable space group: C 2/C
;
_chemical_formula_sum "Si O2"
_cell_formula_units_Z 48
_cell_length_a 12.195402
_cell_length_b 12.716739
_cell_length_c 18.649807
_cell_angle_alpha 90.000000
_cell_angle_beta 55.750799
_cell_angle_gamma 90.000000
_cell_volume 2390.784101
_symmetry_space_group_name_H-M "C 2/C"
_symmetry_group_IT_number 15
_symmetry_cell_setting 'monoclinic'
loop_
_space_group_symop_operation_xyz
x,y,z
-x,y,1/2-z
-x,-y,-z
x,-y,1/2+z
1/2+x,1/2+y,z
1/2-x,1/2+y,1/2-z
1/2-x,1/2-y,-z
1/2+x,1/2-y,1/2+z
loop_
_atom_site_type_symbol
_atom_site_label
_atom_site_fract_x
_atom_site_fract_y
_atom_site_fract_z
Si Si1 0.739590 0.263254 0.853498
Si Si2 0.818176 0.821761 0.169425
Si Si3 0.857709 0.518800 0.275675
Si Si4 0.190673 0.580599 0.977494
Si Si5 0.928928 0.899439 0.493427
Si Si6 0.623396 0.097567 0.391568
O O1 0.761636 0.207361 0.768951
O O2 0.833920 0.365072 0.816930
O O3 0.755240 0.173754 0.906813
O O4 0.601779 0.318260 0.929983
O O5 0.741341 0.924129 0.169981
O O6 0.808524 0.711431 0.131161
O O7 0.972826 0.851792 0.102927
O O8 0.846297 0.540027 0.194804
O O9 0.000000 0.483136 0.250000
O O10 0.289575 0.570709 0.007558
O O11 0.174972 0.475271 0.936547
O O12 0.037011 0.609075 0.049720
O O13 0.000000 0.000000 0.500000
#
# Coordination Sequence:
#
# PCOD9295555 Si02
#       6
#     8   8   8   8   8   8
#     4  11  23  42  67  97 128 172 223 280 324 394
#     4  11  24  43  66  99 133 172 222 272 335 395
#     4  11  23  41  65  96 136 175 219 270 333 396
#     4  11  23  43  68  95 131 173 224 276 329 394
#     4  12  25  44  66 100 134 171 226 279 332 392
#     4  10  23  43  64  95 132 176 219 269 336 394
#
# _framework density 20.077096000000001
#
# number of rings (size 3 to 8) (size 9 to 14) (size 15 to 20)
#    0.000    1.000    5.000    1.500    4.667    0.000 
#    3.000    0.833    0.000    0.000    0.000    0.000 
#    0.000    0.000    0.000    0.000    0.000    0.000 
#
# Total GULP energy -133779.586602 kJ/mol
# GULP energy per Si atom -5574.149442 kJ/mol
# Density = 2.003140 g / cm^3
# Si number density = 20.077096 Si / 1000 Ang^3
#
#
#
# Elastic Constant Matrix: (Units=GPa)
#
#
# Indices 1 2 3 4 5 6 
#
# 1 65.6277 49.3442 33.9797 0.0000 -5.7416 0.0000
# 2 49.3442 136.7849 48.3656 0.0000 -1.3715 0.0000
# 3 33.9797 48.3656 102.8714 0.0000 -4.1033 0.0000
# 4 0.0000 0.0000 0.0000 46.4478 0.0000 -7.4336
# 5 -5.7416 -1.3715 -4.1033 0.0000 24.5106 0.0000
# 6 0.0000 0.0000 0.0000 -7.4336 0.0000 6.6707
#
#
#
# Elastic Compliance Matrix: (Units=1/GPa)
#
#
# Indices 1 2 3 4 5 6 
#
# 1 0.022836 -0.006702 -0.004222 0.000000 0.004268 0.000000
# 2 -0.006702 0.010737 -0.002892 0.000000 -0.001453 0.000000
# 3 -0.004222 -0.002892 0.012513 0.000000 0.000944 0.000000
# 4 0.000000 0.000000 0.000000 0.026203 0.000000 0.029199
# 5 0.004268 -0.001453 0.000944 0.000000 0.041875 0.000000
# 6 0.000000 0.000000 0.000000 0.029199 0.000000 0.182447
#
#
# Mechanical properties :
#
#
# Convention : Reuss Voigt Hill
#
# Bulk Modulus (GPa) = 54.19088 63.18478 58.68783
# Shear Modulus (GPa) = 15.13346 27.09879 21.11612
#
# Velocity S-wave (km/s) = 2.74846 3.67786 3.24659
# Velocity P-wave (km/s) = 6.09279 7.04095 6.58396
#
# Compressibility (1/GPa) = 0.01845329
#
# Stress axis : x y z
#
# Youngs Moduli (GPa) = 43.79034 93.13929 79.91917
#
# Poissons Ratio (x) = 0.62426 0.33739
# Poissons Ratio (y) = 0.29350 0.23112
# Poissons Ratio (z) = 0.18487 0.26935
#
# Static dielectric constant tensor:
#      x y z
#    x 1.651880 0.000000 -0.001300 
#    y 0.000000 1.704570 0.000000 
#    z -0.001300 0.000000 1.792150 
# 
# From -- ./inp_files/237421.got.cif
#   From: 2010.05.17/outbox.cif.g08.bks.cpg/sg15_119_cif.got.tgz:237421.got - 2010.06.03 18:47:42.
