data_PCOD9295617
_publ_section_title
;
Structure prediction by ZEFSAII (Michael W. Deem and Ramdas Pophale) SiO2 
 PCOD9295617
Probable space group: C 2/C
;
_chemical_formula_sum "Si O2"
_cell_formula_units_Z 48
_cell_length_a 12.720627
_cell_length_b 10.423945
_cell_length_c 21.941431
_cell_angle_alpha 90.000000
_cell_angle_beta 41.242008
_cell_angle_gamma 90.000000
_cell_volume 1918.005048
_symmetry_space_group_name_H-M "C 2/C"
_symmetry_group_IT_number 15
_symmetry_cell_setting 'monoclinic'
loop_
_space_group_symop_operation_xyz
x,y,z
-x,y,1/2-z
-x,-y,-z
x,-y,1/2+z
1/2+x,1/2+y,z
1/2-x,1/2+y,1/2-z
1/2-x,1/2-y,-z
1/2+x,1/2-y,1/2+z
loop_
_atom_site_type_symbol
_atom_site_label
_atom_site_fract_x
_atom_site_fract_y
_atom_site_fract_z
Si Si1 0.892618 0.252647 0.985643
Si Si2 0.611440 0.598105 0.256330
Si Si3 0.353518 0.903442 0.843856
Si Si4 0.534608 0.997915 0.386603
Si Si5 0.202974 0.851199 0.363367
Si Si6 0.076642 0.213735 0.051298
O O1 0.959247 0.395855 0.965418
O O2 0.043930 0.173399 0.893334
O O3 0.750000 0.250000 0.000000
O O4 0.800680 0.183095 0.080131
O O5 0.500000 0.546010 0.250000
O O6 0.776109 0.524136 0.197743
O O7 0.675752 0.736772 0.203875
O O8 0.511237 0.623300 0.361563
O O9 0.500000 0.829018 0.750000
O O10 0.428965 0.966657 0.872197
O O11 0.298355 0.018241 0.824120
O O12 0.510567 0.850401 0.412032
O O13 0.120243 0.841162 0.466131
O O14 0.250000 0.250000 0.000000
#
# Coordination Sequence:
#
# PCOD9295617 Si02
#       6
#     8   8   8   8   8   8
#     4   9  22  41  62  95 132 171 209 274 346 383
#     4  11  23  43  65 102 136 177 229 284 340 398
#     4  11  21  39  68  98 131 171 226 279 328 399
#     4  10  23  43  66  94 139 170 219 287 330 401
#     4  11  22  41  72  94 129 178 231 274 325 406
#     4  12  23  43  72  99 126 178 236 264 335 418
#
# _framework density 25.026002999999999
#
# number of rings (size 3 to 8) (size 9 to 14) (size 15 to 20)
#    0.000    1.333    3.333    2.000    2.333    2.667 
#    6.000    0.000    3.667    0.000    0.000    0.000 
#    0.000    0.000    0.000    0.000    0.000    0.000 
#
# Total GULP energy -134223.453130 kJ/mol
# GULP energy per Si atom -5592.643880 kJ/mol
# Density = 2.496904 g / cm^3
# Si number density = 25.026003 Si / 1000 Ang^3
#
#
#
# Elastic Constant Matrix: (Units=GPa)
#
#
# Indices 1 2 3 4 5 6 
#
# 1 111.0909 17.3155 21.2381 0.0000 -24.6180 0.0000
# 2 17.3155 88.5318 25.0343 0.0000 -11.9572 0.0000
# 3 21.2381 25.0343 120.4672 0.0000 -23.8197 0.0000
# 4 0.0000 0.0000 0.0000 27.8885 0.0000 -5.4478
# 5 -24.6180 -11.9572 -23.8197 0.0000 56.8976 0.0000
# 6 0.0000 0.0000 0.0000 -5.4478 0.0000 28.6865
#
#
#
# Elastic Compliance Matrix: (Units=1/GPa)
#
#
# Indices 1 2 3 4 5 6 
#
# 1 0.010193 -0.001257 -0.000781 0.000000 0.003819 0.000000
# 2 -0.001257 0.012293 -0.002104 0.000000 0.001159 0.000000
# 3 -0.000781 -0.002104 0.009509 0.000000 0.003201 0.000000
# 4 0.000000 0.000000 0.000000 0.037238 0.000000 0.007072
# 5 0.003819 0.001159 0.003201 0.000000 0.020811 0.000000
# 6 0.000000 0.000000 0.000000 0.007072 0.000000 0.036203
#
#
# Mechanical properties :
#
#
# Convention : Reuss Voigt Hill
#
# Bulk Modulus (GPa) = 42.17347 49.69617 45.93482
# Shear Modulus (GPa) = 35.10401 39.79466 37.44933
#
# Velocity S-wave (km/s) = 3.74933 3.99197 3.87255
# Velocity P-wave (km/s) = 5.96923 6.41473 6.19598
#
# Compressibility (1/GPa) = 0.02371159
#
# Stress axis : x y z
#
# Youngs Moduli (GPa) = 98.10482 81.34953 105.16650
#
# Poissons Ratio (x) = 0.10226 0.08210
# Poissons Ratio (y) = 0.12332 0.22125
# Poissons Ratio (z) = 0.07658 0.17114
#
# Static dielectric constant tensor:
#      x y z
#    x 2.175690 0.000000 0.090140 
#    y 0.000000 1.996170 0.000000 
#    z 0.090140 0.000000 2.096410 
# 
# From -- ./inp_files/296066.got.cif
#   From: 2010.05.17/outbox.cif.g08.bks.cpg/sg15_149_cif.got.tgz:296066.got - 2010.06.03 18:47:42.
