data_PCOD9295758
_publ_section_title
;
Structure prediction by ZEFSAII (Michael W. Deem and Ramdas Pophale) SiO2 
 PCOD9295758
Probable space group: C 2/C
;
_chemical_formula_sum "Si O2"
_cell_formula_units_Z 48
_cell_length_a 17.665106
_cell_length_b 10.584954
_cell_length_c 13.621198
_cell_angle_alpha 90.000000
_cell_angle_beta 58.754294
_cell_angle_gamma 90.000000
_cell_volume 2177.517355
_symmetry_space_group_name_H-M "C 2/C"
_symmetry_group_IT_number 15
_symmetry_cell_setting 'monoclinic'
loop_
_space_group_symop_operation_xyz
x,y,z
-x,y,1/2-z
-x,-y,-z
x,-y,1/2+z
1/2+x,1/2+y,z
1/2-x,1/2+y,1/2-z
1/2-x,1/2-y,-z
1/2+x,1/2-y,1/2+z
loop_
_atom_site_type_symbol
_atom_site_label
_atom_site_fract_x
_atom_site_fract_y
_atom_site_fract_z
Si Si1 0.086248 0.665264 0.963859
Si Si2 0.906499 0.125114 0.868863
Si Si3 0.726533 0.467337 0.201346
Si Si4 0.190504 0.692938 0.455604
Si Si5 0.977734 0.437971 0.376834
Si Si6 0.596367 0.440718 0.464580
O O1 0.035201 0.669717 0.893480
O O2 0.101517 0.776874 0.033457
O O3 0.019913 0.571151 0.068152
O O4 0.000000 0.000000 0.000000
O O5 0.833123 0.115883 0.833469
O O6 0.875288 0.595633 0.949675
O O7 0.000000 0.141250 0.750000
O O8 0.820982 0.396239 0.133253
O O9 0.670903 0.486000 0.338213
O O10 0.603716 0.509294 0.070061
O O11 0.250000 0.750000 0.500000
O O12 0.251761 0.610416 0.344635
O O13 0.125710 0.793960 0.447285
O O14 0.000000 0.453159 0.250000
#
# Coordination Sequence:
#
# PCOD9295758 Si02
#       6
#     8   8   8   8   8   8
#     4  10  24  45  68 105 140 192 245 298 371 442
#     4  12  24  44  71 104 146 190 245 303 370 440
#     4  11  26  45  71 104 142 190 244 304 364 442
#     4  11  25  45  68 103 142 188 242 297 368 437
#     4  10  23  43  69 100 143 188 239 304 370 435
#     4  12  26  45  71 105 146 191 242 299 376 446
#
# _framework density 22.043451999999998
#
# number of rings (size 3 to 8) (size 9 to 14) (size 15 to 20)
#    0.000    1.000    3.333    2.000    4.667    2.000 
#    3.000    0.000    0.000    0.000    0.000    0.000 
#    0.000    0.000    0.000    0.000    0.000    0.000 
#
# Total GULP energy -133651.292612 kJ/mol
# GULP energy per Si atom -5568.803859 kJ/mol
# Density = 2.199328 g / cm^3
# Si number density = 22.043452 Si / 1000 Ang^3
#
#
#
# Elastic Constant Matrix: (Units=GPa)
#
#
# Indices 1 2 3 4 5 6 
#
# 1 111.9357 10.4775 35.3993 0.0000 -6.7113 0.0000
# 2 10.4775 66.7924 12.4959 0.0000 -11.4394 0.0000
# 3 35.3993 12.4959 125.4350 0.0000 -29.2036 0.0000
# 4 0.0000 0.0000 0.0000 25.9822 0.0000 1.8037
# 5 -6.7113 -11.4394 -29.2036 0.0000 36.8473 0.0000
# 6 0.0000 0.0000 0.0000 1.8037 0.0000 33.5668
#
#
#
# Elastic Compliance Matrix: (Units=1/GPa)
#
#
# Indices 1 2 3 4 5 6 
#
# 1 0.009901 -0.001158 -0.002873 0.000000 -0.000833 0.000000
# 2 -0.001158 0.015977 -0.000195 0.000000 0.004595 0.000000
# 3 -0.002873 -0.000195 0.010627 0.000000 0.007839 0.000000
# 4 0.000000 0.000000 0.000000 0.038632 0.000000 -0.002076
# 5 -0.000833 0.004595 0.007839 0.000000 0.034627 0.000000
# 6 0.000000 0.000000 0.000000 -0.002076 0.000000 0.029903
#
#
# Mechanical properties :
#
#
# Convention : Reuss Voigt Hill
#
# Bulk Modulus (GPa) = 35.64685 46.76758 41.20722
# Shear Modulus (GPa) = 31.75219 35.66529 33.70874
#
# Velocity S-wave (km/s) = 3.79943 4.02674 3.91473
# Velocity P-wave (km/s) = 5.95431 6.54841 6.25841
#
# Compressibility (1/GPa) = 0.02805297
#
# Stress axis : x y z
#
# Youngs Moduli (GPa) = 101.00357 62.59056 94.09577
#
# Poissons Ratio (x) = 0.07250 0.27030
# Poissons Ratio (y) = 0.11699 0.01835
# Poissons Ratio (z) = 0.29015 0.01221
#
# Static dielectric constant tensor:
#      x y z
#    x 1.835280 0.000000 0.012380 
#    y 0.000000 2.035960 0.000000 
#    z 0.012380 0.000000 1.839460 
# 
# From -- ./inp_files/116264.got.cif
#   From: 2010.05.17/outbox.cif.g08.bks.cpg/sg15_59_cif.got.tgz:116264.got - 2010.06.03 18:47:42.
